data_PCOD8292937
_publ_section_title
;
Structure prediction by ZEFSAII (Michael W. Deem and Ramdas Pophale) SiO2 
 PCOD8292937
Probable space group: I B A M
;
_chemical_formula_sum "Si O2"
_cell_formula_units_Z 96
_cell_length_a 23.840544
_cell_length_b 18.398723
_cell_length_c 12.696380
_cell_angle_alpha 90.000000
_cell_angle_beta 90.000000
_cell_angle_gamma 90.000000
_cell_volume 5569.083818
_symmetry_space_group_name_H-M "I B A M"
_symmetry_group_IT_number 72
_symmetry_cell_setting 'orthorhombic'
loop_
_space_group_symop_operation_xyz
x,y,z
-x,-y,z
x,-y,1/2-z
-x,y,1/2-z
-x,-y,-z
x,y,-z
-x,y,1/2+z
x,-y,1/2+z
1/2+x,1/2+y,1/2+z
1/2-x,1/2-y,1/2+z
1/2+x,1/2-y,-z
1/2-x,1/2+y,-z
1/2-x,1/2-y,1/2-z
1/2+x,1/2+y,1/2-z
1/2-x,1/2+y,z
1/2+x,1/2-y,z
loop_
_atom_site_type_symbol
_atom_site_label
_atom_site_fract_x
_atom_site_fract_y
_atom_site_fract_z
Si Si1 0.683718 0.953602 0.876747
Si Si2 0.733072 0.333597 0.878175
Si Si3 0.088110 0.341805 0.625056
Si Si4 0.479048 0.922212 0.876420
Si Si5 0.353926 0.893166 0.125068
Si Si6 0.670672 0.761788 0.239372
O O1 0.744147 0.915614 0.857588
O O2 0.633686 0.901778 0.833505
O O3 0.679992 0.035707 0.829666
O O4 0.671053 0.961574 0.000000
O O5 0.680634 0.315314 0.799785
O O6 0.782022 0.275431 0.849894
O O7 0.715635 0.324184 0.000000
O O8 0.090430 0.331862 0.500000
O O9 0.109278 0.267149 0.682526
O O10 0.025845 0.364113 0.662094
O O11 0.418453 0.898324 0.833858
O O12 0.500000 0.000000 0.833160
O O13 0.476352 0.926100 0.000000
O O14 0.323668 0.822202 0.168658
O O15 0.351645 0.889834 0.000000
#
# Coordination Sequence:
#
# PCOD8292937 Si02
#       6
#    16  16  16  16  16  16
#     4   8  14  26  42  56  76 107 142 180 217 253
#     4   9  18  32  44  54  73 103 140 184 231 274
#     4   9  16  27  40  56  80 110 143 176 210 252
#     4   9  15  26  41  57  86 122 148 176 212 247
#     4  10  18  27  41  63  87 111 145 186 213 245
#     4  10  19  28  42  60  77 103 140 185 227 260
#
# _framework density 17.238023999999999
#
# number of rings (size 3 to 8) (size 9 to 14) (size 15 to 20)
#    0.000    2.833    1.667    2.000    0.000    3.333 
#    0.000    0.833    0.000    0.000    0.000    2.333 
#    0.000    0.000    0.000    0.000    0.000   81.667 
#
# Total GULP energy -594740.598070 kJ/mol
# GULP energy per Si atom -12390.429126 kJ/mol
# Density = 1.719879 g / cm^3
# Si number density = 17.238024 Si / 1000 Ang^3
#
#
#
# Elastic Constant Matrix: (Units=GPa)
#
#
# Indices 1 2 3 4 5 6 
#
# 1 72.3436 42.0916 27.0785 0.0000 0.0000 0.0000
# 2 42.0916 52.0560 24.4990 0.0000 0.0000 0.0000
# 3 27.0785 24.4990 51.2567 0.0000 0.0000 0.0000
# 4 0.0000 0.0000 0.0000 10.5366 0.0000 0.0000
# 5 0.0000 0.0000 0.0000 0.0000 26.5299 0.0000
# 6 0.0000 0.0000 0.0000 0.0000 0.0000 33.6685
#
#
#
# Elastic Compliance Matrix: (Units=1/GPa)
#
#
# Indices 1 2 3 4 5 6 
#
# 1 0.027042 -0.019537 -0.004948 0.000000 0.000000 0.000000
# 2 -0.019537 0.038901 -0.008272 0.000000 0.000000 0.000000
# 3 -0.004948 -0.008272 0.026077 0.000000 0.000000 0.000000
# 4 0.000000 0.000000 0.000000 0.094908 0.000000 0.000000
# 5 0.000000 0.000000 0.000000 0.000000 0.037693 0.000000
# 6 0.000000 0.000000 0.000000 0.000000 0.000000 0.029701
#
#
# Mechanical properties :
#
#
# Convention : Reuss Voigt Hill
#
# Bulk Modulus (GPa) = 37.72745 40.33274 39.03009
# Shear Modulus (GPa) = 15.21272 19.61280 17.41276
#
# Velocity S-wave (km/s) = 2.97393 3.37673 3.18171
# Velocity P-wave (km/s) = 5.80741 6.21703 6.01571
#
# Compressibility (1/GPa) = 0.02650590
#
# Stress axis : x y z
#
# Youngs Moduli (GPa) = 36.97897 25.70652 38.34751
#
# Poissons Ratio (x) = 0.50224 0.18975
# Poissons Ratio (y) = 0.72247 0.31720
# Poissons Ratio (z) = 0.18297 0.21264
#
# Static dielectric constant tensor:
#      x y z
#    x 3.131950 0.000000 0.000000 
#    y 0.000000 3.017470 0.000000 
#    z 0.000000 0.000000 3.637690 
# 
# 
# High freq. dielectric constant tensor:
#      x y z
#    x 1.629890 0.000000 0.000000 
#    y 0.000000 1.603810 0.000000 
#    z 0.000000 0.000000 1.719940 
# 
# From -- ./inp_files/24403.got.cif
#   From: 2010.03.12/outbox.cif.g09.slc.cpg/sg72_13_cif.got.tgz:24403.got - 2010.04.16 14:54:00.
