data_PCOD8292846
_publ_section_title
;
Structure prediction by ZEFSAII (Michael W. Deem and Ramdas Pophale) SiO2 
 PCOD8292846
Probable space group: I B A M
;
_chemical_formula_sum "Si O2"
_cell_formula_units_Z 112
_cell_length_a 22.288078
_cell_length_b 12.954055
_cell_length_c 24.973302
_cell_angle_alpha 90.000000
_cell_angle_beta 90.000000
_cell_angle_gamma 90.000000
_cell_volume 7210.316433
_symmetry_space_group_name_H-M "I B A M"
_symmetry_group_IT_number 72
_symmetry_cell_setting 'orthorhombic'
loop_
_space_group_symop_operation_xyz
x,y,z
-x,-y,z
x,-y,1/2-z
-x,y,1/2-z
-x,-y,-z
x,y,-z
-x,y,1/2+z
x,-y,1/2+z
1/2+x,1/2+y,1/2+z
1/2-x,1/2-y,1/2+z
1/2+x,1/2-y,-z
1/2-x,1/2+y,-z
1/2-x,1/2-y,1/2-z
1/2+x,1/2+y,1/2-z
1/2-x,1/2+y,z
1/2+x,1/2-y,z
loop_
_atom_site_type_symbol
_atom_site_label
_atom_site_fract_x
_atom_site_fract_y
_atom_site_fract_z
Si Si1 0.435828 0.602093 0.392484
Si Si2 0.151475 0.248575 0.561917
Si Si3 0.717147 0.947126 0.938529
Si Si4 0.749553 0.137171 0.125293
Si Si5 0.177142 0.834382 0.614014
Si Si6 0.937049 0.891882 0.061630
Si Si7 0.846274 0.977652 0.688134
O O1 0.408768 0.712441 0.408818
O O2 0.507387 0.617047 0.396505
O O3 0.414735 0.511052 0.433626
O O4 0.408960 0.570953 0.334124
O O5 0.142604 0.232317 0.500000
O O6 0.163061 0.368522 0.575824
O O7 0.205911 0.175075 0.579213
O O8 0.778717 0.885006 0.929424
O O9 0.710583 0.043750 0.899055
O O10 0.714066 0.983182 0.000000
O O11 0.703244 0.228782 0.139920
O O12 0.789658 0.098968 0.175918
O O13 0.114812 0.814293 0.582010
O O14 0.166608 0.911479 0.662673
O O15 0.954877 0.867276 0.000000
O O16 0.853792 0.000000 0.750000
#
# Coordination Sequence:
#
# PCOD8292846 Si02
#       7
#    16  16  16  16  16  16  16
#     4   9  17  28  41  61  86 112 143 178 215 258
#     4   9  15  24  40  60  84 112 139 169 210 261
#     4   9  16  25  40  62  86 112 139 170 213 262
#     4   9  17  28  42  61  87 111 139 179 218 258
#     4   9  18  29  41  63  88 112 143 176 213 262
#     4  10  17  26  43  65  90 117 142 168 206 263
#     4   9  18  31  46  64  84 110 145 185 226 263
#
# _framework density 15.533299
#
# number of rings (size 3 to 8) (size 9 to 14) (size 15 to 20)
#    0.000    2.857    0.000    3.429    0.000    2.286 
#    0.000    5.714    0.000    0.857    0.000    3.000 
#    0.000    0.000    0.000    0.143    0.000    0.000 
#
# Total GULP energy -693926.655735 kJ/mol
# GULP energy per Si atom -12391.547424 kJ/mol
# Density = 1.549794 g / cm^3
# Si number density = 15.533299 Si / 1000 Ang^3
#
#
#
# Elastic Constant Matrix: (Units=GPa)
#
#
# Indices 1 2 3 4 5 6 
#
# 1 86.2207 37.9894 35.3368 0.0000 0.0000 0.0000
# 2 37.9894 63.7337 26.7832 0.0000 0.0000 0.0000
# 3 35.3368 26.7832 80.1256 0.0000 0.0000 0.0000
# 4 0.0000 0.0000 0.0000 13.0448 0.0000 0.0000
# 5 0.0000 0.0000 0.0000 0.0000 14.4745 0.0000
# 6 0.0000 0.0000 0.0000 0.0000 0.0000 21.7453
#
#
#
# Elastic Compliance Matrix: (Units=1/GPa)
#
#
# Indices 1 2 3 4 5 6 
#
# 1 0.017204 -0.008221 -0.004839 0.000000 0.000000 0.000000
# 2 -0.008221 0.022183 -0.003789 0.000000 0.000000 0.000000
# 3 -0.004839 -0.003789 0.015881 0.000000 0.000000 0.000000
# 4 0.000000 0.000000 0.000000 0.076659 0.000000 0.000000
# 5 0.000000 0.000000 0.000000 0.000000 0.069087 0.000000
# 6 0.000000 0.000000 0.000000 0.000000 0.000000 0.045987
#
#
# Mechanical properties :
#
#
# Convention : Reuss Voigt Hill
#
# Bulk Modulus (GPa) = 46.36313 47.81097 47.08705
# Shear Modulus (GPa) = 17.36782 18.51764 17.94273
#
# Velocity S-wave (km/s) = 3.34743 3.45646 3.40238
# Velocity P-wave (km/s) = 6.69722 6.83930 6.76863
#
# Compressibility (1/GPa) = 0.02156886
#
# Stress axis : x y z
#
# Youngs Moduli (GPa) = 58.12744 45.07969 62.96746
#
# Poissons Ratio (x) = 0.37059 0.30471
# Poissons Ratio (y) = 0.47786 0.23861
# Poissons Ratio (z) = 0.28129 0.17083
#
# Static dielectric constant tensor:
#      x y z
#    x 2.993820 0.000000 0.000000 
#    y 0.000000 3.131320 0.000000 
#    z 0.000000 0.000000 2.696230 
# 
# 
# High freq. dielectric constant tensor:
#      x y z
#    x 1.583450 0.000000 0.000000 
#    y 0.000000 1.583640 0.000000 
#    z 0.000000 0.000000 1.570790 
# 
# From -- ./inp_files/43544.got.cif
#   From: 2010.03.12/outbox.cif.g09.slc.cpg/sg72_22_cif.got.tgz:43544.got - 2010.04.16 14:54:00.
