data_PCOD8292619
_publ_section_title
;
Structure prediction by ZEFSAII (Michael W. Deem and Ramdas Pophale) SiO2 
 PCOD8292619
Probable space group: I M M M
;
_chemical_formula_sum "Si O2"
_cell_formula_units_Z 80
_cell_length_a 24.512105
_cell_length_b 9.616400
_cell_length_c 23.785214
_cell_angle_alpha 90.000000
_cell_angle_beta 90.000000
_cell_angle_gamma 90.000000
_cell_volume 5606.607986
_symmetry_space_group_name_H-M "I M M M"
_symmetry_group_IT_number 71
_symmetry_cell_setting 'orthorhombic'
loop_
_space_group_symop_operation_xyz
x,y,z
-x,-y,z
x,-y,-z
-x,y,-z
-x,-y,-z
x,y,-z
-x,y,z
x,-y,z
1/2+x,1/2+y,1/2+z
1/2-x,1/2-y,1/2+z
1/2+x,1/2-y,1/2-z
1/2-x,1/2+y,1/2-z
1/2-x,1/2-y,1/2-z
1/2+x,1/2+y,1/2-z
1/2-x,1/2+y,1/2+z
1/2+x,1/2-y,1/2+z
loop_
_atom_site_type_symbol
_atom_site_label
_atom_site_fract_x
_atom_site_fract_y
_atom_site_fract_z
Si Si1 0.760317 0.660573 0.334167
Si Si2 0.440690 0.835033 0.240451
Si Si3 0.673321 0.160549 0.278440
Si Si4 0.440547 0.165292 0.114301
Si Si5 0.169110 0.334488 0.562209
O O1 0.743367 0.500000 0.339339
O O2 0.705743 0.748643 0.323745
O O3 0.803327 0.682674 0.284124
O O4 0.787256 0.717451 0.391755
O O5 0.500000 0.788492 0.265631
O O6 0.389598 0.785275 0.278421
O O7 0.434549 0.775225 0.177477
O O8 0.437794 0.000000 0.236699
O O9 0.677941 0.000000 0.296518
O O10 0.500000 0.210195 0.089701
O O11 0.391315 0.225066 0.076451
O O12 0.436689 0.000000 0.116178
O O13 0.185901 0.281418 0.500000
O O14 0.167167 0.500000 0.564176
#
# Coordination Sequence:
#
# PCOD8292619 Si02
#       5
#    16  16  16  16  16
#     4   9  16  25  36  53  75  98 124 152 183 216
#     4   8  12  19  33  52  73  95 119 149 184 218
#     4   9  15  24  39  55  72  96 124 152 181 219
#     4   8  12  18  28  44  69  98 125 153 183 212
#     4   9  15  22  32  47  71 101 129 155 183 216
#
# _framework density 14.268877
#
# number of rings (size 3 to 8) (size 9 to 14) (size 15 to 20)
#    0.000    3.400    2.000    1.200    0.000    0.400 
#    0.000    2.000    0.000    1.200    0.000    0.000 
#    0.000    1.600    0.000   11.800    0.000    2.000 
#
# Total GULP energy -495531.014532 kJ/mol
# GULP energy per Si atom -12388.275363 kJ/mol
# Density = 1.423640 g / cm^3
# Si number density = 14.268877 Si / 1000 Ang^3
#
#
#
# Elastic Constant Matrix: (Units=GPa)
#
#
# Indices 1 2 3 4 5 6 
#
# 1 132.4145 28.4690 64.3686 0.0000 0.0000 0.0000
# 2 28.4690 20.1152 18.7838 0.0000 0.0000 0.0000
# 3 64.3686 18.7838 79.4598 0.0000 0.0000 0.0000
# 4 0.0000 0.0000 0.0000 9.9410 0.0000 0.0000
# 5 0.0000 0.0000 0.0000 0.0000 21.8870 0.0000
# 6 0.0000 0.0000 0.0000 0.0000 0.0000 15.2181
#
#
#
# Elastic Compliance Matrix: (Units=1/GPa)
#
#
# Indices 1 2 3 4 5 6 
#
# 1 0.014479 -0.012241 -0.008835 0.000000 0.000000 0.000000
# 2 -0.012241 0.074146 -0.007611 0.000000 0.000000 0.000000
# 3 -0.008835 -0.007611 0.021541 0.000000 0.000000 0.000000
# 4 0.000000 0.000000 0.000000 0.100594 0.000000 0.000000
# 5 0.000000 0.000000 0.000000 0.000000 0.045689 0.000000
# 6 0.000000 0.000000 0.000000 0.000000 0.000000 0.065711
#
#
# Mechanical properties :
#
#
# Convention : Reuss Voigt Hill
#
# Bulk Modulus (GPa) = 18.94269 50.58138 34.76203
# Shear Modulus (GPa) = 12.59024 17.43377 15.01200
#
# Velocity S-wave (km/s) = 2.97367 3.49922 3.24710
# Velocity P-wave (km/s) = 5.00946 7.20082 6.20268
#
# Compressibility (1/GPa) = 0.05279082
#
# Stress axis : x y z
#
# Youngs Moduli (GPa) = 69.06616 13.48687 46.42219
#
# Poissons Ratio (x) = 0.16510 0.41015
# Poissons Ratio (y) = 0.84547 0.35333
# Poissons Ratio (z) = 0.61021 0.10265
#
# Static dielectric constant tensor:
#      x y z
#    x 3.129690 0.000000 0.000000 
#    y 0.000000 2.312340 0.000000 
#    z 0.000000 0.000000 2.681830 
# 
# 
# High freq. dielectric constant tensor:
#      x y z
#    x 1.553050 0.000000 0.000000 
#    y 0.000000 1.485990 0.000000 
#    z 0.000000 0.000000 1.509480 
# 
# From -- ./inp_files/16791.got.cif
#   From: 2010.06.25/outbox.cif.g09.slc.cpg/sg71_9_cif.got.tgz:16791.got - 2010.06.28 04:59:45.
