data_PCOD8292009
_publ_section_title
;
Structure prediction by ZEFSAII (Michael W. Deem and Ramdas Pophale) SiO2 
 PCOD8292009
Probable space group: I M M M
;
_chemical_formula_sum "Si O2"
_cell_formula_units_Z 64
_cell_length_a 18.721345
_cell_length_b 10.596066
_cell_length_c 15.259547
_cell_angle_alpha 90.000000
_cell_angle_beta 90.000000
_cell_angle_gamma 90.000000
_cell_volume 3027.076124
_symmetry_space_group_name_H-M "I M M M"
_symmetry_group_IT_number 71
_symmetry_cell_setting 'orthorhombic'
loop_
_space_group_symop_operation_xyz
x,y,z
-x,-y,z
x,-y,-z
-x,y,-z
-x,-y,-z
x,y,-z
-x,y,z
x,-y,z
1/2+x,1/2+y,1/2+z
1/2-x,1/2-y,1/2+z
1/2+x,1/2-y,1/2-z
1/2-x,1/2+y,1/2-z
1/2-x,1/2-y,1/2-z
1/2+x,1/2+y,1/2-z
1/2-x,1/2+y,1/2+z
1/2+x,1/2-y,1/2+z
loop_
_atom_site_type_symbol
_atom_site_label
_atom_site_fract_x
_atom_site_fract_y
_atom_site_fract_z
Si Si1 0.187995 0.000000 0.215939
Si Si2 0.084153 0.363012 0.000000
Si Si3 0.421016 0.226995 0.136636
Si Si4 0.419250 0.715535 0.670710
Si Si5 0.179169 0.500000 0.405418
Si Si6 0.641665 0.500000 0.098748
O O1 0.142189 0.884741 0.182354
O O2 0.265774 0.000000 0.174088
O O3 0.199690 0.000000 0.321961
O O4 0.108556 0.293733 0.912072
O O5 0.120921 0.500000 0.000000
O O6 0.000000 0.377330 0.000000
O O7 0.500000 0.198903 0.099895
O O8 0.420469 0.202210 0.241087
O O9 0.404554 0.372764 0.111647
O O10 0.367173 0.127446 0.095273
O O11 0.500000 0.660230 0.654565
O O12 0.218738 0.500000 0.500000
O O13 0.675115 0.500000 0.000000
#
# Coordination Sequence:
#
# PCOD8292009 Si02
#       6
#     8   8  16  16   8   8
#     4  10  23  41  63  86 132 163 208 252 312 367
#     4   9  18  31  55  93 127 156 205 260 307 364
#     4  10  22  41  66  94 125 160 205 264 322 372
#     4   9  19  36  63  93 122 160 207 259 314 371
#     4  12  27  41  61  89 128 173 212 253 308 376
#     4  10  21  40  69  98 123 156 206 263 316 375
#
# _framework density 21.142515
#
# number of rings (size 3 to 8) (size 9 to 14) (size 15 to 20)
#    0.000    2.125    0.000    1.875    3.500   10.000 
#    0.000    1.875    5.500    0.000    0.000    0.000 
#    0.000    0.000    0.000    0.000    0.000    0.000 
#
# Total GULP energy -396476.933595 kJ/mol
# GULP energy per Si atom -12389.904175 kJ/mol
# Density = 2.109439 g / cm^3
# Si number density = 21.142515 Si / 1000 Ang^3
#
#
#
# Elastic Constant Matrix: (Units=GPa)
#
#
# Indices 1 2 3 4 5 6 
#
# 1 101.8988 41.5074 42.3307 0.0000 0.0000 0.0000
# 2 41.5074 114.7565 52.2054 0.0000 0.0000 0.0000
# 3 42.3307 52.2054 196.6393 0.0000 0.0000 0.0000
# 4 0.0000 0.0000 0.0000 25.3246 0.0000 0.0000
# 5 0.0000 0.0000 0.0000 0.0000 20.0712 0.0000
# 6 0.0000 0.0000 0.0000 0.0000 0.0000 14.6615
#
#
#
# Elastic Compliance Matrix: (Units=1/GPa)
#
#
# Indices 1 2 3 4 5 6 
#
# 1 0.011947 -0.003584 -0.001620 0.000000 0.000000 0.000000
# 2 -0.003584 0.010986 -0.002145 0.000000 0.000000 0.000000
# 3 -0.001620 -0.002145 0.006004 0.000000 0.000000 0.000000
# 4 0.000000 0.000000 0.000000 0.039487 0.000000 0.000000
# 5 0.000000 0.000000 0.000000 0.000000 0.049823 0.000000
# 6 0.000000 0.000000 0.000000 0.000000 0.000000 0.068206
#
#
# Mechanical properties :
#
#
# Convention : Reuss Voigt Hill
#
# Bulk Modulus (GPa) = 70.23548 76.15352 73.19450
# Shear Modulus (GPa) = 24.28394 30.49486 27.38940
#
# Velocity S-wave (km/s) = 3.39275 3.80195 3.60316
# Velocity P-wave (km/s) = 6.97423 7.44113 7.21146
#
# Compressibility (1/GPa) = 0.01423782
#
# Stress axis : x y z
#
# Youngs Moduli (GPa) = 83.70545 91.02203 166.56182
#
# Poissons Ratio (x) = 0.32622 0.26987
# Poissons Ratio (y) = 0.30000 0.35731
# Poissons Ratio (z) = 0.13562 0.19526
#
# Static dielectric constant tensor:
#      x y z
#    x 3.471820 0.000000 0.000000 
#    y 0.000000 3.847050 0.000000 
#    z 0.000000 0.000000 4.302940 
# 
# 
# High freq. dielectric constant tensor:
#      x y z
#    x 1.799030 0.000000 0.000000 
#    y 0.000000 1.826000 0.000000 
#    z 0.000000 0.000000 1.852690 
# 
# From -- ./inp_files/35850.got.cif
#   From: 2010.06.25/outbox.cif.g09.slc.cpg/sg71_18_cif.got.tgz:35850.got - 2010.06.28 04:59:45.
