data_PCOD8292074
_publ_section_title
;
Structure prediction by ZEFSAII (Michael W. Deem and Ramdas Pophale) SiO2 
 PCOD8292074
Probable space group: I M M M
;
_chemical_formula_sum "Si O2"
_cell_formula_units_Z 104
_cell_length_a 26.865330
_cell_length_b 9.072422
_cell_length_c 21.134049
_cell_angle_alpha 90.000000
_cell_angle_beta 90.000000
_cell_angle_gamma 90.000000
_cell_volume 5151.078076
_symmetry_space_group_name_H-M "I M M M"
_symmetry_group_IT_number 71
_symmetry_cell_setting 'orthorhombic'
loop_
_space_group_symop_operation_xyz
x,y,z
-x,-y,z
x,-y,-z
-x,y,-z
-x,-y,-z
x,y,-z
-x,y,z
x,-y,z
1/2+x,1/2+y,1/2+z
1/2-x,1/2-y,1/2+z
1/2+x,1/2-y,1/2-z
1/2-x,1/2+y,1/2-z
1/2-x,1/2-y,1/2-z
1/2+x,1/2+y,1/2-z
1/2-x,1/2+y,1/2+z
1/2+x,1/2-y,1/2+z
loop_
_atom_site_type_symbol
_atom_site_label
_atom_site_fract_x
_atom_site_fract_y
_atom_site_fract_z
Si Si1 0.782449 0.673112 0.695277
Si Si2 0.617889 0.333307 0.169370
Si Si3 0.056215 0.833206 0.788678
Si Si4 0.120474 0.325753 0.886056
Si Si5 0.280282 0.670230 0.427111
Si Si6 0.555875 0.833564 0.926093
Si Si7 0.554658 0.824818 0.500000
O O1 0.783459 0.500000 0.710611
O O2 0.750000 0.750000 0.750000
O O3 0.837542 0.738360 0.698860
O O4 0.763539 0.701905 0.623211
O O5 0.636936 0.500000 0.159020
O O6 0.570121 0.328743 0.215151
O O7 0.598318 0.268225 0.103718
O O8 0.098031 0.733371 0.821210
O O9 0.000000 0.771008 0.797713
O O10 0.059471 0.000000 0.814746
O O11 0.124138 0.500000 0.883163
O O12 0.174462 0.266323 0.901977
O O13 0.082910 0.266386 0.938946
O O14 0.265352 0.713585 0.500000
O O15 0.296099 0.500000 0.424832
O O16 0.500000 0.776422 0.911041
O O17 0.561943 0.000000 0.900305
O O18 0.565902 0.830114 0.000000
O O19 0.500000 0.754427 0.500000
O O20 0.552236 0.000000 0.500000
#
# Coordination Sequence:
#
# PCOD8292074 Si02
#       7
#    16  16  16  16  16  16   8
#     4  11  24  42  63  88 118 156 201 252 310 367
#     4  11  23  39  60  87 119 155 196 247 301 355
#     4  10  22  39  57  81 117 158 197 237 285 344
#     4  11  21  35  57  85 116 150 190 238 290 340
#     4  10  22  41  63  85 114 154 198 243 294 355
#     4   9  19  37  61  89 122 159 197 239 291 356
#     4   9  18  32  49  75 113 147 177 223 280 331
#
# _framework density 20.189947
#
# number of rings (size 3 to 8) (size 9 to 14) (size 15 to 20)
#    0.000    1.769    0.769    3.692    0.000    8.923 
#    0.000    2.308    0.000    1.846    0.000    0.000 
#    0.000    0.000    0.000    0.000    0.000    0.000 
#
# Total GULP energy -644747.261563 kJ/mol
# GULP energy per Si atom -12398.985799 kJ/mol
# Density = 2.014399 g / cm^3
# Si number density = 20.189947 Si / 1000 Ang^3
#
#
#
# Elastic Constant Matrix: (Units=GPa)
#
#
# Indices 1 2 3 4 5 6 
#
# 1 92.6411 45.9003 38.5909 0.0000 0.0000 0.0000
# 2 45.9003 94.1329 43.5838 0.0000 0.0000 0.0000
# 3 38.5909 43.5838 94.2141 0.0000 0.0000 0.0000
# 4 0.0000 0.0000 0.0000 30.9786 0.0000 0.0000
# 5 0.0000 0.0000 0.0000 0.0000 41.5483 0.0000
# 6 0.0000 0.0000 0.0000 0.0000 0.0000 32.8869
#
#
#
# Elastic Compliance Matrix: (Units=1/GPa)
#
#
# Indices 1 2 3 4 5 6 
#
# 1 0.015106 -0.005728 -0.003538 0.000000 0.000000 0.000000
# 2 -0.005728 0.015691 -0.004912 0.000000 0.000000 0.000000
# 3 -0.003538 -0.004912 0.014336 0.000000 0.000000 0.000000
# 4 0.000000 0.000000 0.000000 0.032280 0.000000 0.000000
# 5 0.000000 0.000000 0.000000 0.000000 0.024068 0.000000
# 6 0.000000 0.000000 0.000000 0.000000 0.000000 0.030407
#
#
# Mechanical properties :
#
#
# Convention : Reuss Voigt Hill
#
# Bulk Modulus (GPa) = 59.60788 59.68201 59.64495
# Shear Modulus (GPa) = 30.15015 31.27697 30.71356
#
# Velocity S-wave (km/s) = 3.86855 3.94018 3.90453
# Velocity P-wave (km/s) = 7.03860 7.09397 7.06634
#
# Compressibility (1/GPa) = 0.01677630
#
# Stress axis : x y z
#
# Youngs Moduli (GPa) = 66.19878 63.73205 69.75570
#
# Poissons Ratio (x) = 0.36505 0.24678
# Poissons Ratio (y) = 0.37918 0.34267
# Poissons Ratio (z) = 0.23420 0.31308
#
# Static dielectric constant tensor:
#      x y z
#    x 3.716810 0.000000 0.000000 
#    y 0.000000 3.627540 0.000000 
#    z 0.000000 0.000000 3.751800 
# 
# 
# High freq. dielectric constant tensor:
#      x y z
#    x 1.790420 0.000000 0.000000 
#    y 0.000000 1.782920 0.000000 
#    z 0.000000 0.000000 1.796180 
# 
# From -- ./inp_files/56245.got.cif
#   From: 2010.06.25/outbox.cif.g09.slc.cpg/sg71_29_cif.got.tgz:56245.got - 2010.06.28 04:59:45.
