data_PCOD8292600
_publ_section_title
;
Structure prediction by ZEFSAII (Michael W. Deem and Ramdas Pophale) SiO2 
 PCOD8292600
Probable space group: I M M M
;
_chemical_formula_sum "Si O2"
_cell_formula_units_Z 96
_cell_length_a 8.813012
_cell_length_b 19.575632
_cell_length_c 29.985777
_cell_angle_alpha 90.000000
_cell_angle_beta 90.000000
_cell_angle_gamma 90.000000
_cell_volume 5173.154636
_symmetry_space_group_name_H-M "I M M M"
_symmetry_group_IT_number 71
_symmetry_cell_setting 'orthorhombic'
loop_
_space_group_symop_operation_xyz
x,y,z
-x,-y,z
x,-y,-z
-x,y,-z
-x,-y,-z
x,y,-z
-x,y,z
x,-y,z
1/2+x,1/2+y,1/2+z
1/2-x,1/2-y,1/2+z
1/2+x,1/2-y,1/2-z
1/2-x,1/2+y,1/2-z
1/2-x,1/2-y,1/2-z
1/2+x,1/2+y,1/2-z
1/2-x,1/2+y,1/2+z
1/2+x,1/2-y,1/2+z
loop_
_atom_site_type_symbol
_atom_site_label
_atom_site_fract_x
_atom_site_fract_y
_atom_site_fract_z
Si Si1 0.679928 0.428103 0.449954
Si Si2 0.823458 0.205988 0.628941
Si Si3 0.677153 0.719673 0.447494
Si Si4 0.178587 0.211850 0.791956
Si Si5 0.325785 0.922716 0.336937
Si Si6 0.175977 0.423276 0.267288
O O1 0.743980 0.430396 0.500000
O O2 0.500000 0.426184 0.451789
O O3 0.733124 0.500000 0.425778
O O4 0.731320 0.355706 0.428916
O O5 0.776951 0.225130 0.578611
O O6 0.728750 0.252452 0.662715
O O7 0.784086 0.126519 0.635512
O O8 0.000000 0.218017 0.637046
O O9 0.710211 0.726688 0.500000
O O10 0.500000 0.731933 0.437600
O O11 0.250000 0.250000 0.750000
O O12 0.226705 0.132338 0.794098
O O13 0.000000 0.217272 0.787318
O O14 0.500000 0.904818 0.347684
O O15 0.294042 0.912427 0.284853
O O16 0.288567 0.000000 0.351353
O O17 0.226255 0.500000 0.281381
O O18 0.000000 0.412219 0.278424
#
# Coordination Sequence:
#
# PCOD8292600 Si02
#       6
#    16  16  16  16  16  16
#     4   7  10  20  43  74 101 125 162 214 265 310
#     4  12  24  36  54  81 112 148 185 225 274 325
#     4   9  18  34  56  80 107 142 183 229 281 333
#     4  12  23  36  55  80 111 145 184 227 270 321
#     4   9  18  34  57  82 108 139 176 222 273 327
#     4   9  18  34  56  81 111 146 181 222 275 329
#
# _framework density 18.557342999999999
#
# number of rings (size 3 to 8) (size 9 to 14) (size 15 to 20)
#    0.000    2.333    1.667    5.500    0.000    1.000 
#    0.000    2.500    0.000    4.000    0.000    5.833 
#    0.000    0.000    0.000    0.000    0.000    0.000 
#
# Total GULP energy -594836.296469 kJ/mol
# GULP energy per Si atom -12392.422843 kJ/mol
# Density = 1.851511 g / cm^3
# Si number density = 18.557343 Si / 1000 Ang^3
#
#
#
# Elastic Constant Matrix: (Units=GPa)
#
#
# Indices 1 2 3 4 5 6 
#
# 1 94.7162 53.1470 30.8426 0.0000 0.0000 0.0000
# 2 53.1470 133.9286 40.5685 0.0000 0.0000 0.0000
# 3 30.8426 40.5685 53.3117 0.0000 0.0000 0.0000
# 4 0.0000 0.0000 0.0000 22.9877 0.0000 0.0000
# 5 0.0000 0.0000 0.0000 0.0000 20.5346 0.0000
# 6 0.0000 0.0000 0.0000 0.0000 0.0000 27.2122
#
#
#
# Elastic Compliance Matrix: (Units=1/GPa)
#
#
# Indices 1 2 3 4 5 6 
#
# 1 0.014636 -0.004215 -0.005260 0.000000 0.000000 0.000000
# 2 -0.004215 0.010917 -0.005869 0.000000 0.000000 0.000000
# 3 -0.005260 -0.005869 0.026267 0.000000 0.000000 0.000000
# 4 0.000000 0.000000 0.000000 0.043502 0.000000 0.000000
# 5 0.000000 0.000000 0.000000 0.000000 0.048698 0.000000
# 6 0.000000 0.000000 0.000000 0.000000 0.000000 0.036748
#
#
# Mechanical properties :
#
#
# Convention : Reuss Voigt Hill
#
# Bulk Modulus (GPa) = 47.32167 59.00807 53.16487
# Shear Modulus (GPa) = 22.88338 24.64012 23.76175
#
# Velocity S-wave (km/s) = 3.51539 3.64783 3.58222
# Velocity P-wave (km/s) = 6.48327 7.04336 6.76911
#
# Compressibility (1/GPa) = 0.02113197
#
# Stress axis : x y z
#
# Youngs Moduli (GPa) = 68.32687 91.60050 38.07051
#
# Poissons Ratio (x) = 0.38605 0.20025
# Poissons Ratio (y) = 0.28796 0.22345
# Poissons Ratio (z) = 0.35940 0.53763
#
# Static dielectric constant tensor:
#      x y z
#    x 3.151360 0.000000 0.000000 
#    y 0.000000 3.855930 0.000000 
#    z 0.000000 0.000000 3.076550 
# 
# 
# High freq. dielectric constant tensor:
#      x y z
#    x 1.698780 0.000000 0.000000 
#    y 0.000000 1.738650 0.000000 
#    z 0.000000 0.000000 1.680180 
# 
# From -- ./inp_files/56137.got.cif
#   From: 2010.06.25/outbox.cif.g09.slc.cpg/sg71_29_cif.got.tgz:56137.got - 2010.06.28 04:59:45.
