data_PCOD8292870
_publ_section_title
;
Structure prediction by ZEFSAII (Michael W. Deem and Ramdas Pophale) SiO2 
 PCOD8292870
Probable space group: I B A M
;
_chemical_formula_sum "Si O2"
_cell_formula_units_Z 96
_cell_length_a 23.731828
_cell_length_b 23.545606
_cell_length_c 8.668316
_cell_angle_alpha 90.000000
_cell_angle_beta 90.000000
_cell_angle_gamma 90.000000
_cell_volume 4843.683970
_symmetry_space_group_name_H-M "I B A M"
_symmetry_group_IT_number 72
_symmetry_cell_setting 'orthorhombic'
loop_
_space_group_symop_operation_xyz
x,y,z
-x,-y,z
x,-y,1/2-z
-x,y,1/2-z
-x,-y,-z
x,y,-z
-x,y,1/2+z
x,-y,1/2+z
1/2+x,1/2+y,1/2+z
1/2-x,1/2-y,1/2+z
1/2+x,1/2-y,-z
1/2-x,1/2+y,-z
1/2-x,1/2-y,1/2-z
1/2+x,1/2+y,1/2-z
1/2-x,1/2+y,z
1/2+x,1/2-y,z
loop_
_atom_site_type_symbol
_atom_site_label
_atom_site_fract_x
_atom_site_fract_y
_atom_site_fract_z
Si Si1 0.553782 0.938169 0.821786
Si Si2 0.437363 0.556629 0.816533
Si Si3 0.338225 0.730508 0.820690
Si Si4 0.238341 0.665267 0.680174
Si Si5 0.438542 0.327546 0.818205
Si Si6 0.178031 0.437555 0.681048
O O1 0.500000 0.903628 0.750000
O O2 0.615242 0.911377 0.788722
O O3 0.554850 0.000000 0.750000
O O4 0.542059 0.943682 0.000000
O O5 0.406118 0.500000 0.750000
O O6 0.500000 0.556686 0.750000
O O7 0.410417 0.615104 0.754272
O O8 0.437009 0.555258 0.000000
O O9 0.293717 0.682306 0.773643
O O10 0.312810 0.792046 0.779750
O O11 0.396157 0.723414 0.725160
O O12 0.352220 0.724423 0.000000
O O13 0.252817 0.666786 0.500000
O O14 0.222048 0.602334 0.732272
O O15 0.500000 0.314134 0.750000
O O16 0.444375 0.334481 0.000000
O O17 0.184429 0.500000 0.750000
O O18 0.191376 0.439718 0.500000
#
# Coordination Sequence:
#
# PCOD8292870 Si02
#       6
#    16  16  16  16  16  16
#     4   9  16  26  43  68  99 137 177 215 259 313
#     4  10  17  28  46  71 104 142 182 220 264 319
#     4  10  21  39  61  84 110 143 184 227 272 325
#     4  10  21  38  61  85 109 142 184 227 272 325
#     4  11  21  35  56  83 114 147 184 227 278 329
#     4  10  20  34  54  81 113 147 183 227 278 329
#
# _framework density 19.819626
#
# number of rings (size 3 to 8) (size 9 to 14) (size 15 to 20)
#    0.000    2.000    0.000    7.000    0.000    4.000 
#    0.000    1.667    0.000    2.000    0.000    0.000 
#    0.000    0.000    0.000    0.000    0.000    0.000 
#
# Total GULP energy -594981.036672 kJ/mol
# GULP energy per Si atom -12395.438264 kJ/mol
# Density = 1.977452 g / cm^3
# Si number density = 19.819626 Si / 1000 Ang^3
#
#
#
# Elastic Constant Matrix: (Units=GPa)
#
#
# Indices 1 2 3 4 5 6 
#
# 1 71.5762 33.9341 33.0462 0.0000 0.0000 0.0000
# 2 33.9341 68.9370 25.3056 0.0000 0.0000 0.0000
# 3 33.0462 25.3056 126.4231 0.0000 0.0000 0.0000
# 4 0.0000 0.0000 0.0000 27.7955 0.0000 0.0000
# 5 0.0000 0.0000 0.0000 0.0000 33.9857 0.0000
# 6 0.0000 0.0000 0.0000 0.0000 0.0000 22.6243
#
#
#
# Elastic Compliance Matrix: (Units=1/GPa)
#
#
# Indices 1 2 3 4 5 6 
#
# 1 0.019511 -0.008345 -0.003430 0.000000 0.000000 0.000000
# 2 -0.008345 0.019226 -0.001667 0.000000 0.000000 0.000000
# 3 -0.003430 -0.001667 0.009140 0.000000 0.000000 0.000000
# 4 0.000000 0.000000 0.000000 0.035977 0.000000 0.000000
# 5 0.000000 0.000000 0.000000 0.000000 0.029424 0.000000
# 6 0.000000 0.000000 0.000000 0.000000 0.000000 0.044200
#
#
# Mechanical properties :
#
#
# Convention : Reuss Voigt Hill
#
# Bulk Modulus (GPa) = 47.63439 50.16758 48.90099
# Shear Modulus (GPa) = 26.12876 28.52446 27.32661
#
# Velocity S-wave (km/s) = 3.63482 3.79780 3.71720
# Velocity P-wave (km/s) = 6.45771 6.67818 6.56887
#
# Compressibility (1/GPa) = 0.02099324
#
# Stress axis : x y z
#
# Youngs Moduli (GPa) = 51.25304 52.01324 109.40809
#
# Poissons Ratio (x) = 0.43407 0.37523
# Poissons Ratio (y) = 0.42772 0.18238
# Poissons Ratio (z) = 0.17578 0.08670
#
# Static dielectric constant tensor:
#      x y z
#    x 3.903830 0.000000 0.000000 
#    y 0.000000 3.838920 0.000000 
#    z 0.000000 0.000000 3.694010 
# 
# 
# High freq. dielectric constant tensor:
#      x y z
#    x 1.760030 0.000000 0.000000 
#    y 0.000000 1.751160 0.000000 
#    z 0.000000 0.000000 1.791520 
# 
# From -- ./inp_files/6954.got.cif
#   From: 2010.03.12/outbox.cif.g09.slc.cpg/sg72_4_cif.got.tgz:6954.got - 2010.04.16 14:54:00.
