data_PCOD8292317
_publ_section_title
;
Structure prediction by ZEFSAII (Michael W. Deem and Ramdas Pophale) SiO2 
 PCOD8292317
Probable space group: I M M M
;
_chemical_formula_sum "Si O2"
_cell_formula_units_Z 72
_cell_length_a 10.130028
_cell_length_b 18.046207
_cell_length_c 21.741735
_cell_angle_alpha 90.000000
_cell_angle_beta 90.000000
_cell_angle_gamma 90.000000
_cell_volume 3974.575750
_symmetry_space_group_name_H-M "I M M M"
_symmetry_group_IT_number 71
_symmetry_cell_setting 'orthorhombic'
loop_
_space_group_symop_operation_xyz
x,y,z
-x,-y,z
x,-y,-z
-x,y,-z
-x,-y,-z
x,y,-z
-x,y,z
x,-y,z
1/2+x,1/2+y,1/2+z
1/2-x,1/2-y,1/2+z
1/2+x,1/2-y,1/2-z
1/2-x,1/2+y,1/2-z
1/2-x,1/2-y,1/2-z
1/2+x,1/2+y,1/2-z
1/2-x,1/2+y,1/2+z
1/2+x,1/2-y,1/2+z
loop_
_atom_site_type_symbol
_atom_site_label
_atom_site_fract_x
_atom_site_fract_y
_atom_site_fract_z
Si Si1 0.656814 0.416358 0.500000
Si Si2 0.744680 0.345410 0.124949
Si Si3 0.000000 0.080361 0.429997
Si Si4 0.347659 0.681763 0.748450
Si Si5 0.000000 0.586963 0.069024
Si Si6 0.347840 0.317445 0.613323
O O1 0.715381 0.500000 0.500000
O O2 0.500000 0.420736 0.500000
O O3 0.706579 0.373226 0.438871
O O4 0.628140 0.371006 0.081714
O O5 0.701746 0.368447 0.194781
O O6 0.875166 0.389044 0.108236
O O7 0.763320 0.257703 0.114093
O O8 0.000000 0.060024 0.500000
O O9 0.000000 0.000000 0.394712
O O10 0.500000 0.706592 0.759366
O O11 0.250000 0.750000 0.750000
O O12 0.336127 0.643397 0.680903
O O13 0.000000 0.500000 0.062301
O O14 0.000000 0.622352 0.000000
O O15 0.500000 0.296333 0.599357
#
# Coordination Sequence:
#
# PCOD8292317 Si02
#       6
#     8  16   8  16   8  16
#     4   9  18  32  52  83 116 137 173 233 289 333
#     4  11  20  36  58  81 111 147 199 237 275 347
#     4  11  24  38  51  76 120 153 182 233 291 339
#     4   9  18  33  53  83 114 145 182 237 285 328
#     4  11  24  38  55  80 112 153 194 239 295 339
#     4   9  18  32  56  83 109 143 185 231 280 330
#
# _framework density 18.115141999999999
#
# number of rings (size 3 to 8) (size 9 to 14) (size 15 to 20)
#    0.000    2.111    2.222    1.333    4.667    1.778 
#    0.000    2.222    0.000    0.000    0.000    1.556 
#    0.000    0.000    0.000    0.000    0.000    0.000 
#
# Total GULP energy -446056.100328 kJ/mol
# GULP energy per Si atom -12390.447231 kJ/mol
# Density = 1.807391 g / cm^3
# Si number density = 18.115142 Si / 1000 Ang^3
#
#
#
# Elastic Constant Matrix: (Units=GPa)
#
#
# Indices 1 2 3 4 5 6 
#
# 1 119.2321 33.2020 52.5352 0.0000 0.0000 0.0000
# 2 33.2020 89.4659 56.4165 0.0000 0.0000 0.0000
# 3 52.5352 56.4165 156.1349 0.0000 0.0000 0.0000
# 4 0.0000 0.0000 0.0000 12.7952 0.0000 0.0000
# 5 0.0000 0.0000 0.0000 0.0000 13.4399 0.0000
# 6 0.0000 0.0000 0.0000 0.0000 0.0000 12.6510
#
#
#
# Elastic Compliance Matrix: (Units=1/GPa)
#
#
# Indices 1 2 3 4 5 6 
#
# 1 0.010139 -0.002087 -0.002657 0.000000 0.000000 0.000000
# 2 -0.002087 0.014905 -0.004684 0.000000 0.000000 0.000000
# 3 -0.002657 -0.004684 0.008991 0.000000 0.000000 0.000000
# 4 0.000000 0.000000 0.000000 0.078154 0.000000 0.000000
# 5 0.000000 0.000000 0.000000 0.000000 0.074406 0.000000
# 6 0.000000 0.000000 0.000000 0.000000 0.000000 0.079045
#
#
# Mechanical properties :
#
#
# Convention : Reuss Voigt Hill
#
# Bulk Modulus (GPa) = 65.87766 72.12671 69.00218
# Shear Modulus (GPa) = 17.26780 22.62250 19.94515
#
# Velocity S-wave (km/s) = 3.09078 3.53769 3.32176
# Velocity P-wave (km/s) = 7.01301 7.52258 7.27226
#
# Compressibility (1/GPa) = 0.01517965
#
# Stress axis : x y z
#
# Youngs Moduli (GPa) = 98.62860 67.08992 111.21998
#
# Poissons Ratio (x) = 0.14002 0.29556
# Poissons Ratio (y) = 0.20584 0.52091
# Poissons Ratio (z) = 0.26210 0.31422
#
# Static dielectric constant tensor:
#      x y z
#    x 3.222100 0.000000 0.000000 
#    y 0.000000 3.270580 0.000000 
#    z 0.000000 0.000000 2.942040 
# 
# 
# High freq. dielectric constant tensor:
#      x y z
#    x 1.692670 0.000000 0.000000 
#    y 0.000000 1.671240 0.000000 
#    z 0.000000 0.000000 1.723390 
# 
# From -- ./inp_files/50241.got.cif
#   From: 2010.06.25/outbox.cif.g09.slc.cpg/sg71_26_cif.got.tgz:50241.got - 2010.06.28 04:59:45.
