data_PCOD8292230
_publ_section_title
;
Structure prediction by ZEFSAII (Michael W. Deem and Ramdas Pophale) SiO2 
 PCOD8292230
Probable space group: I M M M
;
_chemical_formula_sum "Si O2"
_cell_formula_units_Z 128
_cell_length_a 13.516111
_cell_length_b 27.709468
_cell_length_c 23.610568
_cell_angle_alpha 90.000000
_cell_angle_beta 90.000000
_cell_angle_gamma 90.000000
_cell_volume 8842.730160
_symmetry_space_group_name_H-M "I M M M"
_symmetry_group_IT_number 71
_symmetry_cell_setting 'orthorhombic'
loop_
_space_group_symop_operation_xyz
x,y,z
-x,-y,z
x,-y,-z
-x,y,-z
-x,-y,-z
x,y,-z
-x,y,z
x,-y,z
1/2+x,1/2+y,1/2+z
1/2-x,1/2-y,1/2+z
1/2+x,1/2-y,1/2-z
1/2-x,1/2+y,1/2-z
1/2-x,1/2-y,1/2-z
1/2+x,1/2+y,1/2-z
1/2-x,1/2+y,1/2+z
1/2+x,1/2-y,1/2+z
loop_
_atom_site_type_symbol
_atom_site_label
_atom_site_fract_x
_atom_site_fract_y
_atom_site_fract_z
Si Si1 0.385195 0.151787 0.618255
Si Si2 0.384765 0.054557 0.216090
Si Si3 0.699727 0.238480 0.563987
Si Si4 0.700049 0.852051 0.165220
Si Si5 0.113156 0.203446 0.837043
Si Si6 0.886903 0.294065 0.766633
Si Si7 0.387397 0.797623 0.064764
Si Si8 0.117360 0.551851 0.156027
O O1 0.500000 0.157405 0.600360
O O2 0.315705 0.181498 0.575448
O O3 0.368609 0.168926 0.682349
O O4 0.348751 0.095916 0.615926
O O5 0.500000 0.069115 0.212545
O O6 0.322298 0.092526 0.179347
O O7 0.343860 0.058139 0.279942
O O8 0.368800 0.000000 0.192857
O O9 0.670257 0.250929 0.500000
O O10 0.625123 0.267563 0.604193
O O11 0.814516 0.252134 0.575835
O O12 0.818540 0.844225 0.160980
O O13 0.669691 0.812513 0.211768
O O14 0.645295 0.841035 0.105936
O O15 0.143895 0.239853 0.785761
O O16 0.000000 0.186625 0.830965
O O17 0.000000 0.293937 0.748688
O O18 0.500000 0.781345 0.077678
O O19 0.377571 0.816077 0.000000
O O20 0.154465 0.500000 0.131436
O O21 0.000000 0.551988 0.160195
#
# Coordination Sequence:
#
# PCOD8292230 Si02
#       8
#    16  16  16  16  16  16  16  16
#     4   9  15  23  37  58  83 106 132 165 195 227
#     4   9  16  25  40  64  85  99 127 168 201 237
#     4   9  17  28  42  58  77 107 140 163 190 230
#     4  11  17  26  45  59  77 108 135 159 197 242
#     4   9  19  29  37  56  84 107 132 168 197 226
#     4   9  15  24  38  59  82 103 129 160 198 237
#     4   9  18  30  42  59  82 105 130 160 194 237
#     4   8  13  22  36  55  80 105 128 159 198 235
#
# _framework density 14.475168
#
# number of rings (size 3 to 8) (size 9 to 14) (size 15 to 20)
#    0.000    2.875    1.250    3.375    0.000    1.000 
#    0.000    0.000    0.000    1.125    0.000    3.500 
#    0.000    0.500    0.000    9.375    0.000    0.250 
#
# Total GULP energy -793068.154931 kJ/mol
# GULP energy per Si atom -12391.689921 kJ/mol
# Density = 1.444222 g / cm^3
# Si number density = 14.475168 Si / 1000 Ang^3
#
#
#
# Elastic Constant Matrix: (Units=GPa)
#
#
# Indices 1 2 3 4 5 6 
#
# 1 57.9318 35.8123 20.4309 0.0000 0.0000 0.0000
# 2 35.8123 90.7198 19.4943 0.0000 0.0000 0.0000
# 3 20.4309 19.4943 50.2881 0.0001 0.0000 0.0000
# 4 0.0000 0.0000 0.0001 14.8129 0.0000 0.0000
# 5 0.0000 0.0000 0.0000 0.0000 15.2334 0.0000
# 6 0.0000 0.0000 0.0000 0.0000 0.0000 19.4478
#
#
#
# Elastic Compliance Matrix: (Units=1/GPa)
#
#
# Indices 1 2 3 4 5 6 
#
# 1 0.024829 -0.008327 -0.006859 0.000000 0.000000 0.000000
# 2 -0.008327 0.014818 -0.002361 0.000000 0.000000 0.000000
# 3 -0.006859 -0.002361 0.023587 0.000000 0.000000 0.000000
# 4 0.000000 0.000000 0.000000 0.067509 0.000000 0.000000
# 5 0.000000 0.000000 0.000000 0.000000 0.065645 0.000000
# 6 0.000000 0.000000 0.000000 0.000000 0.000000 0.051420
#
#
# Mechanical properties :
#
#
# Convention : Reuss Voigt Hill
#
# Bulk Modulus (GPa) = 35.53823 38.93498 37.23660
# Shear Modulus (GPa) = 17.10683 18.11231 17.60957
#
# Velocity S-wave (km/s) = 3.44147 3.54116 3.49167
# Velocity P-wave (km/s) = 6.35579 6.60878 6.48352
#
# Compressibility (1/GPa) = 0.02813871
#
# Stress axis : x y z
#
# Youngs Moduli (GPa) = 40.27629 67.48760 42.39562
#
# Poissons Ratio (x) = 0.56199 0.29080
# Poissons Ratio (y) = 0.33539 0.10009
# Poissons Ratio (z) = 0.27626 0.15933
#
# Static dielectric constant tensor:
#      x y z
#    x 2.671480 0.000000 0.000000 
#    y 0.000000 2.902380 0.000000 
#    z 0.000000 0.000000 2.767370 
# 
# 
# High freq. dielectric constant tensor:
#      x y z
#    x 1.528220 0.000000 0.000000 
#    y 0.000000 1.536900 0.000000 
#    z 0.000000 0.000000 1.542920 
# 
# From -- ./inp_files/59305.got.cif
#   From: 2010.06.25/outbox.cif.g09.slc.cpg/sg71_30_cif.got.tgz:59305.got - 2010.06.28 04:59:45.
