data_PCOD8292453
_publ_section_title
;
Structure prediction by ZEFSAII (Michael W. Deem and Ramdas Pophale) SiO2 
 PCOD8292453
Probable space group: I M M M
;
_chemical_formula_sum "Si O2"
_cell_formula_units_Z 104
_cell_length_a 22.879921
_cell_length_b 8.911798
_cell_length_c 26.764388
_cell_angle_alpha 90.000000
_cell_angle_beta 90.000000
_cell_angle_gamma 90.000000
_cell_volume 5457.291746
_symmetry_space_group_name_H-M "I M M M"
_symmetry_group_IT_number 71
_symmetry_cell_setting 'orthorhombic'
loop_
_space_group_symop_operation_xyz
x,y,z
-x,-y,z
x,-y,-z
-x,y,-z
-x,-y,-z
x,y,-z
-x,y,z
x,-y,z
1/2+x,1/2+y,1/2+z
1/2-x,1/2-y,1/2+z
1/2+x,1/2-y,1/2-z
1/2-x,1/2+y,1/2-z
1/2-x,1/2-y,1/2-z
1/2+x,1/2+y,1/2-z
1/2-x,1/2+y,1/2+z
1/2+x,1/2-y,1/2+z
loop_
_atom_site_type_symbol
_atom_site_label
_atom_site_fract_x
_atom_site_fract_y
_atom_site_fract_z
Si Si1 0.933959 0.822403 0.288446
Si Si2 0.744804 0.822888 0.057847
Si Si3 0.066459 0.673778 0.185308
Si Si4 0.633811 0.177111 0.413280
Si Si5 0.068548 0.167502 0.000000
Si Si6 0.568029 0.836195 0.054714
Si Si7 0.145027 0.172479 0.621836
O O1 0.915677 0.767864 0.233782
O O2 0.881475 0.768438 0.325301
O O3 0.000000 0.761496 0.302265
O O4 0.935959 0.000000 0.289615
O O5 0.803721 0.747590 0.076567
O O6 0.696331 0.772196 0.098106
O O7 0.751351 0.000000 0.061153
O O8 0.731575 0.774407 0.000000
O O9 0.072730 0.500000 0.199028
O O10 0.111277 0.719880 0.141844
O O11 0.000000 0.710582 0.168515
O O12 0.587245 0.242805 0.451349
O O13 0.637615 0.000000 0.420653
O O14 0.000000 0.154997 0.000000
O O15 0.096596 0.000000 0.000000
O O16 0.500000 0.818598 0.049760
O O17 0.590247 0.693720 0.085257
O O18 0.584242 0.000000 0.078637
O O19 0.597168 0.830717 0.000000
O O20 0.165204 0.000000 0.624469
#
# Coordination Sequence:
#
# PCOD8292453 Si02
#       7
#    16  16  16  16   8  16  16
#     4   9  19  36  57  83 115 149 186 234 289 342
#     4  11  24  41  59  80 112 152 196 241 287 344
#     4   9  19  36  59  88 118 147 182 227 282 343
#     4  11  22  38  61  87 117 151 190 236 286 337
#     4  11  23  37  57  89 125 157 190 227 274 339
#     4   9  18  32  49  72 104 140 179 227 286 347
#     4  11  22  35  54  80 109 144 192 240 286 341
#
# _framework density 19.057072000000002
#
# number of rings (size 3 to 8) (size 9 to 14) (size 15 to 20)
#    0.000    1.923    0.769    3.462    0.000    7.692 
#    0.000    4.615    0.000    0.000    0.000    0.000 
#    0.000    0.000    0.000    0.000    0.000    0.000 
#
# Total GULP energy -644423.491974 kJ/mol
# GULP energy per Si atom -12392.759461 kJ/mol
# Density = 1.901370 g / cm^3
# Si number density = 19.057072 Si / 1000 Ang^3
#
#
#
# Elastic Constant Matrix: (Units=GPa)
#
#
# Indices 1 2 3 4 5 6 
#
# 1 96.0520 44.2826 74.3864 0.0000 0.0000 0.0000
# 2 44.2826 62.6755 48.4292 0.0000 0.0000 0.0000
# 3 74.3864 48.4292 128.0598 0.0000 0.0000 0.0000
# 4 0.0000 0.0000 0.0000 32.1038 0.0000 0.0000
# 5 0.0000 0.0000 0.0000 0.0000 35.1598 0.0000
# 6 0.0000 0.0000 0.0000 0.0000 0.0000 32.0702
#
#
#
# Elastic Compliance Matrix: (Units=1/GPa)
#
#
# Indices 1 2 3 4 5 6 
#
# 1 0.021294 -0.007753 -0.009437 0.000000 0.000000 0.000000
# 2 -0.007753 0.025365 -0.005089 0.000000 0.000000 0.000000
# 3 -0.009437 -0.005089 0.015215 0.000000 0.000000 0.000000
# 4 0.000000 0.000000 0.000000 0.031149 0.000000 0.000000
# 5 0.000000 0.000000 0.000000 0.000000 0.028442 0.000000
# 6 0.000000 0.000000 0.000000 0.000000 0.000000 0.031182
#
#
# Mechanical properties :
#
#
# Convention : Reuss Voigt Hill
#
# Bulk Modulus (GPa) = 57.74957 68.99819 63.37388
# Shear Modulus (GPa) = 24.63345 27.84604 26.23975
#
# Velocity S-wave (km/s) = 3.59920 3.82670 3.71469
# Velocity P-wave (km/s) = 6.90229 7.47058 7.19205
#
# Compressibility (1/GPa) = 0.01731615
#
# Stress axis : x y z
#
# Youngs Moduli (GPa) = 46.96233 39.42398 65.72426
#
# Poissons Ratio (x) = 0.30565 0.62024
# Poissons Ratio (y) = 0.36409 0.33448
# Poissons Ratio (z) = 0.44318 0.20063
#
# Static dielectric constant tensor:
#      x y z
#    x 3.576850 0.000000 0.000000 
#    y 0.000000 3.540440 0.000000 
#    z 0.000000 0.000000 3.484220 
# 
# 
# High freq. dielectric constant tensor:
#      x y z
#    x 1.739190 0.000000 0.000000 
#    y 0.000000 1.742240 0.000000 
#    z 0.000000 0.000000 1.740040 
# 
# From -- ./inp_files/66802.got.cif
#   From: 2010.06.25/outbox.cif.g09.slc.cpg/sg71_34_cif.got.tgz:66802.got - 2010.06.28 04:59:45.
