data_PCOD8292234
_publ_section_title
;
Structure prediction by ZEFSAII (Michael W. Deem and Ramdas Pophale) SiO2 
 PCOD8292234
Probable space group: I M M M
;
_chemical_formula_sum "Si O2"
_cell_formula_units_Z 112
_cell_length_a 13.551430
_cell_length_b 23.225248
_cell_length_c 22.422944
_cell_angle_alpha 90.000000
_cell_angle_beta 90.000000
_cell_angle_gamma 90.000000
_cell_volume 7057.292511
_symmetry_space_group_name_H-M "I M M M"
_symmetry_group_IT_number 71
_symmetry_cell_setting 'orthorhombic'
loop_
_space_group_symop_operation_xyz
x,y,z
-x,-y,z
x,-y,-z
-x,y,-z
-x,-y,-z
x,y,-z
-x,y,z
x,-y,z
1/2+x,1/2+y,1/2+z
1/2-x,1/2-y,1/2+z
1/2+x,1/2-y,1/2-z
1/2-x,1/2+y,1/2-z
1/2-x,1/2-y,1/2-z
1/2+x,1/2+y,1/2-z
1/2-x,1/2+y,1/2+z
1/2+x,1/2-y,1/2+z
loop_
_atom_site_type_symbol
_atom_site_label
_atom_site_fract_x
_atom_site_fract_y
_atom_site_fract_z
Si Si1 0.610651 0.434341 0.776344
Si Si2 0.202072 0.864414 0.172559
Si Si3 0.885941 0.933496 0.931204
Si Si4 0.200818 0.566625 0.151556
Si Si5 0.388045 0.862029 0.246881
Si Si6 0.113015 0.257979 0.832234
Si Si7 0.114468 0.653490 0.067748
O O1 0.500000 0.423267 0.800130
O O2 0.624491 0.500000 0.754364
O O3 0.629854 0.393691 0.720211
O O4 0.685723 0.420899 0.830069
O O5 0.184237 0.893043 0.108299
O O6 0.316222 0.872868 0.190945
O O7 0.182890 0.796690 0.171444
O O8 0.000000 0.919095 0.917500
O O9 0.864137 0.000000 0.916327
O O10 0.861846 0.920359 0.000000
O O11 0.179984 0.500000 0.140631
O O12 0.128322 0.588878 0.203502
O O13 0.179325 0.599712 0.090166
O O14 0.500000 0.865865 0.223587
O O15 0.366004 0.800014 0.276526
O O16 0.138884 0.290142 0.893791
O O17 0.000000 0.237422 0.832195
O O18 0.000000 0.636660 0.074909
O O19 0.143171 0.667188 0.000000
#
# Coordination Sequence:
#
# PCOD8292234 Si02
#       7
#    16  16  16  16  16  16  16
#     4   9  17  28  43  67  96 117 137 175 221 258
#     4  11  18  27  48  70  85 113 154 178 201 258
#     4   9  18  31  45  65  94 118 136 172 224 264
#     4   9  17  29  46  66  88 117 148 176 213 262
#     4   9  19  32  43  62  94 121 140 175 221 253
#     4   9  17  29  44  64  90 115 141 177 220 261
#     4   9  18  31  45  63  89 117 144 181 223 254
#
# _framework density 15.870108
#
# number of rings (size 3 to 8) (size 9 to 14) (size 15 to 20)
#    0.000    2.714    0.000    3.857    0.000    3.714 
#    0.000    2.143    0.000    0.857    0.000    3.000 
#    0.000    0.000    0.000    0.000    0.000    0.000 
#
# Total GULP energy -694422.675697 kJ/mol
# GULP energy per Si atom -12400.404923 kJ/mol
# Density = 1.583399 g / cm^3
# Si number density = 15.870108 Si / 1000 Ang^3
#
#
#
# Elastic Constant Matrix: (Units=GPa)
#
#
# Indices 1 2 3 4 5 6 
#
# 1 89.5760 37.4697 46.0403 0.0000 0.0000 0.0000
# 2 37.4697 71.3544 33.5996 0.0000 0.0000 0.0000
# 3 46.0403 33.5996 81.9421 0.0000 0.0000 0.0000
# 4 0.0000 0.0000 0.0000 19.6111 0.0000 0.0000
# 5 0.0000 0.0000 0.0000 0.0000 23.8773 0.0000
# 6 0.0000 0.0000 0.0000 0.0000 0.0000 19.8305
#
#
#
# Elastic Compliance Matrix: (Units=1/GPa)
#
#
# Indices 1 2 3 4 5 6 
#
# 1 0.017330 -0.005596 -0.007442 0.000000 0.000000 0.000000
# 2 -0.005596 0.019175 -0.004718 0.000000 0.000000 0.000000
# 3 -0.007442 -0.004718 0.018320 0.000000 0.000000 0.000000
# 4 0.000000 0.000000 0.000000 0.050992 0.000000 0.000000
# 5 0.000000 0.000000 0.000000 0.000000 0.041881 0.000000
# 6 0.000000 0.000000 0.000000 0.000000 0.000000 0.050427
#
#
# Mechanical properties :
#
#
# Convention : Reuss Voigt Hill
#
# Bulk Modulus (GPa) = 51.78269 53.01018 52.39644
# Shear Modulus (GPa) = 20.82686 21.04797 20.93742
#
# Velocity S-wave (km/s) = 3.62654 3.64574 3.63616
# Velocity P-wave (km/s) = 7.08771 7.15521 7.12154
#
# Compressibility (1/GPa) = 0.01931147
#
# Stress axis : x y z
#
# Youngs Moduli (GPa) = 57.70456 52.15188 54.58469
#
# Poissons Ratio (x) = 0.29182 0.40625
# Poissons Ratio (y) = 0.32289 0.25755
# Poissons Ratio (z) = 0.42946 0.24608
#
# Static dielectric constant tensor:
#      x y z
#    x 2.956060 0.000000 0.000000 
#    y 0.000000 3.017420 0.000000 
#    z 0.000000 0.000000 2.888860 
# 
# 
# High freq. dielectric constant tensor:
#      x y z
#    x 1.595250 0.000000 0.000000 
#    y 0.000000 1.616160 0.000000 
#    z 0.000000 0.000000 1.590280 
# 
# From -- ./inp_files/27790.got.cif
#   From: 2010.06.25/outbox.cif.g09.slc.cpg/sg71_14_cif.got.tgz:27790.got - 2010.06.28 04:59:45.
