data_PCOD8292951
_publ_section_title
;
Structure prediction by ZEFSAII (Michael W. Deem and Ramdas Pophale) SiO2 
 PCOD8292951
Probable space group: I B A M
;
_chemical_formula_sum "Si O2"
_cell_formula_units_Z 112
_cell_length_a 25.675330
_cell_length_b 13.298870
_cell_length_c 17.956718
_cell_angle_alpha 90.000000
_cell_angle_beta 90.000000
_cell_angle_gamma 90.000000
_cell_volume 6131.373002
_symmetry_space_group_name_H-M "I B A M"
_symmetry_group_IT_number 72
_symmetry_cell_setting 'orthorhombic'
loop_
_space_group_symop_operation_xyz
x,y,z
-x,-y,z
x,-y,1/2-z
-x,y,1/2-z
-x,-y,-z
x,y,-z
-x,y,1/2+z
x,-y,1/2+z
1/2+x,1/2+y,1/2+z
1/2-x,1/2-y,1/2+z
1/2+x,1/2-y,-z
1/2-x,1/2+y,-z
1/2-x,1/2-y,1/2-z
1/2+x,1/2+y,1/2-z
1/2-x,1/2+y,z
1/2+x,1/2-y,z
loop_
_atom_site_type_symbol
_atom_site_label
_atom_site_fract_x
_atom_site_fract_y
_atom_site_fract_z
Si Si1 0.180957 0.039445 0.829728
Si Si2 0.784947 0.675675 0.917360
Si Si3 0.559758 0.887803 0.769588
Si Si4 0.857995 0.237550 0.293323
Si Si5 0.779223 0.438592 0.083474
Si Si6 0.612267 0.152130 0.415993
Si Si7 0.826830 0.179643 0.866454
O O1 0.133833 0.121833 0.823630
O O2 0.229757 0.098149 0.867677
O O3 0.200507 0.000000 0.750000
O O4 0.163472 0.940253 0.875101
O O5 0.826560 0.703032 0.855369
O O6 0.778900 0.557401 0.913594
O O7 0.727298 0.719688 0.901636
O O8 0.803612 0.709759 0.000000
O O9 0.500000 0.873561 0.750000
O O10 0.589925 0.800891 0.723558
O O11 0.566286 0.875233 0.858849
O O12 0.579522 0.000000 0.750000
O O13 0.825600 0.221747 0.217770
O O14 0.834996 0.401636 0.113891
O O15 0.771185 0.397711 0.000000
O O16 0.596255 0.119955 0.500000
O O17 0.625129 0.271165 0.411955
#
# Coordination Sequence:
#
# PCOD8292951 Si02
#       7
#    16  16  16  16  16  16  16
#     4   9  18  30  45  70 103 137 169 199 236 290
#     4  10  18  28  43  71 106 137 167 201 242 295
#     4  10  22  40  58  77  99 125 163 214 268 312
#     4  10  19  32  51  70  95 132 173 209 249 301
#     4   9  18  29  44  70 105 137 165 196 237 289
#     4  10  19  33  54  77 100 134 175 211 247 297
#     4   9  18  30  46  70 104 137 169 202 238 289
#
# _framework density 18.266707
#
# number of rings (size 3 to 8) (size 9 to 14) (size 15 to 20)
#    0.000    2.429    0.000    2.571    0.000    8.571 
#    0.000    2.143    0.000   10.714    0.000    1.000 
#    0.000    0.000    0.000    0.000    0.000    0.000 
#
# Total GULP energy -693925.321234 kJ/mol
# GULP energy per Si atom -12391.523593 kJ/mol
# Density = 1.822513 g / cm^3
# Si number density = 18.266707 Si / 1000 Ang^3
#
#
#
# Elastic Constant Matrix: (Units=GPa)
#
#
# Indices 1 2 3 4 5 6 
#
# 1 80.5063 46.0404 46.2400 0.0000 0.0000 0.0000
# 2 46.0404 71.6825 35.8858 0.0000 0.0000 0.0000
# 3 46.2400 35.8858 91.3461 0.0000 0.0000 0.0000
# 4 0.0000 0.0000 0.0000 22.2987 0.0000 0.0000
# 5 0.0000 0.0000 0.0000 0.0000 20.8484 0.0000
# 6 0.0000 0.0000 0.0000 0.0000 0.0000 22.7900
#
#
#
# Elastic Compliance Matrix: (Units=1/GPa)
#
#
# Indices 1 2 3 4 5 6 
#
# 1 0.022933 -0.011101 -0.007248 0.000000 0.000000 0.000000
# 2 -0.011101 0.022739 -0.003314 0.000000 0.000000 0.000000
# 3 -0.007248 -0.003314 0.015918 0.000000 0.000000 0.000000
# 4 0.000000 0.000000 0.000000 0.044846 0.000000 0.000000
# 5 0.000000 0.000000 0.000000 0.000000 0.047965 0.000000
# 6 0.000000 0.000000 0.000000 0.000000 0.000000 0.043879
#
#
# Mechanical properties :
#
#
# Convention : Reuss Voigt Hill
#
# Bulk Modulus (GPa) = 54.74903 55.54081 55.14492
# Shear Modulus (GPa) = 20.18628 20.87867 20.53248
#
# Velocity S-wave (km/s) = 3.32789 3.38448 3.35631
# Velocity P-wave (km/s) = 6.69355 6.76346 6.72860
#
# Compressibility (1/GPa) = 0.01826516
#
# Stress axis : x y z
#
# Youngs Moduli (GPa) = 43.60610 43.97663 62.82176
#
# Poissons Ratio (x) = 0.48818 0.45531
# Poissons Ratio (y) = 0.48407 0.20819
# Poissons Ratio (z) = 0.31604 0.14574
#
# Static dielectric constant tensor:
#      x y z
#    x 2.893350 0.000000 0.000000 
#    y 0.000000 3.841280 0.000000 
#    z 0.000000 0.000000 3.575970 
# 
# 
# High freq. dielectric constant tensor:
#      x y z
#    x 1.645620 0.000000 0.000000 
#    y 0.000000 1.734620 0.000000 
#    z 0.000000 0.000000 1.716660 
# 
# From -- ./inp_files/25965.got.cif
#   From: 2010.03.12/outbox.cif.g09.slc.cpg/sg72_13_cif.got.tgz:25965.got - 2010.04.16 14:54:00.
