data_PCOD8292604
_publ_section_title
;
Structure prediction by ZEFSAII (Michael W. Deem and Ramdas Pophale) SiO2 
 PCOD8292604
Probable space group: I M M M
;
_chemical_formula_sum "Si O2"
_cell_formula_units_Z 56
_cell_length_a 17.543096
_cell_length_b 8.883046
_cell_length_c 17.869455
_cell_angle_alpha 90.000000
_cell_angle_beta 90.000000
_cell_angle_gamma 90.000000
_cell_volume 2784.706690
_symmetry_space_group_name_H-M "I M M M"
_symmetry_group_IT_number 71
_symmetry_cell_setting 'orthorhombic'
loop_
_space_group_symop_operation_xyz
x,y,z
-x,-y,z
x,-y,-z
-x,y,-z
-x,-y,-z
x,y,-z
-x,y,z
x,-y,z
1/2+x,1/2+y,1/2+z
1/2-x,1/2-y,1/2+z
1/2+x,1/2-y,1/2-z
1/2-x,1/2+y,1/2-z
1/2-x,1/2-y,1/2-z
1/2+x,1/2+y,1/2-z
1/2-x,1/2+y,1/2+z
1/2+x,1/2-y,1/2+z
loop_
_atom_site_type_symbol
_atom_site_label
_atom_site_fract_x
_atom_site_fract_y
_atom_site_fract_z
Si Si1 0.916822 0.321757 0.000000
Si Si2 0.589808 0.167546 0.341142
Si Si3 0.674060 0.675806 0.217868
Si Si4 0.086956 0.676388 0.586157
O O1 0.874183 0.278545 0.921800
O O2 0.926960 0.500000 0.000000
O O3 0.000000 0.243474 0.000000
O O4 0.500000 0.159276 0.351604
O O5 0.608433 0.287524 0.277572
O O6 0.620596 0.000000 0.319429
O O7 0.686909 0.500000 0.209905
O O8 0.750000 0.750000 0.250000
O O9 0.648240 0.737907 0.137268
O O10 0.105511 0.715022 0.500000
O O11 0.095368 0.500000 0.601396
O O12 0.000000 0.726387 0.605087
#
# Coordination Sequence:
#
# PCOD8292604 Si02
#       4
#     8  16  16  16
#     4   7  12  26  51  81 107 135 174 215 258 317
#     4   9  17  33  58  84 111 145 185 230 281 337
#     4  12  25  39  55  80 116 156 197 239 290 346
#     4   9  19  39  67  94 119 150 190 240 299 359
#
# _framework density 20.109838
#
# number of rings (size 3 to 8) (size 9 to 14) (size 15 to 20)
#    0.000    2.429    0.000    6.000    0.000    5.143 
#    2.571    2.143    0.000    2.571    0.000    0.000 
#    0.000    0.000    0.000    0.000    0.000    0.000 
#
# Total GULP energy -346918.883815 kJ/mol
# GULP energy per Si atom -12389.960136 kJ/mol
# Density = 2.006407 g / cm^3
# Si number density = 20.109838 Si / 1000 Ang^3
#
#
#
# Elastic Constant Matrix: (Units=GPa)
#
#
# Indices 1 2 3 4 5 6 
#
# 1 71.7174 45.6627 54.4492 0.0000 0.0000 0.0000
# 2 45.6627 104.0687 64.5975 0.0000 0.0000 0.0000
# 3 54.4492 64.5975 157.0537 0.0000 0.0000 0.0000
# 4 0.0000 0.0000 0.0000 24.7252 0.0000 0.0000
# 5 0.0000 0.0000 0.0000 0.0000 29.3772 0.0000
# 6 0.0000 0.0000 0.0000 0.0000 0.0000 25.9155
#
#
#
# Elastic Compliance Matrix: (Units=1/GPa)
#
#
# Indices 1 2 3 4 5 6 
#
# 1 0.021808 -0.006547 -0.004868 0.000000 0.000000 0.000000
# 2 -0.006547 0.014869 -0.003846 0.000000 0.000000 0.000000
# 3 -0.004868 -0.003846 0.009637 0.000000 0.000000 0.000000
# 4 0.000000 0.000000 0.000000 0.040445 0.000000 0.000000
# 5 0.000000 0.000000 0.000000 0.000000 0.034040 0.000000
# 6 0.000000 0.000000 0.000000 0.000000 0.000000 0.038587
#
#
# Mechanical properties :
#
#
# Convention : Reuss Voigt Hill
#
# Bulk Modulus (GPa) = 63.32338 73.58428 68.45383
# Shear Modulus (GPa) = 25.61858 27.21227 26.41543
#
# Velocity S-wave (km/s) = 3.57309 3.68255 3.62824
# Velocity P-wave (km/s) = 6.96992 7.39947 7.18791
#
# Compressibility (1/GPa) = 0.01579196
#
# Stress axis : x y z
#
# Youngs Moduli (GPa) = 45.85488 67.25391 103.77040
#
# Poissons Ratio (x) = 0.44033 0.50512
# Poissons Ratio (y) = 0.30023 0.39909
# Poissons Ratio (z) = 0.22321 0.25865
#
# Static dielectric constant tensor:
#      x y z
#    x 3.448130 0.000000 0.000000 
#    y 0.000000 3.719070 0.000000 
#    z 0.000000 0.000000 4.359830 
# 
# 
# High freq. dielectric constant tensor:
#      x y z
#    x 1.757510 0.000000 0.000000 
#    y 0.000000 1.754280 0.000000 
#    z 0.000000 0.000000 1.812600 
# 
# From -- ./inp_files/7212.got.cif
#   From: 2010.06.25/outbox.cif.g09.slc.cpg/sg71_4_cif.got.tgz:7212.got - 2010.06.28 04:59:45.
