data_PCOD8292910
_publ_section_title
;
Structure prediction by ZEFSAII (Michael W. Deem and Ramdas Pophale) SiO2 
 PCOD8292910
Probable space group: I B A M
;
_chemical_formula_sum "Si O2"
_cell_formula_units_Z 80
_cell_length_a 14.129456
_cell_length_b 14.891984
_cell_length_c 18.180748
_cell_angle_alpha 90.000000
_cell_angle_beta 90.000000
_cell_angle_gamma 90.000000
_cell_volume 3825.513593
_symmetry_space_group_name_H-M "I B A M"
_symmetry_group_IT_number 72
_symmetry_cell_setting 'orthorhombic'
loop_
_space_group_symop_operation_xyz
x,y,z
-x,-y,z
x,-y,1/2-z
-x,y,1/2-z
-x,-y,-z
x,y,-z
-x,y,1/2+z
x,-y,1/2+z
1/2+x,1/2+y,1/2+z
1/2-x,1/2-y,1/2+z
1/2+x,1/2-y,-z
1/2-x,1/2+y,-z
1/2-x,1/2-y,1/2-z
1/2+x,1/2+y,1/2-z
1/2-x,1/2+y,z
1/2+x,1/2-y,z
loop_
_atom_site_type_symbol
_atom_site_label
_atom_site_fract_x
_atom_site_fract_y
_atom_site_fract_z
Si Si1 0.499363 0.239734 0.334333
Si Si2 0.851354 0.363790 0.913429
Si Si3 0.287723 0.765699 0.166836
Si Si4 0.226475 0.470738 0.828012
Si Si5 0.940561 0.927476 0.674060
O O1 0.500000 0.208780 0.250000
O O2 0.543645 0.157230 0.380746
O O3 0.392338 0.271397 0.350375
O O4 0.565504 0.325983 0.355993
O O5 0.780622 0.285297 0.888480
O O6 0.812391 0.460530 0.888574
O O7 0.859679 0.364702 0.000000
O O8 0.250000 0.750000 0.250000
O O9 0.301231 0.870551 0.149297
O O10 0.181229 0.500000 0.750000
O O11 0.338928 0.472322 0.818564
O O12 0.000000 0.917361 0.750000
O O13 0.000000 0.000000 0.624890
#
# Coordination Sequence:
#
# PCOD8292910 Si02
#       5
#    16  16  16  16  16
#     4  11  21  41  70  98 135 184 237 288 347 422
#     4  12  28  45  64 104 150 180 229 297 357 418
#     4  12  22  43  75 102 131 184 238 291 346 421
#     4  12  21  39  69 101 132 182 239 285 343 421
#     4  10  17  31  63 103 127 164 228 307 343 390
#
# _framework density 20.912224999999999
#
# number of rings (size 3 to 8) (size 9 to 14) (size 15 to 20)
#    0.000    0.600    8.000    2.400    0.000    2.400 
#    0.000    3.000    0.000    2.400    0.000    0.000 
#    0.000    0.000    0.000    0.000    0.000    0.000 
#
# Total GULP energy -495574.962108 kJ/mol
# GULP energy per Si atom -12389.374053 kJ/mol
# Density = 2.086463 g / cm^3
# Si number density = 20.912225 Si / 1000 Ang^3
#
#
#
# Elastic Constant Matrix: (Units=GPa)
#
#
# Indices 1 2 3 4 5 6 
#
# 1 106.1153 23.0320 42.8077 0.0000 0.0000 0.0000
# 2 23.0320 151.3342 52.2085 0.0000 0.0000 0.0000
# 3 42.8077 52.2085 124.7662 0.0000 0.0000 0.0000
# 4 0.0000 0.0000 0.0000 25.1035 0.0000 0.0000
# 5 0.0000 0.0000 0.0000 0.0000 20.0825 0.0000
# 6 0.0000 0.0000 0.0000 0.0000 0.0000 40.7905
#
#
#
# Elastic Compliance Matrix: (Units=1/GPa)
#
#
# Indices 1 2 3 4 5 6 
#
# 1 0.010962 -0.000433 -0.003580 0.000000 0.000000 0.000000
# 2 -0.000433 0.007740 -0.003090 0.000000 0.000000 0.000000
# 3 -0.003580 -0.003090 0.010536 0.000000 0.000000 0.000000
# 4 0.000000 0.000000 0.000000 0.039835 0.000000 0.000000
# 5 0.000000 0.000000 0.000000 0.000000 0.049795 0.000000
# 6 0.000000 0.000000 0.000000 0.000000 0.000000 0.024516
#
#
# Mechanical properties :
#
#
# Convention : Reuss Voigt Hill
#
# Bulk Modulus (GPa) = 66.52611 68.70137 67.61374
# Shear Modulus (GPa) = 30.75030 34.80646 32.77838
#
# Velocity S-wave (km/s) = 3.83880 4.08414 3.96337
# Velocity P-wave (km/s) = 7.17841 7.42724 7.30389
#
# Compressibility (1/GPa) = 0.01503169
#
# Stress axis : x y z
#
# Youngs Moduli (GPa) = 91.22549 129.20088 94.91046
#
# Poissons Ratio (x) = 0.05599 0.33975
# Poissons Ratio (y) = 0.03953 0.29328
# Poissons Ratio (z) = 0.32656 0.39924
#
# Static dielectric constant tensor:
#      x y z
#    x 4.125990 0.000000 0.000000 
#    y 0.000000 5.028760 0.000000 
#    z 0.000000 0.000000 3.272590 
# 
# 
# High freq. dielectric constant tensor:
#      x y z
#    x 1.836090 0.000000 0.000000 
#    y 0.000000 1.841900 0.000000 
#    z 0.000000 0.000000 1.756640 
# 
# From -- ./inp_files/37852.got.cif
#   From: 2010.03.12/outbox.cif.g09.slc.cpg/sg72_19_cif.got.tgz:37852.got - 2010.04.16 14:54:00.
