data_PCOD8292617
_publ_section_title
;
Structure prediction by ZEFSAII (Michael W. Deem and Ramdas Pophale) SiO2 
 PCOD8292617
Probable space group: I M M M
;
_chemical_formula_sum "Si O2"
_cell_formula_units_Z 104
_cell_length_a 25.612892
_cell_length_b 25.081323
_cell_length_c 13.910630
_cell_angle_alpha 90.000000
_cell_angle_beta 90.000000
_cell_angle_gamma 90.000000
_cell_volume 8936.261287
_symmetry_space_group_name_H-M "I M M M"
_symmetry_group_IT_number 71
_symmetry_cell_setting 'orthorhombic'
loop_
_space_group_symop_operation_xyz
x,y,z
-x,-y,z
x,-y,-z
-x,y,-z
-x,-y,-z
x,y,-z
-x,y,z
x,-y,z
1/2+x,1/2+y,1/2+z
1/2-x,1/2-y,1/2+z
1/2+x,1/2-y,1/2-z
1/2-x,1/2+y,1/2-z
1/2-x,1/2-y,1/2-z
1/2+x,1/2+y,1/2-z
1/2-x,1/2+y,1/2+z
1/2+x,1/2-y,1/2+z
loop_
_atom_site_type_symbol
_atom_site_label
_atom_site_fract_x
_atom_site_fract_y
_atom_site_fract_z
Si Si1 0.440239 0.713829 0.888003
Si Si2 0.800980 0.706295 0.105989
Si Si3 0.382483 0.604968 0.887406
Si Si4 0.849371 0.266565 0.292413
Si Si5 0.710222 0.344469 0.792763
Si Si6 0.758753 0.317547 0.606105
Si Si7 0.441494 0.500000 0.885773
O O1 0.500000 0.717669 0.855362
O O2 0.420188 0.654535 0.864854
O O3 0.408521 0.758739 0.828565
O O4 0.433190 0.726523 0.000000
O O5 0.848473 0.711916 0.182308
O O6 0.761397 0.659713 0.139748
O O7 0.769568 0.761057 0.103344
O O8 0.823285 0.692454 0.000000
O O9 0.327707 0.608862 0.830019
O O10 0.411313 0.552282 0.849264
O O11 0.369445 0.601660 0.000000
O O12 0.820638 0.210462 0.300007
O O13 0.818511 0.308416 0.360047
O O14 0.728517 0.355321 0.682594
O O15 0.758247 0.344147 0.500000
O O16 0.500000 0.500000 0.842634
O O17 0.444697 0.500000 0.000000
#
# Coordination Sequence:
#
# PCOD8292617 Si02
#       7
#    16  16  16  16  16  16   8
#     4   9  15  21  29  40  54  74  99 125 151 176
#     4   8  12  18  28  41  57  75  91 107 132 168
#     4   9  15  22  31  42  57  74  93 121 154 186
#     4   8  13  19  27  40  57  75  93 113 138 168
#     4   8  13  19  28  43  58  72  90 111 140 176
#     4   8  12  18  28  42  59  74  87 107 136 169
#     4   9  16  24  32  42  57  77  99 123 155 192
#
# _framework density 11.637976
#
# number of rings (size 3 to 8) (size 9 to 14) (size 15 to 20)
#    0.000    3.615    0.000    3.231    0.000    5.538 
#    0.000    0.000    0.000    0.462    0.000    0.538 
#    0.000    2.462    0.000    0.000    0.000    0.308 
#
# Total GULP energy -644280.431955 kJ/mol
# GULP energy per Si atom -12390.008307 kJ/mol
# Density = 1.161149 g / cm^3
# Si number density = 11.637976 Si / 1000 Ang^3
#
#
#
# Elastic Constant Matrix: (Units=GPa)
#
#
# Indices 1 2 3 4 5 6 
#
# 1 82.0280 34.4099 44.1496 0.0000 0.0000 0.0000
# 2 34.4099 28.7300 21.2297 0.0000 0.0000 0.0000
# 3 44.1496 21.2297 85.1310 0.0000 0.0000 0.0000
# 4 0.0000 0.0000 0.0000 7.8378 0.0000 0.0000
# 5 0.0000 0.0000 0.0000 0.0000 17.2695 0.0000
# 6 0.0000 0.0000 0.0000 0.0000 0.0000 16.2419
#
#
#
# Elastic Compliance Matrix: (Units=1/GPa)
#
#
# Indices 1 2 3 4 5 6 
#
# 1 0.027958 -0.027916 -0.007538 0.000000 0.000000 0.000000
# 2 -0.027916 0.070543 -0.003114 0.000000 0.000000 0.000000
# 3 -0.007538 -0.003114 0.016433 0.000000 0.000000 0.000000
# 4 0.000000 0.000000 0.000000 0.127588 0.000000 0.000000
# 5 0.000000 0.000000 0.000000 0.000000 0.057906 0.000000
# 6 0.000000 0.000000 0.000000 0.000000 0.000000 0.061569
#
#
# Mechanical properties :
#
#
# Convention : Reuss Voigt Hill
#
# Bulk Modulus (GPa) = 26.45674 43.94081 35.19878
# Shear Modulus (GPa) = 11.06854 14.67649 12.87251
#
# Velocity S-wave (km/s) = 3.08729 3.55503 3.32938
# Velocity P-wave (km/s) = 5.95743 7.39522 6.71492
#
# Compressibility (1/GPa) = 0.03779755
#
# Stress axis : x y z
#
# Youngs Moduli (GPa) = 35.76742 14.17584 60.85499
#
# Poissons Ratio (x) = 0.39573 0.45872
# Poissons Ratio (y) = 0.99847 0.18953
# Poissons Ratio (z) = 0.26961 0.04415
#
# Static dielectric constant tensor:
#      x y z
#    x 2.446330 0.000000 0.000000 
#    y 0.000000 2.090700 0.000000 
#    z 0.000000 0.000000 2.623880 
# 
# 
# High freq. dielectric constant tensor:
#      x y z
#    x 1.426350 0.000000 0.000000 
#    y 0.000000 1.384460 0.000000 
#    z 0.000000 0.000000 1.436290 
# 
# From -- ./inp_files/39684.got.cif
#   From: 2010.06.25/outbox.cif.g09.slc.cpg/sg71_20_cif.got.tgz:39684.got - 2010.06.28 04:59:45.
