data_PCOD8292171
_publ_section_title
;
Structure prediction by ZEFSAII (Michael W. Deem and Ramdas Pophale) SiO2 
 PCOD8292171
Probable space group: I M M M
;
_chemical_formula_sum "Si O2"
_cell_formula_units_Z 88
_cell_length_a 12.228213
_cell_length_b 22.715434
_cell_length_c 15.213298
_cell_angle_alpha 90.000000
_cell_angle_beta 90.000000
_cell_angle_gamma 90.000000
_cell_volume 4225.785088
_symmetry_space_group_name_H-M "I M M M"
_symmetry_group_IT_number 71
_symmetry_cell_setting 'orthorhombic'
loop_
_space_group_symop_operation_xyz
x,y,z
-x,-y,z
x,-y,-z
-x,y,-z
-x,-y,-z
x,y,-z
-x,y,z
x,-y,z
1/2+x,1/2+y,1/2+z
1/2-x,1/2-y,1/2+z
1/2+x,1/2-y,1/2-z
1/2-x,1/2+y,1/2-z
1/2-x,1/2-y,1/2-z
1/2+x,1/2+y,1/2-z
1/2-x,1/2+y,1/2+z
1/2+x,1/2-y,1/2+z
loop_
_atom_site_type_symbol
_atom_site_label
_atom_site_fract_x
_atom_site_fract_y
_atom_site_fract_z
Si Si1 0.000000 0.934508 0.103293
Si Si2 0.000000 0.437058 0.864785
Si Si3 0.275681 0.759855 0.649682
Si Si4 0.723498 0.934060 0.736255
Si Si5 0.781183 0.871367 0.099167
Si Si6 0.500000 0.190195 0.404925
Si Si7 0.371703 0.636164 0.100253
O O1 0.896628 0.896670 0.133279
O O2 0.000000 0.000000 0.146225
O O3 0.000000 0.941428 0.000000
O O4 0.105433 0.434800 0.804747
O O5 0.000000 0.379821 0.925765
O O6 0.000000 0.500000 0.917270
O O7 0.250000 0.750000 0.750000
O O8 0.282087 0.698954 0.597503
O O9 0.392318 0.792284 0.647969
O O10 0.181273 0.798977 0.605601
O O11 0.701940 0.897272 0.826303
O O12 0.811701 0.906081 0.669405
O O13 0.764280 0.000000 0.758381
O O14 0.751885 0.893135 0.000000
O O15 0.500000 0.221913 0.500000
O O16 0.500000 0.639995 0.124150
O O17 0.356109 0.612717 0.000000
#
# Coordination Sequence:
#
# PCOD8292171 Si02
#       7
#     8   8  16  16  16   8  16
#     4   9  19  35  58  92 130 164 206 264 322 379
#     4  10  22  42  64  91 128 167 216 275 326 380
#     4  12  24  41  66  95 133 172 217 269 331 391
#     4  11  24  43  67  94 127 169 217 269 329 394
#     4  11  22  39  62  94 131 171 216 264 324 391
#     4  12  23  39  67  98 127 168 225 275 321 387
#     4  11  25  45  67  95 132 171 215 270 329 391
#
# _framework density 20.824534
#
# number of rings (size 3 to 8) (size 9 to 14) (size 15 to 20)
#    0.000    1.000    3.636    2.727    2.545    2.727 
#    1.636    3.182    0.000    1.636    0.000    0.000 
#    0.000    0.000    0.000    0.000    0.000    0.000 
#
# Total GULP energy -545422.801137 kJ/mol
# GULP energy per Si atom -12395.972753 kJ/mol
# Density = 2.077714 g / cm^3
# Si number density = 20.824534 Si / 1000 Ang^3
#
#
#
# Elastic Constant Matrix: (Units=GPa)
#
#
# Indices 1 2 3 4 5 6 
#
# 1 133.9886 41.5301 41.8752 0.0000 0.0000 0.0000
# 2 41.5301 151.5132 31.3421 0.0001 0.0000 0.0000
# 3 41.8752 31.3421 127.6246 0.0000 0.0000 0.0000
# 4 0.0000 0.0001 0.0000 17.8007 0.0000 0.0000
# 5 0.0000 0.0000 0.0000 0.0000 -27.9639 0.0000
# 6 0.0000 0.0000 0.0000 0.0000 0.0000 35.0510
#
#
#
# Elastic Compliance Matrix: (Units=1/GPa)
#
#
# Indices 1 2 3 4 5 6 
#
# 1 0.008814 -0.001915 -0.002422 0.000000 0.000000 0.000000
# 2 -0.001915 0.007369 -0.001181 0.000000 0.000000 0.000000
# 3 -0.002422 -0.001181 0.008920 0.000000 0.000000 0.000000
# 4 0.000000 0.000000 0.000000 0.056178 0.000000 0.000000
# 5 0.000000 0.000000 0.000000 0.000000 -0.035760 0.000000
# 6 0.000000 0.000000 0.000000 0.000000 0.000000 0.028530
#
#
# Mechanical properties :
#
#
# Convention : Reuss Voigt Hill
#
# Bulk Modulus (GPa) = 71.08710 71.40236 71.24473
# Shear Modulus (GPa) = 55.69466 24.86951 40.28208
#
# Velocity S-wave (km/s) = 5.17714 3.45953 4.40290
# Velocity P-wave (km/s) = 8.36346 7.09365 7.75459
#
# Compressibility (1/GPa) = 0.01406725
#
# Stress axis : x y z
#
# Youngs Moduli (GPa) = 113.46009 135.69693 112.10530
#
# Poissons Ratio (x) = 0.25985 0.27147
# Poissons Ratio (y) = 0.21727 0.13245
# Poissons Ratio (z) = 0.27476 0.16032
#
# Static dielectric constant tensor:
#      x y z
#    x 3.790000 0.000000 0.000000 
#    y 0.000000 4.281180 0.000000 
#    z 0.000000 0.000000 3.871690 
# 
# 
# High freq. dielectric constant tensor:
#      x y z
#    x 1.810800 0.000000 0.000000 
#    y 0.000000 1.828760 0.000000 
#    z 0.000000 0.000000 1.821940 
# 
# From -- ./inp_files/32798.got.cif
#   From: 2010.06.25/outbox.cif.g09.slc.cpg/sg71_17_cif.got.tgz:32798.got - 2010.06.28 04:59:45.
