data_PCOD8292268
_publ_section_title
;
Structure prediction by ZEFSAII (Michael W. Deem and Ramdas Pophale) SiO2 
 PCOD8292268
Probable space group: I M M M
;
_chemical_formula_sum "Si O2"
_cell_formula_units_Z 88
_cell_length_a 9.045582
_cell_length_b 23.139159
_cell_length_c 33.983510
_cell_angle_alpha 90.000000
_cell_angle_beta 90.000000
_cell_angle_gamma 90.000000
_cell_volume 7112.991970
_symmetry_space_group_name_H-M "I M M M"
_symmetry_group_IT_number 71
_symmetry_cell_setting 'orthorhombic'
loop_
_space_group_symop_operation_xyz
x,y,z
-x,-y,z
x,-y,-z
-x,y,-z
-x,-y,-z
x,y,-z
-x,y,z
x,-y,z
1/2+x,1/2+y,1/2+z
1/2-x,1/2-y,1/2+z
1/2+x,1/2-y,1/2-z
1/2-x,1/2+y,1/2-z
1/2-x,1/2-y,1/2-z
1/2+x,1/2+y,1/2-z
1/2-x,1/2+y,1/2+z
1/2+x,1/2-y,1/2+z
loop_
_atom_site_type_symbol
_atom_site_label
_atom_site_fract_x
_atom_site_fract_y
_atom_site_fract_z
Si Si1 0.826188 0.431766 0.914736
Si Si2 0.170815 0.567268 0.000000
Si Si3 0.324661 0.625082 0.842112
Si Si4 0.335598 0.230412 0.308731
Si Si5 0.836470 0.328240 0.275905
Si Si6 0.672944 0.934421 0.729490
O O1 0.798448 0.500000 0.909643
O O2 0.728130 0.396789 0.884220
O O3 0.000000 0.418422 0.908674
O O4 0.768182 0.409439 0.958018
O O5 0.199912 0.500000 0.000000
O O6 0.000000 0.581347 0.000000
O O7 0.500000 0.626032 0.839881
O O8 0.265234 0.690105 0.836114
O O9 0.264052 0.581339 0.809264
O O10 0.500000 0.234020 0.326746
O O11 0.269829 0.295501 0.306602
O O12 0.340332 0.204833 0.265308
O O13 0.780834 0.393542 0.266374
O O14 0.000000 0.329408 0.294614
O O15 0.500000 0.924701 0.719520
O O16 0.707172 0.000000 0.741731
#
# Coordination Sequence:
#
# PCOD8292268 Si02
#       6
#    16   8  16  16  16  16
#     4   9  16  27  41  53  66  85 109 136 167 204
#     4   7  12  24  41  55  63  79 109 137 160 195
#     4  11  20  26  34  50  70  88 108 138 173 203
#     4   9  16  26  38  49  62  83 109 134 164 201
#     4   8  14  24  37  51  65  81 104 135 166 195
#     4   9  17  28  39  50  66  89 113 135 164 203
#
# _framework density 12.371727999999999
#
# number of rings (size 3 to 8) (size 9 to 14) (size 15 to 20)
#    0.000    3.000    0.000    4.909    0.000    7.273 
#    0.000    0.455    0.000    1.636    0.000    0.000 
#    0.000    0.000    0.000    0.000    0.000    0.000 
#
# Total GULP energy -545150.759943 kJ/mol
# GULP energy per Si atom -12389.789999 kJ/mol
# Density = 1.234357 g / cm^3
# Si number density = 12.371728 Si / 1000 Ang^3
#
#
#
# Elastic Constant Matrix: (Units=GPa)
#
#
# Indices 1 2 3 4 5 6 
#
# 1 73.5412 40.8824 32.2300 0.0000 0.0000 0.0000
# 2 40.8824 87.6319 41.9871 0.0000 0.0000 0.0000
# 3 32.2300 41.9871 47.5994 0.0000 0.0000 0.0000
# 4 0.0000 0.0000 0.0000 13.7697 0.0000 0.0000
# 5 0.0000 0.0000 0.0000 0.0000 11.6886 0.0000
# 6 0.0000 0.0000 0.0000 0.0000 0.0000 17.5920
#
#
#
# Elastic Compliance Matrix: (Units=1/GPa)
#
#
# Indices 1 2 3 4 5 6 
#
# 1 0.020554 -0.005059 -0.009455 0.000000 0.000000 0.000000
# 2 -0.005059 0.021010 -0.015107 0.000000 0.000000 0.000000
# 3 -0.009455 -0.015107 0.040737 0.000000 0.000000 0.000000
# 4 0.000000 0.000000 0.000000 0.072623 0.000000 0.000000
# 5 0.000000 0.000000 0.000000 0.000000 0.085554 0.000000
# 6 0.000000 0.000000 0.000000 0.000000 0.000000 0.056844
#
#
# Mechanical properties :
#
#
# Convention : Reuss Voigt Hill
#
# Bulk Modulus (GPa) = 43.36804 48.77464 46.07134
# Shear Modulus (GPa) = 13.72688 14.85491 14.29090
#
# Velocity S-wave (km/s) = 3.33458 3.46889 3.40240
# Velocity P-wave (km/s) = 7.06797 7.45346 7.26327
#
# Compressibility (1/GPa) = 0.02305845
#
# Stress axis : x y z
#
# Youngs Moduli (GPa) = 48.65313 47.59698 24.54789
#
# Poissons Ratio (x) = 0.24078 0.23210
# Poissons Ratio (y) = 0.24612 0.37085
# Poissons Ratio (z) = 0.46001 0.71906
#
# Static dielectric constant tensor:
#      x y z
#    x 2.575560 0.000000 0.000000 
#    y 0.000000 2.614320 0.000000 
#    z 0.000000 0.000000 2.429880 
# 
# 
# High freq. dielectric constant tensor:
#      x y z
#    x 1.470730 0.000000 0.000000 
#    y 0.000000 1.450890 0.000000 
#    z 0.000000 0.000000 1.429130 
# 
# From -- ./inp_files/62229.got.cif
#   From: 2010.06.25/outbox.cif.g09.slc.cpg/sg71_32_cif.got.tgz:62229.got - 2010.06.28 04:59:45.
