data_PCOD8292372
_publ_section_title
;
Structure prediction by ZEFSAII (Michael W. Deem and Ramdas Pophale) SiO2 
 PCOD8292372
Probable space group: I M M M
;
_chemical_formula_sum "Si O2"
_cell_formula_units_Z 96
_cell_length_a 25.616249
_cell_length_b 17.080299
_cell_length_c 11.799864
_cell_angle_alpha 90.000000
_cell_angle_beta 90.000000
_cell_angle_gamma 90.000000
_cell_volume 5162.832163
_symmetry_space_group_name_H-M "I M M M"
_symmetry_group_IT_number 71
_symmetry_cell_setting 'orthorhombic'
loop_
_space_group_symop_operation_xyz
x,y,z
-x,-y,z
x,-y,-z
-x,y,-z
-x,-y,-z
x,y,-z
-x,y,z
x,-y,z
1/2+x,1/2+y,1/2+z
1/2-x,1/2-y,1/2+z
1/2+x,1/2-y,1/2-z
1/2-x,1/2+y,1/2-z
1/2-x,1/2-y,1/2-z
1/2+x,1/2+y,1/2-z
1/2-x,1/2+y,1/2+z
1/2+x,1/2-y,1/2+z
loop_
_atom_site_type_symbol
_atom_site_label
_atom_site_fract_x
_atom_site_fract_y
_atom_site_fract_z
Si Si1 0.663157 0.332780 0.221275
Si Si2 0.755725 0.909741 0.127411
Si Si3 0.057195 0.166347 0.372204
Si Si4 0.157357 0.350202 0.757663
Si Si5 0.329515 0.087944 0.500000
Si Si6 0.942886 0.647621 0.373059
Si Si7 0.706933 0.411754 0.000000
O O1 0.692206 0.365554 0.331218
O O2 0.602641 0.362177 0.213873
O O3 0.666293 0.239575 0.225811
O O4 0.691691 0.362417 0.109397
O O5 0.706414 0.897053 0.208354
O O6 0.770383 0.000000 0.129875
O O7 0.742733 0.880950 0.000000
O O8 0.069189 0.135771 0.500000
O O9 0.057199 0.259232 0.373842
O O10 0.000000 0.135358 0.332423
O O11 0.151606 0.363254 0.891310
O O12 0.103848 0.384392 0.704555
O O13 0.268174 0.080560 0.500000
O O14 0.353585 0.000000 0.500000
O O15 0.933512 0.616067 0.500000
O O16 0.000000 0.618463 0.329100
O O17 0.682595 0.500000 0.000000
#
# Coordination Sequence:
#
# PCOD8292372 Si02
#       7
#    16  16  16  16   8  16   8
#     4  11  21  33  58  84 112 143 187 230 267 325
#     4  11  24  38  53  76 111 148 179 224 282 331
#     4   8  14  27  49  80 111 137 171 223 279 316
#     4  11  22  34  59  84 109 141 191 234 270 328
#     4  11  24  40  55  77 115 157 184 222 290 344
#     4   8  15  30  53  82 113 140 174 227 285 329
#     4  11  22  36  55  81 117 157 184 216 282 344
#
# _framework density 18.594445
#
# number of rings (size 3 to 8) (size 9 to 14) (size 15 to 20)
#    0.000    2.000    2.500    3.000    3.500    0.000 
#    0.000    0.417    0.000    5.500    0.000    7.000 
#    0.000    0.000    0.000    0.000    0.000    0.000 
#
# Total GULP energy -594959.034482 kJ/mol
# GULP energy per Si atom -12394.979885 kJ/mol
# Density = 1.855212 g / cm^3
# Si number density = 18.594445 Si / 1000 Ang^3
#
#
#
# Elastic Constant Matrix: (Units=GPa)
#
#
# Indices 1 2 3 4 5 6 
#
# 1 136.2605 11.3742 47.0347 0.0000 0.0000 0.0000
# 2 11.3742 56.4508 21.3943 0.0000 0.0000 0.0000
# 3 47.0347 21.3943 105.6442 0.0000 0.0000 0.0000
# 4 0.0000 0.0000 0.0000 49.6276 0.0000 0.0000
# 5 0.0000 0.0000 0.0000 0.0000 96.5818 0.0000
# 6 0.0000 0.0000 0.0000 0.0000 0.0000 -3.9250
#
#
#
# Elastic Compliance Matrix: (Units=1/GPa)
#
#
# Indices 1 2 3 4 5 6 
#
# 1 0.008676 -0.000308 -0.003801 0.000000 0.000000 0.000000
# 2 -0.000308 0.019198 -0.003751 0.000000 0.000000 0.000000
# 3 -0.003801 -0.003751 0.011917 0.000000 0.000000 0.000000
# 4 0.000000 0.000000 0.000000 0.020150 0.000000 0.000000
# 5 0.000000 0.000000 0.000000 0.000000 0.010354 0.000000
# 6 0.000000 0.000000 0.000000 0.000000 0.000000 -0.254778
#
#
# Mechanical properties :
#
#
# Convention : Reuss Voigt Hill
#
# Bulk Modulus (GPa) = 41.53941 50.88467 46.21204
# Shear Modulus (GPa) = -31.10632 43.02704 5.96036
#
# Velocity S-wave (km/s) = -4.09453 4.81560 1.79232
# Velocity P-wave (km/s) = 0.18618 7.63838 5.40276
#
# Compressibility (1/GPa) = 0.02407352
#
# Stress axis : x y z
#
# Youngs Moduli (GPa) = 115.25417 52.08857 83.91085
#
# Poissons Ratio (x) = 0.01603 0.31891
# Poissons Ratio (y) = 0.03548 0.31473
# Poissons Ratio (z) = 0.43803 0.19537
#
# Static dielectric constant tensor:
#      x y z
#    x 3.916050 0.000000 0.000000 
#    y 0.000000 3.219420 0.000000 
#    z 0.000000 0.000000 3.482410 
# 
# 
# High freq. dielectric constant tensor:
#      x y z
#    x 1.729670 0.000000 0.000000 
#    y 0.000000 1.700850 0.000000 
#    z 0.000000 0.000000 1.706510 
# 
# From -- ./inp_files/28827.got.cif
#   From: 2010.06.25/outbox.cif.g09.slc.cpg/sg71_15_cif.got.tgz:28827.got - 2010.06.28 04:59:45.
