data_PCOD8292301
_publ_section_title
;
Structure prediction by ZEFSAII (Michael W. Deem and Ramdas Pophale) SiO2 
 PCOD8292301
Probable space group: I M M M
;
_chemical_formula_sum "Si O2"
_cell_formula_units_Z 80
_cell_length_a 22.472562
_cell_length_b 21.302848
_cell_length_c 10.029058
_cell_angle_alpha 90.000000
_cell_angle_beta 90.000000
_cell_angle_gamma 90.000000
_cell_volume 4801.206648
_symmetry_space_group_name_H-M "I M M M"
_symmetry_group_IT_number 71
_symmetry_cell_setting 'orthorhombic'
loop_
_space_group_symop_operation_xyz
x,y,z
-x,-y,z
x,-y,-z
-x,y,-z
-x,-y,-z
x,y,-z
-x,y,z
x,-y,z
1/2+x,1/2+y,1/2+z
1/2-x,1/2-y,1/2+z
1/2+x,1/2-y,1/2-z
1/2-x,1/2+y,1/2-z
1/2-x,1/2-y,1/2-z
1/2+x,1/2+y,1/2-z
1/2-x,1/2+y,1/2+z
1/2+x,1/2-y,1/2+z
loop_
_atom_site_type_symbol
_atom_site_label
_atom_site_fract_x
_atom_site_fract_y
_atom_site_fract_z
Si Si1 0.230001 0.071900 0.000000
Si Si2 0.232220 0.428490 0.000000
Si Si3 0.162334 0.733050 0.658550
Si Si4 0.067339 0.355994 0.265656
Si Si5 0.272930 0.350142 0.250707
Si Si6 0.908469 0.427782 0.000000
Si Si7 0.128196 0.429299 0.500000
O O1 0.203425 0.106466 0.870490
O O2 0.301137 0.076340 0.000000
O O3 0.208567 0.000000 0.000000
O O4 0.255806 0.394868 0.869635
O O5 0.254832 0.500000 0.000000
O O6 0.161847 0.425243 0.000000
O O7 0.152881 0.728045 0.500000
O O8 0.102961 0.710128 0.736333
O O9 0.217000 0.689725 0.700822
O O10 0.174209 0.804318 0.703324
O O11 0.065693 0.391177 0.125746
O O12 0.102694 0.399041 0.367951
O O13 0.000000 0.343181 0.312948
O O14 0.930899 0.500000 0.000000
O O15 0.106163 0.500000 0.500000
#
# Coordination Sequence:
#
# PCOD8292301 Si02
#       7
#     8   8  16  16  16   8   8
#     4  11  20  35  55  79 109 134 167 214 256 302
#     4  11  20  33  53  77 103 136 175 214 260 310
#     4  11  21  35  53  74 102 132 176 216 258 304
#     4  12  23  36  52  71 100 138 184 222 255 292
#     4  11  20  34  54  76 101 136 171 208 264 317
#     4  11  23  37  49  71 107 140 178 221 259 295
#     4  11  21  35  51  71 101 140 186 219 245 289
#
# _framework density 16.662478
#
# number of rings (size 3 to 8) (size 9 to 14) (size 15 to 20)
#    0.000    0.800    7.000    1.800    0.000    6.400 
#    0.000    0.000    0.000    0.000    0.000    0.000 
#    0.000    4.800    0.000    0.000    0.000    0.000 
#
# Total GULP energy -496060.002114 kJ/mol
# GULP energy per Si atom -12401.500053 kJ/mol
# Density = 1.662455 g / cm^3
# Si number density = 16.662478 Si / 1000 Ang^3
#
#
#
# Elastic Constant Matrix: (Units=GPa)
#
#
# Indices 1 2 3 4 5 6 
#
# 1 49.9587 37.0135 9.2800 0.0000 0.0000 0.0000
# 2 37.0135 112.2673 38.8306 0.0000 0.0000 0.0000
# 3 9.2800 38.8306 108.7289 0.0000 0.0000 0.0000
# 4 0.0000 0.0000 0.0000 47.8240 0.0000 0.0000
# 5 0.0000 0.0000 0.0000 0.0000 37.1657 0.0000
# 6 0.0000 0.0000 0.0000 0.0000 0.0000 22.6296
#
#
#
# Elastic Compliance Matrix: (Units=1/GPa)
#
#
# Indices 1 2 3 4 5 6 
#
# 1 0.026578 -0.009102 0.000982 0.000000 0.000000 0.000000
# 2 -0.009102 0.013280 -0.003966 0.000000 0.000000 0.000000
# 3 0.000982 -0.003966 0.010530 0.000000 0.000000 0.000000
# 4 0.000000 0.000000 0.000000 0.020910 0.000000 0.000000
# 5 0.000000 0.000000 0.000000 0.000000 0.026907 0.000000
# 6 0.000000 0.000000 0.000000 0.000000 0.000000 0.044190
#
#
# Mechanical properties :
#
#
# Convention : Reuss Voigt Hill
#
# Bulk Modulus (GPa) = 38.14486 49.02257 43.58372
# Shear Modulus (GPa) = 28.52190 33.91257 31.21723
#
# Velocity S-wave (km/s) = 4.14181 4.51629 4.33310
# Velocity P-wave (km/s) = 6.76869 7.52865 7.15876
#
# Compressibility (1/GPa) = 0.02621585
#
# Stress axis : x y z
#
# Youngs Moduli (GPa) = 37.62549 75.30173 94.96981
#
# Poissons Ratio (x) = 0.68541 -0.09329
# Poissons Ratio (y) = 0.34247 0.37663
# Poissons Ratio (z) = -0.03696 0.29863
#
# Static dielectric constant tensor:
#      x y z
#    x 2.974670 0.000000 0.000000 
#    y 0.000000 3.494930 0.000000 
#    z 0.000000 0.000000 3.840520 
# 
# 
# High freq. dielectric constant tensor:
#      x y z
#    x 1.600340 0.000000 0.000000 
#    y 0.000000 1.645620 0.000000 
#    z 0.000000 0.000000 1.663370 
# 
# From -- ./inp_files/12438.got.cif
#   From: 2010.06.25/outbox.cif.g09.slc.cpg/sg71_7_cif.got.tgz:12438.got - 2010.06.28 04:59:45.
