data_PCOD8292978
_publ_section_title
;
Structure prediction by ZEFSAII (Michael W. Deem and Ramdas Pophale) SiO2 
 PCOD8292978
Probable space group: I B A M
;
_chemical_formula_sum "Si O2"
_cell_formula_units_Z 88
_cell_length_a 23.233302
_cell_length_b 18.844222
_cell_length_c 13.253993
_cell_angle_alpha 90.000000
_cell_angle_beta 90.000000
_cell_angle_gamma 90.000000
_cell_volume 5802.777073
_symmetry_space_group_name_H-M "I B A M"
_symmetry_group_IT_number 72
_symmetry_cell_setting 'orthorhombic'
loop_
_space_group_symop_operation_xyz
x,y,z
-x,-y,z
x,-y,1/2-z
-x,y,1/2-z
-x,-y,-z
x,y,-z
-x,y,1/2+z
x,-y,1/2+z
1/2+x,1/2+y,1/2+z
1/2-x,1/2-y,1/2+z
1/2+x,1/2-y,-z
1/2-x,1/2+y,-z
1/2-x,1/2-y,1/2-z
1/2+x,1/2+y,1/2-z
1/2-x,1/2+y,z
1/2+x,1/2-y,z
loop_
_atom_site_type_symbol
_atom_site_label
_atom_site_fract_x
_atom_site_fract_y
_atom_site_fract_z
Si Si1 0.686928 0.749794 0.209047
Si Si2 0.274828 0.115904 0.113449
Si Si3 0.935550 0.083907 0.251831
Si Si4 0.337307 0.393370 0.114740
Si Si5 0.736831 0.500000 0.250000
Si Si6 0.644489 0.671867 0.614034
O O1 0.750000 0.750000 0.250000
O O2 0.679148 0.825908 0.154977
O O3 0.684983 0.686888 0.126755
O O4 0.642782 0.736435 0.303528
O O5 0.208384 0.140132 0.118174
O O6 0.279651 0.044803 0.179239
O O7 0.293152 0.098033 0.000000
O O8 0.903718 0.108120 0.149560
O O9 0.901234 0.112157 0.350794
O O10 0.000000 0.115786 0.250000
O O11 0.937740 0.000000 0.250000
O O12 0.302887 0.448187 0.184258
O O13 0.331618 0.418369 0.000000
O O14 0.629534 0.697365 0.500000
#
# Coordination Sequence:
#
# PCOD8292978 Si02
#       6
#    16  16  16  16   8  16
#     4   9  16  32  44  61  83 105 148 183 212 261
#     4  10  18  29  45  62  84 115 144 178 220 257
#     4  10  19  31  42  58  86 113 150 188 220 257
#     4  11  20  31  46  62  83 115 150 186 219 253
#     4  12  18  30  41  64  92 112 143 182 218 256
#     4   9  17  29  45  59  78 108 143 184 222 251
#
# _framework density 15.165153
#
# number of rings (size 3 to 8) (size 9 to 14) (size 15 to 20)
#    0.000    2.000    6.364    1.091    0.000    3.636 
#    0.000    1.818    0.000    0.000    0.000    0.000 
#    0.000    0.000    0.000   13.091    0.000   58.909 
#
# Total GULP energy -545188.285635 kJ/mol
# GULP energy per Si atom -12390.642855 kJ/mol
# Density = 1.513064 g / cm^3
# Si number density = 15.165153 Si / 1000 Ang^3
#
#
#
# Elastic Constant Matrix: (Units=GPa)
#
#
# Indices 1 2 3 4 5 6 
#
# 1 41.9600 30.9054 23.0724 0.0000 0.0000 0.0000
# 2 30.9054 94.4314 54.8183 0.0000 0.0000 0.0000
# 3 23.0724 54.8183 143.7846 0.0000 0.0000 0.0000
# 4 0.0000 0.0000 0.0000 20.4987 0.0000 0.0000
# 5 0.0000 0.0000 0.0000 0.0000 11.5615 0.0000
# 6 0.0000 0.0000 0.0000 0.0000 0.0000 16.9955
#
#
#
# Elastic Compliance Matrix: (Units=1/GPa)
#
#
# Indices 1 2 3 4 5 6 
#
# 1 0.031635 -0.009512 -0.001450 0.000000 0.000000 0.000000
# 2 -0.009512 0.016460 -0.004749 0.000000 0.000000 0.000000
# 3 -0.001450 -0.004749 0.008998 0.000000 0.000000 0.000000
# 4 0.000000 0.000000 0.000000 0.048784 0.000000 0.000000
# 5 0.000000 0.000000 0.000000 0.000000 0.086494 0.000000
# 6 0.000000 0.000000 0.000000 0.000000 0.000000 0.058839
#
#
# Mechanical properties :
#
#
# Convention : Reuss Voigt Hill
#
# Bulk Modulus (GPa) = 38.95375 55.30759 47.13067
# Shear Modulus (GPa) = 17.17103 21.23647 19.20375
#
# Velocity S-wave (km/s) = 3.36857 3.74618 3.56238
# Velocity P-wave (km/s) = 6.39311 7.43379 6.93300
#
# Compressibility (1/GPa) = 0.02567147
#
# Stress axis : x y z
#
# Youngs Moduli (GPa) = 31.61018 60.75512 111.13512
#
# Poissons Ratio (x) = 0.57789 0.16114
# Poissons Ratio (y) = 0.30067 0.52777
# Poissons Ratio (z) = 0.04583 0.28852
#
# Static dielectric constant tensor:
#      x y z
#    x 2.775530 0.000000 0.000000 
#    y 0.000000 3.297650 0.000000 
#    z 0.000000 0.000000 3.363720 
# 
# 
# High freq. dielectric constant tensor:
#      x y z
#    x 1.529260 0.000000 0.000000 
#    y 0.000000 1.569320 0.000000 
#    z 0.000000 0.000000 1.596280 
# 
# From -- ./inp_files/23323.got.cif
#   From: 2010.03.12/outbox.cif.g09.slc.cpg/sg72_12_cif.got.tgz:23323.got - 2010.04.16 14:54:00.
