data_PCOD8292062
_publ_section_title
;
Structure prediction by ZEFSAII (Michael W. Deem and Ramdas Pophale) SiO2 
 PCOD8292062
Probable space group: I M M M
;
_chemical_formula_sum "Si O2"
_cell_formula_units_Z 80
_cell_length_a 24.706552
_cell_length_b 14.451079
_cell_length_c 10.464001
_cell_angle_alpha 90.000000
_cell_angle_beta 90.000000
_cell_angle_gamma 90.000000
_cell_volume 3736.028564
_symmetry_space_group_name_H-M "I M M M"
_symmetry_group_IT_number 71
_symmetry_cell_setting 'orthorhombic'
loop_
_space_group_symop_operation_xyz
x,y,z
-x,-y,z
x,-y,-z
-x,y,-z
-x,-y,-z
x,y,-z
-x,y,z
x,-y,z
1/2+x,1/2+y,1/2+z
1/2-x,1/2-y,1/2+z
1/2+x,1/2-y,1/2-z
1/2-x,1/2+y,1/2-z
1/2-x,1/2-y,1/2-z
1/2+x,1/2+y,1/2-z
1/2-x,1/2+y,1/2+z
1/2+x,1/2-y,1/2+z
loop_
_atom_site_type_symbol
_atom_site_label
_atom_site_fract_x
_atom_site_fract_y
_atom_site_fract_z
Si Si1 0.131467 0.607628 0.853448
Si Si2 0.671041 0.607387 0.637565
Si Si3 0.061536 0.705653 0.639933
Si Si4 0.440148 0.397262 0.755872
Si Si5 0.245577 0.889799 0.359592
O O1 0.124473 0.500000 0.821924
O O2 0.095636 0.665168 0.755829
O O3 0.192980 0.640565 0.831583
O O4 0.113868 0.627679 0.000000
O O5 0.686909 0.652028 0.500000
O O6 0.685990 0.500000 0.635038
O O7 0.606684 0.621322 0.652485
O O8 0.705818 0.653980 0.752036
O O9 0.082386 0.672165 0.500000
O O10 0.064551 0.817656 0.637742
O O11 0.000000 0.672364 0.659976
O O12 0.500000 0.392170 0.690522
O O13 0.431699 0.500000 0.817809
O O14 0.227465 0.853397 0.500000
O O15 0.242294 0.000000 0.360005
#
# Coordination Sequence:
#
# PCOD8292062 Si02
#       5
#    16  16  16  16  16
#     4   9  19  37  60  84 111 147 188 224 265 325
#     4   9  17  29  49  80 112 140 177 226 276 325
#     4  10  22  38  56  83 115 143 179 230 281 326
#     4   9  19  36  56  78 108 147 187 227 274 328
#     4   8  15  30  52  77 106 141 180 221 266 319
#
# _framework density 21.413112000000002
#
# number of rings (size 3 to 8) (size 9 to 14) (size 15 to 20)
#    0.000    3.000    0.000    1.200    0.000    4.400 
#    0.000   13.000    0.000    0.000    0.000    0.000 
#    0.000    0.000    0.000    0.000    0.000    0.000 
#
# Total GULP energy -495553.526126 kJ/mol
# GULP energy per Si atom -12388.838153 kJ/mol
# Density = 2.136437 g / cm^3
# Si number density = 21.413112 Si / 1000 Ang^3
#
#
#
# Elastic Constant Matrix: (Units=GPa)
#
#
# Indices 1 2 3 4 5 6 
#
# 1 134.2931 30.1745 108.9214 0.0000 0.0000 0.0000
# 2 30.1745 56.9568 42.1887 0.0000 0.0000 0.0000
# 3 108.9214 42.1887 189.8819 0.0000 0.0000 0.0000
# 4 0.0000 0.0000 0.0000 14.5301 0.0000 0.0000
# 5 0.0000 0.0000 0.0000 0.0000 24.4744 0.0000
# 6 0.0000 0.0000 0.0000 0.0000 0.0000 10.7944
#
#
#
# Elastic Compliance Matrix: (Units=1/GPa)
#
#
# Indices 1 2 3 4 5 6 
#
# 1 0.014072 -0.001767 -0.007680 0.000000 0.000000 0.000000
# 2 -0.001767 0.021238 -0.003705 0.000000 0.000000 0.000000
# 3 -0.007680 -0.003705 0.010495 0.000000 0.000000 0.000000
# 4 0.000000 0.000000 0.000000 0.068823 0.000000 0.000000
# 5 0.000000 0.000000 0.000000 0.000000 0.040859 0.000000
# 6 0.000000 0.000000 0.000000 0.000000 0.000000 0.092640
#
#
# Mechanical properties :
#
#
# Convention : Reuss Voigt Hill
#
# Bulk Modulus (GPa) = 51.27793 82.63345 66.95569
# Shear Modulus (GPa) = 17.79802 23.28293 20.54047
#
# Velocity S-wave (km/s) = 2.88614 3.30103 3.10053
# Velocity P-wave (km/s) = 5.92498 7.29404 6.64486
#
# Compressibility (1/GPa) = 0.01950157
#
# Stress axis : x y z
#
# Youngs Moduli (GPa) = 71.06285 47.08613 95.28447
#
# Poissons Ratio (x) = 0.08319 0.73174
# Poissons Ratio (y) = 0.12555 0.35305
# Poissons Ratio (z) = 0.54573 0.17447
#
# Static dielectric constant tensor:
#      x y z
#    x 3.955180 0.000000 0.000000 
#    y 0.000000 3.645050 0.000000 
#    z 0.000000 0.000000 4.013770 
# 
# 
# High freq. dielectric constant tensor:
#      x y z
#    x 1.838710 0.000000 0.000000 
#    y 0.000000 1.821850 0.000000 
#    z 0.000000 0.000000 1.829240 
# 
# From -- ./inp_files/27106.got.cif
#   From: 2010.06.25/outbox.cif.g09.slc.cpg/sg71_14_cif.got.tgz:27106.got - 2010.06.28 04:59:45.
