data_PCOD8292968
_publ_section_title
;
Structure prediction by ZEFSAII (Michael W. Deem and Ramdas Pophale) SiO2 
 PCOD8292968
Probable space group: I B A M
;
_chemical_formula_sum "Si O2"
_cell_formula_units_Z 80
_cell_length_a 13.069505
_cell_length_b 21.231599
_cell_length_c 16.908410
_cell_angle_alpha 90.000000
_cell_angle_beta 90.000000
_cell_angle_gamma 90.000000
_cell_volume 4691.855330
_symmetry_space_group_name_H-M "I B A M"
_symmetry_group_IT_number 72
_symmetry_cell_setting 'orthorhombic'
loop_
_space_group_symop_operation_xyz
x,y,z
-x,-y,z
x,-y,1/2-z
-x,y,1/2-z
-x,-y,-z
x,y,-z
-x,y,1/2+z
x,-y,1/2+z
1/2+x,1/2+y,1/2+z
1/2-x,1/2-y,1/2+z
1/2+x,1/2-y,-z
1/2-x,1/2+y,-z
1/2-x,1/2-y,1/2-z
1/2+x,1/2+y,1/2-z
1/2-x,1/2+y,z
1/2+x,1/2-y,z
loop_
_atom_site_type_symbol
_atom_site_label
_atom_site_fract_x
_atom_site_fract_y
_atom_site_fract_z
Si Si1 0.253827 0.167288 0.678872
Si Si2 0.116383 0.073522 0.237484
Si Si3 0.930144 0.285999 0.591195
Si Si4 0.332047 0.347485 0.410584
Si Si5 0.145700 0.291567 0.339684
O O1 0.192575 0.103530 0.697234
O O2 0.337689 0.164248 0.608289
O O3 0.167035 0.217197 0.654635
O O4 0.323180 0.186861 0.752843
O O5 0.143467 0.095188 0.148532
O O6 0.000000 0.094635 0.250000
O O7 0.130969 0.000000 0.250000
O O8 0.960614 0.290297 0.500000
O O9 0.895268 0.215058 0.613953
O O10 0.027132 0.304546 0.644137
O O11 0.356983 0.369085 0.500000
O O12 0.212396 0.329834 0.404013
#
# Coordination Sequence:
#
# PCOD8292968 Si02
#       5
#    16  16  16  16  16
#     4   9  18  30  47  71  97 125 160 200 238 282
#     4  10  20  35  52  69  92 127 167 199 235 284
#     4  10  18  28  47  76 104 127 153 191 246 299
#     4   9  18  31  48  72  99 125 156 197 241 285
#     4   9  16  28  49  72  97 126 156 192 241 294
#
# _framework density 17.050823999999999
#
# number of rings (size 3 to 8) (size 9 to 14) (size 15 to 20)
#    0.000    2.600    0.000    3.600    0.000    0.800 
#    0.000    4.000    0.000    9.600    0.000    7.000 
#    0.000    0.000    0.000    0.000    0.000    0.000 
#
# Total GULP energy -495753.660119 kJ/mol
# GULP energy per Si atom -12393.841503 kJ/mol
# Density = 1.701202 g / cm^3
# Si number density = 17.050824 Si / 1000 Ang^3
#
#
#
# Elastic Constant Matrix: (Units=GPa)
#
#
# Indices 1 2 3 4 5 6 
#
# 1 113.8521 47.2280 25.8375 0.0000 0.0000 0.0000
# 2 47.2280 71.6933 38.3138 0.0000 0.0000 0.0000
# 3 25.8375 38.3138 67.1800 0.0001 0.0000 0.0000
# 4 0.0000 0.0000 0.0001 20.7324 0.0000 0.0000
# 5 0.0000 0.0000 0.0000 0.0000 23.1615 0.0000
# 6 0.0000 0.0000 0.0000 0.0000 0.0000 21.7696
#
#
#
# Elastic Compliance Matrix: (Units=1/GPa)
#
#
# Indices 1 2 3 4 5 6 
#
# 1 0.012087 -0.007880 -0.000155 0.000000 0.000000 0.000000
# 2 -0.007880 0.025200 -0.011341 0.000000 0.000000 0.000000
# 3 -0.000155 -0.011341 0.021413 0.000000 0.000000 0.000000
# 4 0.000000 0.000000 0.000000 0.048234 0.000000 0.000000
# 5 0.000000 0.000000 0.000000 0.000000 0.043175 0.000000
# 6 0.000000 0.000000 0.000000 0.000000 0.000000 0.045936
#
#
# Mechanical properties :
#
#
# Convention : Reuss Voigt Hill
#
# Bulk Modulus (GPa) = 50.12926 52.83154 51.48040
# Shear Modulus (GPa) = 20.70858 22.55579 21.63218
#
# Velocity S-wave (km/s) = 3.48878 3.64105 3.56573
# Velocity P-wave (km/s) = 6.75962 6.98057 6.87099
#
# Compressibility (1/GPa) = 0.01994843
#
# Stress axis : x y z
#
# Youngs Moduli (GPa) = 82.73300 39.68249 46.70032
#
# Poissons Ratio (x) = 0.31268 0.00723
# Poissons Ratio (y) = 0.65191 0.52965
# Poissons Ratio (z) = 0.01281 0.45006
#
# Static dielectric constant tensor:
#      x y z
#    x 3.284560 0.000000 0.000000 
#    y 0.000000 2.806750 0.000000 
#    z 0.000000 0.000000 3.270660 
# 
# 
# High freq. dielectric constant tensor:
#      x y z
#    x 1.670230 0.000000 0.000000 
#    y 0.000000 1.610700 0.000000 
#    z 0.000000 0.000000 1.660060 
# 
# From -- ./inp_files/20221.got.cif
#   From: 2010.03.12/outbox.cif.g09.slc.cpg/sg72_11_cif.got.tgz:20221.got - 2010.04.16 14:54:00.
