data_PCOD8292580
_publ_section_title
;
Structure prediction by ZEFSAII (Michael W. Deem and Ramdas Pophale) SiO2 
 PCOD8292580
Probable space group: I M M M
;
_chemical_formula_sum "Si O2"
_cell_formula_units_Z 48
_cell_length_a 11.670112
_cell_length_b 16.446083
_cell_length_c 12.598452
_cell_angle_alpha 90.000000
_cell_angle_beta 90.000000
_cell_angle_gamma 90.000000
_cell_volume 2417.991041
_symmetry_space_group_name_H-M "I M M M"
_symmetry_group_IT_number 71
_symmetry_cell_setting 'orthorhombic'
loop_
_space_group_symop_operation_xyz
x,y,z
-x,-y,z
x,-y,-z
-x,y,-z
-x,-y,-z
x,y,-z
-x,y,z
x,-y,z
1/2+x,1/2+y,1/2+z
1/2-x,1/2-y,1/2+z
1/2+x,1/2-y,1/2-z
1/2-x,1/2+y,1/2-z
1/2-x,1/2-y,1/2-z
1/2+x,1/2+y,1/2-z
1/2-x,1/2+y,1/2+z
1/2+x,1/2-y,1/2+z
loop_
_atom_site_type_symbol
_atom_site_label
_atom_site_fract_x
_atom_site_fract_y
_atom_site_fract_z
Si Si1 0.238027 0.339689 0.796722
Si Si2 0.000000 0.594985 0.125762
Si Si3 0.624509 0.406141 0.614687
Si Si4 0.636260 0.405232 0.000000
O O1 0.250000 0.250000 0.750000
O O2 0.277529 0.396095 0.700891
O O3 0.108236 0.359817 0.824742
O O4 0.317908 0.357327 0.897820
O O5 0.000000 0.500000 0.156264
O O6 0.000000 0.606259 0.000000
O O7 0.659423 0.366857 0.500000
O O8 0.500000 0.369262 0.650425
O O9 0.607632 0.500000 0.597071
O O10 0.679127 0.500000 0.000000
O O11 0.500000 0.402563 0.000000
#
# Coordination Sequence:
#
# PCOD8292580 Si02
#       4
#    16   8  16   8
#     4  12  26  40  65 100 135 172 221 284 336 394
#     4  11  24  46  71  95 135 188 235 272 338 426
#     4   9  19  38  65  92 123 164 212 263 325 399
#     4  11  24  45  73  97 129 175 229 283 336 400
#
# _framework density 19.851191
#
# number of rings (size 3 to 8) (size 9 to 14) (size 15 to 20)
#    0.000    1.333    1.667    5.000    7.000    2.667 
#    0.000    0.833    0.000    3.000    0.000    0.000 
#    0.000    0.000    0.000    0.000    0.000    0.000 
#
# Total GULP energy -297422.948925 kJ/mol
# GULP energy per Si atom -12392.622872 kJ/mol
# Density = 1.980601 g / cm^3
# Si number density = 19.851191 Si / 1000 Ang^3
#
#
#
# Elastic Constant Matrix: (Units=GPa)
#
#
# Indices 1 2 3 4 5 6 
#
# 1 149.9158 51.1241 79.5530 0.0000 0.0000 0.0000
# 2 51.1241 113.0439 58.3917 0.0000 0.0000 0.0000
# 3 79.5530 58.3917 160.1268 0.0000 -0.0002 0.0000
# 4 0.0000 0.0000 0.0000 33.5817 0.0000 0.0000
# 5 0.0000 0.0000 -0.0002 0.0000 83.2619 0.0000
# 6 0.0000 0.0000 0.0000 0.0000 0.0000 25.3618
#
#
#
# Elastic Compliance Matrix: (Units=1/GPa)
#
#
# Indices 1 2 3 4 5 6 
#
# 1 0.009518 -0.002294 -0.003892 0.000000 0.000000 0.000000
# 2 -0.002294 0.011452 -0.003036 0.000000 0.000000 0.000000
# 3 -0.003892 -0.003036 0.009286 0.000000 0.000000 0.000000
# 4 0.000000 0.000000 0.000000 0.029778 0.000000 0.000000
# 5 0.000000 0.000000 0.000000 0.000000 0.012010 0.000000
# 6 0.000000 0.000000 0.000000 0.000000 0.000000 0.039429
#
#
# Mechanical properties :
#
#
# Convention : Reuss Voigt Hill
#
# Bulk Modulus (GPa) = 84.66770 89.02490 86.84630
# Shear Modulus (GPa) = 37.35356 44.04226 40.69791
#
# Velocity S-wave (km/s) = 4.34254 4.71533 4.53277
# Velocity P-wave (km/s) = 8.23937 8.63651 8.44028
#
# Compressibility (1/GPa) = 0.01181088
#
# Stress axis : x y z
#
# Youngs Moduli (GPa) = 105.06279 87.32081 107.68953
#
# Poissons Ratio (x) = 0.20032 0.41914
# Poissons Ratio (y) = 0.24103 0.32698
# Poissons Ratio (z) = 0.40892 0.26514
#
# Static dielectric constant tensor:
#      x y z
#    x 5.127860 0.000000 0.000000 
#    y 0.000000 3.328130 0.000000 
#    z 0.000000 0.000000 2.646060 
# 
# 
# High freq. dielectric constant tensor:
#      x y z
#    x 1.779430 0.000000 0.000000 
#    y 0.000000 1.768250 0.000000 
#    z 0.000000 0.000000 1.792320 
# 
# From -- ./inp_files/19080.got.cif
#   From: 2010.06.25/outbox.cif.g09.slc.cpg/sg71_10_cif.got.tgz:19080.got - 2010.06.28 04:59:45.
