data_PCOD8292840
_publ_section_title
;
Structure prediction by ZEFSAII (Michael W. Deem and Ramdas Pophale) SiO2 
 PCOD8292840
Probable space group: I B A M
;
_chemical_formula_sum "Si O2"
_cell_formula_units_Z 96
_cell_length_a 28.809020
_cell_length_b 26.606405
_cell_length_c 9.161675
_cell_angle_alpha 90.000000
_cell_angle_beta 90.000000
_cell_angle_gamma 90.000000
_cell_volume 7022.464692
_symmetry_space_group_name_H-M "I B A M"
_symmetry_group_IT_number 72
_symmetry_cell_setting 'orthorhombic'
loop_
_space_group_symop_operation_xyz
x,y,z
-x,-y,z
x,-y,1/2-z
-x,y,1/2-z
-x,-y,-z
x,y,-z
-x,y,1/2+z
x,-y,1/2+z
1/2+x,1/2+y,1/2+z
1/2-x,1/2-y,1/2+z
1/2+x,1/2-y,-z
1/2-x,1/2+y,-z
1/2-x,1/2-y,1/2-z
1/2+x,1/2+y,1/2-z
1/2-x,1/2+y,z
1/2+x,1/2-y,z
loop_
_atom_site_type_symbol
_atom_site_label
_atom_site_fract_x
_atom_site_fract_y
_atom_site_fract_z
Si Si1 0.191667 0.649674 0.669795
Si Si2 0.545652 0.901097 0.330663
Si Si3 0.776413 0.792094 0.665859
Si Si4 0.546608 0.215881 0.828760
Si Si5 0.359049 0.949330 0.828815
Si Si6 0.363145 0.237656 0.171813
O O1 0.177837 0.659272 0.500000
O O2 0.247962 0.655871 0.694261
O O3 0.178376 0.593188 0.714479
O O4 0.163075 0.688390 0.768621
O O5 0.500000 0.921433 0.250000
O O6 0.536958 0.909510 0.500000
O O7 0.554861 0.842805 0.295888
O O8 0.590010 0.932112 0.274682
O O9 0.770997 0.776100 0.500000
O O10 0.750000 0.750000 0.750000
O O11 0.831430 0.788012 0.703731
O O12 0.500000 0.234693 0.750000
O O13 0.589110 0.246396 0.757870
O O14 0.543350 0.227433 0.000000
O O15 0.343713 0.000000 0.750000
O O16 0.359418 0.959190 0.000000
O O17 0.373221 0.230501 0.000000
#
# Coordination Sequence:
#
# PCOD8292840 Si02
#       6
#    16  16  16  16  16  16
#     4   9  16  30  44  54  75 102 125 155 193 234
#     4   9  18  31  43  54  68  91 123 159 198 237
#     4   8  15  25  40  59  77  97 121 150 186 227
#     4  10  18  29  42  57  77 103 130 157 193 232
#     4  10  20  32  43  56  72  95 127 161 202 241
#     4  10  17  25  40  63  81  96 123 156 190 229
#
# _framework density 13.670413999999999
#
# number of rings (size 3 to 8) (size 9 to 14) (size 15 to 20)
#    0.000    2.667    1.667    1.000    0.000    3.000 
#    0.000    1.667    0.000    0.000    0.000    0.000 
#    0.000    0.000    0.000    0.000    0.000    0.833 
#
# Total GULP energy -594717.364794 kJ/mol
# GULP energy per Si atom -12389.945100 kJ/mol
# Density = 1.363930 g / cm^3
# Si number density = 13.670414 Si / 1000 Ang^3
#
#
#
# Elastic Constant Matrix: (Units=GPa)
#
#
# Indices 1 2 3 4 5 6 
#
# 1 114.5422 55.4980 46.5895 0.0000 0.0000 0.0000
# 2 55.4980 53.6076 24.0771 0.0000 0.0000 0.0000
# 3 46.5895 24.0771 52.7434 0.0000 0.0000 0.0000
# 4 0.0000 0.0000 0.0000 14.3076 0.0000 0.0000
# 5 0.0000 0.0000 0.0000 0.0000 21.4790 0.0000
# 6 0.0000 0.0000 0.0000 0.0000 0.0000 20.0719
#
#
#
# Elastic Compliance Matrix: (Units=1/GPa)
#
#
# Indices 1 2 3 4 5 6 
#
# 1 0.021789 -0.017501 -0.011258 0.000000 0.000000 0.000000
# 2 -0.017501 0.037522 -0.001669 0.000000 0.000000 0.000000
# 3 -0.011258 -0.001669 0.029666 0.000000 0.000000 0.000000
# 4 0.000000 0.000000 0.000000 0.069893 0.000000 0.000000
# 5 0.000000 0.000000 0.000000 0.000000 0.046557 0.000000
# 6 0.000000 0.000000 0.000000 0.000000 0.000000 0.049821
#
#
# Mechanical properties :
#
#
# Convention : Reuss Voigt Hill
#
# Bulk Modulus (GPa) = 35.56096 52.58027 44.07061
# Shear Modulus (GPa) = 15.36200 17.48695 16.42447
#
# Velocity S-wave (km/s) = 3.35586 3.58045 3.46997
# Velocity P-wave (km/s) = 6.40978 7.45916 6.95429
#
# Compressibility (1/GPa) = 0.02812073
#
# Stress axis : x y z
#
# Youngs Moduli (GPa) = 45.89445 26.65078 33.70868
#
# Poissons Ratio (x) = 0.46642 0.37948
# Poissons Ratio (y) = 0.80321 0.05627
# Poissons Ratio (z) = 0.51666 0.04449
#
# Static dielectric constant tensor:
#      x y z
#    x 3.101790 0.000000 0.000000 
#    y 0.000000 2.530830 0.000000 
#    z 0.000000 0.000000 2.760560 
# 
# 
# High freq. dielectric constant tensor:
#      x y z
#    x 1.522290 0.000000 0.000000 
#    y 0.000000 1.466770 0.000000 
#    z 0.000000 0.000000 1.531780 
# 
# From -- ./inp_files/8456.got.cif
#   From: 2010.03.12/outbox.cif.g09.slc.cpg/sg72_5_cif.got.tgz:8456.got - 2010.04.16 14:54:00.
