data_PCOD8292627
_publ_section_title
;
Structure prediction by ZEFSAII (Michael W. Deem and Ramdas Pophale) SiO2 
 PCOD8292627
Probable space group: I M M M
;
_chemical_formula_sum "Si O2"
_cell_formula_units_Z 88
_cell_length_a 17.894384
_cell_length_b 29.248756
_cell_length_c 9.714986
_cell_angle_alpha 90.000000
_cell_angle_beta 90.000000
_cell_angle_gamma 90.000000
_cell_volume 5084.711672
_symmetry_space_group_name_H-M "I M M M"
_symmetry_group_IT_number 71
_symmetry_cell_setting 'orthorhombic'
loop_
_space_group_symop_operation_xyz
x,y,z
-x,-y,z
x,-y,-z
-x,y,-z
-x,-y,-z
x,y,-z
-x,y,z
x,-y,z
1/2+x,1/2+y,1/2+z
1/2-x,1/2-y,1/2+z
1/2+x,1/2-y,1/2-z
1/2-x,1/2+y,1/2-z
1/2-x,1/2-y,1/2-z
1/2+x,1/2+y,1/2-z
1/2-x,1/2+y,1/2+z
1/2+x,1/2-y,1/2+z
loop_
_atom_site_type_symbol
_atom_site_label
_atom_site_fract_x
_atom_site_fract_y
_atom_site_fract_z
Si Si1 0.916488 0.302757 0.836376
Si Si2 0.145190 0.396241 0.163979
Si Si3 0.000000 0.551290 0.163995
Si Si4 0.789181 0.948762 0.662987
Si Si5 0.085993 0.879599 0.339998
Si Si6 0.088988 0.796956 0.846305
O O1 0.861917 0.343494 0.784849
O O2 0.883874 0.253042 0.791837
O O3 0.000000 0.310755 0.775916
O O4 0.922451 0.303543 0.000000
O O5 0.219990 0.419564 0.224386
O O6 0.073727 0.423734 0.220431
O O7 0.147213 0.397936 0.000000
O O8 0.000000 0.500000 0.221560
O O9 0.000000 0.551858 0.000000
O O10 0.781132 0.951940 0.500000
O O11 0.866443 0.923936 0.703551
O O12 0.789407 0.000000 0.725885
O O13 0.096578 0.867902 0.500000
O O14 0.117442 0.836049 0.256797
O O15 0.000000 0.890440 0.303996
O O16 0.000000 0.795811 0.849606
O O17 0.119790 0.807118 0.000000
#
# Coordination Sequence:
#
# PCOD8292627 Si02
#       6
#    16  16   8  16  16  16
#     4   8  12  20  35  56  80 107 137 166 200 244
#     4   9  14  21  33  52  79 108 138 170 203 244
#     4   9  14  18  28  48  76 110 141 167 200 245
#     4   9  17  27  38  54  78 108 140 174 211 248
#     4   9  17  29  44  61  82 110 143 175 208 248
#     4   8  14  25  43  64  84 107 137 172 208 246
#
# _framework density 17.306782999999999
#
# number of rings (size 3 to 8) (size 9 to 14) (size 15 to 20)
#    0.000    3.364    0.909    1.636    0.000    2.545 
#    0.000    2.727    0.000    0.545    0.000    2.545 
#    0.000    0.000    0.000    0.182    0.000    5.182 
#
# Total GULP energy -545224.519776 kJ/mol
# GULP energy per Si atom -12391.466359 kJ/mol
# Density = 1.726739 g / cm^3
# Si number density = 17.306783 Si / 1000 Ang^3
#
#
#
# Elastic Constant Matrix: (Units=GPa)
#
#
# Indices 1 2 3 4 5 6 
#
# 1 91.0835 72.3520 17.1044 0.0002 -0.0002 0.0000
# 2 72.3520 175.8453 30.5913 0.0001 0.0000 0.0000
# 3 17.1044 30.5913 19.4025 -0.0002 0.0001 -0.0005
# 4 0.0002 0.0001 -0.0002 16.1102 0.0000 0.0000
# 5 -0.0002 0.0000 0.0001 0.0000 5.7854 0.0002
# 6 0.0000 0.0000 -0.0005 0.0000 0.0002 28.2981
#
#
#
# Elastic Compliance Matrix: (Units=1/GPa)
#
#
# Indices 1 2 3 4 5 6 
#
# 1 0.016704 -0.005941 -0.005359 0.000000 0.000001 0.000000
# 2 -0.005941 0.009949 -0.010449 0.000000 0.000000 0.000000
# 3 -0.005359 -0.010449 0.072739 0.000001 -0.000002 0.000001
# 4 0.000000 0.000000 0.000001 0.062073 0.000000 0.000000
# 5 0.000001 0.000000 -0.000002 0.000000 0.172849 -0.000001
# 6 0.000000 0.000000 0.000001 0.000000 -0.000001 0.035338
#
#
# Mechanical properties :
#
#
# Convention : Reuss Voigt Hill
#
# Bulk Modulus (GPa) = 17.89102 58.49186 38.19144
# Shear Modulus (GPa) = 11.57994 21.12430 16.35212
#
# Velocity S-wave (km/s) = 2.58950 3.49747 3.07716
# Velocity P-wave (km/s) = 4.39326 7.08380 5.89410
#
# Compressibility (1/GPa) = 0.05589397
#
# Stress axis : x y z
#
# Youngs Moduli (GPa) = 59.86466 100.51327 13.74781
#
# Poissons Ratio (x) = 0.59712 0.07368
# Poissons Ratio (y) = 0.35564 0.14365
# Poissons Ratio (z) = 0.32083 1.05027
#
# Static dielectric constant tensor:
#      x y z
#    x 3.141390 0.000000 0.000000 
#    y 0.000000 3.725900 0.000000 
#    z 0.000000 0.000000 2.624010 
# 
# 
# High freq. dielectric constant tensor:
#      x y z
#    x 1.650880 0.000000 0.000000 
#    y 0.000000 1.687690 0.000000 
#    z 0.000000 0.000000 1.585570 
# 
# From -- ./inp_files/22520.got.cif
#   From: 2010.06.25/outbox.cif.g09.slc.cpg/sg71_12_cif.got.tgz:22520.got - 2010.06.28 04:59:45.
