data_PCOD8292725
_publ_section_title
;
Structure prediction by ZEFSAII (Michael W. Deem and Ramdas Pophale) SiO2 
 PCOD8292725
Probable space group: I M M M
;
_chemical_formula_sum "Si O2"
_cell_formula_units_Z 96
_cell_length_a 17.826852
_cell_length_b 22.125065
_cell_length_c 19.045156
_cell_angle_alpha 90.000000
_cell_angle_beta 90.000000
_cell_angle_gamma 90.000000
_cell_volume 7511.795367
_symmetry_space_group_name_H-M "I M M M"
_symmetry_group_IT_number 71
_symmetry_cell_setting 'orthorhombic'
loop_
_space_group_symop_operation_xyz
x,y,z
-x,-y,z
x,-y,-z
-x,y,-z
-x,-y,-z
x,y,-z
-x,y,z
x,-y,z
1/2+x,1/2+y,1/2+z
1/2-x,1/2-y,1/2+z
1/2+x,1/2-y,1/2-z
1/2-x,1/2+y,1/2-z
1/2-x,1/2-y,1/2-z
1/2+x,1/2+y,1/2-z
1/2-x,1/2+y,1/2+z
1/2+x,1/2-y,1/2+z
loop_
_atom_site_type_symbol
_atom_site_label
_atom_site_fract_x
_atom_site_fract_y
_atom_site_fract_z
Si Si1 0.500000 0.568242 0.583907
Si Si2 0.085260 0.429801 0.309920
Si Si3 0.288784 0.929955 0.919066
Si Si4 0.411225 0.884773 0.338752
Si Si5 0.643019 0.361583 0.417023
Si Si6 0.089625 0.500000 0.079319
Si Si7 0.412332 0.767372 0.418736
O O1 0.500000 0.500000 0.611470
O O2 0.500000 0.571136 0.500000
O O3 0.573444 0.601131 0.615034
O O4 0.091754 0.500000 0.288762
O O5 0.137050 0.413201 0.375695
O O6 0.111586 0.390585 0.242837
O O7 0.000000 0.414019 0.331326
O O8 0.220891 0.889309 0.888854
O O9 0.266364 0.000000 0.909884
O O10 0.306402 0.915010 0.000000
O O11 0.500000 0.886764 0.346906
O O12 0.381373 0.821921 0.370826
O O13 0.377267 0.940688 0.382535
O O14 0.640716 0.369508 0.500000
O O15 0.635412 0.291345 0.396320
O O16 0.000000 0.500000 0.082197
O O17 0.119197 0.500000 0.000000
O O18 0.399136 0.784346 0.500000
O O19 0.500000 0.753640 0.405751
#
# Coordination Sequence:
#
# PCOD8292725 Si02
#       7
#     8  16  16  16  16   8  16
#     4   9  14  20  34  52  70  93 119 147 177 211
#     4   9  16  27  40  52  69  93 121 153 188 219
#     4   9  17  27  39  54  70  90 119 156 190 216
#     4   9  15  23  35  51  71  95 121 147 178 211
#     4   9  15  24  35  51  74  95 118 147 179 211
#     4   9  14  20  32  52  73  91 117 152 178 203
#     4   9  15  23  35  52  74 100 123 142 168 207
#
# _framework density 12.779901000000001
#
# number of rings (size 3 to 8) (size 9 to 14) (size 15 to 20)
#    0.000    3.000    1.667    1.000    0.000    4.333 
#    0.000    2.500    0.000    0.000    0.000    0.000 
#    0.000    0.000    0.000    0.000    0.000    0.000 
#
# Total GULP energy -595022.619852 kJ/mol
# GULP energy per Si atom -12396.304580 kJ/mol
# Density = 1.275081 g / cm^3
# Si number density = 12.779901 Si / 1000 Ang^3
#
#
#
# Elastic Constant Matrix: (Units=GPa)
#
#
# Indices 1 2 3 4 5 6 
#
# 1 64.6196 42.2809 38.8424 0.0000 0.0000 0.0000
# 2 42.2809 88.0486 42.2185 0.0000 0.0000 0.0000
# 3 38.8424 42.2185 59.5810 0.0001 0.0000 0.0000
# 4 0.0000 0.0000 0.0001 11.9719 0.0000 0.0000
# 5 0.0000 0.0000 0.0000 0.0000 7.4350 0.0000
# 6 0.0000 0.0000 0.0000 0.0000 0.0000 12.6284
#
#
#
# Elastic Compliance Matrix: (Units=1/GPa)
#
#
# Indices 1 2 3 4 5 6 
#
# 1 0.028129 -0.007141 -0.013278 0.000000 0.000000 0.000000
# 2 -0.007141 0.019015 -0.008818 0.000000 0.000000 0.000000
# 3 -0.013278 -0.008818 0.031689 0.000000 0.000000 0.000000
# 4 0.000000 0.000000 0.000000 0.083529 0.000000 0.000000
# 5 0.000000 0.000000 0.000000 0.000000 0.134500 0.000000
# 6 0.000000 0.000000 0.000000 0.000000 0.000000 0.079186
#
#
# Mechanical properties :
#
#
# Convention : Reuss Voigt Hill
#
# Bulk Modulus (GPa) = 49.12088 50.99255 50.05671
# Shear Modulus (GPa) = 11.32998 12.33422 11.83210
#
# Velocity S-wave (km/s) = 2.98072 3.11002 3.04606
# Velocity P-wave (km/s) = 7.09688 7.27210 7.18503
#
# Compressibility (1/GPa) = 0.02035794
#
# Stress axis : x y z
#
# Youngs Moduli (GPa) = 35.55087 52.59095 31.55696
#
# Poissons Ratio (x) = 0.37554 0.41901
# Poissons Ratio (y) = 0.25386 0.27828
# Poissons Ratio (z) = 0.47204 0.46377
#
# Static dielectric constant tensor:
#      x y z
#    x 2.414660 0.000000 0.000000 
#    y 0.000000 2.695620 0.000000 
#    z 0.000000 0.000000 2.403360 
# 
# 
# High freq. dielectric constant tensor:
#      x y z
#    x 1.451880 0.000000 0.000000 
#    y 0.000000 1.486960 0.000000 
#    z 0.000000 0.000000 1.458100 
# 
# From -- ./inp_files/46336.got.cif
#   From: 2010.06.25/outbox.cif.g09.slc.cpg/sg71_24_cif.got.tgz:46336.got - 2010.06.28 04:59:45.
