data_PCOD8292316
_publ_section_title
;
Structure prediction by ZEFSAII (Michael W. Deem and Ramdas Pophale) SiO2 
 PCOD8292316
Probable space group: I M M M
;
_chemical_formula_sum "Si O2"
_cell_formula_units_Z 72
_cell_length_a 7.720632
_cell_length_b 19.125162
_cell_length_c 23.486365
_cell_angle_alpha 90.000000
_cell_angle_beta 90.000000
_cell_angle_gamma 90.000000
_cell_volume 3467.957616
_symmetry_space_group_name_H-M "I M M M"
_symmetry_group_IT_number 71
_symmetry_cell_setting 'orthorhombic'
loop_
_space_group_symop_operation_xyz
x,y,z
-x,-y,z
x,-y,-z
-x,y,-z
-x,-y,-z
x,y,-z
-x,y,z
x,-y,z
1/2+x,1/2+y,1/2+z
1/2-x,1/2-y,1/2+z
1/2+x,1/2-y,1/2-z
1/2-x,1/2+y,1/2-z
1/2-x,1/2-y,1/2-z
1/2+x,1/2+y,1/2-z
1/2-x,1/2+y,1/2+z
1/2+x,1/2-y,1/2+z
loop_
_atom_site_type_symbol
_atom_site_label
_atom_site_fract_x
_atom_site_fract_y
_atom_site_fract_z
Si Si1 0.195340 0.167939 0.390377
Si Si2 0.205126 0.681770 0.435956
Si Si3 0.203672 0.671843 0.234512
Si Si4 0.000000 0.424198 0.934042
Si Si5 0.793734 0.579063 0.339981
O O1 0.260614 0.245577 0.406670
O O2 0.195774 0.154543 0.323063
O O3 0.323943 0.114369 0.418948
O O4 0.000000 0.155599 0.413154
O O5 0.283174 0.675821 0.500000
O O6 0.277100 0.618943 0.396317
O O7 0.000000 0.677192 0.438967
O O8 0.250000 0.750000 0.250000
O O9 0.270890 0.619510 0.283639
O O10 0.000000 0.662932 0.224222
O O11 0.000000 0.500000 0.903247
O O12 0.000000 0.435698 0.000000
O O13 0.720508 0.500000 0.339811
O O14 0.000000 0.579152 0.340820
#
# Coordination Sequence:
#
# PCOD8292316 Si02
#       5
#    16  16  16   8  16
#     4  11  22  40  65  93 125 163 208 260 317 377
#     4   9  17  31  54  84 117 155 202 249 297 364
#     4  11  20  35  59  89 123 163 210 263 314 371
#     4  11  26  46  66  94 127 161 208 262 321 386
#     4   9  18  31  50  81 120 159 198 249 310 363
#
# _framework density 20.761500000000002
#
# number of rings (size 3 to 8) (size 9 to 14) (size 15 to 20)
#    0.000    1.889    3.333    1.333    0.000    3.111 
#    0.000    3.333    0.000    2.000    0.000    0.000 
#    0.000    4.444    0.000    0.222    0.000    0.000 
#
# Total GULP energy -446338.495414 kJ/mol
# GULP energy per Si atom -12398.291539 kJ/mol
# Density = 2.071425 g / cm^3
# Si number density = 20.761500 Si / 1000 Ang^3
#
#
#
# Elastic Constant Matrix: (Units=GPa)
#
#
# Indices 1 2 3 4 5 6 
#
# 1 65.9133 38.8421 11.8892 0.0000 0.0000 0.0000
# 2 38.8421 194.8521 82.8229 0.0000 0.0000 0.0000
# 3 11.8892 82.8229 160.1459 0.0000 0.0000 0.0000
# 4 0.0000 0.0000 0.0000 33.1228 0.0000 0.0000
# 5 0.0000 0.0000 0.0000 0.0000 18.6265 0.0000
# 6 0.0000 0.0000 0.0000 0.0000 0.0000 -157.4354
#
#
#
# Elastic Compliance Matrix: (Units=1/GPa)
#
#
# Indices 1 2 3 4 5 6 
#
# 1 0.017242 -0.003708 0.000638 0.000000 0.000000 0.000000
# 2 -0.003708 0.007376 -0.003539 0.000000 0.000000 0.000000
# 3 0.000638 -0.003539 0.008027 0.000000 0.000000 0.000000
# 4 0.000000 0.000000 0.000000 0.030191 0.000000 0.000000
# 5 0.000000 0.000000 0.000000 0.000000 0.053687 0.000000
# 6 0.000000 0.000000 0.000000 0.000000 0.000000 -0.006352
#
#
# Mechanical properties :
#
#
# Convention : Reuss Voigt Hill
#
# Bulk Modulus (GPa) = 51.47889 76.44662 63.96275
# Shear Modulus (GPa) = 38.50170 -1.98008 18.26081
#
# Velocity S-wave (km/s) = 4.31103 -0.97765 2.96894
# Velocity P-wave (km/s) = 7.04480 5.96883 6.52902
#
# Compressibility (1/GPa) = 0.01942544
#
# Stress axis : x y z
#
# Youngs Moduli (GPa) = 57.99958 135.58234 124.57461
#
# Poissons Ratio (x) = 0.50274 -0.07944
# Poissons Ratio (y) = 0.21506 0.44089
# Poissons Ratio (z) = -0.03698 0.47985
#
# Static dielectric constant tensor:
#      x y z
#    x 3.471280 0.000000 0.000000 
#    y 0.000000 3.937760 0.000000 
#    z 0.000000 0.000000 4.262510 
# 
# 
# High freq. dielectric constant tensor:
#      x y z
#    x 1.789830 0.000000 0.000000 
#    y 0.000000 1.809030 0.000000 
#    z 0.000000 0.000000 1.824430 
# 
# From -- ./inp_files/57294.got.cif
#   From: 2010.06.25/outbox.cif.g09.slc.cpg/sg71_29_cif.got.tgz:57294.got - 2010.06.28 04:59:45.
