data_PCOD8292524
_publ_section_title
;
Structure prediction by ZEFSAII (Michael W. Deem and Ramdas Pophale) SiO2 
 PCOD8292524
Probable space group: I M M M
;
_chemical_formula_sum "Si O2"
_cell_formula_units_Z 104
_cell_length_a 33.273116
_cell_length_b 7.722287
_cell_length_c 22.176554
_cell_angle_alpha 90.000000
_cell_angle_beta 90.000000
_cell_angle_gamma 90.000000
_cell_volume 5698.144713
_symmetry_space_group_name_H-M "I M M M"
_symmetry_group_IT_number 71
_symmetry_cell_setting 'orthorhombic'
loop_
_space_group_symop_operation_xyz
x,y,z
-x,-y,z
x,-y,-z
-x,y,-z
-x,-y,-z
x,y,-z
-x,y,z
x,-y,z
1/2+x,1/2+y,1/2+z
1/2-x,1/2-y,1/2+z
1/2+x,1/2-y,1/2-z
1/2-x,1/2+y,1/2-z
1/2-x,1/2-y,1/2-z
1/2+x,1/2+y,1/2-z
1/2-x,1/2+y,1/2+z
1/2+x,1/2-y,1/2+z
loop_
_atom_site_type_symbol
_atom_site_label
_atom_site_fract_x
_atom_site_fract_y
_atom_site_fract_z
Si Si1 0.235891 0.191277 0.571348
Si Si2 0.594238 0.293691 0.614647
Si Si3 0.954676 0.793577 0.000000
Si Si4 0.178154 0.204915 0.931521
Si Si5 0.318268 0.000000 0.071936
Si Si6 0.452570 0.301973 0.861289
Si Si7 0.590868 0.000000 0.071446
Si Si8 0.544598 0.705344 0.726144
O O1 0.238609 0.216930 0.500000
O O2 0.280985 0.217693 0.596982
O O3 0.204584 0.330555 0.597841
O O4 0.220381 0.000000 0.588979
O O5 0.592998 0.500000 0.614155
O O6 0.567884 0.222199 0.559142
O O7 0.640267 0.229774 0.607982
O O8 0.575827 0.219448 0.677022
O O9 0.000000 0.721805 0.000000
O O10 0.954406 0.000000 0.000000
O O11 0.181953 0.000000 0.930424
O O12 0.171458 0.269419 0.000000
O O13 0.363594 0.000000 0.096234
O O14 0.318044 0.000000 0.000000
O O15 0.500000 0.285712 0.871202
O O16 0.438757 0.500000 0.873730
O O17 0.441239 0.243286 0.793297
O O18 0.430491 0.174687 0.906894
O O19 0.589579 0.000000 0.000000
O O20 0.500000 0.780888 0.713241
O O21 0.542302 0.500000 0.721542
#
# Coordination Sequence:
#
# PCOD8292524 Si02
#       8
#    16  16   8  16   8  16   8  16
#     4   9  16  27  45  66  93 132 169 200 247 303
#     4   9  14  20  34  61  94 134 178 222 271 309
#     4   9  14  18  26  52  97 139 175 218 271 323
#     4   9  14  22  37  60  96 132 168 218 267 310
#     4   9  18  33  48  73 104 130 157 198 244 306
#     4   9  19  36  56  79 109 143 177 210 241 285
#     4  11  23  36  57  86 114 135 160 196 254 313
#     4   8  14  26  44  65  94 134 181 223 254 290
#
# _framework density 18.251553999999999
#
# number of rings (size 3 to 8) (size 9 to 14) (size 15 to 20)
#    0.000    3.000    1.538    1.615    0.000    3.385 
#    0.000    2.308    1.692    0.000    0.000    1.077 
#    0.000    0.615    0.000    0.000    0.000    0.000 
#
# Total GULP energy -644519.163759 kJ/mol
# GULP energy per Si atom -12394.599303 kJ/mol
# Density = 1.821001 g / cm^3
# Si number density = 18.251554 Si / 1000 Ang^3
#
#
#
# Elastic Constant Matrix: (Units=GPa)
#
#
# Indices 1 2 3 4 5 6 
#
# 1 121.5800 54.0726 49.7472 0.0000 0.0000 0.0000
# 2 54.0726 78.0976 29.1265 0.0000 0.0000 0.0000
# 3 49.7472 29.1265 75.7844 0.0000 0.0000 0.0000
# 4 0.0000 0.0000 0.0000 5.3720 0.0000 0.0000
# 5 0.0000 0.0000 0.0000 0.0000 15.3003 0.0000
# 6 0.0000 0.0000 0.0000 0.0000 0.0000 4.1558
#
#
#
# Elastic Compliance Matrix: (Units=1/GPa)
#
#
# Indices 1 2 3 4 5 6 
#
# 1 0.014152 -0.007393 -0.006448 0.000000 0.000000 0.000000
# 2 -0.007393 0.018810 -0.002376 0.000000 0.000000 0.000000
# 3 -0.006448 -0.002376 0.018341 0.000000 0.000000 0.000000
# 4 0.000000 0.000000 0.000000 0.186150 0.000000 0.000000
# 5 0.000000 0.000000 0.000000 0.000000 0.065358 0.000000
# 6 0.000000 0.000000 0.000000 0.000000 0.000000 0.240629
#
#
# Mechanical properties :
#
#
# Convention : Reuss Voigt Hill
#
# Bulk Modulus (GPa) = 53.00064 60.15052 56.57558
# Shear Modulus (GPa) = 8.58866 14.46665 11.52766
#
# Velocity S-wave (km/s) = 2.17162 2.81842 2.51589
# Velocity P-wave (km/s) = 5.94894 6.60448 6.28527
#
# Compressibility (1/GPa) = 0.01886770
#
# Stress axis : x y z
#
# Youngs Moduli (GPa) = 70.66338 53.16446 54.52222
#
# Poissons Ratio (x) = 0.39307 0.35156
# Poissons Ratio (y) = 0.52244 0.12954
# Poissons Ratio (z) = 0.45564 0.12631
#
# Static dielectric constant tensor:
#      x y z
#    x 3.523040 0.000000 0.000000 
#    y 0.000000 3.134480 0.000000 
#    z 0.000000 0.000000 3.140810 
# 
# 
# High freq. dielectric constant tensor:
#      x y z
#    x 1.706850 0.000000 0.000000 
#    y 0.000000 1.693430 0.000000 
#    z 0.000000 0.000000 1.659600 
# 
# From -- ./inp_files/62336.got.cif
#   From: 2010.06.25/outbox.cif.g09.slc.cpg/sg71_32_cif.got.tgz:62336.got - 2010.06.28 04:59:45.
