data_PCOD8292141
_publ_section_title
;
Structure prediction by ZEFSAII (Michael W. Deem and Ramdas Pophale) SiO2 
 PCOD8292141
Probable space group: I M M M
;
_chemical_formula_sum "Si O2"
_cell_formula_units_Z 112
_cell_length_a 15.021656
_cell_length_b 26.962788
_cell_length_c 13.336375
_cell_angle_alpha 90.000000
_cell_angle_beta 90.000000
_cell_angle_gamma 90.000000
_cell_volume 5401.574968
_symmetry_space_group_name_H-M "I M M M"
_symmetry_group_IT_number 71
_symmetry_cell_setting 'orthorhombic'
loop_
_space_group_symop_operation_xyz
x,y,z
-x,-y,z
x,-y,-z
-x,y,-z
-x,-y,-z
x,y,-z
-x,y,z
x,-y,z
1/2+x,1/2+y,1/2+z
1/2-x,1/2-y,1/2+z
1/2+x,1/2-y,1/2-z
1/2-x,1/2+y,1/2-z
1/2-x,1/2-y,1/2-z
1/2+x,1/2+y,1/2-z
1/2-x,1/2+y,1/2+z
1/2+x,1/2-y,1/2+z
loop_
_atom_site_type_symbol
_atom_site_label
_atom_site_fract_x
_atom_site_fract_y
_atom_site_fract_z
Si Si1 0.595935 0.812758 0.119055
Si Si2 0.598172 0.128782 0.380824
Si Si3 0.712542 0.663899 0.381058
Si Si4 0.627865 0.295476 0.887512
Si Si5 0.400936 0.609060 0.766368
Si Si6 0.252548 0.556637 0.117056
Si Si7 0.171884 0.727561 0.887173
O O1 0.500000 0.837994 0.147965
O O2 0.683744 0.843344 0.154152
O O3 0.599050 0.756812 0.162556
O O4 0.604970 0.807305 0.000000
O O5 0.608264 0.133286 0.500000
O O6 0.500000 0.109337 0.350935
O O7 0.671735 0.090292 0.340254
O O8 0.609715 0.185133 0.334221
O O9 0.704045 0.662473 0.500000
O O10 0.652224 0.620298 0.336621
O O11 0.678481 0.717681 0.336884
O O12 0.586475 0.340173 0.826074
O O13 0.733864 0.300053 0.888306
O O14 0.590242 0.299546 0.000000
O O15 0.500000 0.587999 0.742824
O O16 0.345315 0.568827 0.828540
O O17 0.226524 0.500000 0.138848
O O18 0.267861 0.566314 0.000000
O O19 0.137498 0.736953 0.000000
#
# Coordination Sequence:
#
# PCOD8292141 Si02
#       7
#    16  16  16  16  16  16  16
#     4   8  14  27  49  75 104 143 186 223 264 314
#     4   9  16  29  53  82 111 147 185 214 251 313
#     4   9  20  36  53  75 110 152 186 223 267 313
#     4   9  16  29  48  71 104 141 179 225 268 308
#     4  12  24  35  53  79 104 139 188 232 272 326
#     4  10  22  41  61  81 109 139 171 223 285 336
#     4   8  14  28  50  74 107 150 186 215 252 303
#
# _framework density 20.734693
#
# number of rings (size 3 to 8) (size 9 to 14) (size 15 to 20)
#    0.000    2.714    1.429    2.571    0.000    5.429 
#    0.000    4.286    0.000    0.429    0.000    1.000 
#    0.000    0.000    0.000    4.857    0.000    0.143 
#
# Total GULP energy -693886.010149 kJ/mol
# GULP energy per Si atom -12390.821610 kJ/mol
# Density = 2.068750 g / cm^3
# Si number density = 20.734693 Si / 1000 Ang^3
#
#
#
# Elastic Constant Matrix: (Units=GPa)
#
#
# Indices 1 2 3 4 5 6 
#
# 1 156.0131 43.5594 21.5927 0.0000 0.0000 0.0000
# 2 43.5594 73.7209 20.6049 0.0001 0.0000 0.0000
# 3 21.5927 20.6049 31.4989 0.0005 0.0000 0.0000
# 4 0.0000 0.0001 0.0005 24.3479 0.0000 0.0000
# 5 0.0000 0.0000 0.0000 0.0000 17.9528 0.0000
# 6 0.0000 0.0000 0.0000 0.0000 0.0000 14.0699
#
#
#
# Elastic Compliance Matrix: (Units=1/GPa)
#
#
# Indices 1 2 3 4 5 6 
#
# 1 0.007885 -0.003852 -0.002885 0.000000 0.000000 0.000000
# 2 -0.003852 0.018482 -0.009449 0.000000 0.000000 0.000000
# 3 -0.002885 -0.009449 0.039906 -0.000001 0.000000 0.000000
# 4 0.000000 0.000000 -0.000001 0.041071 0.000000 0.000000
# 5 0.000000 0.000000 0.000000 0.000000 0.055702 0.000000
# 6 0.000000 0.000000 0.000000 0.000000 0.000000 0.071074
#
#
# Mechanical properties :
#
#
# Convention : Reuss Voigt Hill
#
# Bulk Modulus (GPa) = 29.49883 48.08297 38.79090
# Shear Modulus (GPa) = 17.99909 22.97251 20.48580
#
# Velocity S-wave (km/s) = 2.94949 3.33216 3.14665
# Velocity P-wave (km/s) = 5.08498 6.16801 5.65250
#
# Compressibility (1/GPa) = 0.03389965
#
# Stress axis : x y z
#
# Youngs Moduli (GPa) = 126.82934 54.10682 25.05904
#
# Poissons Ratio (x) = 0.20844 0.07229
# Poissons Ratio (y) = 0.48860 0.23678
# Poissons Ratio (z) = 0.36589 0.51126
#
# Static dielectric constant tensor:
#      x y z
#    x 3.955520 0.000000 0.000000 
#    y 0.000000 3.321790 0.000000 
#    z 0.000000 0.000000 3.596940 
# 
# 
# High freq. dielectric constant tensor:
#      x y z
#    x 1.820720 0.000000 0.000000 
#    y 0.000000 1.750870 0.000000 
#    z 0.000000 0.000000 1.803260 
# 
# From -- ./inp_files/35123.got.cif
#   From: 2010.06.25/outbox.cif.g09.slc.cpg/sg71_18_cif.got.tgz:35123.got - 2010.06.28 04:59:45.
