data_PCOD8292779
_publ_section_title
;
Structure prediction by ZEFSAII (Michael W. Deem and Ramdas Pophale) SiO2 
 PCOD8292779
Probable space group: I M M M
;
_chemical_formula_sum "Si O2"
_cell_formula_units_Z 80
_cell_length_a 26.985579
_cell_length_b 8.111283
_cell_length_c 19.584923
_cell_angle_alpha 90.000000
_cell_angle_beta 90.000000
_cell_angle_gamma 90.000000
_cell_volume 4286.898127
_symmetry_space_group_name_H-M "I M M M"
_symmetry_group_IT_number 71
_symmetry_cell_setting 'orthorhombic'
loop_
_space_group_symop_operation_xyz
x,y,z
-x,-y,z
x,-y,-z
-x,y,-z
-x,-y,-z
x,y,-z
-x,y,z
x,-y,z
1/2+x,1/2+y,1/2+z
1/2-x,1/2-y,1/2+z
1/2+x,1/2-y,1/2-z
1/2-x,1/2+y,1/2-z
1/2-x,1/2-y,1/2-z
1/2+x,1/2+y,1/2-z
1/2-x,1/2+y,1/2+z
1/2+x,1/2-y,1/2+z
loop_
_atom_site_type_symbol
_atom_site_label
_atom_site_fract_x
_atom_site_fract_y
_atom_site_fract_z
Si Si1 0.702149 0.310137 0.679605
Si Si2 0.384019 0.314391 0.580022
Si Si3 0.687988 0.808408 0.822721
Si Si4 0.605028 0.806440 0.923258
Si Si5 0.055025 0.500000 0.918787
Si Si6 0.500000 0.686121 0.919221
O O1 0.708218 0.500000 0.699829
O O2 0.669562 0.284753 0.612551
O O3 0.674799 0.222710 0.743380
O O4 0.756733 0.234154 0.664338
O O5 0.376301 0.296903 0.500000
O O6 0.404229 0.500000 0.598110
O O7 0.419805 0.169621 0.607616
O O8 0.647006 0.727169 0.873348
O O9 0.687870 0.000000 0.838939
O O10 0.550505 0.769685 0.891830
O O11 0.611818 0.000000 0.927164
O O12 0.610786 0.730845 0.000000
O O13 0.000000 0.500000 0.888349
O O14 0.054317 0.500000 0.000000
O O15 0.500000 0.500000 0.893505
O O16 0.500000 0.703424 0.000000
#
# Coordination Sequence:
#
# PCOD8292779 Si02
#       6
#    16  16  16  16   8   8
#     4   9  18  32  49  71  99 131 163 199 248 301
#     4   9  18  32  52  77 103 133 168 209 254 298
#     4   9  18  31  49  72  96 129 166 200 246 298
#     4   9  17  30  49  72  96 124 162 204 242 287
#     4   9  18  32  52  78 104 132 167 206 254 306
#     4   9  17  29  47  69  95 127 158 195 246 293
#
# _framework density 18.661511999999998
#
# number of rings (size 3 to 8) (size 9 to 14) (size 15 to 20)
#    0.000    3.000    0.000    0.300    1.400    3.200 
#    0.000    6.000    2.200    0.000    0.000    0.000 
#    0.000    0.000    0.000    0.000    0.000    0.000 
#
# Total GULP energy -495666.961581 kJ/mol
# GULP energy per Si atom -12391.674040 kJ/mol
# Density = 1.861904 g / cm^3
# Si number density = 18.661512 Si / 1000 Ang^3
#
#
#
# Elastic Constant Matrix: (Units=GPa)
#
#
# Indices 1 2 3 4 5 6 
#
# 1 148.3019 44.5155 65.6303 0.0000 0.0000 0.0000
# 2 44.5155 69.0463 22.8613 0.0000 0.0000 0.0000
# 3 65.6303 22.8613 60.0025 0.0000 0.0000 0.0000
# 4 0.0000 0.0000 0.0000 18.6251 0.0000 0.0000
# 5 0.0000 0.0000 0.0000 0.0000 22.3767 0.0000
# 6 0.0000 0.0000 0.0000 0.0000 0.0000 23.7947
#
#
#
# Elastic Compliance Matrix: (Units=1/GPa)
#
#
# Indices 1 2 3 4 5 6 
#
# 1 0.014244 -0.004606 -0.013825 0.000000 0.000000 0.000000
# 2 -0.004606 0.018063 -0.001844 0.000000 0.000000 0.000000
# 3 -0.013825 -0.001844 0.032490 0.000000 0.000000 0.000000
# 4 0.000000 0.000000 0.000000 0.053691 0.000000 0.000000
# 5 0.000000 0.000000 0.000000 0.000000 0.044689 0.000000
# 6 0.000000 0.000000 0.000000 0.000000 0.000000 0.042026
#
#
# Mechanical properties :
#
#
# Convention : Reuss Voigt Hill
#
# Bulk Modulus (GPa) = 41.24219 60.37387 50.80803
# Shear Modulus (GPa) = 19.69783 22.58222 21.14003
#
# Velocity S-wave (km/s) = 3.25242 3.48242 3.36938
# Velocity P-wave (km/s) = 6.02100 6.97079 6.51323
#
# Compressibility (1/GPa) = 0.02424701
#
# Stress axis : x y z
#
# Youngs Moduli (GPa) = 70.20737 55.36143 30.77871
#
# Poissons Ratio (x) = 0.25498 0.42550
# Poissons Ratio (y) = 0.32336 0.05677
# Poissons Ratio (z) = 0.97059 0.10211
#
# Static dielectric constant tensor:
#      x y z
#    x 3.691580 0.000000 0.000000 
#    y 0.000000 3.453710 0.000000 
#    z 0.000000 0.000000 3.280630 
# 
# 
# High freq. dielectric constant tensor:
#      x y z
#    x 1.724590 0.000000 0.000000 
#    y 0.000000 1.718320 0.000000 
#    z 0.000000 0.000000 1.693580 
# 
# From -- ./inp_files/14755.got.cif
#   From: 2010.06.25/outbox.cif.g09.slc.cpg/sg71_8_cif.got.tgz:14755.got - 2010.06.28 04:59:45.
