data_PCOD8292692
_publ_section_title
;
Structure prediction by ZEFSAII (Michael W. Deem and Ramdas Pophale) SiO2 
 PCOD8292692
Probable space group: I M M M
;
_chemical_formula_sum "Si O2"
_cell_formula_units_Z 80
_cell_length_a 18.528436
_cell_length_b 13.419793
_cell_length_c 20.538349
_cell_angle_alpha 90.000000
_cell_angle_beta 90.000000
_cell_angle_gamma 90.000000
_cell_volume 5106.814796
_symmetry_space_group_name_H-M "I M M M"
_symmetry_group_IT_number 71
_symmetry_cell_setting 'orthorhombic'
loop_
_space_group_symop_operation_xyz
x,y,z
-x,-y,z
x,-y,-z
-x,y,-z
-x,-y,-z
x,y,-z
-x,y,z
x,-y,z
1/2+x,1/2+y,1/2+z
1/2-x,1/2-y,1/2+z
1/2+x,1/2-y,1/2-z
1/2-x,1/2+y,1/2-z
1/2-x,1/2-y,1/2-z
1/2+x,1/2+y,1/2-z
1/2-x,1/2+y,1/2+z
1/2+x,1/2-y,1/2+z
loop_
_atom_site_type_symbol
_atom_site_label
_atom_site_fract_x
_atom_site_fract_y
_atom_site_fract_z
Si Si1 0.194070 0.887016 0.239106
Si Si2 0.416874 0.885059 0.925901
Si Si3 0.584762 0.753123 0.688988
Si Si4 0.834439 0.699069 0.309465
Si Si5 0.085629 0.610984 0.927747
O O1 0.127958 0.851905 0.192154
O O2 0.195977 0.813051 0.302227
O O3 0.269126 0.878471 0.200029
O O4 0.181224 0.000000 0.261802
O O5 0.500000 0.854416 0.917703
O O6 0.368663 0.815195 0.880211
O O7 0.406093 0.000000 0.906103
O O8 0.391904 0.867363 0.000000
O O9 0.500000 0.731589 0.686228
O O10 0.604777 0.818561 0.753275
O O11 0.614310 0.811816 0.625818
O O12 0.116008 0.500000 0.913217
O O13 0.000000 0.607290 0.923912
O O14 0.110331 0.645674 0.000000
#
# Coordination Sequence:
#
# PCOD8292692 Si02
#       5
#    16  16  16  16  16
#     4   9  19  33  48  67  94 126 157 194 239 282
#     4   9  17  29  48  75 103 128 156 199 252 294
#     4   9  17  29  46  71  92 118 158 195 233 279
#     4   9  18  32  49  70  91 125 159 198 235 285
#     4   8  14  25  41  63  92 120 144 180 232 277
#
# _framework density 15.665343
#
# number of rings (size 3 to 8) (size 9 to 14) (size 15 to 20)
#    1.200    2.000    0.000    2.400    0.000    2.000 
#    0.000    3.000    0.000    2.400    0.000    4.200 
#    0.000    0.000    0.000    0.000    0.000    0.000 
#
# Total GULP energy -495552.412252 kJ/mol
# GULP energy per Si atom -12388.810306 kJ/mol
# Density = 1.562969 g / cm^3
# Si number density = 15.665343 Si / 1000 Ang^3
#
#
#
# Elastic Constant Matrix: (Units=GPa)
#
#
# Indices 1 2 3 4 5 6 
#
# 1 64.2344 27.5252 32.2844 0.0000 0.0000 0.0000
# 2 27.5252 88.3821 41.7295 0.0000 0.0000 0.0000
# 3 32.2844 41.7295 94.4288 0.0000 0.0000 0.0000
# 4 0.0000 0.0000 0.0000 23.7006 0.0000 0.0000
# 5 0.0000 0.0000 0.0000 0.0000 20.0509 0.0000
# 6 0.0000 0.0000 0.0000 0.0000 0.0000 19.0641
#
#
#
# Elastic Compliance Matrix: (Units=1/GPa)
#
#
# Indices 1 2 3 4 5 6 
#
# 1 0.019730 -0.003740 -0.005093 0.000000 0.000000 0.000000
# 2 -0.003740 0.015007 -0.005353 0.000000 0.000000 0.000000
# 3 -0.005093 -0.005353 0.014697 0.000000 0.000000 0.000000
# 4 0.000000 0.000000 0.000000 0.042193 0.000000 0.000000
# 5 0.000000 0.000000 0.000000 0.000000 0.049873 0.000000
# 6 0.000000 0.000000 0.000000 0.000000 0.000000 0.052455
#
#
# Mechanical properties :
#
#
# Convention : Reuss Voigt Hill
#
# Bulk Modulus (GPa) = 47.47897 50.01370 48.74634
# Shear Modulus (GPa) = 21.80103 22.26354 22.03229
#
# Velocity S-wave (km/s) = 3.73456 3.77397 3.75432
# Velocity P-wave (km/s) = 6.99786 7.14045 7.06952
#
# Compressibility (1/GPa) = 0.02106196
#
# Stress axis : x y z
#
# Youngs Moduli (GPa) = 50.68340 66.63688 68.04235
#
# Poissons Ratio (x) = 0.24923 0.34653
# Poissons Ratio (y) = 0.18956 0.36423
# Poissons Ratio (z) = 0.25812 0.35670
#
# Static dielectric constant tensor:
#      x y z
#    x 2.801610 0.000000 0.000000 
#    y 0.000000 2.760310 0.000000 
#    z 0.000000 0.000000 2.928630 
# 
# 
# High freq. dielectric constant tensor:
#      x y z
#    x 1.590780 0.000000 0.000000 
#    y 0.000000 1.578290 0.000000 
#    z 0.000000 0.000000 1.588730 
# 
# From -- ./inp_files/54004.got.cif
#   From: 2010.06.25/outbox.cif.g09.slc.cpg/sg71_28_cif.got.tgz:54004.got - 2010.06.28 04:59:45.
