data_PCOD8292858
_publ_section_title
;
Structure prediction by ZEFSAII (Michael W. Deem and Ramdas Pophale) SiO2 
 PCOD8292858
Probable space group: I B A M
;
_chemical_formula_sum "Si O2"
_cell_formula_units_Z 80
_cell_length_a 18.372158
_cell_length_b 26.099517
_cell_length_c 8.579108
_cell_angle_alpha 90.000000
_cell_angle_beta 90.000000
_cell_angle_gamma 90.000000
_cell_volume 4113.720463
_symmetry_space_group_name_H-M "I B A M"
_symmetry_group_IT_number 72
_symmetry_cell_setting 'orthorhombic'
loop_
_space_group_symop_operation_xyz
x,y,z
-x,-y,z
x,-y,1/2-z
-x,y,1/2-z
-x,-y,-z
x,y,-z
-x,y,1/2+z
x,-y,1/2+z
1/2+x,1/2+y,1/2+z
1/2-x,1/2-y,1/2+z
1/2+x,1/2-y,-z
1/2-x,1/2+y,-z
1/2-x,1/2-y,1/2-z
1/2+x,1/2+y,1/2-z
1/2-x,1/2+y,z
1/2+x,1/2-y,z
loop_
_atom_site_type_symbol
_atom_site_label
_atom_site_fract_x
_atom_site_fract_y
_atom_site_fract_z
Si Si1 0.856215 0.448104 0.182266
Si Si2 0.808487 0.161239 0.818285
Si Si3 0.422893 0.742057 0.684765
Si Si4 0.356250 0.158042 0.684654
Si Si5 0.197466 0.950737 0.182375
O O1 0.893667 0.500000 0.250000
O O2 0.888203 0.397100 0.263883
O O3 0.770952 0.450206 0.218564
O O4 0.871068 0.444853 0.000000
O O5 0.861918 0.203450 0.743476
O O6 0.726474 0.165581 0.750759
O O7 0.841619 0.103984 0.787820
O O8 0.803181 0.172046 0.000000
O O9 0.500000 0.723643 0.750000
O O10 0.424677 0.739394 0.500000
O O11 0.407028 0.799323 0.739721
O O12 0.359430 0.162240 0.500000
O O13 0.151860 0.000000 0.250000
O O14 0.215329 0.957363 0.000000
#
# Coordination Sequence:
#
# PCOD8292858 Si02
#       5
#    16  16  16  16  16
#     4  10  17  27  45  73 105 136 165 202 247 297
#     4   8  17  32  52  75 103 133 168 210 254 299
#     4  11  22  37  53  73 100 135 172 212 257 306
#     4  10  19  34  54  78 103 132 168 212 256 301
#     4   9  15  26  44  71 102 132 163 204 252 301
#
# _framework density 19.447116999999999
#
# number of rings (size 3 to 8) (size 9 to 14) (size 15 to 20)
#    0.000    2.400    0.000    6.600    0.000    0.000 
#    0.000   11.000    0.000    1.200    0.000    8.400 
#    0.000    0.000    0.000    0.000    0.000    0.000 
#
# Total GULP energy -495690.131322 kJ/mol
# GULP energy per Si atom -12392.253283 kJ/mol
# Density = 1.940285 g / cm^3
# Si number density = 19.447117 Si / 1000 Ang^3
#
#
#
# Elastic Constant Matrix: (Units=GPa)
#
#
# Indices 1 2 3 4 5 6 
#
# 1 33.0861 9.2459 13.0518 0.0000 0.0000 0.0000
# 2 9.2459 109.3066 17.3123 0.0000 0.0000 0.0000
# 3 13.0518 17.3123 71.2722 0.0000 0.0000 0.0002
# 4 0.0000 0.0000 0.0000 30.2062 0.0000 0.0000
# 5 0.0000 0.0000 0.0000 0.0000 17.9026 0.0001
# 6 0.0000 0.0000 0.0002 0.0000 0.0001 86.7011
#
#
#
# Elastic Compliance Matrix: (Units=1/GPa)
#
#
# Indices 1 2 3 4 5 6 
#
# 1 0.032955 -0.001905 -0.005572 0.000000 0.000000 0.000000
# 2 -0.001905 0.009625 -0.001989 0.000000 0.000000 0.000000
# 3 -0.005572 -0.001989 0.015534 0.000000 0.000000 0.000000
# 4 0.000000 0.000000 0.000000 0.033106 0.000000 0.000000
# 5 0.000000 0.000000 0.000000 0.000000 0.055858 0.000000
# 6 0.000000 0.000000 0.000000 0.000000 0.000000 0.011534
#
#
# Mechanical properties :
#
#
# Convention : Reuss Voigt Hill
#
# Bulk Modulus (GPa) = 25.52236 32.54277 29.03257
# Shear Modulus (GPa) = 26.23242 38.56565 32.39904
#
# Velocity S-wave (km/s) = 3.67674 4.45804 4.08610
# Velocity P-wave (km/s) = 5.58364 6.57792 6.10107
#
# Compressibility (1/GPa) = 0.03918132
#
# Stress axis : x y z
#
# Youngs Moduli (GPa) = 30.34479 103.89890 64.37389
#
# Poissons Ratio (x) = 0.19793 0.35870
# Poissons Ratio (y) = 0.05781 0.12804
# Poissons Ratio (z) = 0.16908 0.20666
#
# Static dielectric constant tensor:
#      x y z
#    x 3.183450 0.000000 0.000000 
#    y 0.000000 4.424730 0.000000 
#    z 0.000000 0.000000 3.399690 
# 
# 
# High freq. dielectric constant tensor:
#      x y z
#    x 1.692160 0.000000 0.000000 
#    y 0.000000 1.787630 0.000000 
#    z 0.000000 0.000000 1.751300 
# 
# From -- ./inp_files/4786.got.cif
#   From: 2010.03.12/outbox.cif.g09.slc.cpg/sg72_3_cif.got.tgz:4786.got - 2010.04.16 14:54:00.
