data_PCOD8292814
_publ_section_title
;
Structure prediction by ZEFSAII (Michael W. Deem and Ramdas Pophale) SiO2 
 PCOD8292814
Probable space group: I B A M
;
_chemical_formula_sum "Si O2"
_cell_formula_units_Z 72
_cell_length_a 5.240198
_cell_length_b 34.423998
_cell_length_c 26.840814
_cell_angle_alpha 90.000000
_cell_angle_beta 90.000000
_cell_angle_gamma 90.000000
_cell_volume 4841.775934
_symmetry_space_group_name_H-M "I B A M"
_symmetry_group_IT_number 72
_symmetry_cell_setting 'orthorhombic'
loop_
_space_group_symop_operation_xyz
x,y,z
-x,-y,z
x,-y,1/2-z
-x,y,1/2-z
-x,-y,-z
x,y,-z
-x,y,1/2+z
x,-y,1/2+z
1/2+x,1/2+y,1/2+z
1/2-x,1/2-y,1/2+z
1/2+x,1/2-y,-z
1/2-x,1/2+y,-z
1/2-x,1/2-y,1/2-z
1/2+x,1/2+y,1/2-z
1/2-x,1/2+y,z
1/2+x,1/2-y,z
loop_
_atom_site_type_symbol
_atom_site_label
_atom_site_fract_x
_atom_site_fract_y
_atom_site_fract_z
Si Si1 0.977899 0.724669 0.000000
Si Si2 0.500253 0.454171 0.134981
Si Si3 0.503677 0.389171 0.440390
Si Si4 0.496380 0.849724 0.555064
Si Si5 0.500290 0.954069 0.305532
O O1 0.000610 0.697440 0.950494
O O2 0.699886 0.743794 0.000000
O O3 0.500000 0.500000 0.123924
O O4 0.499689 0.432519 0.081875
O O5 0.253231 0.440497 0.165784
O O6 0.748078 0.440478 0.165535
O O7 0.503973 0.391696 0.500000
O O8 0.748489 0.365773 0.418617
O O9 0.261442 0.364941 0.418885
O O10 0.496829 0.868695 0.500000
O O11 0.500000 0.935830 0.250000
O O12 0.500000 0.000000 0.301138
#
# Coordination Sequence:
#
# PCOD8292814 Si02
#       5
#     8  16  16  16  16
#     4  10  16  26  44  64  79 100 147 184 194 232
#     4  10  19  28  43  63  78 107 153 184 213 249
#     4  10  17  30  41  55  86 118 145 175 199 249
#     4   8  17  27  40  57  79 112 138 168 201 251
#     4   9  17  30  44  59  79  99 131 188 239 267
#
# _framework density 14.870577000000001
#
# number of rings (size 3 to 8) (size 9 to 14) (size 15 to 20)
#    0.667    2.000    0.000    3.333    0.000    3.111 
#    0.000    0.000    0.000    8.000    0.000    0.000 
#    0.000    0.000    0.000    0.000    0.000  280.000 
#
# Total GULP energy -446030.613224 kJ/mol
# GULP energy per Si atom -12389.739256 kJ/mol
# Density = 1.483673 g / cm^3
# Si number density = 14.870577 Si / 1000 Ang^3
#
#
#
# Elastic Constant Matrix: (Units=GPa)
#
#
# Indices 1 2 3 4 5 6 
#
# 1 142.3636 32.1769 26.8280 0.0000 0.0000 0.0000
# 2 32.1769 65.9817 25.3514 0.0000 0.0000 0.0000
# 3 26.8280 25.3514 39.8520 0.0000 0.0000 0.0000
# 4 0.0000 0.0000 0.0000 4.6479 0.0000 0.0000
# 5 0.0000 0.0000 0.0000 0.0000 11.3018 0.0000
# 6 0.0000 0.0000 0.0000 0.0000 0.0000 17.7831
#
#
#
# Elastic Compliance Matrix: (Units=1/GPa)
#
#
# Indices 1 2 3 4 5 6 
#
# 1 0.008353 -0.002532 -0.004012 0.000000 0.000000 0.000000
# 2 -0.002532 0.020826 -0.011544 0.000000 0.000000 0.000000
# 3 -0.004012 -0.011544 0.035137 0.000000 0.000000 0.000000
# 4 0.000000 0.000000 0.000000 0.215149 0.000000 0.000000
# 5 0.000000 0.000000 0.000000 0.000000 0.088482 0.000000
# 6 0.000000 0.000000 0.000000 0.000000 0.000000 0.056233
#
#
# Mechanical properties :
#
#
# Convention : Reuss Voigt Hill
#
# Bulk Modulus (GPa) = 35.53652 46.32330 40.92991
# Shear Modulus (GPa) = 10.64430 17.66929 14.15680
#
# Velocity S-wave (km/s) = 2.67834 3.45077 3.08880
# Velocity P-wave (km/s) = 5.78911 6.86263 6.34860
#
# Compressibility (1/GPa) = 0.02814007
#
# Stress axis : x y z
#
# Youngs Moduli (GPa) = 119.72338 48.01792 28.45976
#
# Poissons Ratio (x) = 0.12156 0.11419
# Poissons Ratio (y) = 0.30309 0.32853
# Poissons Ratio (z) = 0.48038 0.55430
#
# Static dielectric constant tensor:
#      x y z
#    x 3.280080 0.000000 0.000000 
#    y 0.000000 2.575740 0.000000 
#    z 0.000000 0.000000 2.581590 
# 
# 
# High freq. dielectric constant tensor:
#      x y z
#    x 1.600580 0.000000 0.000000 
#    y 0.000000 1.536620 0.000000 
#    z 0.000000 0.000000 1.522810 
# 
# From -- ./inp_files/41509.got.cif
#   From: 2010.03.12/outbox.cif.g09.slc.cpg/sg72_21_cif.got.tgz:41509.got - 2010.04.16 14:54:00.
