data_PCOD8292820
_publ_section_title
;
Structure prediction by ZEFSAII (Michael W. Deem and Ramdas Pophale) SiO2 
 PCOD8292820
Probable space group: I B A M
;
_chemical_formula_sum "Si O2"
_cell_formula_units_Z 128
_cell_length_a 17.865652
_cell_length_b 25.586825
_cell_length_c 17.237749
_cell_angle_alpha 90.000000
_cell_angle_beta 90.000000
_cell_angle_gamma 90.000000
_cell_volume 7879.811377
_symmetry_space_group_name_H-M "I B A M"
_symmetry_group_IT_number 72
_symmetry_cell_setting 'orthorhombic'
loop_
_space_group_symop_operation_xyz
x,y,z
-x,-y,z
x,-y,1/2-z
-x,y,1/2-z
-x,-y,-z
x,y,-z
-x,y,1/2+z
x,-y,1/2+z
1/2+x,1/2+y,1/2+z
1/2-x,1/2-y,1/2+z
1/2+x,1/2-y,-z
1/2-x,1/2+y,-z
1/2-x,1/2-y,1/2-z
1/2+x,1/2+y,1/2-z
1/2-x,1/2+y,z
1/2+x,1/2-y,z
loop_
_atom_site_type_symbol
_atom_site_label
_atom_site_fract_x
_atom_site_fract_y
_atom_site_fract_z
Si Si1 0.103542 0.278775 0.913754
Si Si2 0.050549 0.610579 0.178251
Si Si3 0.423055 0.293496 0.719681
Si Si4 0.588315 0.100576 0.909018
Si Si5 0.722595 0.653419 0.760374
Si Si6 0.226249 0.211103 0.415106
Si Si7 0.177058 0.441903 0.768730
Si Si8 0.144787 0.708108 0.172232
O O1 0.062602 0.234331 0.863279
O O2 0.094085 0.338506 0.884132
O O3 0.190806 0.265880 0.911200
O O4 0.069845 0.274295 0.000000
O O5 0.110172 0.568334 0.207912
O O6 0.094502 0.660091 0.143181
O O7 0.000000 0.629691 0.250000
O O8 0.997457 0.584573 0.112203
O O9 0.500000 0.320141 0.750000
O O10 0.357187 0.337268 0.717573
O O11 0.403936 0.246419 0.776455
O O12 0.647229 0.067696 0.856887
O O13 0.605572 0.090909 0.000000
O O14 0.712049 0.666624 0.851232
O O15 0.750273 0.593914 0.752184
O O16 0.784888 0.691377 0.724767
O O17 0.210504 0.186380 0.500000
O O18 0.172922 0.261165 0.403261
O O19 0.204533 0.500000 0.750000
#
# Coordination Sequence:
#
# PCOD8292820 Si02
#       8
#    16  16  16  16  16  16  16  16
#     4  10  17  28  45  70  99 130 157 179 217 272
#     4   9  18  30  46  68  96 128 157 186 222 273
#     4  11  18  28  46  70  96 128 158 190 228 277
#     4  10  19  31  49  71  99 126 151 186 233 280
#     4  10  18  32  47  66  92 119 162 200 233 274
#     4  10  17  26  44  68  93 124 156 189 222 261
#     4  10  20  35  53  67  83 118 165 205 240 280
#     4  10  16  28  44  66  97 127 159 184 212 269
#
# _framework density 16.244043000000001
#
# number of rings (size 3 to 8) (size 9 to 14) (size 15 to 20)
#    0.000    2.000    3.750    3.375    0.000    2.750 
#    0.000    5.000    0.000    1.875    0.000    0.000 
#    0.000    0.000    0.000    6.750    0.000    0.000 
#
# Total GULP energy -793252.183842 kJ/mol
# GULP energy per Si atom -12394.565373 kJ/mol
# Density = 1.620707 g / cm^3
# Si number density = 16.244043 Si / 1000 Ang^3
#
#
#
# Elastic Constant Matrix: (Units=GPa)
#
#
# Indices 1 2 3 4 5 6 
#
# 1 70.9236 32.7467 18.3968 0.0001 0.0000 0.0000
# 2 32.7467 78.2071 31.1865 0.0003 0.0000 0.0001
# 3 18.3968 31.1865 75.9156 0.0006 0.0001 0.0001
# 4 0.0001 0.0003 0.0006 14.4079 0.0000 0.0001
# 5 0.0000 0.0000 0.0001 0.0000 14.5043 0.0000
# 6 0.0000 0.0001 0.0001 0.0001 0.0000 12.2037
#
#
#
# Elastic Compliance Matrix: (Units=1/GPa)
#
#
# Indices 1 2 3 4 5 6 
#
# 1 0.017617 -0.006786 -0.001482 0.000000 0.000000 0.000000
# 2 -0.006786 0.017905 -0.005711 0.000000 0.000000 0.000000
# 3 -0.001482 -0.005711 0.015878 -0.000001 0.000000 0.000000
# 4 0.000000 0.000000 -0.000001 0.069407 0.000000 0.000000
# 5 0.000000 0.000000 0.000000 0.000000 0.068945 0.000000
# 6 0.000000 0.000000 0.000000 0.000000 0.000000 0.081942
#
#
# Mechanical properties :
#
#
# Convention : Reuss Voigt Hill
#
# Bulk Modulus (GPa) = 42.65647 43.30070 42.97859
# Shear Modulus (GPa) = 16.26200 17.73760 16.99980
#
# Velocity S-wave (km/s) = 3.16746 3.30804 3.23851
# Velocity P-wave (km/s) = 6.30030 6.42690 6.36392
#
# Compressibility (1/GPa) = 0.02344310
#
# Stress axis : x y z
#
# Youngs Moduli (GPa) = 56.76305 55.84923 62.98127
#
# Poissons Ratio (x) = 0.37898 0.09331
# Poissons Ratio (y) = 0.38518 0.35970
# Poissons Ratio (z) = 0.08410 0.31897
#
# Static dielectric constant tensor:
#      x y z
#    x 3.154220 0.000000 0.000000 
#    y 0.000000 2.720210 0.000000 
#    z 0.000000 0.000000 3.141800 
# 
# 
# High freq. dielectric constant tensor:
#      x y z
#    x 1.617730 0.000000 0.000000 
#    y 0.000000 1.579120 0.000000 
#    z 0.000000 0.000000 1.620780 
# 
# From -- ./inp_files/32073.got.cif
#   From: 2010.03.12/outbox.cif.g09.slc.cpg/sg72_17_cif.got.tgz:32073.got - 2010.04.16 14:54:00.
