data_PCOD8292088
_publ_section_title
;
Structure prediction by ZEFSAII (Michael W. Deem and Ramdas Pophale) SiO2 
 PCOD8292088
Probable space group: I M M M
;
_chemical_formula_sum "Si O2"
_cell_formula_units_Z 64
_cell_length_a 18.448455
_cell_length_b 12.857005
_cell_length_c 13.213484
_cell_angle_alpha 90.000000
_cell_angle_beta 90.000000
_cell_angle_gamma 90.000000
_cell_volume 3134.131087
_symmetry_space_group_name_H-M "I M M M"
_symmetry_group_IT_number 71
_symmetry_cell_setting 'orthorhombic'
loop_
_space_group_symop_operation_xyz
x,y,z
-x,-y,z
x,-y,-z
-x,y,-z
-x,-y,-z
x,y,-z
-x,y,z
x,-y,z
1/2+x,1/2+y,1/2+z
1/2-x,1/2-y,1/2+z
1/2+x,1/2-y,1/2-z
1/2-x,1/2+y,1/2-z
1/2-x,1/2-y,1/2-z
1/2+x,1/2+y,1/2-z
1/2-x,1/2+y,1/2+z
1/2+x,1/2-y,1/2+z
loop_
_atom_site_type_symbol
_atom_site_label
_atom_site_fract_x
_atom_site_fract_y
_atom_site_fract_z
Si Si1 0.337020 0.189172 0.695060
Si Si2 0.415732 0.000000 0.388118
Si Si3 0.582660 0.500000 0.120122
Si Si4 0.317863 0.690487 0.881943
Si Si5 0.080983 0.884538 0.880651
O O1 0.396124 0.102200 0.674526
O O2 0.329324 0.204111 0.816461
O O3 0.263079 0.150073 0.642227
O O4 0.359548 0.301026 0.651412
O O5 0.500000 0.000000 0.402815
O O6 0.379133 0.000000 0.500000
O O7 0.500000 0.500000 0.161141
O O8 0.624222 0.604234 0.156095
O O9 0.584121 0.500000 0.000000
O O10 0.327184 0.716833 0.000000
O O11 0.000000 0.848893 0.847558
O O12 0.097516 0.000000 0.832779
O O13 0.084376 0.895445 0.000000
#
# Coordination Sequence:
#
# PCOD8292088 Si02
#       5
#    16   8   8  16  16
#     4  11  22  37  61  87 119 156 199 239 296 353
#     4  11  23  39  62  89 118 156 199 243 290 351
#     4   9  19  37  61  86 114 152 196 244 293 340
#     4  10  22  39  59  87 119 154 198 246 297 353
#     4   9  18  33  55  86 121 153 189 241 300 350
#
# _framework density 20.420331999999998
#
# number of rings (size 3 to 8) (size 9 to 14) (size 15 to 20)
#    0.000    2.000    0.000    4.500    1.750    5.000 
#    2.250    0.625    0.000    0.750    0.000    0.000 
#    0.000    0.000    0.000    0.000    0.000    0.000 
#
# Total GULP energy -396761.555960 kJ/mol
# GULP energy per Si atom -12398.798624 kJ/mol
# Density = 2.037385 g / cm^3
# Si number density = 20.420332 Si / 1000 Ang^3
#
#
#
# Elastic Constant Matrix: (Units=GPa)
#
#
# Indices 1 2 3 4 5 6 
#
# 1 126.3326 55.2432 28.5327 0.0000 0.0000 0.0000
# 2 55.2432 112.5101 43.2647 0.0000 0.0000 0.0000
# 3 28.5327 43.2647 83.1254 0.0000 0.0000 0.0000
# 4 0.0000 0.0000 0.0000 22.8565 0.0000 0.0000
# 5 0.0000 0.0000 0.0000 0.0000 22.4973 0.0000
# 6 0.0000 0.0000 0.0000 0.0000 0.0000 40.3982
#
#
#
# Elastic Compliance Matrix: (Units=1/GPa)
#
#
# Indices 1 2 3 4 5 6 
#
# 1 0.010162 -0.004561 -0.001114 0.000000 0.000000 0.000000
# 2 -0.004561 0.013159 -0.005284 0.000000 0.000000 0.000000
# 3 -0.001114 -0.005284 0.015162 0.000000 0.000000 0.000000
# 4 0.000000 0.000000 0.000000 0.043751 0.000000 0.000000
# 5 0.000000 0.000000 0.000000 0.000000 0.044450 0.000000
# 6 0.000000 0.000000 0.000000 0.000000 0.000000 0.024754
#
#
# Mechanical properties :
#
#
# Convention : Reuss Voigt Hill
#
# Bulk Modulus (GPa) = 60.36428 64.00546 62.18487
# Shear Modulus (GPa) = 27.95212 30.14558 29.04885
#
# Velocity S-wave (km/s) = 3.70379 3.84637 3.77576
# Velocity P-wave (km/s) = 6.92213 7.15109 7.03754
#
# Compressibility (1/GPa) = 0.01656609
#
# Stress axis : x y z
#
# Youngs Moduli (GPa) = 98.40873 75.99172 65.95276
#
# Poissons Ratio (x) = 0.34660 0.07348
# Poissons Ratio (y) = 0.44885 0.34846
# Poissons Ratio (z) = 0.10963 0.40150
#
# Static dielectric constant tensor:
#      x y z
#    x 3.808740 0.000000 0.000000 
#    y 0.000000 3.562820 0.000000 
#    z 0.000000 0.000000 3.868660 
# 
# 
# High freq. dielectric constant tensor:
#      x y z
#    x 1.801150 0.000000 0.000000 
#    y 0.000000 1.782450 0.000000 
#    z 0.000000 0.000000 1.815120 
# 
# From -- ./inp_files/35841.got.cif
#   From: 2010.06.25/outbox.cif.g09.slc.cpg/sg71_18_cif.got.tgz:35841.got - 2010.06.28 04:59:45.
