data_PCOD8292732
_publ_section_title
;
Structure prediction by ZEFSAII (Michael W. Deem and Ramdas Pophale) SiO2 
 PCOD8292732
Probable space group: I M M M
;
_chemical_formula_sum "Si O2"
_cell_formula_units_Z 104
_cell_length_a 29.512934
_cell_length_b 22.787966
_cell_length_c 9.368988
_cell_angle_alpha 90.000000
_cell_angle_beta 90.000000
_cell_angle_gamma 90.000000
_cell_volume 6301.016721
_symmetry_space_group_name_H-M "I M M M"
_symmetry_group_IT_number 71
_symmetry_cell_setting 'orthorhombic'
loop_
_space_group_symop_operation_xyz
x,y,z
-x,-y,z
x,-y,-z
-x,y,-z
-x,-y,-z
x,y,-z
-x,y,z
x,-y,z
1/2+x,1/2+y,1/2+z
1/2-x,1/2-y,1/2+z
1/2+x,1/2-y,1/2-z
1/2-x,1/2+y,1/2-z
1/2-x,1/2-y,1/2-z
1/2+x,1/2+y,1/2-z
1/2-x,1/2+y,1/2+z
1/2+x,1/2-y,1/2+z
loop_
_atom_site_type_symbol
_atom_site_label
_atom_site_fract_x
_atom_site_fract_y
_atom_site_fract_z
Si Si1 0.447642 0.225523 0.333172
Si Si2 0.373431 0.567422 0.834322
Si Si3 0.286947 0.569763 0.338753
Si Si4 0.104106 0.388191 0.830947
Si Si5 0.551508 0.340354 0.834454
Si Si6 0.051119 0.500000 0.170581
Si Si7 0.700587 0.068583 0.665219
O O1 0.439646 0.235698 0.500000
O O2 0.500000 0.210485 0.300630
O O3 0.416787 0.172533 0.272986
O O4 0.431905 0.284066 0.253196
O O5 0.384098 0.500000 0.795979
O O6 0.331413 0.592446 0.743365
O O7 0.417780 0.604224 0.792801
O O8 0.360631 0.574165 0.000000
O O9 0.287402 0.594138 0.500000
O O10 0.286592 0.500000 0.335709
O O11 0.242156 0.592836 0.258856
O O12 0.075853 0.442532 0.766829
O O13 0.156622 0.394412 0.786724
O O14 0.099210 0.390047 0.000000
O O15 0.500000 0.357133 0.794347
O O16 0.556122 0.324509 0.000000
O O17 0.000000 0.500000 0.227126
O O18 0.052922 0.500000 0.000000
O O19 0.712536 0.079138 0.500000
O O20 0.690656 0.000000 0.692608
#
# Coordination Sequence:
#
# PCOD8292732 Si02
#       7
#    16  16  16  16  16   8  16
#     4   9  17  29  45  65  90 122 158 190 221 262
#     4   9  17  30  49  72  94 116 144 178 220 266
#     4   9  17  28  43  65  93 121 147 178 220 271
#     4   9  15  24  39  63  91 119 153 193 232 267
#     4   9  18  32  49  69  93 120 149 180 215 261
#     4   9  14  20  34  60  93 121 147 189 240 275
#     4   9  15  25  42  63  89 119 152 189 229 270
#
# _framework density 16.505272999999999
#
# number of rings (size 3 to 8) (size 9 to 14) (size 15 to 20)
#    0.000    3.000    0.769    0.923    0.000    4.615 
#    0.000    2.308    0.000    0.923    0.000    4.308 
#    0.000    3.692    0.000    0.000    0.000    0.000 
#
# Total GULP energy -644732.200097 kJ/mol
# GULP energy per Si atom -12398.696156 kJ/mol
# Density = 1.646771 g / cm^3
# Si number density = 16.505273 Si / 1000 Ang^3
#
#
#
# Elastic Constant Matrix: (Units=GPa)
#
#
# Indices 1 2 3 4 5 6 
#
# 1 134.5158 72.1412 52.7151 0.0000 0.0000 0.0000
# 2 72.1412 93.6414 38.2560 0.0000 0.0000 0.0000
# 3 52.7151 38.2560 55.2801 0.0000 0.0000 0.0000
# 4 0.0000 0.0000 0.0000 17.8861 0.0000 0.0000
# 5 0.0000 0.0000 0.0000 0.0000 16.1802 0.0000
# 6 0.0000 0.0000 0.0000 0.0000 0.0000 20.2940
#
#
#
# Elastic Compliance Matrix: (Units=1/GPa)
#
#
# Indices 1 2 3 4 5 6 
#
# 1 0.015311 -0.008129 -0.008975 0.000000 0.000000 0.000000
# 2 -0.008129 0.019204 -0.005538 0.000000 0.000000 0.000000
# 3 -0.008975 -0.005538 0.030481 0.000000 0.000000 0.000000
# 4 0.000000 0.000000 0.000000 0.055909 0.000000 0.000000
# 5 0.000000 0.000000 0.000000 0.000000 0.061804 0.000000
# 6 0.000000 0.000000 0.000000 0.000000 0.000000 0.049276
#
#
# Mechanical properties :
#
#
# Convention : Reuss Voigt Hill
#
# Bulk Modulus (GPa) = 50.73140 67.74022 59.23581
# Shear Modulus (GPa) = 17.61563 18.89374 18.25469
#
# Velocity S-wave (km/s) = 3.27046 3.38703 3.32925
# Velocity P-wave (km/s) = 6.71300 7.51176 7.12359
#
# Compressibility (1/GPa) = 0.01971166
#
# Stress axis : x y z
#
# Youngs Moduli (GPa) = 65.31393 52.07238 32.80740
#
# Poissons Ratio (x) = 0.42328 0.29444
# Poissons Ratio (y) = 0.53092 0.18170
# Poissons Ratio (z) = 0.58618 0.28840
#
# Static dielectric constant tensor:
#      x y z
#    x 3.225160 0.000000 0.000000 
#    y 0.000000 2.966500 0.000000 
#    z 0.000000 0.000000 2.930710 
# 
# 
# High freq. dielectric constant tensor:
#      x y z
#    x 1.642530 0.000000 0.000000 
#    y 0.000000 1.607860 0.000000 
#    z 0.000000 0.000000 1.609810 
# 
# From -- ./inp_files/17260.got.cif
#   From: 2010.06.25/outbox.cif.g09.slc.cpg/sg71_9_cif.got.tgz:17260.got - 2010.06.28 04:59:45.
