data_PCOD8292198
_publ_section_title
;
Structure prediction by ZEFSAII (Michael W. Deem and Ramdas Pophale) SiO2 
 PCOD8292198
Probable space group: I M M M
;
_chemical_formula_sum "Si O2"
_cell_formula_units_Z 72
_cell_length_a 17.624107
_cell_length_b 8.724441
_cell_length_c 23.564780
_cell_angle_alpha 90.000000
_cell_angle_beta 90.000000
_cell_angle_gamma 90.000000
_cell_volume 3623.331924
_symmetry_space_group_name_H-M "I M M M"
_symmetry_group_IT_number 71
_symmetry_cell_setting 'orthorhombic'
loop_
_space_group_symop_operation_xyz
x,y,z
-x,-y,z
x,-y,-z
-x,y,-z
-x,-y,-z
x,y,-z
-x,y,z
x,-y,z
1/2+x,1/2+y,1/2+z
1/2-x,1/2-y,1/2+z
1/2+x,1/2-y,1/2-z
1/2-x,1/2+y,1/2-z
1/2-x,1/2-y,1/2-z
1/2+x,1/2+y,1/2-z
1/2-x,1/2+y,1/2+z
1/2+x,1/2-y,1/2+z
loop_
_atom_site_type_symbol
_atom_site_label
_atom_site_fract_x
_atom_site_fract_y
_atom_site_fract_z
Si Si1 0.587579 0.319761 0.636445
Si Si2 0.784958 0.319684 0.934509
Si Si3 0.355620 0.818325 0.130836
Si Si4 0.000000 0.317803 0.562631
Si Si5 0.332831 0.680858 0.247500
O O1 0.500000 0.271532 0.632242
O O2 0.598654 0.500000 0.627243
O O3 0.632246 0.230916 0.587053
O O4 0.618803 0.269015 0.697878
O O5 0.775178 0.500000 0.927233
O O6 0.723242 0.235835 0.895789
O O7 0.775510 0.269774 0.000000
O O8 0.424345 0.757496 0.092561
O O9 0.373153 0.747506 0.192061
O O10 0.352892 0.000000 0.136092
O O11 0.000000 0.500000 0.561408
O O12 0.000000 0.247427 0.500000
O O13 0.326612 0.500000 0.242845
O O14 0.250000 0.750000 0.250000
#
# Coordination Sequence:
#
# PCOD8292198 Si02
#       5
#    16  16  16   8  16
#     4  10  23  42  63  89 121 161 205 249 301 359
#     4  11  24  41  62  89 120 157 202 252 306 363
#     4  11  22  38  62  91 121 160 204 248 301 359
#     4   9  20  38  59  87 123 161 204 251 296 351
#     4  11  22  38  62  90 121 156 197 246 299 357
#
# _framework density 19.871212
#
# number of rings (size 3 to 8) (size 9 to 14) (size 15 to 20)
#    0.000    1.444    2.222    2.667    1.556    4.444 
#    0.000    3.889    0.000    4.000    0.000    0.000 
#    0.000    0.000    0.000    0.000    0.000    0.000 
#
# Total GULP energy -446560.441077 kJ/mol
# GULP energy per Si atom -12404.456697 kJ/mol
# Density = 1.982598 g / cm^3
# Si number density = 19.871212 Si / 1000 Ang^3
#
#
#
# Elastic Constant Matrix: (Units=GPa)
#
#
# Indices 1 2 3 4 5 6 
#
# 1 107.3470 18.4497 22.2018 0.0000 0.0000 0.0000
# 2 18.4497 59.5263 27.2707 0.0000 0.0000 0.0000
# 3 22.2018 27.2707 105.5939 0.0000 0.0000 0.0000
# 4 0.0000 0.0000 0.0000 35.5070 0.0000 0.0000
# 5 0.0000 0.0000 0.0000 0.0000 39.3526 0.0000
# 6 0.0000 0.0000 0.0000 0.0000 0.0000 18.8941
#
#
#
# Elastic Compliance Matrix: (Units=1/GPa)
#
#
# Indices 1 2 3 4 5 6 
#
# 1 0.010040 -0.002433 -0.001483 0.000000 0.000000 0.000000
# 2 -0.002433 0.019643 -0.004562 0.000000 0.000000 0.000000
# 3 -0.001483 -0.004562 0.010960 0.000000 0.000000 0.000000
# 4 0.000000 0.000000 0.000000 0.028163 0.000000 0.000000
# 5 0.000000 0.000000 0.000000 0.000000 0.025411 0.000000
# 6 0.000000 0.000000 0.000000 0.000000 0.000000 0.052927
#
#
# Mechanical properties :
#
#
# Convention : Reuss Voigt Hill
#
# Bulk Modulus (GPa) = 42.21270 45.36796 43.79033
# Shear Modulus (GPa) = 29.07057 32.38707 30.72882
#
# Velocity S-wave (km/s) = 3.82900 4.04152 3.93669
# Velocity P-wave (km/s) = 6.39043 6.68274 6.53822
#
# Compressibility (1/GPa) = 0.02368955
#
# Stress axis : x y z
#
# Youngs Moduli (GPa) = 99.59811 50.90860 91.24026
#
# Poissons Ratio (x) = 0.12384 0.13529
# Poissons Ratio (y) = 0.24228 0.41620
# Poissons Ratio (z) = 0.14768 0.23222
#
# Static dielectric constant tensor:
#      x y z
#    x 3.704330 0.000000 0.000000 
#    y 0.000000 3.524420 0.000000 
#    z 0.000000 0.000000 4.113370 
# 
# 
# High freq. dielectric constant tensor:
#      x y z
#    x 1.782420 0.000000 0.000000 
#    y 0.000000 1.769440 0.000000 
#    z 0.000000 0.000000 1.791070 
# 
# From -- ./inp_files/9903.got.cif
#   From: 2010.06.25/outbox.cif.g09.slc.cpg/sg71_5_cif.got.tgz:9903.got - 2010.06.28 04:59:45.
