data_PCOD8292473
_publ_section_title
;
Structure prediction by ZEFSAII (Michael W. Deem and Ramdas Pophale) SiO2 
 PCOD8292473
Probable space group: I M M M
;
_chemical_formula_sum "Si O2"
_cell_formula_units_Z 72
_cell_length_a 17.507757
_cell_length_b 22.613795
_cell_length_c 8.514166
_cell_angle_alpha 90.000000
_cell_angle_beta 90.000000
_cell_angle_gamma 90.000000
_cell_volume 3370.901593
_symmetry_space_group_name_H-M "I M M M"
_symmetry_group_IT_number 71
_symmetry_cell_setting 'orthorhombic'
loop_
_space_group_symop_operation_xyz
x,y,z
-x,-y,z
x,-y,-z
-x,y,-z
-x,-y,-z
x,y,-z
-x,y,z
x,-y,z
1/2+x,1/2+y,1/2+z
1/2-x,1/2-y,1/2+z
1/2+x,1/2-y,1/2-z
1/2-x,1/2+y,1/2-z
1/2-x,1/2-y,1/2-z
1/2+x,1/2+y,1/2-z
1/2-x,1/2+y,1/2+z
1/2+x,1/2-y,1/2+z
loop_
_atom_site_type_symbol
_atom_site_label
_atom_site_fract_x
_atom_site_fract_y
_atom_site_fract_z
Si Si1 0.413136 0.500000 0.313279
Si Si2 0.154797 0.124395 0.816590
Si Si3 0.084748 0.564516 0.186769
Si Si4 0.584784 0.268323 0.817746
Si Si5 0.187907 0.667813 0.815018
O O1 0.500000 0.500000 0.246311
O O2 0.417416 0.500000 0.500000
O O3 0.368117 0.441226 0.254665
O O4 0.086729 0.170037 0.778806
O O5 0.225343 0.153362 0.724350
O O6 0.173242 0.122011 0.000000
O O7 0.113431 0.500000 0.242935
O O8 0.140415 0.613269 0.257218
O O9 0.000000 0.576453 0.251909
O O10 0.084298 0.567277 0.000000
O O11 0.500000 0.240686 0.786080
O O12 0.654298 0.226373 0.764527
O O13 0.596319 0.282351 0.000000
O O14 0.177624 0.675275 0.000000
#
# Coordination Sequence:
#
# PCOD8292473 Si02
#       5
#     8  16  16  16  16
#     4   9  20  40  65  91 118 155 202 249 299 358
#     4  11  23  40  63  90 122 159 201 249 301 359
#     4   8  15  29  50  78 112 151 196 243 289 342
#     4  11  24  42  63  88 120 157 200 252 306 360
#     4  11  22  36  59  89 123 161 201 245 299 358
#
# _framework density 21.359269000000001
#
# number of rings (size 3 to 8) (size 9 to 14) (size 15 to 20)
#    0.000    1.889    0.000    4.667    1.556    3.556 
#    0.000    1.667    0.000    4.000    0.000    4.667 
#    0.000    0.000    0.000    0.000    0.000    0.000 
#
# Total GULP energy -446272.936207 kJ/mol
# GULP energy per Si atom -12396.470450 kJ/mol
# Density = 2.131065 g / cm^3
# Si number density = 21.359269 Si / 1000 Ang^3
#
#
#
# Elastic Constant Matrix: (Units=GPa)
#
#
# Indices 1 2 3 4 5 6 
#
# 1 101.9133 55.2065 12.4397 0.0000 0.0000 0.0000
# 2 55.2065 156.5314 24.1427 0.0000 0.0000 0.0000
# 3 12.4397 24.1427 42.2475 0.0000 0.0000 0.0000
# 4 0.0000 0.0000 0.0000 21.0703 0.0000 0.0000
# 5 0.0000 0.0000 0.0000 0.0000 19.1089 0.0000
# 6 0.0000 0.0000 0.0000 0.0000 0.0000 -65.9647
#
#
#
# Elastic Compliance Matrix: (Units=1/GPa)
#
#
# Indices 1 2 3 4 5 6 
#
# 1 0.012189 -0.004107 -0.001242 0.000000 0.000000 0.000000
# 2 -0.004107 0.008390 -0.003585 0.000000 0.000000 0.000000
# 3 -0.001242 -0.003585 0.026084 0.000000 0.000000 0.000000
# 4 0.000000 0.000000 0.000000 0.047460 0.000000 0.000000
# 5 0.000000 0.000000 0.000000 0.000000 0.052332 0.000000
# 6 0.000000 0.000000 0.000000 0.000000 0.000000 -0.015160
#
#
# Mechanical properties :
#
#
# Convention : Reuss Voigt Hill
#
# Bulk Modulus (GPa) = 34.72858 53.80777 44.26818
# Shear Modulus (GPa) = 31.49361 8.76978 20.13169
#
# Velocity S-wave (km/s) = 3.84405 2.02849 3.07339
# Velocity P-wave (km/s) = 5.99974 5.54372 5.77623
#
# Compressibility (1/GPa) = 0.02879473
#
# Stress axis : x y z
#
# Youngs Moduli (GPa) = 82.04279 119.18895 38.33698
#
# Poissons Ratio (x) = 0.48954 0.04761
# Poissons Ratio (y) = 0.33697 0.13744
# Poissons Ratio (z) = 0.10188 0.42731
#
# Static dielectric constant tensor:
#      x y z
#    x 3.984660 0.000000 0.000000 
#    y 0.000000 4.233880 0.000000 
#    z 0.000000 0.000000 3.422110 
# 
# 
# High freq. dielectric constant tensor:
#      x y z
#    x 1.845910 0.000000 0.000000 
#    y 0.000000 1.853620 0.000000 
#    z 0.000000 0.000000 1.805550 
# 
# From -- ./inp_files/7885.got.cif
#   From: 2010.06.25/outbox.cif.g09.slc.cpg/sg71_4_cif.got.tgz:7885.got - 2010.06.28 04:59:45.
