data_PCOD8292067
_publ_section_title
;
Structure prediction by ZEFSAII (Michael W. Deem and Ramdas Pophale) SiO2 
 PCOD8292067
Probable space group: I M M M
;
_chemical_formula_sum "Si O2"
_cell_formula_units_Z 72
_cell_length_a 9.925465
_cell_length_b 28.676559
_cell_length_c 13.335266
_cell_angle_alpha 90.000000
_cell_angle_beta 90.000000
_cell_angle_gamma 90.000000
_cell_volume 3795.592527
_symmetry_space_group_name_H-M "I M M M"
_symmetry_group_IT_number 71
_symmetry_cell_setting 'orthorhombic'
loop_
_space_group_symop_operation_xyz
x,y,z
-x,-y,z
x,-y,-z
-x,y,-z
-x,-y,-z
x,y,-z
-x,y,z
x,-y,z
1/2+x,1/2+y,1/2+z
1/2-x,1/2-y,1/2+z
1/2+x,1/2-y,1/2-z
1/2-x,1/2+y,1/2-z
1/2-x,1/2-y,1/2-z
1/2+x,1/2+y,1/2-z
1/2-x,1/2+y,1/2+z
1/2+x,1/2-y,1/2+z
loop_
_atom_site_type_symbol
_atom_site_label
_atom_site_fract_x
_atom_site_fract_y
_atom_site_fract_z
Si Si1 0.657257 0.319111 0.791670
Si Si2 0.000000 0.054490 0.888433
Si Si3 0.000000 0.445080 0.381647
Si Si4 0.650866 0.252255 0.612783
Si Si5 0.840438 0.500000 0.117463
Si Si6 0.751450 0.418664 0.257053
O O1 0.500000 0.322724 0.822615
O O2 0.675489 0.297222 0.681623
O O3 0.737120 0.287244 0.870465
O O4 0.729655 0.368872 0.794165
O O5 0.873670 0.069840 0.825491
O O6 0.000000 0.000000 0.902673
O O7 0.000000 0.077504 0.000000
O O8 0.874075 0.419114 0.333963
O O9 0.000000 0.500000 0.354102
O O10 0.000000 0.437633 0.500000
O O11 0.664919 0.270561 0.500000
O O12 0.500000 0.231917 0.632918
O O13 0.772972 0.454660 0.166434
O O14 0.000000 0.500000 0.137408
O O15 0.806781 0.500000 0.000000
#
# Coordination Sequence:
#
# PCOD8292067 Si02
#       6
#    16   8   8  16   8  16
#     4  10  22  38  61  88 122 156 189 244 303 353
#     4  11  22  36  60  89 124 162 194 234 305 372
#     4  11  22  38  60  87 122 162 202 248 299 348
#     4   9  20  40  63  86 114 154 201 244 292 354
#     4  11  24  43  64  85 117 167 213 253 296 339
#     4  12  21  40  60  90 124 158 201 250 294 353
#
# _framework density 18.969370000000001
#
# number of rings (size 3 to 8) (size 9 to 14) (size 15 to 20)
#    0.000    1.444    4.444    0.667    1.556    4.889 
#    0.000    3.333    0.000    0.000    0.000    0.000 
#    0.000    0.000    0.000    0.000    0.000    0.000 
#
# Total GULP energy -446415.319561 kJ/mol
# GULP energy per Si atom -12400.425543 kJ/mol
# Density = 1.892619 g / cm^3
# Si number density = 18.969370 Si / 1000 Ang^3
#
#
#
# Elastic Constant Matrix: (Units=GPa)
#
#
# Indices 1 2 3 4 5 6 
#
# 1 131.9646 44.1086 42.7303 -0.0007 0.0001 -0.0012
# 2 44.1086 112.2338 31.1807 -0.0008 0.0002 -0.0017
# 3 42.7303 31.1807 111.9226 -0.0029 0.0005 -0.0038
# 4 -0.0007 -0.0008 -0.0029 17.6990 0.0003 -0.0023
# 5 0.0001 0.0002 0.0005 0.0003 35.6186 0.0007
# 6 -0.0012 -0.0017 -0.0038 -0.0023 0.0007 -40.2240
#
#
#
# Elastic Compliance Matrix: (Units=1/GPa)
#
#
# Indices 1 2 3 4 5 6 
#
# 1 0.009467 -0.002944 -0.002794 0.000000 0.000000 0.000000
# 2 -0.002944 0.010573 -0.001822 0.000000 0.000000 0.000000
# 3 -0.002794 -0.001822 0.010509 0.000002 0.000000 -0.000001
# 4 0.000000 0.000000 0.000002 0.056500 0.000000 -0.000003
# 5 0.000000 0.000000 0.000000 0.000000 0.028075 0.000000
# 6 0.000000 0.000000 -0.000001 -0.000003 0.000000 -0.024861
#
#
# Mechanical properties :
#
#
# Convention : Reuss Voigt Hill
#
# Bulk Modulus (GPa) = 64.81219 65.79558 65.30388
# Shear Modulus (GPa) = 45.23834 18.49215 31.86525
#
# Velocity S-wave (km/s) = 4.88875 3.12563 4.10301
# Velocity P-wave (km/s) = 8.13065 6.91278 7.54632
#
# Compressibility (1/GPa) = 0.01542920
#
# Stress axis : x y z
#
# Youngs Moduli (GPa) = 105.63501 94.57946 95.15744
#
# Poissons Ratio (x) = 0.27846 0.26587
# Poissons Ratio (y) = 0.31101 0.17333
# Poissons Ratio (z) = 0.29514 0.17228
#
# Static dielectric constant tensor:
#      x y z
#    x 3.622510 0.000000 0.000000 
#    y 0.000000 3.586280 0.000000 
#    z 0.000000 0.000000 3.520100 
# 
# 
# High freq. dielectric constant tensor:
#      x y z
#    x 1.753330 0.000000 0.000000 
#    y 0.000000 1.727890 0.000000 
#    z 0.000000 0.000000 1.741590 
# 
# From -- ./inp_files/6198.got.cif
#   From: 2010.06.25/outbox.cif.g09.slc.cpg/sg71_4_cif.got.tgz:6198.got - 2010.06.28 04:59:45.
