data_PCOD8292248
_publ_section_title
;
Structure prediction by ZEFSAII (Michael W. Deem and Ramdas Pophale) SiO2 
 PCOD8292248
Probable space group: I M M M
;
_chemical_formula_sum "Si O2"
_cell_formula_units_Z 88
_cell_length_a 27.036640
_cell_length_b 13.571351
_cell_length_c 14.322112
_cell_angle_alpha 90.000000
_cell_angle_beta 90.000000
_cell_angle_gamma 90.000000
_cell_volume 5255.122775
_symmetry_space_group_name_H-M "I M M M"
_symmetry_group_IT_number 71
_symmetry_cell_setting 'orthorhombic'
loop_
_space_group_symop_operation_xyz
x,y,z
-x,-y,z
x,-y,-z
-x,y,-z
-x,-y,-z
x,y,-z
-x,y,z
x,-y,z
1/2+x,1/2+y,1/2+z
1/2-x,1/2-y,1/2+z
1/2+x,1/2-y,1/2-z
1/2-x,1/2+y,1/2-z
1/2-x,1/2-y,1/2-z
1/2+x,1/2+y,1/2-z
1/2-x,1/2+y,1/2+z
1/2+x,1/2-y,1/2+z
loop_
_atom_site_type_symbol
_atom_site_label
_atom_site_fract_x
_atom_site_fract_y
_atom_site_fract_z
Si Si1 0.056975 0.882956 0.297291
Si Si2 0.766862 0.889904 0.757255
Si Si3 0.558042 0.393899 0.000000
Si Si4 0.314838 0.887152 0.394154
Si Si5 0.359901 0.751179 0.257832
Si Si6 0.821528 0.613848 0.392378
O O1 0.071506 0.842562 0.401798
O O2 0.091884 0.818029 0.230943
O O3 0.000000 0.860396 0.272778
O O4 0.067183 0.000000 0.287543
O O5 0.735428 0.871866 0.663550
O O6 0.811379 0.815245 0.756809
O O7 0.732892 0.872282 0.848189
O O8 0.788705 0.000000 0.758119
O O9 0.584862 0.500000 0.000000
O O10 0.500000 0.412604 0.000000
O O11 0.305089 0.853781 0.500000
O O12 0.358284 0.820857 0.349050
O O13 0.332493 0.000000 0.388456
O O14 0.360590 0.818878 0.164530
O O15 0.820341 0.647609 0.500000
O O16 0.838143 0.500000 0.382885
#
# Coordination Sequence:
#
# PCOD8292248 Si02
#       6
#    16  16   8  16  16  16
#     4   9  18  32  48  68  97 127 152 186 232 277
#     4   9  18  30  43  67  99 125 152 188 228 273
#     4   7  12  26  44  60  85 121 151 173 210 266
#     4   9  18  33  49  66  94 127 157 194 237 275
#     4  11  19  27  49  73  91 120 161 197 226 271
#     4   9  18  31  45  64  95 128 152 182 228 279
#
# _framework density 16.745564999999999
#
# number of rings (size 3 to 8) (size 9 to 14) (size 15 to 20)
#    0.000    2.818    0.000    5.455    1.273    2.909 
#    0.000    0.000    0.000    4.364    0.000    3.818 
#    0.000    0.000    0.000    0.000    0.000    0.000 
#
# Total GULP energy -545184.958733 kJ/mol
# GULP energy per Si atom -12390.567244 kJ/mol
# Density = 1.670745 g / cm^3
# Si number density = 16.745565 Si / 1000 Ang^3
#
#
#
# Elastic Constant Matrix: (Units=GPa)
#
#
# Indices 1 2 3 4 5 6 
#
# 1 67.2983 45.9050 30.0533 0.0000 0.0000 0.0000
# 2 45.9050 88.6894 38.6620 0.0000 0.0000 0.0000
# 3 30.0533 38.6620 107.9475 0.0000 0.0000 0.0000
# 4 0.0000 0.0000 0.0000 10.6133 0.0000 0.0000
# 5 0.0000 0.0000 0.0000 0.0000 10.1557 0.0000
# 6 0.0000 0.0000 0.0000 0.0000 0.0000 27.3927
#
#
#
# Elastic Compliance Matrix: (Units=1/GPa)
#
#
# Indices 1 2 3 4 5 6 
#
# 1 0.023568 -0.011066 -0.002598 0.000000 0.000000 0.000000
# 2 -0.011066 0.018557 -0.003566 0.000000 0.000000 0.000000
# 3 -0.002598 -0.003566 0.011264 0.000000 0.000000 0.000000
# 4 0.000000 0.000000 0.000000 0.094222 0.000000 0.000000
# 5 0.000000 0.000000 0.000000 0.000000 0.098467 0.000000
# 6 0.000000 0.000000 0.000000 0.000000 0.000000 0.036506
#
#
# Mechanical properties :
#
#
# Convention : Reuss Voigt Hill
#
# Bulk Modulus (GPa) = 52.82634 54.79730 53.81182
# Shear Modulus (GPa) = 15.46301 19.58666 17.52484
#
# Velocity S-wave (km/s) = 3.04206 3.42374 3.23853
# Velocity P-wave (km/s) = 6.62977 6.95873 6.79624
#
# Compressibility (1/GPa) = 0.01892995
#
# Stress axis : x y z
#
# Youngs Moduli (GPa) = 42.43119 53.88742 88.77749
#
# Poissons Ratio (x) = 0.59631 0.23065
# Poissons Ratio (y) = 0.46954 0.31654
# Poissons Ratio (z) = 0.11024 0.19214
#
# Static dielectric constant tensor:
#      x y z
#    x 2.747300 0.000000 0.000000 
#    y 0.000000 3.378760 0.000000 
#    z 0.000000 0.000000 3.368190 
# 
# 
# High freq. dielectric constant tensor:
#      x y z
#    x 1.600560 0.000000 0.000000 
#    y 0.000000 1.656310 0.000000 
#    z 0.000000 0.000000 1.637350 
# 
# From -- ./inp_files/34999.got.cif
#   From: 2010.06.25/outbox.cif.g09.slc.cpg/sg71_18_cif.got.tgz:34999.got - 2010.06.28 04:59:45.
