data_PCOD8292689
_publ_section_title
;
Structure prediction by ZEFSAII (Michael W. Deem and Ramdas Pophale) SiO2 
 PCOD8292689
Probable space group: I M M M
;
_chemical_formula_sum "Si O2"
_cell_formula_units_Z 88
_cell_length_a 9.872965
_cell_length_b 27.692212
_cell_length_c 16.963709
_cell_angle_alpha 90.000000
_cell_angle_beta 90.000000
_cell_angle_gamma 90.000000
_cell_volume 4637.949964
_symmetry_space_group_name_H-M "I M M M"
_symmetry_group_IT_number 71
_symmetry_cell_setting 'orthorhombic'
loop_
_space_group_symop_operation_xyz
x,y,z
-x,-y,z
x,-y,-z
-x,y,-z
-x,-y,-z
x,y,-z
-x,y,z
x,-y,z
1/2+x,1/2+y,1/2+z
1/2-x,1/2-y,1/2+z
1/2+x,1/2-y,1/2-z
1/2-x,1/2+y,1/2-z
1/2-x,1/2-y,1/2-z
1/2+x,1/2+y,1/2-z
1/2-x,1/2+y,1/2+z
1/2+x,1/2-y,1/2+z
loop_
_atom_site_type_symbol
_atom_site_label
_atom_site_fract_x
_atom_site_fract_y
_atom_site_fract_z
Si Si1 0.654271 0.274820 0.652729
Si Si2 0.842967 0.089776 0.407619
Si Si3 0.146249 0.872517 0.910537
Si Si4 0.851157 0.446926 0.406536
Si Si5 0.844685 0.809174 0.672019
Si Si6 0.656770 0.000000 0.593305
O O1 0.500000 0.256169 0.648221
O O2 0.688123 0.316463 0.589686
O O3 0.750190 0.230382 0.629678
O O4 0.683524 0.301739 0.735538
O O5 0.821250 0.101353 0.500000
O O6 0.804993 0.137307 0.356820
O O7 0.000000 0.074561 0.392788
O O8 0.741173 0.047348 0.378835
O O9 0.253507 0.907175 0.867018
O O10 0.000000 0.878353 0.867687
O O11 0.134006 0.890000 0.000000
O O12 0.860880 0.440466 0.500000
O O13 0.795131 0.500000 0.385121
O O14 0.000000 0.439689 0.369812
O O15 0.000000 0.798249 0.649685
O O16 0.500000 0.000000 0.625827
O O17 0.652136 0.000000 0.500000
#
# Coordination Sequence:
#
# PCOD8292689 Si02
#       6
#    16  16  16  16  16   8
#     4   9  18  32  47  64  90 121 152 186 226 271
#     4   9  17  30  49  72  96 122 154 191 228 270
#     4   9  17  28  43  64  88 114 145 182 222 262
#     4   8  14  25  41  61  84 110 141 177 217 259
#     4   9  18  32  49  67  88 119 155 186 222 269
#     4   9  17  29  47  73 101 125 150 183 228 280
#
# _framework density 18.973901000000001
#
# number of rings (size 3 to 8) (size 9 to 14) (size 15 to 20)
#    0.000    3.182    0.000    0.818    0.000    3.636 
#    0.000    1.818    2.000    0.000    0.000    0.000 
#    0.000    0.000    0.000    0.000    0.000    0.000 
#
# Total GULP energy -545178.698058 kJ/mol
# GULP energy per Si atom -12390.424956 kJ/mol
# Density = 1.893072 g / cm^3
# Si number density = 18.973901 Si / 1000 Ang^3
#
#
#
# Elastic Constant Matrix: (Units=GPa)
#
#
# Indices 1 2 3 4 5 6 
#
# 1 127.8064 108.2127 15.7828 0.0000 0.0000 0.0000
# 2 108.2127 164.1105 19.1887 -0.0001 0.0000 0.0000
# 3 15.7828 19.1887 16.0185 -0.0002 0.0000 0.0000
# 4 0.0000 -0.0001 -0.0002 21.4772 0.0000 0.0000
# 5 0.0000 0.0000 0.0000 0.0000 14.0574 0.0000
# 6 0.0000 0.0000 0.0000 0.0000 0.0000 45.5805
#
#
#
# Elastic Compliance Matrix: (Units=1/GPa)
#
#
# Indices 1 2 3 4 5 6 
#
# 1 0.017940 -0.011353 -0.004076 0.000000 0.000000 0.000000
# 2 -0.011353 0.014270 -0.005909 0.000000 0.000000 0.000000
# 3 -0.004076 -0.005909 0.073522 0.000001 0.000000 0.000000
# 4 0.000000 0.000000 0.000001 0.046561 0.000000 0.000000
# 5 0.000000 0.000000 0.000000 0.000000 0.071137 0.000000
# 6 0.000000 0.000000 0.000000 0.000000 0.000000 0.021939
#
#
# Mechanical properties :
#
#
# Convention : Reuss Voigt Hill
#
# Bulk Modulus (GPa) = 15.85874 66.03374 40.94624
# Shear Modulus (GPa) = 16.17783 27.20644 21.69213
#
# Velocity S-wave (km/s) = 2.92316 3.79078 3.38488
# Velocity P-wave (km/s) = 4.44629 7.35105 6.07484
#
# Compressibility (1/GPa) = 0.06305673
#
# Stress axis : x y z
#
# Youngs Moduli (GPa) = 55.74090 70.07564 13.60132
#
# Poissons Ratio (x) = 0.79556 0.05545
# Poissons Ratio (y) = 0.63282 0.08036
# Poissons Ratio (z) = 0.22723 0.41405
#
# Static dielectric constant tensor:
#      x y z
#    x 3.901190 0.000000 0.000000 
#    y 0.000000 3.579270 0.000000 
#    z 0.000000 0.000000 3.060690 
# 
# 
# High freq. dielectric constant tensor:
#      x y z
#    x 1.741040 0.000000 0.000000 
#    y 0.000000 1.740700 0.000000 
#    z 0.000000 0.000000 1.691180 
# 
# From -- ./inp_files/51059.got.cif
#   From: 2010.06.25/outbox.cif.g09.slc.cpg/sg71_26_cif.got.tgz:51059.got - 2010.06.28 04:59:45.
