data_PCOD8292624
_publ_section_title
;
Structure prediction by ZEFSAII (Michael W. Deem and Ramdas Pophale) SiO2 
 PCOD8292624
Probable space group: I M M M
;
_chemical_formula_sum "Si O2"
_cell_formula_units_Z 104
_cell_length_a 28.534969
_cell_length_b 24.525022
_cell_length_c 9.644231
_cell_angle_alpha 90.000000
_cell_angle_beta 90.000000
_cell_angle_gamma 90.000000
_cell_volume 6749.232899
_symmetry_space_group_name_H-M "I M M M"
_symmetry_group_IT_number 71
_symmetry_cell_setting 'orthorhombic'
loop_
_space_group_symop_operation_xyz
x,y,z
-x,-y,z
x,-y,-z
-x,y,-z
-x,-y,-z
x,y,-z
-x,y,z
x,-y,z
1/2+x,1/2+y,1/2+z
1/2-x,1/2-y,1/2+z
1/2+x,1/2-y,1/2-z
1/2-x,1/2+y,1/2-z
1/2-x,1/2-y,1/2-z
1/2+x,1/2+y,1/2-z
1/2-x,1/2+y,1/2+z
1/2+x,1/2-y,1/2+z
loop_
_atom_site_type_symbol
_atom_site_label
_atom_site_fract_x
_atom_site_fract_y
_atom_site_fract_z
Si Si1 0.281155 0.564829 0.154314
Si Si2 0.552441 0.358274 0.664825
Si Si3 0.000000 0.561586 0.165119
Si Si4 0.133247 0.936736 0.162080
Si Si5 0.090406 0.373367 0.165420
Si Si6 0.947497 0.738008 0.835353
Si Si7 0.678320 0.939033 0.334922
O O1 0.280683 0.500000 0.148588
O O2 0.320870 0.585705 0.259367
O O3 0.229745 0.583754 0.208246
O O4 0.291451 0.588015 0.000000
O O5 0.551216 0.360138 0.500000
O O6 0.500000 0.370979 0.721443
O O7 0.588648 0.403413 0.720413
O O8 0.569096 0.297982 0.715599
O O9 0.953732 0.592037 0.221164
O O10 0.000000 0.500000 0.222514
O O11 0.000000 0.561804 0.000000
O O12 0.123669 0.000000 0.194298
O O13 0.141535 0.926475 0.000000
O O14 0.086081 0.310666 0.219068
O O15 0.138397 0.398989 0.225680
O O16 0.091073 0.375236 0.000000
O O17 0.000000 0.726716 0.780729
O O18 0.948124 0.737154 0.000000
O O19 0.675819 0.941573 0.500000
O O20 0.669857 0.000000 0.275401
#
# Coordination Sequence:
#
# PCOD8292624 Si02
#       7
#    16  16   8  16  16  16  16
#     4   8  14  25  39  53  72 100 128 150 177 217
#     4   8  14  23  35  51  71  93 115 143 180 222
#     4   9  14  16  20  36  64  94 120 150 188 219
#     4   9  16  25  39  59  77  93 118 152 188 222
#     4   9  13  17  26  41  63  92 124 155 181 212
#     4   8  12  19  29  42  63  92 123 148 175 216
#     4   8  13  20  30  45  65  92 127 158 180 210
#
# _framework density 15.409158
#
# number of rings (size 3 to 8) (size 9 to 14) (size 15 to 20)
#    0.000    3.615    0.769    2.308    0.000    2.154 
#    0.000    1.538    0.000    1.385    0.000    2.154 
#    0.000    0.000    0.000    1.154    0.000   15.385 
#
# Total GULP energy -644224.529745 kJ/mol
# GULP energy per Si atom -12388.933264 kJ/mol
# Density = 1.537409 g / cm^3
# Si number density = 15.409158 Si / 1000 Ang^3
#
#
#
# Elastic Constant Matrix: (Units=GPa)
#
#
# Indices 1 2 3 4 5 6 
#
# 1 148.1751 76.7809 24.5132 0.0000 0.0000 0.0000
# 2 76.7809 95.1580 16.2922 0.0000 0.0000 0.0000
# 3 24.5132 16.2922 14.0777 0.0000 0.0000 0.0000
# 4 0.0000 0.0000 0.0000 4.5113 0.0000 0.0000
# 5 0.0000 0.0000 0.0000 0.0000 13.5950 0.0000
# 6 0.0000 0.0000 0.0000 0.0000 0.0000 16.6528
#
#
#
# Elastic Compliance Matrix: (Units=1/GPa)
#
#
# Indices 1 2 3 4 5 6 
#
# 1 0.013373 -0.008485 -0.013467 0.000000 0.000000 0.000000
# 2 -0.008485 0.018489 -0.006623 0.000000 0.000000 0.000000
# 3 -0.013467 -0.006623 0.102149 0.000000 0.000000 0.000000
# 4 0.000000 0.000000 0.000000 0.221665 0.000000 0.000000
# 5 0.000000 0.000000 0.000000 0.000000 0.073557 0.000000
# 6 0.000000 0.000000 0.000000 0.000000 0.000000 0.060050
#
#
# Mechanical properties :
#
#
# Convention : Reuss Voigt Hill
#
# Bulk Modulus (GPa) = 13.01039 54.73147 33.87093
# Shear Modulus (GPa) = 8.74045 16.27346 12.50695
#
# Velocity S-wave (km/s) = 2.38423 3.25328 2.85205
# Velocity P-wave (km/s) = 4.00512 7.05037 5.73362
#
# Compressibility (1/GPa) = 0.07686166
#
# Stress axis : x y z
#
# Youngs Moduli (GPa) = 74.77538 54.08604 9.78963
#
# Poissons Ratio (x) = 0.45892 0.13184
# Poissons Ratio (y) = 0.63447 0.06483
# Poissons Ratio (z) = 1.00701 0.35820
#
# Static dielectric constant tensor:
#      x y z
#    x 3.305540 0.000000 0.000000 
#    y 0.000000 3.111420 0.000000 
#    z 0.000000 0.000000 2.365000 
# 
# 
# High freq. dielectric constant tensor:
#      x y z
#    x 1.594650 0.000000 0.000000 
#    y 0.000000 1.579660 0.000000 
#    z 0.000000 0.000000 1.514150 
# 
# From -- ./inp_files/15555.got.cif
#   From: 2010.06.25/outbox.cif.g09.slc.cpg/sg71_8_cif.got.tgz:15555.got - 2010.06.28 04:59:45.
