data_PCOD8292724
_publ_section_title
;
Structure prediction by ZEFSAII (Michael W. Deem and Ramdas Pophale) SiO2 
 PCOD8292724
Probable space group: I M M M
;
_chemical_formula_sum "Si O2"
_cell_formula_units_Z 104
_cell_length_a 32.823378
_cell_length_b 18.438688
_cell_length_c 9.528122
_cell_angle_alpha 90.000000
_cell_angle_beta 90.000000
_cell_angle_gamma 90.000000
_cell_volume 5766.610245
_symmetry_space_group_name_H-M "I M M M"
_symmetry_group_IT_number 71
_symmetry_cell_setting 'orthorhombic'
loop_
_space_group_symop_operation_xyz
x,y,z
-x,-y,z
x,-y,-z
-x,y,-z
-x,-y,-z
x,y,-z
-x,y,z
x,-y,z
1/2+x,1/2+y,1/2+z
1/2-x,1/2-y,1/2+z
1/2+x,1/2-y,1/2-z
1/2-x,1/2+y,1/2-z
1/2-x,1/2-y,1/2-z
1/2+x,1/2+y,1/2-z
1/2-x,1/2+y,1/2+z
1/2+x,1/2-y,1/2+z
loop_
_atom_site_type_symbol
_atom_site_label
_atom_site_fract_x
_atom_site_fract_y
_atom_site_fract_z
Si Si1 0.046104 0.167082 0.332763
Si Si2 0.277988 0.162072 0.838642
Si Si3 0.799652 0.824196 0.336080
Si Si4 0.856317 0.579735 0.665132
Si Si5 0.500000 0.079994 0.166916
Si Si6 0.876261 0.081632 0.666758
Si Si7 0.927061 0.677165 0.667079
O O1 0.044474 0.169746 0.500000
O O2 0.078860 0.107207 0.280649
O O3 0.062846 0.243479 0.272100
O O4 0.000000 0.150901 0.276361
O O5 0.239132 0.143664 0.744411
O O6 0.300553 0.238294 0.804385
O O7 0.309681 0.098833 0.803299
O O8 0.263943 0.161422 0.000000
O O9 0.793973 0.840299 0.500000
O O10 0.840820 0.863426 0.279939
O O11 0.864487 0.576657 0.500000
O O12 0.865717 0.500000 0.729740
O O13 0.885031 0.643444 0.727148
O O14 0.460837 0.121914 0.221906
O O15 0.500000 0.000000 0.232650
O O16 0.500000 0.076296 0.000000
O O17 0.876061 0.082370 0.500000
O O18 0.868363 0.000000 0.723568
O O19 0.926102 0.683406 0.500000
#
# Coordination Sequence:
#
# PCOD8292724 Si02
#       7
#    16  16  16  16   8  16  16
#     4   9  15  23  35  51  73 103 138 174 212 252
#     4   9  17  29  45  64  85 111 144 179 213 251
#     4   9  17  30  46  63  84 112 144 177 214 255
#     4   9  16  24  35  53  78 108 140 173 209 249
#     4   9  14  18  26  42  65  95 132 170 203 240
#     4   9  17  27  39  56  78 106 140 176 214 256
#     4   9  14  21  31  46  70 102 137 170 204 248
#
# _framework density 18.034858
#
# number of rings (size 3 to 8) (size 9 to 14) (size 15 to 20)
#    0.000    3.000    0.769    1.385    0.000    6.462 
#    0.000    1.538    0.000    0.000    0.000    0.000 
#    0.000    0.615    0.000    2.385    0.000    6.538 
#
# Total GULP energy -644328.875411 kJ/mol
# GULP energy per Si atom -12390.939912 kJ/mol
# Density = 1.799381 g / cm^3
# Si number density = 18.034858 Si / 1000 Ang^3
#
#
#
# Elastic Constant Matrix: (Units=GPa)
#
#
# Indices 1 2 3 4 5 6 
#
# 1 143.6109 62.6812 18.9976 0.0000 0.0000 0.0000
# 2 62.6812 99.6391 8.7948 0.0000 0.0000 0.0000
# 3 18.9976 8.7948 10.3304 0.0000 0.0000 0.0000
# 4 0.0000 0.0000 0.0000 7.1170 0.0000 0.0000
# 5 0.0000 0.0000 0.0000 0.0000 12.5508 0.0000
# 6 0.0000 0.0000 0.0000 0.0000 0.0000 25.4284
#
#
#
# Elastic Compliance Matrix: (Units=1/GPa)
#
#
# Indices 1 2 3 4 5 6 
#
# 1 0.011737 -0.005923 -0.016541 0.000000 0.000000 0.000000
# 2 -0.005923 0.013841 -0.000891 0.000000 0.000000 0.000000
# 3 -0.016541 -0.000891 0.127979 0.000000 0.000000 0.000000
# 4 0.000000 0.000000 0.000000 0.140510 0.000000 0.000000
# 5 0.000000 0.000000 0.000000 0.000000 0.079676 0.000000
# 6 0.000000 0.000000 0.000000 0.000000 0.000000 0.039326
#
#
# Mechanical properties :
#
#
# Convention : Reuss Voigt Hill
#
# Bulk Modulus (GPa) = 9.35920 48.28083 28.82001
# Shear Modulus (GPa) = 10.09297 19.89301 14.99299
#
# Velocity S-wave (km/s) = 2.36823 3.32479 2.88641
# Velocity P-wave (km/s) = 3.56073 6.44732 5.20801
#
# Compressibility (1/GPa) = 0.10684679
#
# Stress axis : x y z
#
# Youngs Moduli (GPa) = 85.20254 72.24854 7.81380
#
# Poissons Ratio (x) = 0.42795 0.12925
# Poissons Ratio (y) = 0.50469 0.00696
# Poissons Ratio (z) = 1.40934 0.06434
#
# Static dielectric constant tensor:
#      x y z
#    x 3.563480 0.000000 0.000000 
#    y 0.000000 3.547680 0.000000 
#    z 0.000000 0.000000 2.542990 
# 
# 
# High freq. dielectric constant tensor:
#      x y z
#    x 1.714310 0.000000 0.000000 
#    y 0.000000 1.706410 0.000000 
#    z 0.000000 0.000000 1.599020 
# 
# From -- ./inp_files/30181.got.cif
#   From: 2010.06.25/outbox.cif.g09.slc.cpg/sg71_16_cif.got.tgz:30181.got - 2010.06.28 04:59:45.
