data_PCOD8292539
_publ_section_title
;
Structure prediction by ZEFSAII (Michael W. Deem and Ramdas Pophale) SiO2 
 PCOD8292539
Probable space group: I M M M
;
_chemical_formula_sum "Si O2"
_cell_formula_units_Z 96
_cell_length_a 10.708977
_cell_length_b 30.681395
_cell_length_c 14.791875
_cell_angle_alpha 90.000000
_cell_angle_beta 90.000000
_cell_angle_gamma 90.000000
_cell_volume 4860.112428
_symmetry_space_group_name_H-M "I M M M"
_symmetry_group_IT_number 71
_symmetry_cell_setting 'orthorhombic'
loop_
_space_group_symop_operation_xyz
x,y,z
-x,-y,z
x,-y,-z
-x,y,-z
-x,-y,-z
x,y,-z
-x,y,z
x,-y,z
1/2+x,1/2+y,1/2+z
1/2-x,1/2-y,1/2+z
1/2+x,1/2-y,1/2-z
1/2-x,1/2+y,1/2-z
1/2-x,1/2-y,1/2-z
1/2+x,1/2+y,1/2-z
1/2-x,1/2+y,1/2+z
1/2+x,1/2-y,1/2+z
loop_
_atom_site_type_symbol
_atom_site_label
_atom_site_fract_x
_atom_site_fract_y
_atom_site_fract_z
Si Si1 0.000000 0.703430 0.598464
Si Si2 0.000000 0.723735 0.097518
Si Si3 0.648122 0.000000 0.393322
Si Si4 0.759745 0.241329 0.646159
Si Si5 0.643336 0.551401 0.601935
Si Si6 0.859194 0.149966 0.398367
Si Si7 0.234097 0.583178 0.217873
Si Si8 0.500000 0.855349 0.264984
O O1 0.124750 0.732538 0.605426
O O2 0.000000 0.682294 0.500000
O O3 0.000000 0.662252 0.663421
O O4 0.876041 0.754358 0.105268
O O5 0.000000 0.686996 0.173118
O O6 0.000000 0.700669 0.000000
O O7 0.705880 0.041101 0.342092
O O8 0.500000 0.000000 0.381698
O O9 0.684542 0.000000 0.500000
O O10 0.750000 0.250000 0.750000
O O11 0.771457 0.189871 0.629195
O O12 0.684352 0.566037 0.500000
O O13 0.500000 0.564988 0.618609
O O14 0.658344 0.500000 0.610680
O O15 0.729565 0.573052 0.678461
O O16 0.825516 0.134883 0.500000
O O17 0.844903 0.108959 0.331764
O O18 0.000000 0.166995 0.391713
O O19 0.117603 0.614903 0.217010
#
# Coordination Sequence:
#
# PCOD8292539 Si02
#       8
#     8   8   8  16  16  16  16   8
#     4  12  24  44  67  92 127 172 213 258 328 390
#     4  12  24  40  63  95 124 163 212 265 317 372
#     4  11  24  40  62  89 128 176 214 256 315 387
#     4  12  22  41  65  93 126 165 214 265 317 379
#     4   9  19  38  66  94 119 159 211 258 311 375
#     4  11  23  38  61  93 124 164 211 256 316 388
#     4  12  22  41  62  92 131 165 210 264 318 372
#     4  12  26  39  61  94 124 165 211 265 310 374
#
# _framework density 19.75263
#
# number of rings (size 3 to 8) (size 9 to 14) (size 15 to 20)
#    0.000    0.750    5.833    3.000    0.000    1.333 
#    0.000    0.000    0.000    3.500    0.000    0.000 
#    0.000    0.000    0.000    0.000    0.000    0.000 
#
# Total GULP energy -595060.175689 kJ/mol
# GULP energy per Si atom -12397.086994 kJ/mol
# Density = 1.970767 g / cm^3
# Si number density = 19.752630 Si / 1000 Ang^3
#
#
#
# Elastic Constant Matrix: (Units=GPa)
#
#
# Indices 1 2 3 4 5 6 
#
# 1 112.1348 21.9380 32.3764 0.0001 0.0002 0.0001
# 2 21.9380 61.0193 23.5929 0.0005 0.0001 0.0000
# 3 32.3764 23.5929 153.6289 0.0018 0.0005 0.0009
# 4 0.0001 0.0005 0.0018 5.9506 -0.0002 0.0004
# 5 0.0002 0.0001 0.0005 -0.0002 12.0929 -0.0003
# 6 0.0001 0.0000 0.0009 0.0004 -0.0003 39.7342
#
#
#
# Elastic Compliance Matrix: (Units=1/GPa)
#
#
# Indices 1 2 3 4 5 6 
#
# 1 0.009970 -0.002947 -0.001649 0.000001 0.000000 0.000000
# 2 -0.002947 0.018294 -0.002188 -0.000001 0.000000 0.000000
# 3 -0.001649 -0.002188 0.007193 -0.000002 0.000000 0.000000
# 4 0.000001 -0.000001 -0.000002 0.168049 0.000003 -0.000002
# 5 0.000000 0.000000 0.000000 0.000003 0.082693 0.000001
# 6 0.000000 0.000000 0.000000 -0.000002 0.000001 0.025167
#
#
# Mechanical properties :
#
#
# Convention : Reuss Voigt Hill
#
# Bulk Modulus (GPa) = 45.68539 53.62196 49.65367
# Shear Modulus (GPa) = 15.04977 28.14726 21.59852
#
# Velocity S-wave (km/s) = 2.76327 3.77900 3.31032
# Velocity P-wave (km/s) = 5.77580 6.80050 6.30899
#
# Compressibility (1/GPa) = 0.02188884
#
# Stress axis : x y z
#
# Youngs Moduli (GPa) = 100.29659 54.66286 139.03010
#
# Poissons Ratio (x) = 0.16110 0.22921
# Poissons Ratio (y) = 0.29559 0.30424
# Poissons Ratio (z) = 0.16535 0.11962
#
# Static dielectric constant tensor:
#      x y z
#    x 3.634820 0.000000 0.000000 
#    y 0.000000 3.434900 0.000000 
#    z 0.000000 0.000000 3.877310 
# 
# 
# High freq. dielectric constant tensor:
#      x y z
#    x 1.782930 0.000000 0.000000 
#    y 0.000000 1.750380 0.000000 
#    z 0.000000 0.000000 1.790350 
# 
# From -- ./inp_files/33269.got.cif
#   From: 2010.06.25/outbox.cif.g09.slc.cpg/sg71_17_cif.got.tgz:33269.got - 2010.06.28 04:59:45.
