data_PCOD8292793
_publ_section_title
;
Structure prediction by ZEFSAII (Michael W. Deem and Ramdas Pophale) SiO2 
 PCOD8292793
Probable space group: I M M M
;
_chemical_formula_sum "Si O2"
_cell_formula_units_Z 44
_cell_length_a 18.000000
_cell_length_b 30.000000
_cell_length_c 9.000000
_cell_angle_alpha 90.000000
_cell_angle_beta 90.000000
_cell_angle_gamma 90.000000
_cell_volume 4860.000000
_symmetry_space_group_name_H-M "I M M M"
_symmetry_group_IT_number 71
_symmetry_cell_setting 'orthorhombic'
loop_
_space_group_symop_operation_xyz
x,y,z
-x,-y,z
x,-y,-z
-x,y,-z
-x,-y,-z
x,y,-z
-x,y,z
x,-y,z
1/2+x,1/2+y,1/2+z
1/2-x,1/2-y,1/2+z
1/2+x,1/2-y,1/2-z
1/2-x,1/2+y,1/2-z
1/2-x,1/2-y,1/2-z
1/2+x,1/2+y,1/2-z
1/2-x,1/2+y,1/2+z
1/2+x,1/2-y,1/2+z
loop_
_atom_site_type_symbol
_atom_site_label
_atom_site_fract_x
_atom_site_fract_y
_atom_site_fract_z
Si Si1 0.500000 0.735786 0.662679
Si Si2 0.206763 0.851835 0.330334
Si Si3 0.000000 0.341833 0.167796
Si Si4 0.587911 0.500000 0.832865
Si Si5 0.138994 0.238542 0.665593
Si Si6 0.413418 0.410021 0.675019
Si Si7 0.149238 0.339446 0.324843
O O1 0.500000 0.715162 0.500000
O O2 0.500000 0.788888 0.665739
O O3 0.426882 0.717342 0.739112
O O4 0.208576 0.868773 0.500000
O O5 0.204553 0.797602 0.324774
O O6 0.135030 0.871256 0.248370
O O7 0.282241 0.866546 0.247113
O O8 0.073131 0.358424 0.254771
O O9 0.000000 0.360939 0.000000
O O10 0.500000 0.500000 0.839940
O O11 0.614940 0.543490 0.744385
O O12 0.621265 0.500000 0.000000
O O13 0.107761 0.243792 0.500000
O O14 0.162583 0.287608 0.719553
O O15 0.399457 0.411598 0.500000
O O16 0.500000 0.400988 0.711692
O O17 0.148011 0.347622 0.500000
#
# Coordination Sequence:
#
# PCOD8292793 Si02
#       7
#     8  16   8   8  16  16  16
#     4   9  17  27  43  63  83 112 157 204 243 287
#     4  11  22  33  47  69  98 129 164 207 252 298
#     4   9  17  31  49  67  87 116 157 202 245 295
#     4   9  17  33  57  79  99 128 165 200 243 299
#     4   9  19  32  45  62  89 127 165 205 252 300
#     4  10  21  36  53  75 103 134 168 206 249 296
#     4  10  19  33  50  68  92 125 166 210 256 301
#
# _framework density 9.0534979999999994
#
# number of rings (size 3 to 8) (size 9 to 14) (size 15 to 20)
#    0.000    2.273    0.000    3.000    1.273    6.545 
#    0.000    0.000    0.000    0.000    0.000    0.000 
#    0.000    0.727    0.000    7.273    0.000    4.364 
#
# Total GULP energy -545419.854601 kJ/mol
# GULP energy per Si atom -12395.905786 kJ/mol
# Density = 0.903289 g / cm^3
# Si number density = 9.053498 Si / 1000 Ang^3
#
#
#
# Elastic Constant Matrix: (Units=GPa)
#
#
# Indices 1 2 3 4 5 6 
#
# 1 112.7107 20.0683 72.5109 -0.0012 0.0000 -0.0001
# 2 20.0683 35.0241 22.3476 -0.0019 -0.0004 -0.0002
# 3 72.5109 22.3476 128.2591 -0.0057 -0.0039 -0.0006
# 4 -0.0012 -0.0019 -0.0057 22.2841 -0.0014 -0.0002
# 5 0.0000 -0.0004 -0.0039 -0.0014 33.8351 -0.0009
# 6 -0.0001 -0.0002 -0.0006 -0.0002 -0.0009 10.6217
#
#
#
# Elastic Compliance Matrix: (Units=1/GPa)
#
#
# Indices 1 2 3 4 5 6 
#
# 1 0.014298 -0.003414 -0.007488 -0.000001 -0.000001 0.000000
# 2 -0.003414 0.032938 -0.003809 0.000002 0.000000 0.000000
# 3 -0.007488 -0.003809 0.012694 0.000003 0.000001 0.000001
# 4 -0.000001 0.000002 0.000003 0.044875 0.000002 0.000001
# 5 -0.000001 0.000000 0.000001 0.000002 0.029555 0.000002
# 6 0.000000 0.000000 0.000001 0.000001 0.000002 0.094147
#
#
# Mechanical properties :
#
#
# Convention : Reuss Voigt Hill
#
# Bulk Modulus (GPa) = 32.77930 56.20526 44.49228
# Shear Modulus (GPa) = 18.64987 24.08600 21.36793
#
# Velocity S-wave (km/s) = 3.21281 3.65115 3.43897
# Velocity P-wave (km/s) = 5.64848 6.99161 6.35562
#
# Compressibility (1/GPa) = 0.03050706
#
# Stress axis : x y z
#
# Youngs Moduli (GPa) = 69.94156 30.35968 78.77864
#
# Poissons Ratio (x) = 0.10366 0.58991
# Poissons Ratio (y) = 0.23881 0.30005
# Poissons Ratio (z) = 0.52374 0.11563
#
# Static dielectric constant tensor:
#      x y z
#    x 3.197950 0.000000 0.000000 
#    y 0.000000 2.921950 -0.000010 
#    z 0.000000 -0.000010 3.492110 
# 
# 
# High freq. dielectric constant tensor:
#      x y z
#    x 1.689790 0.000000 0.000000 
#    y 0.000000 1.642320 0.000000 
#    z 0.000000 0.000000 1.717790 
# 
# From -- ./inp_files/8928.got.cif
#   From: 2010.06.25/outbox.ucp.g09.slc.cvg/sg71_5_cif.got.tgz:8928.got - 2010.06.28 16:23:14.
