data_PCOD8292556
_publ_section_title
;
Structure prediction by ZEFSAII (Michael W. Deem and Ramdas Pophale) SiO2 
 PCOD8292556
Probable space group: I M M M
;
_chemical_formula_sum "Si O2"
_cell_formula_units_Z 88
_cell_length_a 18.336480
_cell_length_b 28.978801
_cell_length_c 8.094453
_cell_angle_alpha 90.000000
_cell_angle_beta 90.000000
_cell_angle_gamma 90.000000
_cell_volume 4301.143055
_symmetry_space_group_name_H-M "I M M M"
_symmetry_group_IT_number 71
_symmetry_cell_setting 'orthorhombic'
loop_
_space_group_symop_operation_xyz
x,y,z
-x,-y,z
x,-y,-z
-x,y,-z
-x,-y,-z
x,y,-z
-x,y,z
x,-y,z
1/2+x,1/2+y,1/2+z
1/2-x,1/2-y,1/2+z
1/2+x,1/2-y,1/2-z
1/2-x,1/2+y,1/2-z
1/2-x,1/2-y,1/2-z
1/2+x,1/2+y,1/2-z
1/2-x,1/2+y,1/2+z
1/2+x,1/2-y,1/2+z
loop_
_atom_site_type_symbol
_atom_site_label
_atom_site_fract_x
_atom_site_fract_y
_atom_site_fract_z
Si Si1 0.081731 0.304087 0.308131
Si Si2 0.584786 0.391498 0.694188
Si Si3 0.650492 0.898827 0.810042
Si Si4 0.414718 0.949494 0.500000
Si Si5 0.419025 0.290947 0.694257
Si Si6 0.213620 0.052755 0.309920
O O1 0.070731 0.302045 0.500000
O O2 0.136970 0.345356 0.261792
O O3 0.121193 0.256126 0.251026
O O4 0.000000 0.311197 0.227602
O O5 0.595955 0.398579 0.500000
O O6 0.500000 0.397401 0.741463
O O7 0.613779 0.340343 0.751787
O O8 0.630737 0.429986 0.790508
O O9 0.606708 0.926953 0.673509
O O10 0.735179 0.913333 0.797628
O O11 0.623926 0.908326 0.000000
O O12 0.500000 0.952585 0.500000
O O13 0.378242 0.000000 0.500000
O O14 0.422778 0.292616 0.500000
O O15 0.500000 0.287082 0.770089
O O16 0.238315 0.055960 0.500000
O O17 0.219056 0.000000 0.246665
#
# Coordination Sequence:
#
# PCOD8292556 Si02
#       6
#    16  16  16   8  16  16
#     4   9  18  32  53  84 117 151 195 241 287 349
#     4   9  19  37  60  88 119 150 193 245 298 363
#     4  11  23  40  61  86 121 161 204 250 304 355
#     4  11  24  40  60  88 119 155 203 255 305 357
#     4   8  15  29  52  82 115 151 188 232 290 351
#     4  11  24  41  60  83 113 153 203 253 305 367
#
# _framework density 20.459678
#
# number of rings (size 3 to 8) (size 9 to 14) (size 15 to 20)
#    0.000    2.273    0.909    2.727    1.273    5.091 
#    0.000    5.455    0.000    0.000    0.000    0.000 
#    0.000    0.000    0.000    0.000    0.000    0.000 
#
# Total GULP energy -545124.161717 kJ/mol
# GULP energy per Si atom -12389.185494 kJ/mol
# Density = 2.041311 g / cm^3
# Si number density = 20.459678 Si / 1000 Ang^3
#
#
#
# Elastic Constant Matrix: (Units=GPa)
#
#
# Indices 1 2 3 4 5 6 
#
# 1 69.2664 54.3261 16.3925 0.0000 0.0001 0.0000
# 2 54.3261 141.6107 28.6048 0.0000 0.0000 0.0000
# 3 16.3925 28.6048 65.8355 0.0010 0.0013 -0.0002
# 4 0.0000 0.0000 0.0010 30.9460 0.0002 0.0000
# 5 0.0001 0.0000 0.0013 0.0002 24.8365 0.0000
# 6 0.0000 0.0000 -0.0002 0.0000 0.0000 23.2874
#
#
#
# Elastic Compliance Matrix: (Units=1/GPa)
#
#
# Indices 1 2 3 4 5 6 
#
# 1 0.020861 -0.007623 -0.001882 0.000000 0.000000 0.000000
# 2 -0.007623 0.010526 -0.002676 0.000000 0.000000 0.000000
# 3 -0.001882 -0.002676 0.016821 -0.000001 -0.000001 0.000000
# 4 0.000000 0.000000 -0.000001 0.032314 0.000000 0.000000
# 5 0.000000 0.000000 -0.000001 0.000000 0.040263 0.000000
# 6 0.000000 0.000000 0.000000 0.000000 0.000000 0.042942
#
#
# Mechanical properties :
#
#
# Convention : Reuss Voigt Hill
#
# Bulk Modulus (GPa) = 41.93427 52.81771 47.37599
# Shear Modulus (GPa) = 25.50535 27.63993 26.57264
#
# Velocity S-wave (km/s) = 3.53457 3.67951 3.60777
# Velocity P-wave (km/s) = 6.09903 6.62746 6.36873
#
# Compressibility (1/GPa) = 0.02384685
#
# Stress axis : x y z
#
# Youngs Moduli (GPa) = 47.93637 94.99957 59.45107
#
# Poissons Ratio (x) = 0.72415 0.11190
# Poissons Ratio (y) = 0.36540 0.15907
# Poissons Ratio (z) = 0.09023 0.25418
#
# Static dielectric constant tensor:
#      x y z
#    x 3.545400 0.000000 0.000000 
#    y 0.000000 4.327690 0.000000 
#    z 0.000000 0.000000 3.551580 
# 
# 
# High freq. dielectric constant tensor:
#      x y z
#    x 1.767380 0.000000 0.000000 
#    y 0.000000 1.815020 0.000000 
#    z 0.000000 0.000000 1.793260 
# 
# From -- ./inp_files/10481.got.cif
#   From: 2010.06.25/outbox.cif.g09.slc.cpg/sg71_6_cif.got.tgz:10481.got - 2010.06.28 04:59:45.
