data_PCOD8292881
_publ_section_title
;
Structure prediction by ZEFSAII (Michael W. Deem and Ramdas Pophale) SiO2 
 PCOD8292881
Probable space group: I B A M
;
_chemical_formula_sum "Si O2"
_cell_formula_units_Z 88
_cell_length_a 20.140311
_cell_length_b 13.831809
_cell_length_c 18.859905
_cell_angle_alpha 90.000000
_cell_angle_beta 90.000000
_cell_angle_gamma 90.000000
_cell_volume 5253.934528
_symmetry_space_group_name_H-M "I B A M"
_symmetry_group_IT_number 72
_symmetry_cell_setting 'orthorhombic'
loop_
_space_group_symop_operation_xyz
x,y,z
-x,-y,z
x,-y,1/2-z
-x,y,1/2-z
-x,-y,-z
x,y,-z
-x,y,1/2+z
x,-y,1/2+z
1/2+x,1/2+y,1/2+z
1/2-x,1/2-y,1/2+z
1/2+x,1/2-y,-z
1/2-x,1/2+y,-z
1/2-x,1/2-y,1/2-z
1/2+x,1/2+y,1/2-z
1/2-x,1/2+y,z
1/2+x,1/2-y,z
loop_
_atom_site_type_symbol
_atom_site_label
_atom_site_fract_x
_atom_site_fract_y
_atom_site_fract_z
Si Si1 0.630059 0.500000 0.750000
Si Si2 0.728077 0.556006 0.628874
Si Si3 0.305020 0.777607 0.693576
Si Si4 0.248942 0.351790 0.921195
Si Si5 0.072757 0.797319 0.728186
Si Si6 0.633220 0.714602 0.421296
O O1 0.677559 0.508858 0.683502
O O2 0.583790 0.405917 0.743454
O O3 0.788807 0.614646 0.665533
O O4 0.758051 0.467219 0.585541
O O5 0.686400 0.627467 0.578981
O O6 0.250000 0.750000 0.750000
O O7 0.302171 0.697925 0.631160
O O8 0.375960 0.774687 0.732502
O O9 0.174661 0.312276 0.908039
O O10 0.273631 0.326108 0.000000
O O11 0.079933 0.794050 0.642286
O O12 0.000000 0.762086 0.750000
O O13 0.599114 0.714915 0.500000
#
# Coordination Sequence:
#
# PCOD8292881 Si02
#       6
#     8  16  16  16  16  16
#     4  10  17  30  54  76 103 138 170 218 259 310
#     4  10  17  28  54  77 104 132 175 218 265 303
#     4  11  18  34  52  79 104 139 177 219 262 307
#     4  10  18  30  52  80 106 134 173 222 269 309
#     4  11  21  34  53  77 109 142 178 212 259 318
#     4   9  19  33  50  75 105 138 173 211 266 318
#
# _framework density 16.749351999999998
#
# number of rings (size 3 to 8) (size 9 to 14) (size 15 to 20)
#    0.000    1.818    7.273    0.818    0.000    0.727 
#    0.000    0.909    0.000    4.364    0.000    2.545 
#    0.000    0.000    0.000    0.000    0.000    0.000 
#
# Total GULP energy -545378.128759 kJ/mol
# GULP energy per Si atom -12394.957472 kJ/mol
# Density = 1.671123 g / cm^3
# Si number density = 16.749352 Si / 1000 Ang^3
#
#
#
# Elastic Constant Matrix: (Units=GPa)
#
#
# Indices 1 2 3 4 5 6 
#
# 1 99.2532 28.6202 48.2199 0.0000 0.0000 0.0000
# 2 28.6202 75.7638 34.7440 0.0000 0.0000 0.0000
# 3 48.2199 34.7440 112.4175 0.0000 0.0000 0.0000
# 4 0.0000 0.0000 0.0000 24.1867 0.0000 0.0000
# 5 0.0000 0.0000 0.0000 0.0000 -3.5048 0.0000
# 6 0.0000 0.0000 0.0000 0.0000 0.0000 16.4175
#
#
#
# Elastic Compliance Matrix: (Units=1/GPa)
#
#
# Indices 1 2 3 4 5 6 
#
# 1 0.013214 -0.002788 -0.004807 0.000000 0.000000 0.000000
# 2 -0.002788 0.015967 -0.003739 0.000000 0.000000 0.000000
# 3 -0.004807 -0.003739 0.012113 0.000000 0.000000 0.000000
# 4 0.000000 0.000000 0.000000 0.041345 0.000000 0.000000
# 5 0.000000 0.000000 0.000000 0.000000 -0.285323 0.000000
# 6 0.000000 0.000000 0.000000 0.000000 0.000000 0.060910
#
#
# Mechanical properties :
#
#
# Convention : Reuss Voigt Hill
#
# Bulk Modulus (GPa) = 53.68451 56.73362 55.20906
# Shear Modulus (GPa) = -44.28739 19.14325 -12.57207
#
# Velocity S-wave (km/s) = -5.14768 3.38438 -2.74268
# Velocity P-wave (km/s) = 1.79172 7.01554 4.79622
#
# Compressibility (1/GPa) = 0.01862735
#
# Stress axis : x y z
#
# Youngs Moduli (GPa) = 75.67629 62.63089 82.55814
#
# Poissons Ratio (x) = 0.17459 0.39682
# Poissons Ratio (y) = 0.21095 0.30868
# Poissons Ratio (z) = 0.36374 0.23418
#
# Static dielectric constant tensor:
#      x y z
#    x 2.844740 0.000000 0.000000 
#    y 0.000000 2.807860 0.000000 
#    z 0.000000 0.000000 3.589350 
# 
# 
# High freq. dielectric constant tensor:
#      x y z
#    x 1.595010 0.000000 0.000000 
#    y 0.000000 1.647200 0.000000 
#    z 0.000000 0.000000 1.660320 
# 
# From -- ./inp_files/32467.got.cif
#   From: 2010.03.12/outbox.cif.g09.slc.cpg/sg72_17_cif.got.tgz:32467.got - 2010.04.16 14:54:00.
