data_PCOD8292449
_publ_section_title
;
Structure prediction by ZEFSAII (Michael W. Deem and Ramdas Pophale) SiO2 
 PCOD8292449
Probable space group: I M M M
;
_chemical_formula_sum "Si O2"
_cell_formula_units_Z 96
_cell_length_a 8.687966
_cell_length_b 20.553792
_cell_length_c 27.935122
_cell_angle_alpha 90.000000
_cell_angle_beta 90.000000
_cell_angle_gamma 90.000000
_cell_volume 4988.392784
_symmetry_space_group_name_H-M "I M M M"
_symmetry_group_IT_number 71
_symmetry_cell_setting 'orthorhombic'
loop_
_space_group_symop_operation_xyz
x,y,z
-x,-y,z
x,-y,-z
-x,y,-z
-x,-y,-z
x,y,-z
-x,y,z
x,-y,z
1/2+x,1/2+y,1/2+z
1/2-x,1/2-y,1/2+z
1/2+x,1/2-y,1/2-z
1/2-x,1/2+y,1/2-z
1/2-x,1/2-y,1/2-z
1/2+x,1/2+y,1/2-z
1/2-x,1/2+y,1/2+z
1/2+x,1/2-y,1/2+z
loop_
_atom_site_type_symbol
_atom_site_label
_atom_site_fract_x
_atom_site_fract_y
_atom_site_fract_z
Si Si1 0.183233 0.189553 0.446453
Si Si2 0.316926 0.572239 0.116571
Si Si3 0.679083 0.574926 0.445190
Si Si4 0.182937 0.928463 0.723773
Si Si5 0.182270 0.193110 0.781878
Si Si6 0.819354 0.687447 0.385824
O O1 0.251050 0.189543 0.500000
O O2 0.251635 0.126626 0.418954
O O3 0.238206 0.255275 0.420675
O O4 0.000000 0.186513 0.447534
O O5 0.500000 0.575550 0.115961
O O6 0.262678 0.500000 0.100290
O O7 0.256820 0.587059 0.170200
O O8 0.724846 0.590369 0.500000
O O9 0.500000 0.589542 0.436771
O O10 0.715985 0.500000 0.433296
O O11 0.778471 0.618589 0.409512
O O12 0.246342 0.874951 0.760552
O O13 0.000000 0.927709 0.723166
O O14 0.241722 0.000000 0.739969
O O15 0.250000 0.250000 0.750000
O O16 0.234221 0.198368 0.836162
O O17 0.000000 0.196552 0.778933
O O18 0.000000 0.691101 0.376406
#
# Coordination Sequence:
#
# PCOD8292449 Si02
#       6
#    16  16  16  16  16  16
#     4   9  17  28  43  67 100 134 166 204 252 303
#     4   8  13  23  41  65  94 127 161 198 243 297
#     4   9  19  37  59  81 107 141 181 225 273 326
#     4   8  15  29  49  72  98 130 166 204 253 314
#     4  11  22  36  55  78 105 139 179 224 272 323
#     4  11  22  35  52  76 107 142 179 221 269 321
#
# _framework density 19.244676999999999
#
# number of rings (size 3 to 8) (size 9 to 14) (size 15 to 20)
#    0.000    2.667    0.000    4.000    0.000    5.000 
#    0.000    4.167    0.000    1.500    0.000    0.000 
#    0.000    2.000    0.000   13.500    0.000   12.667 
#
# Total GULP energy -595086.859287 kJ/mol
# GULP energy per Si atom -12397.642902 kJ/mol
# Density = 1.920087 g / cm^3
# Si number density = 19.244677 Si / 1000 Ang^3
#
#
#
# Elastic Constant Matrix: (Units=GPa)
#
#
# Indices 1 2 3 4 5 6 
#
# 1 34.0980 29.9483 26.5554 0.0000 0.0000 0.0000
# 2 29.9483 143.3353 79.1809 0.0000 0.0000 0.0000
# 3 26.5554 79.1809 134.0648 0.0000 0.0000 0.0000
# 4 0.0000 0.0000 0.0000 44.2345 0.0000 0.0000
# 5 0.0000 0.0000 0.0000 0.0000 25.2621 0.0000
# 6 0.0000 0.0000 0.0000 0.0000 0.0000 21.3976
#
#
#
# Elastic Compliance Matrix: (Units=1/GPa)
#
#
# Indices 1 2 3 4 5 6 
#
# 1 0.037410 -0.005526 -0.004147 0.000000 0.000000 0.000000
# 2 -0.005526 0.011171 -0.005503 0.000000 0.000000 0.000000
# 3 -0.004147 -0.005503 0.011531 0.000000 0.000000 0.000000
# 4 0.000000 0.000000 0.000000 0.022607 0.000000 0.000000
# 5 0.000000 0.000000 0.000000 0.000000 0.039585 0.000000
# 6 0.000000 0.000000 0.000000 0.000000 0.000000 0.046734
#
#
# Mechanical properties :
#
#
# Convention : Reuss Voigt Hill
#
# Bulk Modulus (GPa) = 33.60144 64.76303 49.18224
# Shear Modulus (GPa) = 23.88803 29.89973 26.89388
#
# Velocity S-wave (km/s) = 3.52700 3.94593 3.74233
# Velocity P-wave (km/s) = 5.83818 7.38146 6.65471
#
# Compressibility (1/GPa) = 0.02976063
#
# Stress axis : x y z
#
# Youngs Moduli (GPa) = 26.73092 89.51418 86.72375
#
# Poissons Ratio (x) = 0.49463 0.35960
# Poissons Ratio (y) = 0.14771 0.47728
# Poissons Ratio (z) = 0.11084 0.49264
#
# Static dielectric constant tensor:
#      x y z
#    x 3.003520 0.000000 0.000000 
#    y 0.000000 3.843980 0.000000 
#    z 0.000000 0.000000 3.557180 
# 
# 
# High freq. dielectric constant tensor:
#      x y z
#    x 1.697220 0.000000 0.000000 
#    y 0.000000 1.766890 0.000000 
#    z 0.000000 0.000000 1.753780 
# 
# From -- ./inp_files/14852.got.cif
#   From: 2010.06.25/outbox.cif.g09.slc.cpg/sg71_8_cif.got.tgz:14852.got - 2010.06.28 04:59:45.
