data_PCOD8292034
_publ_section_title
;
Structure prediction by ZEFSAII (Michael W. Deem and Ramdas Pophale) SiO2 
 PCOD8292034
Probable space group: I M M M
;
_chemical_formula_sum "Si O2"
_cell_formula_units_Z 120
_cell_length_a 23.290478
_cell_length_b 13.972408
_cell_length_c 19.176191
_cell_angle_alpha 90.000000
_cell_angle_beta 90.000000
_cell_angle_gamma 90.000000
_cell_volume 6240.393952
_symmetry_space_group_name_H-M "I M M M"
_symmetry_group_IT_number 71
_symmetry_cell_setting 'orthorhombic'
loop_
_space_group_symop_operation_xyz
x,y,z
-x,-y,z
x,-y,-z
-x,y,-z
-x,-y,-z
x,y,-z
-x,y,z
x,-y,z
1/2+x,1/2+y,1/2+z
1/2-x,1/2-y,1/2+z
1/2+x,1/2-y,1/2-z
1/2-x,1/2+y,1/2-z
1/2-x,1/2-y,1/2-z
1/2+x,1/2+y,1/2-z
1/2-x,1/2+y,1/2+z
1/2+x,1/2-y,1/2+z
loop_
_atom_site_type_symbol
_atom_site_label
_atom_site_fract_x
_atom_site_fract_y
_atom_site_fract_z
Si Si1 0.713223 0.386097 0.163089
Si Si2 0.436928 0.206361 0.579137
Si Si3 0.500000 0.608487 0.082512
Si Si4 0.283392 0.613216 0.317902
Si Si5 0.614922 0.280974 0.916945
Si Si6 0.842513 0.390699 0.828600
Si Si7 0.880384 0.106072 0.078418
Si Si8 0.156062 0.610474 0.332684
O O1 0.710228 0.500000 0.154808
O O2 0.695634 0.352699 0.241395
O O3 0.670515 0.340852 0.106932
O O4 0.779068 0.349369 0.153859
O O5 0.426540 0.172257 0.500000
O O6 0.500000 0.174952 0.604615
O O7 0.389324 0.162496 0.627029
O O8 0.433811 0.322091 0.583827
O O9 0.500000 0.500000 0.113421
O O10 0.557127 0.664271 0.107644
O O11 0.500000 0.602443 0.000000
O O12 0.275718 0.500000 0.315047
O O13 0.329683 0.647416 0.373638
O O14 0.220915 0.652090 0.340550
O O15 0.615167 0.176388 0.880618
O O16 0.616866 0.268184 0.000000
O O17 0.843297 0.500000 0.851349
O O18 0.860348 0.379570 0.748200
O O19 0.900106 0.000000 0.102643
O O20 0.855907 0.102625 0.000000
O O21 0.149766 0.500000 0.357341
#
# Coordination Sequence:
#
# PCOD8292034 Si02
#       8
#    16  16   8  16  16  16  16  16
#     4   9  19  35  57  85 113 142 181 230 279 332
#     4  10  22  37  54  79 111 148 188 231 280 329
#     4   9  20  42  63  79 111 149 179 220 276 342
#     4   8  16  32  54  79 111 149 181 219 281 336
#     4  11  23  36  58  87 111 148 190 225 281 339
#     4   9  20  39  59  80 110 147 186 231 284 333
#     4   9  18  32  52  79 111 149 190 226 266 325
#     4   9  20  38  57  82 115 149 185 227 279 337
#
# _framework density 19.229555000000001
#
# number of rings (size 3 to 8) (size 9 to 14) (size 15 to 20)
#    0.000    2.733    0.000    2.000    3.733    4.000 
#    1.200    5.000    0.000    1.200    0.000    0.000 
#    0.000    0.000    0.000    0.000    0.000    0.000 
#
# Total GULP energy -743730.688854 kJ/mol
# GULP energy per Si atom -12395.511481 kJ/mol
# Density = 1.918579 g / cm^3
# Si number density = 19.229555 Si / 1000 Ang^3
#
#
#
# Elastic Constant Matrix: (Units=GPa)
#
#
# Indices 1 2 3 4 5 6 
#
# 1 103.1668 59.0053 52.6667 0.0000 0.0000 0.0000
# 2 59.0053 75.3913 45.5143 0.0000 0.0000 0.0000
# 3 52.6667 45.5143 74.1579 0.0000 0.0000 0.0000
# 4 0.0000 0.0000 0.0000 31.5654 0.0000 0.0000
# 5 0.0000 0.0000 0.0000 0.0000 -419.5631 0.0000
# 6 0.0000 0.0000 0.0000 0.0000 0.0000 25.6232
#
#
#
# Elastic Compliance Matrix: (Units=1/GPa)
#
#
# Indices 1 2 3 4 5 6 
#
# 1 0.019700 -0.011075 -0.007193 0.000000 0.000000 0.000000
# 2 -0.011075 0.027299 -0.008889 0.000000 0.000000 0.000000
# 3 -0.007193 -0.008889 0.024049 0.000000 0.000000 0.000000
# 4 0.000000 0.000000 0.000000 0.031680 0.000000 0.000000
# 5 0.000000 0.000000 0.000000 0.000000 -0.002383 0.000000
# 6 0.000000 0.000000 0.000000 0.000000 0.000000 0.039027
#
#
# Mechanical properties :
#
#
# Convention : Reuss Voigt Hill
#
# Bulk Modulus (GPa) = 59.76430 63.00984 61.38707
# Shear Modulus (GPa) = 25.09253 -66.10624 -20.50685
#
# Velocity S-wave (km/s) = 3.61625 -5.86959 -3.26916
# Velocity P-wave (km/s) = 6.97017 3.61908 4.21221
#
# Compressibility (1/GPa) = 0.01673240
#
# Stress axis : x y z
#
# Youngs Moduli (GPa) = 50.76246 36.63198 41.58247
#
# Poissons Ratio (x) = 0.40572 0.29910
# Poissons Ratio (y) = 0.56222 0.36961
# Poissons Ratio (z) = 0.36514 0.32561
#
# Static dielectric constant tensor:
#      x y z
#    x 3.447680 0.000000 0.000000 
#    y 0.000000 3.638670 0.000000 
#    z 0.000000 0.000000 3.420740 
# 
# 
# High freq. dielectric constant tensor:
#      x y z
#    x 1.732100 0.000000 0.000000 
#    y 0.000000 1.761980 0.000000 
#    z 0.000000 0.000000 1.735110 
# 
# From -- ./inp_files/55151.got.cif
#   From: 2010.06.25/outbox.cif.g09.slc.cpg/sg71_28_cif.got.tgz:55151.got - 2010.06.28 04:59:45.
