data_PCOD8292738
_publ_section_title
;
Structure prediction by ZEFSAII (Michael W. Deem and Ramdas Pophale) SiO2 
 PCOD8292738
Probable space group: I M M M
;
_chemical_formula_sum "Si O2"
_cell_formula_units_Z 72
_cell_length_a 23.902096
_cell_length_b 9.256551
_cell_length_c 22.512546
_cell_angle_alpha 90.000000
_cell_angle_beta 90.000000
_cell_angle_gamma 90.000000
_cell_volume 4980.922654
_symmetry_space_group_name_H-M "I M M M"
_symmetry_group_IT_number 71
_symmetry_cell_setting 'orthorhombic'
loop_
_space_group_symop_operation_xyz
x,y,z
-x,-y,z
x,-y,-z
-x,y,-z
-x,-y,-z
x,y,-z
-x,y,z
x,-y,z
1/2+x,1/2+y,1/2+z
1/2-x,1/2-y,1/2+z
1/2+x,1/2-y,1/2-z
1/2-x,1/2+y,1/2-z
1/2-x,1/2-y,1/2-z
1/2+x,1/2+y,1/2-z
1/2-x,1/2+y,1/2+z
1/2+x,1/2-y,1/2+z
loop_
_atom_site_type_symbol
_atom_site_label
_atom_site_fract_x
_atom_site_fract_y
_atom_site_fract_z
Si Si1 0.329120 0.663490 0.215702
Si Si2 0.266432 0.334067 0.567257
Si Si3 0.641068 0.168180 0.895136
Si Si4 0.798812 0.336857 0.175763
Si Si5 0.937061 0.328123 0.500000
O O1 0.350598 0.500000 0.223624
O O2 0.365947 0.742371 0.165548
O O3 0.264830 0.666281 0.196872
O O4 0.336714 0.747908 0.277780
O O5 0.283726 0.296497 0.500000
O O6 0.279353 0.500000 0.582747
O O7 0.200806 0.303223 0.574765
O O8 0.303378 0.235639 0.610941
O O9 0.633140 0.000000 0.879838
O O10 0.594379 0.226292 0.940855
O O11 0.821541 0.500000 0.172136
O O12 0.935927 0.500000 0.500000
O O13 0.000000 0.266578 0.500000
#
# Coordination Sequence:
#
# PCOD8292738 Si02
#       5
#    16  16  16  16   8
#     4   9  16  25  36  50  67  88 114 146 183 221
#     4   9  15  23  35  50  70  96 123 149 180 217
#     4   9  15  25  39  53  68  90 120 153 188 223
#     4   9  16  24  34  50  69  89 114 147 181 213
#     4   9  16  26  41  59  75  93 123 161 197 231
#
# _framework density 14.455152
#
# number of rings (size 3 to 8) (size 9 to 14) (size 15 to 20)
#    0.000    3.000    1.111    1.333    0.000    5.778 
#    0.000    0.556    0.000    1.333    0.000    0.000 
#    0.000    0.000    0.000    0.000    0.000    1.111 
#
# Total GULP energy -446312.058897 kJ/mol
# GULP energy per Si atom -12397.557192 kJ/mol
# Density = 1.442225 g / cm^3
# Si number density = 14.455152 Si / 1000 Ang^3
#
#
#
# Elastic Constant Matrix: (Units=GPa)
#
#
# Indices 1 2 3 4 5 6 
#
# 1 29.5944 21.6983 35.9353 0.0000 0.0000 0.0000
# 2 21.6983 98.1162 72.6819 0.0000 0.0000 0.0000
# 3 35.9353 72.6819 138.0072 0.0000 0.0000 0.0000
# 4 0.0000 0.0000 0.0000 29.7522 0.0000 0.0000
# 5 0.0000 0.0000 0.0000 0.0000 11.9399 0.0000
# 6 0.0000 0.0000 0.0000 0.0000 0.0000 6.7981
#
#
#
# Elastic Compliance Matrix: (Units=1/GPa)
#
#
# Indices 1 2 3 4 5 6 
#
# 1 0.049729 -0.002304 -0.011735 0.000000 0.000000 0.000000
# 2 -0.002304 0.016819 -0.008258 0.000000 0.000000 0.000000
# 3 -0.011735 -0.008258 0.014651 0.000000 0.000000 0.000000
# 4 0.000000 0.000000 0.000000 0.033611 0.000000 0.000000
# 5 0.000000 0.000000 0.000000 0.000000 0.083753 0.000000
# 6 0.000000 0.000000 0.000000 0.000000 0.000000 0.147100
#
#
# Mechanical properties :
#
#
# Convention : Reuss Voigt Hill
#
# Bulk Modulus (GPa) = 27.31929 58.48319 42.90124
# Shear Modulus (GPa) = 12.42366 18.72487 15.57426
#
# Velocity S-wave (km/s) = 2.93484 3.60304 3.28597
# Velocity P-wave (km/s) = 5.51586 7.60627 6.64380
#
# Compressibility (1/GPa) = 0.03660418
#
# Stress axis : x y z
#
# Youngs Moduli (GPa) = 20.10880 59.45815 68.25678
#
# Poissons Ratio (x) = 0.13702 0.80101
# Poissons Ratio (y) = 0.04634 0.56363
# Poissons Ratio (z) = 0.23598 0.49098
#
# Static dielectric constant tensor:
#      x y z
#    x 2.289370 0.000000 0.000000 
#    y 0.000000 2.862360 0.000000 
#    z 0.000000 0.000000 2.985680 
# 
# 
# High freq. dielectric constant tensor:
#      x y z
#    x 1.468660 0.000000 0.000000 
#    y 0.000000 1.553290 0.000000 
#    z 0.000000 0.000000 1.564060 
# 
# From -- ./inp_files/10122.got.cif
#   From: 2010.06.25/outbox.cif.g09.slc.cpg/sg71_6_cif.got.tgz:10122.got - 2010.06.28 04:59:45.
