data_PCOD8292878
_publ_section_title
;
Structure prediction by ZEFSAII (Michael W. Deem and Ramdas Pophale) SiO2 
 PCOD8292878
Probable space group: I B A M
;
_chemical_formula_sum "Si O2"
_cell_formula_units_Z 116
_cell_length_a 24.863992
_cell_length_b 17.666978
_cell_length_c 14.664572
_cell_angle_alpha 90.000000
_cell_angle_beta 90.000000
_cell_angle_gamma 90.000000
_cell_volume 6441.730001
_symmetry_space_group_name_H-M "I B A M"
_symmetry_group_IT_number 72
_symmetry_cell_setting 'orthorhombic'
loop_
_space_group_symop_operation_xyz
x,y,z
-x,-y,z
x,-y,1/2-z
-x,y,1/2-z
-x,-y,-z
x,y,-z
-x,y,1/2+z
x,-y,1/2+z
1/2+x,1/2+y,1/2+z
1/2-x,1/2-y,1/2+z
1/2+x,1/2-y,-z
1/2-x,1/2+y,-z
1/2-x,1/2-y,1/2-z
1/2+x,1/2+y,1/2-z
1/2-x,1/2+y,z
1/2+x,1/2-y,z
loop_
_atom_site_type_symbol
_atom_site_label
_atom_site_fract_x
_atom_site_fract_y
_atom_site_fract_z
Si Si1 0.000000 0.500000 0.750000
Si Si2 0.592848 0.746170 0.398809
Si Si3 0.571332 0.759749 0.104670
Si Si4 0.327544 0.415057 0.750138
Si Si5 0.016749 0.618984 0.395900
Si Si6 0.442857 0.635464 0.748514
Si Si7 0.207942 0.197435 0.105425
Si Si8 0.688062 0.712722 0.894645
O O1 0.031250 0.553835 0.677916
O O2 0.585489 0.712379 0.500000
O O3 0.569590 0.829890 0.392354
O O4 0.559686 0.693169 0.332431
O O5 0.656212 0.750557 0.374430
O O6 0.537590 0.834647 0.134805
O O7 0.554337 0.684673 0.156946
O O8 0.635945 0.767159 0.120541
O O9 0.556900 0.744450 0.000000
O O10 0.304619 0.500000 0.750000
O O11 0.392545 0.420717 0.745101
O O12 0.300517 0.379426 0.660944
O O13 0.313514 0.365699 0.839081
O O14 0.009124 0.587761 0.500000
O O15 0.500000 0.590613 0.750000
O O16 0.260704 0.240527 0.140406
O O17 0.213913 0.175205 0.000000
O O18 0.693915 0.689384 0.000000
#
# Coordination Sequence:
#
# PCOD8292878 Si02
#       8
#     4  16  16  16  16  16  16  16
#     4  12  22  32  44  66 100 136 164 188 248 324
#     4   9  17  30  51  76  96 118 160 213 248 277
#     4   9  17  30  51  76  96 118 160 213 248 277
#     4  10  21  33  48  75 111 139 159 198 253 301
#     4  10  19  31  49  70  97 127 159 204 253 294
#     4  10  17  28  48  73  99 131 167 196 233 285
#     4   9  18  34  58  79  96 128 173 212 245 289
#     4   9  18  34  58  79  96 128 173 212 245 289
#
# _framework density 18.007586
#
# number of rings (size 3 to 8) (size 9 to 14) (size 15 to 20)
#    0.000    2.483    1.379    1.448    0.000    0.828 
#    0.000    0.000    6.069    0.000    0.000    7.724 
#    0.000    0.000    0.000    0.000    0.000    0.000 
#
# Total GULP energy -718563.827951 kJ/mol
# GULP energy per Si atom -12389.031516 kJ/mol
# Density = 1.796660 g / cm^3
# Si number density = 18.007586 Si / 1000 Ang^3
#
#
#
# Elastic Constant Matrix: (Units=GPa)
#
#
# Indices 1 2 3 4 5 6 
#
# 1 119.1530 39.6593 20.2821 0.0000 0.0000 0.0000
# 2 39.6593 95.4462 39.8714 0.0000 0.0000 0.0000
# 3 20.2821 39.8714 73.4485 0.0000 0.0000 0.0000
# 4 0.0000 0.0000 0.0000 17.0400 0.0000 0.0000
# 5 0.0000 0.0000 0.0000 0.0000 18.6452 0.0000
# 6 0.0000 0.0000 0.0000 0.0000 0.0000 9.2386
#
#
#
# Elastic Compliance Matrix: (Units=1/GPa)
#
#
# Indices 1 2 3 4 5 6 
#
# 1 0.009763 -0.003790 -0.000639 0.000000 0.000000 0.000000
# 2 -0.003790 0.015021 -0.007108 0.000000 0.000000 0.000000
# 3 -0.000639 -0.007108 0.017650 0.000000 0.000000 0.000000
# 4 0.000000 0.000000 0.000000 0.058685 0.000000 0.000000
# 5 0.000000 0.000000 0.000000 0.000000 0.053633 0.000000
# 6 0.000000 0.000000 0.000000 0.000000 0.000000 0.108242
#
#
# Mechanical properties :
#
#
# Convention : Reuss Voigt Hill
#
# Bulk Modulus (GPa) = 51.64924 54.18592 52.91758
# Shear Modulus (GPa) = 17.09290 21.53375 19.31332
#
# Velocity S-wave (km/s) = 3.08426 3.46181 3.27847
# Velocity P-wave (km/s) = 6.43644 6.79226 6.61674
#
# Compressibility (1/GPa) = 0.01936137
#
# Stress axis : x y z
#
# Youngs Moduli (GPa) = 102.43092 66.57387 56.65835
#
# Poissons Ratio (x) = 0.25230 0.03618
# Poissons Ratio (y) = 0.38819 0.40270
# Poissons Ratio (z) = 0.06541 0.47318
#
# Static dielectric constant tensor:
#      x y z
#    x 3.526900 0.000000 0.000000 
#    y 0.000000 2.943260 0.000000 
#    z 0.000000 0.000000 3.573460 
# 
# 
# High freq. dielectric constant tensor:
#      x y z
#    x 1.699310 0.000000 0.000000 
#    y 0.000000 1.653810 0.000000 
#    z 0.000000 0.000000 1.718320 
# 
# From -- ./inp_files/25399.got.cif
#   From: 2010.03.12/outbox.cif.g09.slc.cpg/sg72_13_cif.got.tgz:25399.got - 2010.04.16 14:54:00.
