data_PCOD8292700
_publ_section_title
;
Structure prediction by ZEFSAII (Michael W. Deem and Ramdas Pophale) SiO2 
 PCOD8292700
Probable space group: I M M M
;
_chemical_formula_sum "Si O2"
_cell_formula_units_Z 80
_cell_length_a 14.004774
_cell_length_b 9.738025
_cell_length_c 33.871214
_cell_angle_alpha 90.000000
_cell_angle_beta 90.000000
_cell_angle_gamma 90.000000
_cell_volume 4619.316852
_symmetry_space_group_name_H-M "I M M M"
_symmetry_group_IT_number 71
_symmetry_cell_setting 'orthorhombic'
loop_
_space_group_symop_operation_xyz
x,y,z
-x,-y,z
x,-y,-z
-x,y,-z
-x,-y,-z
x,y,-z
-x,y,z
x,-y,z
1/2+x,1/2+y,1/2+z
1/2-x,1/2-y,1/2+z
1/2+x,1/2-y,1/2-z
1/2-x,1/2+y,1/2-z
1/2-x,1/2-y,1/2-z
1/2+x,1/2+y,1/2-z
1/2-x,1/2+y,1/2+z
1/2+x,1/2-y,1/2+z
loop_
_atom_site_type_symbol
_atom_site_label
_atom_site_fract_x
_atom_site_fract_y
_atom_site_fract_z
Si Si1 0.604989 0.662207 0.382916
Si Si2 0.104770 0.847889 0.453193
Si Si3 0.296776 0.340006 0.695626
Si Si4 0.391432 0.841732 0.239025
Si Si5 0.273915 0.339333 0.544945
O O1 0.500000 0.727596 0.376198
O O2 0.596845 0.500000 0.381942
O O3 0.678150 0.709647 0.348684
O O4 0.641156 0.707949 0.426195
O O5 0.100416 0.846105 0.500000
O O6 0.179888 0.735741 0.438601
O O7 0.000000 0.810258 0.436181
O O8 0.135124 0.000000 0.438568
O O9 0.321509 0.500000 0.701933
O O10 0.364761 0.254396 0.724467
O O11 0.184120 0.312036 0.703636
O O12 0.500000 0.809271 0.224867
O O13 0.382904 0.000000 0.252644
O O14 0.300584 0.297034 0.500000
O O15 0.252771 0.500000 0.547954
#
# Coordination Sequence:
#
# PCOD8292700 Si02
#       5
#    16  16  16  16  16
#     4   9  17  29  45  65  89 117 150 186 222 263
#     4   8  14  26  44  63  83 110 142 175 217 269
#     4   9  17  30  48  68  90 119 153 182 212 260
#     4   9  17  29  46  69  95 118 142 178 222 263
#     4   9  17  28  43  65  90 115 148 190 228 258
#
# _framework density 17.318579
#
# number of rings (size 3 to 8) (size 9 to 14) (size 15 to 20)
#    0.000    3.200    0.000    1.200    0.000    2.000 
#    0.000    6.000    0.000    5.400    0.000    2.800 
#    0.000    0.000    0.000    0.000    0.000    0.000 
#
# Total GULP energy -495666.237572 kJ/mol
# GULP energy per Si atom -12391.655939 kJ/mol
# Density = 1.727916 g / cm^3
# Si number density = 17.318579 Si / 1000 Ang^3
#
#
#
# Elastic Constant Matrix: (Units=GPa)
#
#
# Indices 1 2 3 4 5 6 
#
# 1 146.5645 38.6631 70.7496 0.0000 0.0000 0.0000
# 2 38.6631 37.9937 30.1648 0.0000 0.0000 0.0000
# 3 70.7496 30.1648 103.7357 0.0000 0.0000 0.0000
# 4 0.0000 0.0000 0.0000 14.9852 0.0000 0.0000
# 5 0.0000 0.0000 0.0000 0.0000 22.2823 0.0000
# 6 0.0000 0.0000 0.0000 0.0000 0.0000 17.2413
#
#
#
# Elastic Compliance Matrix: (Units=1/GPa)
#
#
# Indices 1 2 3 4 5 6 
#
# 1 0.011479 -0.007106 -0.005763 0.000000 0.000000 0.000000
# 2 -0.007106 0.038620 -0.006383 0.000000 0.000000 0.000000
# 3 -0.005763 -0.006383 0.015426 0.000000 0.000000 0.000000
# 4 0.000000 0.000000 0.000000 0.066733 0.000000 0.000000
# 5 0.000000 0.000000 0.000000 0.000000 0.044879 0.000000
# 6 0.000000 0.000000 0.000000 0.000000 0.000000 0.058000
#
#
# Mechanical properties :
#
#
# Convention : Reuss Voigt Hill
#
# Bulk Modulus (GPa) = 37.00883 63.04988 50.02935
# Shear Modulus (GPa) = 17.68982 20.81619 19.25301
#
# Velocity S-wave (km/s) = 3.19946 3.47069 3.33783
# Velocity P-wave (km/s) = 5.92153 7.24885 6.61855
#
# Compressibility (1/GPa) = 0.02702058
#
# Stress axis : x y z
#
# Youngs Moduli (GPa) = 87.11309 25.89346 64.82420
#
# Poissons Ratio (x) = 0.18401 0.37356
# Poissons Ratio (y) = 0.61906 0.41380
# Poissons Ratio (z) = 0.50201 0.16529
#
# Static dielectric constant tensor:
#      x y z
#    x 3.628560 0.000000 0.000000 
#    y 0.000000 3.151850 0.000000 
#    z 0.000000 0.000000 3.119990 
# 
# 
# High freq. dielectric constant tensor:
#      x y z
#    x 1.675440 0.000000 0.000000 
#    y 0.000000 1.648020 0.000000 
#    z 0.000000 0.000000 1.642800 
# 
# From -- ./inp_files/22434.got.cif
#   From: 2010.06.25/outbox.cif.g09.slc.cpg/sg71_12_cif.got.tgz:22434.got - 2010.06.28 04:59:45.
