data_PCOD8292095
_publ_section_title
;
Structure prediction by ZEFSAII (Michael W. Deem and Ramdas Pophale) SiO2 
 PCOD8292095
Probable space group: I M M M
;
_chemical_formula_sum "Si O2"
_cell_formula_units_Z 90
_cell_length_a 22.166379
_cell_length_b 18.254927
_cell_length_c 11.408001
_cell_angle_alpha 90.000000
_cell_angle_beta 90.000000
_cell_angle_gamma 90.000000
_cell_volume 4616.197757
_symmetry_space_group_name_H-M "I M M M"
_symmetry_group_IT_number 71
_symmetry_cell_setting 'orthorhombic'
loop_
_space_group_symop_operation_xyz
x,y,z
-x,-y,z
x,-y,-z
-x,y,-z
-x,-y,-z
x,y,-z
-x,y,z
x,-y,z
1/2+x,1/2+y,1/2+z
1/2-x,1/2-y,1/2+z
1/2+x,1/2-y,1/2-z
1/2-x,1/2+y,1/2-z
1/2-x,1/2-y,1/2-z
1/2+x,1/2+y,1/2-z
1/2-x,1/2+y,1/2+z
1/2+x,1/2-y,1/2+z
loop_
_atom_site_type_symbol
_atom_site_label
_atom_site_fract_x
_atom_site_fract_y
_atom_site_fract_z
Si Si1 0.069735 0.302651 0.363971
Si Si2 0.500000 0.578135 0.236961
Si Si3 0.000000 0.000000 0.500000
Si Si4 0.377087 0.918579 0.500000
Si Si5 0.930875 0.266935 0.000000
Si Si6 0.280799 0.585280 0.362061
Si Si7 0.610394 0.321600 0.717695
Si Si8 0.155071 0.583070 0.255517
O O1 0.075501 0.319284 0.500000
O O2 0.105907 0.227734 0.334957
O O3 0.097238 0.370696 0.294148
O O4 0.000000 0.293307 0.324449
O O5 0.500000 0.500000 0.303090
O O6 0.500000 0.566300 0.095978
O O7 0.558850 0.618397 0.282525
O O8 0.427554 0.855299 0.500000
O O9 0.335145 0.910365 0.615256
O O10 0.407772 0.000000 0.500000
O O11 0.896745 0.235142 0.888106
O O12 0.000000 0.242287 0.000000
O O13 0.288844 0.598723 0.500000
O O14 0.291443 0.500000 0.329924
O O15 0.326674 0.635692 0.289474
O O16 0.214754 0.611239 0.321541
O O17 0.141638 0.500000 0.293393
#
# Coordination Sequence:
#
# PCOD8292095 Si02
#       8
#    16   8   2   8   8  16  16  16
#     4  11  24  40  63  92 124 162 206 258 313 371
#     4  10  22  39  62  88 121 169 215 257 307 370
#     4   8  24  40  64  86 128 176 222 260 324 368
#     4  10  22  41  65  92 126 162 209 261 312 380
#     4  12  22  39  62  93 129 167 201 258 325 378
#     4  10  22  41  64  89 123 165 209 257 313 377
#     4  12  22  39  61  92 127 164 207 260 313 374
#     4  10  22  43  65  90 123 162 205 258 315 377
#
# _framework density 19.496566000000001
#
# number of rings (size 3 to 8) (size 9 to 14) (size 15 to 20)
#    0.267    1.067    4.444    1.067    1.244    2.311 
#    1.600    3.111    1.956    0.000    0.000    0.000 
#    0.000    0.000    0.000    0.000    0.000    0.000 
#
# Total GULP energy -557479.078602 kJ/mol
# GULP energy per Si atom -12388.423969 kJ/mol
# Density = 1.945219 g / cm^3
# Si number density = 19.496566 Si / 1000 Ang^3
#
#
#
# Elastic Constant Matrix: (Units=GPa)
#
#
# Indices 1 2 3 4 5 6 
#
# 1 94.7051 48.8867 38.4861 0.0000 0.0000 0.0000
# 2 48.8867 117.3017 37.4762 0.0000 0.0000 0.0000
# 3 38.4861 37.4762 81.2767 0.0000 0.0000 0.0000
# 4 0.0000 0.0000 0.0000 32.5130 0.0000 0.0000
# 5 0.0000 0.0000 0.0000 0.0000 25.2659 0.0000
# 6 0.0000 0.0000 0.0000 0.0000 0.0000 37.4259
#
#
#
# Elastic Compliance Matrix: (Units=1/GPa)
#
#
# Indices 1 2 3 4 5 6 
#
# 1 0.014973 -0.004662 -0.004941 0.000000 0.000000 0.000000
# 2 -0.004662 0.011449 -0.003072 0.000000 0.000000 0.000000
# 3 -0.004941 -0.003072 0.016059 0.000000 0.000000 0.000000
# 4 0.000000 0.000000 0.000000 0.030757 0.000000 0.000000
# 5 0.000000 0.000000 0.000000 0.000000 0.039579 0.000000
# 6 0.000000 0.000000 0.000000 0.000000 0.000000 0.026719
#
#
# Mechanical properties :
#
#
# Convention : Reuss Voigt Hill
#
# Bulk Modulus (GPa) = 58.36444 60.33129 59.34786
# Shear Modulus (GPa) = 29.30884 30.26992 29.78938
#
# Velocity S-wave (km/s) = 3.88142 3.94455 3.91311
# Velocity P-wave (km/s) = 7.07729 7.19428 7.13603
#
# Compressibility (1/GPa) = 0.01713372
#
# Stress axis : x y z
#
# Youngs Moduli (GPa) = 66.78562 87.34192 62.26852
#
# Poissons Ratio (x) = 0.40717 0.30764
# Poissons Ratio (y) = 0.31134 0.19127
# Poissons Ratio (z) = 0.32996 0.26829
#
# Static dielectric constant tensor:
#      x y z
#    x 3.457560 0.000000 0.000000 
#    y 0.000000 3.726870 0.000000 
#    z 0.000000 0.000000 3.669840 
# 
# 
# High freq. dielectric constant tensor:
#      x y z
#    x 1.736450 0.000000 0.000000 
#    y 0.000000 1.776690 0.000000 
#    z 0.000000 0.000000 1.767550 
# 
# From -- ./inp_files/25727.got.cif
#   From: 2010.06.25/outbox.cif.g09.slc.cpg/sg71_13_cif.got.tgz:25727.got - 2010.06.28 04:59:45.
