data_PCOD8292810
_publ_section_title
;
Structure prediction by ZEFSAII (Michael W. Deem and Ramdas Pophale) SiO2 
 PCOD8292810
Probable space group: I B A M
;
_chemical_formula_sum "Si O2"
_cell_formula_units_Z 84
_cell_length_a 15.803716
_cell_length_b 23.572206
_cell_length_c 14.707542
_cell_angle_alpha 90.000000
_cell_angle_beta 90.000000
_cell_angle_gamma 90.000000
_cell_volume 5478.977812
_symmetry_space_group_name_H-M "I B A M"
_symmetry_group_IT_number 72
_symmetry_cell_setting 'orthorhombic'
loop_
_space_group_symop_operation_xyz
x,y,z
-x,-y,z
x,-y,1/2-z
-x,y,1/2-z
-x,-y,-z
x,y,-z
-x,y,1/2+z
x,-y,1/2+z
1/2+x,1/2+y,1/2+z
1/2-x,1/2-y,1/2+z
1/2+x,1/2-y,-z
1/2-x,1/2+y,-z
1/2-x,1/2-y,1/2-z
1/2+x,1/2+y,1/2-z
1/2-x,1/2+y,z
1/2+x,1/2-y,z
loop_
_atom_site_type_symbol
_atom_site_label
_atom_site_fract_x
_atom_site_fract_y
_atom_site_fract_z
Si Si1 0.500000 0.000000 0.750000
Si Si2 0.618876 0.733564 0.000000
Si Si3 0.580977 0.102927 0.660134
Si Si4 0.800735 0.691144 0.000000
Si Si5 0.185766 0.361195 0.500000
Si Si6 0.366295 0.681024 0.000000
Si Si7 0.017409 0.788595 0.349048
Si Si8 0.913826 0.664746 0.842678
O O1 0.560328 0.038311 0.686794
O O2 0.699331 0.691515 0.000000
O O3 0.567069 0.722311 0.092144
O O4 0.648525 0.798253 0.000000
O O5 0.655648 0.103786 0.587492
O O6 0.496421 0.132065 0.618954
O O7 0.613639 0.137871 0.747246
O O8 0.838742 0.753805 0.000000
O O9 0.835618 0.658018 0.088285
O O10 0.287302 0.361229 0.500000
O O11 0.421758 0.670541 0.908801
O O12 0.064599 0.730144 0.326921
O O13 0.000000 0.817224 0.250000
#
# Coordination Sequence:
#
# PCOD8292810 Si02
#       8
#     4   8  16   8   8   8  16  16
#     4   8  20  34  40  72  80 106 154 186 216 252
#     4  10  18  25  39  64  84 112 159 178 204 256
#     4  10  18  29  49  59  87 111 150 184 211 271
#     4   9  17  26  38  59  88 109 150 194 204 233
#     4  11  17  29  42  62  83 120 141 177 221 252
#     4   8  20  25  37  62  85 108 158 183 196 255
#     4  10  15  28  41  55  85 121 150 181 208 238
#     4   9  15  27  41  58  77 119 146 175 213 253
#
# _framework density 15.331327
#
# number of rings (size 3 to 8) (size 9 to 14) (size 15 to 20)
#    0.000    2.667    3.810    1.143    0.000    1.905 
#    0.000    6.667    0.000    0.000    0.000    0.000 
#    0.000    0.000    0.000  112.286    0.000    0.000 
#
# Total GULP energy -520595.984393 kJ/mol
# GULP energy per Si atom -12395.142486 kJ/mol
# Density = 1.529643 g / cm^3
# Si number density = 15.331327 Si / 1000 Ang^3
#
#
#
# Elastic Constant Matrix: (Units=GPa)
#
#
# Indices 1 2 3 4 5 6 
#
# 1 94.2748 30.7344 68.7379 0.0000 0.0000 0.0000
# 2 30.7344 44.3318 31.8682 0.0001 0.0000 0.0000
# 3 68.7379 31.8682 141.2523 0.0002 -0.0001 0.0000
# 4 0.0000 0.0001 0.0002 9.1380 0.0000 0.0000
# 5 0.0000 0.0000 -0.0001 0.0000 11.7900 0.0000
# 6 0.0000 0.0000 0.0000 0.0000 0.0000 13.2278
#
#
#
# Elastic Compliance Matrix: (Units=1/GPa)
#
#
# Indices 1 2 3 4 5 6 
#
# 1 0.018321 -0.007511 -0.007221 0.000000 0.000000 0.000000
# 2 -0.007511 0.030003 -0.003114 0.000000 0.000000 0.000000
# 3 -0.007221 -0.003114 0.011296 0.000000 0.000000 0.000000
# 4 0.000000 0.000000 0.000000 0.109433 0.000000 0.000000
# 5 0.000000 0.000000 0.000000 0.000000 0.084818 0.000000
# 6 0.000000 0.000000 0.000000 0.000000 0.000000 0.075599
#
#
# Mechanical properties :
#
#
# Convention : Reuss Voigt Hill
#
# Bulk Modulus (GPa) = 41.79167 60.28221 51.03694
# Shear Modulus (GPa) = 13.39994 16.73239 15.06616
#
# Velocity S-wave (km/s) = 2.95960 3.30720 3.13821
# Velocity P-wave (km/s) = 6.24477 7.34768 6.81856
#
# Compressibility (1/GPa) = 0.02392821
#
# Stress axis : x y z
#
# Youngs Moduli (GPa) = 54.58277 33.33040 88.52629
#
# Poissons Ratio (x) = 0.25033 0.63925
# Poissons Ratio (y) = 0.40995 0.27568
# Poissons Ratio (z) = 0.39414 0.10379
#
# Static dielectric constant tensor:
#      x y z
#    x 2.974800 0.000000 0.000000 
#    y 0.000000 2.510510 0.000000 
#    z 0.000000 0.000000 3.141980 
# 
# 
# High freq. dielectric constant tensor:
#      x y z
#    x 1.573770 0.000000 0.000000 
#    y 0.000000 1.526660 0.000000 
#    z 0.000000 0.000000 1.603380 
# 
# From -- ./inp_files/22027.got.cif
#   From: 2010.03.12/outbox.cif.g09.slc.cpg/sg72_12_cif.got.tgz:22027.got - 2010.04.16 14:54:00.
