data_PCOD8292578
_publ_section_title
;
Structure prediction by ZEFSAII (Michael W. Deem and Ramdas Pophale) SiO2 
 PCOD8292578
Probable space group: I M M M
;
_chemical_formula_sum "Si O2"
_cell_formula_units_Z 56
_cell_length_a 9.672410
_cell_length_b 15.909162
_cell_length_c 17.937609
_cell_angle_alpha 90.000000
_cell_angle_beta 90.000000
_cell_angle_gamma 90.000000
_cell_volume 2760.238154
_symmetry_space_group_name_H-M "I M M M"
_symmetry_group_IT_number 71
_symmetry_cell_setting 'orthorhombic'
loop_
_space_group_symop_operation_xyz
x,y,z
-x,-y,z
x,-y,-z
-x,y,-z
-x,-y,-z
x,y,-z
-x,y,z
x,-y,z
1/2+x,1/2+y,1/2+z
1/2-x,1/2-y,1/2+z
1/2+x,1/2-y,1/2-z
1/2-x,1/2+y,1/2-z
1/2-x,1/2-y,1/2-z
1/2+x,1/2+y,1/2-z
1/2-x,1/2+y,1/2+z
1/2+x,1/2-y,1/2+z
loop_
_atom_site_type_symbol
_atom_site_label
_atom_site_fract_x
_atom_site_fract_y
_atom_site_fract_z
Si Si1 0.664187 0.643229 0.172988
Si Si2 0.000000 0.092599 0.914371
Si Si3 0.500000 0.094576 0.919449
Si Si4 0.249714 0.333044 0.660170
Si Si5 0.165231 0.500000 0.910948
O O1 0.500000 0.625340 0.161001
O O2 0.703673 0.634452 0.259116
O O3 0.701144 0.737678 0.151200
O O4 0.758386 0.581403 0.123483
O O5 0.127029 0.151798 0.895815
O O6 0.000000 0.000000 0.873893
O O7 0.000000 0.073027 0.000000
O O8 0.627782 0.109163 0.866415
O O9 0.500000 0.000000 0.943914
O O10 0.500000 0.144711 0.000000
O O11 0.000000 0.500000 0.891640
O O12 0.186260 0.500000 0.000000
#
# Coordination Sequence:
#
# PCOD8292578 Si02
#       5
#    16   8   8  16   8
#     4  11  25  45  70 101 133 176 230 279 334 405
#     4  11  24  41  64  99 139 178 219 270 334 400
#     4  11  24  41  64 101 139 174 217 270 334 400
#     4  11  24  42  69 100 134 178 227 273 333 403
#     4  11  29  49  71 103 134 175 228 285 348 407
#
# _framework density 20.288103
#
# number of rings (size 3 to 8) (size 9 to 14) (size 15 to 20)
#    0.000    1.000    2.857    2.143    8.000    5.714 
#    0.000    0.000    0.000    0.000    0.000    0.000 
#    0.000    0.000    0.000    0.000    0.000    0.000 
#
# Total GULP energy -346995.606756 kJ/mol
# GULP energy per Si atom -12392.700241 kJ/mol
# Density = 2.024193 g / cm^3
# Si number density = 20.288103 Si / 1000 Ang^3
#
#
#
# Elastic Constant Matrix: (Units=GPa)
#
#
# Indices 1 2 3 4 5 6 
#
# 1 203.0343 59.5409 68.4167 0.0000 0.0000 0.0000
# 2 59.5409 86.5442 70.4373 0.0000 0.0000 0.0000
# 3 68.4167 70.4373 101.9468 0.0000 0.0000 0.0000
# 4 0.0000 0.0000 0.0000 28.8187 0.0000 0.0000
# 5 0.0000 0.0000 0.0000 0.0000 23.8999 0.0000
# 6 0.0000 0.0000 0.0000 0.0000 0.0000 23.6195
#
#
#
# Elastic Compliance Matrix: (Units=1/GPa)
#
#
# Indices 1 2 3 4 5 6 
#
# 1 0.006530 -0.002115 -0.002921 0.000000 0.000000 0.000000
# 2 -0.002115 0.027086 -0.017295 0.000000 0.000000 0.000000
# 3 -0.002921 -0.017295 0.023718 0.000000 0.000000 0.000000
# 4 0.000000 0.000000 0.000000 0.034700 0.000000 0.000000
# 5 0.000000 0.000000 0.000000 0.000000 0.041841 0.000000
# 6 0.000000 0.000000 0.000000 0.000000 0.000000 0.042338
#
#
# Mechanical properties :
#
#
# Convention : Reuss Voigt Hill
#
# Bulk Modulus (GPa) = 78.90891 87.59058 83.24974
# Shear Modulus (GPa) = 22.21247 28.14299 25.17773
#
# Velocity S-wave (km/s) = 3.31244 3.72851 3.52662
# Velocity P-wave (km/s) = 7.32177 7.86148 7.59642
#
# Compressibility (1/GPa) = 0.01267284
#
# Stress axis : x y z
#
# Youngs Moduli (GPa) = 153.14475 36.91932 42.16129
#
# Poissons Ratio (x) = 0.07810 0.12314
# Poissons Ratio (y) = 0.32395 0.72917
# Poissons Ratio (z) = 0.44728 0.63851
#
# Static dielectric constant tensor:
#      x y z
#    x 3.681110 0.000000 0.000000 
#    y 0.000000 3.801640 0.000000 
#    z 0.000000 0.000000 3.767570 
# 
# 
# High freq. dielectric constant tensor:
#      x y z
#    x 1.814110 0.000000 0.000000 
#    y 0.000000 1.799500 0.000000 
#    z 0.000000 0.000000 1.802870 
# 
# From -- ./inp_files/41755.got.cif
#   From: 2010.06.25/outbox.cif.g09.slc.cpg/sg71_21_cif.got.tgz:41755.got - 2010.06.28 04:59:45.
