data_PCOD8292186
_publ_section_title
;
Structure prediction by ZEFSAII (Michael W. Deem and Ramdas Pophale) SiO2 
 PCOD8292186
Probable space group: I M M M
;
_chemical_formula_sum "Si O2"
_cell_formula_units_Z 72
_cell_length_a 9.748909
_cell_length_b 26.315354
_cell_length_c 14.755164
_cell_angle_alpha 90.000000
_cell_angle_beta 90.000000
_cell_angle_gamma 90.000000
_cell_volume 3785.378177
_symmetry_space_group_name_H-M "I M M M"
_symmetry_group_IT_number 71
_symmetry_cell_setting 'orthorhombic'
loop_
_space_group_symop_operation_xyz
x,y,z
-x,-y,z
x,-y,-z
-x,y,-z
-x,-y,-z
x,y,-z
-x,y,z
x,-y,z
1/2+x,1/2+y,1/2+z
1/2-x,1/2-y,1/2+z
1/2+x,1/2-y,1/2-z
1/2-x,1/2+y,1/2-z
1/2-x,1/2-y,1/2-z
1/2+x,1/2+y,1/2-z
1/2-x,1/2+y,1/2+z
1/2+x,1/2-y,1/2+z
loop_
_atom_site_type_symbol
_atom_site_label
_atom_site_fract_x
_atom_site_fract_y
_atom_site_fract_z
Si Si1 0.846922 0.214389 0.500000
Si Si2 0.662222 0.688410 0.500000
Si Si3 0.262842 0.382976 0.664657
Si Si4 0.500000 0.941158 0.892186
Si Si5 0.000000 0.942074 0.902101
Si Si6 0.163752 0.560661 0.000000
Si Si7 0.160315 0.125479 0.364439
O O1 0.732181 0.256990 0.500000
O O2 0.826766 0.179499 0.587560
O O3 0.000000 0.238731 0.500000
O O4 0.500000 0.696409 0.500000
O O5 0.711490 0.660582 0.591091
O O6 0.368612 0.428765 0.655114
O O7 0.281583 0.361672 0.765161
O O8 0.121430 0.410467 0.651615
O O9 0.500000 0.000000 0.861839
O O10 0.500000 0.937073 0.000000
O O11 0.000000 0.000000 0.925340
O O12 0.000000 0.912321 0.000000
O O13 0.241798 0.583432 0.088157
O O14 0.181365 0.500000 0.000000
O O15 0.000000 0.574766 0.000000
O O16 0.000000 0.107277 0.365149
#
# Coordination Sequence:
#
# PCOD8292186 Si02
#       7
#     8   8  16   8   8   8  16
#     4   9  23  43  66  89 118 162 203 260 320 373
#     4  12  23  41  65  95 127 156 208 258 312 378
#     4  12  22  40  62  92 126 165 206 257 306 368
#     4  11  24  40  58  88 132 174 210 247 304 371
#     4  11  20  36  60  88 126 166 202 243 302 367
#     4  10  23  41  62  91 127 164 207 260 308 360
#     4  10  22  44  66  90 125 163 209 257 311 372
#
# _framework density 19.020557
#
# number of rings (size 3 to 8) (size 9 to 14) (size 15 to 20)
#    0.000    1.222    4.444    1.667    3.111    7.111 
#    0.000    0.000    0.000    0.000    0.000    0.000 
#    0.000    0.000    0.000    0.000    0.000    0.000 
#
# Total GULP energy -446236.379548 kJ/mol
# GULP energy per Si atom -12395.454987 kJ/mol
# Density = 1.897727 g / cm^3
# Si number density = 19.020557 Si / 1000 Ang^3
#
#
#
# Elastic Constant Matrix: (Units=GPa)
#
#
# Indices 1 2 3 4 5 6 
#
# 1 181.8217 77.7965 60.0153 0.0000 0.0000 0.0000
# 2 77.7965 112.1665 58.1408 0.0000 0.0000 0.0000
# 3 60.0153 58.1408 164.4451 0.0002 -0.0001 0.0000
# 4 0.0000 0.0000 0.0002 14.3632 0.0000 0.0000
# 5 0.0000 0.0000 -0.0001 0.0000 32.0091 0.0000
# 6 0.0000 0.0000 0.0000 0.0000 0.0000 37.7284
#
#
#
# Elastic Compliance Matrix: (Units=1/GPa)
#
#
# Indices 1 2 3 4 5 6 
#
# 1 0.008001 -0.004942 -0.001173 0.000000 0.000000 0.000000
# 2 -0.004942 0.013968 -0.003135 0.000000 0.000000 0.000000
# 3 -0.001173 -0.003135 0.007618 0.000000 0.000000 0.000000
# 4 0.000000 0.000000 0.000000 0.069622 0.000000 0.000000
# 5 0.000000 0.000000 0.000000 0.000000 0.031241 0.000000
# 6 0.000000 0.000000 0.000000 0.000000 0.000000 0.026505
#
#
# Mechanical properties :
#
#
# Convention : Reuss Voigt Hill
#
# Bulk Modulus (GPa) = 90.19120 94.48206 92.33663
# Shear Modulus (GPa) = 27.90951 34.31885 31.11418
#
# Velocity S-wave (km/s) = 3.83474 4.25232 4.04891
# Velocity P-wave (km/s) = 8.19314 8.59599 8.39698
#
# Compressibility (1/GPa) = 0.01108756
#
# Stress axis : x y z
#
# Youngs Moduli (GPa) = 124.97695 71.59380 131.27606
#
# Poissons Ratio (x) = 0.35379 0.15399
# Poissons Ratio (y) = 0.61759 0.41154
# Poissons Ratio (z) = 0.14660 0.22444
#
# Static dielectric constant tensor:
#      x y z
#    x 3.720340 0.000000 0.000000 
#    y 0.000000 3.337960 0.000000 
#    z 0.000000 0.000000 3.675400 
# 
# 
# High freq. dielectric constant tensor:
#      x y z
#    x 1.757720 0.000000 0.000000 
#    y 0.000000 1.731210 0.000000 
#    z 0.000000 0.000000 1.747730 
# 
# From -- ./inp_files/14403.got.cif
#   From: 2010.06.25/outbox.cif.g09.slc.cpg/sg71_8_cif.got.tgz:14403.got - 2010.06.28 04:59:45.
