data_PCOD8292412
_publ_section_title
;
Structure prediction by ZEFSAII (Michael W. Deem and Ramdas Pophale) SiO2 
 PCOD8292412
Probable space group: I M M M
;
_chemical_formula_sum "Si O2"
_cell_formula_units_Z 80
_cell_length_a 9.600125
_cell_length_b 17.082389
_cell_length_c 26.505889
_cell_angle_alpha 90.000000
_cell_angle_beta 90.000000
_cell_angle_gamma 90.000000
_cell_volume 4346.782102
_symmetry_space_group_name_H-M "I M M M"
_symmetry_group_IT_number 71
_symmetry_cell_setting 'orthorhombic'
loop_
_space_group_symop_operation_xyz
x,y,z
-x,-y,z
x,-y,-z
-x,y,-z
-x,-y,-z
x,y,-z
-x,y,z
x,-y,z
1/2+x,1/2+y,1/2+z
1/2-x,1/2-y,1/2+z
1/2+x,1/2-y,1/2-z
1/2-x,1/2+y,1/2-z
1/2-x,1/2-y,1/2-z
1/2+x,1/2+y,1/2-z
1/2-x,1/2+y,1/2+z
1/2+x,1/2-y,1/2+z
loop_
_atom_site_type_symbol
_atom_site_label
_atom_site_fract_x
_atom_site_fract_y
_atom_site_fract_z
Si Si1 0.500000 0.592280 0.943544
Si Si2 0.341034 0.665192 0.444500
Si Si3 0.000000 0.593409 0.940456
Si Si4 0.330521 0.772079 0.800313
Si Si5 0.755049 0.182399 0.398442
Si Si6 0.840161 0.910803 0.157066
O O1 0.500000 0.500000 0.943982
O O2 0.371502 0.622849 0.913355
O O3 0.500000 0.625663 0.000000
O O4 0.303392 0.631904 0.500000
O O5 0.500000 0.695667 0.442663
O O6 0.244171 0.739548 0.432572
O O7 0.318699 0.597284 0.403367
O O8 0.122809 0.629526 0.908102
O O9 0.000000 0.500000 0.936730
O O10 0.000000 0.618297 0.000000
O O11 0.500000 0.772987 0.795127
O O12 0.250000 0.750000 0.750000
O O13 0.278227 0.708203 0.840730
O O14 0.273910 0.858030 0.814939
O O15 0.000000 0.886540 0.171256
O O16 0.811783 0.000000 0.172583
#
# Coordination Sequence:
#
# PCOD8292412 Si02
#       6
#     8  16   8  16  16  16
#     4  11  22  36  55  82 123 167 198 237 300 364
#     4   9  16  28  52  83 114 152 192 229 271 328
#     4  11  22  36  59  90 125 167 208 247 296 356
#     4  11  24  42  67  89 112 155 203 253 309 361
#     4  11  21  37  57  87 119 155 200 251 294 357
#     4   9  19  36  59  89 122 153 189 237 292 349
#
# _framework density 18.404418
#
# number of rings (size 3 to 8) (size 9 to 14) (size 15 to 20)
#    0.000    1.800    2.000    3.000    2.800    2.400 
#    0.000    4.000    0.000    0.000    0.000    2.800 
#    0.000    0.000    0.000    0.000    0.000    0.000 
#
# Total GULP energy -495649.688404 kJ/mol
# GULP energy per Si atom -12391.242210 kJ/mol
# Density = 1.836253 g / cm^3
# Si number density = 18.404418 Si / 1000 Ang^3
#
#
#
# Elastic Constant Matrix: (Units=GPa)
#
#
# Indices 1 2 3 4 5 6 
#
# 1 141.9138 54.0500 64.5088 0.0000 0.0000 0.0000
# 2 54.0500 91.2816 51.3204 0.0000 0.0000 0.0000
# 3 64.5088 51.3204 139.4299 0.0000 0.0000 0.0000
# 4 0.0000 0.0000 0.0000 19.0435 0.0000 0.0000
# 5 0.0000 0.0000 0.0000 0.0000 25.2192 0.0000
# 6 0.0000 0.0000 0.0000 0.0000 0.0000 33.1887
#
#
#
# Elastic Compliance Matrix: (Units=1/GPa)
#
#
# Indices 1 2 3 4 5 6 
#
# 1 0.010062 -0.004212 -0.003105 0.000000 0.000000 0.000000
# 2 -0.004212 0.015577 -0.003785 0.000000 0.000000 0.000000
# 3 -0.003105 -0.003785 0.010002 0.000000 0.000000 0.000000
# 4 0.000000 0.000000 0.000000 0.052511 0.000000 0.000000
# 5 0.000000 0.000000 0.000000 0.000000 0.039652 0.000000
# 6 0.000000 0.000000 0.000000 0.000000 0.000000 0.030131
#
#
# Mechanical properties :
#
#
# Convention : Reuss Voigt Hill
#
# Bulk Modulus (GPa) = 74.42091 79.15376 76.78733
# Shear Modulus (GPa) = 27.08284 29.00667 28.04476
#
# Velocity S-wave (km/s) = 3.84023 3.97428 3.90783
# Velocity P-wave (km/s) = 7.75805 8.01007 7.88507
#
# Compressibility (1/GPa) = 0.01343708
#
# Stress axis : x y z
#
# Youngs Moduli (GPa) = 99.38086 64.19644 99.98390
#
# Poissons Ratio (x) = 0.27042 0.31044
# Poissons Ratio (y) = 0.41864 0.37840
# Poissons Ratio (z) = 0.30857 0.24296
#
# Static dielectric constant tensor:
#      x y z
#    x 3.759260 0.000000 0.000000 
#    y 0.000000 3.321140 0.000000 
#    z 0.000000 0.000000 3.990270 
# 
# 
# High freq. dielectric constant tensor:
#      x y z
#    x 1.714520 0.000000 0.000000 
#    y 0.000000 1.711620 0.000000 
#    z 0.000000 0.000000 1.710560 
# 
# From -- ./inp_files/48627.got.cif
#   From: 2010.06.25/outbox.cif.g09.slc.cpg/sg71_25_cif.got.tgz:48627.got - 2010.06.28 04:59:45.
