data_PCOD8292747
_publ_section_title
;
Structure prediction by ZEFSAII (Michael W. Deem and Ramdas Pophale) SiO2 
 PCOD8292747
Probable space group: I M M M
;
_chemical_formula_sum "Si O2"
_cell_formula_units_Z 80
_cell_length_a 9.601509
_cell_length_b 16.966248
_cell_length_c 27.552475
_cell_angle_alpha 90.000000
_cell_angle_beta 90.000000
_cell_angle_gamma 90.000000
_cell_volume 4488.341789
_symmetry_space_group_name_H-M "I M M M"
_symmetry_group_IT_number 71
_symmetry_cell_setting 'orthorhombic'
loop_
_space_group_symop_operation_xyz
x,y,z
-x,-y,z
x,-y,-z
-x,y,-z
-x,-y,-z
x,y,-z
-x,y,z
x,-y,z
1/2+x,1/2+y,1/2+z
1/2-x,1/2-y,1/2+z
1/2+x,1/2-y,1/2-z
1/2-x,1/2+y,1/2-z
1/2-x,1/2-y,1/2-z
1/2+x,1/2+y,1/2-z
1/2-x,1/2+y,1/2+z
1/2+x,1/2-y,1/2+z
loop_
_atom_site_type_symbol
_atom_site_label
_atom_site_fract_x
_atom_site_fract_y
_atom_site_fract_z
Si Si1 0.339438 0.907794 0.809665
Si Si2 0.666277 0.089605 0.000000
Si Si3 0.834240 0.679217 0.594538
Si Si4 0.665593 0.352614 0.115158
Si Si5 0.840365 0.092567 0.718839
Si Si6 0.333620 0.500000 0.945199
O O1 0.500000 0.886562 0.799959
O O2 0.280700 0.864130 0.857120
O O3 0.252401 0.877840 0.763587
O O4 0.318347 0.000000 0.818599
O O5 0.725293 0.134483 0.047367
O O6 0.500000 0.090259 0.000000
O O7 0.721829 0.000000 0.000000
O O8 0.779672 0.769191 0.594734
O O9 0.000000 0.676707 0.593345
O O10 0.500000 0.356321 0.113832
O O11 0.714447 0.363297 0.170744
O O12 0.725944 0.422366 0.081558
O O13 0.000000 0.114061 0.730332
O O14 0.822894 0.000000 0.709557
O O15 0.500000 0.500000 0.944068
O O16 0.277311 0.500000 0.000000
#
# Coordination Sequence:
#
# PCOD8292747 Si02
#       6
#    16   8  16  16  16   8
#     4   9  17  29  44  63  89 118 149 184 221 259
#     4   9  16  26  40  57  82 116 148 176 217 269
#     4   9  17  26  39  60  85 112 144 183 221 261
#     4   9  16  26  39  59  86 114 145 180 219 262
#     4   9  16  28  45  63  87 120 151 180 218 264
#     4   9  16  24  38  58  85 119 147 176 219 266
#
# _framework density 17.823955000000002
#
# number of rings (size 3 to 8) (size 9 to 14) (size 15 to 20)
#    0.000    3.000    1.000    0.600    1.400    3.200 
#    0.000    0.000    0.000    0.000    0.000    0.700 
#    0.000    5.600    0.000    0.000    0.000    0.000 
#
# Total GULP energy -495920.902912 kJ/mol
# GULP energy per Si atom -12398.022573 kJ/mol
# Density = 1.778339 g / cm^3
# Si number density = 17.823955 Si / 1000 Ang^3
#
#
#
# Elastic Constant Matrix: (Units=GPa)
#
#
# Indices 1 2 3 4 5 6 
#
# 1 20.9775 18.1882 31.5383 0.0000 0.0000 0.0000
# 2 18.1882 130.2699 97.9392 0.0000 0.0000 0.0000
# 3 31.5383 97.9392 188.8904 0.0000 0.0000 0.0000
# 4 0.0000 0.0000 0.0000 31.5908 0.0000 0.0000
# 5 0.0000 0.0000 0.0000 0.0000 19.7810 0.0000
# 6 0.0000 0.0000 0.0000 0.0000 0.0000 7.7276
#
#
#
# Elastic Compliance Matrix: (Units=1/GPa)
#
#
# Indices 1 2 3 4 5 6 
#
# 1 0.063819 -0.001474 -0.009891 0.000000 0.000000 0.000000
# 2 -0.001474 0.012614 -0.006294 0.000000 0.000000 0.000000
# 3 -0.009891 -0.006294 0.010209 0.000000 0.000000 0.000000
# 4 0.000000 0.000000 0.000000 0.031655 0.000000 0.000000
# 5 0.000000 0.000000 0.000000 0.000000 0.050554 0.000000
# 6 0.000000 0.000000 0.000000 0.000000 0.000000 0.129406
#
#
# Mechanical properties :
#
#
# Convention : Reuss Voigt Hill
#
# Bulk Modulus (GPa) = 19.48434 70.60769 45.04602
# Shear Modulus (GPa) = 14.25783 24.65135 19.45459
#
# Velocity S-wave (km/s) = 2.83136 3.72297 3.30735
# Velocity P-wave (km/s) = 4.65232 7.62762 6.31762
#
# Compressibility (1/GPa) = 0.05132326
#
# Stress axis : x y z
#
# Youngs Moduli (GPa) = 15.66931 79.27422 97.95009
#
# Poissons Ratio (x) = 0.11684 0.96887
# Poissons Ratio (y) = 0.02309 0.61654
# Poissons Ratio (z) = 0.15499 0.49899
#
# Static dielectric constant tensor:
#      x y z
#    x 2.655320 0.000000 0.000000 
#    y 0.000000 3.439650 0.000000 
#    z 0.000000 0.000000 3.525270 
# 
# 
# High freq. dielectric constant tensor:
#      x y z
#    x 1.606980 0.000000 0.000000 
#    y 0.000000 1.696980 0.000000 
#    z 0.000000 0.000000 1.705170 
# 
# From -- ./inp_files/24384.got.cif
#   From: 2010.06.25/outbox.cif.g09.slc.cpg/sg71_13_cif.got.tgz:24384.got - 2010.06.28 04:59:45.
