data_PCOD8292672
_publ_section_title
;
Structure prediction by ZEFSAII (Michael W. Deem and Ramdas Pophale) SiO2 
 PCOD8292672
Probable space group: I M M M
;
_chemical_formula_sum "Si O2"
_cell_formula_units_Z 88
_cell_length_a 9.677588
_cell_length_b 27.799547
_cell_length_c 19.473278
_cell_angle_alpha 90.000000
_cell_angle_beta 90.000000
_cell_angle_gamma 90.000000
_cell_volume 5238.945880
_symmetry_space_group_name_H-M "I M M M"
_symmetry_group_IT_number 71
_symmetry_cell_setting 'orthorhombic'
loop_
_space_group_symop_operation_xyz
x,y,z
-x,-y,z
x,-y,-z
-x,y,-z
-x,-y,-z
x,y,-z
-x,y,z
x,-y,z
1/2+x,1/2+y,1/2+z
1/2-x,1/2-y,1/2+z
1/2+x,1/2-y,1/2-z
1/2-x,1/2+y,1/2-z
1/2-x,1/2-y,1/2-z
1/2+x,1/2+y,1/2-z
1/2-x,1/2+y,1/2+z
1/2+x,1/2-y,1/2+z
loop_
_atom_site_type_symbol
_atom_site_label
_atom_site_fract_x
_atom_site_fract_y
_atom_site_fract_z
Si Si1 0.335403 0.121385 0.076418
Si Si2 0.838678 0.314934 0.919853
Si Si3 0.153166 0.272447 0.418607
Si Si4 0.334974 0.000000 0.423212
Si Si5 0.164145 0.408812 0.841444
Si Si6 0.164728 0.554488 0.303554
O O1 0.500000 0.119637 0.073737
O O2 0.291309 0.174613 0.102726
O O3 0.276831 0.081667 0.129163
O O4 0.276080 0.110532 0.000000
O O5 0.758627 0.268017 0.892283
O O6 0.781761 0.359221 0.874423
O O7 0.000000 0.305727 0.907585
O O8 0.808793 0.325749 0.000000
O O9 0.143479 0.271150 0.500000
O O10 0.000000 0.262878 0.387549
O O11 0.276245 0.047055 0.385602
O O12 0.500000 0.000000 0.422009
O O13 0.277052 0.000000 0.500000
O O14 0.215477 0.415875 0.763250
O O15 0.000000 0.409339 0.845238
O O16 0.222897 0.500000 0.302270
O O17 0.000000 0.552973 0.304710
#
# Coordination Sequence:
#
# PCOD8292672 Si02
#       6
#    16  16  16   8  16  16
#     4   8  14  24  38  55  74 100 135 168 198 240
#     4   9  16  25  39  60  84 108 136 171 205 235
#     4   8  14  26  42  58  79 108 138 167 202 243
#     4   9  14  20  32  48  70 102 134 160 191 238
#     4   9  15  23  33  51  79 106 130 160 202 245
#     4   9  15  23  35  52  78 108 131 159 205 250
#
# _framework density 16.797272
#
# number of rings (size 3 to 8) (size 9 to 14) (size 15 to 20)
#    0.000    3.364    0.909    1.636    0.000    2.545 
#    0.000    2.727    0.000    0.000    0.000    0.636 
#    0.000    5.818    0.000    7.091    0.000    7.273 
#
# Total GULP energy -545275.142909 kJ/mol
# GULP energy per Si atom -12392.616884 kJ/mol
# Density = 1.675904 g / cm^3
# Si number density = 16.797272 Si / 1000 Ang^3
#
#
#
# Elastic Constant Matrix: (Units=GPa)
#
#
# Indices 1 2 3 4 5 6 
#
# 1 18.7761 25.7149 14.4780 0.0000 0.0000 0.0000
# 2 25.7149 144.2456 73.2160 -0.0001 0.0000 0.0000
# 3 14.4780 73.2160 108.9753 -0.0002 0.0000 0.0000
# 4 0.0000 -0.0001 -0.0002 22.0281 0.0000 0.0000
# 5 0.0000 0.0000 0.0000 0.0000 5.8406 0.0000
# 6 0.0000 0.0000 0.0000 0.0000 0.0000 17.4476
#
#
#
# Elastic Compliance Matrix: (Units=1/GPa)
#
#
# Indices 1 2 3 4 5 6 
#
# 1 0.070604 -0.011875 -0.001402 0.000000 0.000000 0.000000
# 2 -0.011875 0.012518 -0.006832 0.000000 0.000000 0.000000
# 3 -0.001402 -0.006832 0.013953 0.000000 0.000000 0.000000
# 4 0.000000 0.000000 0.000000 0.045396 0.000000 0.000000
# 5 0.000000 0.000000 0.000000 0.000000 0.171214 0.000000
# 6 0.000000 0.000000 0.000000 0.000000 0.000000 0.057315
#
#
# Mechanical properties :
#
#
# Convention : Reuss Voigt Hill
#
# Bulk Modulus (GPa) = 17.58833 55.42386 36.50610
# Shear Modulus (GPa) = 11.62331 19.63582 15.62957
#
# Velocity S-wave (km/s) = 2.63340 3.42276 3.05369
# Velocity P-wave (km/s) = 4.44298 6.97766 5.84926
#
# Compressibility (1/GPa) = 0.05685587
#
# Stress axis : x y z
#
# Youngs Moduli (GPa) = 14.16357 79.88759 71.66923
#
# Poissons Ratio (x) = 0.94868 0.10046
# Poissons Ratio (y) = 0.16819 0.48967
# Poissons Ratio (z) = 0.01985 0.54582
#
# Static dielectric constant tensor:
#      x y z
#    x 2.583090 0.000000 0.000000 
#    y 0.000000 3.496060 0.000000 
#    z 0.000000 0.000000 3.227180 
# 
# 
# High freq. dielectric constant tensor:
#      x y z
#    x 1.567120 0.000000 0.000000 
#    y 0.000000 1.661270 0.000000 
#    z 0.000000 0.000000 1.637110 
# 
# From -- ./inp_files/24701.got.cif
#   From: 2010.06.25/outbox.cif.g09.slc.cpg/sg71_13_cif.got.tgz:24701.got - 2010.06.28 04:59:45.
