data_PCOD8292232
_publ_section_title
;
Structure prediction by ZEFSAII (Michael W. Deem and Ramdas Pophale) SiO2 
 PCOD8292232
Probable space group: I M M M
;
_chemical_formula_sum "Si O2"
_cell_formula_units_Z 112
_cell_length_a 14.261389
_cell_length_b 29.942306
_cell_length_c 18.790176
_cell_angle_alpha 90.000000
_cell_angle_beta 90.000000
_cell_angle_gamma 90.000000
_cell_volume 8023.759787
_symmetry_space_group_name_H-M "I M M M"
_symmetry_group_IT_number 71
_symmetry_cell_setting 'orthorhombic'
loop_
_space_group_symop_operation_xyz
x,y,z
-x,-y,z
x,-y,-z
-x,y,-z
-x,-y,-z
x,y,-z
-x,y,z
x,-y,z
1/2+x,1/2+y,1/2+z
1/2-x,1/2-y,1/2+z
1/2+x,1/2-y,1/2-z
1/2-x,1/2+y,1/2-z
1/2-x,1/2-y,1/2-z
1/2+x,1/2+y,1/2-z
1/2-x,1/2+y,1/2+z
1/2+x,1/2-y,1/2+z
loop_
_atom_site_type_symbol
_atom_site_label
_atom_site_fract_x
_atom_site_fract_y
_atom_site_fract_z
Si Si1 0.222638 0.318855 0.720458
Si Si2 0.107526 0.449389 0.916655
Si Si3 0.500000 0.819092 0.585435
Si Si4 0.106086 0.234018 0.717947
Si Si5 0.500000 0.279736 0.582703
Si Si6 0.203046 0.801407 0.080183
Si Si7 0.306754 0.289900 0.079876
Si Si8 0.683811 0.864605 0.357362
O O1 0.136868 0.284836 0.731810
O O2 0.322897 0.297629 0.740269
O O3 0.234217 0.330418 0.636092
O O4 0.199958 0.360536 0.771681
O O5 0.136562 0.500000 0.898194
O O6 0.180609 0.417207 0.875416
O O7 0.000000 0.440694 0.892925
O O8 0.117072 0.440107 0.000000
O O9 0.500000 0.821729 0.500000
O O10 0.500000 0.769200 0.618126
O O11 0.412078 0.844365 0.616301
O O12 0.109673 0.222942 0.633522
O O13 0.000000 0.226603 0.745827
O O14 0.500000 0.269246 0.500000
O O15 0.593770 0.307267 0.601777
O O16 0.226611 0.748443 0.086358
O O17 0.223506 0.818763 0.000000
O O18 0.265410 0.338104 0.101175
O O19 0.347085 0.292251 0.000000
#
# Coordination Sequence:
#
# PCOD8292232 Si02
#       8
#    16  16   8  16   8  16  16  16
#     4   9  20  28  36  58  74 102 140 166 203 240
#     4   9  17  27  39  58  83 108 131 157 199 249
#     4  11  18  22  35  60  78 103 139 171 200 225
#     4   9  18  28  37  50  76 106 133 171 208 234
#     4   9  16  22  36  57  74 102 140 168 200 236
#     4   9  16  27  38  52  76 102 133 173 203 231
#     4   9  16  26  37  52  74 101 140 174 193 228
#     4  11  18  25  38  56  80 106 134 169 202 232
#
# _framework density 13.958544
#
# number of rings (size 3 to 8) (size 9 to 14) (size 15 to 20)
#    0.000    2.571    2.143    2.571    2.000    0.286 
#    0.000    0.000    0.000    0.000    0.000    0.000 
#    0.000    9.714    0.000   33.000    0.000    4.000 
#
# Total GULP energy -693886.432958 kJ/mol
# GULP energy per Si atom -12390.829160 kJ/mol
# Density = 1.392677 g / cm^3
# Si number density = 13.958544 Si / 1000 Ang^3
#
#
#
# Elastic Constant Matrix: (Units=GPa)
#
#
# Indices 1 2 3 4 5 6 
#
# 1 54.4903 12.9069 12.0704 0.0000 0.0000 0.0000
# 2 12.9069 56.4359 29.8989 -0.0001 0.0000 0.0000
# 3 12.0704 29.8989 83.2654 0.0002 -0.0001 0.0000
# 4 0.0000 -0.0001 0.0002 17.6391 0.0000 0.0000
# 5 0.0000 0.0000 -0.0001 0.0000 16.2624 0.0000
# 6 0.0000 0.0000 0.0000 0.0000 0.0000 10.1794
#
#
#
# Elastic Compliance Matrix: (Units=1/GPa)
#
#
# Indices 1 2 3 4 5 6 
#
# 1 0.019557 -0.003669 -0.001518 0.000000 0.000000 0.000000
# 2 -0.003669 0.022570 -0.007573 0.000000 0.000000 0.000000
# 3 -0.001518 -0.007573 0.014949 0.000000 0.000000 0.000000
# 4 0.000000 0.000000 0.000000 0.056692 0.000000 0.000000
# 5 0.000000 0.000000 0.000000 0.000000 0.061492 0.000000
# 6 0.000000 0.000000 0.000000 0.000000 0.000000 0.098237
#
#
# Mechanical properties :
#
#
# Convention : Reuss Voigt Hill
#
# Bulk Modulus (GPa) = 31.68753 33.77156 32.72954
# Shear Modulus (GPa) = 16.15327 18.10388 17.12857
#
# Velocity S-wave (km/s) = 3.40550 3.60526 3.50680
# Velocity P-wave (km/s) = 6.18172 6.44804 6.31629
#
# Compressibility (1/GPa) = 0.03155815
#
# Stress axis : x y z
#
# Youngs Moduli (GPa) = 51.13242 44.30642 66.89418
#
# Poissons Ratio (x) = 0.16254 0.10153
# Poissons Ratio (y) = 0.18759 0.50657
# Poissons Ratio (z) = 0.07760 0.33552
#
# Static dielectric constant tensor:
#      x y z
#    x 2.834570 0.000000 0.000000 
#    y 0.000000 2.435240 0.000000 
#    z 0.000000 0.000000 3.043960 
# 
# 
# High freq. dielectric constant tensor:
#      x y z
#    x 1.517700 0.000000 0.000000 
#    y 0.000000 1.468820 0.000000 
#    z 0.000000 0.000000 1.543960 
# 
# From -- ./inp_files/53584.got.cif
#   From: 2010.06.25/outbox.cif.g09.slc.cpg/sg71_27_cif.got.tgz:53584.got - 2010.06.28 04:59:45.
