data_PCOD8292998
_publ_section_title
;
Structure prediction by ZEFSAII (Michael W. Deem and Ramdas Pophale) SiO2 
 PCOD8292998
Probable space group: I B A M
;
_chemical_formula_sum "Si O2"
_cell_formula_units_Z 80
_cell_length_a 19.781582
_cell_length_b 8.680233
_cell_length_c 23.806018
_cell_angle_alpha 90.000000
_cell_angle_beta 90.000000
_cell_angle_gamma 90.000000
_cell_volume 4087.701376
_symmetry_space_group_name_H-M "I B A M"
_symmetry_group_IT_number 72
_symmetry_cell_setting 'orthorhombic'
loop_
_space_group_symop_operation_xyz
x,y,z
-x,-y,z
x,-y,1/2-z
-x,y,1/2-z
-x,-y,-z
x,y,-z
-x,y,1/2+z
x,-y,1/2+z
1/2+x,1/2+y,1/2+z
1/2-x,1/2-y,1/2+z
1/2+x,1/2-y,-z
1/2-x,1/2+y,-z
1/2-x,1/2-y,1/2-z
1/2+x,1/2+y,1/2-z
1/2-x,1/2+y,z
1/2+x,1/2-y,z
loop_
_atom_site_type_symbol
_atom_site_label
_atom_site_fract_x
_atom_site_fract_y
_atom_site_fract_z
Si Si1 0.816306 0.867489 0.287105
Si Si2 0.616908 0.868307 0.711530
Si Si3 0.926555 0.935962 0.156844
Si Si4 0.179216 0.872212 0.564166
Si Si5 0.717128 0.917264 0.619982
O O1 0.825730 0.714289 0.249934
O O2 0.772090 0.826582 0.341609
O O3 0.779001 0.000000 0.250000
O O4 0.889013 0.940317 0.304154
O O5 0.568377 0.732912 0.687293
O O6 0.653323 0.957958 0.659971
O O7 0.579793 0.000000 0.750000
O O8 0.886839 0.924321 0.098061
O O9 0.000000 0.000000 0.143346
O O10 0.169461 0.922457 0.500000
O O11 0.189736 0.690016 0.569833
O O12 0.248258 0.938529 0.590630
#
# Coordination Sequence:
#
# PCOD8292998 Si02
#       5
#    16  16  16  16  16
#     4   9  17  29  48  72 103 139 162 192 246 306
#     4  10  18  29  50  77 102 130 162 202 251 302
#     4   9  20  36  50  69 101 138 175 209 245 300
#     4  10  20  33  52  74  98 134 174 218 262 294
#     4  10  18  30  48  75 106 128 163 208 252 305
#
# _framework density 19.570902
#
# number of rings (size 3 to 8) (size 9 to 14) (size 15 to 20)
#    0.000    2.400    0.000    4.200    0.000    4.000 
#    0.000    2.000    0.000    0.000    0.000    0.000 
#    0.000   19.200    0.000    0.000    0.000    4.800 
#
# Total GULP energy -495633.205456 kJ/mol
# GULP energy per Si atom -12390.830136 kJ/mol
# Density = 1.952636 g / cm^3
# Si number density = 19.570902 Si / 1000 Ang^3
#
#
#
# Elastic Constant Matrix: (Units=GPa)
#
#
# Indices 1 2 3 4 5 6 
#
# 1 73.6092 26.1023 27.6136 0.0000 0.0000 0.0000
# 2 26.1023 73.1975 41.0918 0.0000 0.0000 0.0000
# 3 27.6136 41.0918 119.4514 0.0000 0.0000 0.0000
# 4 0.0000 0.0000 0.0000 25.9245 0.0000 0.0000
# 5 0.0000 0.0000 0.0000 0.0000 13.0829 0.0000
# 6 0.0000 0.0000 0.0000 0.0000 0.0000 20.0291
#
#
#
# Elastic Compliance Matrix: (Units=1/GPa)
#
#
# Indices 1 2 3 4 5 6 
#
# 1 0.015985 -0.004494 -0.002149 0.000000 0.000000 0.000000
# 2 -0.004494 0.018195 -0.005220 0.000000 0.000000 0.000000
# 3 -0.002149 -0.005220 0.010664 0.000000 0.000000 0.000000
# 4 0.000000 0.000000 0.000000 0.038574 0.000000 0.000000
# 5 0.000000 0.000000 0.000000 0.000000 0.076435 0.000000
# 6 0.000000 0.000000 0.000000 0.000000 0.000000 0.049927
#
#
# Mechanical properties :
#
#
# Convention : Reuss Voigt Hill
#
# Bulk Modulus (GPa) = 47.35439 50.65260 49.00349
# Shear Modulus (GPa) = 20.78605 23.23735 22.01170
#
# Velocity S-wave (km/s) = 3.26251 3.44952 3.35732
# Velocity P-wave (km/s) = 6.20006 6.46555 6.33420
#
# Compressibility (1/GPa) = 0.02111737
#
# Stress axis : x y z
#
# Youngs Moduli (GPa) = 62.55843 54.96125 93.77105
#
# Poissons Ratio (x) = 0.24698 0.20155
# Poissons Ratio (y) = 0.28111 0.48951
# Poissons Ratio (z) = 0.13447 0.28691
#
# Static dielectric constant tensor:
#      x y z
#    x 3.110460 0.000000 0.000000 
#    y 0.000000 3.490930 0.000000 
#    z 0.000000 0.000000 3.495520 
# 
# 
# High freq. dielectric constant tensor:
#      x y z
#    x 1.725570 0.000000 0.000000 
#    y 0.000000 1.760660 0.000000 
#    z 0.000000 0.000000 1.755160 
# 
# From -- ./inp_files/47133.got.cif
#   From: 2010.03.12/outbox.cif.g09.slc.cpg/sg72_24_cif.got.tgz:47133.got - 2010.04.16 14:54:00.
