data_PCOD8292990
_publ_section_title
;
Structure prediction by ZEFSAII (Michael W. Deem and Ramdas Pophale) SiO2 
 PCOD8292990
Probable space group: I B A M
;
_chemical_formula_sum "Si O2"
_cell_formula_units_Z 128
_cell_length_a 18.515668
_cell_length_b 21.375496
_cell_length_c 17.453130
_cell_angle_alpha 90.000000
_cell_angle_beta 90.000000
_cell_angle_gamma 90.000000
_cell_volume 6907.627494
_symmetry_space_group_name_H-M "I B A M"
_symmetry_group_IT_number 72
_symmetry_cell_setting 'orthorhombic'
loop_
_space_group_symop_operation_xyz
x,y,z
-x,-y,z
x,-y,1/2-z
-x,y,1/2-z
-x,-y,-z
x,y,-z
-x,y,1/2+z
x,-y,1/2+z
1/2+x,1/2+y,1/2+z
1/2-x,1/2-y,1/2+z
1/2+x,1/2-y,-z
1/2-x,1/2+y,-z
1/2-x,1/2-y,1/2-z
1/2+x,1/2+y,1/2-z
1/2-x,1/2+y,z
1/2+x,1/2-y,z
loop_
_atom_site_type_symbol
_atom_site_label
_atom_site_fract_x
_atom_site_fract_y
_atom_site_fract_z
Si Si1 0.421845 0.360339 0.912787
Si Si2 0.883387 0.667071 0.909483
Si Si3 0.721163 0.995991 0.839598
Si Si4 0.072297 0.532502 0.590853
Si Si5 0.567792 0.298845 0.091070
Si Si6 0.732776 0.379530 0.587619
Si Si7 0.167005 0.911978 0.411003
Si Si8 0.081843 0.012316 0.331943
O O1 0.485408 0.315019 0.882741
O O2 0.338839 0.334890 0.908032
O O3 0.413212 0.416903 0.855864
O O4 0.440088 0.380889 0.000000
O O5 0.927506 0.605460 0.882863
O O6 0.915595 0.730613 0.872858
O O7 0.800349 0.660642 0.881762
O O8 0.887656 0.673827 0.000000
O O9 0.642604 0.997141 0.878080
O O10 0.772029 0.054300 0.866438
O O11 0.709008 0.000000 0.750000
O O12 0.760532 0.930761 0.863944
O O13 0.074540 0.527394 0.500000
O O14 0.000000 0.500000 0.623838
O O15 0.628255 0.348464 0.120323
O O16 0.571150 0.297818 0.000000
O O17 0.747580 0.399965 0.500000
O O18 0.186930 0.905580 0.500000
O O19 0.109347 0.967210 0.399263
O O20 0.123427 0.000000 0.250000
O O21 0.000000 0.000000 0.316503
#
# Coordination Sequence:
#
# PCOD8292990 Si02
#       8
#    16  16  16  16  16  16  16  16
#     4  10  18  29  47  73 101 134 178 216 252 302
#     4   8  15  31  51  74 103 129 164 210 259 313
#     4  11  21  32  50  79 105 137 165 211 260 309
#     4   9  18  35  60  85 102 126 167 219 270 307
#     4   9  18  30  47  72 102 139 172 210 259 304
#     4   9  17  30  51  73  98 133 171 212 253 303
#     4  11  20  31  48  72 104 137 171 210 253 301
#     4  11  21  30  43  71 105 139 171 211 252 297
#
# _framework density 18.530241
#
# number of rings (size 3 to 8) (size 9 to 14) (size 15 to 20)
#    0.000    2.250    2.500    2.625    0.000    0.750 
#    0.000    1.250    0.000    9.000   13.000    0.000 
#    0.000    0.000    0.000    0.000    0.000    0.000 
#
# Total GULP energy -792873.332877 kJ/mol
# GULP energy per Si atom -12388.645826 kJ/mol
# Density = 1.848807 g / cm^3
# Si number density = 18.530241 Si / 1000 Ang^3
#
#
#
# Elastic Constant Matrix: (Units=GPa)
#
#
# Indices 1 2 3 4 5 6 
#
# 1 142.4329 80.4993 18.0000 0.0000 0.0000 0.0000
# 2 80.4993 126.2293 19.6081 0.0000 0.0000 0.0000
# 3 18.0000 19.6081 42.4856 0.0000 0.0000 0.0000
# 4 0.0000 0.0000 0.0000 7.0115 0.0000 0.0000
# 5 0.0000 0.0000 0.0000 0.0000 11.9783 0.0000
# 6 0.0000 0.0000 0.0000 0.0000 0.0000 23.1959
#
#
#
# Elastic Compliance Matrix: (Units=1/GPa)
#
#
# Indices 1 2 3 4 5 6 
#
# 1 0.011070 -0.006820 -0.001543 0.000000 0.000000 0.000000
# 2 -0.006820 0.012736 -0.002988 0.000000 0.000000 0.000000
# 3 -0.001543 -0.002988 0.025570 0.000000 0.000000 0.000000
# 4 0.000000 0.000000 0.000000 0.142624 0.000000 0.000000
# 5 0.000000 0.000000 0.000000 0.000000 0.083484 0.000000
# 6 0.000000 0.000000 0.000000 0.000000 0.000000 0.043111
#
#
# Mechanical properties :
#
#
# Convention : Reuss Voigt Hill
#
# Bulk Modulus (GPa) = 37.48958 60.81807 49.15382
# Shear Modulus (GPa) = 14.27802 21.30649 17.79225
#
# Velocity S-wave (km/s) = 2.77884 3.39458 3.10203
# Velocity P-wave (km/s) = 5.52915 6.94669 6.27805
#
# Compressibility (1/GPa) = 0.02667408
#
# Stress axis : x y z
#
# Youngs Moduli (GPa) = 90.33096 78.51948 39.10824
#
# Poissons Ratio (x) = 0.53552 0.06033
# Poissons Ratio (y) = 0.61608 0.11687
# Poissons Ratio (z) = 0.13934 0.23464
#
# Static dielectric constant tensor:
#      x y z
#    x 3.699670 0.000000 0.000000 
#    y 0.000000 3.470880 0.000000 
#    z 0.000000 0.000000 3.217860 
# 
# 
# High freq. dielectric constant tensor:
#      x y z
#    x 1.733830 0.000000 0.000000 
#    y 0.000000 1.688250 0.000000 
#    z 0.000000 0.000000 1.688970 
# 
# From -- ./inp_files/32914.got.cif
#   From: 2010.03.12/outbox.cif.g09.slc.cpg/sg72_17_cif.got.tgz:32914.got - 2010.04.16 14:54:00.
