data_PCOD8292293
_publ_section_title
;
Structure prediction by ZEFSAII (Michael W. Deem and Ramdas Pophale) SiO2 
 PCOD8292293
Probable space group: I M M M
;
_chemical_formula_sum "Si O2"
_cell_formula_units_Z 56
_cell_length_a 8.822362
_cell_length_b 26.690435
_cell_length_c 12.603602
_cell_angle_alpha 90.000000
_cell_angle_beta 90.000000
_cell_angle_gamma 90.000000
_cell_volume 2967.803934
_symmetry_space_group_name_H-M "I M M M"
_symmetry_group_IT_number 71
_symmetry_cell_setting 'orthorhombic'
loop_
_space_group_symop_operation_xyz
x,y,z
-x,-y,z
x,-y,-z
-x,y,-z
-x,-y,-z
x,y,-z
-x,y,z
x,-y,z
1/2+x,1/2+y,1/2+z
1/2-x,1/2-y,1/2+z
1/2+x,1/2-y,1/2-z
1/2-x,1/2+y,1/2-z
1/2-x,1/2-y,1/2-z
1/2+x,1/2+y,1/2-z
1/2-x,1/2+y,1/2+z
1/2+x,1/2-y,1/2+z
loop_
_atom_site_type_symbol
_atom_site_label
_atom_site_fract_x
_atom_site_fract_y
_atom_site_fract_z
Si Si1 0.320295 0.833607 0.883358
Si Si2 0.821357 0.056695 0.500000
Si Si3 0.176365 0.374979 0.171511
Si Si4 0.667419 0.274582 0.877254
O O1 0.500000 0.830009 0.892304
O O2 0.277478 0.876575 0.797126
O O3 0.265983 0.779284 0.833833
O O4 0.250206 0.846403 0.000000
O O5 0.766304 0.083229 0.392843
O O6 0.000000 0.058891 0.500000
O O7 0.760406 0.000000 0.500000
O O8 0.214444 0.319577 0.131072
O O9 0.000000 0.385204 0.153187
O O10 0.500000 0.288419 0.829772
O O11 0.645064 0.261541 0.000000
#
# Coordination Sequence:
#
# PCOD8292293 Si02
#       4
#    16   8  16  16
#     4   8  16  30  48  75 111 147 175 200 242 303
#     4  11  25  43  59  73  95 133 177 221 276 331
#     4  11  20  31  53  80 105 132 170 222 264 300
#     4   9  16  28  47  71 107 150 179 200 239 302
#
# _framework density 18.86917
#
# number of rings (size 3 to 8) (size 9 to 14) (size 15 to 20)
#    0.000    2.429    1.429    3.857    0.000    1.143 
#    0.000    1.429    0.000    6.000    0.000    6.000 
#    0.000    0.000    0.000    0.000    0.000    0.000 
#
# Total GULP energy -346887.702003 kJ/mol
# GULP energy per Si atom -12388.846500 kJ/mol
# Density = 1.882622 g / cm^3
# Si number density = 18.869170 Si / 1000 Ang^3
#
#
#
# Elastic Constant Matrix: (Units=GPa)
#
#
# Indices 1 2 3 4 5 6 
#
# 1 38.3517 26.6335 16.5926 0.0000 -0.0001 0.0000
# 2 26.6335 109.5531 73.0524 -0.0001 0.0000 0.0000
# 3 16.5926 73.0524 106.5495 -0.0002 -0.0004 0.0001
# 4 0.0000 -0.0001 -0.0002 20.6215 0.0000 0.0000
# 5 -0.0001 0.0000 -0.0004 0.0000 11.1436 0.0000
# 6 0.0000 0.0000 0.0001 0.0000 0.0000 22.3657
#
#
#
# Elastic Compliance Matrix: (Units=1/GPa)
#
#
# Indices 1 2 3 4 5 6 
#
# 1 0.031394 -0.008055 0.000634 0.000000 0.000000 0.000000
# 2 -0.008055 0.018883 -0.011692 0.000000 0.000000 0.000000
# 3 0.000634 -0.011692 0.017303 0.000000 0.000001 0.000000
# 4 0.000000 0.000000 0.000000 0.048493 0.000000 0.000000
# 5 0.000000 0.000000 0.000001 0.000000 0.089738 0.000000
# 6 0.000000 0.000000 0.000000 0.000000 0.000000 0.044711
#
#
# Mechanical properties :
#
#
# Convention : Reuss Voigt Hill
#
# Bulk Modulus (GPa) = 34.06772 54.11237 44.09004
# Shear Modulus (GPa) = 16.74862 20.03788 18.39325
#
# Velocity S-wave (km/s) = 2.98252 3.26227 3.12553
# Velocity P-wave (km/s) = 5.47307 6.55209 6.03673
#
# Compressibility (1/GPa) = 0.02935330
#
# Stress axis : x y z
#
# Youngs Moduli (GPa) = 31.85328 52.95884 57.79391
#
# Poissons Ratio (x) = 0.42656 -0.03661
# Poissons Ratio (y) = 0.25657 0.67572
# Poissons Ratio (z) = -0.02018 0.61919
#
# Static dielectric constant tensor:
#      x y z
#    x 3.220290 0.000000 0.000000 
#    y 0.000000 3.191560 0.000000 
#    z 0.000000 0.000000 4.064220 
# 
# 
# High freq. dielectric constant tensor:
#      x y z
#    x 1.713930 0.000000 0.000000 
#    y 0.000000 1.686830 0.000000 
#    z 0.000000 0.000000 1.756200 
# 
# From -- ./inp_files/5777.got.cif
#   From: 2010.06.25/outbox.cif.g09.slc.cpg/sg71_3_cif.got.tgz:5777.got - 2010.06.28 04:59:45.
