data_PCOD8292633
_publ_section_title
;
Structure prediction by ZEFSAII (Michael W. Deem and Ramdas Pophale) SiO2 
 PCOD8292633
Probable space group: I M M M
;
_chemical_formula_sum "Si O2"
_cell_formula_units_Z 104
_cell_length_a 23.091742
_cell_length_b 29.887606
_cell_length_c 9.824631
_cell_angle_alpha 90.000000
_cell_angle_beta 90.000000
_cell_angle_gamma 90.000000
_cell_volume 6780.536744
_symmetry_space_group_name_H-M "I M M M"
_symmetry_group_IT_number 71
_symmetry_cell_setting 'orthorhombic'
loop_
_space_group_symop_operation_xyz
x,y,z
-x,-y,z
x,-y,-z
-x,y,-z
-x,-y,-z
x,y,-z
-x,y,z
x,-y,z
1/2+x,1/2+y,1/2+z
1/2-x,1/2-y,1/2+z
1/2+x,1/2-y,1/2-z
1/2-x,1/2+y,1/2-z
1/2-x,1/2-y,1/2-z
1/2+x,1/2+y,1/2-z
1/2-x,1/2+y,1/2+z
1/2+x,1/2-y,1/2+z
loop_
_atom_site_type_symbol
_atom_site_label
_atom_site_fract_x
_atom_site_fract_y
_atom_site_fract_z
Si Si1 0.890863 0.394735 0.838015
Si Si2 0.931194 0.779323 0.651320
Si Si3 0.931770 0.700726 0.156722
Si Si4 0.654707 0.449811 0.162008
Si Si5 0.216417 0.550148 0.161871
Si Si6 0.000000 0.550447 0.162455
Si Si7 0.564614 0.621769 0.837897
O O1 0.898349 0.343449 0.791172
O O2 0.830549 0.414686 0.779865
O O3 0.943383 0.424521 0.780062
O O4 0.892352 0.396807 0.000000
O O5 0.906046 0.769980 0.500000
O O6 0.907555 0.742034 0.754932
O O7 0.912812 0.828720 0.703745
O O8 0.000000 0.777806 0.645407
O O9 0.000000 0.692742 0.177283
O O10 0.917741 0.711298 0.000000
O O11 0.638914 0.500000 0.211130
O O12 0.719219 0.436676 0.213253
O O13 0.608371 0.415032 0.224419
O O14 0.652946 0.447861 0.000000
O O15 0.200701 0.500000 0.211859
O O16 0.215097 0.551005 0.000000
O O17 0.000000 0.500000 0.218419
O O18 0.000000 0.550950 0.000000
O O19 0.500000 0.612664 0.779725
O O20 0.562590 0.618898 0.000000
#
# Coordination Sequence:
#
# PCOD8292633 Si02
#       7
#    16  16  16  16  16   8  16
#     4   9  14  20  29  44  67  93 118 146 180 215
#     4   8  14  24  37  52  71  96 124 151 180 219
#     4   9  15  23  35  52  74  96 121 155 190 218
#     4   8  13  20  30  46  68  93 119 143 171 214
#     4   8  13  20  29  42  64  95 123 142 168 215
#     4   9  14  18  26  42  65  91 115 141 178 219
#     4   8  13  21  33  49  68  90 116 146 179 213
#
# _framework density 15.338018
#
# number of rings (size 3 to 8) (size 9 to 14) (size 15 to 20)
#    0.000    3.615    0.769    2.308    0.000    2.154 
#    0.000    1.538    0.000    0.923    0.000    0.000 
#    0.000    3.692    0.000    9.385    0.000   10.462 
#
# Total GULP energy -644325.515545 kJ/mol
# GULP energy per Si atom -12390.875299 kJ/mol
# Density = 1.530311 g / cm^3
# Si number density = 15.338018 Si / 1000 Ang^3
#
#
#
# Elastic Constant Matrix: (Units=GPa)
#
#
# Indices 1 2 3 4 5 6 
#
# 1 92.4284 80.5470 15.7269 0.0000 0.0000 0.0000
# 2 80.5470 156.6826 30.1253 0.0000 0.0000 0.0000
# 3 15.7269 30.1253 19.0354 0.0000 0.0000 0.0000
# 4 0.0000 0.0000 0.0000 15.4925 0.0000 0.0000
# 5 0.0000 0.0000 0.0000 0.0000 3.9794 0.0000
# 6 0.0000 0.0000 0.0000 0.0000 0.0000 21.8480
#
#
#
# Elastic Compliance Matrix: (Units=1/GPa)
#
#
# Indices 1 2 3 4 5 6 
#
# 1 0.019601 -0.010008 -0.000355 0.000000 0.000000 0.000000
# 2 -0.010008 0.014284 -0.014337 0.000000 0.000000 0.000000
# 3 -0.000355 -0.014337 0.075517 0.000000 0.000000 0.000000
# 4 0.000000 0.000000 0.000000 0.064547 0.000000 0.000000
# 5 0.000000 0.000000 0.000000 0.000000 0.251297 0.000000
# 6 0.000000 0.000000 0.000000 0.000000 0.000000 0.045771
#
#
# Mechanical properties :
#
#
# Convention : Reuss Voigt Hill
#
# Bulk Modulus (GPa) = 16.66640 57.88275 37.27457
# Shear Modulus (GPa) = 9.25208 17.71379 13.48294
#
# Velocity S-wave (km/s) = 2.45870 3.40206 2.96810
# Velocity P-wave (km/s) = 4.35315 7.29740 6.00841
#
# Compressibility (1/GPa) = 0.06000097
#
# Stress axis : x y z
#
# Youngs Moduli (GPa) = 51.01656 70.00865 13.24208
#
# Poissons Ratio (x) = 0.70067 0.00471
# Poissons Ratio (y) = 0.51059 0.18985
# Poissons Ratio (z) = 0.01813 1.00371
#
# Static dielectric constant tensor:
#      x y z
#    x 3.057610 0.000000 0.000000 
#    y 0.000000 3.265370 0.000000 
#    z 0.000000 0.000000 2.375870 
# 
# 
# High freq. dielectric constant tensor:
#      x y z
#    x 1.569040 0.000000 0.000000 
#    y 0.000000 1.599360 0.000000 
#    z 0.000000 0.000000 1.509920 
# 
# From -- ./inp_files/13600.got.cif
#   From: 2010.06.25/outbox.cif.g09.slc.cpg/sg71_7_cif.got.tgz:13600.got - 2010.06.28 04:59:45.
