data_PCOD8292975
_publ_section_title
;
Structure prediction by ZEFSAII (Michael W. Deem and Ramdas Pophale) SiO2 
 PCOD8292975
Probable space group: I B A M
;
_chemical_formula_sum "Si O2"
_cell_formula_units_Z 112
_cell_length_a 16.533602
_cell_length_b 23.188853
_cell_length_c 18.283509
_cell_angle_alpha 90.000000
_cell_angle_beta 90.000000
_cell_angle_gamma 90.000000
_cell_volume 7009.810803
_symmetry_space_group_name_H-M "I B A M"
_symmetry_group_IT_number 72
_symmetry_cell_setting 'orthorhombic'
loop_
_space_group_symop_operation_xyz
x,y,z
-x,-y,z
x,-y,1/2-z
-x,y,1/2-z
-x,-y,-z
x,y,-z
-x,y,1/2+z
x,-y,1/2+z
1/2+x,1/2+y,1/2+z
1/2-x,1/2-y,1/2+z
1/2+x,1/2-y,-z
1/2-x,1/2+y,-z
1/2-x,1/2-y,1/2-z
1/2+x,1/2+y,1/2-z
1/2-x,1/2+y,z
1/2+x,1/2-y,z
loop_
_atom_site_type_symbol
_atom_site_label
_atom_site_fract_x
_atom_site_fract_y
_atom_site_fract_z
Si Si1 0.092069 0.061923 0.774369
Si Si2 0.147828 0.887549 0.414959
Si Si3 0.235893 0.291428 0.918375
Si Si4 0.059873 0.276564 0.688585
Si Si5 0.785611 0.324716 0.858018
Si Si6 0.573458 0.735124 0.583551
Si Si7 0.178704 0.174043 0.720402
O O1 0.103994 0.065734 0.862927
O O2 0.142033 0.111518 0.734710
O O3 0.000000 0.068254 0.750000
O O4 0.126520 0.000000 0.750000
O O5 0.135490 0.903957 0.500000
O O6 0.244429 0.881604 0.394895
O O7 0.109711 0.826232 0.390551
O O8 0.274755 0.227822 0.914484
O O9 0.139593 0.285461 0.903879
O O10 0.277356 0.332114 0.858303
O O11 0.251727 0.316215 0.000000
O O12 0.117877 0.328457 0.658914
O O13 0.111516 0.224046 0.722551
O O14 0.000000 0.302113 0.750000
O O15 0.009042 0.249885 0.623048
O O16 0.744284 0.309074 0.780912
O O17 0.549584 0.728798 0.500000
#
# Coordination Sequence:
#
# PCOD8292975 Si02
#       7
#    16  16  16  16  16  16  16
#     4  10  20  34  48  64  86 112 144 188 230 255
#     4   9  17  32  49  63  83 118 153 179 210 255
#     4   9  16  27  40  58  85 115 143 175 209 252
#     4  11  17  23  39  63  89 117 145 173 204 252
#     4   9  17  27  41  59  84 116 148 177 208 252
#     4   9  17  26  39  61  90 117 141 169 207 250
#     4  10  18  29  43  58  81 118 153 178 211 258
#
# _framework density 15.977607000000001
#
# number of rings (size 3 to 8) (size 9 to 14) (size 15 to 20)
#    0.000    2.429    0.000    7.714    0.000    2.857 
#    0.000    2.857    0.000    0.000    0.000    0.000 
#    0.000   36.571    0.000   24.143    0.000    0.000 
#
# Total GULP energy -694001.461090 kJ/mol
# GULP energy per Si atom -12392.883234 kJ/mol
# Density = 1.594124 g / cm^3
# Si number density = 15.977607 Si / 1000 Ang^3
#
#
#
# Elastic Constant Matrix: (Units=GPa)
#
#
# Indices 1 2 3 4 5 6 
#
# 1 86.5144 18.1572 37.5970 -0.0001 0.0000 0.0000
# 2 18.1572 42.6509 27.4972 0.0002 0.0000 0.0000
# 3 37.5970 27.4972 102.8389 0.0002 0.0000 0.0000
# 4 -0.0001 0.0002 0.0002 17.1479 0.0000 0.0000
# 5 0.0000 0.0000 0.0000 0.0000 25.3667 0.0000
# 6 0.0000 0.0000 0.0000 0.0000 0.0000 10.3327
#
#
#
# Elastic Compliance Matrix: (Units=1/GPa)
#
#
# Indices 1 2 3 4 5 6 
#
# 1 0.014103 -0.003238 -0.004290 0.000000 0.000000 0.000000
# 2 -0.003238 0.029073 -0.006590 0.000000 0.000000 0.000000
# 3 -0.004290 -0.006590 0.013054 0.000000 0.000000 0.000000
# 4 0.000000 0.000000 0.000000 0.058316 0.000000 0.000000
# 5 0.000000 0.000000 0.000000 0.000000 0.039422 0.000000
# 6 0.000000 0.000000 0.000000 0.000000 0.000000 0.096780
#
#
# Mechanical properties :
#
#
# Convention : Reuss Voigt Hill
#
# Bulk Modulus (GPa) = 35.72130 44.27853 39.99992
# Shear Modulus (GPa) = 17.34214 20.48632 18.91423
#
# Velocity S-wave (km/s) = 3.29812 3.58465 3.44437
# Velocity P-wave (km/s) = 6.07529 6.70119 6.39590
#
# Compressibility (1/GPa) = 0.02799450
#
# Stress axis : x y z
#
# Youngs Moduli (GPa) = 70.90856 34.39602 76.60283
#
# Poissons Ratio (x) = 0.11137 0.32863
# Poissons Ratio (y) = 0.22960 0.50480
# Poissons Ratio (z) = 0.30420 0.22666
#
# Static dielectric constant tensor:
#      x y z
#    x 3.222590 0.000000 0.000000 
#    y 0.000000 2.632500 0.000000 
#    z 0.000000 0.000000 3.218990 
# 
# 
# High freq. dielectric constant tensor:
#      x y z
#    x 1.616600 0.000000 0.000000 
#    y 0.000000 1.544170 0.000000 
#    z 0.000000 0.000000 1.634950 
# 
# From -- ./inp_files/32011.got.cif
#   From: 2010.03.12/outbox.cif.g09.slc.cpg/sg72_17_cif.got.tgz:32011.got - 2010.04.16 14:54:00.
