data_PCOD8292041
_publ_section_title
;
Structure prediction by ZEFSAII (Michael W. Deem and Ramdas Pophale) SiO2 
 PCOD8292041
Probable space group: I M M M
;
_chemical_formula_sum "Si O2"
_cell_formula_units_Z 52
_cell_length_a 7.364784
_cell_length_b 29.325765
_cell_length_c 11.835460
_cell_angle_alpha 90.000000
_cell_angle_beta 90.000000
_cell_angle_gamma 90.000000
_cell_volume 2556.198091
_symmetry_space_group_name_H-M "I M M M"
_symmetry_group_IT_number 71
_symmetry_cell_setting 'orthorhombic'
loop_
_space_group_symop_operation_xyz
x,y,z
-x,-y,z
x,-y,-z
-x,y,-z
-x,-y,-z
x,y,-z
-x,y,z
x,-y,z
1/2+x,1/2+y,1/2+z
1/2-x,1/2-y,1/2+z
1/2+x,1/2-y,1/2-z
1/2-x,1/2+y,1/2-z
1/2-x,1/2-y,1/2-z
1/2+x,1/2+y,1/2-z
1/2-x,1/2+y,1/2+z
1/2+x,1/2-y,1/2+z
loop_
_atom_site_type_symbol
_atom_site_label
_atom_site_fract_x
_atom_site_fract_y
_atom_site_fract_z
Si Si1 0.500000 0.448421 0.250664
Si Si2 0.290319 0.802146 0.272425
Si Si3 0.783056 0.344341 0.000000
Si Si4 0.000000 0.921025 0.500000
Si Si5 0.214488 0.613930 0.630540
O O1 0.500000 0.500000 0.296138
O O2 0.319408 0.423963 0.297515
O O3 0.500000 0.450503 0.114427
O O4 0.500000 0.810042 0.283200
O O5 0.250000 0.750000 0.250000
O O6 0.206921 0.816479 0.392428
O O7 0.220587 0.835842 0.173468
O O8 0.686636 0.392828 0.000000
O O9 0.000000 0.351773 0.000000
O O10 0.269800 0.610232 0.500000
O O11 0.000000 0.606134 0.648151
#
# Coordination Sequence:
#
# PCOD8292041 Si02
#       5
#     8  16   8   4  16
#     4  12  26  44  69  99 124 162 218 273 329 386
#     4  10  22  37  59  91 127 166 214 260 310 374
#     4  10  22  41  61  89 126 174 212 261 319 379
#     4  12  23  42  72  88 130 172 210 268 331 370
#     4  10  23  44  65  92 130 169 209 263 320 385
#
# _framework density 20.342711999999999
#
# number of rings (size 3 to 8) (size 9 to 14) (size 15 to 20)
#    0.000    1.538    3.077    0.692    6.462    1.846 
#    0.000    1.538    0.000    2.769    0.000    0.000 
#    0.000    0.000    0.000    0.000    0.000    0.000 
#
# Total GULP energy -322298.033133 kJ/mol
# GULP energy per Si atom -12396.078197 kJ/mol
# Density = 2.029641 g / cm^3
# Si number density = 20.342712 Si / 1000 Ang^3
#
#
#
# Elastic Constant Matrix: (Units=GPa)
#
#
# Indices 1 2 3 4 5 6 
#
# 1 71.1270 34.0081 33.8649 -0.0001 0.0000 0.0000
# 2 34.0081 155.5303 53.0052 -0.0002 0.0000 -0.0001
# 3 33.8649 53.0052 159.9302 -0.0009 0.0000 -0.0002
# 4 -0.0001 -0.0002 -0.0009 25.5655 0.0000 -0.0001
# 5 0.0000 0.0000 0.0000 0.0000 18.9227 0.0000
# 6 0.0000 -0.0001 -0.0002 -0.0001 0.0000 23.2311
#
#
#
# Elastic Compliance Matrix: (Units=1/GPa)
#
#
# Indices 1 2 3 4 5 6 
#
# 1 0.016613 -0.002744 -0.002608 0.000000 0.000000 0.000000
# 2 -0.002744 0.007701 -0.001972 0.000000 0.000000 0.000000
# 3 -0.002608 -0.001972 0.007458 0.000000 0.000000 0.000000
# 4 0.000000 0.000000 0.000000 0.039115 0.000000 0.000000
# 5 0.000000 0.000000 0.000000 0.000000 0.052847 0.000000
# 6 0.000000 0.000000 0.000000 0.000000 0.000000 0.043046
#
#
# Mechanical properties :
#
#
# Convention : Reuss Voigt Hill
#
# Bulk Modulus (GPa) = 58.39144 69.81600 64.10372
# Shear Modulus (GPa) = 26.71844 31.25779 28.98812
#
# Velocity S-wave (km/s) = 3.62804 3.92415 3.77900
# Velocity P-wave (km/s) = 6.80562 7.41123 7.11487
#
# Compressibility (1/GPa) = 0.01712580
#
# Stress axis : x y z
#
# Youngs Moduli (GPa) = 60.19336 129.84602 134.07566
#
# Poissons Ratio (x) = 0.35625 0.34973
# Poissons Ratio (y) = 0.16515 0.26433
# Poissons Ratio (z) = 0.15701 0.25599
#
# Static dielectric constant tensor:
#      x y z
#    x 2.922060 0.000000 0.000000 
#    y 0.000000 3.363590 0.000000 
#    z 0.000000 0.000000 4.318320 
# 
# 
# High freq. dielectric constant tensor:
#      x y z
#    x 1.801210 0.000000 0.000000 
#    y 0.000000 1.780720 0.000000 
#    z 0.000000 0.000000 1.813940 
# 
# From -- ./inp_files/3221.got.cif
#   From: 2010.06.25/outbox.cif.g09.slc.cpg/sg71_2_cif.got.tgz:3221.got - 2010.06.28 04:59:45.
