data_PCOD8292454
_publ_section_title
;
Structure prediction by ZEFSAII (Michael W. Deem and Ramdas Pophale) SiO2 
 PCOD8292454
Probable space group: I M M M
;
_chemical_formula_sum "Si O2"
_cell_formula_units_Z 72
_cell_length_a 8.805662
_cell_length_b 32.231920
_cell_length_c 13.734489
_cell_angle_alpha 90.000000
_cell_angle_beta 90.000000
_cell_angle_gamma 90.000000
_cell_volume 3898.169271
_symmetry_space_group_name_H-M "I M M M"
_symmetry_group_IT_number 71
_symmetry_cell_setting 'orthorhombic'
loop_
_space_group_symop_operation_xyz
x,y,z
-x,-y,z
x,-y,-z
-x,y,-z
-x,-y,-z
x,y,-z
-x,y,z
x,-y,z
1/2+x,1/2+y,1/2+z
1/2-x,1/2-y,1/2+z
1/2+x,1/2-y,1/2-z
1/2-x,1/2+y,1/2-z
1/2-x,1/2-y,1/2-z
1/2+x,1/2+y,1/2-z
1/2-x,1/2+y,1/2+z
1/2+x,1/2-y,1/2+z
loop_
_atom_site_type_symbol
_atom_site_label
_atom_site_fract_x
_atom_site_fract_y
_atom_site_fract_z
Si Si1 0.168418 0.355983 0.108542
Si Si2 0.680225 0.000000 0.614136
Si Si3 0.319535 0.129421 0.112597
Si Si4 0.176842 0.922843 0.274855
Si Si5 0.332922 0.792546 0.231611
O O1 0.298432 0.384660 0.152832
O O2 0.162157 0.312414 0.162184
O O3 0.000000 0.377294 0.114947
O O4 0.216840 0.345948 0.000000
O O5 0.740131 0.038865 0.674829
O O6 0.500000 0.000000 0.615389
O O7 0.736341 0.000000 0.500000
O O8 0.500000 0.126959 0.128420
O O9 0.246374 0.090266 0.169677
O O10 0.259605 0.173711 0.156068
O O11 0.272415 0.126165 0.000000
O O12 0.000000 0.932930 0.261932
O O13 0.500000 0.781709 0.192223
O O14 0.250000 0.750000 0.250000
#
# Coordination Sequence:
#
# PCOD8292454 Si02
#       5
#    16   8  16  16  16
#     4   9  18  34  53  71  98 139 179 211 252 314
#     4  11  23  39  60  83 110 147 183 212 252 315
#     4   9  19  38  60  77 101 144 190 225 263 319
#     4  11  22  35  54  83 114 137 167 219 272 315
#     4   9  18  31  48  74 105 136 174 220 267 314
#
# _framework density 18.470210000000002
#
# number of rings (size 3 to 8) (size 9 to 14) (size 15 to 20)
#    0.000    2.333    0.000    4.333    0.000    8.889 
#    0.000    0.556    0.000    3.333    0.000    0.000 
#    0.000    0.000    0.000    0.000    0.000    0.000 
#
# Total GULP energy -446053.002685 kJ/mol
# GULP energy per Si atom -12390.361186 kJ/mol
# Density = 1.842817 g / cm^3
# Si number density = 18.470210 Si / 1000 Ang^3
#
#
#
# Elastic Constant Matrix: (Units=GPa)
#
#
# Indices 1 2 3 4 5 6 
#
# 1 73.6171 43.3159 37.8385 0.0003 0.0000 0.0000
# 2 43.3159 114.3271 59.0440 0.0005 0.0000 0.0000
# 3 37.8385 59.0440 171.5852 0.0015 0.0000 -0.0001
# 4 0.0003 0.0005 0.0015 16.5469 0.0000 -0.0001
# 5 0.0000 0.0000 0.0000 0.0000 19.9969 0.0001
# 6 0.0000 0.0000 -0.0001 -0.0001 0.0001 33.2666
#
#
#
# Elastic Compliance Matrix: (Units=1/GPa)
#
#
# Indices 1 2 3 4 5 6 
#
# 1 0.018015 -0.005805 -0.001975 0.000000 0.000000 0.000000
# 2 -0.005805 0.012508 -0.003024 0.000000 0.000000 0.000000
# 3 -0.001975 -0.003024 0.007304 -0.000001 0.000000 0.000000
# 4 0.000000 0.000000 -0.000001 0.060434 0.000000 0.000000
# 5 0.000000 0.000000 0.000000 0.000000 0.050008 0.000000
# 6 0.000000 0.000000 0.000000 0.000000 0.000000 0.030060
#
#
# Mechanical properties :
#
#
# Convention : Reuss Voigt Hill
#
# Bulk Modulus (GPa) = 61.65862 71.10292 66.38077
# Shear Modulus (GPa) = 24.34938 28.58413 26.46675
#
# Velocity S-wave (km/s) = 3.63479 3.93820 3.78953
# Velocity P-wave (km/s) = 7.14638 7.69797 7.42730
#
# Compressibility (1/GPa) = 0.01621833
#
# Stress axis : x y z
#
# Youngs Moduli (GPa) = 55.50992 79.94840 136.90960
#
# Poissons Ratio (x) = 0.46413 0.27039
# Poissons Ratio (y) = 0.32226 0.41400
# Poissons Ratio (z) = 0.10963 0.24176
#
# Static dielectric constant tensor:
#      x y z
#    x 3.365960 0.000000 0.000000 
#    y 0.000000 3.482120 0.000000 
#    z 0.000000 0.000000 3.673700 
# 
# 
# High freq. dielectric constant tensor:
#      x y z
#    x 1.705040 0.000000 0.000000 
#    y 0.000000 1.709030 0.000000 
#    z 0.000000 0.000000 1.722610 
# 
# From -- ./inp_files/31641.got.cif
#   From: 2010.06.25/outbox.cif.g09.slc.cpg/sg71_16_cif.got.tgz:31641.got - 2010.06.28 04:59:45.
