data_PCOD8292322
_publ_section_title
;
Structure prediction by ZEFSAII (Michael W. Deem and Ramdas Pophale) SiO2 
 PCOD8292322
Probable space group: I M M M
;
_chemical_formula_sum "Si O2"
_cell_formula_units_Z 88
_cell_length_a 15.187564
_cell_length_b 14.633829
_cell_length_c 19.356215
_cell_angle_alpha 90.000000
_cell_angle_beta 90.000000
_cell_angle_gamma 90.000000
_cell_volume 4301.961648
_symmetry_space_group_name_H-M "I M M M"
_symmetry_group_IT_number 71
_symmetry_cell_setting 'orthorhombic'
loop_
_space_group_symop_operation_xyz
x,y,z
-x,-y,z
x,-y,-z
-x,y,-z
-x,-y,-z
x,y,-z
-x,y,z
x,-y,z
1/2+x,1/2+y,1/2+z
1/2-x,1/2-y,1/2+z
1/2+x,1/2-y,1/2-z
1/2-x,1/2+y,1/2-z
1/2-x,1/2-y,1/2-z
1/2+x,1/2+y,1/2-z
1/2-x,1/2+y,1/2+z
1/2+x,1/2-y,1/2+z
loop_
_atom_site_type_symbol
_atom_site_label
_atom_site_fract_x
_atom_site_fract_y
_atom_site_fract_z
Si Si1 0.602064 0.500000 0.921847
Si Si2 0.343893 0.344310 0.183008
Si Si3 0.601798 0.850892 0.856349
Si Si4 0.404783 0.295899 0.670450
Si Si5 0.770408 0.102034 0.923369
Si Si6 0.353920 0.102242 0.292779
O O1 0.500000 0.500000 0.934800
O O2 0.626579 0.413010 0.876307
O O3 0.646045 0.500000 0.000000
O O4 0.351440 0.247211 0.146882
O O5 0.403216 0.337738 0.251991
O O6 0.248060 0.370927 0.210091
O O7 0.500000 0.847032 0.881782
O O8 0.665093 0.902549 0.909961
O O9 0.606674 0.903036 0.783787
O O10 0.500000 0.324205 0.639273
O O11 0.323524 0.332959 0.627574
O O12 0.402330 0.184657 0.667565
O O13 0.808225 0.000000 0.915245
O O14 0.786548 0.139584 0.000000
O O15 0.367089 0.000000 0.326034
#
# Coordination Sequence:
#
# PCOD8292322 Si02
#       6
#     8  16  16  16  16  16
#     4  11  24  38  56  92 134 166 207 260 312 376
#     4  11  20  39  62  92 124 166 211 255 312 376
#     4  11  22  39  63  92 128 167 209 257 315 377
#     4  11  23  41  66  93 123 163 213 266 318 374
#     4  11  25  43  62  90 128 168 212 265 319 373
#     4  11  20  37  65  95 126 160 205 264 318 372
#
# _framework density 20.455784000000001
#
# number of rings (size 3 to 8) (size 9 to 14) (size 15 to 20)
#    0.000    1.000    4.545    4.909    1.273    4.364 
#    0.000    1.818    0.000    0.000    0.000    1.273 
#    0.000    0.000    0.000    0.000    0.000    0.000 
#
# Total GULP energy -545163.968521 kJ/mol
# GULP energy per Si atom -12390.090194 kJ/mol
# Density = 2.040923 g / cm^3
# Si number density = 20.455784 Si / 1000 Ang^3
#
#
#
# Elastic Constant Matrix: (Units=GPa)
#
#
# Indices 1 2 3 4 5 6 
#
# 1 124.5433 30.1278 29.6705 0.0000 0.0000 0.0000
# 2 30.1278 110.6657 49.7790 0.0000 0.0000 0.0000
# 3 29.6705 49.7790 92.5172 0.0000 0.0000 0.0000
# 4 0.0000 0.0000 0.0000 15.1056 0.0000 0.0000
# 5 0.0000 0.0000 0.0000 0.0000 13.1041 0.0000
# 6 0.0000 0.0000 0.0000 0.0000 0.0000-1043.6017
#
#
#
# Elastic Compliance Matrix: (Units=1/GPa)
#
#
# Indices 1 2 3 4 5 6 
#
# 1 0.008878 -0.001499 -0.002041 0.000000 0.000000 0.000000
# 2 -0.001499 0.012175 -0.006070 0.000000 0.000000 0.000000
# 3 -0.002041 -0.006070 0.014729 0.000000 0.000000 0.000000
# 4 0.000000 0.000000 0.000000 0.066201 0.000000 0.000000
# 5 0.000000 0.000000 0.000000 0.000000 0.076312 0.000000
# 6 0.000000 0.000000 0.000000 0.000000 0.000000 -0.000958
#
#
# Mechanical properties :
#
#
# Convention : Reuss Voigt Hill
#
# Bulk Modulus (GPa) = 60.37636 60.76451 60.57043
# Shear Modulus (GPa) = 24.74317 -188.53513 -81.89598
#
# Velocity S-wave (km/s) = 3.48169 -9.61079 -6.33423
# Velocity P-wave (km/s) = 6.76332 9.66367 4.88078
#
# Compressibility (1/GPa) = 0.01656277
#
# Stress axis : x y z
#
# Youngs Moduli (GPa) = 112.63637 82.13810 67.89275
#
# Poissons Ratio (x) = 0.12313 0.13855
# Poissons Ratio (y) = 0.16885 0.41210
# Poissons Ratio (z) = 0.22985 0.49856
#
# Static dielectric constant tensor:
#      x y z
#    x 3.833390 0.000000 0.000000 
#    y 0.000000 3.921230 0.000000 
#    z 0.000000 0.000000 3.531830 
# 
# 
# High freq. dielectric constant tensor:
#      x y z
#    x 1.806930 0.000000 0.000000 
#    y 0.000000 1.812280 0.000000 
#    z 0.000000 0.000000 1.764610 
# 
# From -- ./inp_files/37755.got.cif
#   From: 2010.06.25/outbox.cif.g09.slc.cpg/sg71_19_cif.got.tgz:37755.got - 2010.06.28 04:59:45.
