data_PCOD8292079
_publ_section_title
;
Structure prediction by ZEFSAII (Michael W. Deem and Ramdas Pophale) SiO2 
 PCOD8292079
Probable space group: I M M M
;
_chemical_formula_sum "Si O2"
_cell_formula_units_Z 112
_cell_length_a 15.478910
_cell_length_b 21.990928
_cell_length_c 15.440282
_cell_angle_alpha 90.000000
_cell_angle_beta 90.000000
_cell_angle_gamma 90.000000
_cell_volume 5255.803983
_symmetry_space_group_name_H-M "I M M M"
_symmetry_group_IT_number 71
_symmetry_cell_setting 'orthorhombic'
loop_
_space_group_symop_operation_xyz
x,y,z
-x,-y,z
x,-y,-z
-x,y,-z
-x,-y,-z
x,y,-z
-x,y,z
x,-y,z
1/2+x,1/2+y,1/2+z
1/2-x,1/2-y,1/2+z
1/2+x,1/2-y,1/2-z
1/2-x,1/2+y,1/2-z
1/2-x,1/2-y,1/2-z
1/2+x,1/2+y,1/2-z
1/2-x,1/2+y,1/2+z
1/2+x,1/2-y,1/2+z
loop_
_atom_site_type_symbol
_atom_site_label
_atom_site_fract_x
_atom_site_fract_y
_atom_site_fract_z
Si Si1 0.724337 0.933008 0.402748
Si Si2 0.901836 0.666690 0.900474
Si Si3 0.352120 0.252099 0.250309
Si Si4 0.091600 0.068371 0.634053
Si Si5 0.901217 0.337008 0.399761
Si Si6 0.904942 0.880635 0.809657
Si Si7 0.257837 0.068074 0.898702
O O1 0.692278 0.941234 0.500000
O O2 0.656923 0.886987 0.358766
O O3 0.819870 0.901747 0.401304
O O4 0.723895 0.000000 0.356863
O O5 0.888834 0.724341 0.839492
O O6 0.000000 0.644145 0.897027
O O7 0.875480 0.683251 0.000000
O O8 0.250000 0.250000 0.250000
O O9 0.387921 0.220540 0.163272
O O10 0.384929 0.320816 0.252749
O O11 0.094126 0.066444 0.738235
O O12 0.000000 0.099483 0.603082
O O13 0.091617 0.000000 0.598581
O O14 0.880133 0.318801 0.500000
O O15 0.839246 0.391731 0.366854
O O16 0.000000 0.359629 0.392099
O O17 0.830992 0.896277 0.878394
O O18 0.000000 0.875947 0.855031
O O19 0.261115 0.000000 0.856930
O O20 0.263038 0.060737 0.000000
#
# Coordination Sequence:
#
# PCOD8292079 Si02
#       7
#    16  16  16  16  16  16  16
#     4   9  18  33  54  80 110 149 195 240 292 350
#     4  10  22  39  58  85 122 159 197 244 296 356
#     4  12  23  40  65  89 123 165 205 255 310 372
#     4   9  18  33  53  78 110 147 189 241 298 351
#     4  10  22  42  66  93 128 166 208 263 321 376
#     4  11  22  37  58  85 118 158 200 246 303 368
#     4  10  22  40  62  90 122 160 209 261 318 380
#
# _framework density 21.309774999999998
#
# number of rings (size 3 to 8) (size 9 to 14) (size 15 to 20)
#    0.000    1.857    1.429    2.571    0.000    3.143 
#    0.000    5.714    0.000    2.571    0.000    0.000 
#    0.000    0.000    0.000    0.000    0.000    0.000 
#
# Total GULP energy -693879.445694 kJ/mol
# GULP energy per Si atom -12390.704387 kJ/mol
# Density = 2.126127 g / cm^3
# Si number density = 21.309775 Si / 1000 Ang^3
#
#
#
# Elastic Constant Matrix: (Units=GPa)
#
#
# Indices 1 2 3 4 5 6 
#
# 1 164.8186 40.7242 20.2868 0.0000 0.0000 0.0000
# 2 40.7242 87.6759 21.5146 -0.0002 0.0000 0.0000
# 3 20.2868 21.5146 62.4752 -0.0004 -0.0001 0.0000
# 4 0.0000 -0.0002 -0.0004 23.2684 -0.0001 0.0000
# 5 0.0000 0.0000 -0.0001 -0.0001 31.9897 0.0000
# 6 0.0000 0.0000 0.0000 0.0000 0.0000 29.2065
#
#
#
# Elastic Compliance Matrix: (Units=1/GPa)
#
#
# Indices 1 2 3 4 5 6 
#
# 1 0.006942 -0.002918 -0.001249 0.000000 0.000000 0.000000
# 2 -0.002918 0.013685 -0.003765 0.000000 0.000000 0.000000
# 3 -0.001249 -0.003765 0.017709 0.000000 0.000000 0.000000
# 4 0.000000 0.000000 0.000000 0.042977 0.000000 0.000000
# 5 0.000000 0.000000 0.000000 0.000000 0.031260 0.000000
# 6 0.000000 0.000000 0.000000 0.000000 0.000000 0.034239
#
#
# Mechanical properties :
#
#
# Convention : Reuss Voigt Hill
#
# Bulk Modulus (GPa) = 44.50240 53.33567 48.91903
# Shear Modulus (GPa) = 29.38298 32.38918 30.88608
#
# Velocity S-wave (km/s) = 3.71731 3.90285 3.81121
# Velocity P-wave (km/s) = 6.27323 6.73741 6.50946
#
# Compressibility (1/GPa) = 0.02247070
#
# Stress axis : x y z
#
# Youngs Moduli (GPa) = 144.05022 73.07321 56.46951
#
# Poissons Ratio (x) = 0.21322 0.07055
# Poissons Ratio (y) = 0.42032 0.21262
# Poissons Ratio (z) = 0.17997 0.27513
#
# Static dielectric constant tensor:
#      x y z
#    x 4.376400 0.000000 0.000000 
#    y 0.000000 3.993110 0.000000 
#    z 0.000000 0.000000 3.712190 
# 
# 
# High freq. dielectric constant tensor:
#      x y z
#    x 1.857800 0.000000 0.000000 
#    y 0.000000 1.820180 0.000000 
#    z 0.000000 0.000000 1.820550 
# 
# From -- ./inp_files/34841.got.cif
#   From: 2010.06.25/outbox.cif.g09.slc.cpg/sg71_18_cif.got.tgz:34841.got - 2010.06.28 04:59:45.
