data_PCOD8292371
_publ_section_title
;
Structure prediction by ZEFSAII (Michael W. Deem and Ramdas Pophale) SiO2 
 PCOD8292371
Probable space group: I M M M
;
_chemical_formula_sum "Si O2"
_cell_formula_units_Z 104
_cell_length_a 8.650500
_cell_length_b 26.776342
_cell_length_c 22.652641
_cell_angle_alpha 90.000000
_cell_angle_beta 90.000000
_cell_angle_gamma 90.000000
_cell_volume 5247.002839
_symmetry_space_group_name_H-M "I M M M"
_symmetry_group_IT_number 71
_symmetry_cell_setting 'orthorhombic'
loop_
_space_group_symop_operation_xyz
x,y,z
-x,-y,z
x,-y,-z
-x,y,-z
-x,-y,-z
x,y,-z
-x,y,z
x,-y,z
1/2+x,1/2+y,1/2+z
1/2-x,1/2-y,1/2+z
1/2+x,1/2-y,1/2-z
1/2-x,1/2+y,1/2-z
1/2-x,1/2-y,1/2-z
1/2+x,1/2+y,1/2-z
1/2-x,1/2+y,1/2+z
1/2+x,1/2-y,1/2+z
loop_
_atom_site_type_symbol
_atom_site_label
_atom_site_fract_x
_atom_site_fract_y
_atom_site_fract_z
Si Si1 0.825933 0.627169 0.157739
Si Si2 0.819966 0.806628 0.885914
Si Si3 0.183330 0.596425 0.632463
Si Si4 0.818256 0.202721 0.568261
Si Si5 0.817569 0.058008 0.252178
Si Si6 0.173396 0.699621 0.266541
Si Si7 0.316264 0.000000 0.065261
O O1 0.749515 0.654135 0.101206
O O2 0.733165 0.579290 0.183076
O O3 0.827395 0.667401 0.208712
O O4 0.000000 0.610893 0.140627
O O5 0.751954 0.858943 0.910113
O O6 0.741298 0.755947 0.907680
O O7 0.782152 0.820687 0.818015
O O8 0.000000 0.800894 0.898438
O O9 0.236009 0.590838 0.701075
O O10 0.245306 0.547654 0.599930
O O11 0.000000 0.602638 0.633855
O O12 0.770016 0.198346 0.500000
O O13 0.000000 0.202059 0.577163
O O14 0.000000 0.063713 0.245558
O O15 0.766306 0.000000 0.248556
O O16 0.250000 0.750000 0.250000
O O17 0.000000 0.706895 0.291319
O O18 0.500000 0.000000 0.063003
O O19 0.245230 0.000000 0.000000
#
# Coordination Sequence:
#
# PCOD8292371 Si02
#       7
#    16  16  16  16  16  16   8
#     4  11  23  38  62  92 122 159 199 245 304 365
#     4  12  24  37  57  87 122 160 199 246 300 352
#     4  11  21  36  59  87 119 158 206 257 307 360
#     4  11  25  44  65  88 119 162 206 248 298 362
#     4  11  23  38  60  91 126 159 197 249 311 369
#     4  11  21  33  54  86 118 152 191 235 289 348
#     4   9  20  38  59  81 109 153 206 255 300 351
#
# _framework density 19.82084
#
# number of rings (size 3 to 8) (size 9 to 14) (size 15 to 20)
#    0.000    1.000    3.846    3.692    0.000    4.000 
#    0.000    1.538    0.000    3.692    0.000    3.231 
#    0.000    0.000    0.000    0.000    0.000    0.000 
#
# Total GULP energy -644341.181072 kJ/mol
# GULP energy per Si atom -12391.176559 kJ/mol
# Density = 1.977573 g / cm^3
# Si number density = 19.820840 Si / 1000 Ang^3
#
#
#
# Elastic Constant Matrix: (Units=GPa)
#
#
# Indices 1 2 3 4 5 6 
#
# 1 87.4992 21.5272 28.8703 0.0000 0.0000 0.0000
# 2 21.5272 86.2103 32.8165 0.0000 0.0000 0.0000
# 3 28.8703 32.8165 97.6989 0.0000 0.0000 0.0000
# 4 0.0000 0.0000 0.0000 19.4321 0.0000 0.0000
# 5 0.0000 0.0000 0.0000 0.0000 23.1231 0.0000
# 6 0.0000 0.0000 0.0000 0.0000 0.0000 30.8794
#
#
#
# Elastic Compliance Matrix: (Units=1/GPa)
#
#
# Indices 1 2 3 4 5 6 
#
# 1 0.012969 -0.002041 -0.003147 0.000000 0.000000 0.000000
# 2 -0.002041 0.013621 -0.003972 0.000000 0.000000 0.000000
# 3 -0.003147 -0.003972 0.012500 0.000000 0.000000 0.000000
# 4 0.000000 0.000000 0.000000 0.051461 0.000000 0.000000
# 5 0.000000 0.000000 0.000000 0.000000 0.043247 0.000000
# 6 0.000000 0.000000 0.000000 0.000000 0.000000 0.032384
#
#
# Mechanical properties :
#
#
# Convention : Reuss Voigt Hill
#
# Bulk Modulus (GPa) = 48.14558 48.64850 48.39704
# Shear Modulus (GPa) = 26.11986 27.23320 26.67653
#
# Velocity S-wave (km/s) = 3.63409 3.71073 3.67261
# Velocity P-wave (km/s) = 6.47703 6.55414 6.51570
#
# Compressibility (1/GPa) = 0.02077034
#
# Stress axis : x y z
#
# Youngs Moduli (GPa) = 77.10665 73.41520 80.00162
#
# Poissons Ratio (x) = 0.14981 0.25176
# Poissons Ratio (y) = 0.15734 0.31779
# Poissons Ratio (z) = 0.24265 0.29163
#
# Static dielectric constant tensor:
#      x y z
#    x 3.511550 0.000000 0.000000 
#    y 0.000000 3.871280 0.000000 
#    z 0.000000 0.000000 3.621220 
# 
# 
# High freq. dielectric constant tensor:
#      x y z
#    x 1.777430 0.000000 0.000000 
#    y 0.000000 1.786140 0.000000 
#    z 0.000000 0.000000 1.752780 
# 
# From -- ./inp_files/57988.got.cif
#   From: 2010.06.25/outbox.cif.g09.slc.cpg/sg71_29_cif.got.tgz:57988.got - 2010.06.28 04:59:45.
