data_PCOD8292003
_publ_section_title
;
Structure prediction by ZEFSAII (Michael W. Deem and Ramdas Pophale) SiO2 
 PCOD8292003
Probable space group: I M M M
;
_chemical_formula_sum "Si O2"
_cell_formula_units_Z 72
_cell_length_a 8.307427
_cell_length_b 26.157819
_cell_length_c 15.974230
_cell_angle_alpha 90.000000
_cell_angle_beta 90.000000
_cell_angle_gamma 90.000000
_cell_volume 3471.266821
_symmetry_space_group_name_H-M "I M M M"
_symmetry_group_IT_number 71
_symmetry_cell_setting 'orthorhombic'
loop_
_space_group_symop_operation_xyz
x,y,z
-x,-y,z
x,-y,-z
-x,y,-z
-x,-y,-z
x,y,-z
-x,y,z
x,-y,z
1/2+x,1/2+y,1/2+z
1/2-x,1/2-y,1/2+z
1/2+x,1/2-y,1/2-z
1/2-x,1/2+y,1/2-z
1/2-x,1/2-y,1/2-z
1/2+x,1/2+y,1/2-z
1/2-x,1/2+y,1/2+z
1/2+x,1/2-y,1/2+z
loop_
_atom_site_type_symbol
_atom_site_label
_atom_site_fract_x
_atom_site_fract_y
_atom_site_fract_z
Si Si1 0.683329 0.600525 0.680283
Si Si2 0.681029 0.719520 0.327417
Si Si3 0.683824 0.259554 0.000000
Si Si4 0.000000 0.556850 0.401808
Si Si5 0.684378 0.441988 0.863084
Si Si6 0.318365 0.870325 0.500000
O O1 0.500000 0.588624 0.644914
O O2 0.701241 0.660455 0.694840
O O3 0.831665 0.584092 0.621960
O O4 0.707148 0.571074 0.766583
O O5 0.500000 0.737023 0.335211
O O6 0.750000 0.750000 0.250000
O O7 0.754231 0.732520 0.416806
O O8 0.709228 0.320234 0.000000
O O9 0.500000 0.247710 0.000000
O O10 0.000000 0.500000 0.362764
O O11 0.000000 0.554529 0.500000
O O12 0.500000 0.435577 0.891080
O O13 0.742557 0.500000 0.878423
O O14 0.790368 0.403945 0.917714
O O15 0.500000 0.850656 0.500000
#
# Coordination Sequence:
#
# PCOD8292003 Si02
#       6
#    16  16   8   8  16   8
#     4  10  24  43  68  97 133 173 219 271 330 393
#     4  11  24  42  67  99 132 172 221 272 329 397
#     4  12  26  43  67  92 130 176 217 270 331 386
#     4  11  26  44  68  99 131 169 221 276 332 397
#     4  10  21  40  65  92 127 172 217 263 322 387
#     4  12  25  39  60  93 132 170 217 269 318 389
#
# _framework density 20.741709
#
# number of rings (size 3 to 8) (size 9 to 14) (size 15 to 20)
#    0.000    1.222    0.000    5.000    6.222    5.333 
#    0.000    1.111    0.000    0.000    0.000    0.000 
#    0.000    0.000    0.000    0.000    0.000    0.000 
#
# Total GULP energy -446323.909552 kJ/mol
# GULP energy per Si atom -12397.886376 kJ/mol
# Density = 2.069450 g / cm^3
# Si number density = 20.741709 Si / 1000 Ang^3
#
#
#
# Elastic Constant Matrix: (Units=GPa)
#
#
# Indices 1 2 3 4 5 6 
#
# 1 155.6204 35.1969 45.3810 -0.0007 0.0000 0.0000
# 2 35.1969 71.9813 9.0279 -0.0015 0.0001 0.0000
# 3 45.3810 9.0279 85.2984 -0.0085 0.0001 0.0000
# 4 -0.0007 -0.0015 -0.0085 -77.8482 -0.0006 -0.0002
# 5 0.0000 0.0001 0.0001 -0.0006 36.4452 0.0000
# 6 0.0000 0.0000 0.0000 -0.0002 0.0000 33.9534
#
#
#
# Elastic Compliance Matrix: (Units=1/GPa)
#
#
# Indices 1 2 3 4 5 6 
#
# 1 0.008441 -0.003612 -0.004109 0.000000 0.000000 0.000000
# 2 -0.003612 0.015625 0.000268 0.000000 0.000000 0.000000
# 3 -0.004109 0.000268 0.013881 -0.000001 0.000000 0.000000
# 4 0.000000 0.000000 -0.000001 -0.012846 0.000000 0.000000
# 5 0.000000 0.000000 0.000000 0.000000 0.027438 0.000000
# 6 0.000000 0.000000 0.000000 0.000000 0.000000 0.029452
#
#
# Mechanical properties :
#
#
# Convention : Reuss Voigt Hill
#
# Bulk Modulus (GPa) = 43.39930 54.67907 49.03919
# Shear Modulus (GPa) = 47.81119 13.39636 30.60377
#
# Velocity S-wave (km/s) = 4.80633 2.54415 3.84535
# Velocity P-wave (km/s) = 7.19515 5.92025 6.58861
#
# Compressibility (1/GPa) = 0.02304185
#
# Stress axis : x y z
#
# Youngs Moduli (GPa) = 118.47009 63.99954 72.04076
#
# Poissons Ratio (x) = 0.23117 0.29598
# Poissons Ratio (y) = 0.42793 -0.01931
# Poissons Ratio (z) = 0.48674 -0.01715
#
# Static dielectric constant tensor:
#      x y z
#    x 4.083220 0.000000 0.000000 
#    y 0.000000 3.980620 0.000000 
#    z 0.000000 0.000000 3.578230 
# 
# 
# High freq. dielectric constant tensor:
#      x y z
#    x 1.826180 0.000000 0.000000 
#    y 0.000000 1.827840 0.000000 
#    z 0.000000 0.000000 1.816190 
# 
# From -- ./inp_files/31484.got.cif
#   From: 2010.06.25/outbox.cif.g09.slc.cpg/sg71_16_cif.got.tgz:31484.got - 2010.06.28 04:59:45.
