data_PCOD8292045
_publ_section_title
;
Structure prediction by ZEFSAII (Michael W. Deem and Ramdas Pophale) SiO2 
 PCOD8292045
Probable space group: I M M M
;
_chemical_formula_sum "Si O2"
_cell_formula_units_Z 96
_cell_length_a 22.398967
_cell_length_b 14.902471
_cell_length_c 14.119492
_cell_angle_alpha 90.000000
_cell_angle_beta 90.000000
_cell_angle_gamma 90.000000
_cell_volume 4713.085810
_symmetry_space_group_name_H-M "I M M M"
_symmetry_group_IT_number 71
_symmetry_cell_setting 'orthorhombic'
loop_
_space_group_symop_operation_xyz
x,y,z
-x,-y,z
x,-y,-z
-x,y,-z
-x,-y,-z
x,y,-z
-x,y,z
x,-y,z
1/2+x,1/2+y,1/2+z
1/2-x,1/2-y,1/2+z
1/2+x,1/2-y,1/2-z
1/2-x,1/2+y,1/2-z
1/2-x,1/2-y,1/2-z
1/2+x,1/2+y,1/2-z
1/2-x,1/2+y,1/2+z
1/2+x,1/2-y,1/2+z
loop_
_atom_site_type_symbol
_atom_site_label
_atom_site_fract_x
_atom_site_fract_y
_atom_site_fract_z
Si Si1 0.234935 0.169986 0.181107
Si Si2 0.566409 0.893549 0.000000
Si Si3 0.565144 0.783364 0.500000
Si Si4 0.135422 0.396069 0.684420
Si Si5 0.134015 0.101058 0.695816
Si Si6 0.810040 0.105387 0.500000
Si Si7 0.696026 0.775342 0.500000
Si Si8 0.434065 0.247099 0.290974
O O1 0.250000 0.250000 0.250000
O O2 0.295054 0.115148 0.159861
O O3 0.189643 0.102666 0.232525
O O4 0.202894 0.209154 0.088946
O O5 0.600100 0.859843 0.906805
O O6 0.500000 0.852966 0.000000
O O7 0.565292 0.000000 0.000000
O O8 0.500000 0.838672 0.500000
O O9 0.631561 0.828576 0.500000
O O10 0.565707 0.726434 0.402628
O O11 0.121878 0.500000 0.708685
O O12 0.113014 0.333966 0.771627
O O13 0.153963 0.136707 0.592543
O O14 0.081471 0.164623 0.731811
O O15 0.109353 0.000000 0.689136
O O16 0.744969 0.147988 0.500000
O O17 0.799246 0.000000 0.500000
O O18 0.500000 0.214842 0.259903
#
# Coordination Sequence:
#
# PCOD8292045 Si02
#       8
#    16   8   8  16  16   8   8  16
#     4  12  21  37  60  89 123 159 201 254 308 363
#     4   9  19  36  57  86 125 163 200 244 297 364
#     4  10  22  41  61  83 117 160 205 259 305 352
#     4  11  22  38  61  92 127 162 201 249 308 374
#     4  11  23  42  63  90 124 161 204 254 311 366
#     4  10  22  37  62  96 129 158 196 248 308 379
#     4  12  19  36  65  88 119 163 206 250 310 365
#     4  11  23  42  65  89 121 163 208 253 303 361
#
# _framework density 20.368822000000002
#
# number of rings (size 3 to 8) (size 9 to 14) (size 15 to 20)
#    0.000    1.083    5.000    1.500    0.000    2.000 
#    0.000    4.167    0.000    5.750    0.000    0.000 
#    0.000    0.000    0.000    0.000    0.000    0.000 
#
# Total GULP energy -594872.295772 kJ/mol
# GULP energy per Si atom -12393.172829 kJ/mol
# Density = 2.032246 g / cm^3
# Si number density = 20.368822 Si / 1000 Ang^3
#
#
#
# Elastic Constant Matrix: (Units=GPa)
#
#
# Indices 1 2 3 4 5 6 
#
# 1 116.5191 20.2382 38.5197 0.0000 0.0000 0.0000
# 2 20.2382 69.8923 28.1189 0.0000 0.0000 0.0000
# 3 38.5197 28.1189 140.5512 0.0000 0.0000 0.0000
# 4 0.0000 0.0000 0.0000 22.0194 0.0000 0.0000
# 5 0.0000 0.0000 0.0000 0.0000 25.4720 0.0000
# 6 0.0000 0.0000 0.0000 0.0000 0.0000 26.5743
#
#
#
# Elastic Compliance Matrix: (Units=1/GPa)
#
#
# Indices 1 2 3 4 5 6 
#
# 1 0.009660 -0.001884 -0.002271 0.000000 0.000000 0.000000
# 2 -0.001884 0.015927 -0.002670 0.000000 0.000000 0.000000
# 3 -0.002271 -0.002670 0.008271 0.000000 0.000000 0.000000
# 4 0.000000 0.000000 0.000000 0.045415 0.000000 0.000000
# 5 0.000000 0.000000 0.000000 0.000000 0.039259 0.000000
# 6 0.000000 0.000000 0.000000 0.000000 0.000000 0.037630
#
#
# Mechanical properties :
#
#
# Convention : Reuss Voigt Hill
#
# Bulk Modulus (GPa) = 49.48085 55.63512 52.55799
# Shear Modulus (GPa) = 28.32089 30.81888 29.56988
#
# Velocity S-wave (km/s) = 3.73286 3.89400 3.81428
# Velocity P-wave (km/s) = 6.55165 6.89861 6.72737
#
# Compressibility (1/GPa) = 0.02020984
#
# Stress axis : x y z
#
# Youngs Moduli (GPa) = 103.51867 62.78474 120.89941
#
# Poissons Ratio (x) = 0.11827 0.27451
# Poissons Ratio (y) = 0.19500 0.32283
# Poissons Ratio (z) = 0.23505 0.16765
#
# Static dielectric constant tensor:
#      x y z
#    x 4.127740 0.000000 0.000000 
#    y 0.000000 3.319030 0.000000 
#    z 0.000000 0.000000 4.012770 
# 
# 
# High freq. dielectric constant tensor:
#      x y z
#    x 1.809870 0.000000 0.000000 
#    y 0.000000 1.760870 0.000000 
#    z 0.000000 0.000000 1.813140 
# 
# From -- ./inp_files/39242.got.cif
#   From: 2010.06.25/outbox.cif.g09.slc.cpg/sg71_20_cif.got.tgz:39242.got - 2010.06.28 04:59:45.
