data_PCOD8292683
_publ_section_title
;
Structure prediction by ZEFSAII (Michael W. Deem and Ramdas Pophale) SiO2 
 PCOD8292683
Probable space group: I M M M
;
_chemical_formula_sum "Si O2"
_cell_formula_units_Z 104
_cell_length_a 24.608092
_cell_length_b 27.272059
_cell_length_c 9.260912
_cell_angle_alpha 90.000000
_cell_angle_beta 90.000000
_cell_angle_gamma 90.000000
_cell_volume 6215.121555
_symmetry_space_group_name_H-M "I M M M"
_symmetry_group_IT_number 71
_symmetry_cell_setting 'orthorhombic'
loop_
_space_group_symop_operation_xyz
x,y,z
-x,-y,z
x,-y,-z
-x,y,-z
-x,-y,-z
x,y,-z
-x,y,z
x,-y,z
1/2+x,1/2+y,1/2+z
1/2-x,1/2-y,1/2+z
1/2+x,1/2-y,1/2-z
1/2-x,1/2+y,1/2-z
1/2-x,1/2-y,1/2-z
1/2+x,1/2+y,1/2-z
1/2-x,1/2+y,1/2+z
1/2+x,1/2-y,1/2+z
loop_
_atom_site_type_symbol
_atom_site_label
_atom_site_fract_x
_atom_site_fract_y
_atom_site_fract_z
Si Si1 0.649706 0.322982 0.329163
Si Si2 0.263980 0.138712 0.165661
Si Si3 0.064493 0.000000 0.663640
Si Si4 0.162261 0.555368 0.328977
Si Si5 0.940731 0.441790 0.838656
Si Si6 0.694639 0.239946 0.832729
Si Si7 0.062751 0.903930 0.168316
O O1 0.652200 0.312855 0.500000
O O2 0.705084 0.348189 0.267101
O O3 0.646025 0.270318 0.246283
O O4 0.598248 0.356556 0.287765
O O5 0.288845 0.088982 0.233266
O O6 0.310513 0.180966 0.181140
O O7 0.251061 0.128539 0.000000
O O8 0.085047 0.048926 0.744728
O O9 0.086779 0.000000 0.500000
O O10 0.000000 0.000000 0.667051
O O11 0.158287 0.558625 0.500000
O O12 0.173437 0.500000 0.276030
O O13 0.105789 0.576990 0.268490
O O14 0.942013 0.500000 0.836911
O O15 0.000000 0.421913 0.788269
O O16 0.927996 0.422838 0.000000
O O17 0.750000 0.250000 0.750000
O O18 0.698184 0.255968 0.000000
O O19 0.000000 0.892206 0.206155
O O20 0.069789 0.916200 0.000000
#
# Coordination Sequence:
#
# PCOD8292683 Si02
#       7
#    16  16   8  16  16  16  16
#     4   9  17  30  47  68  91 115 151 194 234 277
#     4   8  15  28  43  63  89 115 144 181 224 267
#     4   9  17  29  45  65  91 123 157 193 230 273
#     4   9  16  26  41  61  85 112 142 176 212 255
#     4   8  14  25  40  57  78 105 136 169 204 242
#     4   9  16  28  47  66  87 113 144 184 225 268
#     4   9  17  30  48  69  93 122 157 197 239 282
#
# _framework density 16.733381999999999
#
# number of rings (size 3 to 8) (size 9 to 14) (size 15 to 20)
#    0.000    3.308    0.000    2.077    0.000    1.846 
#    1.385    5.385    0.000    0.923    0.000    4.308 
#    0.000    0.000    0.000    0.000    0.000    0.000 
#
# Total GULP energy -644185.259396 kJ/mol
# GULP energy per Si atom -12388.178065 kJ/mol
# Density = 1.669530 g / cm^3
# Si number density = 16.733382 Si / 1000 Ang^3
#
#
#
# Elastic Constant Matrix: (Units=GPa)
#
#
# Indices 1 2 3 4 5 6 
#
# 1 72.9653 45.8212 22.9853 0.0000 0.0000 0.0000
# 2 45.8212 82.8652 35.3427 0.0000 0.0000 0.0000
# 3 22.9853 35.3427 53.1776 0.0000 0.0000 0.0000
# 4 0.0000 0.0000 0.0000 22.7203 0.0000 0.0000
# 5 0.0000 0.0000 0.0000 0.0000 16.9976 0.0000
# 6 0.0000 0.0000 0.0000 0.0000 0.0000 27.8770
#
#
#
# Elastic Compliance Matrix: (Units=1/GPa)
#
#
# Indices 1 2 3 4 5 6 
#
# 1 0.021134 -0.010872 -0.001909 0.000000 0.000000 0.000000
# 2 -0.010872 0.022435 -0.010211 0.000000 0.000000 0.000000
# 3 -0.001909 -0.010211 0.026417 0.000000 0.000000 0.000000
# 4 0.000000 0.000000 0.000000 0.044014 0.000000 0.000000
# 5 0.000000 0.000000 0.000000 0.000000 0.058832 0.000000
# 6 0.000000 0.000000 0.000000 0.000000 0.000000 0.035872
#
#
# Mechanical properties :
#
#
# Convention : Reuss Voigt Hill
#
# Bulk Modulus (GPa) = 41.66557 46.36738 44.01648
# Shear Modulus (GPa) = 19.03401 20.50957 19.77179
#
# Velocity S-wave (km/s) = 3.37632 3.50475 3.44114
# Velocity P-wave (km/s) = 6.33665 6.64435 6.49232
#
# Compressibility (1/GPa) = 0.02400063
#
# Stress axis : x y z
#
# Youngs Moduli (GPa) = 47.31704 44.57378 37.85488
#
# Poissons Ratio (x) = 0.48461 0.07227
# Poissons Ratio (y) = 0.51443 0.38654
# Poissons Ratio (z) = 0.09034 0.45515
#
# Static dielectric constant tensor:
#      x y z
#    x 3.230450 0.000000 0.000000 
#    y 0.000000 3.388850 0.000000 
#    z 0.000000 0.000000 3.125120 
# 
# 
# High freq. dielectric constant tensor:
#      x y z
#    x 1.620540 0.000000 0.000000 
#    y 0.000000 1.631120 0.000000 
#    z 0.000000 0.000000 1.631950 
# 
# From -- ./inp_files/13610.got.cif
#   From: 2010.06.25/outbox.cif.g09.slc.cpg/sg71_7_cif.got.tgz:13610.got - 2010.06.28 04:59:45.
