data_PCOD8292829
_publ_section_title
;
Structure prediction by ZEFSAII (Michael W. Deem and Ramdas Pophale) SiO2 
 PCOD8292829
Probable space group: I B A M
;
_chemical_formula_sum "Si O2"
_cell_formula_units_Z 112
_cell_length_a 32.725401
_cell_length_b 5.096473
_cell_length_c 33.228148
_cell_angle_alpha 90.000000
_cell_angle_beta 90.000000
_cell_angle_gamma 90.000000
_cell_volume 5541.927510
_symmetry_space_group_name_H-M "I B A M"
_symmetry_group_IT_number 72
_symmetry_cell_setting 'orthorhombic'
loop_
_space_group_symop_operation_xyz
x,y,z
-x,-y,z
x,-y,1/2-z
-x,y,1/2-z
-x,-y,-z
x,y,-z
-x,y,1/2+z
x,-y,1/2+z
1/2+x,1/2+y,1/2+z
1/2-x,1/2-y,1/2+z
1/2+x,1/2-y,-z
1/2-x,1/2+y,-z
1/2-x,1/2-y,1/2-z
1/2+x,1/2+y,1/2-z
1/2-x,1/2+y,z
1/2+x,1/2-y,z
loop_
_atom_site_type_symbol
_atom_site_label
_atom_site_fract_x
_atom_site_fract_y
_atom_site_fract_z
Si Si1 0.544867 0.887342 0.623436
Si Si2 0.635802 0.565129 0.926527
Si Si3 0.591053 0.919936 0.454723
Si Si4 0.410983 0.392887 0.848938
Si Si5 0.231776 0.278057 0.704968
Si Si6 0.724467 0.416132 0.546871
Si Si7 0.641895 0.749661 0.775449
O O1 0.553964 0.848158 0.575836
O O2 0.552739 0.612136 0.647394
O O3 0.500000 0.000000 0.630462
O O4 0.575314 0.101483 0.640648
O O5 0.626859 0.295359 0.950245
O O6 0.624555 0.522720 0.879749
O O7 0.683345 0.632044 0.928257
O O8 0.608892 0.793603 0.946271
O O9 0.573429 0.913311 0.500000
O O10 0.393233 0.365510 0.804286
O O11 0.250000 0.250000 0.750000
O O12 0.255782 0.511706 0.682026
O O13 0.183462 0.340783 0.702560
O O14 0.713136 0.398588 0.500000
O O15 0.756970 0.195309 0.558756
O O16 0.655768 0.500000 0.750000
O O17 0.625020 0.000000 0.750000
#
# Coordination Sequence:
#
# PCOD8292829 Si02
#       7
#    16  16  16  16  16  16  16
#     4  10  21  40  62  83 116 151 180 224 280 350
#     4  10  20  36  52  74 118 148 187 234 283 337
#     4  10  19  32  57  87 111 144 186 230 281 333
#     4  10  23  39  58  87 110 148 188 223 287 354
#     4  10  16  30  49  77 112 144 177 221 270 334
#     4  10  19  30  48  71 100 145 197 238 273 314
#     4  12  21  35  60  84 115 146 189 241 274 329
#
# _framework density 20.209575999999998
#
# number of rings (size 3 to 8) (size 9 to 14) (size 15 to 20)
#    0.000    1.714    2.857    3.429    0.000    1.429 
#    0.000    1.429    0.000   11.571    0.000    0.000 
#    0.000    0.000    0.000    0.000    0.000    0.000 
#
# Total GULP energy -694229.217723 kJ/mol
# GULP energy per Si atom -12396.950316 kJ/mol
# Density = 2.016358 g / cm^3
# Si number density = 20.209576 Si / 1000 Ang^3
#
#
#
# Elastic Constant Matrix: (Units=GPa)
#
#
# Indices 1 2 3 4 5 6 
#
# 1 82.2319 9.9221 36.4940 0.0000 0.0000 0.0000
# 2 9.9221 128.8779 30.2378 0.0000 0.0000 0.0000
# 3 36.4940 30.2378 65.9473 0.0000 0.0000 0.0000
# 4 0.0000 0.0000 0.0000 20.2130 0.0000 0.0000
# 5 0.0000 0.0000 0.0000 0.0000 15.9060 0.0000
# 6 0.0000 0.0000 0.0000 0.0000 0.0000 29.8983
#
#
#
# Elastic Compliance Matrix: (Units=1/GPa)
#
#
# Indices 1 2 3 4 5 6 
#
# 1 0.016225 0.000961 -0.009419 0.000000 0.000000 0.000000
# 2 0.000961 0.008752 -0.004544 0.000000 0.000000 0.000000
# 3 -0.009419 -0.004544 0.022460 0.000000 0.000000 0.000000
# 4 0.000000 0.000000 0.000000 0.049473 0.000000 0.000000
# 5 0.000000 0.000000 0.000000 0.000000 0.062869 0.000000
# 6 0.000000 0.000000 0.000000 0.000000 0.000000 0.033447
#
#
# Mechanical properties :
#
#
# Convention : Reuss Voigt Hill
#
# Bulk Modulus (GPa) = 46.66201 47.81833 47.24017
# Shear Modulus (GPa) = 22.08728 26.56365 24.32547
#
# Velocity S-wave (km/s) = 3.30951 3.62941 3.47314
# Velocity P-wave (km/s) = 6.14353 6.42465 6.28566
#
# Compressibility (1/GPa) = 0.02143071
#
# Stress axis : x y z
#
# Youngs Moduli (GPa) = 61.63343 114.26564 44.52424
#
# Poissons Ratio (x) = -0.10979 0.41938
# Poissons Ratio (y) = -0.05922 0.20234
# Poissons Ratio (z) = 0.58053 0.51927
#
# Static dielectric constant tensor:
#      x y z
#    x 3.345130 0.000000 0.000000 
#    y 0.000000 1.379730 0.000000 
#    z 0.000000 0.000000 3.430330 
# 
# 
# High freq. dielectric constant tensor:
#      x y z
#    x 1.768710 0.000000 0.000000 
#    y 0.000000 1.819300 0.000000 
#    z 0.000000 0.000000 1.752660 
# 
# From -- ./inp_files/52586.got.cif
#   From: 2010.03.12/outbox.cif.g09.slc.cpg/sg72_27_cif.got.tgz:52586.got - 2010.04.16 14:54:00.
