data_PCOD8292438
_publ_section_title
;
Structure prediction by ZEFSAII (Michael W. Deem and Ramdas Pophale) SiO2 
 PCOD8292438
Probable space group: I M M M
;
_chemical_formula_sum "Si O2"
_cell_formula_units_Z 96
_cell_length_a 20.637638
_cell_length_b 8.732065
_cell_length_c 28.088306
_cell_angle_alpha 90.000000
_cell_angle_beta 90.000000
_cell_angle_gamma 90.000000
_cell_volume 5061.771054
_symmetry_space_group_name_H-M "I M M M"
_symmetry_group_IT_number 71
_symmetry_cell_setting 'orthorhombic'
loop_
_space_group_symop_operation_xyz
x,y,z
-x,-y,z
x,-y,-z
-x,y,-z
-x,-y,-z
x,y,-z
-x,y,z
x,-y,z
1/2+x,1/2+y,1/2+z
1/2-x,1/2-y,1/2+z
1/2+x,1/2-y,1/2-z
1/2-x,1/2+y,1/2-z
1/2-x,1/2-y,1/2-z
1/2+x,1/2+y,1/2-z
1/2-x,1/2+y,1/2+z
1/2+x,1/2-y,1/2+z
loop_
_atom_site_type_symbol
_atom_site_label
_atom_site_fract_x
_atom_site_fract_y
_atom_site_fract_z
Si Si1 0.188058 0.317184 0.446253
Si Si2 0.809893 0.817471 0.886508
Si Si3 0.190868 0.819323 0.778943
Si Si4 0.428379 0.317781 0.553343
Si Si5 0.574634 0.178601 0.224111
Si Si6 0.428732 0.817875 0.116495
O O1 0.190252 0.253294 0.500000
O O2 0.187411 0.500000 0.446523
O O3 0.249708 0.255067 0.417259
O O4 0.123802 0.251991 0.420368
O O5 0.804595 0.756294 0.832807
O O6 0.875577 0.750958 0.910088
O O7 0.810524 0.000000 0.887168
O O8 0.250000 0.750000 0.750000
O O9 0.121189 0.773543 0.758358
O O10 0.197836 0.000000 0.777826
O O11 0.412405 0.259571 0.500000
O O12 0.500000 0.260868 0.568870
O O13 0.426158 0.500000 0.553708
O O14 0.500000 0.211521 0.238091
O O15 0.588161 0.233997 0.170145
O O16 0.590888 0.000000 0.229489
O O17 0.500000 0.756146 0.101862
O O18 0.429140 0.000000 0.115353
#
# Coordination Sequence:
#
# PCOD8292438 Si02
#       6
#    16  16  16  16  16  16
#     4   9  15  22  35  56  84 118 152 185 224 277
#     4   9  17  27  39  58  86 120 154 189 233 281
#     4  11  22  34  50  71  98 132 168 207 246 286
#     4   8  13  22  37  57  84 118 149 177 220 283
#     4   9  18  34  54  73  98 132 164 197 242 294
#     4   8  14  25  41  61  87 120 152 182 226 283
#
# _framework density 18.965693999999999
#
# number of rings (size 3 to 8) (size 9 to 14) (size 15 to 20)
#    0.000    3.000    0.000    3.500    0.000    6.000 
#    0.000    3.333    0.000    0.000    0.000    0.000 
#    0.000   31.333    0.000   29.333    0.000   26.667 
#
# Total GULP energy -595003.293056 kJ/mol
# GULP energy per Si atom -12395.901939 kJ/mol
# Density = 1.892253 g / cm^3
# Si number density = 18.965694 Si / 1000 Ang^3
#
#
#
# Elastic Constant Matrix: (Units=GPa)
#
#
# Indices 1 2 3 4 5 6 
#
# 1 171.7420 17.5723 113.1244 0.0000 0.0000 0.0000
# 2 17.5723 19.1488 18.6947 0.0000 0.0000 0.0000
# 3 113.1244 18.6947 175.1064 0.0000 0.0000 0.0000
# 4 0.0000 0.0000 0.0000 16.6570 0.0000 0.0000
# 5 0.0000 0.0000 0.0000 0.0000 43.9605 0.0000
# 6 0.0000 0.0000 0.0000 0.0000 0.0000 18.0086
#
#
#
# Elastic Compliance Matrix: (Units=1/GPa)
#
#
# Indices 1 2 3 4 5 6 
#
# 1 0.010320 -0.003306 -0.006314 0.000000 0.000000 0.000000
# 2 -0.003306 0.059358 -0.004201 0.000000 0.000000 0.000000
# 3 -0.006314 -0.004201 0.010238 0.000000 0.000000 0.000000
# 4 0.000000 0.000000 0.000000 0.060035 0.000000 0.000000
# 5 0.000000 0.000000 0.000000 0.000000 0.022748 0.000000
# 6 0.000000 0.000000 0.000000 0.000000 0.000000 0.055529
#
#
# Mechanical properties :
#
#
# Convention : Reuss Voigt Hill
#
# Bulk Modulus (GPa) = 19.13008 73.86445 46.49726
# Shear Modulus (GPa) = 18.99004 30.16560 24.57782
#
# Velocity S-wave (km/s) = 3.16774 3.99248 3.60378
# Velocity P-wave (km/s) = 4.84644 7.76428 6.47194
#
# Compressibility (1/GPa) = 0.05227371
#
# Stress axis : x y z
#
# Youngs Moduli (GPa) = 96.89962 16.84684 97.67085
#
# Poissons Ratio (x) = 0.05570 0.61670
# Poissons Ratio (y) = 0.32035 0.41036
# Poissons Ratio (z) = 0.61183 0.07078
#
# Static dielectric constant tensor:
#      x y z
#    x 3.847900 0.000000 0.000000 
#    y 0.000000 2.754140 0.000000 
#    z 0.000000 0.000000 3.704460 
# 
# 
# High freq. dielectric constant tensor:
#      x y z
#    x 1.756570 0.000000 0.000000 
#    y 0.000000 1.660880 0.000000 
#    z 0.000000 0.000000 1.742820 
# 
# From -- ./inp_files/10919.got.cif
#   From: 2010.06.25/outbox.cif.g09.slc.cpg/sg71_6_cif.got.tgz:10919.got - 2010.06.28 04:59:45.
