data_PCOD8292287
_publ_section_title
;
Structure prediction by ZEFSAII (Michael W. Deem and Ramdas Pophale) SiO2 
 PCOD8292287
Probable space group: I M M M
;
_chemical_formula_sum "Si O2"
_cell_formula_units_Z 88
_cell_length_a 30.187388
_cell_length_b 9.091110
_cell_length_c 18.292383
_cell_angle_alpha 90.000000
_cell_angle_beta 90.000000
_cell_angle_gamma 90.000000
_cell_volume 5020.104242
_symmetry_space_group_name_H-M "I M M M"
_symmetry_group_IT_number 71
_symmetry_cell_setting 'orthorhombic'
loop_
_space_group_symop_operation_xyz
x,y,z
-x,-y,z
x,-y,-z
-x,y,-z
-x,-y,-z
x,y,-z
-x,y,z
x,-y,z
1/2+x,1/2+y,1/2+z
1/2-x,1/2-y,1/2+z
1/2+x,1/2-y,1/2-z
1/2-x,1/2+y,1/2-z
1/2-x,1/2-y,1/2-z
1/2+x,1/2+y,1/2-z
1/2-x,1/2+y,1/2+z
1/2+x,1/2-y,1/2+z
loop_
_atom_site_type_symbol
_atom_site_label
_atom_site_fract_x
_atom_site_fract_y
_atom_site_fract_z
Si Si1 0.051058 0.173254 0.645923
Si Si2 0.745843 0.664607 0.583538
Si Si3 0.881455 0.174447 0.233604
Si Si4 0.354663 0.675024 0.579812
Si Si5 0.552628 0.833244 0.000000
Si Si6 0.711948 0.673512 0.204117
O O1 0.077969 0.232756 0.716773
O O2 0.069774 0.251693 0.573036
O O3 0.000000 0.213532 0.660214
O O4 0.057726 0.000000 0.634376
O O5 0.759782 0.660924 0.500000
O O6 0.748913 0.500000 0.617259
O O7 0.695863 0.725509 0.593716
O O8 0.780841 0.773620 0.621233
O O9 0.884381 0.231600 0.148692
O O10 0.835703 0.229526 0.268808
O O11 0.882854 0.000000 0.232686
O O12 0.371397 0.735656 0.500000
O O13 0.355179 0.500000 0.576403
O O14 0.500000 0.827666 0.000000
O O15 0.570454 0.000000 0.000000
O O16 0.715979 0.500000 0.210561
O O17 0.750000 0.750000 0.250000
#
# Coordination Sequence:
#
# PCOD8292287 Si02
#       6
#    16  16  16  16   8  16
#     4   9  17  31  52  73  93 122 160 198 233 277
#     4   9  17  31  49  66  89 124 162 196 232 280
#     4   9  17  29  46  69  94 122 158 195 234 282
#     4   8  13  24  45  68  89 119 156 187 221 272
#     4   9  17  31  51  73  97 123 153 193 239 285
#     4  11  20  31  47  67  95 127 159 197 239 282
#
# _framework density 17.529516999999998
#
# number of rings (size 3 to 8) (size 9 to 14) (size 15 to 20)
#    0.000    2.818    1.818    1.909    0.000    1.455 
#    1.636    1.818    0.000    0.545    0.000    3.818 
#    0.000    0.000    0.000    4.545    0.000    4.727 
#
# Total GULP energy -545213.338812 kJ/mol
# GULP energy per Si atom -12391.212246 kJ/mol
# Density = 1.748962 g / cm^3
# Si number density = 17.529517 Si / 1000 Ang^3
#
#
#
# Elastic Constant Matrix: (Units=GPa)
#
#
# Indices 1 2 3 4 5 6 
#
# 1 73.7554 22.1732 66.0168 0.0000 0.0000 0.0000
# 2 22.1732 39.0882 31.3143 0.0000 0.0000 0.0000
# 3 66.0168 31.3143 172.8510 0.0000 0.0000 0.0000
# 4 0.0000 0.0000 0.0000 20.2478 0.0000 0.0000
# 5 0.0000 0.0000 0.0000 0.0000 31.6836 0.0000
# 6 0.0000 0.0000 0.0000 0.0000 0.0000 15.1612
#
#
#
# Elastic Compliance Matrix: (Units=1/GPa)
#
#
# Indices 1 2 3 4 5 6 
#
# 1 0.022017 -0.006729 -0.007190 0.000000 0.000000 0.000000
# 2 -0.006729 0.031983 -0.003224 0.000000 0.000000 0.000000
# 3 -0.007190 -0.003224 0.009115 0.000000 0.000000 0.000000
# 4 0.000000 0.000000 0.000000 0.049388 0.000000 0.000000
# 5 0.000000 0.000000 0.000000 0.000000 0.031562 0.000000
# 6 0.000000 0.000000 0.000000 0.000000 0.000000 0.065958
#
#
# Mechanical properties :
#
#
# Convention : Reuss Voigt Hill
#
# Bulk Modulus (GPa) = 34.68713 58.30036 46.49375
# Shear Modulus (GPa) = 19.69129 24.49788 22.09458
#
# Velocity S-wave (km/s) = 3.35524 3.74240 3.55409
# Velocity P-wave (km/s) = 5.90262 7.21143 6.58960
#
# Compressibility (1/GPa) = 0.02882914
#
# Stress axis : x y z
#
# Youngs Moduli (GPa) = 45.41998 31.26623 109.70472
#
# Poissons Ratio (x) = 0.21040 0.78875
# Poissons Ratio (y) = 0.30565 0.35370
# Poissons Ratio (z) = 0.32656 0.10080
#
# Static dielectric constant tensor:
#      x y z
#    x 3.135840 0.000000 0.000000 
#    y 0.000000 3.132280 0.000000 
#    z 0.000000 0.000000 3.935830 
# 
# 
# High freq. dielectric constant tensor:
#      x y z
#    x 1.639640 0.000000 0.000000 
#    y 0.000000 1.638610 0.000000 
#    z 0.000000 0.000000 1.699100 
# 
# From -- ./inp_files/12570.got.cif
#   From: 2010.06.25/outbox.cif.g09.slc.cpg/sg71_7_cif.got.tgz:12570.got - 2010.06.28 04:59:45.
