data_PCOD8292227
_publ_section_title
;
Structure prediction by ZEFSAII (Michael W. Deem and Ramdas Pophale) SiO2 
 PCOD8292227
Probable space group: I M M M
;
_chemical_formula_sum "Si O2"
_cell_formula_units_Z 90
_cell_length_a 22.216018
_cell_length_b 24.379326
_cell_length_c 7.953516
_cell_angle_alpha 90.000000
_cell_angle_beta 90.000000
_cell_angle_gamma 90.000000
_cell_volume 4307.716091
_symmetry_space_group_name_H-M "I M M M"
_symmetry_group_IT_number 71
_symmetry_cell_setting 'orthorhombic'
loop_
_space_group_symop_operation_xyz
x,y,z
-x,-y,z
x,-y,-z
-x,y,-z
-x,-y,-z
x,y,-z
-x,y,z
x,-y,z
1/2+x,1/2+y,1/2+z
1/2-x,1/2-y,1/2+z
1/2+x,1/2-y,1/2-z
1/2-x,1/2+y,1/2-z
1/2-x,1/2-y,1/2-z
1/2+x,1/2+y,1/2-z
1/2-x,1/2+y,1/2+z
1/2+x,1/2-y,1/2+z
loop_
_atom_site_type_symbol
_atom_site_label
_atom_site_fract_x
_atom_site_fract_y
_atom_site_fract_z
Si Si1 0.000000 0.786646 0.808595
Si Si2 0.000000 0.916147 0.190939
Si Si3 0.500000 0.000000 0.000000
Si Si4 0.874359 0.744313 0.691286
Si Si5 0.128572 0.060901 0.309397
Si Si6 0.834440 0.368657 0.187879
Si Si7 0.878870 0.559534 0.500000
Si Si8 0.294758 0.655725 0.310452
O O1 0.941624 0.765485 0.713246
O O2 0.000000 0.851261 0.799938
O O3 0.000000 0.765546 0.000000
O O4 0.942655 0.940084 0.285057
O O5 0.000000 0.937037 0.000000
O O6 0.549174 0.049702 0.000000
O O7 0.863336 0.727267 0.500000
O O8 0.865825 0.690482 0.802749
O O9 0.826067 0.790293 0.739048
O O10 0.143506 0.078048 0.500000
O O11 0.158945 0.104987 0.187407
O O12 0.153904 0.000000 0.270545
O O13 0.860301 0.409053 0.329663
O O14 0.763032 0.360644 0.203227
O O15 0.847661 0.392496 0.000000
O O16 0.845254 0.500000 0.500000
O O17 0.274266 0.667790 0.500000
#
# Coordination Sequence:
#
# PCOD8292227 Si02
#       8
#     8   8   2  16  16  16   8  16
#     4  11  23  39  61  96 132 178 230 286 348 417
#     4  11  22  38  60  85 123 170 226 287 345 401
#     4   8  24  52  90 104 156 182 232 310 364 432
#     4  12  24  42  67 102 141 184 232 291 356 422
#     4  11  24  40  60  88 123 173 234 287 342 405
#     4  12  25  46  74 108 144 186 234 283 351 432
#     4  10  24  52  78 112 144 185 229 292 357 418
#     4  12  24  42  65  98 142 185 234 290 350 418
#
# _framework density 20.892741999999998
#
# number of rings (size 3 to 8) (size 9 to 14) (size 15 to 20)
#    0.267    0.356    3.556    5.067    0.000    4.978 
#    0.000    1.778    0.000    0.000    0.000    0.000 
#    0.000    0.000    0.000    0.000    0.000    0.000 
#
# Total GULP energy -557608.503917 kJ/mol
# GULP energy per Si atom -12391.300087 kJ/mol
# Density = 2.084519 g / cm^3
# Si number density = 20.892742 Si / 1000 Ang^3
#
#
#
# Elastic Constant Matrix: (Units=GPa)
#
#
# Indices 1 2 3 4 5 6 
#
# 1 100.2966 43.3890 35.3067 0.0000 0.0000 0.0000
# 2 43.3890 113.7622 43.4554 0.0000 0.0000 0.0000
# 3 35.3067 43.4554 138.1847 0.0000 0.0000 0.0000
# 4 0.0000 0.0000 0.0000 19.3842 0.0000 0.0000
# 5 0.0000 0.0000 0.0000 0.0000 33.3899 0.0000
# 6 0.0000 0.0000 0.0000 0.0000 0.0000 -93.9021
#
#
#
# Elastic Compliance Matrix: (Units=1/GPa)
#
#
# Indices 1 2 3 4 5 6 
#
# 1 0.012367 -0.003989 -0.001905 0.000000 0.000000 0.000000
# 2 -0.003989 0.011277 -0.002527 0.000000 0.000000 0.000000
# 3 -0.001905 -0.002527 0.008518 0.000000 0.000000 0.000000
# 4 0.000000 0.000000 0.000000 0.051588 0.000000 0.000000
# 5 0.000000 0.000000 0.000000 0.000000 0.029949 0.000000
# 6 0.000000 0.000000 0.000000 0.000000 0.000000 -0.010649
#
#
# Mechanical properties :
#
#
# Convention : Reuss Voigt Hill
#
# Bulk Modulus (GPa) = 65.27745 66.28285 65.78015
# Shear Modulus (GPa) = 40.00026 7.11390 23.55708
#
# Velocity S-wave (km/s) = 4.38031 1.84726 3.36151
# Velocity P-wave (km/s) = 7.54286 6.02860 6.82784
#
# Compressibility (1/GPa) = 0.01531923
#
# Stress axis : x y z
#
# Youngs Moduli (GPa) = 80.86181 88.67647 117.39523
#
# Poissons Ratio (x) = 0.35372 0.22368
# Poissons Ratio (y) = 0.32255 0.29667
# Poissons Ratio (z) = 0.15407 0.22410
#
# Static dielectric constant tensor:
#      x y z
#    x 3.754900 0.000000 0.000000 
#    y 0.000000 3.827830 0.000000 
#    z 0.000000 0.000000 3.859580 
# 
# 
# High freq. dielectric constant tensor:
#      x y z
#    x 1.821160 0.000000 0.000000 
#    y 0.000000 1.825230 0.000000 
#    z 0.000000 0.000000 1.824110 
# 
# From -- ./inp_files/10591.got.cif
#   From: 2010.06.25/outbox.cif.g09.slc.cpg/sg71_6_cif.got.tgz:10591.got - 2010.06.28 04:59:45.
