data_PCOD8292431
_publ_section_title
;
Structure prediction by ZEFSAII (Michael W. Deem and Ramdas Pophale) SiO2 
 PCOD8292431
Probable space group: I M M M
;
_chemical_formula_sum "Si O2"
_cell_formula_units_Z 104
_cell_length_a 19.968633
_cell_length_b 14.861481
_cell_length_c 16.958255
_cell_angle_alpha 90.000000
_cell_angle_beta 90.000000
_cell_angle_gamma 90.000000
_cell_volume 5032.590428
_symmetry_space_group_name_H-M "I M M M"
_symmetry_group_IT_number 71
_symmetry_cell_setting 'orthorhombic'
loop_
_space_group_symop_operation_xyz
x,y,z
-x,-y,z
x,-y,-z
-x,y,-z
-x,-y,-z
x,y,-z
-x,y,z
x,-y,z
1/2+x,1/2+y,1/2+z
1/2-x,1/2-y,1/2+z
1/2+x,1/2-y,1/2-z
1/2-x,1/2+y,1/2-z
1/2-x,1/2-y,1/2-z
1/2+x,1/2+y,1/2-z
1/2-x,1/2+y,1/2+z
1/2+x,1/2-y,1/2+z
loop_
_atom_site_type_symbol
_atom_site_label
_atom_site_fract_x
_atom_site_fract_y
_atom_site_fract_z
Si Si1 0.226063 0.395537 0.179322
Si Si2 0.123293 0.153769 0.337162
Si Si3 0.428337 0.599710 0.000000
Si Si4 0.818368 0.226444 0.091266
Si Si5 0.424380 0.601015 0.675758
Si Si6 0.203284 0.598064 0.357518
Si Si7 0.924299 0.672047 0.410658
O O1 0.225187 0.500000 0.149665
O O2 0.300414 0.356338 0.189341
O O3 0.185860 0.330174 0.119963
O O4 0.192691 0.386418 0.264668
O O5 0.116411 0.111703 0.423031
O O6 0.078563 0.105958 0.270845
O O7 0.097869 0.255854 0.344943
O O8 0.453513 0.500000 0.000000
O O9 0.500000 0.656165 0.000000
O O10 0.876202 0.174537 0.137741
O O11 0.747785 0.176144 0.103760
O O12 0.837293 0.227485 0.000000
O O13 0.500000 0.620913 0.648244
O O14 0.403300 0.500000 0.649748
O O15 0.237091 0.500000 0.371526
O O16 0.130159 0.593591 0.399140
O O17 0.918448 0.712183 0.500000
O O18 0.000000 0.637026 0.395101
#
# Coordination Sequence:
#
# PCOD8292431 Si02
#       7
#    16  16   8  16  16  16  16
#     4  11  24  42  66  94 126 163 213 267 318 377
#     4  12  21  38  59  90 129 169 208 258 311 376
#     4  11  22  32  50  84 125 167 206 247 305 381
#     4  12  25  42  65  95 126 167 214 266 321 376
#     4  11  24  42  66  95 128 168 212 262 320 381
#     4  11  23  42  65  90 123 168 216 265 316 375
#     4  11  23  38  59  91 130 170 211 256 312 379
#
# _framework density 20.665300999999999
#
# number of rings (size 3 to 8) (size 9 to 14) (size 15 to 20)
#    0.000    0.692    3.846    5.077    1.077    4.308 
#    0.000    1.538    0.000    1.385    0.000    1.077 
#    0.000    0.000    0.000    0.000    0.000    0.000 
#
# Total GULP energy -644614.205618 kJ/mol
# GULP energy per Si atom -12396.427031 kJ/mol
# Density = 2.061827 g / cm^3
# Si number density = 20.665301 Si / 1000 Ang^3
#
#
#
# Elastic Constant Matrix: (Units=GPa)
#
#
# Indices 1 2 3 4 5 6 
#
# 1 122.0433 39.5024 38.9917 0.0000 0.0000 0.0000
# 2 39.5024 108.1523 34.6228 0.0000 0.0000 0.0000
# 3 38.9917 34.6228 100.4924 0.0000 0.0000 0.0000
# 4 0.0000 0.0000 0.0000 21.4042 0.0000 0.0000
# 5 0.0000 0.0000 0.0000 0.0000 26.6084 0.0000
# 6 0.0000 0.0000 0.0000 0.0000 0.0000 29.9446
#
#
#
# Elastic Compliance Matrix: (Units=1/GPa)
#
#
# Indices 1 2 3 4 5 6 
#
# 1 0.010015 -0.002713 -0.002951 0.000000 0.000000 0.000000
# 2 -0.002713 0.011128 -0.002781 0.000000 0.000000 0.000000
# 3 -0.002951 -0.002781 0.012054 0.000000 0.000000 0.000000
# 4 0.000000 0.000000 0.000000 0.046720 0.000000 0.000000
# 5 0.000000 0.000000 0.000000 0.000000 0.037582 0.000000
# 6 0.000000 0.000000 0.000000 0.000000 0.000000 0.033395
#
#
# Mechanical properties :
#
#
# Convention : Reuss Voigt Hill
#
# Bulk Modulus (GPa) = 61.32717 61.88018 61.60368
# Shear Modulus (GPa) = 28.86512 30.09617 29.48064
#
# Velocity S-wave (km/s) = 3.74142 3.82037 3.78110
# Velocity P-wave (km/s) = 6.95738 7.03344 6.99552
#
# Compressibility (1/GPa) = 0.01630599
#
# Stress axis : x y z
#
# Youngs Moduli (GPa) = 99.85185 89.86743 82.95879
#
# Poissons Ratio (x) = 0.24383 0.24481
# Poissons Ratio (y) = 0.27092 0.23071
# Poissons Ratio (z) = 0.29467 0.24992
#
# Static dielectric constant tensor:
#      x y z
#    x 3.707010 0.000000 0.000000 
#    y 0.000000 3.866030 0.000000 
#    z 0.000000 0.000000 3.688370 
# 
# 
# High freq. dielectric constant tensor:
#      x y z
#    x 1.802050 0.000000 0.000000 
#    y 0.000000 1.813810 0.000000 
#    z 0.000000 0.000000 1.802370 
# 
# From -- ./inp_files/47310.got.cif
#   From: 2010.06.25/outbox.cif.g09.slc.cpg/sg71_24_cif.got.tgz:47310.got - 2010.06.28 04:59:45.
