data_PCOD8292127
_publ_section_title
;
Structure prediction by ZEFSAII (Michael W. Deem and Ramdas Pophale) SiO2 
 PCOD8292127
Probable space group: I M M M
;
_chemical_formula_sum "Si O2"
_cell_formula_units_Z 84
_cell_length_a 20.458036
_cell_length_b 15.024452
_cell_length_c 14.900122
_cell_angle_alpha 90.000000
_cell_angle_beta 90.000000
_cell_angle_gamma 90.000000
_cell_volume 4579.862120
_symmetry_space_group_name_H-M "I M M M"
_symmetry_group_IT_number 71
_symmetry_cell_setting 'orthorhombic'
loop_
_space_group_symop_operation_xyz
x,y,z
-x,-y,z
x,-y,-z
-x,y,-z
-x,-y,-z
x,y,-z
-x,y,z
x,-y,z
1/2+x,1/2+y,1/2+z
1/2-x,1/2-y,1/2+z
1/2+x,1/2-y,1/2-z
1/2-x,1/2+y,1/2-z
1/2-x,1/2-y,1/2-z
1/2+x,1/2+y,1/2-z
1/2-x,1/2+y,1/2+z
1/2+x,1/2-y,1/2+z
loop_
_atom_site_type_symbol
_atom_site_label
_atom_site_fract_x
_atom_site_fract_y
_atom_site_fract_z
Si Si1 0.381595 0.834485 0.183523
Si Si2 0.500000 0.395650 0.738411
Si Si3 0.571087 0.797586 0.500000
Si Si4 0.749732 0.399712 0.395576
Si Si5 0.500000 0.256718 0.898655
Si Si6 0.623238 0.696563 0.333201
Si Si7 0.922102 0.500000 0.804468
Si Si8 0.908606 0.500000 0.000000
O O1 0.317879 0.853604 0.125796
O O2 0.438255 0.807851 0.114732
O O3 0.365332 0.749902 0.243020
O O4 0.405166 0.914540 0.246160
O O5 0.500000 0.500000 0.761482
O O6 0.500000 0.340321 0.831087
O O7 0.563093 0.371661 0.678330
O O8 0.500000 0.751405 0.500000
O O9 0.610807 0.766076 0.413241
O O10 0.556742 0.903571 0.500000
O O11 0.735177 0.393410 0.500000
O O12 0.755022 0.500000 0.361280
O O13 0.689599 0.356403 0.345050
O O14 0.500000 0.294207 0.000000
O O15 0.000000 0.500000 0.829892
O O16 0.878014 0.500000 0.897959
#
# Coordination Sequence:
#
# PCOD8292127 Si02
#       8
#    16   8   8  16   8  16   8   4
#     4  11  22  38  59  83 118 152 194 237 291 349
#     4  10  22  40  63  89 113 147 191 239 290 346
#     4  12  21  36  56  92 120 153 192 237 292 349
#     4  11  23  38  56  82 113 153 198 244 290 343
#     4  10  22  40  63  89 113 147 191 239 290 346
#     4  11  22  38  59  83 118 152 194 237 291 349
#     4  12  21  36  56  92 120 153 192 237 292 349
#     4  12  25  32  64  92 128 156 188 245 290 353
#
# _framework density 18.341162000000001
#
# number of rings (size 3 to 8) (size 9 to 14) (size 15 to 20)
#    0.000    0.952    5.714    2.571    0.000    0.190 
#    0.000    0.952    0.000    0.000    0.000    0.000 
#    0.000    0.000    0.000    0.000    0.000    0.000 
#
# Total GULP energy -520503.935551 kJ/mol
# GULP energy per Si atom -12392.950846 kJ/mol
# Density = 1.829942 g / cm^3
# Si number density = 18.341162 Si / 1000 Ang^3
#
#
#
# Elastic Constant Matrix: (Units=GPa)
#
#
# Indices 1 2 3 4 5 6 
#
# 1 132.3691 56.0002 27.4503 0.0000 0.0000 0.0000
# 2 56.0002 104.8725 30.3303 0.0000 0.0000 0.0000
# 3 27.4503 30.3303 77.0609 0.0000 0.0000 0.0000
# 4 0.0000 0.0000 0.0000 31.9733 0.0000 0.0000
# 5 0.0000 0.0000 0.0000 0.0000 25.9460 0.0000
# 6 0.0000 0.0000 0.0000 0.0000 0.0000 14.1812
#
#
#
# Elastic Compliance Matrix: (Units=1/GPa)
#
#
# Indices 1 2 3 4 5 6 
#
# 1 0.009939 -0.004834 -0.001638 0.000000 0.000000 0.000000
# 2 -0.004834 0.013111 -0.003438 0.000000 0.000000 0.000000
# 3 -0.001638 -0.003438 0.014914 0.000000 0.000000 0.000000
# 4 0.000000 0.000000 0.000000 0.031276 0.000000 0.000000
# 5 0.000000 0.000000 0.000000 0.000000 0.038542 0.000000
# 6 0.000000 0.000000 0.000000 0.000000 0.000000 0.070516
#
#
# Mechanical properties :
#
#
# Convention : Reuss Voigt Hill
#
# Bulk Modulus (GPa) = 55.11644 60.20710 57.66177
# Shear Modulus (GPa) = 24.48995 27.78822 26.13909
#
# Velocity S-wave (km/s) = 3.65806 3.89662 3.77922
# Velocity P-wave (km/s) = 6.92516 7.28988 7.10986
#
# Compressibility (1/GPa) = 0.01814341
#
# Stress axis : x y z
#
# Youngs Moduli (GPa) = 100.61110 76.27223 67.05287
#
# Poissons Ratio (x) = 0.36867 0.10984
# Poissons Ratio (y) = 0.48632 0.23056
# Poissons Ratio (z) = 0.16481 0.26226
#
# Static dielectric constant tensor:
#      x y z
#    x 3.319500 0.000000 0.000000 
#    y 0.000000 3.461860 0.000000 
#    z 0.000000 0.000000 3.387310 
# 
# 
# High freq. dielectric constant tensor:
#      x y z
#    x 1.705280 0.000000 0.000000 
#    y 0.000000 1.717760 0.000000 
#    z 0.000000 0.000000 1.718050 
# 
# From -- ./inp_files/37804.got.cif
#   From: 2010.06.25/outbox.cif.g09.slc.cpg/sg71_19_cif.got.tgz:37804.got - 2010.06.28 04:59:45.
