data_PCOD8292973
_publ_section_title
;
Structure prediction by ZEFSAII (Michael W. Deem and Ramdas Pophale) SiO2 
 PCOD8292973
Probable space group: I B A M
;
_chemical_formula_sum "Si O2"
_cell_formula_units_Z 80
_cell_length_a 15.569582
_cell_length_b 13.005607
_cell_length_c 17.569007
_cell_angle_alpha 90.000000
_cell_angle_beta 90.000000
_cell_angle_gamma 90.000000
_cell_volume 3557.580987
_symmetry_space_group_name_H-M "I B A M"
_symmetry_group_IT_number 72
_symmetry_cell_setting 'orthorhombic'
loop_
_space_group_symop_operation_xyz
x,y,z
-x,-y,z
x,-y,1/2-z
-x,y,1/2-z
-x,-y,-z
x,y,-z
-x,y,1/2+z
x,-y,1/2+z
1/2+x,1/2+y,1/2+z
1/2-x,1/2-y,1/2+z
1/2+x,1/2-y,-z
1/2-x,1/2+y,-z
1/2-x,1/2-y,1/2-z
1/2+x,1/2+y,1/2-z
1/2-x,1/2+y,z
1/2+x,1/2-y,z
loop_
_atom_site_type_symbol
_atom_site_label
_atom_site_fract_x
_atom_site_fract_y
_atom_site_fract_z
Si Si1 0.097737 0.496355 0.839782
Si Si2 0.867958 0.703758 0.590457
Si Si3 0.115968 0.017228 0.912168
Si Si4 0.733526 0.874406 0.586727
Si Si5 0.000925 0.157376 0.659998
O O1 0.101600 0.500000 0.750000
O O2 0.149580 0.591053 0.876951
O O3 0.145675 0.391057 0.865851
O O4 0.000000 0.500000 0.869587
O O5 0.873179 0.703790 0.500000
O O6 0.790536 0.779080 0.617709
O O7 0.960527 0.738994 0.623787
O O8 0.214524 0.982701 0.906013
O O9 0.062093 0.934401 0.865480
O O10 0.086842 0.019147 0.000000
O O11 0.094698 0.128846 0.873400
O O12 0.708028 0.852381 0.500000
O O13 0.000000 0.170399 0.750000
#
# Coordination Sequence:
#
# PCOD8292973 Si02
#       5
#    16  16  16  16  16
#     4  11  26  45  67  93 133 173 217 267 325 391
#     4  10  22  42  66  92 126 170 217 267 323 387
#     4   9  16  31  54  87 129 167 211 262 322 387
#     4   9  20  40  65  93 125 166 217 271 320 383
#     4  10  18  28  54  89 129 168 206 262 322 385
#
# _framework density 22.487190999999999
#
# number of rings (size 3 to 8) (size 9 to 14) (size 15 to 20)
#    0.000    2.200    0.000    5.400    2.800    5.600 
#    3.600    0.000    0.000    0.000    0.000    0.000 
#    0.000    0.000    0.000    0.000    0.000    0.000 
#
# Total GULP energy -495702.144176 kJ/mol
# GULP energy per Si atom -12392.553604 kJ/mol
# Density = 2.243601 g / cm^3
# Si number density = 22.487191 Si / 1000 Ang^3
#
#
#
# Elastic Constant Matrix: (Units=GPa)
#
#
# Indices 1 2 3 4 5 6 
#
# 1 87.7655 27.6094 44.9487 0.0000 0.0000 0.0000
# 2 27.6094 79.1480 36.0465 0.0000 0.0000 0.0000
# 3 44.9487 36.0465 106.9758 0.0000 0.0000 0.0000
# 4 0.0000 0.0000 0.0000 44.7011 0.0000 0.0000
# 5 0.0000 0.0000 0.0000 0.0000 56.3960 0.0000
# 6 0.0000 0.0000 0.0000 0.0000 0.0000 24.8406
#
#
#
# Elastic Compliance Matrix: (Units=1/GPa)
#
#
# Indices 1 2 3 4 5 6 
#
# 1 0.015024 -0.002795 -0.005371 0.000000 0.000000 0.000000
# 2 -0.002795 0.015445 -0.004030 0.000000 0.000000 0.000000
# 3 -0.005371 -0.004030 0.012963 0.000000 0.000000 0.000000
# 4 0.000000 0.000000 0.000000 0.022371 0.000000 0.000000
# 5 0.000000 0.000000 0.000000 0.000000 0.017732 0.000000
# 6 0.000000 0.000000 0.000000 0.000000 0.000000 0.040257
#
#
# Mechanical properties :
#
#
# Convention : Reuss Voigt Hill
#
# Bulk Modulus (GPa) = 52.52116 54.56650 53.54383
# Shear Modulus (GPa) = 32.35649 36.20654 34.28151
#
# Velocity S-wave (km/s) = 3.79738 4.01695 3.90871
# Velocity P-wave (km/s) = 6.52944 6.76999 6.65080
#
# Compressibility (1/GPa) = 0.01903995
#
# Stress axis : x y z
#
# Youngs Moduli (GPa) = 66.56065 64.74662 77.14494
#
# Poissons Ratio (x) = 0.18095 0.41434
# Poissons Ratio (y) = 0.18602 0.31089
# Poissons Ratio (z) = 0.35750 0.26093
#
# Static dielectric constant tensor:
#      x y z
#    x 4.521880 0.000000 0.000000 
#    y 0.000000 4.169350 0.000000 
#    z 0.000000 0.000000 3.831120 
# 
# 
# High freq. dielectric constant tensor:
#      x y z
#    x 1.882640 0.000000 0.000000 
#    y 0.000000 1.877270 0.000000 
#    z 0.000000 0.000000 1.879150 
# 
# From -- ./inp_files/31389.got.cif
#   From: 2010.03.12/outbox.cif.g09.slc.cpg/sg72_16_cif.got.tgz:31389.got - 2010.04.16 14:54:00.
