data_PCOD8292961
_publ_section_title
;
Structure prediction by ZEFSAII (Michael W. Deem and Ramdas Pophale) SiO2 
 PCOD8292961
Probable space group: I B A M
;
_chemical_formula_sum "Si O2"
_cell_formula_units_Z 128
_cell_length_a 21.766127
_cell_length_b 21.105365
_cell_length_c 17.727865
_cell_angle_alpha 90.000000
_cell_angle_beta 90.000000
_cell_angle_gamma 90.000000
_cell_volume 8143.863054
_symmetry_space_group_name_H-M "I B A M"
_symmetry_group_IT_number 72
_symmetry_cell_setting 'orthorhombic'
loop_
_space_group_symop_operation_xyz
x,y,z
-x,-y,z
x,-y,1/2-z
-x,y,1/2-z
-x,-y,-z
x,y,-z
-x,y,1/2+z
x,-y,1/2+z
1/2+x,1/2+y,1/2+z
1/2-x,1/2-y,1/2+z
1/2+x,1/2-y,-z
1/2-x,1/2+y,-z
1/2-x,1/2-y,1/2-z
1/2+x,1/2+y,1/2-z
1/2-x,1/2+y,z
1/2+x,1/2-y,z
loop_
_atom_site_type_symbol
_atom_site_label
_atom_site_fract_x
_atom_site_fract_y
_atom_site_fract_z
Si Si1 0.435361 0.883624 0.781246
Si Si2 0.249223 0.831738 0.662161
Si Si3 0.725793 0.842507 0.585314
Si Si4 0.644834 0.277079 0.086197
Si Si5 0.566334 0.733489 0.725697
Si Si6 0.829642 0.448016 0.810210
Si Si7 0.870208 0.447123 0.587060
Si Si8 0.682554 0.712741 0.188545
O O1 0.500000 0.909794 0.750000
O O2 0.435407 0.808561 0.783705
O O3 0.382421 0.905259 0.725038
O O4 0.423911 0.913626 0.864223
O O5 0.199343 0.829440 0.594171
O O6 0.272326 0.903514 0.668882
O O7 0.305231 0.782244 0.651657
O O8 0.215369 0.802633 0.733735
O O9 0.744208 0.829990 0.500000
O O10 0.675826 0.789845 0.611248
O O11 0.694109 0.910079 0.598013
O O12 0.790026 0.839479 0.630862
O O13 0.588666 0.292408 0.143601
O O14 0.620360 0.276002 0.000000
O O15 0.500000 0.706639 0.750000
O O16 0.610037 0.709840 0.794221
O O17 0.806794 0.500000 0.750000
O O18 0.856813 0.481640 0.884804
O O19 0.891495 0.447701 0.500000
#
# Coordination Sequence:
#
# PCOD8292961 Si02
#       8
#    16  16  16  16  16  16  16  16
#     4  10  19  32  46  60  83 121 164 193 217 256
#     4   9  16  26  44  67  86 114 147 182 224 271
#     4   9  16  28  46  67  86 113 149 182 227 277
#     4   9  17  29  48  66  86 115 147 185 227 277
#     4  10  18  28  46  68  90 117 152 188 221 259
#     4  10  19  29  44  65  92 120 153 190 226 256
#     4  10  20  32  47  64  88 117 151 194 228 261
#     4   9  15  27  46  64  89 112 145 184 221 265
#
# _framework density 15.717357
#
# number of rings (size 3 to 8) (size 9 to 14) (size 15 to 20)
#    0.000    2.500    2.500    2.250    0.000    2.750 
#    0.000    1.875    0.000    1.500    0.000    0.000 
#    0.000   32.000    0.000   21.125    0.000    0.000 
#
# Total GULP energy -793043.582242 kJ/mol
# GULP energy per Si atom -12391.305973 kJ/mol
# Density = 1.568158 g / cm^3
# Si number density = 15.717357 Si / 1000 Ang^3
#
#
#
# Elastic Constant Matrix: (Units=GPa)
#
#
# Indices 1 2 3 4 5 6 
#
# 1 92.2272 11.9883 44.6879 0.0000 0.0000 0.0000
# 2 11.9883 27.8044 8.6205 0.0000 0.0000 0.0000
# 3 44.6879 8.6205 90.0261 0.0000 0.0000 0.0000
# 4 0.0000 0.0000 0.0000 13.9579 0.0000 0.0000
# 5 0.0000 0.0000 0.0000 0.0000 22.0358 0.0000
# 6 0.0000 0.0000 0.0000 0.0000 0.0000 16.4819
#
#
#
# Elastic Compliance Matrix: (Units=1/GPa)
#
#
# Indices 1 2 3 4 5 6 
#
# 1 0.014740 -0.004212 -0.006914 0.000000 0.000000 0.000000
# 2 -0.004212 0.038270 -0.001574 0.000000 0.000000 0.000000
# 3 -0.006914 -0.001574 0.014690 0.000000 0.000000 0.000000
# 4 0.000000 0.000000 0.000000 0.071644 0.000000 0.000000
# 5 0.000000 0.000000 0.000000 0.000000 0.045381 0.000000
# 6 0.000000 0.000000 0.000000 0.000000 0.000000 0.060672
#
#
# Mechanical properties :
#
#
# Convention : Reuss Voigt Hill
#
# Bulk Modulus (GPa) = 23.63977 37.85012 30.74495
# Shear Modulus (GPa) = 17.55022 20.14584 18.84803
#
# Velocity S-wave (km/s) = 3.34520 3.58405 3.46668
# Velocity P-wave (km/s) = 5.47665 6.42349 5.96887
#
# Compressibility (1/GPa) = 0.04230160
#
# Stress axis : x y z
#
# Youngs Moduli (GPa) = 67.84182 26.13040 68.07179
#
# Poissons Ratio (x) = 0.11006 0.47062
# Poissons Ratio (y) = 0.28575 0.10713
# Poissons Ratio (z) = 0.46903 0.04112
#
# Static dielectric constant tensor:
#      x y z
#    x 3.016470 0.000000 0.000000 
#    y 0.000000 2.859850 0.000000 
#    z 0.000000 0.000000 3.182950 
# 
# 
# High freq. dielectric constant tensor:
#      x y z
#    x 1.579660 0.000000 0.000000 
#    y 0.000000 1.576430 0.000000 
#    z 0.000000 0.000000 1.604590 
# 
# From -- ./inp_files/32969.got.cif
#   From: 2010.03.12/outbox.cif.g09.slc.cpg/sg72_17_cif.got.tgz:32969.got - 2010.04.16 14:54:00.
