data_PCOD8292172
_publ_section_title
;
Structure prediction by ZEFSAII (Michael W. Deem and Ramdas Pophale) SiO2 
 PCOD8292172
Probable space group: I M M M
;
_chemical_formula_sum "Si O2"
_cell_formula_units_Z 60
_cell_length_a 21.992393
_cell_length_b 11.934421
_cell_length_c 11.525029
_cell_angle_alpha 90.000000
_cell_angle_beta 90.000000
_cell_angle_gamma 90.000000
_cell_volume 3024.933757
_symmetry_space_group_name_H-M "I M M M"
_symmetry_group_IT_number 71
_symmetry_cell_setting 'orthorhombic'
loop_
_space_group_symop_operation_xyz
x,y,z
-x,-y,z
x,-y,-z
-x,y,-z
-x,-y,-z
x,y,-z
-x,y,z
x,-y,z
1/2+x,1/2+y,1/2+z
1/2-x,1/2-y,1/2+z
1/2+x,1/2-y,1/2-z
1/2-x,1/2+y,1/2-z
1/2-x,1/2-y,1/2-z
1/2+x,1/2+y,1/2-z
1/2-x,1/2+y,1/2+z
1/2+x,1/2-y,1/2+z
loop_
_atom_site_type_symbol
_atom_site_label
_atom_site_fract_x
_atom_site_fract_y
_atom_site_fract_z
Si Si1 0.571076 0.209187 0.365909
Si Si2 0.607881 0.000000 0.000000
Si Si3 0.133738 0.500000 0.755299
Si Si4 0.125923 0.875602 0.292480
Si Si5 0.765417 0.000000 0.638255
Si Si6 0.431940 0.245219 0.000000
O O1 0.583377 0.182645 0.500000
O O2 0.500000 0.228823 0.340565
O O3 0.593922 0.106718 0.288878
O O4 0.608925 0.320853 0.331401
O O5 0.648484 0.000000 0.117488
O O6 0.566492 0.889408 0.000000
O O7 0.196471 0.500000 0.823787
O O8 0.199046 0.890098 0.310977
O O9 0.101221 0.790918 0.387415
O O10 0.095770 0.000000 0.302399
O O11 0.770002 0.000000 0.500000
O O12 0.500000 0.290897 0.000000
#
# Coordination Sequence:
#
# PCOD8292172 Si02
#       6
#    16   4   8  16   8   8
#     4  11  24  42  66  98 131 169 218 268 325 392
#     4  12  27  42  62 110 126 160 221 270 324 394
#     4  12  25  45  67  93 128 175 213 271 336 376
#     4  10  22  42  64  98 130 171 217 265 319 389
#     4  10  22  45  67  94 130 171 226 260 312 397
#     4  12  22  40  69  97 136 168 202 270 338 385
#
# _framework density 19.835145000000001
#
# number of rings (size 3 to 8) (size 9 to 14) (size 15 to 20)
#    0.800    0.267    4.000    3.000    0.000    6.400 
#    2.400    1.333    0.000    0.000    0.000    0.000 
#    0.000    0.000    0.000    0.000    0.000    0.000 
#
# Total GULP energy -371852.646113 kJ/mol
# GULP energy per Si atom -12395.088204 kJ/mol
# Density = 1.979000 g / cm^3
# Si number density = 19.835145 Si / 1000 Ang^3
#
#
#
# Elastic Constant Matrix: (Units=GPa)
#
#
# Indices 1 2 3 4 5 6 
#
# 1 87.2356 14.3296 34.7848 0.0000 0.0000 0.0000
# 2 14.3296 119.8890 39.5120 0.0000 0.0000 0.0000
# 3 34.7848 39.5120 113.2038 0.0000 0.0000 0.0000
# 4 0.0000 0.0000 0.0000 36.1963 0.0000 0.0000
# 5 0.0000 0.0000 0.0000 0.0000 27.9363 0.0000
# 6 0.0000 0.0000 0.0000 0.0000 0.0000 21.7241
#
#
#
# Elastic Compliance Matrix: (Units=1/GPa)
#
#
# Indices 1 2 3 4 5 6 
#
# 1 0.013072 -0.000270 -0.003922 0.000000 0.000000 0.000000
# 2 -0.000270 0.009431 -0.003209 0.000000 0.000000 0.000000
# 3 -0.003922 -0.003209 0.011159 0.000000 0.000000 0.000000
# 4 0.000000 0.000000 0.000000 0.027627 0.000000 0.000000
# 5 0.000000 0.000000 0.000000 0.000000 0.035796 0.000000
# 6 0.000000 0.000000 0.000000 0.000000 0.000000 0.046032
#
#
# Mechanical properties :
#
#
# Convention : Reuss Voigt Hill
#
# Bulk Modulus (GPa) = 53.02386 55.28678 54.15532
# Shear Modulus (GPa) = 30.44985 32.61812 31.53398
#
# Velocity S-wave (km/s) = 3.92234 4.05959 3.99156
# Velocity P-wave (km/s) = 6.87774 7.06452 6.97176
#
# Compressibility (1/GPa) = 0.01885944
#
# Stress axis : x y z
#
# Youngs Moduli (GPa) = 76.50193 106.03532 89.61459
#
# Poissons Ratio (x) = 0.02859 0.35151
# Poissons Ratio (y) = 0.02063 0.28756
# Poissons Ratio (z) = 0.30008 0.34025
#
# Static dielectric constant tensor:
#      x y z
#    x 3.431780 0.000000 0.000000 
#    y 0.000000 3.711060 0.000000 
#    z 0.000000 0.000000 2.900540 
# 
# 
# High freq. dielectric constant tensor:
#      x y z
#    x 1.758190 0.000000 0.000000 
#    y 0.000000 1.779050 0.000000 
#    z 0.000000 0.000000 1.784870 
# 
# From -- ./inp_files/25147.got.cif
#   From: 2010.06.25/outbox.cif.g09.slc.cpg/sg71_13_cif.got.tgz:25147.got - 2010.06.28 04:59:45.
