data_PCOD8292458
_publ_section_title
;
Structure prediction by ZEFSAII (Michael W. Deem and Ramdas Pophale) SiO2 
 PCOD8292458
Probable space group: I M M M
;
_chemical_formula_sum "Si O2"
_cell_formula_units_Z 88
_cell_length_a 17.893540
_cell_length_b 21.770096
_cell_length_c 11.745991
_cell_angle_alpha 90.000000
_cell_angle_beta 90.000000
_cell_angle_gamma 90.000000
_cell_volume 4575.581300
_symmetry_space_group_name_H-M "I M M M"
_symmetry_group_IT_number 71
_symmetry_cell_setting 'orthorhombic'
loop_
_space_group_symop_operation_xyz
x,y,z
-x,-y,z
x,-y,-z
-x,y,-z
-x,-y,-z
x,y,-z
-x,y,z
x,-y,z
1/2+x,1/2+y,1/2+z
1/2-x,1/2-y,1/2+z
1/2+x,1/2-y,1/2-z
1/2-x,1/2+y,1/2-z
1/2-x,1/2-y,1/2-z
1/2+x,1/2+y,1/2-z
1/2-x,1/2+y,1/2+z
1/2+x,1/2-y,1/2+z
loop_
_atom_site_type_symbol
_atom_site_label
_atom_site_fract_x
_atom_site_fract_y
_atom_site_fract_z
Si Si1 0.088383 0.926890 0.000000
Si Si2 0.316966 0.928357 0.715274
Si Si3 0.154468 0.887700 0.239685
Si Si4 0.581613 0.859442 0.132783
Si Si5 0.915164 0.000000 0.633293
Si Si6 0.588675 0.722406 0.129072
Si Si7 0.085969 0.572902 0.000000
O O1 0.130389 0.898620 0.109178
O O2 0.000000 0.909914 0.000000
O O3 0.098990 0.000000 0.000000
O O4 0.242526 0.889505 0.736704
O O5 0.367153 0.914769 0.824608
O O6 0.365410 0.904460 0.607829
O O7 0.296845 0.000000 0.705646
O O8 0.126647 0.821379 0.278848
O O9 0.119596 0.938852 0.319072
O O10 0.500000 0.866774 0.189428
O O11 0.613788 0.791611 0.161276
O O12 0.574149 0.867027 0.000000
O O13 0.903285 0.000000 0.500000
O O14 0.000000 0.000000 0.672053
O O15 0.500000 0.715948 0.137598
O O16 0.614140 0.705906 0.000000
O O17 0.080640 0.500000 0.000000
O O18 0.000000 0.599228 0.000000
#
# Coordination Sequence:
#
# PCOD8292458 Si02
#       7
#     8  16  16  16   8  16   8
#     4  11  22  38  55  77 122 173 208 238 293 363
#     4  11  23  37  59  89 122 156 198 253 301 362
#     4  12  23  36  58  85 122 160 200 247 301 355
#     4   9  20  40  64  87 115 153 198 250 306 361
#     4  11  22  35  57  87 117 153 203 251 292 352
#     4   9  19  38  63  88 116 153 199 250 302 359
#     4   9  20  38  59  83 117 158 192 235 309 373
#
# _framework density 19.232530000000001
#
# number of rings (size 3 to 8) (size 9 to 14) (size 15 to 20)
#    0.000    1.727    1.818    3.818    3.818    3.636 
#    0.000    1.818    0.000    3.273    0.000    0.000 
#    0.000    0.000    0.000    0.000    0.000    0.000 
#
# Total GULP energy -545459.425516 kJ/mol
# GULP energy per Si atom -12396.805125 kJ/mol
# Density = 1.918876 g / cm^3
# Si number density = 19.232530 Si / 1000 Ang^3
#
#
#
# Elastic Constant Matrix: (Units=GPa)
#
#
# Indices 1 2 3 4 5 6 
#
# 1 114.6145 12.7037 46.1363 0.0000 0.0000 0.0000
# 2 12.7037 19.8576 23.6718 0.0000 0.0000 0.0000
# 3 46.1363 23.6718 131.7637 0.0000 0.0000 0.0000
# 4 0.0000 0.0000 0.0000 33.6914 0.0000 0.0000
# 5 0.0000 0.0000 0.0000 0.0000 30.4282 0.0000
# 6 0.0000 0.0000 0.0000 0.0000 0.0000 27.4805
#
#
#
# Elastic Compliance Matrix: (Units=1/GPa)
#
#
# Indices 1 2 3 4 5 6 
#
# 1 0.010287 -0.002911 -0.003079 0.000000 0.000000 0.000000
# 2 -0.002911 0.064906 -0.010641 0.000000 0.000000 0.000000
# 3 -0.003079 -0.010641 0.010579 0.000000 0.000000 0.000000
# 4 0.000000 0.000000 0.000000 0.029681 0.000000 0.000000
# 5 0.000000 0.000000 0.000000 0.000000 0.032864 0.000000
# 6 0.000000 0.000000 0.000000 0.000000 0.000000 0.036389
#
#
# Mechanical properties :
#
#
# Convention : Reuss Voigt Hill
#
# Bulk Modulus (GPa) = 19.04395 47.91771 33.48083
# Shear Modulus (GPa) = 21.23392 30.56830 25.90111
#
# Velocity S-wave (km/s) = 3.32635 3.99106 3.67377
# Velocity P-wave (km/s) = 4.96752 6.79758 5.95329
#
# Compressibility (1/GPa) = 0.05251011
#
# Stress axis : x y z
#
# Youngs Moduli (GPa) = 97.21095 15.40689 94.52494
#
# Poissons Ratio (x) = 0.04484 0.29104
# Poissons Ratio (y) = 0.28294 1.00589
# Poissons Ratio (z) = 0.29931 0.16395
#
# Static dielectric constant tensor:
#      x y z
#    x 4.976060 0.000000 0.000000 
#    y 0.000000 3.401410 0.000000 
#    z 0.000000 0.000000 3.548220 
# 
# 
# High freq. dielectric constant tensor:
#      x y z
#    x 1.755430 0.000000 0.000000 
#    y 0.000000 1.733920 0.000000 
#    z 0.000000 0.000000 1.751050 
# 
# From -- ./inp_files/24008.got.cif
#   From: 2010.06.25/outbox.cif.g09.slc.cpg/sg71_13_cif.got.tgz:24008.got - 2010.06.28 04:59:45.
