data_PCOD8292386
_publ_section_title
;
Structure prediction by ZEFSAII (Michael W. Deem and Ramdas Pophale) SiO2 
 PCOD8292386
Probable space group: I M M M
;
_chemical_formula_sum "Si O2"
_cell_formula_units_Z 88
_cell_length_a 27.696252
_cell_length_b 18.859916
_cell_length_c 8.971205
_cell_angle_alpha 90.000000
_cell_angle_beta 90.000000
_cell_angle_gamma 90.000000
_cell_volume 4686.099837
_symmetry_space_group_name_H-M "I M M M"
_symmetry_group_IT_number 71
_symmetry_cell_setting 'orthorhombic'
loop_
_space_group_symop_operation_xyz
x,y,z
-x,-y,z
x,-y,-z
-x,y,-z
-x,-y,-z
x,y,-z
-x,y,z
x,-y,z
1/2+x,1/2+y,1/2+z
1/2-x,1/2-y,1/2+z
1/2+x,1/2-y,1/2-z
1/2-x,1/2+y,1/2-z
1/2-x,1/2-y,1/2-z
1/2+x,1/2+y,1/2-z
1/2-x,1/2+y,1/2+z
1/2+x,1/2-y,1/2+z
loop_
_atom_site_type_symbol
_atom_site_label
_atom_site_fract_x
_atom_site_fract_y
_atom_site_fract_z
Si Si1 0.613489 0.583925 0.327574
Si Si2 0.822705 0.415780 0.672390
Si Si3 0.092205 0.664885 0.823694
Si Si4 0.217962 0.922755 0.824164
Si Si5 0.000000 0.420938 0.177185
Si Si6 0.055335 0.199095 0.675485
O O1 0.603071 0.601272 0.500000
O O2 0.610379 0.500000 0.298618
O O3 0.667096 0.614188 0.279340
O O4 0.573590 0.622097 0.227131
O O5 0.834297 0.399258 0.500000
O O6 0.826098 0.500000 0.701926
O O7 0.859108 0.374099 0.777101
O O8 0.769012 0.385655 0.717612
O O9 0.089075 0.742370 0.752344
O O10 0.047272 0.618933 0.763207
O O11 0.091105 0.672969 0.000000
O O12 0.218377 0.000000 0.747865
O O13 0.217226 0.933564 0.000000
O O14 0.000000 0.500000 0.244428
O O15 0.000000 0.423615 0.000000
O O16 0.060407 0.205762 0.500000
O O17 0.000000 0.208691 0.726981
#
# Coordination Sequence:
#
# PCOD8292386 Si02
#       6
#    16  16  16  16   8  16
#     4   9  18  35  61  88 109 134 175 221 263 317
#     4   9  17  31  53  81 113 146 178 215 263 317
#     4  11  21  35  54  76 106 143 184 226 268 315
#     4   7  12  27  52  80 109 140 172 211 261 313
#     4   9  18  32  51  75 102 133 172 221 269 308
#     4  11  24  40  56  75 106 144 179 220 274 329
#
# _framework density 18.778942000000001
#
# number of rings (size 3 to 8) (size 9 to 14) (size 15 to 20)
#    0.000    2.636    0.909    3.818    0.000    2.909 
#    0.000    3.636    0.000    5.455    0.000    0.000 
#    0.000    0.000    0.000    0.000    0.000    0.000 
#
# Total GULP energy -545239.954760 kJ/mol
# GULP energy per Si atom -12391.817154 kJ/mol
# Density = 1.873620 g / cm^3
# Si number density = 18.778942 Si / 1000 Ang^3
#
#
#
# Elastic Constant Matrix: (Units=GPa)
#
#
# Indices 1 2 3 4 5 6 
#
# 1 102.5473 42.9081 43.0855 0.0000 0.0000 0.0000
# 2 42.9081 73.5910 31.3700 0.0000 0.0000 0.0000
# 3 43.0855 31.3700 57.8524 0.0000 0.0000 0.0000
# 4 0.0000 0.0000 0.0000 27.1074 0.0000 0.0000
# 5 0.0000 0.0000 0.0000 0.0000 27.3122 0.0000
# 6 0.0000 0.0000 0.0000 0.0000 0.0000 12.9087
#
#
#
# Elastic Compliance Matrix: (Units=1/GPa)
#
#
# Indices 1 2 3 4 5 6 
#
# 1 0.015697 -0.005422 -0.008750 0.000000 0.000000 0.000000
# 2 -0.005422 0.019547 -0.006561 0.000000 0.000000 0.000000
# 3 -0.008750 -0.006561 0.027359 0.000000 0.000000 0.000000
# 4 0.000000 0.000000 0.000000 0.036890 0.000000 0.000000
# 5 0.000000 0.000000 0.000000 0.000000 0.036614 0.000000
# 6 0.000000 0.000000 0.000000 0.000000 0.000000 0.077467
#
#
# Mechanical properties :
#
#
# Convention : Reuss Voigt Hill
#
# Bulk Modulus (GPa) = 47.31071 52.07974 49.69522
# Shear Modulus (GPa) = 19.07772 21.24081 20.15927
#
# Velocity S-wave (km/s) = 3.19079 3.36683 3.27999
# Velocity P-wave (km/s) = 6.23082 6.55037 6.39259
#
# Compressibility (1/GPa) = 0.02113686
#
# Stress axis : x y z
#
# Youngs Moduli (GPa) = 63.70762 51.15902 36.55040
#
# Poissons Ratio (x) = 0.27740 0.31981
# Poissons Ratio (y) = 0.34544 0.23980
# Poissons Ratio (z) = 0.55744 0.33565
#
# Static dielectric constant tensor:
#      x y z
#    x 3.824440 0.000000 0.000000 
#    y 0.000000 3.215850 0.000000 
#    z 0.000000 0.000000 3.093560 
# 
# 
# High freq. dielectric constant tensor:
#      x y z
#    x 1.747190 0.000000 0.000000 
#    y 0.000000 1.706900 0.000000 
#    z 0.000000 0.000000 1.700620 
# 
# From -- ./inp_files/16640.got.cif
#   From: 2010.06.25/outbox.cif.g09.slc.cpg/sg71_9_cif.got.tgz:16640.got - 2010.06.28 04:59:45.
