data_PCOD8292843
_publ_section_title
;
Structure prediction by ZEFSAII (Michael W. Deem and Ramdas Pophale) SiO2 
 PCOD8292843
Probable space group: I B A M
;
_chemical_formula_sum "Si O2"
_cell_formula_units_Z 96
_cell_length_a 13.835820
_cell_length_b 20.923824
_cell_length_c 17.811161
_cell_angle_alpha 90.000000
_cell_angle_beta 90.000000
_cell_angle_gamma 90.000000
_cell_volume 5156.300164
_symmetry_space_group_name_H-M "I B A M"
_symmetry_group_IT_number 72
_symmetry_cell_setting 'orthorhombic'
loop_
_space_group_symop_operation_xyz
x,y,z
-x,-y,z
x,-y,1/2-z
-x,y,1/2-z
-x,-y,-z
x,y,-z
-x,y,1/2+z
x,-y,1/2+z
1/2+x,1/2+y,1/2+z
1/2-x,1/2-y,1/2+z
1/2+x,1/2-y,-z
1/2-x,1/2+y,-z
1/2-x,1/2-y,1/2-z
1/2+x,1/2+y,1/2-z
1/2-x,1/2+y,z
1/2+x,1/2-y,z
loop_
_atom_site_type_symbol
_atom_site_label
_atom_site_fract_x
_atom_site_fract_y
_atom_site_fract_z
Si Si1 0.393961 0.281142 0.274697
Si Si2 0.751811 0.537115 0.176415
Si Si3 0.283860 0.917893 0.586641
Si Si4 0.406468 0.653098 0.919230
Si Si5 0.195117 0.347876 0.735316
Si Si6 0.567354 0.443547 0.414474
O O1 0.500000 0.306231 0.250000
O O2 0.389598 0.287739 0.364390
O O3 0.305007 0.324837 0.245926
O O4 0.381223 0.207695 0.251829
O O5 0.714391 0.500000 0.250000
O O6 0.805628 0.489456 0.117573
O O7 0.823067 0.593279 0.206742
O O8 0.660507 0.567595 0.135821
O O9 0.323281 0.909294 0.500000
O O10 0.168449 0.906345 0.589126
O O11 0.325967 0.867492 0.648018
O O12 0.512174 0.623668 0.909579
O O13 0.393117 0.685294 0.000000
O O14 0.500000 0.500000 0.382305
O O15 0.598056 0.459792 0.500000
#
# Coordination Sequence:
#
# PCOD8292843 Si02
#       6
#    16  16  16  16  16  16
#     4  10  19  35  53  68  97 136 169 210 251 282
#     4  10  18  28  43  69 100 128 159 203 248 296
#     4   9  16  30  49  69  98 132 156 195 258 305
#     4   9  17  29  45  68  99 132 162 195 243 306
#     4   9  20  33  49  77 100 125 174 210 235 305
#     4  10  17  26  41  68 103 132 162 193 239 313
#
# _framework density 18.618001
#
# number of rings (size 3 to 8) (size 9 to 14) (size 15 to 20)
#    0.000    2.500    1.667    1.500    0.000    0.333 
#    0.000    2.500    0.000   11.500    0.000    1.167 
#    0.000    0.000    0.000    0.000    0.000    0.000 
#
# Total GULP energy -594653.133374 kJ/mol
# GULP energy per Si atom -12388.606945 kJ/mol
# Density = 1.857563 g / cm^3
# Si number density = 18.618001 Si / 1000 Ang^3
#
#
#
# Elastic Constant Matrix: (Units=GPa)
#
#
# Indices 1 2 3 4 5 6 
#
# 1 21.1491 4.0130 9.2190 0.0000 0.0000 0.0000
# 2 4.0130 83.7634 57.5159 0.0000 0.0000 0.0000
# 3 9.2190 57.5159 119.0467 0.0000 0.0000 0.0000
# 4 0.0000 0.0000 0.0000 28.2620 0.0000 0.0000
# 5 0.0000 0.0000 0.0000 0.0000 12.9867 0.0000
# 6 0.0000 0.0000 0.0000 0.0000 0.0000 18.2579
#
#
#
# Elastic Compliance Matrix: (Units=1/GPa)
#
#
# Indices 1 2 3 4 5 6 
#
# 1 0.048943 0.000386 -0.003976 0.000000 0.000000 0.000000
# 2 0.000386 0.017868 -0.008663 0.000000 0.000000 0.000000
# 3 -0.003976 -0.008663 0.012893 0.000000 0.000000 0.000000
# 4 0.000000 0.000000 0.000000 0.035383 0.000000 0.000000
# 5 0.000000 0.000000 0.000000 0.000000 0.077002 0.000000
# 6 0.000000 0.000000 0.000000 0.000000 0.000000 0.054771
#
#
# Mechanical properties :
#
#
# Convention : Reuss Voigt Hill
#
# Bulk Modulus (GPa) = 18.11666 40.60612 29.36139
# Shear Modulus (GPa) = 17.25525 22.11540 19.68532
#
# Velocity S-wave (km/s) = 3.04765 3.45026 3.25518
# Velocity P-wave (km/s) = 4.70490 6.14247 5.47110
#
# Compressibility (1/GPa) = 0.05519781
#
# Stress axis : x y z
#
# Youngs Moduli (GPa) = 20.43173 55.96574 77.56011
#
# Poissons Ratio (x) = -0.02158 0.30842
# Poissons Ratio (y) = -0.00788 0.67187
# Poissons Ratio (z) = 0.08125 0.48481
#
# Static dielectric constant tensor:
#      x y z
#    x 2.894090 0.000000 0.000000 
#    y 0.000000 3.265670 0.000000 
#    z 0.000000 0.000000 3.647900 
# 
# 
# High freq. dielectric constant tensor:
#      x y z
#    x 1.665950 0.000000 0.000000 
#    y 0.000000 1.708480 0.000000 
#    z 0.000000 0.000000 1.733170 
# 
# From -- ./inp_files/31819.got.cif
#   From: 2010.03.12/outbox.cif.g09.slc.cpg/sg72_16_cif.got.tgz:31819.got - 2010.04.16 14:54:00.
