data_PCOD8292432
_publ_section_title
;
Structure prediction by ZEFSAII (Michael W. Deem and Ramdas Pophale) SiO2 
 PCOD8292432
Probable space group: I M M M
;
_chemical_formula_sum "Si O2"
_cell_formula_units_Z 80
_cell_length_a 25.797707
_cell_length_b 9.351188
_cell_length_c 18.410557
_cell_angle_alpha 90.000000
_cell_angle_beta 90.000000
_cell_angle_gamma 90.000000
_cell_volume 4441.348192
_symmetry_space_group_name_H-M "I M M M"
_symmetry_group_IT_number 71
_symmetry_cell_setting 'orthorhombic'
loop_
_space_group_symop_operation_xyz
x,y,z
-x,-y,z
x,-y,-z
-x,y,-z
-x,-y,-z
x,y,-z
-x,y,z
x,-y,z
1/2+x,1/2+y,1/2+z
1/2-x,1/2-y,1/2+z
1/2+x,1/2-y,1/2-z
1/2-x,1/2+y,1/2-z
1/2-x,1/2-y,1/2-z
1/2+x,1/2+y,1/2-z
1/2-x,1/2+y,1/2+z
1/2+x,1/2-y,1/2+z
loop_
_atom_site_type_symbol
_atom_site_label
_atom_site_fract_x
_atom_site_fract_y
_atom_site_fract_z
Si Si1 0.704612 0.341599 0.086281
Si Si2 0.088259 0.833800 0.415388
Si Si3 0.899266 0.666478 0.084744
Si Si4 0.500000 0.830262 0.833841
Si Si5 0.000000 0.668894 0.832890
Si Si6 0.200396 0.160396 0.086530
O O1 0.716376 0.500000 0.117133
O O2 0.646754 0.293689 0.108690
O O3 0.747233 0.232596 0.118033
O O4 0.707955 0.347171 0.000000
O O5 0.079364 0.801720 0.500000
O O6 0.051146 0.732729 0.369955
O O7 0.076448 0.000000 0.399194
O O8 0.889465 0.500000 0.100849
O O9 0.948695 0.728779 0.127722
O O10 0.849285 0.751500 0.113647
O O11 0.909289 0.693541 0.000000
O O12 0.500000 0.782919 0.750227
O O13 0.500000 0.000000 0.843267
O O14 0.000000 0.500000 0.842021
O O15 0.197099 0.000000 0.117464
O O16 0.202190 0.160315 0.000000
#
# Coordination Sequence:
#
# PCOD8292432 Si02
#       6
#    16  16  16   8   8  16
#     4   8  14  26  45  68  92 120 154 189 226 269
#     4   9  18  33  52  72  95 124 160 199 231 267
#     4   9  16  29  51  72  90 120 162 199 229 271
#     4  11  22  33  47  69  98 127 154 192 242 289
#     4   9  19  34  49  68  94 123 158 200 240 275
#     4   9  16  25  40  68 103 127 144 180 235 284
#
# _framework density 18.012547999999999
#
# number of rings (size 3 to 8) (size 9 to 14) (size 15 to 20)
#    0.000    3.000    0.000    2.700    0.000    6.000 
#    0.000    4.500    0.000    3.600    0.000    0.000 
#    0.000    0.000    0.000    0.000    0.000    0.000 
#
# Total GULP energy -495898.180599 kJ/mol
# GULP energy per Si atom -12397.454515 kJ/mol
# Density = 1.797155 g / cm^3
# Si number density = 18.012548 Si / 1000 Ang^3
#
#
#
# Elastic Constant Matrix: (Units=GPa)
#
#
# Indices 1 2 3 4 5 6 
#
# 1 186.9780 90.3439 53.6193 0.0000 0.0000 0.0000
# 2 90.3439 105.0888 39.4439 0.0000 0.0000 0.0000
# 3 53.6193 39.4439 52.3048 0.0000 0.0000 0.0000
# 4 0.0000 0.0000 0.0000 12.1442 0.0000 0.0000
# 5 0.0000 0.0000 0.0000 0.0000 -27.5986 0.0000
# 6 0.0000 0.0000 0.0000 0.0000 0.0000 23.2816
#
#
#
# Elastic Compliance Matrix: (Units=1/GPa)
#
#
# Indices 1 2 3 4 5 6 
#
# 1 0.010106 -0.006694 -0.005312 0.000000 0.000000 0.000000
# 2 -0.006694 0.017707 -0.006491 0.000000 0.000000 0.000000
# 3 -0.005312 -0.006491 0.029458 0.000000 0.000000 0.000000
# 4 0.000000 0.000000 0.000000 0.082344 0.000000 0.000000
# 5 0.000000 0.000000 0.000000 0.000000 -0.036234 0.000000
# 6 0.000000 0.000000 0.000000 0.000000 0.000000 0.042952
#
#
# Mechanical properties :
#
#
# Convention : Reuss Voigt Hill
#
# Bulk Modulus (GPa) = 49.31364 79.02066 64.16715
# Shear Modulus (GPa) = 26.30378 12.29640 19.30009
#
# Velocity S-wave (km/s) = 3.82554 2.61561 3.27690
# Velocity P-wave (km/s) = 6.85199 7.28607 7.07236
#
# Compressibility (1/GPa) = 0.02027837
#
# Stress axis : x y z
#
# Youngs Moduli (GPa) = 98.95087 56.47481 33.94606
#
# Poissons Ratio (x) = 0.37806 0.18031
# Poissons Ratio (y) = 0.66241 0.22033
# Poissons Ratio (z) = 0.52559 0.36655
#
# Static dielectric constant tensor:
#      x y z
#    x 3.620150 0.000000 0.000000 
#    y 0.000000 3.339710 0.000000 
#    z 0.000000 0.000000 2.883450 
# 
# 
# High freq. dielectric constant tensor:
#      x y z
#    x 1.717130 0.000000 0.000000 
#    y 0.000000 1.687850 0.000000 
#    z 0.000000 0.000000 1.645400 
# 
# From -- ./inp_files/12400.got.cif
#   From: 2010.06.25/outbox.cif.g09.slc.cpg/sg71_7_cif.got.tgz:12400.got - 2010.06.28 04:59:45.
