data_PCOD8292533
_publ_section_title
;
Structure prediction by ZEFSAII (Michael W. Deem and Ramdas Pophale) SiO2 
 PCOD8292533
Probable space group: I M M M
;
_chemical_formula_sum "Si O2"
_cell_formula_units_Z 72
_cell_length_a 30.009569
_cell_length_b 8.244831
_cell_length_c 14.859663
_cell_angle_alpha 90.000000
_cell_angle_beta 90.000000
_cell_angle_gamma 90.000000
_cell_volume 3676.634655
_symmetry_space_group_name_H-M "I M M M"
_symmetry_group_IT_number 71
_symmetry_cell_setting 'orthorhombic'
loop_
_space_group_symop_operation_xyz
x,y,z
-x,-y,z
x,-y,-z
-x,y,-z
-x,-y,-z
x,y,-z
-x,y,z
x,-y,z
1/2+x,1/2+y,1/2+z
1/2-x,1/2-y,1/2+z
1/2+x,1/2-y,1/2-z
1/2-x,1/2+y,1/2-z
1/2-x,1/2-y,1/2-z
1/2+x,1/2+y,1/2-z
1/2-x,1/2+y,1/2+z
1/2+x,1/2-y,1/2+z
loop_
_atom_site_type_symbol
_atom_site_label
_atom_site_fract_x
_atom_site_fract_y
_atom_site_fract_z
Si Si1 0.051065 0.682513 0.207771
Si Si2 0.635558 0.182939 0.184520
Si Si3 0.947510 0.000000 0.901658
Si Si4 0.790627 0.812638 0.809845
Si Si5 0.331918 0.309798 0.000000
Si Si6 0.732827 0.189419 0.500000
O O1 0.055952 0.500000 0.163301
O O2 0.082934 0.691644 0.294342
O O3 0.067138 0.830381 0.144223
O O4 0.000000 0.709503 0.238696
O O5 0.663112 0.280383 0.259415
O O6 0.640804 0.256436 0.086551
O O7 0.653578 0.000000 0.185445
O O8 0.000000 0.000000 0.909921
O O9 0.925101 0.000000 0.000000
O O10 0.750000 0.750000 0.750000
O O11 0.793191 0.737147 0.909465
O O12 0.783418 0.000000 0.823533
O O13 0.282390 0.231325 0.000000
O O14 0.327421 0.500000 0.000000
O O15 0.738170 0.000000 0.500000
#
# Coordination Sequence:
#
# PCOD8292533 Si02
#       6
#    16  16   8  16   8   8
#     4   9  20  39  62  88 122 163 205 252 306 362
#     4  11  23  40  63  89 120 159 201 249 304 361
#     4   9  18  34  60  89 117 155 201 250 304 361
#     4  12  24  39  61  87 119 156 197 245 298 358
#     4  11  23  37  62  90 118 154 201 251 299 363
#     4  11  23  41  61  86 118 157 201 246 297 359
#
# _framework density 19.583124999999999
#
# number of rings (size 3 to 8) (size 9 to 14) (size 15 to 20)
#    0.000    1.444    2.222    3.333    3.111    1.333 
#    2.000    2.778    0.000    3.333    0.000    0.000 
#    0.000    0.000    0.000    0.000    0.000    0.000 
#
# Total GULP energy -446267.088132 kJ/mol
# GULP energy per Si atom -12396.308004 kJ/mol
# Density = 1.953855 g / cm^3
# Si number density = 19.583125 Si / 1000 Ang^3
#
#
#
# Elastic Constant Matrix: (Units=GPa)
#
#
# Indices 1 2 3 4 5 6 
#
# 1 89.3060 29.1719 52.4753 0.0000 0.0000 0.0000
# 2 29.1719 120.3407 50.3808 0.0000 0.0000 0.0000
# 3 52.4753 50.3808 165.6362 0.0000 0.0000 0.0000
# 4 0.0000 0.0000 0.0000 30.5527 0.0000 0.0000
# 5 0.0000 0.0000 0.0000 0.0000 27.7117 0.0000
# 6 0.0000 0.0000 0.0000 0.0000 0.0000 25.3461
#
#
#
# Elastic Compliance Matrix: (Units=1/GPa)
#
#
# Indices 1 2 3 4 5 6 
#
# 1 0.014081 -0.001771 -0.003922 0.000000 0.000000 0.000000
# 2 -0.001771 0.009745 -0.002403 0.000000 0.000000 0.000000
# 3 -0.003922 -0.002403 0.008011 0.000000 0.000000 0.000000
# 4 0.000000 0.000000 0.000000 0.032730 0.000000 0.000000
# 5 0.000000 0.000000 0.000000 0.000000 0.036086 0.000000
# 6 0.000000 0.000000 0.000000 0.000000 0.000000 0.039454
#
#
# Mechanical properties :
#
#
# Convention : Reuss Voigt Hill
#
# Bulk Modulus (GPa) = 63.92311 71.03764 67.48038
# Shear Modulus (GPa) = 30.95708 32.93910 31.94809
#
# Velocity S-wave (km/s) = 3.98025 4.10569 4.04345
# Velocity P-wave (km/s) = 7.33730 7.67002 7.50550
#
# Compressibility (1/GPa) = 0.01564379
#
# Stress axis : x y z
#
# Youngs Moduli (GPa) = 71.01941 102.61542 124.83149
#
# Poissons Ratio (x) = 0.18176 0.48961
# Poissons Ratio (y) = 0.12580 0.29997
# Poissons Ratio (z) = 0.27855 0.24658
#
# Static dielectric constant tensor:
#      x y z
#    x 3.509540 0.000000 0.000000 
#    y 0.000000 3.954180 0.000000 
#    z 0.000000 0.000000 3.546690 
# 
# 
# High freq. dielectric constant tensor:
#      x y z
#    x 1.755090 0.000000 0.000000 
#    y 0.000000 1.786710 0.000000 
#    z 0.000000 0.000000 1.751890 
# 
# From -- ./inp_files/39991.got.cif
#   From: 2010.06.25/outbox.cif.g09.slc.cpg/sg71_20_cif.got.tgz:39991.got - 2010.06.28 04:59:45.
