data_PCOD8292873
_publ_section_title
;
Structure prediction by ZEFSAII (Michael W. Deem and Ramdas Pophale) SiO2 
 PCOD8292873
Probable space group: I B A M
;
_chemical_formula_sum "Si O2"
_cell_formula_units_Z 112
_cell_length_a 18.933504
_cell_length_b 19.780322
_cell_length_c 13.755157
_cell_angle_alpha 90.000000
_cell_angle_beta 90.000000
_cell_angle_gamma 90.000000
_cell_volume 5151.454931
_symmetry_space_group_name_H-M "I B A M"
_symmetry_group_IT_number 72
_symmetry_cell_setting 'orthorhombic'
loop_
_space_group_symop_operation_xyz
x,y,z
-x,-y,z
x,-y,1/2-z
-x,y,1/2-z
-x,-y,-z
x,y,-z
-x,y,1/2+z
x,-y,1/2+z
1/2+x,1/2+y,1/2+z
1/2-x,1/2-y,1/2+z
1/2+x,1/2-y,-z
1/2-x,1/2+y,-z
1/2-x,1/2-y,1/2-z
1/2+x,1/2+y,1/2-z
1/2-x,1/2+y,z
1/2+x,1/2-y,z
loop_
_atom_site_type_symbol
_atom_site_label
_atom_site_fract_x
_atom_site_fract_y
_atom_site_fract_z
Si Si1 0.734570 0.674478 0.383824
Si Si2 0.134318 0.712593 0.615511
Si Si3 0.755226 0.887916 0.383713
Si Si4 0.065590 0.538306 0.850759
Si Si5 0.353090 0.274474 0.885069
Si Si6 0.725036 0.032094 0.608210
Si Si7 0.021033 0.685977 0.115863
O O1 0.738621 0.669688 0.500000
O O2 0.662938 0.713256 0.350324
O O3 0.800260 0.717679 0.344223
O O4 0.742949 0.598990 0.337887
O O5 0.130464 0.711762 0.500000
O O6 0.186652 0.653800 0.651968
O O7 0.056503 0.701187 0.659013
O O8 0.753191 0.893317 0.500000
O O9 0.826284 0.848376 0.347200
O O10 0.750669 0.963394 0.337520
O O11 0.074714 0.500000 0.750000
O O12 0.140174 0.532758 0.904699
O O13 0.000000 0.500000 0.906424
O O14 0.048471 0.617198 0.836014
O O15 0.431127 0.250929 0.853098
O O16 0.346667 0.276826 0.000000
O O17 0.756935 0.031892 0.500000
O O18 0.021772 0.676132 0.000000
#
# Coordination Sequence:
#
# PCOD8292873 Si02
#       7
#    16  16  16  16  16  16  16
#     4   8  13  23  39  63  91 115 147 195 239 270
#     4   8  14  23  38  64  93 115 148 198 235 265
#     4   8  14  23  38  63  91 114 143 189 235 273
#     4  11  23  33  41  63  98 132 148 183 242 287
#     4   8  13  23  39  62  89 115 148 188 229 270
#     4  10  17  28  48  69  89 121 160 193 231 287
#     4  10  17  28  48  69  88 120 163 194 220 277
#
# _framework density 21.741430000000001
#
# number of rings (size 3 to 8) (size 9 to 14) (size 15 to 20)
#    0.000    3.000    1.429    3.000    0.000    2.286 
#    0.000    0.000    0.000    1.714    3.714    6.000 
#    0.000    0.000    0.000    1.286    0.000    2.571 
#
# Total GULP energy -693743.292621 kJ/mol
# GULP energy per Si atom -12388.273083 kJ/mol
# Density = 2.169195 g / cm^3
# Si number density = 21.741430 Si / 1000 Ang^3
#
#
#
# Elastic Constant Matrix: (Units=GPa)
#
#
# Indices 1 2 3 4 5 6 
#
# 1 62.0257 60.4120 7.6339 0.0000 0.0000 0.0000
# 2 60.4120 202.4050 14.7532 0.0000 0.0000 0.0000
# 3 7.6339 14.7532 12.8591 0.0000 0.0000 0.0000
# 4 0.0000 0.0000 0.0000 -13.1352 0.0000 0.0000
# 5 0.0000 0.0000 0.0000 0.0000 -11.7862 0.0000
# 6 0.0000 0.0000 0.0000 0.0000 0.0000 38.3976
#
#
#
# Elastic Compliance Matrix: (Units=1/GPa)
#
#
# Indices 1 2 3 4 5 6 
#
# 1 0.023197 -0.006460 -0.006359 0.000000 0.000000 0.000000
# 2 -0.006460 0.007191 -0.004415 0.000000 0.000000 0.000000
# 3 -0.006359 -0.004415 0.086606 0.000000 0.000000 0.000000
# 4 0.000000 0.000000 0.000000 -0.076131 0.000000 0.000000
# 5 0.000000 0.000000 0.000000 0.000000 -0.084845 0.000000
# 6 0.000000 0.000000 0.000000 0.000000 0.000000 0.026043
#
#
# Mechanical properties :
#
#
# Convention : Reuss Voigt Hill
#
# Bulk Modulus (GPa) = 12.11750 49.20978 30.66364
# Shear Modulus (GPa) = 113.53966 15.66129 64.60047
#
# Velocity S-wave (km/s) = 7.23437 2.68683 5.45688
# Velocity P-wave (km/s) = 8.68142 5.68407 7.33743
#
# Compressibility (1/GPa) = 0.08252525
#
# Stress axis : x y z
#
# Youngs Moduli (GPa) = 43.10891 139.07211 11.54656
#
# Poissons Ratio (x) = 0.89842 0.07343
# Poissons Ratio (y) = 0.27849 0.05097
# Poissons Ratio (z) = 0.27415 0.61394
#
# Static dielectric constant tensor:
#      x y z
#    x 4.163560 0.000000 0.000000 
#    y 0.000000 4.405640 0.000000 
#    z 0.000000 0.000000 3.582860 
# 
# 
# High freq. dielectric constant tensor:
#      x y z
#    x 1.819140 0.000000 0.000000 
#    y 0.000000 1.851940 0.000000 
#    z 0.000000 0.000000 1.855510 
# 
# From -- ./inp_files/32777.got.cif
#   From: 2010.03.12/outbox.cif.g09.slc.cpg/sg72_17_cif.got.tgz:32777.got - 2010.04.16 14:54:00.
