data_PCOD8292914
_publ_section_title
;
Structure prediction by ZEFSAII (Michael W. Deem and Ramdas Pophale) SiO2 
 PCOD8292914
Probable space group: I B A M
;
_chemical_formula_sum "Si O2"
_cell_formula_units_Z 96
_cell_length_a 21.000106
_cell_length_b 8.441606
_cell_length_c 29.073795
_cell_angle_alpha 90.000000
_cell_angle_beta 90.000000
_cell_angle_gamma 90.000000
_cell_volume 5154.045984
_symmetry_space_group_name_H-M "I B A M"
_symmetry_group_IT_number 72
_symmetry_cell_setting 'orthorhombic'
loop_
_space_group_symop_operation_xyz
x,y,z
-x,-y,z
x,-y,1/2-z
-x,y,1/2-z
-x,-y,-z
x,y,-z
-x,y,1/2+z
x,-y,1/2+z
1/2+x,1/2+y,1/2+z
1/2-x,1/2-y,1/2+z
1/2+x,1/2-y,-z
1/2-x,1/2+y,-z
1/2-x,1/2-y,1/2-z
1/2+x,1/2+y,1/2-z
1/2-x,1/2+y,z
1/2+x,1/2-y,z
loop_
_atom_site_type_symbol
_atom_site_label
_atom_site_fract_x
_atom_site_fract_y
_atom_site_fract_z
Si Si1 0.817134 0.818268 0.739135
Si Si2 0.434240 0.435563 0.618582
Si Si3 0.271964 0.973673 0.412299
Si Si4 0.941926 0.834494 0.222877
Si Si5 0.841335 0.771748 0.051702
Si Si6 0.325550 0.677322 0.635077
O O1 0.750000 0.750000 0.750000
O O2 0.874568 0.743297 0.770047
O O3 0.834532 0.777584 0.687408
O O4 0.810875 0.000000 0.750000
O O5 0.500000 0.500000 0.596567
O O6 0.451725 0.360201 0.668484
O O7 0.400168 0.304118 0.586543
O O8 0.388517 0.586566 0.619850
O O9 0.314933 0.094397 0.441259
O O10 0.237548 0.068372 0.370691
O O11 0.216076 0.897531 0.443055
O O12 0.318795 0.838358 0.393704
O O13 0.000000 0.744836 0.250000
O O14 0.934725 0.000000 0.250000
O O15 0.867784 0.786089 0.000000
#
# Coordination Sequence:
#
# PCOD8292914 Si02
#       6
#    16  16  16  16  16  16
#     4  11  20  29  49  80 114 144 180 230 278 327
#     4  11  20  35  58  83 110 150 198 236 274 337
#     4   9  20  34  57  79 112 143 181 233 293 354
#     4  10  17  33  55  77 108 153 195 221 267 342
#     4  10  21  37  59  83 110 145 189 242 299 346
#     4  10  18  33  51  82 111 144 185 228 282 341
#
# _framework density 18.626142999999999
#
# number of rings (size 3 to 8) (size 9 to 14) (size 15 to 20)
#    0.000    1.833    5.000    1.500    4.667    0.333 
#    0.000    1.667    0.000    1.500    0.000    1.167 
#    0.000    0.000    0.000    0.000    0.000    0.000 
#
# Total GULP energy -594820.587969 kJ/mol
# GULP energy per Si atom -12392.095583 kJ/mol
# Density = 1.858375 g / cm^3
# Si number density = 18.626143 Si / 1000 Ang^3
#
#
#
# Elastic Constant Matrix: (Units=GPa)
#
#
# Indices 1 2 3 4 5 6 
#
# 1 143.7949 43.1574 38.5350 0.0000 0.0000 0.0000
# 2 43.1574 69.1923 35.6866 0.0000 0.0000 0.0000
# 3 38.5350 35.6866 109.9921 0.0000 0.0000 0.0000
# 4 0.0000 0.0000 0.0000 14.1309 0.0000 0.0000
# 5 0.0000 0.0000 0.0000 0.0000 23.8362 0.0000
# 6 0.0000 0.0000 0.0000 0.0000 0.0000 28.6896
#
#
#
# Elastic Compliance Matrix: (Units=1/GPa)
#
#
# Indices 1 2 3 4 5 6 
#
# 1 0.008773 -0.004668 -0.001559 0.000000 0.000000 0.000000
# 2 -0.004668 0.019841 -0.004802 0.000000 0.000000 0.000000
# 3 -0.001559 -0.004802 0.011196 0.000000 0.000000 0.000000
# 4 0.000000 0.000000 0.000000 0.070767 0.000000 0.000000
# 5 0.000000 0.000000 0.000000 0.000000 0.041953 0.000000
# 6 0.000000 0.000000 0.000000 0.000000 0.000000 0.034856
#
#
# Mechanical properties :
#
#
# Convention : Reuss Voigt Hill
#
# Bulk Modulus (GPa) = 56.33269 61.97082 59.15175
# Shear Modulus (GPa) = 23.21688 27.03803 25.12746
#
# Velocity S-wave (km/s) = 3.53436 3.81414 3.67692
# Velocity P-wave (km/s) = 6.85312 7.26223 7.06064
#
# Compressibility (1/GPa) = 0.01775168
#
# Stress axis : x y z
#
# Youngs Moduli (GPa) = 113.98378 50.40161 89.31982
#
# Poissons Ratio (x) = 0.23527 0.13926
# Poissons Ratio (y) = 0.53207 0.42890
# Poissons Ratio (z) = 0.17771 0.24202
#
# Static dielectric constant tensor:
#      x y z
#    x 5.449640 0.000000 0.000000 
#    y 0.000000 3.271400 0.000000 
#    z 0.000000 0.000000 3.331790 
# 
# 
# High freq. dielectric constant tensor:
#      x y z
#    x 1.730940 0.000000 0.000000 
#    y 0.000000 1.693770 0.000000 
#    z 0.000000 0.000000 1.715190 
# 
# From -- ./inp_files/49361.got.cif
#   From: 2010.03.12/outbox.cif.g09.slc.cpg/sg72_25_cif.got.tgz:49361.got - 2010.04.16 14:54:00.
