data_PCOD8292785
_publ_section_title
;
Structure prediction by ZEFSAII (Michael W. Deem and Ramdas Pophale) SiO2 
 PCOD8292785
Probable space group: I M M M
;
_chemical_formula_sum "Si O2"
_cell_formula_units_Z 72
_cell_length_a 33.520111
_cell_length_b 13.879544
_cell_length_c 7.785822
_cell_angle_alpha 90.000000
_cell_angle_beta 90.000000
_cell_angle_gamma 90.000000
_cell_volume 3622.305846
_symmetry_space_group_name_H-M "I M M M"
_symmetry_group_IT_number 71
_symmetry_cell_setting 'orthorhombic'
loop_
_space_group_symop_operation_xyz
x,y,z
-x,-y,z
x,-y,-z
-x,y,-z
-x,-y,-z
x,y,-z
-x,y,z
x,-y,z
1/2+x,1/2+y,1/2+z
1/2-x,1/2-y,1/2+z
1/2+x,1/2-y,1/2-z
1/2-x,1/2+y,1/2-z
1/2-x,1/2-y,1/2-z
1/2+x,1/2+y,1/2-z
1/2-x,1/2+y,1/2+z
1/2+x,1/2-y,1/2+z
loop_
_atom_site_type_symbol
_atom_site_label
_atom_site_fract_x
_atom_site_fract_y
_atom_site_fract_z
Si Si1 0.452879 0.893663 0.500000
Si Si2 0.887775 0.892950 0.702251
Si Si3 0.453737 0.244013 0.197079
Si Si4 0.230648 0.393039 0.797679
Si Si5 0.809526 0.208915 0.701878
O O1 0.500000 0.902825 0.500000
O O2 0.439376 0.839941 0.674327
O O3 0.433274 0.000000 0.500000
O O4 0.882117 0.901143 0.500000
O O5 0.928941 0.839106 0.745870
O O6 0.850339 0.833833 0.781476
O O7 0.889331 0.000000 0.783632
O O8 0.500000 0.269932 0.224844
O O9 0.445551 0.211006 0.000000
O O10 0.223095 0.500000 0.720578
O O11 0.194266 0.322197 0.747990
O O12 0.271879 0.349846 0.720032
O O13 0.234313 0.399912 0.000000
O O14 0.810389 0.196253 0.500000
#
# Coordination Sequence:
#
# PCOD8292785 Si02
#       5
#     8  16  16  16  16
#     4   9  18  34  55  77 103 137 176 218 263 309
#     4   9  17  31  52  75 100 132 168 208 256 309
#     4   9  18  33  54  80 108 138 175 218 259 308
#     4   9  17  30  48  69  95 128 163 201 250 304
#     4   9  17  30  49  71  95 126 165 207 247 300
#
# _framework density 19.876843000000001
#
# number of rings (size 3 to 8) (size 9 to 14) (size 15 to 20)
#    0.000    3.000    0.000    0.667    0.000    4.000 
#    2.000    6.111    0.000    7.333    0.000    0.000 
#    0.000    0.000    0.000    0.000    0.000    0.000 
#
# Total GULP energy -446216.226004 kJ/mol
# GULP energy per Si atom -12394.895167 kJ/mol
# Density = 1.983160 g / cm^3
# Si number density = 19.876843 Si / 1000 Ang^3
#
#
#
# Elastic Constant Matrix: (Units=GPa)
#
#
# Indices 1 2 3 4 5 6 
#
# 1 99.8532 82.2789 26.5798 0.0000 0.0000 0.0000
# 2 82.2789 208.2002 39.1176 0.0000 0.0000 0.0000
# 3 26.5798 39.1176 52.3564 0.0000 0.0000 0.0000
# 4 0.0000 0.0000 0.0000 24.5452 0.0000 0.0000
# 5 0.0000 0.0000 0.0000 0.0000 14.8458 0.0000
# 6 0.0000 0.0000 0.0000 0.0000 0.0000 30.6725
#
#
#
# Elastic Compliance Matrix: (Units=1/GPa)
#
#
# Indices 1 2 3 4 5 6 
#
# 1 0.015482 -0.005400 -0.003826 0.000000 0.000000 0.000000
# 2 -0.005400 0.007471 -0.002840 0.000000 0.000000 0.000000
# 3 -0.003826 -0.002840 0.023164 0.000000 0.000000 0.000000
# 4 0.000000 0.000000 0.000000 0.040741 0.000000 0.000000
# 5 0.000000 0.000000 0.000000 0.000000 0.067359 0.000000
# 6 0.000000 0.000000 0.000000 0.000000 0.000000 0.032603
#
#
# Mechanical properties :
#
#
# Convention : Reuss Voigt Hill
#
# Bulk Modulus (GPa) = 45.48380 72.92915 59.20648
# Shear Modulus (GPa) = 22.90637 28.17493 25.54065
#
# Velocity S-wave (km/s) = 3.39841 3.76902 3.58850
# Velocity P-wave (km/s) = 6.19123 7.46397 6.85719
#
# Compressibility (1/GPa) = 0.02198585
#
# Stress axis : x y z
#
# Youngs Moduli (GPa) = 64.58948 133.85712 43.17019
#
# Poissons Ratio (x) = 0.72279 0.16515
# Poissons Ratio (y) = 0.34877 0.12262
# Poissons Ratio (z) = 0.24709 0.38020
#
# Static dielectric constant tensor:
#      x y z
#    x 3.577790 0.000000 0.000000 
#    y 0.000000 3.968540 0.000000 
#    z 0.000000 0.000000 3.381150 
# 
# 
# High freq. dielectric constant tensor:
#      x y z
#    x 1.756770 0.000000 0.000000 
#    y 0.000000 1.776570 0.000000 
#    z 0.000000 0.000000 1.755150 
# 
# From -- ./inp_files/6431.got.cif
#   From: 2010.06.25/outbox.cif.g09.slc.cpg/sg71_4_cif.got.tgz:6431.got - 2010.06.28 04:59:45.
