data_PCOD8292629
_publ_section_title
;
Structure prediction by ZEFSAII (Michael W. Deem and Ramdas Pophale) SiO2 
 PCOD8292629
Probable space group: I M M M
;
_chemical_formula_sum "Si O2"
_cell_formula_units_Z 96
_cell_length_a 14.575445
_cell_length_b 23.577723
_cell_length_c 18.684045
_cell_angle_alpha 90.000000
_cell_angle_beta 90.000000
_cell_angle_gamma 90.000000
_cell_volume 6420.880522
_symmetry_space_group_name_H-M "I M M M"
_symmetry_group_IT_number 71
_symmetry_cell_setting 'orthorhombic'
loop_
_space_group_symop_operation_xyz
x,y,z
-x,-y,z
x,-y,-z
-x,y,-z
-x,-y,-z
x,y,-z
-x,y,z
x,-y,z
1/2+x,1/2+y,1/2+z
1/2-x,1/2-y,1/2+z
1/2+x,1/2-y,1/2-z
1/2-x,1/2+y,1/2-z
1/2-x,1/2-y,1/2-z
1/2+x,1/2+y,1/2-z
1/2-x,1/2+y,1/2+z
1/2+x,1/2-y,1/2+z
loop_
_atom_site_type_symbol
_atom_site_label
_atom_site_fract_x
_atom_site_fract_y
_atom_site_fract_z
Si Si1 0.102908 0.228376 0.914679
Si Si2 0.396329 0.937662 0.585093
Si Si3 0.890336 0.000000 0.826469
Si Si4 0.608686 0.500000 0.165724
Si Si5 0.108990 0.896548 0.079840
Si Si6 0.603129 0.611171 0.083559
Si Si7 0.282712 0.832629 0.415776
O O1 0.136474 0.165787 0.890077
O O2 0.173640 0.275146 0.882954
O O3 0.000000 0.241556 0.886076
O O4 0.101039 0.228880 0.000000
O O5 0.391836 0.937058 0.500000
O O6 0.500000 0.926094 0.610791
O O7 0.332594 0.888065 0.617298
O O8 0.363584 0.000000 0.612707
O O9 0.851087 0.000000 0.746049
O O10 0.851934 0.944286 0.866865
O O11 0.000000 0.000000 0.826333
O O12 0.500000 0.500000 0.167596
O O13 0.641226 0.556011 0.124283
O O14 0.000000 0.900252 0.075589
O O15 0.149315 0.906782 0.000000
O O16 0.500000 0.628784 0.107681
O O17 0.673512 0.662722 0.100884
O O18 0.604959 0.595922 0.000000
O O19 0.300613 0.831308 0.500000
#
# Coordination Sequence:
#
# PCOD8292629 Si02
#       7
#    16  16   8   8  16  16  16
#     4   8  13  21  33  52  77 101 121 139 163 204
#     4   8  13  19  26  40  63  87 112 143 176 209
#     4   9  15  23  37  55  73  96 121 144 174 212
#     4   9  17  27  37  49  66  89 121 157 189 223
#     4   8  13  21  35  56  80 100 117 137 164 206
#     4   9  17  27  37  49  66  90 123 164 201 223
#     4   9  15  21  33  48  65  93 123 148 180 217
#
# _framework density 14.951221
#
# number of rings (size 3 to 8) (size 9 to 14) (size 15 to 20)
#    0.000    3.500    0.000    2.500    1.167    4.000 
#    0.000    0.000    0.000    1.000    0.000    0.000 
#    0.000    0.000    0.000    2.417    0.000   22.083 
#
# Total GULP energy -594681.514155 kJ/mol
# GULP energy per Si atom -12389.198212 kJ/mol
# Density = 1.491719 g / cm^3
# Si number density = 14.951221 Si / 1000 Ang^3
#
#
#
# Elastic Constant Matrix: (Units=GPa)
#
#
# Indices 1 2 3 4 5 6 
#
# 1 59.9062 52.5256 14.1235 0.0000 0.0000 0.0000
# 2 52.5256 128.9349 27.4235 0.0000 0.0000 0.0000
# 3 14.1235 27.4235 34.6170 0.0000 0.0000 0.0000
# 4 0.0000 0.0000 0.0000 3.8999 0.0000 0.0000
# 5 0.0000 0.0000 0.0000 0.0000 3.9447 0.0000
# 6 0.0000 0.0000 0.0000 0.0000 0.0000 11.5158
#
#
#
# Elastic Compliance Matrix: (Units=1/GPa)
#
#
# Indices 1 2 3 4 5 6 
#
# 1 0.026174 -0.010092 -0.002684 0.000000 0.000000 0.000000
# 2 -0.010092 0.013219 -0.006354 0.000000 0.000000 0.000000
# 3 -0.002684 -0.006354 0.035017 0.000000 0.000000 0.000000
# 4 0.000000 0.000000 0.000000 0.256416 0.000000 0.000000
# 5 0.000000 0.000000 0.000000 0.000000 0.253505 0.000000
# 6 0.000000 0.000000 0.000000 0.000000 0.000000 0.086837
#
#
# Mechanical properties :
#
#
# Convention : Reuss Voigt Hill
#
# Bulk Modulus (GPa) = 27.66355 45.73369 36.69862
# Shear Modulus (GPa) = 6.93022 12.49779 9.71400
#
# Velocity S-wave (km/s) = 2.15529 2.89434 2.55171
# Velocity P-wave (km/s) = 4.97357 6.46719 5.76893
#
# Compressibility (1/GPa) = 0.03614865
#
# Stress axis : x y z
#
# Youngs Moduli (GPa) = 38.20566 75.65073 28.55792
#
# Poissons Ratio (x) = 0.76346 0.07665
# Poissons Ratio (y) = 0.38557 0.18147
# Poissons Ratio (z) = 0.10255 0.48071
#
# Static dielectric constant tensor:
#      x y z
#    x 2.744320 0.000000 0.000000 
#    y 0.000000 3.253730 0.000000 
#    z 0.000000 0.000000 2.525740 
# 
# 
# High freq. dielectric constant tensor:
#      x y z
#    x 1.540310 0.000000 0.000000 
#    y 0.000000 1.576840 0.000000 
#    z 0.000000 0.000000 1.510850 
# 
# From -- ./inp_files/46549.got.cif
#   From: 2010.06.25/outbox.cif.g09.slc.cpg/sg71_24_cif.got.tgz:46549.got - 2010.06.28 04:59:45.
