data_PCOD8292492
_publ_section_title
;
Structure prediction by ZEFSAII (Michael W. Deem and Ramdas Pophale) SiO2 
 PCOD8292492
Probable space group: I M M M
;
_chemical_formula_sum "Si O2"
_cell_formula_units_Z 64
_cell_length_a 8.707747
_cell_length_b 30.372489
_cell_length_c 11.940059
_cell_angle_alpha 90.000000
_cell_angle_beta 90.000000
_cell_angle_gamma 90.000000
_cell_volume 3157.858447
_symmetry_space_group_name_H-M "I M M M"
_symmetry_group_IT_number 71
_symmetry_cell_setting 'orthorhombic'
loop_
_space_group_symop_operation_xyz
x,y,z
-x,-y,z
x,-y,-z
-x,y,-z
-x,-y,-z
x,y,-z
-x,y,z
x,-y,z
1/2+x,1/2+y,1/2+z
1/2-x,1/2-y,1/2+z
1/2+x,1/2-y,1/2-z
1/2-x,1/2+y,1/2-z
1/2-x,1/2-y,1/2-z
1/2+x,1/2+y,1/2-z
1/2-x,1/2+y,1/2+z
1/2+x,1/2-y,1/2+z
loop_
_atom_site_type_symbol
_atom_site_label
_atom_site_fract_x
_atom_site_fract_y
_atom_site_fract_z
Si Si1 0.173401 0.171025 0.500000
Si Si2 0.178799 0.873174 0.869740
Si Si3 0.180922 0.702755 0.772909
Si Si4 0.324093 0.049545 0.267205
Si Si5 0.326585 0.567021 0.000000
O O1 0.263540 0.186997 0.607325
O O2 0.171102 0.119084 0.500000
O O3 0.000000 0.189949 0.500000
O O4 0.268764 0.831424 0.822176
O O5 0.226468 0.918395 0.810822
O O6 0.000000 0.865258 0.846860
O O7 0.217605 0.877417 0.000000
O O8 0.250000 0.750000 0.750000
O O9 0.000000 0.706465 0.772656
O O10 0.500000 0.065771 0.267859
O O11 0.261701 0.049233 0.392684
O O12 0.310740 0.000000 0.218912
O O13 0.500000 0.548544 0.000000
#
# Coordination Sequence:
#
# PCOD8292492 Si02
#       5
#     8  16  16  16   8
#     4  11  23  42  68  99 133 168 214 266 321 379
#     4  11  25  45  67  93 128 168 216 268 319 380
#     4  12  26  44  69  98 132 171 214 264 321 382
#     4  11  24  41  64  95 130 168 213 264 320 383
#     4  11  22  38  65  96 131 168 210 263 319 379
#
# _framework density 20.266898999999999
#
# number of rings (size 3 to 8) (size 9 to 14) (size 15 to 20)
#    0.000    0.750    2.500    4.875    1.750    7.000 
#    0.000    2.500    0.000    0.000    0.000    0.000 
#    0.000    0.000    0.000    0.000    0.000    0.000 
#
# Total GULP energy -396993.854033 kJ/mol
# GULP energy per Si atom -12406.057939 kJ/mol
# Density = 2.022077 g / cm^3
# Si number density = 20.266899 Si / 1000 Ang^3
#
#
#
# Elastic Constant Matrix: (Units=GPa)
#
#
# Indices 1 2 3 4 5 6 
#
# 1 144.3494 45.5227 57.5502 0.0017 0.0001 0.0000
# 2 45.5227 123.4332 47.1633 0.0009 0.0004 0.0002
# 3 57.5502 47.1633 126.2383 0.0014 0.0005 0.0006
# 4 0.0017 0.0009 0.0014 46.0412 0.0009 0.0005
# 5 0.0001 0.0004 0.0005 0.0009 44.6079 0.0001
# 6 0.0000 0.0002 0.0006 0.0005 0.0001 37.3310
#
#
#
# Elastic Compliance Matrix: (Units=1/GPa)
#
#
# Indices 1 2 3 4 5 6 
#
# 1 0.008876 -0.002015 -0.003294 0.000000 0.000000 0.000000
# 2 -0.002015 0.009908 -0.002783 0.000000 0.000000 0.000000
# 3 -0.003294 -0.002783 0.010463 0.000000 0.000000 0.000000
# 4 0.000000 0.000000 0.000000 0.021720 0.000000 0.000000
# 5 0.000000 0.000000 0.000000 0.000000 0.022418 0.000000
# 6 0.000000 0.000000 0.000000 0.000000 0.000000 0.026787
#
#
# Mechanical properties :
#
#
# Convention : Reuss Voigt Hill
#
# Bulk Modulus (GPa) = 76.54921 77.16589 76.85755
# Shear Modulus (GPa) = 41.42154 41.84834 41.63494
#
# Velocity S-wave (km/s) = 4.52575 4.54900 4.53739
# Velocity P-wave (km/s) = 8.07232 8.10856 8.09046
#
# Compressibility (1/GPa) = 0.01306349
#
# Stress axis : x y z
#
# Youngs Moduli (GPa) = 112.65970 100.92724 95.57625
#
# Poissons Ratio (x) = 0.20338 0.31480
# Poissons Ratio (y) = 0.22702 0.26600
# Poissons Ratio (z) = 0.37107 0.28089
#
# Static dielectric constant tensor:
#      x y z
#    x 4.201830 0.000010 0.000000 
#    y 0.000010 3.594160 0.000000 
#    z 0.000000 0.000000 3.894860 
# 
# 
# High freq. dielectric constant tensor:
#      x y z
#    x 1.812920 0.000000 0.000000 
#    y 0.000000 1.809180 0.000000 
#    z 0.000000 0.000000 1.797440 
# 
# From -- ./inp_files/18483.got.cif
#   From: 2010.06.25/outbox.cif.g09.slc.cpg/sg71_10_cif.got.tgz:18483.got - 2010.06.28 04:59:45.
