data_PCOD8292959
_publ_section_title
;
Structure prediction by ZEFSAII (Michael W. Deem and Ramdas Pophale) SiO2 
 PCOD8292959
Probable space group: I B A M
;
_chemical_formula_sum "Si O2"
_cell_formula_units_Z 120
_cell_length_a 31.455304
_cell_length_b 23.170480
_cell_length_c 9.145400
_cell_angle_alpha 90.000000
_cell_angle_beta 90.000000
_cell_angle_gamma 90.000000
_cell_volume 6665.482965
_symmetry_space_group_name_H-M "I B A M"
_symmetry_group_IT_number 72
_symmetry_cell_setting 'orthorhombic'
loop_
_space_group_symop_operation_xyz
x,y,z
-x,-y,z
x,-y,1/2-z
-x,y,1/2-z
-x,-y,-z
x,y,-z
-x,y,1/2+z
x,-y,1/2+z
1/2+x,1/2+y,1/2+z
1/2-x,1/2-y,1/2+z
1/2+x,1/2-y,-z
1/2-x,1/2+y,-z
1/2-x,1/2-y,1/2-z
1/2+x,1/2+y,1/2-z
1/2-x,1/2+y,z
1/2+x,1/2-y,z
loop_
_atom_site_type_symbol
_atom_site_label
_atom_site_fract_x
_atom_site_fract_y
_atom_site_fract_z
Si Si1 0.455001 0.840874 0.674940
Si Si2 0.391104 0.939888 0.330509
Si Si3 0.783048 0.061657 0.172377
Si Si4 0.000000 0.853925 0.750000
Si Si5 0.629367 0.381876 0.328759
Si Si6 0.424403 0.720829 0.337848
Si Si7 0.702826 0.938955 0.828530
Si Si8 0.560737 0.552507 0.661294
O O1 0.500000 0.850842 0.750000
O O2 0.460914 0.837280 0.500000
O O3 0.425311 0.893690 0.723975
O O4 0.433082 0.782356 0.740168
O O5 0.396899 0.953832 0.500000
O O6 0.344045 0.912132 0.302813
O O7 0.398618 0.000000 0.250000
O O8 0.821081 0.106985 0.200333
O O9 0.741732 0.093402 0.245747
O O10 0.792225 0.000000 0.250000
O O11 0.776119 0.051181 0.000000
O O12 0.031427 0.814503 0.844698
O O13 0.028087 0.894457 0.645311
O O14 0.617883 0.385799 0.500000
O O15 0.613412 0.318764 0.267891
O O16 0.603782 0.431215 0.245313
O O17 0.409620 0.736339 0.500000
O O18 0.702070 0.000000 0.750000
O O19 0.713226 0.944434 0.000000
O O20 0.539276 0.500000 0.750000
O O21 0.573094 0.531404 0.500000
#
# Coordination Sequence:
#
# PCOD8292959 Si02
#       8
#    16  16  16   8  16  16  16  16
#     4  10  20  35  55  78 102 130 165 203 242 287
#     4   9  19  34  53  78 107 135 161 192 236 291
#     4  10  18  28  45  70  98 128 163 202 247 295
#     4  10  19  32  48  66  87 118 160 204 254 290
#     4   9  19  33  48  67  94 128 164 205 251 295
#     4   9  17  32  51  68  91 123 162 204 244 288
#     4   9  16  28  47  71  98 129 162 196 237 286
#     4  11  22  32  45  65  91 123 161 205 254 304
#
# _framework density 18.003197
#
# number of rings (size 3 to 8) (size 9 to 14) (size 15 to 20)
#    0.000    2.400    0.667    3.000    0.000    5.600 
#    0.000    1.333    0.000    0.800    0.000    0.000 
#    0.000    0.000    0.000    0.000    0.000    2.800 
#
# Total GULP energy -743349.906110 kJ/mol
# GULP energy per Si atom -12389.165102 kJ/mol
# Density = 1.796222 g / cm^3
# Si number density = 18.003197 Si / 1000 Ang^3
#
#
#
# Elastic Constant Matrix: (Units=GPa)
#
#
# Indices 1 2 3 4 5 6 
#
# 1 140.4588 72.7671 45.1372 0.0000 0.0000 0.0000
# 2 72.7671 106.2705 35.1448 0.0000 0.0000 0.0000
# 3 45.1372 35.1448 81.3723 0.0000 0.0000 0.0000
# 4 0.0000 0.0000 0.0000 16.5896 0.0000 0.0000
# 5 0.0000 0.0000 0.0000 0.0000 24.5435 0.0000
# 6 0.0000 0.0000 0.0000 0.0000 0.0000 26.9615
#
#
#
# Elastic Compliance Matrix: (Units=1/GPa)
#
#
# Indices 1 2 3 4 5 6 
#
# 1 0.011867 -0.006940 -0.003585 0.000000 0.000000 0.000000
# 2 -0.006940 0.015037 -0.002645 0.000000 0.000000 0.000000
# 3 -0.003585 -0.002645 0.015420 0.000000 0.000000 0.000000
# 4 0.000000 0.000000 0.000000 0.060279 0.000000 0.000000
# 5 0.000000 0.000000 0.000000 0.000000 0.040744 0.000000
# 6 0.000000 0.000000 0.000000 0.000000 0.000000 0.037090
#
#
# Mechanical properties :
#
#
# Convention : Reuss Voigt Hill
#
# Bulk Modulus (GPa) = 62.56300 70.46663 66.51481
# Shear Modulus (GPa) = 23.57325 25.28909 24.43117
#
# Velocity S-wave (km/s) = 3.62248 3.75200 3.68781
# Velocity P-wave (km/s) = 7.23346 7.61552 7.42695
#
# Compressibility (1/GPa) = 0.01598389
#
# Stress axis : x y z
#
# Youngs Moduli (GPa) = 84.26648 66.50383 64.85019
#
# Poissons Ratio (x) = 0.46155 0.23250
# Poissons Ratio (y) = 0.58482 0.17151
# Poissons Ratio (z) = 0.30211 0.17588
#
# Static dielectric constant tensor:
#      x y z
#    x 3.801500 0.000000 0.000000 
#    y 0.000000 3.220110 0.000000 
#    z 0.000000 0.000000 3.221290 
# 
# 
# High freq. dielectric constant tensor:
#      x y z
#    x 1.700460 0.000000 0.000000 
#    y 0.000000 1.668080 0.000000 
#    z 0.000000 0.000000 1.688820 
# 
# From -- ./inp_files/9480.got.cif
#   From: 2010.03.12/outbox.cif.g09.slc.cpg/sg72_5_cif.got.tgz:9480.got - 2010.04.16 14:54:00.
