data_PCOD8292701
_publ_section_title
;
Structure prediction by ZEFSAII (Michael W. Deem and Ramdas Pophale) SiO2 
 PCOD8292701
Probable space group: I M M M
;
_chemical_formula_sum "Si O2"
_cell_formula_units_Z 80
_cell_length_a 13.877873
_cell_length_b 33.438070
_cell_length_c 9.782390
_cell_angle_alpha 90.000000
_cell_angle_beta 90.000000
_cell_angle_gamma 90.000000
_cell_volume 4539.511123
_symmetry_space_group_name_H-M "I M M M"
_symmetry_group_IT_number 71
_symmetry_cell_setting 'orthorhombic'
loop_
_space_group_symop_operation_xyz
x,y,z
-x,-y,z
x,-y,-z
-x,y,-z
-x,-y,-z
x,y,-z
-x,y,z
x,-y,z
1/2+x,1/2+y,1/2+z
1/2-x,1/2-y,1/2+z
1/2+x,1/2-y,1/2-z
1/2-x,1/2+y,1/2-z
1/2-x,1/2-y,1/2-z
1/2+x,1/2+y,1/2-z
1/2-x,1/2+y,1/2+z
1/2+x,1/2-y,1/2+z
loop_
_atom_site_type_symbol
_atom_site_label
_atom_site_fract_x
_atom_site_fract_y
_atom_site_fract_z
Si Si1 0.767068 0.308079 0.341360
Si Si2 0.394376 0.880217 0.839310
Si Si3 0.725555 0.045397 0.158250
Si Si4 0.612096 0.270703 0.842621
Si Si5 0.894157 0.047451 0.348099
O O1 0.736637 0.311672 0.500000
O O2 0.817038 0.348357 0.283204
O O3 0.670546 0.301347 0.253216
O O4 0.845552 0.273398 0.319810
O O5 0.500000 0.873674 0.772742
O O6 0.363402 0.925764 0.806691
O O7 0.401879 0.873125 0.000000
O O8 0.817038 0.062930 0.239313
O O9 0.698093 0.000000 0.201558
O O10 0.753670 0.047355 0.000000
O O11 0.500000 0.270675 0.799738
O O12 0.624337 0.284020 0.000000
O O13 0.864566 0.061922 0.500000
O O14 0.000000 0.064570 0.310242
O O15 0.897928 0.000000 0.343619
#
# Coordination Sequence:
#
# PCOD8292701 Si02
#       5
#    16  16  16  16  16
#     4   9  17  30  49  71  93 121 157 189 218 262
#     4   9  17  30  48  68  91 120 153 188 226 270
#     4   9  17  28  44  68  93 116 148 191 232 265
#     4   9  17  30  49  72  97 123 150 183 225 270
#     4   8  14  26  44  63  83 111 146 181 221 271
#
# _framework density 17.623042000000002
#
# number of rings (size 3 to 8) (size 9 to 14) (size 15 to 20)
#    0.000    3.200    0.000    1.200    0.000    3.600 
#    0.000    6.000    0.000    9.600    0.000    2.800 
#    0.000    0.000    0.000    0.000    0.000    0.000 
#
# Total GULP energy -495780.010365 kJ/mol
# GULP energy per Si atom -12394.500259 kJ/mol
# Density = 1.758293 g / cm^3
# Si number density = 17.623042 Si / 1000 Ang^3
#
#
#
# Elastic Constant Matrix: (Units=GPa)
#
#
# Indices 1 2 3 4 5 6 
#
# 1 137.8109 49.9185 54.8615 0.0004 0.0011 0.0002
# 2 49.9185 79.6938 31.0714 -0.0027 0.0002 0.0011
# 3 54.8615 31.0714 53.9831 -0.0110 0.0024 0.0028
# 4 0.0004 -0.0027 -0.0110 14.9345 0.0002 0.0016
# 5 0.0011 0.0002 0.0024 0.0002 21.9649 -0.0002
# 6 0.0002 0.0011 0.0028 0.0016 -0.0002 21.3069
#
#
#
# Elastic Compliance Matrix: (Units=1/GPa)
#
#
# Indices 1 2 3 4 5 6 
#
# 1 0.013052 -0.003873 -0.011036 -0.000009 0.000001 0.000002
# 2 -0.003873 0.017328 -0.006037 -0.000001 0.000001 0.000000
# 3 -0.011036 -0.006037 0.033214 0.000024 -0.000003 -0.000004
# 4 -0.000009 -0.000001 0.000024 0.066959 -0.000001 -0.000005
# 5 0.000001 0.000001 -0.000003 -0.000001 0.045527 0.000000
# 6 0.000002 0.000000 -0.000004 -0.000005 0.000000 0.046933
#
#
# Mechanical properties :
#
#
# Convention : Reuss Voigt Hill
#
# Bulk Modulus (GPa) = 46.07729 60.35450 53.21589
# Shear Modulus (GPa) = 18.37286 20.68370 19.52828
#
# Velocity S-wave (km/s) = 3.23235 3.42961 3.33244
# Velocity P-wave (km/s) = 6.33511 7.07141 6.71336
#
# Compressibility (1/GPa) = 0.02170267
#
# Stress axis : x y z
#
# Youngs Moduli (GPa) = 76.61398 57.71007 30.10742
#
# Poissons Ratio (x) = 0.22352 0.33225
# Poissons Ratio (y) = 0.29674 0.18177
# Poissons Ratio (z) = 0.84548 0.34842
#
# Static dielectric constant tensor:
#      x y z
#    x 3.480080 0.000000 -0.000010 
#    y 0.000000 3.141520 0.000000 
#    z -0.000010 0.000000 3.181940 
# 
# 
# High freq. dielectric constant tensor:
#      x y z
#    x 1.682840 0.000000 0.000000 
#    y 0.000000 1.664350 0.000000 
#    z 0.000000 0.000000 1.655960 
# 
# From -- ./inp_files/20134.got.cif
#   From: 2010.06.25/outbox.cif.g09.slc.cpg/sg71_11_cif.got.tgz:20134.got - 2010.06.28 04:59:45.
