data_PCOD8292381
_publ_section_title
;
Structure prediction by ZEFSAII (Michael W. Deem and Ramdas Pophale) SiO2 
 PCOD8292381
Probable space group: I M M M
;
_chemical_formula_sum "Si O2"
_cell_formula_units_Z 80
_cell_length_a 18.173519
_cell_length_b 26.352258
_cell_length_c 8.430897
_cell_angle_alpha 90.000000
_cell_angle_beta 90.000000
_cell_angle_gamma 90.000000
_cell_volume 4037.668379
_symmetry_space_group_name_H-M "I M M M"
_symmetry_group_IT_number 71
_symmetry_cell_setting 'orthorhombic'
loop_
_space_group_symop_operation_xyz
x,y,z
-x,-y,z
x,-y,-z
-x,y,-z
-x,-y,-z
x,y,-z
-x,y,z
x,-y,z
1/2+x,1/2+y,1/2+z
1/2-x,1/2-y,1/2+z
1/2+x,1/2-y,1/2-z
1/2-x,1/2+y,1/2-z
1/2-x,1/2-y,1/2-z
1/2+x,1/2+y,1/2-z
1/2-x,1/2+y,1/2+z
1/2+x,1/2-y,1/2+z
loop_
_atom_site_type_symbol
_atom_site_label
_atom_site_fract_x
_atom_site_fract_y
_atom_site_fract_z
Si Si1 0.678749 0.945245 0.815364
Si Si2 0.671062 0.343205 0.681694
Si Si3 0.339744 0.445089 0.184556
Si Si4 0.331911 0.157400 0.684324
Si Si5 0.415683 0.251725 0.183352
O O1 0.753310 0.947534 0.716654
O O2 0.634921 0.896884 0.745196
O O3 0.637342 0.000000 0.793271
O O4 0.696405 0.935850 0.000000
O O5 0.695454 0.342487 0.500000
O O6 0.628394 0.396330 0.721299
O O7 0.744443 0.338348 0.787262
O O8 0.616302 0.297334 0.713364
O O9 0.374399 0.500000 0.237146
O O10 0.354496 0.436255 0.000000
O O11 0.349099 0.164463 0.500000
O O12 0.372349 0.200422 0.782923
O O13 0.500000 0.243669 0.232142
O O14 0.407069 0.266061 0.000000
#
# Coordination Sequence:
#
# PCOD8292381 Si02
#       5
#    16  16  16  16  16
#     4   9  16  27  46  74 107 139 172 211 256 305
#     4  11  21  34  55  81 110 140 175 217 259 309
#     4   9  16  27  46  74 107 139 172 211 256 305
#     4  11  21  34  55  81 110 140 175 217 259 309
#     4  11  24  41  58  75 101 137 176 219 268 319
#
# _framework density 19.813414999999999
#
# number of rings (size 3 to 8) (size 9 to 14) (size 15 to 20)
#    0.000    1.800    0.000    8.400    0.000    4.000 
#    0.000    0.000    0.000    1.200    0.000    8.400 
#    0.000    0.000    0.000    0.000    0.000    0.000 
#
# Total GULP energy -495723.488560 kJ/mol
# GULP energy per Si atom -12393.087214 kJ/mol
# Density = 1.976832 g / cm^3
# Si number density = 19.813415 Si / 1000 Ang^3
#
#
#
# Elastic Constant Matrix: (Units=GPa)
#
#
# Indices 1 2 3 4 5 6 
#
# 1 28.1324 26.0550 19.3171 0.0000 0.0000 0.0000
# 2 26.0550 174.2418 29.6691 0.0000 0.0000 0.0000
# 3 19.3171 29.6691 56.0219 0.0000 0.0000 0.0000
# 4 0.0000 0.0000 0.0000 33.4379 0.0000 0.0000
# 5 0.0000 0.0000 0.0000 0.0000 17.1645 0.0000
# 6 0.0000 0.0000 0.0000 0.0000 0.0000 -4.5768
#
#
#
# Elastic Compliance Matrix: (Units=1/GPa)
#
#
# Indices 1 2 3 4 5 6 
#
# 1 0.050272 -0.005018 -0.014677 0.000000 0.000000 0.000000
# 2 -0.005018 0.006809 -0.001876 0.000000 0.000000 0.000000
# 3 -0.014677 -0.001876 0.023904 0.000000 0.000000 0.000000
# 4 0.000000 0.000000 0.000000 0.029906 0.000000 0.000000
# 5 0.000000 0.000000 0.000000 0.000000 0.058260 0.000000
# 6 0.000000 0.000000 0.000000 0.000000 0.000000 -0.218494
#
#
# Mechanical properties :
#
#
# Convention : Reuss Voigt Hill
#
# Bulk Modulus (GPa) = 26.42453 45.38651 35.90552
# Shear Modulus (GPa) = 779.70860 21.42877 400.56869
#
# Velocity S-wave (km/s) = 19.85900 3.29223 14.23409
# Velocity P-wave (km/s) = 23.22080 6.11624 16.97960
#
# Compressibility (1/GPa) = 0.03784363
#
# Stress axis : x y z
#
# Youngs Moduli (GPa) = 19.89194 146.86618 41.83362
#
# Poissons Ratio (x) = 0.73701 0.61398
# Poissons Ratio (y) = 0.09982 0.07846
# Poissons Ratio (z) = 0.29195 0.27547
#
# Static dielectric constant tensor:
#      x y z
#    x 2.966240 0.000000 0.000000 
#    y 0.000000 4.575280 0.000000 
#    z 0.000000 0.000000 3.600420 
# 
# 
# High freq. dielectric constant tensor:
#      x y z
#    x 1.694560 0.000000 0.000000 
#    y 0.000000 1.810380 0.000000 
#    z 0.000000 0.000000 1.785300 
# 
# From -- ./inp_files/8317.got.cif
#   From: 2010.06.25/outbox.cif.g09.slc.cpg/sg71_5_cif.got.tgz:8317.got - 2010.06.28 04:59:45.
