data_PCOD8292425
_publ_section_title
;
Structure prediction by ZEFSAII (Michael W. Deem and Ramdas Pophale) SiO2 
 PCOD8292425
Probable space group: I M M M
;
_chemical_formula_sum "Si O2"
_cell_formula_units_Z 68
_cell_length_a 18.180579
_cell_length_b 19.544395
_cell_length_c 9.656021
_cell_angle_alpha 90.000000
_cell_angle_beta 90.000000
_cell_angle_gamma 90.000000
_cell_volume 3431.058659
_symmetry_space_group_name_H-M "I M M M"
_symmetry_group_IT_number 71
_symmetry_cell_setting 'orthorhombic'
loop_
_space_group_symop_operation_xyz
x,y,z
-x,-y,z
x,-y,-z
-x,y,-z
-x,-y,-z
x,y,-z
-x,y,z
x,-y,z
1/2+x,1/2+y,1/2+z
1/2-x,1/2-y,1/2+z
1/2+x,1/2-y,1/2-z
1/2-x,1/2+y,1/2-z
1/2-x,1/2-y,1/2-z
1/2+x,1/2+y,1/2-z
1/2-x,1/2+y,1/2+z
1/2+x,1/2-y,1/2+z
loop_
_atom_site_type_symbol
_atom_site_label
_atom_site_fract_x
_atom_site_fract_y
_atom_site_fract_z
Si Si1 0.500000 0.079592 0.199161
Si Si2 0.000000 0.080255 0.159438
Si Si3 0.619276 0.131609 0.000000
Si Si4 0.639687 0.344214 0.721449
Si Si5 0.228746 0.077128 0.000000
Si Si6 0.804760 0.780758 0.500000
Si Si7 0.500000 0.130569 0.500000
Si Si8 0.630320 0.236105 0.500000
O O1 0.570940 0.118875 0.137345
O O2 0.500000 0.083276 0.364541
O O3 0.500000 0.000000 0.153628
O O4 0.929317 0.106288 0.242240
O O5 0.000000 0.000000 0.162271
O O6 0.000000 0.106927 0.000000
O O7 0.683461 0.075423 0.000000
O O8 0.656404 0.206726 0.000000
O O9 0.702494 0.383583 0.636692
O O10 0.611904 0.277878 0.638658
O O11 0.671342 0.323556 0.867905
O O12 0.197281 0.000000 0.000000
O O13 0.716926 0.779797 0.500000
O O14 0.576149 0.172101 0.500000
#
# Coordination Sequence:
#
# PCOD8292425 Si02
#       8
#     8   8   8  16   8   8   4   8
#     4  11  25  44  64  93 125 167 225 267 310 380
#     4  11  21  41  65  91 125 168 219 255 296 381
#     4  11  23  44  67  90 122 173 210 268 316 370
#     4  11  23  39  66  94 130 167 208 261 318 370
#     4  11  22  40  65  91 122 174 221 249 304 379
#     4  12  25  41  64 100 137 155 208 272 324 372
#     4  12  25  38  68  92 133 172 202 262 342 364
#     4  11  22  41  63  96 129 166 216 251 316 397
#
# _framework density 19.818957000000001
#
# number of rings (size 3 to 8) (size 9 to 14) (size 15 to 20)
#    0.000    0.824    4.706    5.118    3.294    2.353 
#    0.000    2.941    0.000    0.000    0.000    0.000 
#    0.000    0.000    0.000    0.000    0.000    0.000 
#
# Total GULP energy -421653.867360 kJ/mol
# GULP energy per Si atom -12401.584334 kJ/mol
# Density = 1.977385 g / cm^3
# Si number density = 19.818957 Si / 1000 Ang^3
#
#
#
# Elastic Constant Matrix: (Units=GPa)
#
#
# Indices 1 2 3 4 5 6 
#
# 1 149.3710 47.7558 38.5352 0.0000 0.0000 0.0000
# 2 47.7558 100.0049 49.8792 0.0000 0.0000 0.0000
# 3 38.5352 49.8792 141.3931 0.0000 0.0000 0.0000
# 4 0.0000 0.0000 0.0000 -4.8570 0.0000 0.0000
# 5 0.0000 0.0000 0.0000 0.0000 17.4157 0.0000
# 6 0.0000 0.0000 0.0000 0.0000 0.0000 22.0786
#
#
#
# Elastic Compliance Matrix: (Units=1/GPa)
#
#
# Indices 1 2 3 4 5 6 
#
# 1 0.008019 -0.003324 -0.001013 0.000000 0.000000 0.000000
# 2 -0.003324 0.013513 -0.003861 0.000000 0.000000 0.000000
# 3 -0.001013 -0.003861 0.008711 0.000000 0.000000 0.000000
# 4 0.000000 0.000000 0.000000 -0.205890 0.000000 0.000000
# 5 0.000000 0.000000 0.000000 0.000000 0.057420 0.000000
# 6 0.000000 0.000000 0.000000 0.000000 0.000000 0.045293
#
#
# Mechanical properties :
#
#
# Convention : Reuss Voigt Hill
#
# Bulk Modulus (GPa) = 72.22137 73.67883 72.95010
# Shear Modulus (GPa) = -96.29209 23.90071 -36.19569
#
# Velocity S-wave (km/s) = -6.97792 3.47645 -4.27818
# Velocity P-wave (km/s) = 5.32936 7.30554 3.53333
#
# Compressibility (1/GPa) = 0.01384632
#
# Stress axis : x y z
#
# Youngs Moduli (GPa) = 124.70729 74.00521 114.80385
#
# Poissons Ratio (x) = 0.24600 0.11627
# Poissons Ratio (y) = 0.41454 0.44324
# Poissons Ratio (z) = 0.12630 0.28573
#
# Static dielectric constant tensor:
#      x y z
#    x 3.712720 0.000000 0.000000 
#    y 0.000000 3.565300 0.000000 
#    z 0.000000 0.000000 3.571140 
# 
# 
# High freq. dielectric constant tensor:
#      x y z
#    x 1.790230 0.000000 0.000000 
#    y 0.000000 1.774040 0.000000 
#    z 0.000000 0.000000 1.764560 
# 
# From -- ./inp_files/7738.got.cif
#   From: 2010.06.25/outbox.cif.g09.slc.cpg/sg71_4_cif.got.tgz:7738.got - 2010.06.28 04:59:45.
