data_PCOD8292848
_publ_section_title
;
Structure prediction by ZEFSAII (Michael W. Deem and Ramdas Pophale) SiO2 
 PCOD8292848
Probable space group: I B A M
;
_chemical_formula_sum "Si O2"
_cell_formula_units_Z 112
_cell_length_a 19.117424
_cell_length_b 20.735962
_cell_length_c 18.017628
_cell_angle_alpha 90.000000
_cell_angle_beta 90.000000
_cell_angle_gamma 90.000000
_cell_volume 7142.515256
_symmetry_space_group_name_H-M "I B A M"
_symmetry_group_IT_number 72
_symmetry_cell_setting 'orthorhombic'
loop_
_space_group_symop_operation_xyz
x,y,z
-x,-y,z
x,-y,1/2-z
-x,y,1/2-z
-x,-y,-z
x,y,-z
-x,y,1/2+z
x,-y,1/2+z
1/2+x,1/2+y,1/2+z
1/2-x,1/2-y,1/2+z
1/2+x,1/2-y,-z
1/2-x,1/2+y,-z
1/2-x,1/2-y,1/2-z
1/2+x,1/2+y,1/2-z
1/2-x,1/2+y,z
1/2+x,1/2-y,z
loop_
_atom_site_type_symbol
_atom_site_label
_atom_site_fract_x
_atom_site_fract_y
_atom_site_fract_z
Si Si1 0.205253 0.137939 0.084947
Si Si2 0.310788 0.753832 0.582828
Si Si3 0.899957 0.231134 0.341378
Si Si4 0.290082 0.429082 0.268072
Si Si5 0.928868 0.129219 0.781782
Si Si6 0.225622 0.691565 0.698818
Si Si7 0.540219 0.287441 0.414359
O O1 0.276615 0.177123 0.101584
O O2 0.140403 0.185122 0.100836
O O3 0.202595 0.078458 0.142649
O O4 0.201498 0.112636 0.000000
O O5 0.291525 0.733660 0.500000
O O6 0.278784 0.694673 0.629724
O O7 0.394075 0.760851 0.593725
O O8 0.911460 0.194791 0.263428
O O9 0.854957 0.296006 0.325617
O O10 0.973305 0.249492 0.379774
O O11 0.261597 0.500000 0.250000
O O12 0.364941 0.420254 0.227360
O O13 0.233643 0.377389 0.237893
O O14 0.942712 0.147451 0.867841
O O15 0.000000 0.097098 0.750000
O O16 0.250000 0.750000 0.750000
O O17 0.527179 0.306880 0.500000
#
# Coordination Sequence:
#
# PCOD8292848 Si02
#       7
#    16  16  16  16  16  16  16
#     4   9  17  31  48  68  94 128 163 202 246 295
#     4   9  16  26  47  72  95 123 158 200 248 297
#     4   9  17  27  49  70  95 124 163 205 247 293
#     4  11  21  32  49  72 100 134 175 209 245 302
#     4   9  17  30  46  67  96 132 163 193 242 288
#     4  11  16  32  50  68  95 127 164 208 253 291
#     4  10  17  26  43  75 104 122 156 206 252 299
#
# _framework density 15.680752
#
# number of rings (size 3 to 8) (size 9 to 14) (size 15 to 20)
#    0.000    2.286    5.714    0.429    0.000    0.857 
#    0.000    1.429    0.000    0.000    0.000    8.000 
#    0.000    3.429    0.000    0.000    0.000    0.000 
#
# Total GULP energy -694057.951598 kJ/mol
# GULP energy per Si atom -12393.891993 kJ/mol
# Density = 1.564506 g / cm^3
# Si number density = 15.680752 Si / 1000 Ang^3
#
#
#
# Elastic Constant Matrix: (Units=GPa)
#
#
# Indices 1 2 3 4 5 6 
#
# 1 79.2386 27.8338 35.1367 0.0000 0.0000 0.0000
# 2 27.8338 73.1355 36.3223 0.0000 0.0000 0.0000
# 3 35.1367 36.3223 101.3528 0.0000 0.0000 0.0000
# 4 0.0000 0.0000 0.0000 13.0838 0.0000 0.0000
# 5 0.0000 0.0000 0.0000 0.0000 22.9901 0.0000
# 6 0.0000 0.0000 0.0000 0.0000 0.0000 14.5820
#
#
#
# Elastic Compliance Matrix: (Units=1/GPa)
#
#
# Indices 1 2 3 4 5 6 
#
# 1 0.015824 -0.004012 -0.004048 0.000000 0.000000 0.000000
# 2 -0.004012 0.017651 -0.004935 0.000000 0.000000 0.000000
# 3 -0.004048 -0.004935 0.013038 0.000000 0.000000 0.000000
# 4 0.000000 0.000000 0.000000 0.076430 0.000000 0.000000
# 5 0.000000 0.000000 0.000000 0.000000 0.043497 0.000000
# 6 0.000000 0.000000 0.000000 0.000000 0.000000 0.068578
#
#
# Mechanical properties :
#
#
# Convention : Reuss Voigt Hill
#
# Bulk Modulus (GPa) = 48.72351 50.25694 49.49022
# Shear Modulus (GPa) = 18.66718 20.42680 19.54699
#
# Velocity S-wave (km/s) = 3.45404 3.61316 3.53450
# Velocity P-wave (km/s) = 6.85907 7.03749 6.94885
#
# Compressibility (1/GPa) = 0.02052398
#
# Stress axis : x y z
#
# Youngs Moduli (GPa) = 63.19328 56.65421 76.69618
#
# Poissons Ratio (x) = 0.22729 0.31048
# Poissons Ratio (y) = 0.25353 0.37848
# Poissons Ratio (z) = 0.25582 0.27958
#
# Static dielectric constant tensor:
#      x y z
#    x 3.295700 0.000000 0.000000 
#    y 0.000000 2.470150 0.000000 
#    z 0.000000 0.000000 3.388310 
# 
# 
# High freq. dielectric constant tensor:
#      x y z
#    x 1.609220 0.000000 0.000000 
#    y 0.000000 1.531280 0.000000 
#    z 0.000000 0.000000 1.621280 
# 
# From -- ./inp_files/31933.got.cif
#   From: 2010.03.12/outbox.cif.g09.slc.cpg/sg72_16_cif.got.tgz:31933.got - 2010.04.16 14:54:00.
