data_PCOD8292589
_publ_section_title
;
Structure prediction by ZEFSAII (Michael W. Deem and Ramdas Pophale) SiO2 
 PCOD8292589
Probable space group: I M M M
;
_chemical_formula_sum "Si O2"
_cell_formula_units_Z 88
_cell_length_a 13.873857
_cell_length_b 26.786053
_cell_length_c 13.435611
_cell_angle_alpha 90.000000
_cell_angle_beta 90.000000
_cell_angle_gamma 90.000000
_cell_volume 4993.020612
_symmetry_space_group_name_H-M "I M M M"
_symmetry_group_IT_number 71
_symmetry_cell_setting 'orthorhombic'
loop_
_space_group_symop_operation_xyz
x,y,z
-x,-y,z
x,-y,-z
-x,y,-z
-x,-y,-z
x,y,-z
-x,y,z
x,-y,z
1/2+x,1/2+y,1/2+z
1/2-x,1/2-y,1/2+z
1/2+x,1/2-y,1/2-z
1/2-x,1/2+y,1/2-z
1/2-x,1/2-y,1/2-z
1/2+x,1/2+y,1/2-z
1/2-x,1/2+y,1/2+z
1/2+x,1/2-y,1/2+z
loop_
_atom_site_type_symbol
_atom_site_label
_atom_site_fract_x
_atom_site_fract_y
_atom_site_fract_z
Si Si1 0.108939 0.811784 0.387528
Si Si2 0.735705 0.131204 0.738258
Si Si3 0.891580 0.443855 0.882132
Si Si4 0.110081 0.694283 0.612923
Si Si5 0.500000 0.057811 0.883949
Si Si6 0.712086 0.942093 0.114558
O O1 0.139465 0.825077 0.500000
O O2 0.177310 0.840460 0.312398
O O3 0.116538 0.753094 0.370142
O O4 0.000000 0.829663 0.367261
O O5 0.676092 0.100223 0.656733
O O6 0.674126 0.170711 0.800950
O O7 0.781984 0.091029 0.816974
O O8 0.854986 0.500000 0.852323
O O9 0.000000 0.436733 0.838159
O O10 0.894937 0.439121 0.000000
O O11 0.145338 0.680874 0.500000
O O12 0.000000 0.675187 0.624844
O O13 0.604618 0.077300 0.845778
O O14 0.500000 0.000000 0.861785
O O15 0.500000 0.067866 0.000000
O O16 0.728047 0.000000 0.134467
O O17 0.727870 0.929407 0.000000
#
# Coordination Sequence:
#
# PCOD8292589 Si02
#       6
#    16  16  16  16   8  16
#     4   9  20  39  56  69  93 128 166 215 268 302
#     4  12  19  28  52  81  95 124 172 213 236 291
#     4   9  19  33  45  65 103 141 167 197 244 301
#     4   9  19  34  51  76 108 134 156 192 249 311
#     4   7  12  24  38  56  93 139 165 177 208 268
#     4   9  18  29  42  68 107 139 160 189 233 287
#
# _framework density 17.624601999999999
#
# number of rings (size 3 to 8) (size 9 to 14) (size 15 to 20)
#    0.000    2.636    0.000    5.455    2.545    0.000 
#    0.000    0.000    0.000    4.364    0.000   17.818 
#    0.000    0.000    0.000    0.000    0.000    0.000 
#
# Total GULP energy -545117.361012 kJ/mol
# GULP energy per Si atom -12389.030932 kJ/mol
# Density = 1.758449 g / cm^3
# Si number density = 17.624602 Si / 1000 Ang^3
#
#
#
# Elastic Constant Matrix: (Units=GPa)
#
#
# Indices 1 2 3 4 5 6 
#
# 1 66.2295 46.2580 51.7467 -0.0001 0.0000 0.0000
# 2 46.2580 67.3188 51.1123 -0.0003 0.0000 0.0000
# 3 51.7467 51.1123 88.1534 -0.0010 0.0000 0.0000
# 4 -0.0001 -0.0003 -0.0010 38.5357 0.0000 0.0000
# 5 0.0000 0.0000 0.0000 0.0000 32.2940 0.0000
# 6 0.0000 0.0000 0.0000 0.0000 0.0000 25.9423
#
#
#
# Elastic Compliance Matrix: (Units=1/GPa)
#
#
# Indices 1 2 3 4 5 6 
#
# 1 0.034671 -0.014955 -0.011681 0.000000 0.000000 0.000000
# 2 -0.014955 0.032988 -0.010348 0.000000 0.000000 0.000000
# 3 -0.011681 -0.010348 0.024200 0.000001 0.000000 0.000000
# 4 0.000000 0.000000 0.000001 0.025950 0.000000 0.000000
# 5 0.000000 0.000000 0.000000 0.000000 0.030965 0.000000
# 6 0.000000 0.000000 0.000000 0.000000 0.000000 0.038547
#
#
# Mechanical properties :
#
#
# Convention : Reuss Voigt Hill
#
# Bulk Modulus (GPa) = 55.89334 57.77064 56.83199
# Shear Modulus (GPa) = 18.70876 24.19339 21.45107
#
# Velocity S-wave (km/s) = 3.26162 3.70902 3.49249
# Velocity P-wave (km/s) = 6.77985 7.15486 6.96988
#
# Compressibility (1/GPa) = 0.01789122
#
# Stress axis : x y z
#
# Youngs Moduli (GPa) = 28.84231 30.31403 41.32153
#
# Poissons Ratio (x) = 0.45336 0.48267
# Poissons Ratio (y) = 0.43135 0.42759
# Poissons Ratio (z) = 0.33691 0.31368
#
# Static dielectric constant tensor:
#      x y z
#    x 2.990690 0.000000 0.000000 
#    y 0.000000 3.363050 0.000000 
#    z 0.000000 0.000000 3.421150 
# 
# 
# High freq. dielectric constant tensor:
#      x y z
#    x 1.628140 0.000000 0.000000 
#    y 0.000000 1.694390 0.000000 
#    z 0.000000 0.000000 1.700640 
# 
# From -- ./inp_files/32983.got.cif
#   From: 2010.06.25/outbox.cif.g09.slc.cpg/sg71_17_cif.got.tgz:32983.got - 2010.06.28 04:59:45.
