data_PCOD8292051
_publ_section_title
;
Structure prediction by ZEFSAII (Michael W. Deem and Ramdas Pophale) SiO2 
 PCOD8292051
Probable space group: I M M M
;
_chemical_formula_sum "Si O2"
_cell_formula_units_Z 56
_cell_length_a 25.063619
_cell_length_b 14.710687
_cell_length_c 8.274705
_cell_angle_alpha 90.000000
_cell_angle_beta 90.000000
_cell_angle_gamma 90.000000
_cell_volume 3050.909006
_symmetry_space_group_name_H-M "I M M M"
_symmetry_group_IT_number 71
_symmetry_cell_setting 'orthorhombic'
loop_
_space_group_symop_operation_xyz
x,y,z
-x,-y,z
x,-y,-z
-x,y,-z
-x,-y,-z
x,y,-z
-x,y,z
x,-y,z
1/2+x,1/2+y,1/2+z
1/2-x,1/2-y,1/2+z
1/2+x,1/2-y,1/2-z
1/2-x,1/2+y,1/2-z
1/2-x,1/2-y,1/2-z
1/2+x,1/2+y,1/2-z
1/2-x,1/2+y,1/2+z
1/2+x,1/2-y,1/2+z
loop_
_atom_site_type_symbol
_atom_site_label
_atom_site_fract_x
_atom_site_fract_y
_atom_site_fract_z
Si Si1 0.000000 0.397310 0.189610
Si Si2 0.696390 0.301249 0.193034
Si Si3 0.675971 0.000000 0.818946
Si Si4 0.886206 0.335507 0.189173
Si Si5 0.286135 0.500000 0.817626
O O1 0.051526 0.337580 0.240439
O O2 0.000000 0.500000 0.266544
O O3 0.000000 0.411440 0.000000
O O4 0.750000 0.250000 0.250000
O O5 0.642372 0.258567 0.265158
O O6 0.694527 0.405023 0.262208
O O7 0.696075 0.299479 0.000000
O O8 0.640691 0.088110 0.796432
O O9 0.722287 0.000000 0.687282
O O10 0.699960 0.000000 0.000000
O O11 0.879078 0.356475 0.000000
O O12 0.306151 0.500000 0.000000
#
# Coordination Sequence:
#
# PCOD8292051 Si02
#       5
#     8  16   8  16   8
#     4   9  18  34  56  79 106 147 185 216 268 336
#     4  11  22  36  55  81 110 145 184 224 272 326
#     4  12  22  31  51  82 114 145 182 223 267 326
#     4  11  21  36  56  79 111 147 184 225 273 326
#     4  10  22  38  55  74 109 152 184 217 268 328
#
# _framework density 18.355184999999999
#
# number of rings (size 3 to 8) (size 9 to 14) (size 15 to 20)
#    0.000    1.286    4.286    3.000    0.000    1.143 
#    0.000    3.571    0.000    0.857    0.000    6.000 
#    0.000    0.000    0.000    0.000    0.000    0.000 
#
# Total GULP energy -347020.589978 kJ/mol
# GULP energy per Si atom -12393.592499 kJ/mol
# Density = 1.831341 g / cm^3
# Si number density = 18.355185 Si / 1000 Ang^3
#
#
#
# Elastic Constant Matrix: (Units=GPa)
#
#
# Indices 1 2 3 4 5 6 
#
# 1 141.2047 76.7814 11.2502 0.0000 0.0000 0.0000
# 2 76.7814 162.0441 17.0714 0.0000 0.0000 0.0000
# 3 11.2502 17.0714 48.2002 0.0000 0.0000 0.0000
# 4 0.0000 0.0000 0.0000 -1.4799 0.0000 0.0000
# 5 0.0000 0.0000 0.0000 0.0000 22.9271 0.0000
# 6 0.0000 0.0000 0.0000 0.0000 0.0000 35.2890
#
#
#
# Elastic Compliance Matrix: (Units=1/GPa)
#
#
# Indices 1 2 3 4 5 6 
#
# 1 0.009559 -0.004461 -0.000651 0.000000 0.000000 0.000000
# 2 -0.004461 0.008492 -0.001966 0.000000 0.000000 0.000000
# 3 -0.000651 -0.001966 0.021595 0.000000 0.000000 0.000000
# 4 0.000000 0.000000 0.000000 -0.675738 0.000000 0.000000
# 5 0.000000 0.000000 0.000000 0.000000 0.043616 0.000000
# 6 0.000000 0.000000 0.000000 0.000000 0.000000 0.028337
#
#
# Mechanical properties :
#
#
# Convention : Reuss Voigt Hill
#
# Bulk Modulus (GPa) = 39.23198 62.40611 50.81905
# Shear Modulus (GPa) = -9.23390 27.77032 9.26821
#
# Velocity S-wave (km/s) = -2.24535 3.89387 2.24952
# Velocity P-wave (km/s) = 3.83380 7.36813 5.87313
#
# Compressibility (1/GPa) = 0.02548941
#
# Stress axis : x y z
#
# Youngs Moduli (GPa) = 104.60801 117.75698 46.30643
#
# Poissons Ratio (x) = 0.52531 0.03016
# Poissons Ratio (y) = 0.46665 0.09106
# Poissons Ratio (z) = 0.06813 0.23157
#
# Static dielectric constant tensor:
#      x y z
#    x 3.522300 0.000000 0.000000 
#    y 0.000000 3.614600 0.000000 
#    z 0.000000 0.000000 3.253250 
# 
# 
# High freq. dielectric constant tensor:
#      x y z
#    x 1.696440 0.000000 0.000000 
#    y 0.000000 1.709080 0.000000 
#    z 0.000000 0.000000 1.705600 
# 
# From -- ./inp_files/5117.got.cif
#   From: 2010.06.25/outbox.cif.g09.slc.cpg/sg71_3_cif.got.tgz:5117.got - 2010.06.28 04:59:45.
