data_PCOD8292284
_publ_section_title
;
Structure prediction by ZEFSAII (Michael W. Deem and Ramdas Pophale) SiO2 
 PCOD8292284
Probable space group: I M M M
;
_chemical_formula_sum "Si O2"
_cell_formula_units_Z 104
_cell_length_a 30.019106
_cell_length_b 22.503941
_cell_length_c 9.105363
_cell_angle_alpha 90.000000
_cell_angle_beta 90.000000
_cell_angle_gamma 90.000000
_cell_volume 6151.111497
_symmetry_space_group_name_H-M "I M M M"
_symmetry_group_IT_number 71
_symmetry_cell_setting 'orthorhombic'
loop_
_space_group_symop_operation_xyz
x,y,z
-x,-y,z
x,-y,-z
-x,y,-z
-x,-y,-z
x,y,-z
-x,y,z
x,-y,z
1/2+x,1/2+y,1/2+z
1/2-x,1/2-y,1/2+z
1/2+x,1/2-y,1/2-z
1/2-x,1/2+y,1/2-z
1/2-x,1/2-y,1/2-z
1/2+x,1/2+y,1/2-z
1/2-x,1/2+y,1/2+z
1/2+x,1/2-y,1/2+z
loop_
_atom_site_type_symbol
_atom_site_label
_atom_site_fract_x
_atom_site_fract_y
_atom_site_fract_z
Si Si1 0.448604 0.211823 0.168519
Si Si2 0.380944 0.567000 0.675121
Si Si3 0.285171 0.570303 0.339694
Si Si4 0.104881 0.386503 0.826077
Si Si5 0.551015 0.348869 0.831265
Si Si6 0.950050 0.500000 0.825581
Si Si7 0.688938 0.068216 0.824939
O O1 0.500000 0.199199 0.206081
O O2 0.418116 0.174224 0.277174
O O3 0.437056 0.280404 0.196763
O O4 0.438653 0.194654 0.000000
O O5 0.378894 0.569298 0.500000
O O6 0.392218 0.500000 0.727599
O O7 0.332026 0.587287 0.740013
O O8 0.418502 0.610868 0.730257
O O9 0.285239 0.600577 0.500000
O O10 0.284688 0.500000 0.360030
O O11 0.238145 0.588068 0.263052
O O12 0.075265 0.441579 0.768238
O O13 0.153461 0.389628 0.753624
O O14 0.110042 0.387272 0.000000
O O15 0.500000 0.361213 0.787897
O O16 0.559305 0.365681 0.000000
O O17 0.000000 0.500000 0.760002
O O18 0.951825 0.500000 0.000000
O O19 0.678987 0.000000 0.781329
O O20 0.686716 0.076193 0.000000
#
# Coordination Sequence:
#
# PCOD8292284 Si02
#       7
#    16  16  16  16  16   8  16
#     4   9  19  36  53  67  87 121 166 206 236 277
#     4   9  17  30  50  77 105 128 155 192 234 279
#     4   7  12  25  45  68  94 126 158 190 230 277
#     4  11  20  30  46  69  98 126 155 197 246 291
#     4   9  19  35  52  70  96 129 161 195 236 281
#     4   9  18  30  41  59  93 129 151 179 236 295
#     4   9  16  28  47  68  93 126 163 196 232 282
#
# _framework density 16.907513000000002
#
# number of rings (size 3 to 8) (size 9 to 14) (size 15 to 20)
#    0.000    3.000    0.769    3.692    0.000    2.462 
#    0.000    3.846    0.000    5.538    0.000    0.000 
#    0.000    0.000    0.000    0.000    0.000    0.000 
#
# Total GULP energy -644354.376335 kJ/mol
# GULP energy per Si atom -12391.430314 kJ/mol
# Density = 1.686903 g / cm^3
# Si number density = 16.907513 Si / 1000 Ang^3
#
#
#
# Elastic Constant Matrix: (Units=GPa)
#
#
# Indices 1 2 3 4 5 6 
#
# 1 134.8563 58.4882 38.4260 0.0000 0.0000 0.0000
# 2 58.4882 66.4974 27.5287 0.0000 0.0000 0.0000
# 3 38.4260 27.5287 39.0430 0.0000 0.0000 0.0000
# 4 0.0000 0.0000 0.0000 24.9629 0.0000 0.0000
# 5 0.0000 0.0000 0.0000 0.0000 19.3677 0.0000
# 6 0.0000 0.0000 0.0000 0.0000 0.0000 17.2388
#
#
#
# Elastic Compliance Matrix: (Units=1/GPa)
#
#
# Indices 1 2 3 4 5 6 
#
# 1 0.013140 -0.008761 -0.006755 0.000000 0.000000 0.000000
# 2 -0.008761 0.027078 -0.010470 0.000000 0.000000 0.000000
# 3 -0.006755 -0.010470 0.039643 0.000000 0.000000 0.000000
# 4 0.000000 0.000000 0.000000 0.040059 0.000000 0.000000
# 5 0.000000 0.000000 0.000000 0.000000 0.051632 0.000000
# 6 0.000000 0.000000 0.000000 0.000000 0.000000 0.058009
#
#
# Mechanical properties :
#
#
# Convention : Reuss Voigt Hill
#
# Bulk Modulus (GPa) = 35.85582 54.36470 45.11026
# Shear Modulus (GPa) = 17.19221 20.04415 18.61818
#
# Velocity S-wave (km/s) = 3.19225 3.44687 3.32200
# Velocity P-wave (km/s) = 5.90257 6.93291 6.43838
#
# Compressibility (1/GPa) = 0.02788947
#
# Stress axis : x y z
#
# Youngs Moduli (GPa) = 76.10590 36.93028 25.22491
#
# Poissons Ratio (x) = 0.32353 0.17039
# Poissons Ratio (y) = 0.66673 0.26411
# Poissons Ratio (z) = 0.51409 0.38667
#
# Static dielectric constant tensor:
#      x y z
#    x 3.509250 0.000000 0.000000 
#    y 0.000000 2.896330 0.000000 
#    z 0.000000 0.000000 2.837060 
# 
# 
# High freq. dielectric constant tensor:
#      x y z
#    x 1.668580 0.000000 0.000000 
#    y 0.000000 1.621750 0.000000 
#    z 0.000000 0.000000 1.624930 
# 
# From -- ./inp_files/11520.got.cif
#   From: 2010.06.25/outbox.cif.g09.slc.cpg/sg71_6_cif.got.tgz:11520.got - 2010.06.28 04:59:45.
