data_PCOD8292460
_publ_section_title
;
Structure prediction by ZEFSAII (Michael W. Deem and Ramdas Pophale) SiO2 
 PCOD8292460
Probable space group: I M M M
;
_chemical_formula_sum "Si O2"
_cell_formula_units_Z 96
_cell_length_a 15.033214
_cell_length_b 23.111473
_cell_length_c 13.987035
_cell_angle_alpha 90.000000
_cell_angle_beta 90.000000
_cell_angle_gamma 90.000000
_cell_volume 4859.651517
_symmetry_space_group_name_H-M "I M M M"
_symmetry_group_IT_number 71
_symmetry_cell_setting 'orthorhombic'
loop_
_space_group_symop_operation_xyz
x,y,z
-x,-y,z
x,-y,-z
-x,y,-z
-x,-y,-z
x,y,-z
-x,y,z
x,-y,z
1/2+x,1/2+y,1/2+z
1/2-x,1/2-y,1/2+z
1/2+x,1/2-y,1/2-z
1/2-x,1/2+y,1/2-z
1/2-x,1/2-y,1/2-z
1/2+x,1/2+y,1/2-z
1/2-x,1/2+y,1/2+z
1/2+x,1/2-y,1/2+z
loop_
_atom_site_type_symbol
_atom_site_label
_atom_site_fract_x
_atom_site_fract_y
_atom_site_fract_z
Si Si1 0.294090 0.227638 0.608597
Si Si2 0.857167 0.564666 0.107531
Si Si3 0.600283 0.567676 0.283390
Si Si4 0.903085 0.344754 0.248105
Si Si5 0.329590 0.626450 0.894291
Si Si6 0.751807 0.860872 0.890731
O O1 0.326173 0.212396 0.500000
O O2 0.365615 0.209498 0.688042
O O3 0.201615 0.192688 0.627898
O O4 0.282464 0.295244 0.620984
O O5 0.860093 0.500000 0.147041
O O6 0.918805 0.602813 0.174942
O O7 0.756605 0.586532 0.112968
O O8 0.893980 0.568229 0.000000
O O9 0.500000 0.574217 0.324776
O O10 0.623519 0.500000 0.268797
O O11 0.601204 0.602345 0.182842
O O12 0.671212 0.596053 0.355115
O O13 0.838694 0.367513 0.331532
O O14 0.000000 0.327848 0.290703
O O15 0.373041 0.622716 0.000000
O O16 0.731006 0.876517 0.000000
#
# Coordination Sequence:
#
# PCOD8292460 Si02
#       6
#    16  16  16  16  16  16
#     4   9  19  38  63  90 118 150 192 237 294 368
#     4   9  17  31  54  83 116 152 185 221 278 352
#     4  11  24  40  61  89 118 155 210 263 305 354
#     4  11  22  35  58  90 121 151 188 237 292 358
#     4   9  17  33  60  90 121 151 180 229 300 373
#     4  11  24  43  63  81 115 162 205 254 302 343
#
# _framework density 19.754504000000001
#
# number of rings (size 3 to 8) (size 9 to 14) (size 15 to 20)
#    0.000    2.000    3.333    2.500    0.000    4.667 
#    0.000    4.167    0.000    3.000    0.000    2.333 
#    0.000    0.000    0.000    0.000    0.000    0.000 
#
# Total GULP energy -594953.690141 kJ/mol
# GULP energy per Si atom -12394.868545 kJ/mol
# Density = 1.970954 g / cm^3
# Si number density = 19.754504 Si / 1000 Ang^3
#
#
#
# Elastic Constant Matrix: (Units=GPa)
#
#
# Indices 1 2 3 4 5 6 
#
# 1 108.0989 23.5607 50.7228 0.0000 0.0000 0.0000
# 2 23.5607 88.7065 27.8155 -0.0001 0.0000 0.0000
# 3 50.7228 27.8155 114.5823 -0.0003 0.0000 0.0000
# 4 0.0000 -0.0001 -0.0003 24.6679 0.0000 0.0000
# 5 0.0000 0.0000 0.0000 0.0000 -2.7207 0.0000
# 6 0.0000 0.0000 0.0000 0.0000 0.0000 13.8401
#
#
#
# Elastic Compliance Matrix: (Units=1/GPa)
#
#
# Indices 1 2 3 4 5 6 
#
# 1 0.011890 -0.001632 -0.004867 0.000000 0.000000 0.000000
# 2 -0.001632 0.012426 -0.002294 0.000000 0.000000 0.000000
# 3 -0.004867 -0.002294 0.011439 0.000000 0.000000 0.000000
# 4 0.000000 0.000000 0.000000 0.040539 0.000000 0.000000
# 5 0.000000 0.000000 0.000000 0.000000 -0.367551 0.000000
# 6 0.000000 0.000000 0.000000 0.000000 0.000000 0.072254
#
#
# Mechanical properties :
#
#
# Convention : Reuss Voigt Hill
#
# Bulk Modulus (GPa) = 55.04031 57.28729 56.16380
# Shear Modulus (GPa) = -25.59375 21.11003 -2.24186
#
# Velocity S-wave (km/s) = -3.60334 3.27252 -1.06645
# Velocity P-wave (km/s) = 3.25739 6.58344 5.19386
#
# Compressibility (1/GPa) = 0.01816850
#
# Stress axis : x y z
#
# Youngs Moduli (GPa) = 84.10149 80.47706 87.42057
#
# Poissons Ratio (x) = 0.13133 0.42552
# Poissons Ratio (y) = 0.13724 0.20055
# Poissons Ratio (z) = 0.40936 0.18462
#
# Static dielectric constant tensor:
#      x y z
#    x 3.277010 0.000000 0.000000 
#    y 0.000000 3.708270 0.000000 
#    z 0.000000 0.000000 3.791370 
# 
# 
# High freq. dielectric constant tensor:
#      x y z
#    x 1.744130 0.000000 0.000000 
#    y 0.000000 1.775490 0.000000 
#    z 0.000000 0.000000 1.768970 
# 
# From -- ./inp_files/34533.got.cif
#   From: 2010.06.25/outbox.cif.g09.slc.cpg/sg71_18_cif.got.tgz:34533.got - 2010.06.28 04:59:45.
