data_PCOD8292478
_publ_section_title
;
Structure prediction by ZEFSAII (Michael W. Deem and Ramdas Pophale) SiO2 
 PCOD8292478
Probable space group: I M M M
;
_chemical_formula_sum "Si O2"
_cell_formula_units_Z 88
_cell_length_a 29.212918
_cell_length_b 14.109257
_cell_length_c 11.740107
_cell_angle_alpha 90.000000
_cell_angle_beta 90.000000
_cell_angle_gamma 90.000000
_cell_volume 4838.950048
_symmetry_space_group_name_H-M "I M M M"
_symmetry_group_IT_number 71
_symmetry_cell_setting 'orthorhombic'
loop_
_space_group_symop_operation_xyz
x,y,z
-x,-y,z
x,-y,-z
-x,y,-z
-x,-y,-z
x,y,-z
-x,y,z
x,-y,z
1/2+x,1/2+y,1/2+z
1/2-x,1/2-y,1/2+z
1/2+x,1/2-y,1/2-z
1/2-x,1/2+y,1/2-z
1/2-x,1/2-y,1/2-z
1/2+x,1/2+y,1/2-z
1/2-x,1/2+y,1/2+z
1/2+x,1/2-y,1/2+z
loop_
_atom_site_type_symbol
_atom_site_label
_atom_site_fract_x
_atom_site_fract_y
_atom_site_fract_z
Si Si1 0.754187 0.109711 0.500000
Si Si2 0.054464 0.794521 0.631238
Si Si3 0.163818 0.500000 0.364990
Si Si4 0.291295 0.320600 0.769804
Si Si5 0.150541 0.613357 0.000000
Si Si6 0.768322 0.000000 0.134481
Si Si7 0.373677 0.818196 0.742307
Si Si8 0.049775 0.000000 0.634220
O O1 0.785120 0.137633 0.605559
O O2 0.702823 0.154333 0.500000
O O3 0.744846 0.000000 0.500000
O O4 0.067438 0.771841 0.500000
O O5 0.076919 0.717611 0.715163
O O6 0.073983 0.900034 0.666667
O O7 0.000000 0.790343 0.647422
O O8 0.161155 0.500000 0.500000
O O9 0.216051 0.500000 0.321036
O O10 0.139504 0.592312 0.317824
O O11 0.250000 0.250000 0.750000
O O12 0.292698 0.405394 0.678823
O O13 0.338743 0.266649 0.763345
O O14 0.124190 0.653131 0.110053
O O15 0.148995 0.500000 0.000000
O O16 0.771157 0.000000 0.000000
O O17 0.042504 0.000000 0.500000
O O18 0.000000 0.000000 0.693409
#
# Coordination Sequence:
#
# PCOD8292478 Si02
#       8
#     8  16   8  16   8   8  16   8
#     4  11  22  40  58  81 123 156 199 250 296 346
#     4   9  19  38  64  92 120 150 188 240 301 356
#     4  11  22  37  57  86 118 153 195 241 295 349
#     4  12  24  37  58  86 115 156 198 243 290 342
#     4  11  22  40  61  78 112 166 211 239 277 350
#     4  11  24  40  54  81 123 160 197 241 286 345
#     4  12  24  38  61  87 117 155 201 244 292 349
#     4   7  12  29  58  87 115 145 174 216 285 357
#
# _framework density 18.185763999999999
#
# number of rings (size 3 to 8) (size 9 to 14) (size 15 to 20)
#    0.000    1.364    5.455    1.636    5.091    0.727 
#    0.000    0.909    0.000    2.182    0.000    1.909 
#    0.000    0.000    0.000    0.000    0.000    0.000 
#
# Total GULP energy -545484.062692 kJ/mol
# GULP energy per Si atom -12397.365061 kJ/mol
# Density = 1.814437 g / cm^3
# Si number density = 18.185764 Si / 1000 Ang^3
#
#
#
# Elastic Constant Matrix: (Units=GPa)
#
#
# Indices 1 2 3 4 5 6 
#
# 1 65.0557 46.3275 37.0186 0.0000 0.0000 0.0000
# 2 46.3275 128.2234 48.6670 0.0000 0.0000 0.0000
# 3 37.0186 48.6670 109.8827 0.0000 0.0000 0.0000
# 4 0.0000 0.0000 0.0000 53.3763 0.0000 0.0000
# 5 0.0000 0.0000 0.0000 0.0000 26.4770 0.0000
# 6 0.0000 0.0000 0.0000 0.0000 0.0000 37.8551
#
#
#
# Elastic Compliance Matrix: (Units=1/GPa)
#
#
# Indices 1 2 3 4 5 6 
#
# 1 0.022632 -0.006351 -0.004812 0.000000 0.000000 0.000000
# 2 -0.006351 0.011157 -0.002802 0.000000 0.000000 0.000000
# 3 -0.004812 -0.002802 0.011963 0.000000 0.000000 0.000000
# 4 0.000000 0.000000 0.000000 0.018735 0.000000 0.000000
# 5 0.000000 0.000000 0.000000 0.000000 0.037769 0.000000
# 6 0.000000 0.000000 0.000000 0.000000 0.000000 0.026417
#
#
# Mechanical properties :
#
#
# Convention : Reuss Voigt Hill
#
# Bulk Modulus (GPa) = 56.10821 63.02089 59.56455
# Shear Modulus (GPa) = 30.76146 34.95161 32.85653
#
# Velocity S-wave (km/s) = 4.11726 4.38873 4.25516
# Velocity P-wave (km/s) = 7.31589 7.77242 7.54761
#
# Compressibility (1/GPa) = 0.01782270
#
# Stress axis : x y z
#
# Youngs Moduli (GPa) = 44.18535 89.63094 83.59371
#
# Poissons Ratio (x) = 0.56922 0.40224
# Poissons Ratio (y) = 0.28061 0.23422
# Poissons Ratio (z) = 0.21261 0.25114
#
# Static dielectric constant tensor:
#      x y z
#    x 3.264390 0.000000 0.000000 
#    y 0.000000 2.857020 0.000000 
#    z 0.000000 0.000000 3.336750 
# 
# 
# High freq. dielectric constant tensor:
#      x y z
#    x 1.674640 0.000000 0.000000 
#    y 0.000000 1.724030 0.000000 
#    z 0.000000 0.000000 1.699470 
# 
# From -- ./inp_files/28684.got.cif
#   From: 2010.06.25/outbox.cif.g09.slc.cpg/sg71_15_cif.got.tgz:28684.got - 2010.06.28 04:59:45.
