data_PCOD8292830
_publ_section_title
;
Structure prediction by ZEFSAII (Michael W. Deem and Ramdas Pophale) SiO2 
 PCOD8292830
Probable space group: I B A M
;
_chemical_formula_sum "Si O2"
_cell_formula_units_Z 68
_cell_length_a 18.509550
_cell_length_b 11.554306
_cell_length_c 17.591009
_cell_angle_alpha 90.000000
_cell_angle_beta 90.000000
_cell_angle_gamma 90.000000
_cell_volume 3762.101221
_symmetry_space_group_name_H-M "I B A M"
_symmetry_group_IT_number 72
_symmetry_cell_setting 'orthorhombic'
loop_
_space_group_symop_operation_xyz
x,y,z
-x,-y,z
x,-y,1/2-z
-x,y,1/2-z
-x,-y,-z
x,y,-z
-x,y,1/2+z
x,-y,1/2+z
1/2+x,1/2+y,1/2+z
1/2-x,1/2-y,1/2+z
1/2+x,1/2-y,-z
1/2-x,1/2+y,-z
1/2-x,1/2-y,1/2-z
1/2+x,1/2+y,1/2-z
1/2-x,1/2+y,z
1/2+x,1/2-y,z
loop_
_atom_site_type_symbol
_atom_site_label
_atom_site_fract_x
_atom_site_fract_y
_atom_site_fract_z
Si Si1 0.117640 0.878218 0.653516
Si Si2 0.182326 0.474724 0.500000
Si Si3 0.736808 0.500000 0.750000
Si Si4 0.188219 0.646759 0.625624
Si Si5 0.500000 0.500000 0.250000
Si Si6 0.854163 0.987896 0.000000
Si Si7 0.700457 0.276889 0.500000
O O1 0.189949 0.929183 0.690060
O O2 0.126190 0.739532 0.646220
O O3 0.105998 0.933855 0.571562
O O4 0.047718 0.911271 0.701589
O O5 0.154822 0.542910 0.574658
O O6 0.269002 0.461527 0.500000
O O7 0.155343 0.342675 0.500000
O O8 0.783975 0.406305 0.704559
O O9 0.250812 0.710139 0.576158
O O10 0.862583 0.126888 0.000000
#
# Coordination Sequence:
#
# PCOD8292830 Si02
#       7
#    16   8   8  16   4   8   8
#     4  11  20  37  52  79 113 143 188 225 268 323
#     4  10  17  30  49  87 113 136 168 213 295 348
#     4  11  18  29  50  89 114 137 170 222 298 341
#     4  10  18  29  52  79 116 144 169 223 285 336
#     4  10  28  38  52  78 108 156 200 226 250 316
#     4  10  17  31  55  76 106 140 172 230 271 325
#     4  10  16  30  50  87 118 137 165 220 289 354
#
# _framework density 18.075005999999998
#
# number of rings (size 3 to 8) (size 9 to 14) (size 15 to 20)
#    0.000    1.882    7.059    1.412    0.000    0.471 
#    0.000    0.000    0.000    0.706    0.000    1.647 
#    0.000    0.000    0.000    0.000    0.000    0.000 
#
# Total GULP energy -421514.641383 kJ/mol
# GULP energy per Si atom -12397.489452 kJ/mol
# Density = 1.803387 g / cm^3
# Si number density = 18.075006 Si / 1000 Ang^3
#
#
#
# Elastic Constant Matrix: (Units=GPa)
#
#
# Indices 1 2 3 4 5 6 
#
# 1 58.2963 46.0452 42.7801 0.0000 0.0000 0.0000
# 2 46.0452 172.4682 68.2504 0.0000 0.0000 0.0000
# 3 42.7801 68.2504 137.7526 0.0000 0.0000 0.0000
# 4 0.0000 0.0000 0.0000 8.7347 0.0000 0.0000
# 5 0.0000 0.0000 0.0000 0.0000 -9.5021 0.0000
# 6 0.0000 0.0000 0.0000 0.0000 0.0000 16.6197
#
#
#
# Elastic Compliance Matrix: (Units=1/GPa)
#
#
# Indices 1 2 3 4 5 6 
#
# 1 0.024657 -0.004419 -0.005468 0.000000 0.000000 0.000000
# 2 -0.004419 0.008004 -0.002593 0.000000 0.000000 0.000000
# 3 -0.005468 -0.002593 0.010242 0.000000 0.000000 0.000000
# 4 0.000000 0.000000 0.000000 0.114486 0.000000 0.000000
# 5 0.000000 0.000000 0.000000 0.000000 -0.105240 0.000000
# 6 0.000000 0.000000 0.000000 0.000000 0.000000 0.060169
#
#
# Mechanical properties :
#
#
# Convention : Reuss Voigt Hill
#
# Bulk Modulus (GPa) = 55.73295 75.85206 65.79250
# Shear Modulus (GPa) = 34.90170 17.26657 26.08413
#
# Velocity S-wave (km/s) = 4.39901 3.09410 3.80294
# Velocity P-wave (km/s) = 7.53013 7.40411 7.46739
#
# Compressibility (1/GPa) = 0.01794271
#
# Stress axis : x y z
#
# Youngs Moduli (GPa) = 40.55706 124.93415 97.63338
#
# Poissons Ratio (x) = 0.55208 0.53385
# Poissons Ratio (y) = 0.17922 0.25320
# Poissons Ratio (z) = 0.22176 0.32400
#
# Static dielectric constant tensor:
#      x y z
#    x 2.717190 0.000000 0.000000 
#    y 0.000000 3.734310 0.000000 
#    z 0.000000 0.000000 3.499150 
# 
# 
# High freq. dielectric constant tensor:
#      x y z
#    x 1.623970 0.000000 0.000000 
#    y 0.000000 1.717030 0.000000 
#    z 0.000000 0.000000 1.719600 
# 
# From -- ./inp_files/31294.got.cif
#   From: 2010.03.12/outbox.cif.g09.slc.cpg/sg72_16_cif.got.tgz:31294.got - 2010.04.16 14:54:00.
