data_PCOD8292991
_publ_section_title
;
Structure prediction by ZEFSAII (Michael W. Deem and Ramdas Pophale) SiO2 
 PCOD8292991
Probable space group: I B A M
;
_chemical_formula_sum "Si O2"
_cell_formula_units_Z 64
_cell_length_a 20.463125
_cell_length_b 27.976324
_cell_length_c 5.317715
_cell_angle_alpha 90.000000
_cell_angle_beta 90.000000
_cell_angle_gamma 90.000000
_cell_volume 3044.301516
_symmetry_space_group_name_H-M "I B A M"
_symmetry_group_IT_number 72
_symmetry_cell_setting 'orthorhombic'
loop_
_space_group_symop_operation_xyz
x,y,z
-x,-y,z
x,-y,1/2-z
-x,y,1/2-z
-x,-y,-z
x,y,-z
-x,y,1/2+z
x,-y,1/2+z
1/2+x,1/2+y,1/2+z
1/2-x,1/2-y,1/2+z
1/2+x,1/2-y,-z
1/2-x,1/2+y,-z
1/2-x,1/2-y,1/2-z
1/2+x,1/2+y,1/2-z
1/2-x,1/2+y,z
1/2+x,1/2-y,z
loop_
_atom_site_type_symbol
_atom_site_label
_atom_site_fract_x
_atom_site_fract_y
_atom_site_fract_z
Si Si1 0.093229 0.514992 0.000000
Si Si2 0.862353 0.973029 0.500000
Si Si3 0.833622 0.233000 0.500000
Si Si4 0.969078 0.903154 0.500000
Si Si5 0.312068 0.791322 0.500000
Si Si6 0.217371 0.444319 0.000000
Si Si7 0.824373 0.398836 0.000000
Si Si8 0.024169 0.203197 0.000000
O O1 0.053051 0.500000 0.250000
O O2 0.161144 0.484543 0.000000
O O3 0.107801 0.571315 0.000000
O O4 0.892818 0.919008 0.500000
O O5 0.784575 0.972254 0.500000
O O6 0.886917 0.000000 0.750000
O O7 0.766903 0.202613 0.500000
O O8 0.836648 0.264899 0.750412
O O9 0.896848 0.197883 0.500000
O O10 0.000000 0.926147 0.750000
O O11 0.982746 0.846331 0.500000
O O12 0.343600 0.843542 0.500000
O O13 0.215385 0.411029 0.752895
O O14 0.000000 0.231398 0.250000
#
# Coordination Sequence:
#
# PCOD8292991 Si02
#       8
#     8   8   8   8   8   8   8   8
#     4   8  14  25  39  59  91 125 161 196 228 279
#     4  12  23  35  52  70  98 139 183 237 288 320
#     4  10  21  38  55  77 109 134 172 225 282 355
#     4  10  23  39  52  71  93 122 174 230 283 330
#     4  10  21  35  55  81 106 139 170 218 290 338
#     4  10  19  31  47  72 102 137 177 213 258 313
#     4  10  18  29  48  71 100 131 172 210 250 312
#     4  10  21  38  60  81 103 137 183 233 285 341
#
# _framework density 21.022883
#
# number of rings (size 3 to 8) (size 9 to 14) (size 15 to 20)
#    0.000    2.000    0.000    5.250    0.000    5.500 
#    0.000    0.000    0.000    0.000    0.000    0.000 
#    0.000    0.000    0.000    0.000    0.000  393.750 
#
# Total GULP energy -396480.001431 kJ/mol
# GULP energy per Si atom -12390.000045 kJ/mol
# Density = 2.097503 g / cm^3
# Si number density = 21.022883 Si / 1000 Ang^3
#
#
#
# Elastic Constant Matrix: (Units=GPa)
#
#
# Indices 1 2 3 4 5 6 
#
# 1 81.3006 16.9752 11.9745 0.0000 0.0000 0.0000
# 2 16.9752 95.4194 28.5039 0.0000 0.0000 0.0000
# 3 11.9745 28.5039 220.2888 0.0000 0.0000 0.0000
# 4 0.0000 0.0000 0.0000 -0.6028 0.0000 0.0000
# 5 0.0000 0.0000 0.0000 0.0000 12.5691 0.0000
# 6 0.0000 0.0000 0.0000 0.0000 0.0000 14.6334
#
#
#
# Elastic Compliance Matrix: (Units=1/GPa)
#
#
# Indices 1 2 3 4 5 6 
#
# 1 0.012811 -0.002154 -0.000418 0.000000 0.000000 0.000000
# 2 -0.002154 0.011264 -0.001340 0.000000 0.000000 0.000000
# 3 -0.000418 -0.001340 0.004736 0.000000 0.000000 0.000000
# 4 0.000000 0.000000 0.000000 -1.658924 0.000000 0.000000
# 5 0.000000 0.000000 0.000000 0.000000 0.079560 0.000000
# 6 0.000000 0.000000 0.000000 0.000000 0.000000 0.068337
#
#
# Mechanical properties :
#
#
# Convention : Reuss Voigt Hill
#
# Bulk Modulus (GPa) = 47.65090 56.87955 52.26522
# Shear Modulus (GPa) = -3.40740 27.95694 12.27477
#
# Velocity S-wave (km/s) = -1.27449 3.65064 2.41898
# Velocity P-wave (km/s) = 4.53317 6.69958 5.71988
#
# Compressibility (1/GPa) = 0.02098596
#
# Stress axis : x y z
#
# Youngs Moduli (GPa) = 78.05563 88.78075 211.16524
#
# Poissons Ratio (x) = 0.19127 0.08819
# Poissons Ratio (y) = 0.16816 0.28303
# Poissons Ratio (z) = 0.03260 0.11900
#
# Static dielectric constant tensor:
#      x y z
#    x 3.422560 0.000000 0.000000 
#    y 0.000000 3.383360 0.000000 
#    z 0.000000 0.000000 3.949630 
# 
# 
# High freq. dielectric constant tensor:
#      x y z
#    x 1.797080 0.000000 0.000000 
#    y 0.000000 1.786120 0.000000 
#    z 0.000000 0.000000 1.872260 
# 
# From -- ./inp_files/694.got.cif
#   From: 2010.03.12/outbox.cif.g09.slc.cpg/sg72_1_cif.got.tgz:694.got - 2010.04.16 14:54:00.
