data_PCOD8292321
_publ_section_title
;
Structure prediction by ZEFSAII (Michael W. Deem and Ramdas Pophale) SiO2 
 PCOD8292321
Probable space group: I M M M
;
_chemical_formula_sum "Si O2"
_cell_formula_units_Z 80
_cell_length_a 11.840736
_cell_length_b 18.968157
_cell_length_c 19.291152
_cell_angle_alpha 90.000000
_cell_angle_beta 90.000000
_cell_angle_gamma 90.000000
_cell_volume 4332.733698
_symmetry_space_group_name_H-M "I M M M"
_symmetry_group_IT_number 71
_symmetry_cell_setting 'orthorhombic'
loop_
_space_group_symop_operation_xyz
x,y,z
-x,-y,z
x,-y,-z
-x,y,-z
-x,-y,-z
x,y,-z
-x,y,z
x,-y,z
1/2+x,1/2+y,1/2+z
1/2-x,1/2-y,1/2+z
1/2+x,1/2-y,1/2-z
1/2-x,1/2+y,1/2-z
1/2-x,1/2-y,1/2-z
1/2+x,1/2+y,1/2-z
1/2-x,1/2+y,1/2+z
1/2+x,1/2-y,1/2+z
loop_
_atom_site_type_symbol
_atom_site_label
_atom_site_fract_x
_atom_site_fract_y
_atom_site_fract_z
Si Si1 0.500000 0.348680 0.923290
Si Si2 0.742781 0.361449 0.078147
Si Si3 0.683170 0.847391 0.189396
Si Si4 0.627026 0.759489 0.678720
Si Si5 0.129128 0.500000 0.731771
Si Si6 0.500000 0.817560 0.921446
Si Si7 0.127433 0.500000 0.104606
O O1 0.382379 0.373378 0.887002
O O2 0.500000 0.265381 0.924598
O O3 0.500000 0.381990 0.000000
O O4 0.811322 0.304661 0.120762
O O5 0.810198 0.433133 0.074128
O O6 0.726133 0.331783 0.000000
O O7 0.620811 0.803346 0.249798
O O8 0.808885 0.815261 0.184034
O O9 0.694067 0.930132 0.206807
O O10 0.612801 0.842132 0.118419
O O11 0.500000 0.743127 0.654874
O O12 0.129782 0.500000 0.813625
O O13 0.000000 0.500000 0.703942
O O14 0.500000 0.849000 0.000000
O O15 0.000000 0.500000 0.076624
#
# Coordination Sequence:
#
# PCOD8292321 Si02
#       7
#     8  16  16  16   8   8   8
#     4   9  20  37  57  85 121 152 191 251 298 330
#     4  11  22  37  59  86 119 160 202 242 289 348
#     4  11  22  38  60  86 117 152 196 241 295 353
#     4  11  22  37  59  86 118 159 198 236 287 349
#     4  11  20  37  60  84 115 152 187 243 304 344
#     4  11  20  37  63  89 114 143 189 252 302 342
#     4  11  23  37  53  82 122 159 200 240 289 349
#
# _framework density 18.464092000000001
#
# number of rings (size 3 to 8) (size 9 to 14) (size 15 to 20)
#    0.000    1.200    6.000    0.900    0.000    2.400 
#    0.000    3.000    2.200    0.000    0.000    0.000 
#    0.000    3.200    0.000    0.000    0.000    0.000 
#
# Total GULP energy -495880.472616 kJ/mol
# GULP energy per Si atom -12397.011815 kJ/mol
# Density = 1.842207 g / cm^3
# Si number density = 18.464092 Si / 1000 Ang^3
#
#
#
# Elastic Constant Matrix: (Units=GPa)
#
#
# Indices 1 2 3 4 5 6 
#
# 1 181.1067 61.3760 41.8513 0.0000 0.0000 0.0000
# 2 61.3760 116.7880 26.1504 0.0000 0.0000 0.0000
# 3 41.8513 26.1504 91.4553 0.0000 0.0000 0.0000
# 4 0.0000 0.0000 0.0000 24.9732 0.0000 0.0000
# 5 0.0000 0.0000 0.0000 0.0000 24.9215 0.0000
# 6 0.0000 0.0000 0.0000 0.0000 0.0000 46.0197
#
#
#
# Elastic Compliance Matrix: (Units=1/GPa)
#
#
# Indices 1 2 3 4 5 6 
#
# 1 0.007162 -0.003237 -0.002352 0.000000 0.000000 0.000000
# 2 -0.003237 0.010612 -0.001553 0.000000 0.000000 0.000000
# 3 -0.002352 -0.001553 0.012455 0.000000 0.000000 0.000000
# 4 0.000000 0.000000 0.000000 0.040043 0.000000 0.000000
# 5 0.000000 0.000000 0.000000 0.000000 0.040126 0.000000
# 6 0.000000 0.000000 0.000000 0.000000 0.000000 0.021730
#
#
# Mechanical properties :
#
#
# Convention : Reuss Voigt Hill
#
# Bulk Modulus (GPa) = 62.71819 72.01172 67.36495
# Shear Modulus (GPa) = 32.95417 36.51436 34.73426
#
# Velocity S-wave (km/s) = 4.22924 4.45183 4.34196
# Velocity P-wave (km/s) = 7.60855 8.09387 7.85496
#
# Compressibility (1/GPa) = 0.01594434
#
# Stress axis : x y z
#
# Youngs Moduli (GPa) = 139.62160 94.23686 80.29207
#
# Poissons Ratio (x) = 0.30508 0.18884
# Poissons Ratio (y) = 0.45201 0.12467
# Poissons Ratio (z) = 0.32837 0.14633
#
# Static dielectric constant tensor:
#      x y z
#    x 3.647920 0.000000 0.000000 
#    y 0.000000 3.238230 0.000000 
#    z 0.000000 0.000000 3.497460 
# 
# 
# High freq. dielectric constant tensor:
#      x y z
#    x 1.724600 0.000000 0.000000 
#    y 0.000000 1.700210 0.000000 
#    z 0.000000 0.000000 1.708130 
# 
# From -- ./inp_files/25603.got.cif
#   From: 2010.06.25/outbox.cif.g09.slc.cpg/sg71_13_cif.got.tgz:25603.got - 2010.06.28 04:59:45.
