data_PCOD8292367
_publ_section_title
;
Structure prediction by ZEFSAII (Michael W. Deem and Ramdas Pophale) SiO2 
 PCOD8292367
Probable space group: I M M M
;
_chemical_formula_sum "Si O2"
_cell_formula_units_Z 96
_cell_length_a 16.497871
_cell_length_b 13.305880
_cell_length_c 24.870527
_cell_angle_alpha 90.000000
_cell_angle_beta 90.000000
_cell_angle_gamma 90.000000
_cell_volume 5459.545551
_symmetry_space_group_name_H-M "I M M M"
_symmetry_group_IT_number 71
_symmetry_cell_setting 'orthorhombic'
loop_
_space_group_symop_operation_xyz
x,y,z
-x,-y,z
x,-y,-z
-x,y,-z
-x,-y,-z
x,y,-z
-x,y,z
x,-y,z
1/2+x,1/2+y,1/2+z
1/2-x,1/2-y,1/2+z
1/2+x,1/2-y,1/2-z
1/2-x,1/2+y,1/2-z
1/2-x,1/2-y,1/2-z
1/2+x,1/2+y,1/2-z
1/2-x,1/2+y,1/2+z
1/2+x,1/2-y,1/2+z
loop_
_atom_site_type_symbol
_atom_site_label
_atom_site_fract_x
_atom_site_fract_y
_atom_site_fract_z
Si Si1 0.828609 0.197012 0.606425
Si Si2 0.595795 0.386707 0.000000
Si Si3 0.093813 0.111884 0.710033
Si Si4 0.500000 0.119297 0.560516
Si Si5 0.592995 0.808780 0.267714
Si Si6 0.841999 0.618856 0.123565
Si Si7 0.093151 0.386563 0.348702
O O1 0.873879 0.170284 0.552212
O O2 0.857591 0.126127 0.655026
O O3 0.733163 0.179257 0.598600
O O4 0.847237 0.313501 0.618846
O O5 0.630108 0.500000 0.000000
O O6 0.500000 0.386416 0.000000
O O7 0.118773 0.193110 0.755247
O O8 0.000000 0.128747 0.695245
O O9 0.110508 0.000000 0.732656
O O10 0.500000 0.162481 0.500000
O O11 0.420295 0.157879 0.591230
O O12 0.500000 0.000000 0.560041
O O13 0.500000 0.815866 0.286966
O O14 0.650004 0.852962 0.313783
O O15 0.607173 0.875448 0.214933
O O16 0.828930 0.500000 0.117155
O O17 0.113601 0.500000 0.365926
O O18 0.000000 0.358899 0.362350
#
# Coordination Sequence:
#
# PCOD8292367 Si02
#       7
#    16   8  16   8  16  16  16
#     4  11  22  34  50  78 107 135 174 219 262 311
#     4  11  22  36  55  76 104 140 174 206 251 315
#     4   9  17  31  50  73 107 143 171 207 261 318
#     4   9  20  36  54  74 101 141 179 214 266 317
#     4   9  17  31  51  75 102 138 182 216 253 315
#     4  11  21  33  52  77 107 138 174 220 266 315
#     4   9  18  34  56  78 106 142 177 211 256 311
#
# _framework density 17.583880000000001
#
# number of rings (size 3 to 8) (size 9 to 14) (size 15 to 20)
#    0.000    2.167    0.833    4.500    1.167    4.667 
#    0.000    2.917    0.000    1.500    0.000    0.000 
#    0.000    2.667    0.000    0.000    0.000    0.000 
#
# Total GULP energy -595263.833397 kJ/mol
# GULP energy per Si atom -12401.329862 kJ/mol
# Density = 1.754386 g / cm^3
# Si number density = 17.583880 Si / 1000 Ang^3
#
#
#
# Elastic Constant Matrix: (Units=GPa)
#
#
# Indices 1 2 3 4 5 6 
#
# 1 94.4063 42.7158 37.4394 0.0000 0.0000 0.0000
# 2 42.7158 113.6879 31.9058 0.0000 0.0000 0.0000
# 3 37.4394 31.9058 83.0744 0.0000 0.0000 0.0000
# 4 0.0000 0.0000 0.0000 15.2986 0.0000 0.0000
# 5 0.0000 0.0000 0.0000 0.0000 15.1846 0.0000
# 6 0.0000 0.0000 0.0000 0.0000 0.0000 25.3594
#
#
#
# Elastic Compliance Matrix: (Units=1/GPa)
#
#
# Indices 1 2 3 4 5 6 
#
# 1 0.014364 -0.004013 -0.004932 0.000000 0.000000 0.000000
# 2 -0.004013 0.010980 -0.002408 0.000000 0.000000 0.000000
# 3 -0.004932 -0.002408 0.015185 0.000000 0.000000 0.000000
# 4 0.000000 0.000000 0.000000 0.065366 0.000000 0.000000
# 5 0.000000 0.000000 0.000000 0.000000 0.065856 0.000000
# 6 0.000000 0.000000 0.000000 0.000000 0.000000 0.039433
#
#
# Mechanical properties :
#
#
# Convention : Reuss Voigt Hill
#
# Bulk Modulus (GPa) = 56.11068 57.25454 56.68261
# Shear Modulus (GPa) = 20.84793 23.10902 21.97847
#
# Velocity S-wave (km/s) = 3.44703 3.62914 3.53926
# Velocity P-wave (km/s) = 6.91536 7.08466 7.00052
#
# Compressibility (1/GPa) = 0.01782192
#
# Stress axis : x y z
#
# Youngs Moduli (GPa) = 69.61722 91.07766 65.85320
#
# Poissons Ratio (x) = 0.36548 0.32482
# Poissons Ratio (y) = 0.27936 0.15860
# Poissons Ratio (z) = 0.34338 0.21935
#
# Static dielectric constant tensor:
#      x y z
#    x 3.245680 0.000000 0.000000 
#    y 0.000000 3.330240 0.000000 
#    z 0.000000 0.000000 2.585580 
# 
# 
# High freq. dielectric constant tensor:
#      x y z
#    x 1.677290 0.000000 0.000000 
#    y 0.000000 1.669800 0.000000 
#    z 0.000000 0.000000 1.663190 
# 
# From -- ./inp_files/65470.got.cif
#   From: 2010.06.25/outbox.cif.g09.slc.cpg/sg71_33_cif.got.tgz:65470.got - 2010.06.28 04:59:45.
