data_PCOD8292365
_publ_section_title
;
Structure prediction by ZEFSAII (Michael W. Deem and Ramdas Pophale) SiO2 
 PCOD8292365
Probable space group: I M M M
;
_chemical_formula_sum "Si O2"
_cell_formula_units_Z 72
_cell_length_a 14.798599
_cell_length_b 9.239186
_cell_length_c 28.767938
_cell_angle_alpha 90.000000
_cell_angle_beta 90.000000
_cell_angle_gamma 90.000000
_cell_volume 3933.354109
_symmetry_space_group_name_H-M "I M M M"
_symmetry_group_IT_number 71
_symmetry_cell_setting 'orthorhombic'
loop_
_space_group_symop_operation_xyz
x,y,z
-x,-y,z
x,-y,-z
-x,y,-z
-x,-y,-z
x,y,-z
-x,y,z
x,-y,z
1/2+x,1/2+y,1/2+z
1/2-x,1/2-y,1/2+z
1/2+x,1/2-y,1/2-z
1/2-x,1/2+y,1/2-z
1/2-x,1/2-y,1/2-z
1/2+x,1/2+y,1/2-z
1/2-x,1/2+y,1/2+z
1/2+x,1/2-y,1/2+z
loop_
_atom_site_type_symbol
_atom_site_label
_atom_site_fract_x
_atom_site_fract_y
_atom_site_fract_z
Si Si1 0.500000 0.330037 0.704941
Si Si2 0.357469 0.328935 0.630292
Si Si3 0.000000 0.171772 0.946341
Si Si4 0.671244 0.669592 0.132410
Si Si5 0.000000 0.827492 0.691593
Si Si6 0.106325 0.658646 0.448755
O O1 0.500000 0.500000 0.711752
O O2 0.413130 0.282570 0.675763
O O3 0.500000 0.260457 0.756448
O O4 0.342138 0.500000 0.627676
O O5 0.410464 0.278451 0.582941
O O6 0.264376 0.250347 0.640806
O O7 0.000000 0.000000 0.948194
O O8 0.000000 0.233116 0.000000
O O9 0.686348 0.500000 0.138103
O O10 0.591320 0.727712 0.166187
O O11 0.643379 0.707503 0.080173
O O12 0.000000 0.000000 0.690531
O O13 0.148210 0.674373 0.500000
O O14 0.134900 0.500000 0.428383
O O15 0.000000 0.668962 0.451286
#
# Coordination Sequence:
#
# PCOD8292365 Si02
#       6
#     8  16   8  16   8  16
#     4   8  16  35  57  73  96 133 179 224 266 311
#     4   9  18  33  55  79 100 130 174 220 262 307
#     4   8  15  31  55  79 101 128 165 210 259 307
#     4  11  21  33  50  76 109 142 172 207 260 320
#     4   9  19  34  51  72 102 141 177 212 259 316
#     4   9  18  33  52  72  97 132 173 214 250 288
#
# _framework density 18.304986
#
# number of rings (size 3 to 8) (size 9 to 14) (size 15 to 20)
#    0.000    2.778    1.111    2.667    0.000    2.222 
#    0.000    5.556    0.000    4.667    0.000    0.000 
#    0.000    0.000    0.000    0.000    0.000    0.000 
#
# Total GULP energy -446009.987416 kJ/mol
# GULP energy per Si atom -12389.166317 kJ/mol
# Density = 1.826332 g / cm^3
# Si number density = 18.304986 Si / 1000 Ang^3
#
#
#
# Elastic Constant Matrix: (Units=GPa)
#
#
# Indices 1 2 3 4 5 6 
#
# 1 147.6569 40.4785 83.9629 0.0000 0.0000 0.0000
# 2 40.4785 40.7667 36.4429 0.0000 0.0000 0.0000
# 3 83.9629 36.4429 137.3873 0.0000 0.0000 0.0000
# 4 0.0000 0.0000 0.0000 11.6704 0.0000 0.0000
# 5 0.0000 0.0000 0.0000 0.0000 9.5716 0.0000
# 6 0.0000 0.0000 0.0000 0.0000 0.0000 30.1728
#
#
#
# Elastic Compliance Matrix: (Units=1/GPa)
#
#
# Indices 1 2 3 4 5 6 
#
# 1 0.011671 -0.006832 -0.005320 0.000000 0.000000 0.000000
# 2 -0.006832 0.036154 -0.005415 0.000000 0.000000 0.000000
# 3 -0.005320 -0.005415 0.011966 0.000000 0.000000 0.000000
# 4 0.000000 0.000000 0.000000 0.085687 0.000000 0.000000
# 5 0.000000 0.000000 0.000000 0.000000 0.104475 0.000000
# 6 0.000000 0.000000 0.000000 0.000000 0.000000 0.033142
#
#
# Mechanical properties :
#
#
# Convention : Reuss Voigt Hill
#
# Bulk Modulus (GPa) = 40.55632 71.95328 56.25480
# Shear Modulus (GPa) = 15.31634 21.27807 18.29721
#
# Velocity S-wave (km/s) = 2.89577 3.41313 3.16504
# Velocity P-wave (km/s) = 5.77794 7.41120 6.64494
#
# Compressibility (1/GPa) = 0.02465707
#
# Stress axis : x y z
#
# Youngs Moduli (GPa) = 85.68498 27.65925 83.56816
#
# Poissons Ratio (x) = 0.18898 0.44459
# Poissons Ratio (y) = 0.58543 0.45249
# Poissons Ratio (z) = 0.45585 0.14976
#
# Static dielectric constant tensor:
#      x y z
#    x 3.502150 0.000000 0.000000 
#    y 0.000000 3.058990 0.000000 
#    z 0.000000 0.000000 4.109320 
# 
# 
# High freq. dielectric constant tensor:
#      x y z
#    x 1.713620 0.000000 0.000000 
#    y 0.000000 1.669740 0.000000 
#    z 0.000000 0.000000 1.714080 
# 
# From -- ./inp_files/16442.got.cif
#   From: 2010.06.25/outbox.cif.g09.slc.cpg/sg71_9_cif.got.tgz:16442.got - 2010.06.28 04:59:45.
