data_PCOD8292649
_publ_section_title
;
Structure prediction by ZEFSAII (Michael W. Deem and Ramdas Pophale) SiO2 
 PCOD8292649
Probable space group: I M M M
;
_chemical_formula_sum "Si O2"
_cell_formula_units_Z 104
_cell_length_a 25.260633
_cell_length_b 14.579748
_cell_length_c 18.026860
_cell_angle_alpha 90.000000
_cell_angle_beta 90.000000
_cell_angle_gamma 90.000000
_cell_volume 6639.178310
_symmetry_space_group_name_H-M "I M M M"
_symmetry_group_IT_number 71
_symmetry_cell_setting 'orthorhombic'
loop_
_space_group_symop_operation_xyz
x,y,z
-x,-y,z
x,-y,-z
-x,y,-z
-x,-y,-z
x,y,-z
-x,y,z
x,-y,z
1/2+x,1/2+y,1/2+z
1/2-x,1/2-y,1/2+z
1/2+x,1/2-y,1/2-z
1/2-x,1/2+y,1/2-z
1/2-x,1/2-y,1/2-z
1/2+x,1/2+y,1/2-z
1/2-x,1/2+y,1/2+z
1/2+x,1/2-y,1/2+z
loop_
_atom_site_type_symbol
_atom_site_label
_atom_site_fract_x
_atom_site_fract_y
_atom_site_fract_z
Si Si1 0.237392 0.393360 0.413009
Si Si2 0.557735 0.893497 0.273888
Si Si3 0.660448 0.292204 0.585752
Si Si4 0.059613 0.609334 0.500000
Si Si5 0.378985 0.898113 0.416341
Si Si6 0.058519 0.104340 0.912007
Si Si7 0.125226 0.390796 0.360425
O O1 0.228218 0.374636 0.500000
O O2 0.248184 0.500000 0.398274
O O3 0.287349 0.337880 0.379064
O O4 0.185608 0.356786 0.369527
O O5 0.500000 0.847625 0.262074
O O6 0.573551 0.879902 0.359453
O O7 0.601078 0.851797 0.216879
O O8 0.553272 0.000000 0.254521
O O9 0.660406 0.320781 0.500000
O O10 0.664387 0.181769 0.596220
O O11 0.605413 0.331107 0.621129
O O12 0.059549 0.500000 0.500000
O O13 0.089295 0.647338 0.572662
O O14 0.000000 0.647827 0.500000
O O15 0.402189 0.890605 0.500000
O O16 0.353844 0.000000 0.403333
O O17 0.000000 0.133948 0.881660
O O18 0.070670 0.000000 0.887964
O O19 0.057437 0.112429 0.000000
O O20 0.125901 0.500000 0.363246
#
# Coordination Sequence:
#
# PCOD8292649 Si02
#       7
#    16  16  16   8  16  16  16
#     4   9  15  24  39  60  86 111 133 157 188 232
#     4   9  17  28  41  56  76 104 135 167 203 239
#     4   9  16  25  39  57  75 101 135 167 204 243
#     4   9  14  20  34  56  82 110 136 158 182 225
#     4   9  18  31  43  55  73  99 137 182 218 244
#     4   8  13  21  33  51  75  99 124 159 201 242
#     4   9  15  24  37  57  83 108 133 160 190 229
#
# _framework density 15.664588999999999
#
# number of rings (size 3 to 8) (size 9 to 14) (size 15 to 20)
#    0.000    3.154    0.769    1.385    0.000    4.615 
#    0.000    3.846    0.000    0.000    0.000    0.000 
#    0.000    0.000    0.000    0.308    0.000    3.846 
#
# Total GULP energy -644233.905106 kJ/mol
# GULP energy per Si atom -12389.113560 kJ/mol
# Density = 1.562894 g / cm^3
# Si number density = 15.664589 Si / 1000 Ang^3
#
#
#
# Elastic Constant Matrix: (Units=GPa)
#
#
# Indices 1 2 3 4 5 6 
#
# 1 150.9947 49.9308 43.7145 0.0000 0.0000 0.0000
# 2 49.9308 58.5659 19.5158 0.0000 0.0000 0.0000
# 3 43.7145 19.5158 62.3902 0.0000 0.0000 0.0000
# 4 0.0000 0.0000 0.0000 4.9582 0.0000 0.0000
# 5 0.0000 0.0000 0.0000 0.0000 14.0206 0.0000
# 6 0.0000 0.0000 0.0000 0.0000 0.0000 8.5378
#
#
#
# Elastic Compliance Matrix: (Units=1/GPa)
#
#
# Indices 1 2 3 4 5 6 
#
# 1 0.010492 -0.007251 -0.005083 0.000000 0.000000 0.000000
# 2 -0.007251 0.024073 -0.002449 0.000000 0.000000 0.000000
# 3 -0.005083 -0.002449 0.020356 0.000000 0.000000 0.000000
# 4 0.000000 0.000000 0.000000 0.201686 0.000000 0.000000
# 5 0.000000 0.000000 0.000000 0.000000 0.071324 0.000000
# 6 0.000000 0.000000 0.000000 0.000000 0.000000 0.117126
#
#
# Mechanical properties :
#
#
# Convention : Reuss Voigt Hill
#
# Bulk Modulus (GPa) = 39.44246 55.36367 47.40307
# Shear Modulus (GPa) = 10.35033 16.08929 13.21981
#
# Velocity S-wave (km/s) = 2.57329 3.20834 2.90820
# Velocity P-wave (km/s) = 5.83636 7.01031 6.45010
#
# Compressibility (1/GPa) = 0.02535339
#
# Stress axis : x y z
#
# Youngs Moduli (GPa) = 95.30786 41.53996 49.12546
#
# Poissons Ratio (x) = 0.30122 0.24972
# Poissons Ratio (y) = 0.69112 0.12033
# Poissons Ratio (z) = 0.48448 0.10175
#
# Static dielectric constant tensor:
#      x y z
#    x 3.255510 0.000000 0.000000 
#    y 0.000000 2.731510 0.000000 
#    z 0.000000 0.000000 2.780670 
# 
# 
# High freq. dielectric constant tensor:
#      x y z
#    x 1.602600 0.000000 0.000000 
#    y 0.000000 1.557710 0.000000 
#    z 0.000000 0.000000 1.565690 
# 
# From -- ./inp_files/48250.got.cif
#   From: 2010.06.25/outbox.cif.g09.slc.cpg/sg71_25_cif.got.tgz:48250.got - 2010.06.28 04:59:45.
