data_PCOD8292409
_publ_section_title
;
Structure prediction by ZEFSAII (Michael W. Deem and Ramdas Pophale) SiO2 
 PCOD8292409
Probable space group: I M M M
;
_chemical_formula_sum "Si O2"
_cell_formula_units_Z 96
_cell_length_a 30.280367
_cell_length_b 13.298688
_cell_length_c 12.638550
_cell_angle_alpha 90.000000
_cell_angle_beta 90.000000
_cell_angle_gamma 90.000000
_cell_volume 5089.406998
_symmetry_space_group_name_H-M "I M M M"
_symmetry_group_IT_number 71
_symmetry_cell_setting 'orthorhombic'
loop_
_space_group_symop_operation_xyz
x,y,z
-x,-y,z
x,-y,-z
-x,y,-z
-x,-y,-z
x,y,-z
-x,y,z
x,-y,z
1/2+x,1/2+y,1/2+z
1/2-x,1/2-y,1/2+z
1/2+x,1/2-y,1/2-z
1/2-x,1/2+y,1/2-z
1/2-x,1/2-y,1/2-z
1/2+x,1/2+y,1/2-z
1/2-x,1/2+y,1/2+z
1/2+x,1/2-y,1/2+z
loop_
_atom_site_type_symbol
_atom_site_label
_atom_site_fract_x
_atom_site_fract_y
_atom_site_fract_z
Si Si1 0.450978 0.251607 0.311700
Si Si2 0.683990 0.382106 0.500000
Si Si3 0.438603 0.389370 0.883290
Si Si4 0.664777 0.389712 0.884611
Si Si5 0.581412 0.381730 0.500000
Si Si6 0.629448 0.117207 0.625086
Si Si7 0.202043 0.236331 0.798126
O O1 0.500000 0.205672 0.334329
O O2 0.453070 0.302717 0.196961
O O3 0.440946 0.338662 0.395641
O O4 0.413516 0.165606 0.318481
O O5 0.690887 0.500000 0.500000
O O6 0.632758 0.350814 0.500000
O O7 0.707313 0.338130 0.603375
O O8 0.456898 0.500000 0.849260
O O9 0.386832 0.398315 0.890282
O O10 0.457025 0.361005 0.000000
O O11 0.684903 0.500000 0.857142
O O12 0.673712 0.310869 0.794430
O O13 0.683423 0.354912 0.000000
O O14 0.574913 0.500000 0.500000
O O15 0.625274 0.135846 0.500000
O O16 0.675936 0.163127 0.666503
O O17 0.630209 0.000000 0.653584
O O18 0.250000 0.250000 0.750000
#
# Coordination Sequence:
#
# PCOD8292409 Si02
#       7
#    16   8  16  16   8  16  16
#     4  12  22  36  59  89 124 161 205 253 303 357
#     4  11  22  41  64  90 123 159 194 240 308 376
#     4   9  18  34  57  85 120 160 197 236 290 358
#     4   9  18  34  59  88 117 151 191 234 286 355
#     4  11  21  36  61  90 126 160 188 241 316 377
#     4  11  24  45  65  86 120 161 209 257 303 355
#     4  12  23  38  65  90 121 154 195 244 306 363
#
# _framework density 18.862708000000001
#
# number of rings (size 3 to 8) (size 9 to 14) (size 15 to 20)
#    0.000    1.333    5.000    2.250    1.167    6.333 
#    0.000    3.333    0.000    1.500    0.000    1.167 
#    0.000    0.000    0.000    0.000    0.000    0.000 
#
# Total GULP energy -594940.317631 kJ/mol
# GULP energy per Si atom -12394.589951 kJ/mol
# Density = 1.881978 g / cm^3
# Si number density = 18.862708 Si / 1000 Ang^3
#
#
#
# Elastic Constant Matrix: (Units=GPa)
#
#
# Indices 1 2 3 4 5 6 
#
# 1 122.0398 50.9463 41.3998 0.0000 0.0000 0.0000
# 2 50.9463 114.4429 57.2070 0.0000 0.0000 0.0000
# 3 41.3998 57.2070 124.7651 0.0000 0.0000 0.0000
# 4 0.0000 0.0000 0.0000 31.3463 0.0000 0.0000
# 5 0.0000 0.0000 0.0000 0.0000-1853.9349 0.0000
# 6 0.0000 0.0000 0.0000 0.0000 0.000021320.2183
#
#
#
# Elastic Compliance Matrix: (Units=1/GPa)
#
#
# Indices 1 2 3 4 5 6 
#
# 1 0.010339 -0.003746 -0.001713 0.000000 0.000000 0.000000
# 2 -0.003746 0.012694 -0.004577 0.000000 0.000000 0.000000
# 3 -0.001713 -0.004577 0.010682 0.000000 0.000000 0.000000
# 4 0.000000 0.000000 0.000000 0.031902 0.000000 0.000000
# 5 0.000000 0.000000 0.000000 0.000000 -0.000539 0.000000
# 6 0.000000 0.000000 0.000000 0.000000 0.000000 0.000047
#
#
# Mechanical properties :
#
#
# Convention : Reuss Voigt Hill
#
# Bulk Modulus (GPa) = 73.30305 73.37268 73.33786
# Shear Modulus (GPa) = 55.71364 3913.63892 1984.67628
#
# Velocity S-wave (km/s) = 5.44064 45.59941 32.47235
# Velocity P-wave (km/s) = 8.85512 53.02256 38.01187
#
# Compressibility (1/GPa) = 0.01364200
#
# Stress axis : x y z
#
# Youngs Moduli (GPa) = 96.72034 78.77884 93.61382
#
# Poissons Ratio (x) = 0.29513 0.16036
# Poissons Ratio (y) = 0.36235 0.42849
# Poissons Ratio (z) = 0.16568 0.36059
#
# Static dielectric constant tensor:
#      x y z
#    x 3.267280 0.000000 0.000000 
#    y 0.000000 3.046960 0.000000 
#    z 0.000000 0.000000 3.866950 
# 
# 
# High freq. dielectric constant tensor:
#      x y z
#    x 1.734220 0.000000 0.000000 
#    y 0.000000 1.714690 0.000000 
#    z 0.000000 0.000000 1.745610 
# 
# From -- ./inp_files/29971.got.cif
#   From: 2010.06.25/outbox.cif.g09.slc.cpg/sg71_15_cif.got.tgz:29971.got - 2010.06.28 04:59:45.
