data_PCOD8292387
_publ_section_title
;
Structure prediction by ZEFSAII (Michael W. Deem and Ramdas Pophale) SiO2 
 PCOD8292387
Probable space group: I M M M
;
_chemical_formula_sum "Si O2"
_cell_formula_units_Z 56
_cell_length_a 33.916872
_cell_length_b 8.719892
_cell_length_c 10.380405
_cell_angle_alpha 90.000000
_cell_angle_beta 90.000000
_cell_angle_gamma 90.000000
_cell_volume 3070.019943
_symmetry_space_group_name_H-M "I M M M"
_symmetry_group_IT_number 71
_symmetry_cell_setting 'orthorhombic'
loop_
_space_group_symop_operation_xyz
x,y,z
-x,-y,z
x,-y,-z
-x,y,-z
-x,-y,-z
x,y,-z
-x,y,z
x,-y,z
1/2+x,1/2+y,1/2+z
1/2-x,1/2-y,1/2+z
1/2+x,1/2-y,1/2-z
1/2-x,1/2+y,1/2-z
1/2-x,1/2-y,1/2-z
1/2+x,1/2+y,1/2-z
1/2-x,1/2+y,1/2+z
1/2+x,1/2-y,1/2+z
loop_
_atom_site_type_symbol
_atom_site_label
_atom_site_fract_x
_atom_site_fract_y
_atom_site_fract_z
Si Si1 0.585124 0.182499 0.648469
Si Si2 0.500000 0.167807 0.652487
Si Si3 0.796940 0.181726 0.500000
Si Si4 0.337603 0.318571 0.740160
Si Si5 0.207692 0.318039 0.000000
O O1 0.594071 0.224011 0.500000
O O2 0.541589 0.248259 0.690766
O O3 0.616933 0.266524 0.737249
O O4 0.586900 0.000000 0.668004
O O5 0.500000 0.147355 0.500000
O O6 0.500000 0.000000 0.716891
O O7 0.819428 0.242312 0.626226
O O8 0.752359 0.244630 0.500000
O O9 0.796479 0.000000 0.500000
O O10 0.334646 0.500000 0.726669
O O11 0.313570 0.241643 0.626280
O O12 0.205706 0.500000 0.000000
#
# Coordination Sequence:
#
# PCOD8292387 Si02
#       5
#    16   8   8  16   8
#     4   9  16  29  50  76 105 134 168 207 251 300
#     4   7  12  24  45  72 101 134 165 201 248 296
#     4   9  22  39  53  72 103 140 174 210 254 305
#     4  11  21  35  54  77 105 136 170 211 258 304
#     4  11  21  37  57  76  99 132 175 218 257 301
#
# _framework density 18.240924
#
# number of rings (size 3 to 8) (size 9 to 14) (size 15 to 20)
#    0.000    2.429    1.429    3.857    0.000    0.000 
#    0.000    7.857    0.000    3.429    0.000    6.000 
#    0.000    0.000    0.000    0.000    0.000    0.000 
#
# Total GULP energy -347013.182820 kJ/mol
# GULP energy per Si atom -12393.327958 kJ/mol
# Density = 1.819941 g / cm^3
# Si number density = 18.240924 Si / 1000 Ang^3
#
#
#
# Elastic Constant Matrix: (Units=GPa)
#
#
# Indices 1 2 3 4 5 6 
#
# 1 197.8587 37.3205 77.1146 0.0000 0.0000 0.0000
# 2 37.3205 48.4091 29.1721 0.0000 0.0000 0.0000
# 3 77.1146 29.1721 117.0494 0.0000 0.0000 0.0000
# 4 0.0000 0.0000 0.0000 -17.3593 0.0000 0.0000
# 5 0.0000 0.0000 0.0000 0.0000 -1.3897 0.0000
# 6 0.0000 0.0000 0.0000 0.0000 0.0000 25.9954
#
#
#
# Elastic Compliance Matrix: (Units=1/GPa)
#
#
# Indices 1 2 3 4 5 6 
#
# 1 0.007190 -0.003163 -0.003948 0.000000 0.000000 0.000000
# 2 -0.003163 0.025700 -0.004321 0.000000 0.000000 0.000000
# 3 -0.003948 -0.004321 0.012222 0.000000 0.000000 0.000000
# 4 0.000000 0.000000 0.000000 -0.057606 0.000000 0.000000
# 5 0.000000 0.000000 0.000000 0.000000 -0.719598 0.000000
# 6 0.000000 0.000000 0.000000 0.000000 0.000000 0.038468
#
#
# Mechanical properties :
#
#
# Convention : Reuss Voigt Hill
#
# Bulk Modulus (GPa) = 44.95257 72.28130 58.61693
# Shear Modulus (GPa) = -7.53757 16.09660 4.27952
#
# Velocity S-wave (km/s) = -2.03499 2.97382 1.53336
# Velocity P-wave (km/s) = 4.37901 7.17659 5.94471
#
# Compressibility (1/GPa) = 0.02224567
#
# Stress axis : x y z
#
# Youngs Moduli (GPa) = 139.08927 38.91042 81.82291
#
# Poissons Ratio (x) = 0.12309 0.32306
# Poissons Ratio (y) = 0.44001 0.35356
# Poissons Ratio (z) = 0.54916 0.16813
#
# Static dielectric constant tensor:
#      x y z
#    x 3.958930 0.000000 0.000000 
#    y 0.000000 3.082260 0.000000 
#    z 0.000000 0.000000 3.358420 
# 
# 
# High freq. dielectric constant tensor:
#      x y z
#    x 1.735990 0.000000 0.000000 
#    y 0.000000 1.680220 0.000000 
#    z 0.000000 0.000000 1.673530 
# 
# From -- ./inp_files/29410.got.cif
#   From: 2010.06.25/outbox.cif.g09.slc.cpg/sg71_15_cif.got.tgz:29410.got - 2010.06.28 04:59:45.
