data_PCOD8292290
_publ_section_title
;
Structure prediction by ZEFSAII (Michael W. Deem and Ramdas Pophale) SiO2 
 PCOD8292290
Probable space group: I M M M
;
_chemical_formula_sum "Si O2"
_cell_formula_units_Z 104
_cell_length_a 16.801167
_cell_length_b 26.539789
_cell_length_c 13.395874
_cell_angle_alpha 90.000000
_cell_angle_beta 90.000000
_cell_angle_gamma 90.000000
_cell_volume 5973.212543
_symmetry_space_group_name_H-M "I M M M"
_symmetry_group_IT_number 71
_symmetry_cell_setting 'orthorhombic'
loop_
_space_group_symop_operation_xyz
x,y,z
-x,-y,z
x,-y,-z
-x,y,-z
-x,-y,-z
x,y,-z
-x,y,z
x,-y,z
1/2+x,1/2+y,1/2+z
1/2-x,1/2-y,1/2+z
1/2+x,1/2-y,1/2-z
1/2-x,1/2+y,1/2-z
1/2-x,1/2-y,1/2-z
1/2+x,1/2+y,1/2-z
1/2-x,1/2+y,1/2+z
1/2+x,1/2-y,1/2+z
loop_
_atom_site_type_symbol
_atom_site_label
_atom_site_fract_x
_atom_site_fract_y
_atom_site_fract_z
Si Si1 0.650418 0.896176 0.199039
Si Si2 0.824229 0.658513 0.885648
Si Si3 0.087732 0.238542 0.116352
Si Si4 0.406081 0.000000 0.118815
Si Si5 0.758482 0.183983 0.881703
Si Si6 0.500000 0.840514 0.884116
Si Si7 0.671879 0.716917 0.119285
Si Si8 0.000000 0.775453 0.382491
O O1 0.651481 0.889895 0.319522
O O2 0.731309 0.871154 0.155088
O O3 0.577342 0.865686 0.158115
O O4 0.641190 0.953642 0.167077
O O5 0.887471 0.703268 0.871286
O O6 0.738274 0.677478 0.843447
O O7 0.819773 0.640728 0.000000
O O8 0.155174 0.201388 0.163946
O O9 0.000000 0.230221 0.166984
O O10 0.080889 0.226020 0.000000
O O11 0.500000 0.000000 0.147386
O O12 0.396081 0.000000 0.000000
O O13 0.693893 0.226045 0.847489
O O14 0.766221 0.183514 0.000000
O O15 0.500000 0.782837 0.856391
O O16 0.500000 0.851321 0.000000
O O17 0.583406 0.702589 0.161573
O O18 0.672737 0.715679 0.000000
O O19 0.000000 0.784912 0.500000
#
# Coordination Sequence:
#
# PCOD8292290 Si02
#       8
#    16  16  16   8  16   8  16   8
#     4  12  22  34  53  73  96 133 169 202 255 302
#     4   9  20  35  49  68 102 140 176 207 233 280
#     4   8  15  28  46  69 103 141 172 206 243 280
#     4  11  24  40  57  79 104 120 148 207 262 306
#     4   9  16  28  47  71 100 132 167 207 249 300
#     4  11  20  31  49  76 102 128 164 206 252 306
#     4   8  14  26  44  70 103 139 169 202 242 284
#     4   9  14  24  45  71 106 141 165 195 246 298
#
# _framework density 17.411066999999999
#
# number of rings (size 3 to 8) (size 9 to 14) (size 15 to 20)
#    0.000    2.538    2.308    3.231    1.077    2.462 
#    0.000    0.385    0.000    0.462    0.000    0.538 
#    0.000    3.077    0.000    4.923    0.000    0.000 
#
# Total GULP energy -644381.286978 kJ/mol
# GULP energy per Si atom -12391.947826 kJ/mol
# Density = 1.737144 g / cm^3
# Si number density = 17.411067 Si / 1000 Ang^3
#
#
#
# Elastic Constant Matrix: (Units=GPa)
#
#
# Indices 1 2 3 4 5 6 
#
# 1 140.7646 37.2360 39.4462 0.0000 0.0000 0.0000
# 2 37.2360 86.7357 39.4638 0.0000 0.0000 0.0000
# 3 39.4462 39.4638 53.4926 0.0000 0.0000 0.0000
# 4 0.0000 0.0000 0.0000 22.5642 0.0000 0.0000
# 5 0.0000 0.0000 0.0000 0.0000 26.3672 0.0000
# 6 0.0000 0.0000 0.0000 0.0000 0.0000 23.4405
#
#
#
# Elastic Compliance Matrix: (Units=1/GPa)
#
#
# Indices 1 2 3 4 5 6 
#
# 1 0.009047 -0.001277 -0.005729 0.000000 0.000000 0.000000
# 2 -0.001277 0.017535 -0.011994 0.000000 0.000000 0.000000
# 3 -0.005729 -0.011994 0.031768 0.000000 0.000000 0.000000
# 4 0.000000 0.000000 0.000000 0.044318 0.000000 0.000000
# 5 0.000000 0.000000 0.000000 0.000000 0.037926 0.000000
# 6 0.000000 0.000000 0.000000 0.000000 0.000000 0.042661
#
#
# Mechanical properties :
#
#
# Convention : Reuss Voigt Hill
#
# Bulk Modulus (GPa) = 49.14461 57.03166 53.08813
# Shear Modulus (GPa) = 21.92595 25.46418 23.69506
#
# Velocity S-wave (km/s) = 3.55253 3.82845 3.69307
# Velocity P-wave (km/s) = 6.71674 7.23670 6.98156
#
# Compressibility (1/GPa) = 0.02034811
#
# Stress axis : x y z
#
# Youngs Moduli (GPa) = 110.52800 57.02903 31.47834
#
# Poissons Ratio (x) = 0.07284 0.18035
# Poissons Ratio (y) = 0.14118 0.37756
# Poissons Ratio (z) = 0.63326 0.68403
#
# Static dielectric constant tensor:
#      x y z
#    x 3.779740 0.000000 0.000000 
#    y 0.000000 2.832170 0.000000 
#    z 0.000000 0.000000 3.388260 
# 
# 
# High freq. dielectric constant tensor:
#      x y z
#    x 1.685340 0.000000 0.000000 
#    y 0.000000 1.595630 0.000000 
#    z 0.000000 0.000000 1.697080 
# 
# From -- ./inp_files/36954.got.cif
#   From: 2010.06.25/outbox.cif.g09.slc.cpg/sg71_19_cif.got.tgz:36954.got - 2010.06.28 04:59:45.
