data_PCOD8292216
_publ_section_title
;
Structure prediction by ZEFSAII (Michael W. Deem and Ramdas Pophale) SiO2 
 PCOD8292216
Probable space group: I M M M
;
_chemical_formula_sum "Si O2"
_cell_formula_units_Z 56
_cell_length_a 10.283040
_cell_length_b 19.630299
_cell_length_c 14.440257
_cell_angle_alpha 90.000000
_cell_angle_beta 90.000000
_cell_angle_gamma 90.000000
_cell_volume 2914.898001
_symmetry_space_group_name_H-M "I M M M"
_symmetry_group_IT_number 71
_symmetry_cell_setting 'orthorhombic'
loop_
_space_group_symop_operation_xyz
x,y,z
-x,-y,z
x,-y,-z
-x,y,-z
-x,-y,-z
x,y,-z
-x,y,z
x,-y,z
1/2+x,1/2+y,1/2+z
1/2-x,1/2-y,1/2+z
1/2+x,1/2-y,1/2-z
1/2-x,1/2+y,1/2-z
1/2-x,1/2-y,1/2-z
1/2+x,1/2+y,1/2-z
1/2-x,1/2+y,1/2+z
1/2+x,1/2-y,1/2+z
loop_
_atom_site_type_symbol
_atom_site_label
_atom_site_fract_x
_atom_site_fract_y
_atom_site_fract_z
Si Si1 0.141463 0.635362 0.500000
Si Si2 0.730345 0.078465 0.816499
Si Si3 0.500000 0.580589 0.395310
Si Si4 0.851927 0.746673 0.000000
Si Si5 0.148570 0.299659 0.799590
O O1 0.149054 0.586982 0.410566
O O2 0.253870 0.690739 0.500000
O O3 0.000000 0.671595 0.500000
O O4 0.671049 0.123174 0.734078
O O5 0.875322 0.106229 0.838589
O O6 0.728000 0.000000 0.784746
O O7 0.500000 0.500000 0.401445
O O8 0.500000 0.609807 0.500000
O O9 0.826627 0.700823 0.090440
O O10 0.000000 0.774730 0.000000
O O11 0.250000 0.250000 0.750000
O O12 0.000000 0.277485 0.776349
#
# Coordination Sequence:
#
# PCOD8292216 Si02
#       5
#     8  16   8   8  16
#     4  12  23  34  57  94 127 154 189 251 316 355
#     4  11  23  38  61  91 126 160 200 249 304 364
#     4   9  18  34  56  87 123 161 196 234 293 364
#     4  10  24  43  62  85 120 163 208 246 287 361
#     4  11  24  41  63  88 120 161 204 248 298 356
#
# _framework density 19.211649000000001
#
# number of rings (size 3 to 8) (size 9 to 14) (size 15 to 20)
#    0.000    1.286    4.286    1.286    4.000    2.857 
#    0.000    0.714    0.000    2.571    0.000    3.000 
#    0.000    0.000    0.000    0.000    0.000    0.000 
#
# Total GULP energy -347168.752101 kJ/mol
# GULP energy per Si atom -12398.884004 kJ/mol
# Density = 1.916792 g / cm^3
# Si number density = 19.211649 Si / 1000 Ang^3
#
#
#
# Elastic Constant Matrix: (Units=GPa)
#
#
# Indices 1 2 3 4 5 6 
#
# 1 138.6832 43.9287 56.8967 0.0000 0.0000 0.0000
# 2 43.9287 95.2002 56.2839 0.0001 0.0000 0.0000
# 3 56.8967 56.2839 130.8079 0.0002 0.0000 0.0000
# 4 0.0000 0.0001 0.0002 19.9390 0.0000 0.0000
# 5 0.0000 0.0000 0.0000 0.0000 27.2333 0.0000
# 6 0.0000 0.0000 0.0000 0.0000 0.0000 29.4986
#
#
#
# Elastic Compliance Matrix: (Units=1/GPa)
#
#
# Indices 1 2 3 4 5 6 
#
# 1 0.009207 -0.002523 -0.002919 0.000000 0.000000 0.000000
# 2 -0.002523 0.014779 -0.005262 0.000000 0.000000 0.000000
# 3 -0.002919 -0.005262 0.011179 0.000000 0.000000 0.000000
# 4 0.000000 0.000000 0.000000 0.050153 0.000000 0.000000
# 5 0.000000 0.000000 0.000000 0.000000 0.036720 0.000000
# 6 0.000000 0.000000 0.000000 0.000000 0.000000 0.033900
#
#
# Mechanical properties :
#
#
# Convention : Reuss Voigt Hill
#
# Bulk Modulus (GPa) = 72.68838 75.43443 74.06141
# Shear Modulus (GPa) = 27.48283 29.17299 28.32791
#
# Velocity S-wave (km/s) = 3.78634 3.90103 3.84411
# Velocity P-wave (km/s) = 7.55201 7.72275 7.63786
#
# Compressibility (1/GPa) = 0.01375736
#
# Stress axis : x y z
#
# Youngs Moduli (GPa) = 108.60729 67.66302 89.45534
#
# Poissons Ratio (x) = 0.17069 0.26116
# Poissons Ratio (y) = 0.27397 0.47071
# Poissons Ratio (z) = 0.31708 0.35604
#
# Static dielectric constant tensor:
#      x y z
#    x 3.961810 0.000000 0.000000 
#    y 0.000000 3.317750 0.000000 
#    z 0.000000 0.000000 3.597720 
# 
# 
# High freq. dielectric constant tensor:
#      x y z
#    x 1.770010 0.000000 0.000000 
#    y 0.000000 1.732360 0.000000 
#    z 0.000000 0.000000 1.731030 
# 
# From -- ./inp_files/30997.got.cif
#   From: 2010.06.25/outbox.cif.g09.slc.cpg/sg71_16_cif.got.tgz:30997.got - 2010.06.28 04:59:45.
