data_PCOD8292414
_publ_section_title
;
Structure prediction by ZEFSAII (Michael W. Deem and Ramdas Pophale) SiO2 
 PCOD8292414
Probable space group: I M M M
;
_chemical_formula_sum "Si O2"
_cell_formula_units_Z 104
_cell_length_a 8.675004
_cell_length_b 26.907136
_cell_length_c 21.399359
_cell_angle_alpha 90.000000
_cell_angle_beta 90.000000
_cell_angle_gamma 90.000000
_cell_volume 4995.027944
_symmetry_space_group_name_H-M "I M M M"
_symmetry_group_IT_number 71
_symmetry_cell_setting 'orthorhombic'
loop_
_space_group_symop_operation_xyz
x,y,z
-x,-y,z
x,-y,-z
-x,y,-z
-x,-y,-z
x,y,-z
-x,y,z
x,-y,z
1/2+x,1/2+y,1/2+z
1/2-x,1/2-y,1/2+z
1/2+x,1/2-y,1/2-z
1/2-x,1/2+y,1/2-z
1/2-x,1/2-y,1/2-z
1/2+x,1/2+y,1/2-z
1/2-x,1/2+y,1/2+z
1/2+x,1/2-y,1/2+z
loop_
_atom_site_type_symbol
_atom_site_label
_atom_site_fract_x
_atom_site_fract_y
_atom_site_fract_z
Si Si1 0.680928 0.945658 0.000000
Si Si2 0.183621 0.717216 0.806557
Si Si3 0.319319 0.056595 0.786941
Si Si4 0.323347 0.943417 0.572136
Si Si5 0.182768 0.773629 0.929398
Si Si6 0.319211 0.382651 0.392914
Si Si7 0.180703 0.110193 0.320817
O O1 0.733687 0.919325 0.061766
O O2 0.500000 0.948956 0.000000
O O3 0.755705 0.000000 0.000000
O O4 0.250000 0.750000 0.750000
O O5 0.240157 0.735923 0.875451
O O6 0.244791 0.661794 0.799264
O O7 0.000000 0.718955 0.802045
O O8 0.500000 0.066450 0.794043
O O9 0.224658 0.098452 0.824469
O O10 0.262615 0.065214 0.716523
O O11 0.279525 0.000000 0.807155
O O12 0.306378 0.929850 0.500000
O O13 0.500000 0.936763 0.593666
O O14 0.216053 0.903598 0.607508
O O15 0.269045 0.000000 0.584343
O O16 0.241999 0.827458 0.906787
O O17 0.000000 0.773181 0.932496
O O18 0.246840 0.761451 0.000000
O O19 0.500000 0.385435 0.403970
O O20 0.000000 0.112552 0.308037
#
# Coordination Sequence:
#
# PCOD8292414 Si02
#       7
#     8  16  16  16  16  16  16
#     4  11  23  37  53  79 119 163 205 245 290 351
#     4  11  23  41  66  91 121 161 206 261 319 378
#     4  11  24  41  61  87 122 162 205 254 307 369
#     4   9  19  38  64  92 123 161 204 249 304 373
#     4   9  19  38  63  90 117 152 201 254 306 362
#     4  11  21  37  62  89 119 154 199 254 308 361
#     4  12  25  40  60  89 125 161 203 255 307 370
#
# _framework density 20.820705
#
# number of rings (size 3 to 8) (size 9 to 14) (size 15 to 20)
#    0.000    1.462    0.769    5.308    0.000    8.000 
#    0.000    4.615    0.000    0.000    0.000    0.000 
#    0.000    0.000    0.000    0.000    0.000    0.000 
#
# Total GULP energy -644775.761518 kJ/mol
# GULP energy per Si atom -12399.533875 kJ/mol
# Density = 2.077332 g / cm^3
# Si number density = 20.820705 Si / 1000 Ang^3
#
#
#
# Elastic Constant Matrix: (Units=GPa)
#
#
# Indices 1 2 3 4 5 6 
#
# 1 59.0678 33.2688 17.8000 0.0000 0.0003 0.0000
# 2 33.2688 85.4265 36.7421 0.0000 0.0009 0.0000
# 3 17.8000 36.7421 104.7688 0.0001 0.0018 0.0000
# 4 0.0000 0.0000 0.0001 45.0357 0.0009 0.0000
# 5 0.0003 0.0009 0.0018 0.0009 111.5494 -0.0002
# 6 0.0000 0.0000 0.0000 0.0000 -0.0002 28.1165
#
#
#
# Elastic Compliance Matrix: (Units=1/GPa)
#
#
# Indices 1 2 3 4 5 6 
#
# 1 0.021751 -0.008104 -0.000854 0.000000 0.000000 0.000000
# 2 -0.008104 0.016804 -0.004516 0.000000 0.000000 0.000000
# 3 -0.000854 -0.004516 0.011274 0.000000 0.000000 0.000000
# 4 0.000000 0.000000 0.000000 0.022205 0.000000 0.000000
# 5 0.000000 0.000000 0.000000 0.000000 0.008965 0.000000
# 6 0.000000 0.000000 0.000000 0.000000 0.000000 0.035566
#
#
# Mechanical properties :
#
#
# Convention : Reuss Voigt Hill
#
# Bulk Modulus (GPa) = 43.70261 47.20942 45.45601
# Shear Modulus (GPa) = 33.08195 47.70378 40.39287
#
# Velocity S-wave (km/s) = 3.99042 4.79181 4.40936
# Velocity P-wave (km/s) = 6.50129 7.30334 6.91396
#
# Compressibility (1/GPa) = 0.02288193
#
# Stress axis : x y z
#
# Youngs Moduli (GPa) = 45.97448 59.50797 88.70162
#
# Poissons Ratio (x) = 0.48224 0.07571
# Poissons Ratio (y) = 0.37257 0.40062
# Poissons Ratio (z) = 0.03924 0.26877
#
# Static dielectric constant tensor:
#      x y z
#    x 3.563380 0.000000 0.000000 
#    y 0.000000 3.894250 0.000000 
#    z 0.000000 0.000000 3.881330 
# 
# 
# High freq. dielectric constant tensor:
#      x y z
#    x 1.799010 0.000000 0.000000 
#    y 0.000000 1.818700 0.000000 
#    z 0.000000 0.000000 1.833130 
# 
# From -- ./inp_files/50948.got.cif
#   From: 2010.06.25/outbox.cif.g09.slc.cpg/sg71_26_cif.got.tgz:50948.got - 2010.06.28 04:59:45.
