data_PCOD8292138
_publ_section_title
;
Structure prediction by ZEFSAII (Michael W. Deem and Ramdas Pophale) SiO2 
 PCOD8292138
Probable space group: I M M M
;
_chemical_formula_sum "Si O2"
_cell_formula_units_Z 104
_cell_length_a 9.166853
_cell_length_b 27.892758
_cell_length_c 19.886109
_cell_angle_alpha 90.000000
_cell_angle_beta 90.000000
_cell_angle_gamma 90.000000
_cell_volume 5084.655592
_symmetry_space_group_name_H-M "I M M M"
_symmetry_group_IT_number 71
_symmetry_cell_setting 'orthorhombic'
loop_
_space_group_symop_operation_xyz
x,y,z
-x,-y,z
x,-y,-z
-x,y,-z
-x,-y,-z
x,y,-z
-x,y,z
x,-y,z
1/2+x,1/2+y,1/2+z
1/2-x,1/2-y,1/2+z
1/2+x,1/2-y,1/2-z
1/2-x,1/2+y,1/2-z
1/2-x,1/2-y,1/2-z
1/2+x,1/2+y,1/2-z
1/2-x,1/2+y,1/2+z
1/2+x,1/2-y,1/2+z
loop_
_atom_site_type_symbol
_atom_site_label
_atom_site_fract_x
_atom_site_fract_y
_atom_site_fract_z
Si Si1 0.000000 0.052159 0.075754
Si Si2 0.749915 0.883870 0.873471
Si Si3 0.000000 0.443339 0.578280
Si Si4 0.827350 0.871648 0.720998
Si Si5 0.665622 0.556912 0.000000
Si Si6 0.333421 0.218314 0.922663
Si Si7 0.175284 0.276357 0.812300
Si Si8 0.668742 0.943287 0.367212
O O1 0.870407 0.087215 0.088831
O O2 0.000000 0.000000 0.115400
O O3 0.000000 0.036118 0.000000
O O4 0.626813 0.923561 0.875165
O O5 0.798587 0.867524 0.799864
O O6 0.703098 0.837435 0.915050
O O7 0.000000 0.500000 0.578756
O O8 0.000000 0.425198 0.500000
O O9 0.739949 0.829654 0.683223
O O10 0.759062 0.921200 0.694623
O O11 0.000000 0.868803 0.706049
O O12 0.754081 0.575325 0.064742
O O13 0.659885 0.500000 0.000000
O O14 0.500000 0.577671 0.000000
O O15 0.500000 0.227482 0.898278
O O16 0.219161 0.249607 0.880542
O O17 0.315036 0.233202 0.000000
O O18 0.250000 0.250000 0.750000
O O19 0.000000 0.276905 0.804046
O O20 0.500000 0.926693 0.367151
O O21 0.680321 0.000000 0.360136
#
# Coordination Sequence:
#
# PCOD8292138 Si02
#       8
#     8  16   8  16   8  16  16  16
#     4  11  24  42  62  91 134 179 225 280 334 381
#     4  12  24  41  65  96 131 175 226 273 327 393
#     4  11  24  42  64  93 132 179 229 278 330 387
#     4  12  26  45  66  95 132 175 222 272 335 397
#     4   9  17  35  63  95 129 169 213 261 319 383
#     4  11  24  44  72 103 134 170 218 273 330 400
#     4  12  26  45  71  98 131 171 214 270 332 400
#     4  10  22  40  66  98 133 173 219 270 324 392
#
# _framework density 20.453695
#
# number of rings (size 3 to 8) (size 9 to 14) (size 15 to 20)
#    0.000    0.846    3.077    4.385    3.231    4.615 
#    1.385    0.000    0.000    0.000    0.000    0.000 
#    0.000    0.000    0.000    0.000    0.000    0.000 
#
# Total GULP energy -644609.798550 kJ/mol
# GULP energy per Si atom -12396.342280 kJ/mol
# Density = 2.040714 g / cm^3
# Si number density = 20.453695 Si / 1000 Ang^3
#
#
#
# Elastic Constant Matrix: (Units=GPa)
#
#
# Indices 1 2 3 4 5 6 
#
# 1 195.9412 50.6720 46.2481 0.0000 0.0000 0.0000
# 2 50.6720 82.9104 34.5729 0.0000 0.0000 0.0000
# 3 46.2481 34.5729 84.1680 -0.0002 0.0000 0.0001
# 4 0.0000 0.0000 -0.0002 35.8217 0.0000 0.0000
# 5 0.0000 0.0000 0.0000 0.0000 34.6775 0.0000
# 6 0.0000 0.0000 0.0001 0.0000 0.0000 43.8229
#
#
#
# Elastic Compliance Matrix: (Units=1/GPa)
#
#
# Indices 1 2 3 4 5 6 
#
# 1 0.006413 -0.002957 -0.002310 0.000000 0.000000 0.000000
# 2 -0.002957 0.015917 -0.004914 0.000000 0.000000 0.000000
# 3 -0.002310 -0.004914 0.015168 0.000000 0.000000 0.000000
# 4 0.000000 0.000000 0.000000 0.027916 0.000000 0.000000
# 5 0.000000 0.000000 0.000000 0.000000 0.028837 0.000000
# 6 0.000000 0.000000 0.000000 0.000000 0.000000 0.022819
#
#
# Mechanical properties :
#
#
# Convention : Reuss Voigt Hill
#
# Bulk Modulus (GPa) = 58.34495 69.55619 63.95057
# Shear Modulus (GPa) = 34.93005 38.29952 36.61478
#
# Velocity S-wave (km/s) = 4.13699 4.33193 4.23558
# Velocity P-wave (km/s) = 7.16986 7.68774 7.43331
#
# Compressibility (1/GPa) = 0.01713944
#
# Stress axis : x y z
#
# Youngs Moduli (GPa) = 155.92671 62.82571 65.92693
#
# Poissons Ratio (x) = 0.18575 0.15226
# Poissons Ratio (y) = 0.46100 0.32394
# Poissons Ratio (z) = 0.36011 0.30870
#
# Static dielectric constant tensor:
#      x y z
#    x 4.018570 0.000000 0.000000 
#    y 0.000000 3.783170 0.000000 
#    z 0.000000 0.000000 3.686320 
# 
# 
# High freq. dielectric constant tensor:
#      x y z
#    x 1.821100 0.000000 0.000000 
#    y 0.000000 1.801180 0.000000 
#    z 0.000000 0.000000 1.797210 
# 
# From -- ./inp_files/50986.got.cif
#   From: 2010.06.25/outbox.cif.g09.slc.cpg/sg71_26_cif.got.tgz:50986.got - 2010.06.28 04:59:45.
