data_PCOD8292745
_publ_section_title
;
Structure prediction by ZEFSAII (Michael W. Deem and Ramdas Pophale) SiO2 
 PCOD8292745
Probable space group: I M M M
;
_chemical_formula_sum "Si O2"
_cell_formula_units_Z 88
_cell_length_a 8.232428
_cell_length_b 23.480261
_cell_length_c 36.665738
_cell_angle_alpha 90.000000
_cell_angle_beta 90.000000
_cell_angle_gamma 90.000000
_cell_volume 7087.470953
_symmetry_space_group_name_H-M "I M M M"
_symmetry_group_IT_number 71
_symmetry_cell_setting 'orthorhombic'
loop_
_space_group_symop_operation_xyz
x,y,z
-x,-y,z
x,-y,-z
-x,y,-z
-x,-y,-z
x,y,-z
-x,y,z
x,-y,z
1/2+x,1/2+y,1/2+z
1/2-x,1/2-y,1/2+z
1/2+x,1/2-y,1/2-z
1/2-x,1/2+y,1/2-z
1/2-x,1/2-y,1/2-z
1/2+x,1/2+y,1/2-z
1/2-x,1/2+y,1/2+z
1/2+x,1/2-y,1/2+z
loop_
_atom_site_type_symbol
_atom_site_label
_atom_site_fract_x
_atom_site_fract_y
_atom_site_fract_z
Si Si1 0.810007 0.937200 0.767186
Si Si2 0.500000 0.932552 0.959173
Si Si3 0.811164 0.731662 0.696853
Si Si4 0.310438 0.627367 0.337608
Si Si5 0.688187 0.834190 0.268405
Si Si6 0.186943 0.932850 0.912938
O O1 0.735083 0.910213 0.804487
O O2 0.771463 0.896584 0.732370
O O3 0.000000 0.943704 0.771947
O O4 0.733228 0.000000 0.760905
O O5 0.329416 0.912416 0.940606
O O6 0.500000 0.000000 0.960048
O O7 0.500000 0.907221 0.000000
O O8 0.761694 0.691924 0.662633
O O9 0.732178 0.795253 0.696310
O O10 0.746123 0.699045 0.732762
O O11 0.000000 0.741800 0.697602
O O12 0.500000 0.632909 0.331907
O O13 0.267248 0.597963 0.375495
O O14 0.500000 0.845644 0.266794
O O15 0.000000 0.917369 0.925777
O O16 0.197152 0.000000 0.906267
#
# Coordination Sequence:
#
# PCOD8292745 Si02
#       6
#    16   8  16  16  16  16
#     4   9  16  25  36  48  64  86 110 138 174 214
#     4   9  18  30  42  56  72  92 118 144 171 209
#     4   9  16  24  35  48  62  83 108 134 167 206
#     4   9  16  25  37  52  69  87 108 136 175 218
#     4   9  16  25  34  45  62  82 108 138 166 201
#     4   9  17  28  41  56  74  94 114 141 177 214
#
# _framework density 12.416276999999999
#
# number of rings (size 3 to 8) (size 9 to 14) (size 15 to 20)
#    0.000    3.000    0.000    1.636    1.273    7.273 
#    0.000    1.818    0.000    0.000    0.000    0.000 
#    0.000    0.000    0.000    0.000    0.000    0.000 
#
# Total GULP energy -545083.490191 kJ/mol
# GULP energy per Si atom -12388.261141 kJ/mol
# Density = 1.238802 g / cm^3
# Si number density = 12.416277 Si / 1000 Ang^3
#
#
#
# Elastic Constant Matrix: (Units=GPa)
#
#
# Indices 1 2 3 4 5 6 
#
# 1 46.3597 27.6865 24.3367 0.0000 0.0000 0.0000
# 2 27.6865 81.0723 36.5579 0.0000 0.0000 0.0000
# 3 24.3367 36.5579 40.3454 0.0000 0.0000 0.0000
# 4 0.0000 0.0000 0.0000 9.2509 0.0000 0.0000
# 5 0.0000 0.0000 0.0000 0.0000 15.9037 0.0000
# 6 0.0000 0.0000 0.0000 0.0000 0.0000 16.8611
#
#
#
# Elastic Compliance Matrix: (Units=1/GPa)
#
#
# Indices 1 2 3 4 5 6 
#
# 1 0.032240 -0.003789 -0.016014 0.000000 0.000000 0.000000
# 2 -0.003789 0.021302 -0.017017 0.000000 0.000000 0.000000
# 3 -0.016014 -0.017017 0.049865 0.000000 0.000000 0.000000
# 4 0.000000 0.000000 0.000000 0.108097 0.000000 0.000000
# 5 0.000000 0.000000 0.000000 0.000000 0.062879 0.000000
# 6 0.000000 0.000000 0.000000 0.000000 0.000000 0.059308
#
#
# Mechanical properties :
#
#
# Convention : Reuss Voigt Hill
#
# Bulk Modulus (GPa) = 33.59383 38.32665 35.96024
# Shear Modulus (GPa) = 11.98313 13.68289 12.83301
#
# Velocity S-wave (km/s) = 3.11000 3.32326 3.21840
# Velocity P-wave (km/s) = 6.32544 6.75725 6.54491
#
# Compressibility (1/GPa) = 0.02976737
#
# Stress axis : x y z
#
# Youngs Moduli (GPa) = 31.01746 46.94416 20.05401
#
# Poissons Ratio (x) = 0.17786 0.32115
# Poissons Ratio (y) = 0.11752 0.34125
# Poissons Ratio (z) = 0.49673 0.79884
#
# Static dielectric constant tensor:
#      x y z
#    x 2.586540 0.000000 0.000000 
#    y 0.000000 2.651000 0.000000 
#    z 0.000000 0.000000 2.305340 
# 
# 
# High freq. dielectric constant tensor:
#      x y z
#    x 1.484060 0.000000 0.000000 
#    y 0.000000 1.456460 0.000000 
#    z 0.000000 0.000000 1.412970 
# 
# From -- ./inp_files/11349.got.cif
#   From: 2010.06.25/outbox.cif.g09.slc.cpg/sg71_6_cif.got.tgz:11349.got - 2010.06.28 04:59:45.
