data_PCOD8292595
_publ_section_title
;
Structure prediction by ZEFSAII (Michael W. Deem and Ramdas Pophale) SiO2 
 PCOD8292595
Probable space group: I M M M
;
_chemical_formula_sum "Si O2"
_cell_formula_units_Z 64
_cell_length_a 12.565840
_cell_length_b 10.160568
_cell_length_c 26.474786
_cell_angle_alpha 90.000000
_cell_angle_beta 90.000000
_cell_angle_gamma 90.000000
_cell_volume 3380.196678
_symmetry_space_group_name_H-M "I M M M"
_symmetry_group_IT_number 71
_symmetry_cell_setting 'orthorhombic'
loop_
_space_group_symop_operation_xyz
x,y,z
-x,-y,z
x,-y,-z
-x,y,-z
-x,-y,-z
x,y,-z
-x,y,z
x,-y,z
1/2+x,1/2+y,1/2+z
1/2-x,1/2-y,1/2+z
1/2+x,1/2-y,1/2-z
1/2-x,1/2+y,1/2-z
1/2-x,1/2-y,1/2-z
1/2+x,1/2+y,1/2-z
1/2-x,1/2+y,1/2+z
1/2+x,1/2-y,1/2+z
loop_
_atom_site_type_symbol
_atom_site_label
_atom_site_fract_x
_atom_site_fract_y
_atom_site_fract_z
Si Si1 0.880115 0.345545 0.058178
Si Si2 0.803454 0.000000 0.802756
Si Si3 0.500000 0.500000 0.771042
Si Si4 0.269500 0.753030 0.857539
Si Si5 0.500000 0.000000 0.742701
Si Si6 0.789351 0.500000 0.797872
Si Si7 0.000000 0.726514 0.674300
O O1 0.870354 0.500000 0.067730
O O2 0.784284 0.277457 0.088730
O O3 0.000000 0.298965 0.073900
O O4 0.860532 0.310044 0.000000
O O5 0.900613 0.000000 0.764961
O O6 0.802593 0.870706 0.836645
O O7 0.705998 0.000000 0.763810
O O8 0.500000 0.624892 0.807060
O O9 0.266045 0.628580 0.820370
O O10 0.394126 0.796400 0.860550
O O11 0.414773 0.000000 0.696549
O O12 0.500000 0.869826 0.777531
#
# Coordination Sequence:
#
# PCOD8292595 Si02
#       7
#    16   8   4  16   4   8   8
#     4   9  20  41  65  88 112 142 189 245 293 341
#     4  12  24  38  53  85 125 157 192 232 283 342
#     4  12  24  36  52  82 124 156 186 252 286 312
#     4  12  23  38  59  86 115 157 195 234 288 340
#     4  12  24  36  56  78 114 166 200 234 262 340
#     4  12  22  38  57  83 115 157 206 230 273 336
#     4  12  22  38  55  79 122 157 196 230 281 332
#
# _framework density 18.933809
#
# number of rings (size 3 to 8) (size 9 to 14) (size 15 to 20)
#    0.000    0.750    6.250    3.000    3.500    0.000 
#    0.000    1.250    0.000    3.000    0.000    2.625 
#    0.000    0.000    0.000    0.000    0.000    0.000 
#
# Total GULP energy -396549.575741 kJ/mol
# GULP energy per Si atom -12392.174242 kJ/mol
# Density = 1.889071 g / cm^3
# Si number density = 18.933809 Si / 1000 Ang^3
#
#
#
# Elastic Constant Matrix: (Units=GPa)
#
#
# Indices 1 2 3 4 5 6 
#
# 1 106.2827 -7.1386 34.0196 0.0000 0.0000 0.0000
# 2 -7.1386 85.5162 18.5931 0.0000 0.0000 0.0000
# 3 34.0196 18.5931 82.7492 0.0000 0.0000 0.0000
# 4 0.0000 0.0000 0.0000 17.6786 0.0000 0.0000
# 5 0.0000 0.0000 0.0000 0.0000 40.2037 0.0000
# 6 0.0000 0.0000 0.0000 0.0000 0.0000 27.9013
#
#
#
# Elastic Compliance Matrix: (Units=1/GPa)
#
#
# Indices 1 2 3 4 5 6 
#
# 1 0.011159 0.002028 -0.005044 0.000000 0.000000 0.000000
# 2 0.002028 0.012663 -0.003679 0.000000 0.000000 0.000000
# 3 -0.005044 -0.003679 0.014985 0.000000 0.000000 0.000000
# 4 0.000000 0.000000 0.000000 0.056566 0.000000 0.000000
# 5 0.000000 0.000000 0.000000 0.000000 0.024873 0.000000
# 6 0.000000 0.000000 0.000000 0.000000 0.000000 0.035841
#
#
# Mechanical properties :
#
#
# Convention : Reuss Voigt Hill
#
# Bulk Modulus (GPa) = 39.34181 40.61073 39.97627
# Shear Modulus (GPa) = 28.09802 32.42831 30.26317
#
# Velocity S-wave (km/s) = 3.85647 4.14299 4.00229
# Velocity P-wave (km/s) = 6.37601 6.66192 6.52053
#
# Compressibility (1/GPa) = 0.02541825
#
# Stress axis : x y z
#
# Youngs Moduli (GPa) = 89.61009 78.97088 66.73404
#
# Poissons Ratio (x) = -0.16016 0.33658
# Poissons Ratio (y) = -0.18174 0.24552
# Poissons Ratio (z) = 0.45195 0.29054
#
# Static dielectric constant tensor:
#      x y z
#    x 3.686020 0.000000 0.000000 
#    y 0.000000 3.409030 0.000000 
#    z 0.000000 0.000000 3.243020 
# 
# 
# High freq. dielectric constant tensor:
#      x y z
#    x 1.758640 0.000000 0.000000 
#    y 0.000000 1.733770 0.000000 
#    z 0.000000 0.000000 1.707610 
# 
# From -- ./inp_files/68879.got.cif
#   From: 2010.06.25/outbox.cif.g09.slc.cpg/sg71_35_cif.got.tgz:68879.got - 2010.06.28 04:59:45.
