data_PCOD8292495
_publ_section_title
;
Structure prediction by ZEFSAII (Michael W. Deem and Ramdas Pophale) SiO2 
 PCOD8292495
Probable space group: I M M M
;
_chemical_formula_sum "Si O2"
_cell_formula_units_Z 72
_cell_length_a 16.522550
_cell_length_b 25.183842
_cell_length_c 8.489186
_cell_angle_alpha 90.000000
_cell_angle_beta 90.000000
_cell_angle_gamma 90.000000
_cell_volume 3532.361234
_symmetry_space_group_name_H-M "I M M M"
_symmetry_group_IT_number 71
_symmetry_cell_setting 'orthorhombic'
loop_
_space_group_symop_operation_xyz
x,y,z
-x,-y,z
x,-y,-z
-x,y,-z
-x,-y,-z
x,y,-z
-x,y,z
x,-y,z
1/2+x,1/2+y,1/2+z
1/2-x,1/2-y,1/2+z
1/2+x,1/2-y,1/2-z
1/2-x,1/2+y,1/2-z
1/2-x,1/2-y,1/2-z
1/2+x,1/2+y,1/2-z
1/2-x,1/2+y,1/2+z
1/2+x,1/2-y,1/2+z
loop_
_atom_site_type_symbol
_atom_site_label
_atom_site_fract_x
_atom_site_fract_y
_atom_site_fract_z
Si Si1 0.000000 0.611767 0.311481
Si Si2 0.168566 0.778878 0.684985
Si Si3 0.341945 0.057922 0.814464
Si Si4 0.675598 0.394661 0.315552
Si Si5 0.595594 0.500000 0.820604
Si Si6 0.500000 0.230416 0.187276
O O1 0.077566 0.582310 0.239730
O O2 0.000000 0.611149 0.500000
O O3 0.000000 0.671026 0.248555
O O4 0.173434 0.770518 0.500000
O O5 0.250000 0.750000 0.750000
O O6 0.156900 0.840845 0.723994
O O7 0.084278 0.754893 0.752797
O O8 0.268814 0.096270 0.773839
O O9 0.325574 0.000000 0.740294
O O10 0.352640 0.052377 0.000000
O O11 0.660168 0.386120 0.500000
O O12 0.624993 0.446061 0.262669
O O13 0.500000 0.500000 0.810536
O O14 0.626401 0.500000 0.000000
O O15 0.500000 0.234944 0.000000
#
# Coordination Sequence:
#
# PCOD8292495 Si02
#       6
#     8  16  16  16   8   8
#     4   9  15  26  49  79 112 150 189 231 282 342
#     4  11  23  41  63  90 124 165 211 259 313 374
#     4   9  16  28  49  82 118 148 184 233 287 344
#     4  11  22  39  62  90 124 158 200 254 309 368
#     4  11  25  43  63  88 119 158 204 255 313 377
#     4   9  20  37  57  83 117 156 200 252 309 368
#
# _framework density 20.382966
#
# number of rings (size 3 to 8) (size 9 to 14) (size 15 to 20)
#    0.000    1.889    1.111    3.333    1.556    5.778 
#    0.000    1.667    0.000    0.000    0.000    3.111 
#    0.000    0.000    0.000    0.000    0.000    0.000 
#
# Total GULP energy -446134.972590 kJ/mol
# GULP energy per Si atom -12392.638128 kJ/mol
# Density = 2.033657 g / cm^3
# Si number density = 20.382966 Si / 1000 Ang^3
#
#
#
# Elastic Constant Matrix: (Units=GPa)
#
#
# Indices 1 2 3 4 5 6 
#
# 1 124.8792 29.4297 26.8621 -0.0001 -0.0001 0.0002
# 2 29.4297 117.9443 11.2777 0.0000 0.0000 0.0000
# 3 26.8621 11.2777 41.8938 -0.0006 -0.0003 0.0006
# 4 -0.0001 0.0000 -0.0006 29.4539 -0.0001 0.0001
# 5 -0.0001 0.0000 -0.0003 -0.0001 23.9071 0.0000
# 6 0.0002 0.0000 0.0006 0.0001 0.0000 -55.9863
#
#
#
# Elastic Compliance Matrix: (Units=1/GPa)
#
#
# Indices 1 2 3 4 5 6 
#
# 1 0.009674 -0.001869 -0.005700 0.000000 0.000000 0.000000
# 2 -0.001869 0.009064 -0.001242 0.000000 0.000000 0.000000
# 3 -0.005700 -0.001242 0.027859 0.000001 0.000000 0.000000
# 4 0.000000 0.000000 0.000001 0.033951 0.000000 0.000000
# 5 0.000000 0.000000 0.000000 0.000000 0.041829 0.000000
# 6 0.000000 0.000000 0.000000 0.000000 0.000000 -0.017862
#
#
# Mechanical properties :
#
#
# Convention : Reuss Voigt Hill
#
# Bulk Modulus (GPa) = 34.51146 46.65069 40.58108
# Shear Modulus (GPa) = 37.93775 13.95146 25.94461
#
# Velocity S-wave (km/s) = 4.31890 2.61907 3.57158
# Velocity P-wave (km/s) = 6.46829 5.66417 6.07954
#
# Compressibility (1/GPa) = 0.02897588
#
# Stress axis : x y z
#
# Youngs Moduli (GPa) = 103.36687 110.33107 35.89515
#
# Poissons Ratio (x) = 0.20620 0.20460
# Poissons Ratio (y) = 0.19318 0.04457
# Poissons Ratio (z) = 0.58919 0.13698
#
# Static dielectric constant tensor:
#      x y z
#    x 4.123420 0.000000 0.000000 
#    y 0.000000 4.070410 0.000000 
#    z 0.000000 0.000000 3.369700 
# 
# 
# High freq. dielectric constant tensor:
#      x y z
#    x 1.816010 0.000000 0.000000 
#    y 0.000000 1.815950 0.000000 
#    z 0.000000 0.000000 1.756290 
# 
# From -- ./inp_files/6140.got.cif
#   From: 2010.06.25/outbox.cif.g09.slc.cpg/sg71_4_cif.got.tgz:6140.got - 2010.06.28 04:59:45.
