data_PCOD8292215
_publ_section_title
;
Structure prediction by ZEFSAII (Michael W. Deem and Ramdas Pophale) SiO2 
 PCOD8292215
Probable space group: I M M M
;
_chemical_formula_sum "Si O2"
_cell_formula_units_Z 44
_cell_length_a 11.524423
_cell_length_b 7.402311
_cell_length_c 25.337487
_cell_angle_alpha 90.000000
_cell_angle_beta 90.000000
_cell_angle_gamma 90.000000
_cell_volume 2161.474205
_symmetry_space_group_name_H-M "I M M M"
_symmetry_group_IT_number 71
_symmetry_cell_setting 'orthorhombic'
loop_
_space_group_symop_operation_xyz
x,y,z
-x,-y,z
x,-y,-z
-x,y,-z
-x,-y,-z
x,y,-z
-x,y,z
x,-y,z
1/2+x,1/2+y,1/2+z
1/2-x,1/2-y,1/2+z
1/2+x,1/2-y,1/2-z
1/2-x,1/2+y,1/2-z
1/2-x,1/2-y,1/2-z
1/2+x,1/2+y,1/2-z
1/2-x,1/2+y,1/2+z
1/2+x,1/2-y,1/2+z
loop_
_atom_site_type_symbol
_atom_site_label
_atom_site_fract_x
_atom_site_fract_y
_atom_site_fract_z
Si Si1 0.500000 0.790483 0.139112
Si Si2 0.500000 0.500000 0.772001
Si Si3 0.248675 0.208959 0.393895
Si Si4 0.371423 0.500000 0.328983
Si Si5 0.630801 0.785812 0.500000
O O1 0.500000 0.679789 0.193321
O O2 0.389214 0.738161 0.103857
O O3 0.500000 0.000000 0.154435
O O4 0.384948 0.500000 0.734820
O O5 0.302395 0.320784 0.345607
O O6 0.301986 0.284478 0.448377
O O7 0.279882 0.000000 0.384670
O O8 0.500000 0.500000 0.355365
O O9 0.500000 0.708624 0.500000
O O10 0.629826 0.000000 0.500000
#
# Coordination Sequence:
#
# PCOD8292215 Si02
#       5
#     8   4  16   8   8
#     4  12  24  45  65  93 133 172 227 275 328 383
#     4  10  26  46  64  98 124 176 234 262 338 388
#     4  11  22  42  69  95 137 173 212 277 320 395
#     4  10  24  42  63  99 124 168 230 258 330 386
#     4   9  20  38  67 100 133 174 212 253 338 393
#
# _framework density 20.356477000000002
#
# number of rings (size 3 to 8) (size 9 to 14) (size 15 to 20)
#    0.545    0.909    3.636    1.091    0.000    6.545 
#    0.000    5.455    0.000    0.000    0.000    0.000 
#    0.000    0.000    0.000    0.000    0.000    0.000 
#
# Total GULP energy -272817.786032 kJ/mol
# GULP energy per Si atom -12400.808456 kJ/mol
# Density = 2.031014 g / cm^3
# Si number density = 20.356477 Si / 1000 Ang^3
#
#
#
# Elastic Constant Matrix: (Units=GPa)
#
#
# Indices 1 2 3 4 5 6 
#
# 1 167.0349 26.1300 72.5496 0.0000 0.0000 0.0000
# 2 26.1300 126.8821 44.2521 0.0000 0.0000 0.0000
# 3 72.5496 44.2521 139.5696 0.0000 0.0000 0.0000
# 4 0.0000 0.0000 0.0000 14.1491 0.0000 0.0000
# 5 0.0000 0.0000 0.0000 0.0000 20.4397 0.0000
# 6 0.0000 0.0000 0.0000 0.0000 0.0000 24.4803
#
#
#
# Elastic Compliance Matrix: (Units=1/GPa)
#
#
# Indices 1 2 3 4 5 6 
#
# 1 0.007738 -0.000214 -0.003954 0.000000 0.000000 0.000000
# 2 -0.000214 0.008867 -0.002700 0.000000 0.000000 0.000000
# 3 -0.003954 -0.002700 0.010076 0.000000 0.000000 0.000000
# 4 0.000000 0.000000 0.000000 0.070676 0.000000 0.000000
# 5 0.000000 0.000000 0.000000 0.000000 0.048924 0.000000
# 6 0.000000 0.000000 0.000000 0.000000 0.000000 0.040849
#
#
# Mechanical properties :
#
#
# Convention : Reuss Voigt Hill
#
# Bulk Modulus (GPa) = 77.25512 79.92778 78.59145
# Shear Modulus (GPa) = 24.36853 31.18415 27.77634
#
# Velocity S-wave (km/s) = 3.46365 3.91820 3.69792
# Velocity P-wave (km/s) = 7.35047 7.73427 7.54481
#
# Compressibility (1/GPa) = 0.01294413
#
# Stress axis : x y z
#
# Youngs Moduli (GPa) = 129.23634 112.77585 99.24227
#
# Poissons Ratio (x) = 0.02418 0.39242
# Poissons Ratio (y) = 0.02771 0.26795
# Poissons Ratio (z) = 0.51102 0.30449
#
# Static dielectric constant tensor:
#      x y z
#    x 3.910470 0.000000 0.000000 
#    y 0.000000 3.644840 0.000000 
#    z 0.000000 0.000000 3.573020 
# 
# 
# High freq. dielectric constant tensor:
#      x y z
#    x 1.804980 0.000000 0.000000 
#    y 0.000000 1.804170 0.000000 
#    z 0.000000 0.000000 1.781790 
# 
# From -- ./inp_files/58390.got.cif
#   From: 2010.06.25/outbox.cif.g09.slc.cpg/sg71_30_cif.got.tgz:58390.got - 2010.06.28 04:59:45.
