data_PCOD8292466
_publ_section_title
;
Structure prediction by ZEFSAII (Michael W. Deem and Ramdas Pophale) SiO2 
 PCOD8292466
Probable space group: I M M M
;
_chemical_formula_sum "Si O2"
_cell_formula_units_Z 104
_cell_length_a 22.143479
_cell_length_b 26.234968
_cell_length_c 8.602398
_cell_angle_alpha 90.000000
_cell_angle_beta 90.000000
_cell_angle_gamma 90.000000
_cell_volume 4997.420860
_symmetry_space_group_name_H-M "I M M M"
_symmetry_group_IT_number 71
_symmetry_cell_setting 'orthorhombic'
loop_
_space_group_symop_operation_xyz
x,y,z
-x,-y,z
x,-y,-z
-x,y,-z
-x,-y,-z
x,y,-z
-x,y,z
x,-y,z
1/2+x,1/2+y,1/2+z
1/2-x,1/2-y,1/2+z
1/2+x,1/2-y,1/2-z
1/2-x,1/2+y,1/2-z
1/2-x,1/2-y,1/2-z
1/2+x,1/2+y,1/2-z
1/2-x,1/2+y,1/2+z
1/2+x,1/2-y,1/2+z
loop_
_atom_site_type_symbol
_atom_site_label
_atom_site_fract_x
_atom_site_fract_y
_atom_site_fract_z
Si Si1 0.000000 0.057466 0.314689
Si Si2 0.895844 0.131215 0.315074
Si Si3 0.916269 0.500000 0.676227
Si Si4 0.567955 0.257743 0.185305
Si Si5 0.842701 0.328402 0.678652
Si Si6 0.262386 0.607909 0.183497
Si Si7 0.065802 0.396927 0.825150
Si Si8 0.274058 0.000000 0.825259
O O1 0.940526 0.086981 0.253584
O O2 0.000000 0.056081 0.500000
O O3 0.000000 0.000000 0.247110
O O4 0.896741 0.132046 0.500000
O O5 0.918558 0.185697 0.251979
O O6 0.828793 0.120897 0.251708
O O7 0.941193 0.500000 0.500000
O O8 0.943005 0.545672 0.774840
O O9 0.844994 0.500000 0.675597
O O10 0.500000 0.241961 0.241282
O O11 0.621788 0.220872 0.250249
O O12 0.570218 0.255219 0.000000
O O13 0.825918 0.319765 0.500000
O O14 0.781500 0.345700 0.764371
O O15 0.890183 0.373811 0.696488
O O16 0.246573 0.551622 0.241798
O O17 0.261388 0.606358 0.000000
O O18 0.000000 0.370171 0.820963
O O19 0.093361 0.392601 0.000000
O O20 0.248191 0.000000 0.000000
#
# Coordination Sequence:
#
# PCOD8292466 Si02
#       8
#     8  16   8  16  16  16  16   8
#     4   9  16  28  52  86 126 156 182 235 298 353
#     4   9  18  33  55  87 123 153 189 237 296 353
#     4  11  22  36  57  80 106 147 195 241 291 348
#     4   9  17  33  57  83 115 156 196 244 295 342
#     4  11  22  36  56  82 113 155 205 243 284 343
#     4  11  23  37  58  88 120 153 192 242 300 353
#     4  11  23  37  54  79 111 147 190 243 304 352
#     4  11  23  40  60  82 114 158 201 240 288 348
#
# _framework density 20.810735000000001
#
# number of rings (size 3 to 8) (size 9 to 14) (size 15 to 20)
#    0.000    1.769    2.308    2.538    1.077    4.000 
#    0.000    0.000    0.000    2.769    0.000    2.692 
#    0.000    0.000    0.000    0.000    0.000    0.000 
#
# Total GULP energy -644438.603449 kJ/mol
# GULP energy per Si atom -12393.050066 kJ/mol
# Density = 2.076337 g / cm^3
# Si number density = 20.810735 Si / 1000 Ang^3
#
#
#
# Elastic Constant Matrix: (Units=GPa)
#
#
# Indices 1 2 3 4 5 6 
#
# 1 171.6548 76.8597 24.5375 0.0000 0.0000 0.0000
# 2 76.8597 151.7796 14.2330 0.0000 0.0000 0.0000
# 3 24.5375 14.2330 51.4465 0.0000 0.0000 0.0000
# 4 0.0000 0.0000 0.0000 -7.5979 0.0000 0.0000
# 5 0.0000 0.0000 0.0000 0.0000 1.0583 0.0000
# 6 0.0000 0.0000 0.0000 0.0000 0.0000 -45.5763
#
#
#
# Elastic Compliance Matrix: (Units=1/GPa)
#
#
# Indices 1 2 3 4 5 6 
#
# 1 0.007890 -0.003740 -0.002729 0.000000 0.000000 0.000000
# 2 -0.003740 0.008536 -0.000578 0.000000 0.000000 0.000000
# 3 -0.002729 -0.000578 0.020899 0.000000 0.000000 0.000000
# 4 0.000000 0.000000 0.000000 -0.131615 0.000000 0.000000
# 5 0.000000 0.000000 0.000000 0.000000 0.944867 0.000000
# 6 0.000000 0.000000 0.000000 0.000000 0.000000 -0.021941
#
#
# Mechanical properties :
#
#
# Convention : Reuss Voigt Hill
#
# Bulk Modulus (GPa) = 43.04223 67.34903 55.19563
# Shear Modulus (GPa) = 5.87907 6.86020 6.36964
#
# Velocity S-wave (km/s) = 1.68260 1.81759 1.75140
# Velocity P-wave (km/s) = 4.95000 6.06941 5.53806
#
# Compressibility (1/GPa) = 0.02323300
#
# Stress axis : x y z
#
# Youngs Moduli (GPa) = 126.74060 117.14531 47.84917
#
# Poissons Ratio (x) = 0.43808 0.13056
# Poissons Ratio (y) = 0.47396 0.02766
# Poissons Ratio (z) = 0.34583 0.06771
#
# Static dielectric constant tensor:
#      x y z
#    x 4.009210 0.000000 0.000000 
#    y 0.000000 4.031390 0.000000 
#    z 0.000000 0.000000 3.407620 
# 
# 
# High freq. dielectric constant tensor:
#      x y z
#    x 1.827270 0.000000 0.000000 
#    y 0.000000 1.819300 0.000000 
#    z 0.000000 0.000000 1.774400 
# 
# From -- ./inp_files/11207.got.cif
#   From: 2010.06.25/outbox.cif.g09.slc.cpg/sg71_6_cif.got.tgz:11207.got - 2010.06.28 04:59:45.
