data_PCOD8292349
_publ_section_title
;
Structure prediction by ZEFSAII (Michael W. Deem and Ramdas Pophale) SiO2 
 PCOD8292349
Probable space group: I M M M
;
_chemical_formula_sum "Si O2"
_cell_formula_units_Z 104
_cell_length_a 9.241795
_cell_length_b 22.701718
_cell_length_c 29.451925
_cell_angle_alpha 90.000000
_cell_angle_beta 90.000000
_cell_angle_gamma 90.000000
_cell_volume 6179.150048
_symmetry_space_group_name_H-M "I M M M"
_symmetry_group_IT_number 71
_symmetry_cell_setting 'orthorhombic'
loop_
_space_group_symop_operation_xyz
x,y,z
-x,-y,z
x,-y,-z
-x,y,-z
-x,-y,-z
x,y,-z
-x,y,z
x,-y,z
1/2+x,1/2+y,1/2+z
1/2-x,1/2-y,1/2+z
1/2+x,1/2-y,1/2-z
1/2-x,1/2+y,1/2-z
1/2-x,1/2-y,1/2-z
1/2+x,1/2+y,1/2-z
1/2-x,1/2+y,1/2+z
1/2+x,1/2-y,1/2+z
loop_
_atom_site_type_symbol
_atom_site_label
_atom_site_fract_x
_atom_site_fract_y
_atom_site_fract_z
Si Si1 0.331553 0.568985 0.811823
Si Si2 0.667698 0.500000 0.053688
Si Si3 0.339865 0.430059 0.288954
Si Si4 0.170767 0.395141 0.897372
Si Si5 0.670307 0.160365 0.051605
Si Si6 0.832934 0.723763 0.948161
Si Si7 0.329627 0.066831 0.875402
O O1 0.500000 0.582897 0.820870
O O2 0.301427 0.500000 0.819073
O O3 0.287250 0.590093 0.761067
O O4 0.229380 0.604628 0.846034
O O5 0.500000 0.500000 0.069169
O O6 0.745501 0.442548 0.072677
O O7 0.682719 0.500000 0.000000
O O8 0.500000 0.404931 0.298681
O O9 0.344748 0.500000 0.288478
O O10 0.234694 0.407161 0.328530
O O11 0.207957 0.331452 0.917310
O O12 0.000000 0.408639 0.898615
O O13 0.500000 0.168837 0.055506
O O14 0.742636 0.220312 0.069185
O O15 0.724327 0.106328 0.082640
O O16 0.717693 0.146183 0.000000
O O17 0.000000 0.740437 0.943582
O O18 0.792471 0.708067 0.000000
O O19 0.500000 0.069180 0.870158
O O20 0.276338 0.000000 0.884428
#
# Coordination Sequence:
#
# PCOD8292349 Si02
#       7
#    16   8  16  16  16  16  16
#     4   9  17  30  47  68  97 128 159 197 242 291
#     4  11  23  35  47  67  97 131 163 199 246 295
#     4   8  15  28  46  68  95 129 161 191 231 283
#     4  11  21  32  49  72  96 124 160 204 250 293
#     4   9  18  32  50  72  97 127 163 197 232 282
#     4   9  19  35  51  67  91 125 163 201 241 284
#     4   9  17  29  47  74 104 129 154 191 238 284
#
# _framework density 16.830794999999998
#
# number of rings (size 3 to 8) (size 9 to 14) (size 15 to 20)
#    0.000    2.692    0.769    2.077    0.000    4.000 
#    0.000    4.615    0.000    0.923    0.000    4.308 
#    0.000    0.000    0.000    0.000    0.000    0.000 
#
# Total GULP energy -644715.567605 kJ/mol
# GULP energy per Si atom -12398.376300 kJ/mol
# Density = 1.679249 g / cm^3
# Si number density = 16.830795 Si / 1000 Ang^3
#
#
#
# Elastic Constant Matrix: (Units=GPa)
#
#
# Indices 1 2 3 4 5 6 
#
# 1 61.1340 49.0154 56.2502 0.0000 0.0000 0.0000
# 2 49.0154 93.3224 71.5816 0.0000 0.0000 0.0000
# 3 56.2502 71.5816 130.7956 0.0000 0.0000 0.0000
# 4 0.0000 0.0000 0.0000 18.2496 0.0000 0.0000
# 5 0.0000 0.0000 0.0000 0.0000 30.5811 0.0000
# 6 0.0000 0.0000 0.0000 0.0000 0.0000 24.2631
#
#
#
# Elastic Compliance Matrix: (Units=1/GPa)
#
#
# Indices 1 2 3 4 5 6 
#
# 1 0.032463 -0.010930 -0.007979 0.000000 0.000000 0.000000
# 2 -0.010930 0.022148 -0.007421 0.000000 0.000000 0.000000
# 3 -0.007979 -0.007421 0.015138 0.000000 0.000000 0.000000
# 4 0.000000 0.000000 0.000000 0.054796 0.000000 0.000000
# 5 0.000000 0.000000 0.000000 0.000000 0.032700 0.000000
# 6 0.000000 0.000000 0.000000 0.000000 0.000000 0.041215
#
#
# Mechanical properties :
#
#
# Convention : Reuss Voigt Hill
#
# Bulk Modulus (GPa) = 58.51575 70.99402 64.75489
# Shear Modulus (GPa) = 19.46926 21.84576 20.65751
#
# Velocity S-wave (km/s) = 3.40481 3.60663 3.50718
# Velocity P-wave (km/s) = 7.09222 7.72116 7.41336
#
# Compressibility (1/GPa) = 0.01708942
#
# Stress axis : x y z
#
# Youngs Moduli (GPa) = 30.80473 45.15066 66.05775
#
# Poissons Ratio (x) = 0.49349 0.52709
# Poissons Ratio (y) = 0.33669 0.49019
# Poissons Ratio (z) = 0.24580 0.33505
#
# Static dielectric constant tensor:
#      x y z
#    x 3.184680 0.000000 0.000000 
#    y 0.000000 2.996400 0.000000 
#    z 0.000000 0.000000 3.411150 
# 
# 
# High freq. dielectric constant tensor:
#      x y z
#    x 1.648820 0.000000 0.000000 
#    y 0.000000 1.618540 0.000000 
#    z 0.000000 0.000000 1.656880 
# 
# From -- ./inp_files/68433.got.cif
#   From: 2010.06.25/outbox.cif.g09.slc.cpg/sg71_35_cif.got.tgz:68433.got - 2010.06.28 04:59:45.
