data_PCOD8292048
_publ_section_title
;
Structure prediction by ZEFSAII (Michael W. Deem and Ramdas Pophale) SiO2 
 PCOD8292048
Probable space group: I M M M
;
_chemical_formula_sum "Si O2"
_cell_formula_units_Z 56
_cell_length_a 13.975314
_cell_length_b 13.110245
_cell_length_c 14.786060
_cell_angle_alpha 90.000000
_cell_angle_beta 90.000000
_cell_angle_gamma 90.000000
_cell_volume 2709.098815
_symmetry_space_group_name_H-M "I M M M"
_symmetry_group_IT_number 71
_symmetry_cell_setting 'orthorhombic'
loop_
_space_group_symop_operation_xyz
x,y,z
-x,-y,z
x,-y,-z
-x,y,-z
-x,-y,-z
x,y,-z
-x,y,z
x,-y,z
1/2+x,1/2+y,1/2+z
1/2-x,1/2-y,1/2+z
1/2+x,1/2-y,1/2-z
1/2-x,1/2+y,1/2-z
1/2-x,1/2-y,1/2-z
1/2+x,1/2+y,1/2-z
1/2-x,1/2+y,1/2+z
1/2+x,1/2-y,1/2+z
loop_
_atom_site_type_symbol
_atom_site_label
_atom_site_fract_x
_atom_site_fract_y
_atom_site_fract_z
Si Si1 0.387793 0.786454 0.364933
Si Si2 0.112687 0.613239 0.316560
Si Si3 0.887840 0.886918 0.000000
Si Si4 0.741926 0.112557 0.500000
Si Si5 0.386552 0.212113 0.000000
O O1 0.500000 0.807225 0.382314
O O2 0.362062 0.800401 0.258864
O O3 0.358537 0.676454 0.408852
O O4 0.325485 0.872193 0.413349
O O5 0.154679 0.500000 0.294258
O O6 0.152194 0.650737 0.412971
O O7 0.000000 0.603522 0.324538
O O8 0.000000 0.902173 0.000000
O O9 0.839625 0.000000 0.000000
O O10 0.837516 0.178817 0.500000
O O11 0.783245 0.000000 0.500000
O O12 0.500000 0.228392 0.000000
#
# Coordination Sequence:
#
# PCOD8292048 Si02
#       5
#    16  16   8   8   8
#     4   9  18  33  56  86 113 134 166 218 278 335
#     4   9  17  33  58  83 107 138 177 226 280 323
#     4   8  14  27  47  74 113 151 172 194 242 315
#     4  11  22  35  53  77 107 142 178 221 273 326
#     4  10  22  38  53  73 106 148 193 230 258 305
#
# _framework density 20.671081000000001
#
# number of rings (size 3 to 8) (size 9 to 14) (size 15 to 20)
#    0.000    2.714    0.000    2.571    0.000    5.429 
#    0.000    7.143    0.000    5.143    0.000    0.000 
#    0.000    0.000    0.000    0.000    0.000    0.000 
#
# Total GULP energy -346907.170956 kJ/mol
# GULP energy per Si atom -12389.541820 kJ/mol
# Density = 2.062403 g / cm^3
# Si number density = 20.671081 Si / 1000 Ang^3
#
#
#
# Elastic Constant Matrix: (Units=GPa)
#
#
# Indices 1 2 3 4 5 6 
#
# 1 45.4620 24.6583 13.6047 0.0000 0.0000 0.0000
# 2 24.6583 185.6882 87.6975 0.0000 0.0000 0.0000
# 3 13.6047 87.6975 189.6422 0.0000 0.0000 0.0000
# 4 0.0000 0.0000 0.0000 21.0083 0.0000 0.0000
# 5 0.0000 0.0000 0.0000 0.0000 -14.7388 0.0000
# 6 0.0000 0.0000 0.0000 0.0000 0.0000 27.8776
#
#
#
# Elastic Compliance Matrix: (Units=1/GPa)
#
#
# Indices 1 2 3 4 5 6 
#
# 1 0.023718 -0.003002 -0.000313 0.000000 0.000000 0.000000
# 2 -0.003002 0.007270 -0.003147 0.000000 0.000000 0.000000
# 3 -0.000313 -0.003147 0.006751 0.000000 0.000000 0.000000
# 4 0.000000 0.000000 0.000000 0.047600 0.000000 0.000000
# 5 0.000000 0.000000 0.000000 0.000000 -0.067848 0.000000
# 6 0.000000 0.000000 0.000000 0.000000 0.000000 0.035871
#
#
# Mechanical properties :
#
#
# Convention : Reuss Voigt Hill
#
# Bulk Modulus (GPa) = 40.29717 74.74594 57.52155
# Shear Modulus (GPa) = 67.06247 26.48489 46.77368
#
# Velocity S-wave (km/s) = 5.70202 3.58334 4.76201
# Velocity P-wave (km/s) = 7.93017 7.30470 7.62385
#
# Compressibility (1/GPa) = 0.02481564
#
# Stress axis : x y z
#
# Youngs Moduli (GPa) = 42.16163 137.55045 148.13310
#
# Poissons Ratio (x) = 0.41287 0.04643
# Poissons Ratio (y) = 0.12655 0.46612
# Poissons Ratio (z) = 0.01322 0.43282
#
# Static dielectric constant tensor:
#      x y z
#    x 3.411990 0.000000 0.000000 
#    y 0.000000 3.806760 0.000000 
#    z 0.000000 0.000000 4.026270 
# 
# 
# High freq. dielectric constant tensor:
#      x y z
#    x 1.793560 0.000000 0.000000 
#    y 0.000000 1.796340 0.000000 
#    z 0.000000 0.000000 1.810290 
# 
# From -- ./inp_files/33576.got.cif
#   From: 2010.06.25/outbox.cif.g09.slc.cpg/sg71_17_cif.got.tgz:33576.got - 2010.06.28 04:59:45.
