data_PCOD8292739
_publ_section_title
;
Structure prediction by ZEFSAII (Michael W. Deem and Ramdas Pophale) SiO2 
 PCOD8292739
Probable space group: I M M M
;
_chemical_formula_sum "Si O2"
_cell_formula_units_Z 112
_cell_length_a 24.815758
_cell_length_b 34.159472
_cell_length_c 9.727517
_cell_angle_alpha 90.000000
_cell_angle_beta 90.000000
_cell_angle_gamma 90.000000
_cell_volume 8245.949922
_symmetry_space_group_name_H-M "I M M M"
_symmetry_group_IT_number 71
_symmetry_cell_setting 'orthorhombic'
loop_
_space_group_symop_operation_xyz
x,y,z
-x,-y,z
x,-y,-z
-x,y,-z
-x,-y,-z
x,y,-z
-x,y,z
x,-y,z
1/2+x,1/2+y,1/2+z
1/2-x,1/2-y,1/2+z
1/2+x,1/2-y,1/2-z
1/2-x,1/2+y,1/2-z
1/2-x,1/2-y,1/2-z
1/2+x,1/2+y,1/2-z
1/2-x,1/2+y,1/2+z
1/2+x,1/2-y,1/2+z
loop_
_atom_site_type_symbol
_atom_site_label
_atom_site_fract_x
_atom_site_fract_y
_atom_site_fract_z
Si Si1 0.917455 0.639888 0.656921
Si Si2 0.170150 0.241683 0.660270
Si Si3 0.942141 0.570883 0.844102
Si Si4 0.797230 0.613102 0.344695
Si Si5 0.255849 0.307750 0.341269
Si Si6 0.326758 0.956369 0.659954
Si Si7 0.940848 0.274008 0.337126
O O1 0.936939 0.635108 0.500000
O O2 0.947748 0.608327 0.747923
O O3 0.853885 0.634540 0.669308
O O4 0.933377 0.682004 0.718156
O O5 0.172254 0.230380 0.500000
O O6 0.202637 0.281844 0.688385
O O7 0.195026 0.206130 0.746522
O O8 0.108545 0.246982 0.714407
O O9 0.890636 0.544732 0.801783
O O10 0.000000 0.548053 0.830748
O O11 0.933723 0.585366 0.000000
O O12 0.787844 0.598120 0.500000
O O13 0.754222 0.646630 0.304821
O O14 0.792754 0.575488 0.245415
O O15 0.272598 0.303150 0.500000
O O16 0.317432 0.947386 0.500000
O O17 0.306328 0.000000 0.697321
O O18 0.936458 0.276004 0.500000
O O19 0.000000 0.257810 0.290737
#
# Coordination Sequence:
#
# PCOD8292739 Si02
#       7
#    16  16  16  16  16  16  16
#     4   9  15  25  39  54  70  91 122 156 190 228
#     4   9  16  26  39  57  78  99 127 158 189 227
#     4   9  17  27  37  50  68  90 118 153 191 229
#     4   9  16  27  43  58  74  94 120 155 193 232
#     4   9  16  27  41  57  77  98 122 157 196 229
#     4   9  18  30  41  54  72  93 119 152 189 232
#     4   9  15  23  37  55  75 100 129 159 190 225
#
# _framework density 13.582425000000001
#
# number of rings (size 3 to 8) (size 9 to 14) (size 15 to 20)
#    0.000    3.000    1.429    0.429    0.000    2.000 
#    0.000    2.143    0.000    1.286    0.000    4.000 
#    0.000    0.000    0.000    0.000    0.000    0.714 
#
# Total GULP energy -693917.511766 kJ/mol
# GULP energy per Si atom -12391.384139 kJ/mol
# Density = 1.355151 g / cm^3
# Si number density = 13.582425 Si / 1000 Ang^3
#
#
#
# Elastic Constant Matrix: (Units=GPa)
#
#
# Indices 1 2 3 4 5 6 
#
# 1 64.1342 39.9090 27.1918 0.0000 0.0000 0.0000
# 2 39.9090 83.3828 43.1518 0.0000 0.0000 0.0000
# 3 27.1918 43.1518 49.1135 0.0000 0.0000 0.0000
# 4 0.0000 0.0000 0.0000 20.2092 0.0000 0.0000
# 5 0.0000 0.0000 0.0000 0.0000 13.5065 0.0000
# 6 0.0000 0.0000 0.0000 0.0000 0.0000 11.0704
#
#
#
# Elastic Compliance Matrix: (Units=1/GPa)
#
#
# Indices 1 2 3 4 5 6 
#
# 1 0.023022 -0.008110 -0.005620 0.000000 0.000000 0.000000
# 2 -0.008110 0.024850 -0.017343 0.000000 0.000000 0.000000
# 3 -0.005620 -0.017343 0.038711 0.000000 0.000000 0.000000
# 4 0.000000 0.000000 0.000000 0.049482 0.000000 0.000000
# 5 0.000000 0.000000 0.000000 0.000000 0.074038 0.000000
# 6 0.000000 0.000000 0.000000 0.000000 0.000000 0.090331
#
#
# Mechanical properties :
#
#
# Convention : Reuss Voigt Hill
#
# Bulk Modulus (GPa) = 40.92501 46.34841 43.63671
# Shear Modulus (GPa) = 13.48699 14.71575 14.10137
#
# Velocity S-wave (km/s) = 3.15457 3.29514 3.22562
# Velocity P-wave (km/s) = 6.59277 6.97676 6.78748
#
# Compressibility (1/GPa) = 0.02443494
#
# Stress axis : x y z
#
# Youngs Moduli (GPa) = 43.43665 40.24126 25.83247
#
# Poissons Ratio (x) = 0.32637 0.14519
# Poissons Ratio (y) = 0.35228 0.44802
# Poissons Ratio (z) = 0.24413 0.69792
#
# Static dielectric constant tensor:
#      x y z
#    x 2.626350 0.000000 0.000000 
#    y 0.000000 2.556800 0.000000 
#    z 0.000000 0.000000 2.645560 
# 
# 
# High freq. dielectric constant tensor:
#      x y z
#    x 1.488020 0.000000 0.000000 
#    y 0.000000 1.491810 0.000000 
#    z 0.000000 0.000000 1.509440 
# 
# From -- ./inp_files/27804.got.cif
#   From: 2010.06.25/outbox.cif.g09.slc.cpg/sg71_14_cif.got.tgz:27804.got - 2010.06.28 04:59:45.
