data_PCOD8292681
_publ_section_title
;
Structure prediction by ZEFSAII (Michael W. Deem and Ramdas Pophale) SiO2 
 PCOD8292681
Probable space group: I M M M
;
_chemical_formula_sum "Si O2"
_cell_formula_units_Z 112
_cell_length_a 24.866618
_cell_length_b 9.880427
_cell_length_c 30.275509
_cell_angle_alpha 90.000000
_cell_angle_beta 90.000000
_cell_angle_gamma 90.000000
_cell_volume 7438.474695
_symmetry_space_group_name_H-M "I M M M"
_symmetry_group_IT_number 71
_symmetry_cell_setting 'orthorhombic'
loop_
_space_group_symop_operation_xyz
x,y,z
-x,-y,z
x,-y,-z
-x,y,-z
-x,-y,-z
x,y,-z
-x,y,z
x,-y,z
1/2+x,1/2+y,1/2+z
1/2-x,1/2-y,1/2+z
1/2+x,1/2-y,1/2-z
1/2-x,1/2+y,1/2-z
1/2-x,1/2-y,1/2-z
1/2+x,1/2+y,1/2-z
1/2-x,1/2+y,1/2+z
1/2+x,1/2-y,1/2+z
loop_
_atom_site_type_symbol
_atom_site_label
_atom_site_fract_x
_atom_site_fract_y
_atom_site_fract_z
Si Si1 0.437276 0.157543 0.125982
Si Si2 0.639256 0.160524 0.951103
Si Si3 0.063820 0.848200 0.198648
Si Si4 0.757915 0.150533 0.052467
Si Si5 0.438218 0.844301 0.377824
Si Si6 0.563854 0.651496 0.796507
Si Si7 0.351308 0.844480 0.550835
O O1 0.500000 0.184855 0.117415
O O2 0.405817 0.211943 0.082958
O O3 0.414720 0.240576 0.167935
O O4 0.425827 0.000000 0.135202
O O5 0.698551 0.203021 0.933510
O O6 0.637485 0.000000 0.954774
O O7 0.627617 0.222191 0.000000
O O8 0.086224 0.743796 0.162363
O O9 0.085688 0.809812 0.247582
O O10 0.000000 0.839546 0.199289
O O11 0.082459 0.000000 0.186126
O O12 0.802804 0.253954 0.070225
O O13 0.769381 0.000000 0.071657
O O14 0.759409 0.144803 0.000000
O O15 0.500000 0.806386 0.388043
O O16 0.405139 0.812018 0.422024
O O17 0.432585 0.000000 0.363615
O O18 0.500000 0.655668 0.795658
O O19 0.583304 0.500000 0.809240
O O20 0.364010 0.809090 0.500000
O O21 0.333736 0.000000 0.556186
#
# Coordination Sequence:
#
# PCOD8292681 Si02
#       7
#    16  16  16  16  16  16  16
#     4   9  16  24  37  60  85 107 133 162 192 231
#     4   8  14  25  40  58  81 107 134 165 198 230
#     4   8  14  25  40  56  75 102 134 164 193 227
#     4   8  14  26  43  58  72  97 135 172 200 226
#     4   9  17  27  39  58  83 108 131 155 189 234
#     4   8  14  25  39  54  76 106 134 160 194 233
#     4   9  17  28  41  58  81 106 131 161 194 228
#
# _framework density 15.056850000000001
#
# number of rings (size 3 to 8) (size 9 to 14) (size 15 to 20)
#    0.000    3.571    0.000    1.714    0.000    1.714 
#    0.000    6.429    0.000    1.286    0.000    7.000 
#    0.000    0.000    0.000    0.000    0.000    0.000 
#
# Total GULP energy -693987.084594 kJ/mol
# GULP energy per Si atom -12392.626511 kJ/mol
# Density = 1.502258 g / cm^3
# Si number density = 15.056850 Si / 1000 Ang^3
#
#
#
# Elastic Constant Matrix: (Units=GPa)
#
#
# Indices 1 2 3 4 5 6 
#
# 1 62.6705 39.1121 46.8759 0.0000 0.0000 0.0000
# 2 39.1121 67.0411 55.8050 0.0000 0.0000 0.0000
# 3 46.8759 55.8050 100.4287 0.0000 0.0000 0.0000
# 4 0.0000 0.0000 0.0000 21.3798 0.0000 0.0000
# 5 0.0000 0.0000 0.0000 0.0000 3.3762 0.0000
# 6 0.0000 0.0000 0.0000 0.0000 0.0000 15.7736
#
#
#
# Elastic Compliance Matrix: (Units=1/GPa)
#
#
# Indices 1 2 3 4 5 6 
#
# 1 0.027736 -0.010057 -0.007358 0.000000 0.000000 0.000000
# 2 -0.010057 0.031399 -0.012754 0.000000 0.000000 0.000000
# 3 -0.007358 -0.012754 0.020478 0.000000 0.000000 0.000000
# 4 0.000000 0.000000 0.000000 0.046773 0.000000 0.000000
# 5 0.000000 0.000000 0.000000 0.000000 0.296187 0.000000
# 6 0.000000 0.000000 0.000000 0.000000 0.000000 0.063397
#
#
# Mechanical properties :
#
#
# Convention : Reuss Voigt Hill
#
# Bulk Modulus (GPa) = 51.87351 57.08071 54.47711
# Shear Modulus (GPa) = 9.04594 13.99574 11.52084
#
# Velocity S-wave (km/s) = 2.45375 3.05212 2.76915
# Velocity P-wave (km/s) = 6.52338 7.10021 6.81790
#
# Compressibility (1/GPa) = 0.01927766
#
# Stress axis : x y z
#
# Youngs Moduli (GPa) = 36.05371 31.84769 48.83181
#
# Poissons Ratio (x) = 0.32028 0.35930
# Poissons Ratio (y) = 0.36258 0.62278
# Poissons Ratio (z) = 0.26528 0.40617
#
# Static dielectric constant tensor:
#      x y z
#    x 2.778460 0.000000 0.000000 
#    y 0.000000 2.979280 0.000000 
#    z 0.000000 0.000000 3.104850 
# 
# 
# High freq. dielectric constant tensor:
#      x y z
#    x 1.542480 0.000000 0.000000 
#    y 0.000000 1.567920 0.000000 
#    z 0.000000 0.000000 1.566160 
# 
# From -- ./inp_files/27986.got.cif
#   From: 2010.06.25/outbox.cif.g09.slc.cpg/sg71_14_cif.got.tgz:27986.got - 2010.06.28 04:59:45.
