data_PCOD8292222
_publ_section_title
;
Structure prediction by ZEFSAII (Michael W. Deem and Ramdas Pophale) SiO2 
 PCOD8292222
Probable space group: I M M M
;
_chemical_formula_sum "Si O2"
_cell_formula_units_Z 64
_cell_length_a 8.619476
_cell_length_b 23.640899
_cell_length_c 15.423875
_cell_angle_alpha 90.000000
_cell_angle_beta 90.000000
_cell_angle_gamma 90.000000
_cell_volume 3142.956348
_symmetry_space_group_name_H-M "I M M M"
_symmetry_group_IT_number 71
_symmetry_cell_setting 'orthorhombic'
loop_
_space_group_symop_operation_xyz
x,y,z
-x,-y,z
x,-y,-z
-x,y,-z
-x,-y,-z
x,y,-z
-x,y,z
x,-y,z
1/2+x,1/2+y,1/2+z
1/2-x,1/2-y,1/2+z
1/2+x,1/2-y,1/2-z
1/2-x,1/2+y,1/2-z
1/2-x,1/2-y,1/2-z
1/2+x,1/2+y,1/2-z
1/2-x,1/2+y,1/2+z
1/2+x,1/2-y,1/2+z
loop_
_atom_site_type_symbol
_atom_site_label
_atom_site_fract_x
_atom_site_fract_y
_atom_site_fract_z
Si Si1 0.316639 0.117398 0.157857
Si Si2 0.816236 0.500000 0.901135
Si Si3 0.818503 0.186002 0.000000
Si Si4 0.317492 0.615743 0.162856
Si Si5 0.181117 0.192600 0.500000
Si Si6 0.683238 0.500000 0.399743
O O1 0.500000 0.116541 0.154096
O O2 0.258493 0.141173 0.250196
O O3 0.252828 0.054501 0.146140
O O4 0.254946 0.159059 0.084932
O O5 0.751087 0.554159 0.852801
O O6 0.000000 0.500000 0.895381
O O7 0.757117 0.500000 0.000000
O O8 0.786708 0.252336 0.000000
O O9 0.000000 0.173133 0.000000
O O10 0.500000 0.610756 0.174819
O O11 0.273324 0.656658 0.084125
O O12 0.000000 0.209175 0.500000
O O13 0.500000 0.500000 0.388086
O O14 0.732201 0.500000 0.500000
#
# Coordination Sequence:
#
# PCOD8292222 Si02
#       6
#    16   8   8  16   8   8
#     4  12  25  42  66  96 131 168 209 259 316 378
#     4  11  22  37  62  96 134 170 209 257 316 378
#     4  12  26  45  68  93 124 166 213 264 317 374
#     4  11  23  42  67  95 129 168 213 261 315 377
#     4  10  24  45  68  93 123 166 215 266 316 368
#     4  11  22  39  66  96 129 167 208 256 314 378
#
# _framework density 20.362992999999999
#
# number of rings (size 3 to 8) (size 9 to 14) (size 15 to 20)
#    0.000    0.750    2.500    5.625    0.000    4.000 
#    0.000    0.000    0.000    0.000    0.000    0.000 
#    0.000    0.000    0.000    0.000    0.000    0.000 
#
# Total GULP energy -397048.081397 kJ/mol
# GULP energy per Si atom -12407.752544 kJ/mol
# Density = 2.031665 g / cm^3
# Si number density = 20.362993 Si / 1000 Ang^3
#
#
#
# Elastic Constant Matrix: (Units=GPa)
#
#
# Indices 1 2 3 4 5 6 
#
# 1 116.8785 39.6895 62.7318 -0.0001 0.0000 0.0000
# 2 39.6895 115.0269 60.3112 -0.0003 0.0000 0.0000
# 3 62.7318 60.3112 182.5826 -0.0008 0.0002 0.0004
# 4 -0.0001 -0.0003 -0.0008 -3.0195 0.0001 0.0011
# 5 0.0000 0.0000 0.0002 0.0001 34.9276 -0.0001
# 6 0.0000 0.0000 0.0004 0.0011 -0.0001 85.3057
#
#
#
# Elastic Compliance Matrix: (Units=1/GPa)
#
#
# Indices 1 2 3 4 5 6 
#
# 1 0.010924 -0.002179 -0.003034 0.000001 0.000000 0.000000
# 2 -0.002179 0.010949 -0.002868 0.000000 0.000000 0.000000
# 3 -0.003034 -0.002868 0.007467 -0.000002 0.000000 0.000000
# 4 0.000001 0.000000 -0.000002 -0.331181 0.000001 0.000004
# 5 0.000000 0.000000 0.000000 0.000001 0.028631 0.000000
# 6 0.000000 0.000000 0.000000 0.000004 0.000000 0.011723
#
#
# Mechanical properties :
#
#
# Convention : Reuss Voigt Hill
#
# Bulk Modulus (GPa) = 75.87896 82.21699 79.04797
# Shear Modulus (GPa) = -20.75255 40.22646 9.73695
#
# Velocity S-wave (km/s) = -3.19585 4.44945 2.18908
# Velocity P-wave (km/s) = 4.87095 8.17680 6.73002
#
# Compressibility (1/GPa) = 0.01317888
#
# Stress axis : x y z
#
# Youngs Moduli (GPa) = 91.54212 91.33062 133.92807
#
# Poissons Ratio (x) = 0.19898 0.40628
# Poissons Ratio (y) = 0.19944 0.38414
# Poissons Ratio (z) = 0.27770 0.26196
#
# Static dielectric constant tensor:
#      x y z
#    x 3.798590 0.000000 0.000000 
#    y 0.000000 3.674590 0.000000 
#    z 0.000000 0.000000 4.123020 
# 
# 
# High freq. dielectric constant tensor:
#      x y z
#    x 1.809820 0.000000 0.000000 
#    y 0.000000 1.792760 0.000000 
#    z 0.000000 0.000000 1.820050 
# 
# From -- ./inp_files/12054.got.cif
#   From: 2010.06.25/outbox.cif.g09.slc.cpg/sg71_7_cif.got.tgz:12054.got - 2010.06.28 04:59:45.
