data_PCOD8292944
_publ_section_title
;
Structure prediction by ZEFSAII (Michael W. Deem and Ramdas Pophale) SiO2 
 PCOD8292944
Probable space group: I B A M
;
_chemical_formula_sum "Si O2"
_cell_formula_units_Z 96
_cell_length_a 29.601108
_cell_length_b 24.242990
_cell_length_c 8.779054
_cell_angle_alpha 90.000000
_cell_angle_beta 90.000000
_cell_angle_gamma 90.000000
_cell_volume 6300.019159
_symmetry_space_group_name_H-M "I B A M"
_symmetry_group_IT_number 72
_symmetry_cell_setting 'orthorhombic'
loop_
_space_group_symop_operation_xyz
x,y,z
-x,-y,z
x,-y,1/2-z
-x,y,1/2-z
-x,-y,-z
x,y,-z
-x,y,1/2+z
x,-y,1/2+z
1/2+x,1/2+y,1/2+z
1/2-x,1/2-y,1/2+z
1/2+x,1/2-y,-z
1/2-x,1/2+y,-z
1/2-x,1/2-y,1/2-z
1/2+x,1/2+y,1/2-z
1/2-x,1/2+y,z
1/2+x,1/2-y,z
loop_
_atom_site_type_symbol
_atom_site_label
_atom_site_fract_x
_atom_site_fract_y
_atom_site_fract_z
Si Si1 0.450979 0.057745 0.681596
Si Si2 0.716366 0.554429 0.176416
Si Si3 0.719028 0.324003 0.319992
Si Si4 0.616962 0.859817 0.170518
Si Si5 0.689564 0.950979 0.169209
Si Si6 0.183109 0.717622 0.321221
O O1 0.500000 0.069422 0.750000
O O2 0.453037 0.052793 0.500000
O O3 0.420633 0.110070 0.728134
O O4 0.432134 0.000000 0.750000
O O5 0.692314 0.500000 0.250000
O O6 0.699745 0.615432 0.228696
O O7 0.768945 0.555428 0.216078
O O8 0.708275 0.548177 0.000000
O O9 0.714545 0.314050 0.500000
O O10 0.771815 0.316374 0.271694
O O11 0.688070 0.280708 0.231343
O O12 0.660987 0.896777 0.160211
O O13 0.636410 0.804401 0.246656
O O14 0.597999 0.848192 0.000000
O O15 0.660259 0.000000 0.250000
O O16 0.706516 0.967342 0.000000
O O17 0.176218 0.714737 0.500000
#
# Coordination Sequence:
#
# PCOD8292944 Si02
#       6
#    16  16  16  16  16  16
#     4  11  22  37  54  70  90 115 146 183 230 280
#     4  10  18  28  41  57  79 105 137 175 215 257
#     4   9  18  31  43  58  83 112 142 179 221 265
#     4  11  21  32  46  65  86 110 142 179 221 268
#     4  10  19  27  38  55  77 103 132 170 213 254
#     4  10  19  30  45  62  82 110 144 181 220 264
#
# _framework density 15.238049
#
# number of rings (size 3 to 8) (size 9 to 14) (size 15 to 20)
#    0.000    1.833    1.667    5.500    0.000    5.333 
#    0.000    0.000    0.000    0.000    0.000    0.000 
#    0.000    0.000    0.000    0.000    0.000    0.833 
#
# Total GULP energy -594694.634368 kJ/mol
# GULP energy per Si atom -12389.471549 kJ/mol
# Density = 1.520337 g / cm^3
# Si number density = 15.238049 Si / 1000 Ang^3
#
#
#
# Elastic Constant Matrix: (Units=GPa)
#
#
# Indices 1 2 3 4 5 6 
#
# 1 42.9252 29.0839 25.0241 0.0000 0.0000 0.0000
# 2 29.0839 114.8892 48.7698 0.0000 0.0000 0.0000
# 3 25.0241 48.7698 82.1816 0.0000 0.0000 0.0000
# 4 0.0000 0.0000 0.0000 26.3282 0.0000 0.0000
# 5 0.0000 0.0000 0.0000 0.0000 18.2066 0.0000
# 6 0.0000 0.0000 0.0000 0.0000 0.0000 21.3147
#
#
#
# Elastic Compliance Matrix: (Units=1/GPa)
#
#
# Indices 1 2 3 4 5 6 
#
# 1 0.030351 -0.005026 -0.006259 0.000000 0.000000 0.000000
# 2 -0.005026 0.012467 -0.005868 0.000000 0.000000 0.000000
# 3 -0.006259 -0.005868 0.017556 0.000000 0.000000 0.000000
# 4 0.000000 0.000000 0.000000 0.037982 0.000000 0.000000
# 5 0.000000 0.000000 0.000000 0.000000 0.054925 0.000000
# 6 0.000000 0.000000 0.000000 0.000000 0.000000 0.046916
#
#
# Mechanical properties :
#
#
# Convention : Reuss Voigt Hill
#
# Bulk Modulus (GPa) = 38.36161 49.52797 43.94479
# Shear Modulus (GPa) = 20.55973 22.31110 21.43542
#
# Velocity S-wave (km/s) = 3.67718 3.83060 3.75467
# Velocity P-wave (km/s) = 6.57711 7.22067 6.90639
#
# Compressibility (1/GPa) = 0.02606773
#
# Stress axis : x y z
#
# Youngs Moduli (GPa) = 32.94817 80.20890 56.95932
#
# Poissons Ratio (x) = 0.40316 0.35650
# Poissons Ratio (y) = 0.16561 0.33425
# Poissons Ratio (z) = 0.20622 0.47068
#
# Static dielectric constant tensor:
#      x y z
#    x 2.477300 0.000000 0.000000 
#    y 0.000000 3.303050 0.000000 
#    z 0.000000 0.000000 3.191050 
# 
# 
# High freq. dielectric constant tensor:
#      x y z
#    x 1.515040 0.000000 0.000000 
#    y 0.000000 1.585740 0.000000 
#    z 0.000000 0.000000 1.603330 
# 
# From -- ./inp_files/8290.got.cif
#   From: 2010.03.12/outbox.cif.g09.slc.cpg/sg72_5_cif.got.tgz:8290.got - 2010.04.16 14:54:00.
