data_PCOD8292398
_publ_section_title
;
Structure prediction by ZEFSAII (Michael W. Deem and Ramdas Pophale) SiO2 
 PCOD8292398
Probable space group: I M M M
;
_chemical_formula_sum "Si O2"
_cell_formula_units_Z 72
_cell_length_a 8.010249
_cell_length_b 30.522850
_cell_length_c 15.041640
_cell_angle_alpha 90.000000
_cell_angle_beta 90.000000
_cell_angle_gamma 90.000000
_cell_volume 3677.615228
_symmetry_space_group_name_H-M "I M M M"
_symmetry_group_IT_number 71
_symmetry_cell_setting 'orthorhombic'
loop_
_space_group_symop_operation_xyz
x,y,z
-x,-y,z
x,-y,-z
-x,y,-z
-x,-y,-z
x,y,-z
-x,y,z
x,-y,z
1/2+x,1/2+y,1/2+z
1/2-x,1/2-y,1/2+z
1/2+x,1/2-y,1/2-z
1/2-x,1/2+y,1/2-z
1/2-x,1/2-y,1/2-z
1/2+x,1/2+y,1/2-z
1/2-x,1/2+y,1/2+z
1/2+x,1/2-y,1/2+z
loop_
_atom_site_type_symbol
_atom_site_label
_atom_site_fract_x
_atom_site_fract_y
_atom_site_fract_z
Si Si1 0.806190 0.766502 0.000000
Si Si2 0.200093 0.331200 0.000000
Si Si3 0.500000 0.551529 0.403399
Si Si4 0.303898 0.208589 0.191596
Si Si5 0.309769 0.050110 0.215009
Si Si6 0.193077 0.633813 0.817659
O O1 0.758425 0.791868 0.089973
O O2 0.726134 0.718010 0.000000
O O3 0.000000 0.759646 0.000000
O O4 0.274562 0.355570 0.913129
O O5 0.000000 0.332431 0.000000
O O6 0.500000 0.500000 0.413479
O O7 0.500000 0.574222 0.500000
O O8 0.327445 0.565398 0.356379
O O9 0.500000 0.207465 0.187259
O O10 0.250000 0.250000 0.250000
O O11 0.231102 0.164886 0.239935
O O12 0.500000 0.055590 0.177156
O O13 0.281157 0.082256 0.298317
O O14 0.279888 0.000000 0.246196
O O15 0.000000 0.646096 0.823646
#
# Coordination Sequence:
#
# PCOD8292398 Si02
#       6
#     8   8   8  16  16  16
#     4  11  21  37  55  78 108 146 186 225 275 330
#     4   9  16  31  56  79 107 143 181 223 271 332
#     4   9  18  34  56  81 107 141 187 232 276 327
#     4  11  21  36  56  79 110 144 182 229 277 328
#     4   9  18  35  57  80 111 148 184 226 277 330
#     4   9  18  34  55  80 109 146 183 221 277 332
#
# _framework density 19.577904
#
# number of rings (size 3 to 8) (size 9 to 14) (size 15 to 20)
#    0.000    2.333    2.222    1.000    0.000    0.444 
#    6.000    2.778    0.000    3.333    0.000    2.333 
#    0.000    0.000    0.000    0.000    0.000    0.000 
#
# Total GULP energy -446081.358616 kJ/mol
# GULP energy per Si atom -12391.148850 kJ/mol
# Density = 1.953334 g / cm^3
# Si number density = 19.577904 Si / 1000 Ang^3
#
#
#
# Elastic Constant Matrix: (Units=GPa)
#
#
# Indices 1 2 3 4 5 6 
#
# 1 66.3704 25.1088 36.2884 0.0002 0.0000 0.0000
# 2 25.1088 114.2032 75.4318 0.0004 0.0001 0.0000
# 3 36.2884 75.4318 191.6729 0.0014 0.0002 0.0001
# 4 0.0002 0.0004 0.0014 25.1288 0.0002 0.0001
# 5 0.0000 0.0001 0.0002 0.0002 24.5988 0.0001
# 6 0.0000 0.0000 0.0001 0.0001 0.0001 18.2008
#
#
#
# Elastic Compliance Matrix: (Units=1/GPa)
#
#
# Indices 1 2 3 4 5 6 
#
# 1 0.017208 -0.002205 -0.002390 0.000000 0.000000 0.000000
# 2 -0.002205 0.012114 -0.004350 0.000000 0.000000 0.000000
# 3 -0.002390 -0.004350 0.007382 0.000000 0.000000 0.000000
# 4 0.000000 0.000000 0.000000 0.039795 0.000000 0.000000
# 5 0.000000 0.000000 0.000000 0.000000 0.040652 0.000000
# 6 0.000000 0.000000 0.000000 0.000000 0.000000 0.054943
#
#
# Mechanical properties :
#
#
# Convention : Reuss Voigt Hill
#
# Bulk Modulus (GPa) = 53.15199 71.76717 62.45958
# Shear Modulus (GPa) = 25.47703 29.28018 27.37860
#
# Velocity S-wave (km/s) = 3.61129 3.87146 3.74363
# Velocity P-wave (km/s) = 6.67806 7.53134 7.11750
#
# Compressibility (1/GPa) = 0.01881397
#
# Stress axis : x y z
#
# Youngs Moduli (GPa) = 58.11294 82.54702 135.46946
#
# Poissons Ratio (x) = 0.18198 0.32381
# Poissons Ratio (y) = 0.12811 0.58931
# Poissons Ratio (z) = 0.13891 0.35909
#
# Static dielectric constant tensor:
#      x y z
#    x 3.517980 0.000000 0.000000 
#    y 0.000000 3.553240 0.000000 
#    z 0.000000 0.000000 3.813150 
# 
# 
# High freq. dielectric constant tensor:
#      x y z
#    x 1.750100 0.000000 0.000000 
#    y 0.000000 1.754680 0.000000 
#    z 0.000000 0.000000 1.758380 
# 
# From -- ./inp_files/31486.got.cif
#   From: 2010.06.25/outbox.cif.g09.slc.cpg/sg71_16_cif.got.tgz:31486.got - 2010.06.28 04:59:45.
