data_PCOD8292535
_publ_section_title
;
Structure prediction by ZEFSAII (Michael W. Deem and Ramdas Pophale) SiO2 
 PCOD8292535
Probable space group: I M M M
;
_chemical_formula_sum "Si O2"
_cell_formula_units_Z 64
_cell_length_a 8.872827
_cell_length_b 11.058744
_cell_length_c 34.691978
_cell_angle_alpha 90.000000
_cell_angle_beta 90.000000
_cell_angle_gamma 90.000000
_cell_volume 3404.057448
_symmetry_space_group_name_H-M "I M M M"
_symmetry_group_IT_number 71
_symmetry_cell_setting 'orthorhombic'
loop_
_space_group_symop_operation_xyz
x,y,z
-x,-y,z
x,-y,-z
-x,y,-z
-x,-y,-z
x,y,-z
-x,y,z
x,-y,z
1/2+x,1/2+y,1/2+z
1/2-x,1/2-y,1/2+z
1/2+x,1/2-y,1/2-z
1/2-x,1/2+y,1/2-z
1/2-x,1/2-y,1/2-z
1/2+x,1/2+y,1/2-z
1/2-x,1/2+y,1/2+z
1/2+x,1/2-y,1/2+z
loop_
_atom_site_type_symbol
_atom_site_label
_atom_site_fract_x
_atom_site_fract_y
_atom_site_fract_z
Si Si1 0.666165 0.859990 0.500000
Si Si2 0.822448 0.000000 0.044603
Si Si3 0.677704 0.136992 0.272242
Si Si4 0.170033 0.360791 0.860737
Si Si5 0.823082 0.259540 0.429594
O O1 0.500000 0.795040 0.500000
O O2 0.757846 0.828189 0.538003
O O3 0.637994 0.000000 0.500000
O O4 0.753628 0.112145 0.066539
O O5 0.000000 0.000000 0.049019
O O6 0.772398 0.000000 0.000000
O O7 0.500000 0.143543 0.266261
O O8 0.750000 0.250000 0.250000
O O9 0.720973 0.155999 0.316733
O O10 0.732029 0.000000 0.259355
O O11 0.176288 0.500000 0.872767
O O12 0.286531 0.288808 0.887141
O O13 0.000000 0.311663 0.866946
O O14 0.000000 0.270689 0.435183
#
# Coordination Sequence:
#
# PCOD8292535 Si02
#       5
#     8   8  16  16  16
#     4  11  23  38  57  80 109 149 191 227 272 337
#     4  11  23  41  63  79 104 152 198 230 276 344
#     4   9  19  37  61  89 120 156 197 241 290 347
#     4   9  19  38  61  83 113 154 196 233 278 341
#     4  12  24  37  57  85 115 143 183 238 292 334
#
# _framework density 18.801093000000002
#
# number of rings (size 3 to 8) (size 9 to 14) (size 15 to 20)
#    0.000    1.750    1.250    5.250    0.000    6.500 
#    2.250    2.500    0.000    0.000    0.000    0.000 
#    0.000    0.000    0.000    0.000    0.000    0.000 
#
# Total GULP energy -396738.489051 kJ/mol
# GULP energy per Si atom -12398.077783 kJ/mol
# Density = 1.875830 g / cm^3
# Si number density = 18.801093 Si / 1000 Ang^3
#
#
#
# Elastic Constant Matrix: (Units=GPa)
#
#
# Indices 1 2 3 4 5 6 
#
# 1 86.4713 47.3799 43.7485 0.0000 0.0000 0.0000
# 2 47.3799 128.8737 67.8035 0.0000 0.0000 0.0000
# 3 43.7485 67.8035 103.9577 0.0000 0.0000 0.0000
# 4 0.0000 0.0000 0.0000 36.0327 0.0000 0.0000
# 5 0.0000 0.0000 0.0000 0.0000 24.4519 0.0000
# 6 0.0000 0.0000 0.0000 0.0000 0.0000 23.0025
#
#
#
# Elastic Compliance Matrix: (Units=1/GPa)
#
#
# Indices 1 2 3 4 5 6 
#
# 1 0.015658 -0.003486 -0.004316 0.000000 0.000000 0.000000
# 2 -0.003486 0.012589 -0.006744 0.000000 0.000000 0.000000
# 3 -0.004316 -0.006744 0.015834 0.000000 0.000000 0.000000
# 4 0.000000 0.000000 0.000000 0.027753 0.000000 0.000000
# 5 0.000000 0.000000 0.000000 0.000000 0.040897 0.000000
# 6 0.000000 0.000000 0.000000 0.000000 0.000000 0.043473
#
#
# Mechanical properties :
#
#
# Convention : Reuss Voigt Hill
#
# Bulk Modulus (GPa) = 66.71131 70.79627 68.75379
# Shear Modulus (GPa) = 26.27537 27.38883 26.83210
#
# Velocity S-wave (km/s) = 3.74243 3.82090 3.78187
# Velocity P-wave (km/s) = 7.36438 7.56326 7.46448
#
# Compressibility (1/GPa) = 0.01498996
#
# Stress axis : x y z
#
# Youngs Moduli (GPa) = 63.86480 79.43226 63.15496
#
# Poissons Ratio (x) = 0.27690 0.27256
# Poissons Ratio (y) = 0.22263 0.42592
# Poissons Ratio (z) = 0.27562 0.53569
#
# Static dielectric constant tensor:
#      x y z
#    x 3.440260 0.000000 0.000000 
#    y 0.000000 3.572040 0.000000 
#    z 0.000000 0.000000 3.461720 
# 
# 
# High freq. dielectric constant tensor:
#      x y z
#    x 1.731000 0.000000 0.000000 
#    y 0.000000 1.738390 0.000000 
#    z 0.000000 0.000000 1.727490 
# 
# From -- ./inp_files/16167.got.cif
#   From: 2010.06.25/outbox.cif.g09.slc.cpg/sg71_9_cif.got.tgz:16167.got - 2010.06.28 04:59:45.
