data_PCOD8292897
_publ_section_title
;
Structure prediction by ZEFSAII (Michael W. Deem and Ramdas Pophale) SiO2 
 PCOD8292897
Probable space group: I B A M
;
_chemical_formula_sum "Si O2"
_cell_formula_units_Z 128
_cell_length_a 21.382294
_cell_length_b 18.486424
_cell_length_c 18.971606
_cell_angle_alpha 90.000000
_cell_angle_beta 90.000000
_cell_angle_gamma 90.000000
_cell_volume 7499.137265
_symmetry_space_group_name_H-M "I B A M"
_symmetry_group_IT_number 72
_symmetry_cell_setting 'orthorhombic'
loop_
_space_group_symop_operation_xyz
x,y,z
-x,-y,z
x,-y,1/2-z
-x,y,1/2-z
-x,-y,-z
x,y,-z
-x,y,1/2+z
x,-y,1/2+z
1/2+x,1/2+y,1/2+z
1/2-x,1/2-y,1/2+z
1/2+x,1/2-y,-z
1/2-x,1/2+y,-z
1/2-x,1/2-y,1/2-z
1/2+x,1/2+y,1/2-z
1/2-x,1/2+y,z
1/2+x,1/2-y,z
loop_
_atom_site_type_symbol
_atom_site_label
_atom_site_fract_x
_atom_site_fract_y
_atom_site_fract_z
Si Si1 0.483601 0.416051 0.827539
Si Si2 0.887031 0.679906 0.083597
Si Si3 0.694914 0.031983 0.579040
Si Si4 0.065823 0.528684 0.584118
Si Si5 0.584507 0.338617 0.083589
Si Si6 0.756712 0.369415 0.577972
Si Si7 0.190926 0.923221 0.338664
Si Si8 0.159851 0.088626 0.318951
O O1 0.500000 0.500000 0.836000
O O2 0.500000 0.388614 0.750000
O O3 0.522015 0.373487 0.886062
O O4 0.411694 0.395666 0.836093
O O5 0.924346 0.610287 0.114134
O O6 0.916092 0.755239 0.109575
O O7 0.814493 0.677636 0.107530
O O8 0.888222 0.674104 0.000000
O O9 0.696503 0.066109 0.500000
O O10 0.737267 0.080539 0.632436
O O11 0.623168 0.024555 0.607254
O O12 0.722921 0.952364 0.575242
O O13 0.064636 0.530275 0.500000
O O14 0.000000 0.500000 0.614957
O O15 0.646868 0.378504 0.109299
O O16 0.582615 0.344879 0.000000
O O17 0.736384 0.343535 0.500000
O O18 0.698706 0.358764 0.630118
O O19 0.182866 0.892167 0.259916
O O20 0.168952 0.005360 0.337576
#
# Coordination Sequence:
#
# PCOD8292897 Si02
#       8
#    16  16  16  16  16  16  16  16
#     4  11  19  35  50  68 100 138 172 205 245 293
#     4   8  16  31  48  70  97 125 158 196 252 306
#     4   8  14  24  43  72  98 121 159 206 243 284
#     4   8  13  25  49  75  97 126 163 204 249 299
#     4  11  21  31  49  71  97 134 165 202 249 301
#     4   8  15  29  49  69  90 118 157 206 244 285
#     4  10  17  30  45  71  99 129 163 203 249 288
#     4  10  18  30  51  70  93 129 168 205 246 286
#
# _framework density 17.068629999999999
#
# number of rings (size 3 to 8) (size 9 to 14) (size 15 to 20)
#    0.000    2.750    2.500    2.625    0.000    1.250 
#    0.000    0.625    2.750    0.000    0.000   14.875 
#    0.000    0.000    0.000    0.000    0.000    0.000 
#
# Total GULP energy -793099.132568 kJ/mol
# GULP energy per Si atom -12392.173946 kJ/mol
# Density = 1.702978 g / cm^3
# Si number density = 17.068630 Si / 1000 Ang^3
#
#
#
# Elastic Constant Matrix: (Units=GPa)
#
#
# Indices 1 2 3 4 5 6 
#
# 1 161.2439 42.0805 60.9870 0.0000 0.0000 0.0000
# 2 42.0805 49.8563 39.9065 0.0000 0.0000 0.0000
# 3 60.9870 39.9065 78.7322 0.0000 0.0000 0.0000
# 4 0.0000 0.0000 0.0000 5.4498 0.0000 0.0000
# 5 0.0000 0.0000 0.0000 0.0000 19.8177 0.0000
# 6 0.0000 0.0000 0.0000 0.0000 0.0000 19.3222
#
#
#
# Elastic Compliance Matrix: (Units=1/GPa)
#
#
# Indices 1 2 3 4 5 6 
#
# 1 0.009108 -0.003433 -0.005315 0.000000 0.000000 0.000000
# 2 -0.003433 0.035045 -0.015103 0.000000 0.000000 0.000000
# 3 -0.005315 -0.015103 0.024474 0.000000 0.000000 0.000000
# 4 0.000000 0.000000 0.000000 0.183495 0.000000 0.000000
# 5 0.000000 0.000000 0.000000 0.000000 0.050460 0.000000
# 6 0.000000 0.000000 0.000000 0.000000 0.000000 0.051754
#
#
# Mechanical properties :
#
#
# Convention : Reuss Voigt Hill
#
# Bulk Modulus (GPa) = 47.79413 63.97559 55.88486
# Shear Modulus (GPa) = 12.22456 18.70848 15.46652
#
# Velocity S-wave (km/s) = 2.67909 3.31429 3.01348
# Velocity P-wave (km/s) = 6.13449 7.22557 6.70227
#
# Compressibility (1/GPa) = 0.02092307
#
# Stress axis : x y z
#
# Youngs Moduli (GPa) = 109.79270 28.53502 40.86005
#
# Poissons Ratio (x) = 0.09797 0.21717
# Poissons Ratio (y) = 0.37694 0.61713
# Poissons Ratio (z) = 0.58355 0.43098
#
# Static dielectric constant tensor:
#      x y z
#    x 3.509280 0.000000 0.000000 
#    y 0.000000 3.093160 0.000000 
#    z 0.000000 0.000000 3.180470 
# 
# 
# High freq. dielectric constant tensor:
#      x y z
#    x 1.665480 0.000000 0.000000 
#    y 0.000000 1.623200 0.000000 
#    z 0.000000 0.000000 1.637190 
# 
# From -- ./inp_files/32916.got.cif
#   From: 2010.03.12/outbox.cif.g09.slc.cpg/sg72_17_cif.got.tgz:32916.got - 2010.04.16 14:54:00.
