data_PCOD8292898
_publ_section_title
;
Structure prediction by ZEFSAII (Michael W. Deem and Ramdas Pophale) SiO2 
 PCOD8292898
Probable space group: I B A M
;
_chemical_formula_sum "Si O2"
_cell_formula_units_Z 84
_cell_length_a 15.171917
_cell_length_b 23.414782
_cell_length_c 14.900045
_cell_angle_alpha 90.000000
_cell_angle_beta 90.000000
_cell_angle_gamma 90.000000
_cell_volume 5293.198209
_symmetry_space_group_name_H-M "I B A M"
_symmetry_group_IT_number 72
_symmetry_cell_setting 'orthorhombic'
loop_
_space_group_symop_operation_xyz
x,y,z
-x,-y,z
x,-y,1/2-z
-x,y,1/2-z
-x,-y,-z
x,y,-z
-x,y,1/2+z
x,-y,1/2+z
1/2+x,1/2+y,1/2+z
1/2-x,1/2-y,1/2+z
1/2+x,1/2-y,-z
1/2-x,1/2+y,-z
1/2-x,1/2-y,1/2-z
1/2+x,1/2+y,1/2-z
1/2-x,1/2+y,z
1/2+x,1/2-y,z
loop_
_atom_site_type_symbol
_atom_site_label
_atom_site_fract_x
_atom_site_fract_y
_atom_site_fract_z
Si Si1 0.253427 0.329808 0.325961
Si Si2 0.000000 0.000000 0.250000
Si Si3 0.490608 0.338228 0.500000
Si Si4 0.651686 0.823489 0.000000
Si Si5 0.958515 0.704022 0.000000
Si Si6 0.816174 0.703825 0.144433
Si Si7 0.681757 0.310709 0.500000
Si Si8 0.928128 0.890711 0.818376
O O1 0.197580 0.350915 0.412091
O O2 0.183848 0.321826 0.244590
O O3 0.305122 0.271926 0.350087
O O4 0.327234 0.375200 0.294887
O O5 0.061535 0.959668 0.312724
O O6 0.475032 0.271184 0.500000
O O7 0.595220 0.349787 0.500000
O O8 0.446008 0.368201 0.416670
O O9 0.661353 0.755978 0.000000
O O10 0.546525 0.834679 0.000000
O O11 0.905696 0.689105 0.908695
O O12 0.735808 0.675202 0.089897
O O13 0.000000 0.862085 0.750000
#
# Coordination Sequence:
#
# PCOD8292898 Si02
#       8
#    16   4   8   8   8  16   8  16
#     4  10  17  30  46  66  93 132 164 196 240 282
#     4   8  24  38  44  76  94 118 172 226 224 298
#     4  11  17  29  52  65  91 143 161 187 250 282
#     4   9  19  28  42  67  98 124 164 199 218 294
#     4  10  18  31  41  73 103 128 170 193 223 284
#     4   9  17  28  44  66  99 127 163 199 223 285
#     4   8  16  27  39  66  92 119 167 191 220 285
#     4  10  20  34  50  69  96 124 167 207 240 288
#
# _framework density 15.869422
#
# number of rings (size 3 to 8) (size 9 to 14) (size 15 to 20)
#    0.571    1.905    1.905    2.286    0.000    2.667 
#    0.000    0.000    0.000    0.000    0.000    0.000 
#    0.000    4.571    0.000    0.000    0.000    0.000 
#
# Total GULP energy -520515.158783 kJ/mol
# GULP energy per Si atom -12393.218066 kJ/mol
# Density = 1.583330 g / cm^3
# Si number density = 15.869422 Si / 1000 Ang^3
#
#
#
# Elastic Constant Matrix: (Units=GPa)
#
#
# Indices 1 2 3 4 5 6 
#
# 1 113.8146 25.0672 46.1016 0.0000 0.0000 0.0000
# 2 25.0672 44.0485 15.4173 0.0003 0.0000 0.0000
# 3 46.1016 15.4173 111.6070 0.0003 0.0001 0.0000
# 4 0.0000 0.0003 0.0003 7.6357 0.0000 0.0000
# 5 0.0000 0.0000 0.0001 0.0000 25.1228 0.0000
# 6 0.0000 0.0000 0.0000 0.0000 0.0000 17.3032
#
#
#
# Elastic Compliance Matrix: (Units=1/GPa)
#
#
# Indices 1 2 3 4 5 6 
#
# 1 0.011570 -0.005161 -0.004066 0.000000 0.000000 0.000000
# 2 -0.005161 0.026158 -0.001482 -0.000001 0.000000 0.000000
# 3 -0.004066 -0.001482 0.010844 0.000000 0.000000 0.000000
# 4 0.000000 -0.000001 0.000000 0.130963 0.000000 0.000000
# 5 0.000000 0.000000 0.000000 0.000000 0.039805 0.000000
# 6 0.000000 0.000000 0.000000 0.000000 0.000000 0.057793
#
#
# Mechanical properties :
#
#
# Convention : Reuss Voigt Hill
#
# Bulk Modulus (GPa) = 36.82641 49.18248 43.00444
# Shear Modulus (GPa) = 16.25479 22.20462 19.22971
#
# Velocity S-wave (km/s) = 3.20392 3.74466 3.48479
# Velocity P-wave (km/s) = 6.07808 7.05378 6.58403
#
# Compressibility (1/GPa) = 0.02715443
#
# Stress axis : x y z
#
# Youngs Moduli (GPa) = 86.43048 38.22947 92.21400
#
# Poissons Ratio (x) = 0.19730 0.37497
# Poissons Ratio (y) = 0.44607 0.13662
# Poissons Ratio (z) = 0.35145 0.05664
#
# Static dielectric constant tensor:
#      x y z
#    x 3.161850 0.000000 0.000000 
#    y 0.000000 2.486340 0.000000 
#    z 0.000000 0.000000 3.111550 
# 
# 
# High freq. dielectric constant tensor:
#      x y z
#    x 1.611350 0.000000 0.000000 
#    y 0.000000 1.536490 0.000000 
#    z 0.000000 0.000000 1.625660 
# 
# From -- ./inp_files/22232.got.cif
#   From: 2010.03.12/outbox.cif.g09.slc.cpg/sg72_12_cif.got.tgz:22232.got - 2010.04.16 14:54:00.
