data_PCOD8292917
_publ_section_title
;
Structure prediction by ZEFSAII (Michael W. Deem and Ramdas Pophale) SiO2 
 PCOD8292917
Probable space group: I B A M
;
_chemical_formula_sum "Si O2"
_cell_formula_units_Z 64
_cell_length_a 9.837087
_cell_length_b 20.116303
_cell_length_c 16.912921
_cell_angle_alpha 90.000000
_cell_angle_beta 90.000000
_cell_angle_gamma 90.000000
_cell_volume 3346.827287
_symmetry_space_group_name_H-M "I B A M"
_symmetry_group_IT_number 72
_symmetry_cell_setting 'orthorhombic'
loop_
_space_group_symop_operation_xyz
x,y,z
-x,-y,z
x,-y,1/2-z
-x,y,1/2-z
-x,-y,-z
x,y,-z
-x,y,1/2+z
x,-y,1/2+z
1/2+x,1/2+y,1/2+z
1/2-x,1/2-y,1/2+z
1/2+x,1/2-y,-z
1/2-x,1/2+y,-z
1/2-x,1/2-y,1/2-z
1/2+x,1/2+y,1/2-z
1/2-x,1/2+y,z
1/2+x,1/2-y,z
loop_
_atom_site_type_symbol
_atom_site_label
_atom_site_fract_x
_atom_site_fract_y
_atom_site_fract_z
Si Si1 0.629877 0.781154 0.197957
Si Si2 0.659623 0.484854 0.336656
Si Si3 0.544010 0.646774 0.842053
Si Si4 0.236221 0.887766 0.410869
O O1 0.500000 0.801857 0.250000
O O2 0.750000 0.750000 0.250000
O O3 0.592119 0.721235 0.138114
O O4 0.671069 0.846164 0.149293
O O5 0.500000 0.500000 0.340422
O O6 0.718031 0.500000 0.250000
O O7 0.668045 0.405967 0.357477
O O8 0.745643 0.532480 0.395008
O O9 0.500000 0.640395 0.750000
O O10 0.419662 0.632997 0.900131
O O11 0.283922 0.873596 0.500000
#
# Coordination Sequence:
#
# PCOD8292917 Si02
#       4
#    16  16  16  16
#     4  11  20  38  61  85 117 163 208 245 294 376
#     4   9  14  29  54  83 116 153 197 245 291 354
#     4  10  17  33  60  86 118 157 210 245 293 365
#     4  11  22  34  55  94 125 147 197 265 310 346
#
# _framework density 19.122589000000001
#
# number of rings (size 3 to 8) (size 9 to 14) (size 15 to 20)
#    0.000    1.750   10.000    0.000    0.000    5.500 
#    0.000    0.000    0.000    6.750    0.000    7.000 
#    0.000    0.000    0.000    0.000    0.000    0.000 
#
# Total GULP energy -396455.039935 kJ/mol
# GULP energy per Si atom -12389.219998 kJ/mol
# Density = 1.907906 g / cm^3
# Si number density = 19.122589 Si / 1000 Ang^3
#
#
#
# Elastic Constant Matrix: (Units=GPa)
#
#
# Indices 1 2 3 4 5 6 
#
# 1 64.1747 35.7334 34.1339 0.0000 0.0000 0.0000
# 2 35.7334 152.5462 35.8179 0.0000 0.0000 0.0000
# 3 34.1339 35.8179 91.4772 0.0000 0.0000 0.0000
# 4 0.0000 0.0000 0.0000 23.3946 0.0000 0.0000
# 5 0.0000 0.0000 0.0000 0.0000 20.4115 0.0000
# 6 0.0000 0.0000 0.0000 0.0000 0.0000 30.0249
#
#
#
# Elastic Compliance Matrix: (Units=1/GPa)
#
#
# Indices 1 2 3 4 5 6 
#
# 1 0.020909 -0.003376 -0.006480 0.000000 0.000000 0.000000
# 2 -0.003376 0.007764 -0.001780 0.000000 0.000000 0.000000
# 3 -0.006480 -0.001780 0.014047 0.000000 0.000000 0.000000
# 4 0.000000 0.000000 0.000000 0.042745 0.000000 0.000000
# 5 0.000000 0.000000 0.000000 0.000000 0.048992 0.000000
# 6 0.000000 0.000000 0.000000 0.000000 0.000000 0.033306
#
#
# Mechanical properties :
#
#
# Convention : Reuss Voigt Hill
#
# Bulk Modulus (GPa) = 51.42228 57.72983 54.57606
# Shear Modulus (GPa) = 25.31410 28.26706 26.79058
#
# Velocity S-wave (km/s) = 3.64233 3.84891 3.74704
# Velocity P-wave (km/s) = 6.68116 7.07157 6.87913
#
# Compressibility (1/GPa) = 0.01944682
#
# Stress axis : x y z
#
# Youngs Moduli (GPa) = 47.82596 128.79463 71.19106
#
# Poissons Ratio (x) = 0.43486 0.46132
# Poissons Ratio (y) = 0.16148 0.12674
# Poissons Ratio (z) = 0.30991 0.22929
#
# Static dielectric constant tensor:
#      x y z
#    x 3.231960 0.000000 0.000000 
#    y 0.000000 4.473770 0.000000 
#    z 0.000000 0.000000 3.159920 
# 
# 
# High freq. dielectric constant tensor:
#      x y z
#    x 1.694320 0.000000 0.000000 
#    y 0.000000 1.766390 0.000000 
#    z 0.000000 0.000000 1.709940 
# 
# From -- ./inp_files/29129.got.cif
#   From: 2010.03.12/outbox.cif.g09.slc.cpg/sg72_15_cif.got.tgz:29129.got - 2010.04.16 14:54:00.
