data_PCOD8292851
_publ_section_title
;
Structure prediction by ZEFSAII (Michael W. Deem and Ramdas Pophale) SiO2 
 PCOD8292851
Probable space group: I B A M
;
_chemical_formula_sum "Si O2"
_cell_formula_units_Z 64
_cell_length_a 34.494558
_cell_length_b 13.460406
_cell_length_c 8.605922
_cell_angle_alpha 90.000000
_cell_angle_beta 90.000000
_cell_angle_gamma 90.000000
_cell_volume 3995.822145
_symmetry_space_group_name_H-M "I B A M"
_symmetry_group_IT_number 72
_symmetry_cell_setting 'orthorhombic'
loop_
_space_group_symop_operation_xyz
x,y,z
-x,-y,z
x,-y,1/2-z
-x,y,1/2-z
-x,-y,-z
x,y,-z
-x,y,1/2+z
x,-y,1/2+z
1/2+x,1/2+y,1/2+z
1/2-x,1/2-y,1/2+z
1/2+x,1/2-y,-z
1/2-x,1/2+y,-z
1/2-x,1/2-y,1/2-z
1/2+x,1/2+y,1/2-z
1/2-x,1/2+y,z
1/2+x,1/2-y,z
loop_
_atom_site_type_symbol
_atom_site_label
_atom_site_fract_x
_atom_site_fract_y
_atom_site_fract_z
Si Si1 0.538726 0.389322 0.316176
Si Si2 0.190983 0.200686 0.680139
Si Si3 0.735601 0.897771 0.818546
Si Si4 0.617282 0.391101 0.817766
O O1 0.539298 0.500000 0.250000
O O2 0.500000 0.334581 0.250000
O O3 0.537283 0.389189 0.500000
O O4 0.578677 0.340186 0.256222
O O5 0.181777 0.182935 0.500000
O O6 0.224558 0.125253 0.730234
O O7 0.203862 0.313297 0.714919
O O8 0.152739 0.181350 0.779986
O O9 0.718581 0.000000 0.750000
O O10 0.744666 0.906640 0.000000
O O11 0.625897 0.500000 0.750000
O O12 0.611270 0.401134 0.000000
#
# Coordination Sequence:
#
# PCOD8292851 Si02
#       4
#    16  16  16  16
#     4  10  17  27  41  59  84 114 147 179 214 257
#     4  10  20  33  47  65  88 115 148 183 219 260
#     4  10  20  33  49  66  87 115 146 182 222 263
#     4  11  20  30  44  63  88 118 150 184 220 258
#
# _framework density 16.016729999999999
#
# number of rings (size 3 to 8) (size 9 to 14) (size 15 to 20)
#    0.000    1.750    0.000    9.000    0.000    3.000 
#    0.000    0.000    0.000    0.000    0.000    0.000 
#    0.000    1.000    0.000   10.500    0.000    5.750 
#
# Total GULP energy -396805.145594 kJ/mol
# GULP energy per Si atom -12400.160800 kJ/mol
# Density = 1.598028 g / cm^3
# Si number density = 16.016730 Si / 1000 Ang^3
#
#
#
# Elastic Constant Matrix: (Units=GPa)
#
#
# Indices 1 2 3 4 5 6 
#
# 1 121.3721 31.5597 48.2755 0.0000 0.0000 0.0000
# 2 31.5597 65.7631 28.2721 0.0000 0.0000 0.0000
# 3 48.2755 28.2721 128.7578 0.0000 0.0000 0.0000
# 4 0.0000 0.0000 0.0000 20.6817 0.0000 0.0000
# 5 0.0000 0.0000 0.0000 0.0000 30.9969 0.0000
# 6 0.0000 0.0000 0.0000 0.0000 0.0000 13.8790
#
#
#
# Elastic Compliance Matrix: (Units=1/GPa)
#
#
# Indices 1 2 3 4 5 6 
#
# 1 0.010428 -0.003670 -0.003104 0.000000 0.000000 0.000000
# 2 -0.003670 0.018083 -0.002595 0.000000 0.000000 0.000000
# 3 -0.003104 -0.002595 0.009500 0.000000 0.000000 0.000000
# 4 0.000000 0.000000 0.000000 0.048352 0.000000 0.000000
# 5 0.000000 0.000000 0.000000 0.000000 0.032261 0.000000
# 6 0.000000 0.000000 0.000000 0.000000 0.000000 0.072051
#
#
# Mechanical properties :
#
#
# Convention : Reuss Voigt Hill
#
# Bulk Modulus (GPa) = 51.88397 59.12307 55.50352
# Shear Modulus (GPa) = 23.16564 26.96390 25.06477
#
# Velocity S-wave (km/s) = 3.80720 4.10748 3.96019
# Velocity P-wave (km/s) = 7.19655 7.71289 7.45919
#
# Compressibility (1/GPa) = 0.01927377
#
# Stress axis : x y z
#
# Youngs Moduli (GPa) = 95.89567 55.30141 105.26325
#
# Poissons Ratio (x) = 0.20295 0.32673
# Poissons Ratio (y) = 0.35193 0.27311
# Poissons Ratio (z) = 0.29766 0.14348
#
# Static dielectric constant tensor:
#      x y z
#    x 3.689700 0.000000 0.000000 
#    y 0.000000 2.721100 0.000000 
#    z 0.000000 0.000000 3.196900 
# 
# 
# High freq. dielectric constant tensor:
#      x y z
#    x 1.623260 0.000000 0.000000 
#    y 0.000000 1.560490 0.000000 
#    z 0.000000 0.000000 1.641660 
# 
# From -- ./inp_files/3776.got.cif
#   From: 2010.03.12/outbox.cif.g09.slc.cpg/sg72_2_cif.got.tgz:3776.got - 2010.04.16 14:54:00.
