data_PCOD8292966
_publ_section_title
;
Structure prediction by ZEFSAII (Michael W. Deem and Ramdas Pophale) SiO2 
 PCOD8292966
Probable space group: I B A M
;
_chemical_formula_sum "Si O2"
_cell_formula_units_Z 128
_cell_length_a 20.875533
_cell_length_b 18.861133
_cell_length_c 18.406481
_cell_angle_alpha 90.000000
_cell_angle_beta 90.000000
_cell_angle_gamma 90.000000
_cell_volume 7247.297965
_symmetry_space_group_name_H-M "I B A M"
_symmetry_group_IT_number 72
_symmetry_cell_setting 'orthorhombic'
loop_
_space_group_symop_operation_xyz
x,y,z
-x,-y,z
x,-y,1/2-z
-x,y,1/2-z
-x,-y,-z
x,y,-z
-x,y,1/2+z
x,-y,1/2+z
1/2+x,1/2+y,1/2+z
1/2-x,1/2-y,1/2+z
1/2+x,1/2-y,-z
1/2-x,1/2+y,-z
1/2-x,1/2-y,1/2-z
1/2+x,1/2+y,1/2-z
1/2-x,1/2+y,z
1/2+x,1/2-y,z
loop_
_atom_site_type_symbol
_atom_site_label
_atom_site_fract_x
_atom_site_fract_y
_atom_site_fract_z
Si Si1 0.683751 0.559400 0.084830
Si Si2 0.288394 0.603244 0.085010
Si Si3 0.805984 0.673588 0.319756
Si Si4 0.252817 0.181475 0.332885
Si Si5 0.002412 0.216833 0.419398
Si Si6 0.541870 0.438250 0.416790
Si Si7 0.627510 0.274903 0.146182
Si Si8 0.565652 0.781638 0.783876
O O1 0.703376 0.479088 0.101442
O O2 0.733442 0.612091 0.122956
O O3 0.612494 0.570808 0.117847
O O4 0.686672 0.577312 0.000000
O O5 0.217676 0.624721 0.113962
O O6 0.341576 0.648909 0.128223
O O7 0.293603 0.620754 0.000000
O O8 0.800674 0.757118 0.340998
O O9 0.759487 0.659121 0.251303
O O10 0.880594 0.657870 0.299881
O O11 0.320389 0.212474 0.362141
O O12 0.026144 0.238667 0.500000
O O13 0.000607 0.132407 0.410059
O O14 0.051808 0.246942 0.361342
O O15 0.929777 0.243519 0.409168
O O16 0.500000 0.500000 0.378123
O O17 0.554147 0.461200 0.500000
O O18 0.596505 0.275379 0.227478
O O19 0.500000 0.814310 0.750000
#
# Coordination Sequence:
#
# PCOD8292966 Si02
#       8
#    16  16  16  16  16  16  16  16
#     4  10  20  32  47  73 105 133 166 207 250 297
#     4  10  20  32  49  74 102 132 167 208 252 302
#     4   9  18  33  50  70  96 128 165 205 251 298
#     4   9  18  32  50  70  95 130 169 210 251 294
#     4  10  18  28  47  73  97 128 170 211 253 300
#     4   9  17  28  42  62  95 135 164 190 230 284
#     4   9  18  33  51  70 100 138 173 209 252 304
#     4   9  18  32  50  72  99 127 162 211 258 301
#
# _framework density 17.661754999999999
#
# number of rings (size 3 to 8) (size 9 to 14) (size 15 to 20)
#    0.000    2.625    0.000    2.625    0.000    5.500 
#    0.000    0.000    0.000    7.875    0.000   14.875 
#    0.000   19.000    0.000    0.000    0.000    0.000 
#
# Total GULP energy -793212.719036 kJ/mol
# GULP energy per Si atom -12393.948735 kJ/mol
# Density = 1.762156 g / cm^3
# Si number density = 17.661755 Si / 1000 Ang^3
#
#
#
# Elastic Constant Matrix: (Units=GPa)
#
#
# Indices 1 2 3 4 5 6 
#
# 1 120.0833 41.7141 42.8091 0.0000 0.0000 0.0000
# 2 41.7141 66.9834 39.0547 0.0000 0.0000 0.0000
# 3 42.8091 39.0547 82.7824 0.0000 0.0000 0.0000
# 4 0.0000 0.0000 0.0000 20.5001 0.0000 0.0000
# 5 0.0000 0.0000 0.0000 0.0000 23.5995 0.0000
# 6 0.0000 0.0000 0.0000 0.0000 0.0000 22.6777
#
#
#
# Elastic Compliance Matrix: (Units=1/GPa)
#
#
# Indices 1 2 3 4 5 6 
#
# 1 0.011311 -0.005012 -0.003485 0.000000 0.000000 0.000000
# 2 -0.005012 0.022815 -0.008172 0.000000 0.000000 0.000000
# 3 -0.003485 -0.008172 0.017737 0.000000 0.000000 0.000000
# 4 0.000000 0.000000 0.000000 0.048780 0.000000 0.000000
# 5 0.000000 0.000000 0.000000 0.000000 0.042374 0.000000
# 6 0.000000 0.000000 0.000000 0.000000 0.000000 0.044096
#
#
# Mechanical properties :
#
#
# Convention : Reuss Voigt Hill
#
# Bulk Modulus (GPa) = 53.97785 57.44498 55.71142
# Shear Modulus (GPa) = 22.06288 23.10686 22.58487
#
# Velocity S-wave (km/s) = 3.53822 3.62097 3.57983
# Velocity P-wave (km/s) = 6.87898 7.07655 6.97846
#
# Compressibility (1/GPa) = 0.01852612
#
# Stress axis : x y z
#
# Youngs Moduli (GPa) = 88.41027 43.83107 56.37955
#
# Poissons Ratio (x) = 0.21969 0.19646
# Poissons Ratio (y) = 0.44313 0.46071
# Poissons Ratio (z) = 0.30807 0.35817
#
# Static dielectric constant tensor:
#      x y z
#    x 3.488050 0.000000 0.000000 
#    y 0.000000 2.901810 0.000000 
#    z 0.000000 0.000000 3.312100 
# 
# 
# High freq. dielectric constant tensor:
#      x y z
#    x 1.694630 0.000000 0.000000 
#    y 0.000000 1.639660 0.000000 
#    z 0.000000 0.000000 1.679860 
# 
# From -- ./inp_files/32971.got.cif
#   From: 2010.03.12/outbox.cif.g09.slc.cpg/sg72_17_cif.got.tgz:32971.got - 2010.04.16 14:54:00.
