data_PCOD8292902
_publ_section_title
;
Structure prediction by ZEFSAII (Michael W. Deem and Ramdas Pophale) SiO2 
 PCOD8292902
Probable space group: I B A M
;
_chemical_formula_sum "Si O2"
_cell_formula_units_Z 88
_cell_length_a 13.741134
_cell_length_b 14.073929
_cell_length_c 23.071054
_cell_angle_alpha 90.000000
_cell_angle_beta 90.000000
_cell_angle_gamma 90.000000
_cell_volume 4461.751376
_symmetry_space_group_name_H-M "I B A M"
_symmetry_group_IT_number 72
_symmetry_cell_setting 'orthorhombic'
loop_
_space_group_symop_operation_xyz
x,y,z
-x,-y,z
x,-y,1/2-z
-x,y,1/2-z
-x,-y,-z
x,y,-z
-x,y,1/2+z
x,-y,1/2+z
1/2+x,1/2+y,1/2+z
1/2-x,1/2-y,1/2+z
1/2+x,1/2-y,-z
1/2-x,1/2+y,-z
1/2-x,1/2-y,1/2-z
1/2+x,1/2+y,1/2-z
1/2-x,1/2+y,z
1/2+x,1/2-y,z
loop_
_atom_site_type_symbol
_atom_site_label
_atom_site_fract_x
_atom_site_fract_y
_atom_site_fract_z
Si Si1 0.738332 0.375789 0.865134
Si Si2 0.426262 0.773475 0.127173
Si Si3 0.500000 0.262488 0.250000
Si Si4 0.819363 0.894331 0.741591
Si Si5 0.122916 0.243840 0.566943
Si Si6 0.755405 0.406794 0.381515
O O1 0.635619 0.324067 0.875803
O O2 0.752034 0.372453 0.795593
O O3 0.826667 0.322713 0.894086
O O4 0.742693 0.481421 0.891950
O O5 0.469252 0.796080 0.191952
O O6 0.509574 0.750878 0.081010
O O7 0.361895 0.862733 0.103442
O O8 0.409719 0.326468 0.231822
O O9 0.752297 0.881429 0.686025
O O10 0.862119 0.000000 0.750000
O O11 0.140165 0.266739 0.500000
O O12 0.169240 0.141228 0.581363
#
# Coordination Sequence:
#
# PCOD8292902 Si02
#       6
#    16  16   8  16  16  16
#     4   9  22  39  61  89 121 155 193 244 297 354
#     4  10  22  35  60  88 118 158 199 242 293 353
#     4  10  17  30  56  87 120 152 186 234 297 345
#     4   9  17  32  58  90 121 147 185 239 295 355
#     4  11  24  41  60  85 120 158 204 245 289 351
#     4  10  21  40  61  89 121 155 196 242 299 350
#
# _framework density 19.723196999999999
#
# number of rings (size 3 to 8) (size 9 to 14) (size 15 to 20)
#    0.000    2.182    1.818    0.273    2.545    7.273 
#    0.000    1.818    0.000    0.000    0.000    0.000 
#    0.000    0.000    0.000    0.000    0.000    0.000 
#
# Total GULP energy -545379.598742 kJ/mol
# GULP energy per Si atom -12394.990881 kJ/mol
# Density = 1.967831 g / cm^3
# Si number density = 19.723197 Si / 1000 Ang^3
#
#
#
# Elastic Constant Matrix: (Units=GPa)
#
#
# Indices 1 2 3 4 5 6 
#
# 1 94.3472 31.9520 27.9721 0.0000 0.0000 0.0000
# 2 31.9520 91.9525 17.8792 0.0000 0.0000 0.0000
# 3 27.9721 17.8792 65.8434 0.0000 0.0000 0.0000
# 4 0.0000 0.0000 0.0000 11.7635 0.0000 0.0000
# 5 0.0000 0.0000 0.0000 0.0000 21.9047 0.0000
# 6 0.0000 0.0000 0.0000 0.0000 0.0000 41.4808
#
#
#
# Elastic Compliance Matrix: (Units=1/GPa)
#
#
# Indices 1 2 3 4 5 6 
#
# 1 0.013218 -0.003696 -0.004612 0.000000 0.000000 0.000000
# 2 -0.003696 0.012515 -0.001828 0.000000 0.000000 0.000000
# 3 -0.004612 -0.001828 0.017643 0.000000 0.000000 0.000000
# 4 0.000000 0.000000 0.000000 0.085008 0.000000 0.000000
# 5 0.000000 0.000000 0.000000 0.000000 0.045652 0.000000
# 6 0.000000 0.000000 0.000000 0.000000 0.000000 0.024108
#
#
# Mechanical properties :
#
#
# Convention : Reuss Voigt Hill
#
# Bulk Modulus (GPa) = 43.28239 45.30551 44.29395
# Shear Modulus (GPa) = 22.11231 26.65248 24.38240
#
# Velocity S-wave (km/s) = 3.35196 3.68003 3.51982
# Velocity P-wave (km/s) = 6.08058 6.40916 6.24703
#
# Compressibility (1/GPa) = 0.02310409
#
# Stress axis : x y z
#
# Youngs Moduli (GPa) = 75.65275 79.90372 56.67931
#
# Poissons Ratio (x) = 0.29536 0.26139
# Poissons Ratio (y) = 0.27964 0.10361
# Poissons Ratio (z) = 0.34889 0.14606
#
# Static dielectric constant tensor:
#      x y z
#    x 3.545860 0.000000 0.000000 
#    y 0.000000 3.632960 0.000000 
#    z 0.000000 0.000000 3.514050 
# 
# 
# High freq. dielectric constant tensor:
#      x y z
#    x 1.769090 0.000000 0.000000 
#    y 0.000000 1.760730 0.000000 
#    z 0.000000 0.000000 1.759110 
# 
# From -- ./inp_files/43212.got.cif
#   From: 2010.03.12/outbox.cif.g09.slc.cpg/sg72_22_cif.got.tgz:43212.got - 2010.04.16 14:54:00.
