data_PCOD8292471
_publ_section_title
;
Structure prediction by ZEFSAII (Michael W. Deem and Ramdas Pophale) SiO2 
 PCOD8292471
Probable space group: I M M M
;
_chemical_formula_sum "Si O2"
_cell_formula_units_Z 88
_cell_length_a 8.744206
_cell_length_b 27.028764
_cell_length_c 18.173551
_cell_angle_alpha 90.000000
_cell_angle_beta 90.000000
_cell_angle_gamma 90.000000
_cell_volume 4295.229371
_symmetry_space_group_name_H-M "I M M M"
_symmetry_group_IT_number 71
_symmetry_cell_setting 'orthorhombic'
loop_
_space_group_symop_operation_xyz
x,y,z
-x,-y,z
x,-y,-z
-x,y,-z
-x,-y,-z
x,y,-z
-x,y,z
x,-y,z
1/2+x,1/2+y,1/2+z
1/2-x,1/2-y,1/2+z
1/2+x,1/2-y,1/2-z
1/2-x,1/2+y,1/2-z
1/2-x,1/2-y,1/2-z
1/2+x,1/2+y,1/2-z
1/2-x,1/2+y,1/2+z
1/2+x,1/2-y,1/2+z
loop_
_atom_site_type_symbol
_atom_site_label
_atom_site_fract_x
_atom_site_fract_y
_atom_site_fract_z
Si Si1 0.670321 0.055315 0.727270
Si Si2 0.320159 0.693496 0.921234
Si Si3 0.320297 0.615745 0.646928
Si Si4 0.681649 0.557365 0.500000
Si Si5 0.178714 0.084558 0.414942
Si Si6 0.181773 0.277750 0.680712
O O1 0.500000 0.078939 0.729439
O O2 0.784272 0.084611 0.780236
O O3 0.729179 0.051546 0.642868
O O4 0.664147 0.000000 0.758070
O O5 0.500000 0.699098 0.929381
O O6 0.286140 0.640180 0.885206
O O7 0.254791 0.740843 0.880915
O O8 0.239347 0.693395 0.000000
O O9 0.500000 0.623967 0.641316
O O10 0.260555 0.587135 0.573105
O O11 0.242163 0.668614 0.658749
O O12 0.743209 0.500000 0.500000
O O13 0.500000 0.555544 0.500000
O O14 0.232748 0.076499 0.500000
O O15 0.000000 0.071884 0.410343
O O16 0.250000 0.250000 0.750000
O O17 0.000000 0.280188 0.688201
#
# Coordination Sequence:
#
# PCOD8292471 Si02
#       6
#    16  16  16   8  16  16
#     4  11  24  40  58  83 116 153 198 252 307 363
#     4   8  16  32  54  79 108 145 185 225 271 328
#     4  11  23  40  63  89 120 158 204 256 312 377
#     4   9  20  40  65  91 119 157 209 269 328 383
#     4   9  18  35  60  88 117 153 200 246 290 349
#     4  11  22  36  58  87 121 158 198 244 295 355
#
# _framework density 20.487846000000001
#
# number of rings (size 3 to 8) (size 9 to 14) (size 15 to 20)
#    0.000    2.091    0.000    4.364    1.273    4.364 
#    0.000    4.091    0.000    5.455    0.000    0.000 
#    0.000    0.000    0.000    0.000    0.000    0.000 
#
# Total GULP energy -545095.502060 kJ/mol
# GULP energy per Si atom -12388.534138 kJ/mol
# Density = 2.044121 g / cm^3
# Si number density = 20.487846 Si / 1000 Ang^3
#
#
#
# Elastic Constant Matrix: (Units=GPa)
#
#
# Indices 1 2 3 4 5 6 
#
# 1 63.5997 26.3606 27.4726 0.0001 0.0000 0.0000
# 2 26.3606 119.5442 46.1926 0.0001 0.0000 0.0000
# 3 27.4726 46.1926 113.2585 0.0004 0.0000 0.0000
# 4 0.0001 0.0001 0.0004 34.6359 0.0000 0.0000
# 5 0.0000 0.0000 0.0000 0.0000 22.0289 0.0000
# 6 0.0000 0.0000 0.0000 0.0000 0.0000 27.6733
#
#
#
# Elastic Compliance Matrix: (Units=1/GPa)
#
#
# Indices 1 2 3 4 5 6 
#
# 1 0.018297 -0.002754 -0.003315 0.000000 0.000000 0.000000
# 2 -0.002754 0.010344 -0.003551 0.000000 0.000000 0.000000
# 3 -0.003315 -0.003551 0.011082 0.000000 0.000000 0.000000
# 4 0.000000 0.000000 0.000000 0.028872 0.000000 0.000000
# 5 0.000000 0.000000 0.000000 0.000000 0.045395 0.000000
# 6 0.000000 0.000000 0.000000 0.000000 0.000000 0.036136
#
#
# Mechanical properties :
#
#
# Convention : Reuss Voigt Hill
#
# Bulk Modulus (GPa) = 48.82004 55.16155 51.99080
# Shear Modulus (GPa) = 28.37802 29.95940 29.16871
#
# Velocity S-wave (km/s) = 3.72575 3.82815 3.77730
# Velocity P-wave (km/s) = 6.51067 6.82072 6.66749
#
# Compressibility (1/GPa) = 0.02048339
#
# Stress axis : x y z
#
# Youngs Moduli (GPa) = 54.65483 96.67006 90.23817
#
# Poissons Ratio (x) = 0.26619 0.29914
# Poissons Ratio (y) = 0.15050 0.32044
# Poissons Ratio (z) = 0.18118 0.34328
#
# Static dielectric constant tensor:
#      x y z
#    x 3.237580 0.000000 0.000000 
#    y 0.000000 3.959690 0.000000 
#    z 0.000000 0.000000 4.075970 
# 
# 
# High freq. dielectric constant tensor:
#      x y z
#    x 1.773860 0.000000 0.000000 
#    y 0.000000 1.815480 0.000000 
#    z 0.000000 0.000000 1.810610 
# 
# From -- ./inp_files/42449.got.cif
#   From: 2010.06.25/outbox.cif.g09.slc.cpg/sg71_22_cif.got.tgz:42449.got - 2010.06.28 04:59:45.
