data_PCOD8292046
_publ_section_title
;
Structure prediction by ZEFSAII (Michael W. Deem and Ramdas Pophale) SiO2 
 PCOD8292046
Probable space group: I M M M
;
_chemical_formula_sum "Si O2"
_cell_formula_units_Z 72
_cell_length_a 7.996990
_cell_length_b 14.761587
_cell_length_c 38.297938
_cell_angle_alpha 90.000000
_cell_angle_beta 90.000000
_cell_angle_gamma 90.000000
_cell_volume 4521.005081
_symmetry_space_group_name_H-M "I M M M"
_symmetry_group_IT_number 71
_symmetry_cell_setting 'orthorhombic'
loop_
_space_group_symop_operation_xyz
x,y,z
-x,-y,z
x,-y,-z
-x,y,-z
-x,-y,-z
x,y,-z
-x,y,z
x,-y,z
1/2+x,1/2+y,1/2+z
1/2-x,1/2-y,1/2+z
1/2+x,1/2-y,1/2-z
1/2-x,1/2+y,1/2-z
1/2-x,1/2-y,1/2-z
1/2+x,1/2+y,1/2-z
1/2-x,1/2+y,1/2+z
1/2+x,1/2-y,1/2+z
loop_
_atom_site_type_symbol
_atom_site_label
_atom_site_fract_x
_atom_site_fract_y
_atom_site_fract_z
Si Si1 0.681979 0.500000 0.298720
Si Si2 0.810232 0.336716 0.661427
Si Si3 0.000000 0.892814 0.038894
Si Si4 0.813263 0.500000 0.226712
Si Si5 0.310317 0.894008 0.085586
Si Si6 0.801595 0.303011 0.784998
O O1 0.500000 0.500000 0.280566
O O2 0.691015 0.588027 0.322612
O O3 0.820869 0.500000 0.268821
O O4 0.780043 0.332762 0.619902
O O5 0.769690 0.241493 0.679773
O O6 0.000000 0.365281 0.669079
O O7 0.829143 0.861021 0.057959
O O8 0.000000 0.000000 0.036613
O O9 0.000000 0.850601 0.000000
O O10 0.726138 0.594271 0.214785
O O11 0.000000 0.500000 0.211959
O O12 0.500000 0.878386 0.071057
O O13 0.286485 0.000000 0.095146
O O14 0.750000 0.250000 0.750000
O O15 0.000000 0.305917 0.785997
#
# Coordination Sequence:
#
# PCOD8292046 Si02
#       6
#     8  16   8   8  16  16
#     4  12  22  28  48  70  86 117 159 204 246 288
#     4  11  21  33  47  67  94 122 157 206 248 282
#     4   9  18  30  46  68  96 127 161 197 231 278
#     4  10  22  38  48  60  92 122 153 202 251 294
#     4   9  18  30  46  67  94 126 158 194 237 279
#     4  11  22  34  49  67  88 121 159 200 247 293
#
# _framework density 15.925661
#
# number of rings (size 3 to 8) (size 9 to 14) (size 15 to 20)
#    0.000    1.667    3.333    2.333    3.111    1.333 
#    0.000    2.222    0.000    0.000    0.000    0.000 
#    0.000    0.000    0.000    2.000    0.000    8.889 
#
# Total GULP energy -446202.677959 kJ/mol
# GULP energy per Si atom -12394.518832 kJ/mol
# Density = 1.588941 g / cm^3
# Si number density = 15.925661 Si / 1000 Ang^3
#
#
#
# Elastic Constant Matrix: (Units=GPa)
#
#
# Indices 1 2 3 4 5 6 
#
# 1 82.7630 22.1607 51.0882 0.0000 0.0000 0.0000
# 2 22.1607 94.1674 43.3170 0.0000 0.0000 0.0000
# 3 51.0882 43.3170 107.3989 0.0000 0.0000 0.0000
# 4 0.0000 0.0000 0.0000 12.7224 0.0000 0.0000
# 5 0.0000 0.0000 0.0000 0.0000 24.9651 0.0000
# 6 0.0000 0.0000 0.0000 0.0000 0.0000 14.0394
#
#
#
# Elastic Compliance Matrix: (Units=1/GPa)
#
#
# Indices 1 2 3 4 5 6 
#
# 1 0.017115 -0.000347 -0.008001 0.000000 0.000000 0.000000
# 2 -0.000347 0.013045 -0.005097 0.000000 0.000000 0.000000
# 3 -0.008001 -0.005097 0.015173 0.000000 0.000000 0.000000
# 4 0.000000 0.000000 0.000000 0.078602 0.000000 0.000000
# 5 0.000000 0.000000 0.000000 0.000000 0.040056 0.000000
# 6 0.000000 0.000000 0.000000 0.000000 0.000000 0.071228
#
#
# Mechanical properties :
#
#
# Convention : Reuss Voigt Hill
#
# Bulk Modulus (GPa) = 54.22047 57.49569 55.85808
# Shear Modulus (GPa) = 18.63892 21.52960 20.08426
#
# Velocity S-wave (km/s) = 3.42478 3.68078 3.55509
# Velocity P-wave (km/s) = 7.05399 7.36513 7.21124
#
# Compressibility (1/GPa) = 0.01844322
#
# Stress axis : x y z
#
# Youngs Moduli (GPa) = 58.42950 76.65506 65.90772
#
# Poissons Ratio (x) = 0.02661 0.52734
# Poissons Ratio (y) = 0.02028 0.33590
# Poissons Ratio (z) = 0.46751 0.39067
#
# Static dielectric constant tensor:
#      x y z
#    x 3.155940 0.000000 0.000000 
#    y 0.000000 3.037100 0.000000 
#    z 0.000000 0.000000 3.034870 
# 
# 
# High freq. dielectric constant tensor:
#      x y z
#    x 1.629050 0.000000 0.000000 
#    y 0.000000 1.574660 0.000000 
#    z 0.000000 0.000000 1.583930 
# 
# From -- ./inp_files/6522.got.cif
#   From: 2010.06.25/outbox.cif.g09.slc.cpg/sg71_4_cif.got.tgz:6522.got - 2010.06.28 04:59:45.
