data_PCOD8292113
_publ_section_title
;
Structure prediction by ZEFSAII (Michael W. Deem and Ramdas Pophale) SiO2 
 PCOD8292113
Probable space group: I M M M
;
_chemical_formula_sum "Si O2"
_cell_formula_units_Z 96
_cell_length_a 19.002637
_cell_length_b 8.702850
_cell_length_c 29.710644
_cell_angle_alpha 90.000000
_cell_angle_beta 90.000000
_cell_angle_gamma 90.000000
_cell_volume 4913.460126
_symmetry_space_group_name_H-M "I M M M"
_symmetry_group_IT_number 71
_symmetry_cell_setting 'orthorhombic'
loop_
_space_group_symop_operation_xyz
x,y,z
-x,-y,z
x,-y,-z
-x,y,-z
-x,-y,-z
x,y,-z
-x,y,z
x,-y,z
1/2+x,1/2+y,1/2+z
1/2-x,1/2-y,1/2+z
1/2+x,1/2-y,1/2-z
1/2-x,1/2+y,1/2-z
1/2-x,1/2-y,1/2-z
1/2+x,1/2+y,1/2-z
1/2-x,1/2+y,1/2+z
1/2+x,1/2-y,1/2+z
loop_
_atom_site_type_symbol
_atom_site_label
_atom_site_fract_x
_atom_site_fract_y
_atom_site_fract_z
Si Si1 0.081063 0.828396 0.948962
Si Si2 0.080610 0.320262 0.206029
Si Si3 0.920454 0.682454 0.449687
Si Si4 0.181270 0.819769 0.726161
Si Si5 0.827902 0.323886 0.120145
Si Si6 0.317601 0.180203 0.871340
O O1 0.123611 0.698457 0.923022
O O2 0.000000 0.783545 0.945366
O O3 0.093875 0.000000 0.929221
O O4 0.106984 0.824330 0.000000
O O5 0.086448 0.500000 0.216717
O O6 0.110364 0.226002 0.248038
O O7 0.127084 0.273990 0.163297
O O8 0.000000 0.271621 0.197311
O O9 0.898109 0.740853 0.500000
O O10 0.917018 0.500000 0.449514
O O11 0.868890 0.746386 0.410633
O O12 0.000000 0.737924 0.439106
O O13 0.250000 0.750000 0.750000
O O14 0.168983 0.764862 0.675482
O O15 0.192756 0.000000 0.726136
O O16 0.803140 0.500000 0.123818
O O17 0.761938 0.212552 0.113998
O O18 0.329638 0.000000 0.864413
#
# Coordination Sequence:
#
# PCOD8292113 Si02
#       6
#    16  16  16  16  16  16
#     4   9  19  36  56  78 108 148 193 241 290 341
#     4  10  22  40  61  85 115 153 196 242 295 354
#     4   8  16  34  60  89 120 154 196 246 297 352
#     4  12  24  40  61  85 117 158 201 246 300 358
#     4  11  22  36  56  83 116 154 192 238 293 352
#     4  11  22  36  60  91 120 155 196 242 298 357
#
# _framework density 19.538167000000001
#
# number of rings (size 3 to 8) (size 9 to 14) (size 15 to 20)
#    0.000    1.833    1.667    4.000    0.000    3.667 
#    0.000    4.167    0.000    3.000    0.000    4.667 
#    0.000    0.000    0.000    0.000    0.000    0.000 
#
# Total GULP energy -595195.660121 kJ/mol
# GULP energy per Si atom -12399.909586 kJ/mol
# Density = 1.949370 g / cm^3
# Si number density = 19.538167 Si / 1000 Ang^3
#
#
#
# Elastic Constant Matrix: (Units=GPa)
#
#
# Indices 1 2 3 4 5 6 
#
# 1 117.6262 38.2086 80.5815 0.0000 0.0000 0.0000
# 2 38.2086 65.5065 42.0042 0.0000 0.0000 0.0000
# 3 80.5815 42.0042 147.4792 0.0000 0.0000 0.0000
# 4 0.0000 0.0000 0.0000 30.5301 0.0000 0.0000
# 5 0.0000 0.0000 0.0000 0.0000 45.5420 0.0000
# 6 0.0000 0.0000 0.0000 0.0000 0.0000 23.7107
#
#
#
# Elastic Compliance Matrix: (Units=1/GPa)
#
#
# Indices 1 2 3 4 5 6 
#
# 1 0.014441 -0.004115 -0.006718 0.000000 0.000000 0.000000
# 2 -0.004115 0.019849 -0.003405 0.000000 0.000000 0.000000
# 3 -0.006718 -0.003405 0.011421 0.000000 0.000000 0.000000
# 4 0.000000 0.000000 0.000000 0.032755 0.000000 0.000000
# 5 0.000000 0.000000 0.000000 0.000000 0.021958 0.000000
# 6 0.000000 0.000000 0.000000 0.000000 0.000000 0.042175
#
#
# Mechanical properties :
#
#
# Convention : Reuss Voigt Hill
#
# Bulk Modulus (GPa) = 58.02270 72.46672 65.24471
# Shear Modulus (GPa) = 28.27743 31.27773 29.77758
#
# Velocity S-wave (km/s) = 3.80846 4.00541 3.90817
# Velocity P-wave (km/s) = 7.00719 7.65254 7.33696
#
# Compressibility (1/GPa) = 0.01723463
#
# Stress axis : x y z
#
# Youngs Moduli (GPa) = 69.24922 50.37987 87.55685
#
# Poissons Ratio (x) = 0.20732 0.58822
# Poissons Ratio (y) = 0.28496 0.29812
# Poissons Ratio (z) = 0.46523 0.17154
#
# Static dielectric constant tensor:
#      x y z
#    x 3.694420 0.000000 0.000000 
#    y 0.000000 3.427880 0.000000 
#    z 0.000000 0.000000 3.788120 
# 
# 
# High freq. dielectric constant tensor:
#      x y z
#    x 1.762710 0.000000 0.000000 
#    y 0.000000 1.742990 0.000000 
#    z 0.000000 0.000000 1.770760 
# 
# From -- ./inp_files/66332.got.cif
#   From: 2010.06.25/outbox.cif.g09.slc.cpg/sg71_34_cif.got.tgz:66332.got - 2010.06.28 04:59:45.
