data_PCOD8292430
_publ_section_title
;
Structure prediction by ZEFSAII (Michael W. Deem and Ramdas Pophale) SiO2 
 PCOD8292430
Probable space group: I M M M
;
_chemical_formula_sum "Si O2"
_cell_formula_units_Z 104
_cell_length_a 19.998656
_cell_length_b 14.569277
_cell_length_c 17.702210
_cell_angle_alpha 90.000000
_cell_angle_beta 90.000000
_cell_angle_gamma 90.000000
_cell_volume 5157.821391
_symmetry_space_group_name_H-M "I M M M"
_symmetry_group_IT_number 71
_symmetry_cell_setting 'orthorhombic'
loop_
_space_group_symop_operation_xyz
x,y,z
-x,-y,z
x,-y,-z
-x,y,-z
-x,-y,-z
x,y,-z
-x,y,z
x,-y,z
1/2+x,1/2+y,1/2+z
1/2-x,1/2-y,1/2+z
1/2+x,1/2-y,1/2-z
1/2-x,1/2+y,1/2-z
1/2-x,1/2-y,1/2-z
1/2+x,1/2+y,1/2-z
1/2-x,1/2+y,1/2+z
1/2+x,1/2-y,1/2+z
loop_
_atom_site_type_symbol
_atom_site_label
_atom_site_fract_x
_atom_site_fract_y
_atom_site_fract_z
Si Si1 0.200782 0.399629 0.638428
Si Si2 0.076188 0.105151 0.157793
Si Si3 0.185414 0.765558 0.912564
Si Si4 0.624428 0.655923 0.182195
Si Si5 0.073973 0.000000 0.588055
Si Si6 0.575815 0.821056 0.914534
Si Si7 0.774358 0.607207 0.807533
O O1 0.234304 0.500000 0.626891
O O2 0.246893 0.321666 0.602287
O O3 0.128955 0.402991 0.595798
O O4 0.188809 0.382840 0.727496
O O5 0.121942 0.173647 0.110244
O O6 0.080560 0.127047 0.246406
O O7 0.000000 0.119226 0.131337
O O8 0.099035 0.000000 0.143776
O O9 0.185393 0.668505 0.868117
O O10 0.180479 0.740296 0.000000
O O11 0.614687 0.588046 0.112791
O O12 0.599994 0.752189 0.150492
O O13 0.701776 0.652895 0.205368
O O14 0.068062 0.000000 0.500000
O O15 0.000000 0.000000 0.624638
O O16 0.500000 0.853813 0.897949
O O17 0.579778 0.780790 0.000000
O O18 0.770575 0.500000 0.833410
#
# Coordination Sequence:
#
# PCOD8292430 Si02
#       7
#    16  16  16  16   8  16  16
#     4  11  23  41  65  89 119 163 212 259 307 364
#     4  11  23  40  65  95 125 162 209 256 309 372
#     4  12  25  41  64  92 126 164 204 256 316 371
#     4  12  20  37  59  87 124 166 206 252 305 364
#     4  11  22  32  50  84 125 165 202 245 303 371
#     4  11  24  39  57  87 127 168 208 252 306 369
#     4  11  23  42  66  92 123 159 208 263 307 364
#
# _framework density 20.163551999999999
#
# number of rings (size 3 to 8) (size 9 to 14) (size 15 to 20)
#    0.000    0.692    4.615    4.154    0.000    4.923 
#    0.000    1.538    0.000    1.385    0.000    1.077 
#    0.000    0.000    0.000    0.000    0.000    0.000 
#
# Total GULP energy -644743.423429 kJ/mol
# GULP energy per Si atom -12398.911989 kJ/mol
# Density = 2.011766 g / cm^3
# Si number density = 20.163552 Si / 1000 Ang^3
#
#
#
# Elastic Constant Matrix: (Units=GPa)
#
#
# Indices 1 2 3 4 5 6 
#
# 1 114.6448 33.2363 38.9763 0.0000 0.0000 0.0000
# 2 33.2363 78.9123 29.9655 0.0000 0.0000 0.0000
# 3 38.9763 29.9655 95.9945 0.0000 0.0000 0.0000
# 4 0.0000 0.0000 0.0000 30.5289 0.0000 0.0000
# 5 0.0000 0.0000 0.0000 0.0000 29.1323 0.0000
# 6 0.0000 0.0000 0.0000 0.0000 0.0000 31.9298
#
#
#
# Elastic Compliance Matrix: (Units=1/GPa)
#
#
# Indices 1 2 3 4 5 6 
#
# 1 0.010818 -0.003277 -0.003370 0.000000 0.000000 0.000000
# 2 -0.003277 0.015369 -0.003467 0.000000 0.000000 0.000000
# 3 -0.003370 -0.003467 0.012868 0.000000 0.000000 0.000000
# 4 0.000000 0.000000 0.000000 0.032756 0.000000 0.000000
# 5 0.000000 0.000000 0.000000 0.000000 0.034326 0.000000
# 6 0.000000 0.000000 0.000000 0.000000 0.000000 0.031319
#
#
# Mechanical properties :
#
#
# Convention : Reuss Voigt Hill
#
# Bulk Modulus (GPa) = 53.11284 54.87864 53.99574
# Shear Modulus (GPa) = 30.49555 30.80978 30.65267
#
# Velocity S-wave (km/s) = 3.89319 3.91320 3.90321
# Velocity P-wave (km/s) = 6.82696 6.90604 6.86661
#
# Compressibility (1/GPa) = 0.01882784
#
# Stress axis : x y z
#
# Youngs Moduli (GPa) = 92.43740 65.06601 77.71415
#
# Poissons Ratio (x) = 0.21321 0.26186
# Poissons Ratio (y) = 0.30290 0.26944
# Poissons Ratio (z) = 0.31147 0.22559
#
# Static dielectric constant tensor:
#      x y z
#    x 3.777320 0.000000 0.000000 
#    y 0.000000 3.693370 0.000000 
#    z 0.000000 0.000000 3.658720 
# 
# 
# High freq. dielectric constant tensor:
#      x y z
#    x 1.783010 0.000000 0.000000 
#    y 0.000000 1.787980 0.000000 
#    z 0.000000 0.000000 1.787050 
# 
# From -- ./inp_files/47319.got.cif
#   From: 2010.06.25/outbox.cif.g09.slc.cpg/sg71_24_cif.got.tgz:47319.got - 2010.06.28 04:59:45.
