data_PCOD8292205
_publ_section_title
;
Structure prediction by ZEFSAII (Michael W. Deem and Ramdas Pophale) SiO2 
 PCOD8292205
Probable space group: I M M M
;
_chemical_formula_sum "Si O2"
_cell_formula_units_Z 52
_cell_length_a 12.079699
_cell_length_b 13.287689
_cell_length_c 12.620268
_cell_angle_alpha 90.000000
_cell_angle_beta 90.000000
_cell_angle_gamma 90.000000
_cell_volume 2025.695415
_symmetry_space_group_name_H-M "I M M M"
_symmetry_group_IT_number 71
_symmetry_cell_setting 'orthorhombic'
loop_
_space_group_symop_operation_xyz
x,y,z
-x,-y,z
x,-y,-z
-x,y,-z
-x,-y,-z
x,y,-z
-x,y,z
x,-y,z
1/2+x,1/2+y,1/2+z
1/2-x,1/2-y,1/2+z
1/2+x,1/2-y,1/2-z
1/2-x,1/2+y,1/2-z
1/2-x,1/2-y,1/2-z
1/2+x,1/2+y,1/2-z
1/2-x,1/2+y,1/2+z
1/2+x,1/2-y,1/2+z
loop_
_atom_site_type_symbol
_atom_site_label
_atom_site_fract_x
_atom_site_fract_y
_atom_site_fract_z
Si Si1 0.211058 0.000000 0.500000
Si Si2 0.631689 0.113390 0.878103
Si Si3 0.372795 0.285712 0.279930
Si Si4 0.376834 0.817265 0.500000
Si Si5 0.125865 0.000000 0.272798
O O1 0.288020 0.096383 0.500000
O O2 0.131688 0.000000 0.600344
O O3 0.500000 0.115637 0.864036
O O4 0.682778 0.203353 0.802312
O O5 0.671780 0.000000 0.845245
O O6 0.664210 0.136368 0.000000
O O7 0.500000 0.293901 0.243681
O O8 0.360755 0.253208 0.399866
O O9 0.317722 0.397593 0.271419
O O10 0.500000 0.865713 0.500000
O O11 0.000000 0.000000 0.234399
#
# Coordination Sequence:
#
# PCOD8292205 Si02
#       5
#     4  16  16   8   8
#     4  12  26  40  64  98 132 172 202 276 324 374
#     4   8  14  25  46  80 118 157 202 253 310 363
#     4   9  19  36  62  91 124 166 210 264 313 378
#     4  10  23  42  65  95 128 170 217 259 319 380
#     4  10  23  42  65  95 128 170 217 259 319 380
#
# _framework density 25.670197000000002
#
# number of rings (size 3 to 8) (size 9 to 14) (size 15 to 20)
#    0.000    2.769    0.000    1.385    4.308    1.846 
#    0.000    3.077    0.000    0.000    0.000    0.000 
#    0.000    0.000    0.000    0.000    0.000    0.000 
#
# Total GULP energy -322465.415546 kJ/mol
# GULP energy per Si atom -12402.515983 kJ/mol
# Density = 2.561177 g / cm^3
# Si number density = 25.670197 Si / 1000 Ang^3
#
#
#
# Elastic Constant Matrix: (Units=GPa)
#
#
# Indices 1 2 3 4 5 6 
#
# 1 70.3077 57.8028 -3.4417 0.0000 0.0000 0.0000
# 2 57.8028 263.2382 122.0107 0.0001 0.0000 0.0000
# 3 -3.4417 122.0107 143.3602 0.0001 0.0000 0.0000
# 4 0.0000 0.0001 0.0001 50.8711 0.0000 0.0000
# 5 0.0000 0.0000 0.0000 0.0000 13.8471 0.0000
# 6 0.0000 0.0000 0.0000 0.0000 0.0000 42.6834
#
#
#
# Elastic Compliance Matrix: (Units=1/GPa)
#
#
# Indices 1 2 3 4 5 6 
#
# 1 0.021238 -0.008092 0.007397 0.000000 0.000000 0.000000
# 2 -0.008092 0.009357 -0.008158 0.000000 0.000000 0.000000
# 3 0.007397 -0.008158 0.014096 0.000000 0.000000 0.000000
# 4 0.000000 0.000000 0.000000 0.019658 0.000000 0.000000
# 5 0.000000 0.000000 0.000000 0.000000 0.072217 0.000000
# 6 0.000000 0.000000 0.000000 0.000000 0.000000 0.023428
#
#
# Mechanical properties :
#
#
# Convention : Reuss Voigt Hill
#
# Bulk Modulus (GPa) = 37.05779 92.18330 64.62055
# Shear Modulus (GPa) = 26.78182 41.51594 34.14888
#
# Velocity S-wave (km/s) = 3.23353 4.02591 3.65127
# Velocity P-wave (km/s) = 5.32995 7.58941 6.55773
#
# Compressibility (1/GPa) = 0.02698488
#
# Stress axis : x y z
#
# Youngs Moduli (GPa) = 47.08560 106.87537 70.94351
#
# Poissons Ratio (x) = 0.86482 -0.52475
# Poissons Ratio (y) = 0.38101 0.57872
# Poissons Ratio (z) = -0.34828 0.87184
#
# Static dielectric constant tensor:
#      x y z
#    x 5.056320 0.000000 0.000000 
#    y 0.000000 5.370720 0.000000 
#    z 0.000000 0.000000 4.357260 
# 
# 
# High freq. dielectric constant tensor:
#      x y z
#    x 2.082030 0.000000 0.000000 
#    y 0.000000 2.052420 0.000000 
#    z 0.000000 0.000000 2.014540 
# 
# From -- ./inp_files/33588.got.cif
#   From: 2010.06.25/outbox.cif.g09.slc.cpg/sg71_17_cif.got.tgz:33588.got - 2010.06.28 04:59:45.
