data_PCOD8292469
_publ_section_title
;
Structure prediction by ZEFSAII (Michael W. Deem and Ramdas Pophale) SiO2 
 PCOD8292469
Probable space group: I M M M
;
_chemical_formula_sum "Si O2"
_cell_formula_units_Z 72
_cell_length_a 14.035898
_cell_length_b 28.944514
_cell_length_c 9.210061
_cell_angle_alpha 90.000000
_cell_angle_beta 90.000000
_cell_angle_gamma 90.000000
_cell_volume 3741.700069
_symmetry_space_group_name_H-M "I M M M"
_symmetry_group_IT_number 71
_symmetry_cell_setting 'orthorhombic'
loop_
_space_group_symop_operation_xyz
x,y,z
-x,-y,z
x,-y,-z
-x,y,-z
-x,-y,-z
x,y,-z
-x,y,z
x,-y,z
1/2+x,1/2+y,1/2+z
1/2-x,1/2-y,1/2+z
1/2+x,1/2-y,1/2-z
1/2-x,1/2+y,1/2-z
1/2-x,1/2-y,1/2-z
1/2+x,1/2+y,1/2-z
1/2-x,1/2+y,1/2+z
1/2+x,1/2-y,1/2+z
loop_
_atom_site_type_symbol
_atom_site_label
_atom_site_fract_x
_atom_site_fract_y
_atom_site_fract_z
Si Si1 0.112194 0.000000 0.666807
Si Si2 0.891967 0.271039 0.828866
Si Si3 0.271722 0.316215 0.667021
Si Si4 0.892200 0.445742 0.163348
Si Si5 0.716020 0.419573 0.332366
O O1 0.150425 0.953630 0.740494
O O2 0.145609 0.000000 0.500000
O O3 0.000000 0.000000 0.682672
O O4 0.825589 0.310192 0.757864
O O5 0.851591 0.220618 0.784426
O O6 0.000000 0.275335 0.770200
O O7 0.889549 0.278408 0.000000
O O8 0.243420 0.309109 0.500000
O O9 0.317485 0.366818 0.691852
O O10 0.872714 0.500000 0.169426
O O11 0.824988 0.421357 0.279624
O O12 0.000000 0.433971 0.207784
O O13 0.871525 0.427784 0.000000
O O14 0.710171 0.434338 0.500000
#
# Coordination Sequence:
#
# PCOD8292469 Si02
#       5
#     8  16  16  16  16
#     4  11  25  43  60  79 108 147 189 232 274 319
#     4   9  18  35  58  81 107 143 184 223 267 323
#     4   9  20  36  54  81 114 144 177 222 275 326
#     4   9  18  33  53  76 105 144 184 222 269 323
#     4  11  22  36  57  84 113 146 184 229 279 327
#
# _framework density 19.24259
#
# number of rings (size 3 to 8) (size 9 to 14) (size 15 to 20)
#    0.000    2.333    1.111    1.667    0.000    5.333 
#    0.000    7.778    0.000    0.000    0.000    0.000 
#    0.000    0.000    0.000    0.000    0.000    0.000 
#
# Total GULP energy -446412.918516 kJ/mol
# GULP energy per Si atom -12400.358848 kJ/mol
# Density = 1.919879 g / cm^3
# Si number density = 19.242590 Si / 1000 Ang^3
#
#
#
# Elastic Constant Matrix: (Units=GPa)
#
#
# Indices 1 2 3 4 5 6 
#
# 1 87.2038 33.5439 41.4826 -0.0001 0.0006 -0.0001
# 2 33.5439 94.5582 46.0238 0.0014 0.0001 -0.0001
# 3 41.4826 46.0238 88.4463 0.0014 -0.0041 0.0000
# 4 -0.0001 0.0014 0.0014 28.0286 -0.0002 0.0000
# 5 0.0006 0.0001 -0.0041 -0.0002 25.1232 0.0002
# 6 -0.0001 -0.0001 0.0000 0.0000 0.0002 15.4344
#
#
#
# Elastic Compliance Matrix: (Units=1/GPa)
#
#
# Indices 1 2 3 4 5 6 
#
# 1 0.015215 -0.002577 -0.005795 0.000000 -0.000001 0.000000
# 2 -0.002577 0.014599 -0.006388 0.000000 -0.000001 0.000000
# 3 -0.005795 -0.006388 0.017349 -0.000001 0.000003 0.000000
# 4 0.000000 0.000000 -0.000001 0.035678 0.000000 0.000000
# 5 -0.000001 -0.000001 0.000003 0.000000 0.039804 -0.000001
# 6 0.000000 0.000000 0.000000 0.000000 -0.000001 0.064790
#
#
# Mechanical properties :
#
#
# Convention : Reuss Voigt Hill
#
# Bulk Modulus (GPa) = 56.68219 56.92322 56.80271
# Shear Modulus (GPa) = 22.43801 23.66110 23.04955
#
# Velocity S-wave (km/s) = 3.41847 3.51040 3.46474
# Velocity P-wave (km/s) = 6.71579 6.78798 6.75198
#
# Compressibility (1/GPa) = 0.01764222
#
# Stress axis : x y z
#
# Youngs Moduli (GPa) = 65.72262 68.49858 57.64181
#
# Poissons Ratio (x) = 0.17651 0.33406
# Poissons Ratio (y) = 0.16936 0.36822
# Poissons Ratio (z) = 0.38089 0.43757
#
# Static dielectric constant tensor:
#      x y z
#    x 3.559260 0.000000 0.000010 
#    y 0.000000 3.519370 0.000000 
#    z 0.000010 0.000000 3.525030 
# 
# 
# High freq. dielectric constant tensor:
#      x y z
#    x 1.744500 0.000000 0.000000 
#    y 0.000000 1.748810 0.000000 
#    z 0.000000 0.000000 1.745950 
# 
# From -- ./inp_files/6101.got.cif
#   From: 2010.06.25/outbox.cif.g09.slc.cpg/sg71_4_cif.got.tgz:6101.got - 2010.06.28 04:59:45.
