data_PCOD8292288
_publ_section_title
;
Structure prediction by ZEFSAII (Michael W. Deem and Ramdas Pophale) SiO2 
 PCOD8292288
Probable space group: I M M M
;
_chemical_formula_sum "Si O2"
_cell_formula_units_Z 96
_cell_length_a 9.080578
_cell_length_b 19.778331
_cell_length_c 30.832353
_cell_angle_alpha 90.000000
_cell_angle_beta 90.000000
_cell_angle_gamma 90.000000
_cell_volume 5537.449819
_symmetry_space_group_name_H-M "I M M M"
_symmetry_group_IT_number 71
_symmetry_cell_setting 'orthorhombic'
loop_
_space_group_symop_operation_xyz
x,y,z
-x,-y,z
x,-y,-z
-x,y,-z
-x,-y,-z
x,y,-z
-x,y,z
x,-y,z
1/2+x,1/2+y,1/2+z
1/2-x,1/2-y,1/2+z
1/2+x,1/2-y,1/2-z
1/2-x,1/2+y,1/2-z
1/2-x,1/2-y,1/2-z
1/2+x,1/2+y,1/2-z
1/2-x,1/2+y,1/2+z
1/2+x,1/2-y,1/2+z
loop_
_atom_site_type_symbol
_atom_site_label
_atom_site_fract_x
_atom_site_fract_y
_atom_site_fract_z
Si Si1 0.335353 0.073626 0.551463
Si Si2 0.825279 0.289925 0.627613
Si Si3 0.325212 0.926912 0.836327
Si Si4 0.328022 0.923374 0.736805
Si Si5 0.325827 0.704843 0.048729
Si Si6 0.174968 0.792253 0.288209
O O1 0.335628 0.072078 0.500000
O O2 0.500000 0.087992 0.568760
O O3 0.228416 0.132874 0.567503
O O4 0.281089 0.000000 0.568799
O O5 0.759936 0.365533 0.634916
O O6 0.766163 0.262437 0.581403
O O7 0.776023 0.240995 0.666441
O O8 0.000000 0.293593 0.626663
O O9 0.500000 0.927666 0.839180
O O10 0.279639 0.915422 0.786683
O O11 0.264076 0.000000 0.852695
O O12 0.500000 0.906571 0.731013
O O13 0.232192 0.869517 0.709991
O O14 0.294703 0.000000 0.720729
O O15 0.500000 0.702234 0.048512
O O16 0.265721 0.719621 0.000000
O O17 0.250000 0.750000 0.250000
O O18 0.000000 0.790648 0.281686
#
# Coordination Sequence:
#
# PCOD8292288 Si02
#       6
#    16  16  16  16  16  16
#     4   8  14  26  44  64  86 113 146 186 230 272
#     4   9  17  29  45  67  94 122 153 189 231 279
#     4   8  13  24  45  68  88 116 152 183 216 267
#     4   9  17  31  50  70  94 126 161 193 230 280
#     4   9  17  29  46  67  90 118 153 193 231 267
#     4  11  20  31  48  69  96 126 156 193 236 281
#
# _framework density 17.336500000000001
#
# number of rings (size 3 to 8) (size 9 to 14) (size 15 to 20)
#    0.000    3.000    1.667    2.000    0.000    0.667 
#    0.000    4.167    0.000    5.500    0.000    3.500 
#    0.000    0.000    0.000    4.167    0.000    4.333 
#
# Total GULP energy -594759.930015 kJ/mol
# GULP energy per Si atom -12390.831875 kJ/mol
# Density = 1.729704 g / cm^3
# Si number density = 17.336500 Si / 1000 Ang^3
#
#
#
# Elastic Constant Matrix: (Units=GPa)
#
#
# Indices 1 2 3 4 5 6 
#
# 1 29.6878 28.7293 20.4546 0.0000 0.0000 0.0000
# 2 28.7293 171.4985 69.5980 0.0000 0.0000 0.0000
# 3 20.4546 69.5980 83.2479 0.0000 0.0000 0.0000
# 4 0.0000 0.0000 0.0000 26.4827 0.0000 0.0000
# 5 0.0000 0.0000 0.0000 0.0000 12.8095 0.0000
# 6 0.0000 0.0000 0.0000 0.0000 0.0000 22.9132
#
#
#
# Elastic Compliance Matrix: (Units=1/GPa)
#
#
# Indices 1 2 3 4 5 6 
#
# 1 0.042610 -0.004373 -0.006814 0.000000 0.000000 0.000000
# 2 -0.004373 0.009274 -0.006679 0.000000 0.000000 0.000000
# 3 -0.006814 -0.006679 0.019270 0.000000 0.000000 0.000000
# 4 0.000000 0.000000 0.000000 0.037760 0.000000 0.000000
# 5 0.000000 0.000000 0.000000 0.000000 0.078067 0.000000
# 6 0.000000 0.000000 0.000000 0.000000 0.000000 0.043643
#
#
# Mechanical properties :
#
#
# Convention : Reuss Voigt Hill
#
# Bulk Modulus (GPa) = 28.22990 57.99978 43.11484
# Shear Modulus (GPa) = 17.97502 23.48457 20.72980
#
# Velocity S-wave (km/s) = 3.22348 3.68452 3.46169
# Velocity P-wave (km/s) = 5.49302 7.18532 6.39540
#
# Compressibility (1/GPa) = 0.03542343
#
# Stress axis : x y z
#
# Youngs Moduli (GPa) = 23.46855 107.82913 51.89347
#
# Poissons Ratio (x) = 0.47152 0.35359
# Poissons Ratio (y) = 0.10262 0.34659
# Poissons Ratio (z) = 0.15991 0.72018
#
# Static dielectric constant tensor:
#      x y z
#    x 2.933300 0.000000 0.000000 
#    y 0.000000 3.880020 0.000000 
#    z 0.000000 0.000000 3.179550 
# 
# 
# High freq. dielectric constant tensor:
#      x y z
#    x 1.632750 0.000000 0.000000 
#    y 0.000000 1.684820 0.000000 
#    z 0.000000 0.000000 1.636260 
# 
# From -- ./inp_files/63209.got.cif
#   From: 2010.06.25/outbox.cif.g09.slc.cpg/sg71_32_cif.got.tgz:63209.got - 2010.06.28 04:59:45.
