data_PCOD8292133
_publ_section_title
;
Structure prediction by ZEFSAII (Michael W. Deem and Ramdas Pophale) SiO2 
 PCOD8292133
Probable space group: I M M M
;
_chemical_formula_sum "Si O2"
_cell_formula_units_Z 52
_cell_length_a 25.944858
_cell_length_b 10.046892
_cell_length_c 11.316140
_cell_angle_alpha 90.000000
_cell_angle_beta 90.000000
_cell_angle_gamma 90.000000
_cell_volume 2949.723741
_symmetry_space_group_name_H-M "I M M M"
_symmetry_group_IT_number 71
_symmetry_cell_setting 'orthorhombic'
loop_
_space_group_symop_operation_xyz
x,y,z
-x,-y,z
x,-y,-z
-x,y,-z
-x,-y,-z
x,y,-z
-x,y,z
x,-y,z
1/2+x,1/2+y,1/2+z
1/2-x,1/2-y,1/2+z
1/2+x,1/2-y,1/2-z
1/2-x,1/2+y,1/2-z
1/2-x,1/2-y,1/2-z
1/2+x,1/2+y,1/2-z
1/2-x,1/2+y,1/2+z
1/2+x,1/2-y,1/2+z
loop_
_atom_site_type_symbol
_atom_site_label
_atom_site_fract_x
_atom_site_fract_y
_atom_site_fract_z
Si Si1 0.249485 0.000000 0.000000
Si Si2 0.603477 0.253977 0.235259
Si Si3 0.151443 0.353168 0.500000
Si Si4 0.560022 0.000000 0.359765
Si Si5 0.000000 0.153275 0.628137
Si Si6 0.349337 0.500000 0.369477
O O1 0.286223 0.869054 0.000000
O O2 0.213121 0.000000 0.883427
O O3 0.548487 0.311513 0.205225
O O4 0.635242 0.365329 0.304085
O O5 0.593062 0.125250 0.314974
O O6 0.634845 0.224524 0.116511
O O7 0.124874 0.500000 0.500000
O O8 0.500000 0.000000 0.313757
O O9 0.559915 0.000000 0.500000
O O10 0.000000 0.228236 0.500000
O O11 0.000000 0.000000 0.600984
O O12 0.375514 0.500000 0.500000
#
# Coordination Sequence:
#
# PCOD8292133 Si02
#       6
#     4  16   8   8   8   8
#     4   8  22  48  58  90 122 156 214 268 304 356
#     4  12  21  39  65  89 127 164 200 251 315 366
#     4  10  22  40  64  93 117 153 202 269 316 352
#     4  11  23  35  54  87 127 169 203 236 289 372
#     4  11  22  35  56  95 133 153 195 248 304 379
#     4  10  24  42  62  87 123 166 209 255 303 362
#
# _framework density 17.628771
#
# number of rings (size 3 to 8) (size 9 to 14) (size 15 to 20)
#    0.923    0.308    6.154    0.923    0.000    1.846 
#    0.000    3.077    0.000    0.000    0.000    0.000 
#    0.000    0.000    0.000    0.000    0.000    0.000 
#
# Total GULP energy -322243.321048 kJ/mol
# GULP energy per Si atom -12393.973886 kJ/mol
# Density = 1.758865 g / cm^3
# Si number density = 17.628771 Si / 1000 Ang^3
#
#
#
# Elastic Constant Matrix: (Units=GPa)
#
#
# Indices 1 2 3 4 5 6 
#
# 1 139.1326 54.6738 58.4849 0.0000 0.0000 0.0000
# 2 54.6738 128.3363 65.4383 0.0000 0.0000 0.0000
# 3 58.4849 65.4383 131.0086 0.0000 0.0000 0.0000
# 4 0.0000 0.0000 0.0000 39.8569 0.0000 0.0000
# 5 0.0000 0.0000 0.0000 0.0000 -43.2554 0.0000
# 6 0.0000 0.0000 0.0000 0.0000 0.0000 -8.9200
#
#
#
# Elastic Compliance Matrix: (Units=1/GPa)
#
#
# Indices 1 2 3 4 5 6 
#
# 1 0.009412 -0.002505 -0.002950 0.000000 0.000000 0.000000
# 2 -0.002505 0.011122 -0.004437 0.000000 0.000000 0.000000
# 3 -0.002950 -0.004437 0.011166 0.000000 0.000000 0.000000
# 4 0.000000 0.000000 0.000000 0.025090 0.000000 0.000000
# 5 0.000000 0.000000 0.000000 0.000000 -0.023118 0.000000
# 6 0.000000 0.000000 0.000000 0.000000 0.000000 -0.112108
#
#
# Mechanical properties :
#
#
# Convention : Reuss Voigt Hill
#
# Bulk Modulus (GPa) = 83.92694 83.96350 83.94522
# Shear Modulus (GPa) = -91.44075 12.19501 -39.62287
#
# Velocity S-wave (km/s) = -7.20991 2.63300 -4.74606
# Velocity P-wave (km/s) = 4.64748 7.54822 4.20574
#
# Compressibility (1/GPa) = 0.01191513
#
# Stress axis : x y z
#
# Youngs Moduli (GPa) = 106.24644 89.91456 89.55497
#
# Poissons Ratio (x) = 0.22527 0.26422
# Poissons Ratio (y) = 0.26619 0.39734
# Poissons Ratio (z) = 0.31346 0.39893
#
# Static dielectric constant tensor:
#      x y z
#    x 3.178220 0.000000 0.000000 
#    y 0.000000 3.342850 0.000000 
#    z 0.000000 0.000000 3.603160 
# 
# 
# High freq. dielectric constant tensor:
#      x y z
#    x 1.675910 0.000000 0.000000 
#    y 0.000000 1.685390 0.000000 
#    z 0.000000 0.000000 1.691020 
# 
# From -- ./inp_files/28191.got.cif
#   From: 2010.06.25/outbox.cif.g09.slc.cpg/sg71_15_cif.got.tgz:28191.got - 2010.06.28 04:59:45.
