data_PCOD8292994
_publ_section_title
;
Structure prediction by ZEFSAII (Michael W. Deem and Ramdas Pophale) SiO2 
 PCOD8292994
Probable space group: I B A M
;
_chemical_formula_sum "Si O2"
_cell_formula_units_Z 112
_cell_length_a 17.610794
_cell_length_b 20.890297
_cell_length_c 18.027958
_cell_angle_alpha 90.000000
_cell_angle_beta 90.000000
_cell_angle_gamma 90.000000
_cell_volume 6632.390508
_symmetry_space_group_name_H-M "I B A M"
_symmetry_group_IT_number 72
_symmetry_cell_setting 'orthorhombic'
loop_
_space_group_symop_operation_xyz
x,y,z
-x,-y,z
x,-y,1/2-z
-x,y,1/2-z
-x,-y,-z
x,y,-z
-x,y,1/2+z
x,-y,1/2+z
1/2+x,1/2+y,1/2+z
1/2-x,1/2-y,1/2+z
1/2+x,1/2-y,-z
1/2-x,1/2+y,-z
1/2-x,1/2-y,1/2-z
1/2+x,1/2+y,1/2-z
1/2-x,1/2+y,z
1/2+x,1/2-y,z
loop_
_atom_site_type_symbol
_atom_site_label
_atom_site_fract_x
_atom_site_fract_y
_atom_site_fract_z
Si Si1 0.182243 0.119729 0.412637
Si Si2 0.274141 0.814264 0.657949
Si Si3 0.402834 0.748764 0.414275
Si Si4 0.303053 0.178951 0.318465
Si Si5 0.583761 0.497783 0.414120
Si Si6 0.634211 0.359829 0.085361
Si Si7 0.452556 0.253693 0.673179
O O1 0.196537 0.115359 0.500000
O O2 0.127164 0.178559 0.390563
O O3 0.266636 0.128150 0.376421
O O4 0.139664 0.056570 0.380412
O O5 0.357661 0.805587 0.625362
O O6 0.282576 0.848757 0.737338
O O7 0.237780 0.745231 0.667489
O O8 0.224014 0.854032 0.599937
O O9 0.392071 0.758385 0.500000
O O10 0.489644 0.759510 0.392969
O O11 0.393806 0.193554 0.323886
O O12 0.500000 0.500000 0.376773
O O13 0.573811 0.479515 0.500000
O O14 0.619144 0.566421 0.401176
O O15 0.590469 0.318636 0.147998
O O16 0.614418 0.339415 0.000000
O O17 0.500000 0.263203 0.750000
#
# Coordination Sequence:
#
# PCOD8292994 Si02
#       7
#    16  16  16  16  16  16  16
#     4   9  18  31  51  72  98 136 173 206 242 296
#     4   9  17  31  47  67  94 130 161 203 250 295
#     4  10  18  29  49  73  96 126 168 204 242 299
#     4   9  18  31  48  66  98 132 164 201 254 305
#     4   9  17  32  50  72 100 133 168 202 243 284
#     4  10  20  32  50  71  98 133 169 206 241 293
#     4  11  20  31  48  73 103 135 160 203 262 305
#
# _framework density 16.886821000000001
#
# number of rings (size 3 to 8) (size 9 to 14) (size 15 to 20)
#    0.000    2.429    1.429    1.714    2.000    6.286 
#    0.000    0.714    0.000    0.000    0.000    1.000 
#    0.000    4.571    0.000    0.000    0.000    0.000 
#
# Total GULP energy -693855.095126 kJ/mol
# GULP energy per Si atom -12390.269556 kJ/mol
# Density = 1.684839 g / cm^3
# Si number density = 16.886821 Si / 1000 Ang^3
#
#
#
# Elastic Constant Matrix: (Units=GPa)
#
#
# Indices 1 2 3 4 5 6 
#
# 1 107.8564 51.8487 35.8224 0.0000 0.0000 0.0000
# 2 51.8487 65.8611 37.7425 0.0000 0.0000 0.0000
# 3 35.8224 37.7425 58.7408 0.0000 0.0000 0.0000
# 4 0.0000 0.0000 0.0000 11.7561 0.0000 0.0000
# 5 0.0000 0.0000 0.0000 0.0000 34.0941 0.0000
# 6 0.0000 0.0000 0.0000 0.0000 0.0000 25.9336
#
#
#
# Elastic Compliance Matrix: (Units=1/GPa)
#
#
# Indices 1 2 3 4 5 6 
#
# 1 0.015144 -0.010493 -0.002493 0.000000 0.000000 0.000000
# 2 -0.010493 0.031303 -0.013714 0.000000 0.000000 0.000000
# 3 -0.002493 -0.013714 0.027356 0.000000 0.000000 0.000000
# 4 0.000000 0.000000 0.000000 0.085062 0.000000 0.000000
# 5 0.000000 0.000000 0.000000 0.000000 0.029331 0.000000
# 6 0.000000 0.000000 0.000000 0.000000 0.000000 0.038560
#
#
# Mechanical properties :
#
#
# Convention : Reuss Voigt Hill
#
# Bulk Modulus (GPa) = 49.01393 53.69839 51.35616
# Shear Modulus (GPa) = 17.42421 21.49308 19.45864
#
# Velocity S-wave (km/s) = 3.21568 3.57146 3.39823
# Velocity P-wave (km/s) = 6.54794 6.99108 6.77313
#
# Compressibility (1/GPa) = 0.02040236
#
# Stress axis : x y z
#
# Youngs Moduli (GPa) = 66.03289 31.94575 36.55523
#
# Poissons Ratio (x) = 0.33521 0.09114
# Poissons Ratio (y) = 0.69290 0.50131
# Poissons Ratio (z) = 0.16463 0.43810
#
# Static dielectric constant tensor:
#      x y z
#    x 3.543270 0.000000 0.000000 
#    y 0.000000 2.911590 0.000000 
#    z 0.000000 0.000000 3.243000 
# 
# 
# High freq. dielectric constant tensor:
#      x y z
#    x 1.657050 0.000000 0.000000 
#    y 0.000000 1.604340 0.000000 
#    z 0.000000 0.000000 1.651340 
# 
# From -- ./inp_files/31890.got.cif
#   From: 2010.03.12/outbox.cif.g09.slc.cpg/sg72_16_cif.got.tgz:31890.got - 2010.04.16 14:54:00.
