data_PCOD8292952
_publ_section_title
;
Structure prediction by ZEFSAII (Michael W. Deem and Ramdas Pophale) SiO2 
 PCOD8292952
Probable space group: I B A M
;
_chemical_formula_sum "Si O2"
_cell_formula_units_Z 96
_cell_length_a 28.702736
_cell_length_b 25.796181
_cell_length_c 8.982785
_cell_angle_alpha 90.000000
_cell_angle_beta 90.000000
_cell_angle_gamma 90.000000
_cell_volume 6651.042410
_symmetry_space_group_name_H-M "I B A M"
_symmetry_group_IT_number 72
_symmetry_cell_setting 'orthorhombic'
loop_
_space_group_symop_operation_xyz
x,y,z
-x,-y,z
x,-y,1/2-z
-x,y,1/2-z
-x,-y,-z
x,y,-z
-x,y,1/2+z
x,-y,1/2+z
1/2+x,1/2+y,1/2+z
1/2-x,1/2-y,1/2+z
1/2+x,1/2-y,-z
1/2-x,1/2+y,-z
1/2-x,1/2-y,1/2-z
1/2+x,1/2+y,1/2-z
1/2-x,1/2+y,z
1/2+x,1/2-y,z
loop_
_atom_site_type_symbol
_atom_site_label
_atom_site_fract_x
_atom_site_fract_y
_atom_site_fract_z
Si Si1 0.046448 0.601297 0.674061
Si Si2 0.857425 0.553519 0.824395
Si Si3 0.279240 0.705875 0.172260
Si Si4 0.860552 0.749915 0.325306
Si Si5 0.192681 0.643682 0.169211
Si Si6 0.952622 0.279016 0.324060
O O1 0.039578 0.595283 0.500000
O O2 0.090898 0.569150 0.731429
O O3 0.054375 0.660896 0.719110
O O4 0.000000 0.578662 0.750000
O O5 0.842353 0.500000 0.750000
O O6 0.820763 0.597436 0.778547
O O7 0.855926 0.547419 0.000000
O O8 0.250000 0.750000 0.250000
O O9 0.329112 0.703501 0.255697
O O10 0.248388 0.653542 0.187410
O O11 0.287108 0.720064 0.000000
O O12 0.866115 0.759169 0.500000
O O13 0.836450 0.694986 0.288356
O O14 0.910475 0.753198 0.246638
O O15 0.181030 0.627649 0.000000
O O16 0.954352 0.270276 0.500000
O O17 0.000000 0.258082 0.250000
#
# Coordination Sequence:
#
# PCOD8292952 Si02
#       6
#    16  16  16  16  16  16
#     4   9  19  32  45  59  74  99 132 171 216 257
#     4  11  22  34  46  61  78 102 135 172 217 260
#     4   9  17  28  43  64  85 105 130 162 203 247
#     4  10  18  28  44  65  85 108 135 166 205 247
#     4   9  18  31  45  61  81 104 131 167 207 248
#     4  10  18  29  43  61  83 109 140 172 210 252
#
# _framework density 14.433827000000001
#
# number of rings (size 3 to 8) (size 9 to 14) (size 15 to 20)
#    0.000    2.333    1.667    3.000    0.000    5.667 
#    0.000    1.667    0.000    0.000    0.000    0.000 
#    0.000    0.000    0.000    0.000    0.000    0.833 
#
# Total GULP energy -595122.571414 kJ/mol
# GULP energy per Si atom -12398.386904 kJ/mol
# Density = 1.440098 g / cm^3
# Si number density = 14.433827 Si / 1000 Ang^3
#
#
#
# Elastic Constant Matrix: (Units=GPa)
#
#
# Indices 1 2 3 4 5 6 
#
# 1 104.2253 37.1053 51.3356 0.0000 0.0000 0.0000
# 2 37.1053 36.5956 26.8186 0.0000 0.0000 0.0000
# 3 51.3356 26.8186 80.1259 0.0000 0.0000 0.0000
# 4 0.0000 0.0000 0.0000 17.3512 0.0000 0.0000
# 5 0.0000 0.0000 0.0000 0.0000 29.6869 0.0000
# 6 0.0000 0.0000 0.0000 0.0000 0.0000 14.9324
#
#
#
# Elastic Compliance Matrix: (Units=1/GPa)
#
#
# Indices 1 2 3 4 5 6 
#
# 1 0.017555 -0.012663 -0.007009 0.000000 0.000000 0.000000
# 2 -0.012663 0.045341 -0.007063 0.000000 0.000000 0.000000
# 3 -0.007009 -0.007063 0.019335 0.000000 0.000000 0.000000
# 4 0.000000 0.000000 0.000000 0.057633 0.000000 0.000000
# 5 0.000000 0.000000 0.000000 0.000000 0.033685 0.000000
# 6 0.000000 0.000000 0.000000 0.000000 0.000000 0.066969
#
#
# Mechanical properties :
#
#
# Convention : Reuss Voigt Hill
#
# Bulk Modulus (GPa) = 34.76893 50.16285 42.46589
# Shear Modulus (GPa) = 16.47045 19.43991 17.95518
#
# Velocity S-wave (km/s) = 3.38168 3.67390 3.53082
# Velocity P-wave (km/s) = 6.27603 7.26814 6.79023
#
# Compressibility (1/GPa) = 0.02876131
#
# Stress axis : x y z
#
# Youngs Moduli (GPa) = 56.96393 22.05504 51.72029
#
# Poissons Ratio (x) = 0.27929 0.36250
# Poissons Ratio (y) = 0.72134 0.36529
# Poissons Ratio (z) = 0.39925 0.15577
#
# Static dielectric constant tensor:
#      x y z
#    x 3.040580 0.000000 0.000000 
#    y 0.000000 2.487760 0.000000 
#    z 0.000000 0.000000 2.933140 
# 
# 
# High freq. dielectric constant tensor:
#      x y z
#    x 1.551100 0.000000 0.000000 
#    y 0.000000 1.491180 0.000000 
#    z 0.000000 0.000000 1.568430 
# 
# From -- ./inp_files/7083.got.cif
#   From: 2010.03.12/outbox.cif.g09.slc.cpg/sg72_4_cif.got.tgz:7083.got - 2010.04.16 14:54:00.
