data_PCOD8292560
_publ_section_title
;
Structure prediction by ZEFSAII (Michael W. Deem and Ramdas Pophale) SiO2 
 PCOD8292560
Probable space group: I M M M
;
_chemical_formula_sum "Si O2"
_cell_formula_units_Z 72
_cell_length_a 17.539538
_cell_length_b 8.851376
_cell_length_c 23.205110
_cell_angle_alpha 90.000000
_cell_angle_beta 90.000000
_cell_angle_gamma 90.000000
_cell_volume 3602.571183
_symmetry_space_group_name_H-M "I M M M"
_symmetry_group_IT_number 71
_symmetry_cell_setting 'orthorhombic'
loop_
_space_group_symop_operation_xyz
x,y,z
-x,-y,z
x,-y,-z
-x,y,-z
-x,-y,-z
x,y,-z
-x,y,z
x,-y,z
1/2+x,1/2+y,1/2+z
1/2-x,1/2-y,1/2+z
1/2+x,1/2-y,1/2-z
1/2-x,1/2+y,1/2-z
1/2-x,1/2-y,1/2-z
1/2+x,1/2+y,1/2-z
1/2-x,1/2+y,1/2+z
1/2+x,1/2-y,1/2+z
loop_
_atom_site_type_symbol
_atom_site_label
_atom_site_fract_x
_atom_site_fract_y
_atom_site_fract_z
Si Si1 0.000000 0.169566 0.932009
Si Si2 0.645354 0.826861 0.619980
Si Si3 0.168426 0.673206 0.749390
Si Si4 0.588985 0.675028 0.144372
Si Si5 0.791074 0.321210 0.565885
O O1 0.074399 0.256802 0.912414
O O2 0.000000 0.000000 0.906262
O O3 0.000000 0.162520 0.000000
O O4 0.630392 0.813673 0.687977
O O5 0.721317 0.737886 0.603675
O O6 0.655015 0.000000 0.600834
O O7 0.178688 0.500000 0.730411
O O8 0.250000 0.750000 0.750000
O O9 0.112307 0.754398 0.705257
O O10 0.500000 0.700251 0.134461
O O11 0.611727 0.500000 0.145319
O O12 0.631101 0.754581 0.091252
O O13 0.782088 0.267692 0.500000
O O14 0.793569 0.500000 0.570461
#
# Coordination Sequence:
#
# PCOD8292560 Si02
#       5
#     8  16  16  16  16
#     4  11  25  43  63  91 129 171 214 261 314 373
#     4  11  24  41  64  95 127 165 212 260 316 378
#     4  11  23  40  65  94 126 162 206 256 312 374
#     4  11  25  43  64  94 129 167 212 261 317 375
#     4  11  24  42  66  94 124 164 212 260 316 380
#
# _framework density 19.985726
#
# number of rings (size 3 to 8) (size 9 to 14) (size 15 to 20)
#    0.000    1.000    2.222    3.667    1.556   10.222 
#    0.000    2.222    0.000    0.000    0.000    0.000 
#    0.000    0.000    0.000    0.000    0.000    0.000 
#
# Total GULP energy -446647.445384 kJ/mol
# GULP energy per Si atom -12406.873483 kJ/mol
# Density = 1.994024 g / cm^3
# Si number density = 19.985726 Si / 1000 Ang^3
#
#
#
# Elastic Constant Matrix: (Units=GPa)
#
#
# Indices 1 2 3 4 5 6 
#
# 1 100.0104 51.7229 26.8624 0.0000 0.0000 0.0000
# 2 51.7229 132.0423 48.2307 0.0000 0.0000 0.0000
# 3 26.8624 48.2307 92.4279 0.0000 0.0000 0.0000
# 4 0.0000 0.0000 0.0000 34.7772 0.0000 0.0000
# 5 0.0000 0.0000 0.0000 0.0000 36.4904 0.0000
# 6 0.0000 0.0000 0.0000 0.0000 0.0000 33.9774
#
#
#
# Elastic Compliance Matrix: (Units=1/GPa)
#
#
# Indices 1 2 3 4 5 6 
#
# 1 0.012674 -0.004471 -0.001350 0.000000 0.000000 0.000000
# 2 -0.004471 0.010934 -0.004406 0.000000 0.000000 0.000000
# 3 -0.001350 -0.004406 0.013511 0.000000 0.000000 0.000000
# 4 0.000000 0.000000 0.000000 0.028754 0.000000 0.000000
# 5 0.000000 0.000000 0.000000 0.000000 0.027404 0.000000
# 6 0.000000 0.000000 0.000000 0.000000 0.000000 0.029431
#
#
# Mechanical properties :
#
#
# Convention : Reuss Voigt Hill
#
# Bulk Modulus (GPa) = 60.01092 64.23474 62.12283
# Shear Modulus (GPa) = 33.62026 34.22665 33.92346
#
# Velocity S-wave (km/s) = 4.10593 4.14279 4.12440
# Velocity P-wave (km/s) = 7.25054 7.42251 7.33703
#
# Compressibility (1/GPa) = 0.01666363
#
# Stress axis : x y z
#
# Youngs Moduli (GPa) = 78.90072 91.45529 74.01441
#
# Poissons Ratio (x) = 0.40894 0.09993
# Poissons Ratio (y) = 0.35280 0.32612
# Poissons Ratio (z) = 0.10653 0.40297
#
# Static dielectric constant tensor:
#      x y z
#    x 3.536560 0.000000 0.000000 
#    y 0.000000 3.960640 0.000000 
#    z 0.000000 0.000000 3.865670 
# 
# 
# High freq. dielectric constant tensor:
#      x y z
#    x 1.785010 0.000000 0.000000 
#    y 0.000000 1.801220 0.000000 
#    z 0.000000 0.000000 1.792710 
# 
# From -- ./inp_files/47904.got.cif
#   From: 2010.06.25/outbox.cif.g09.slc.cpg/sg71_24_cif.got.tgz:47904.got - 2010.06.28 04:59:45.
