data_PCOD8292663
_publ_section_title
;
Structure prediction by ZEFSAII (Michael W. Deem and Ramdas Pophale) SiO2 
 PCOD8292663
Probable space group: I M M M
;
_chemical_formula_sum "Si O2"
_cell_formula_units_Z 96
_cell_length_a 32.333060
_cell_length_b 9.498244
_cell_length_c 19.030211
_cell_angle_alpha 90.000000
_cell_angle_beta 90.000000
_cell_angle_gamma 90.000000
_cell_volume 5844.316588
_symmetry_space_group_name_H-M "I M M M"
_symmetry_group_IT_number 71
_symmetry_cell_setting 'orthorhombic'
loop_
_space_group_symop_operation_xyz
x,y,z
-x,-y,z
x,-y,-z
-x,y,-z
-x,-y,-z
x,y,-z
-x,y,z
x,-y,z
1/2+x,1/2+y,1/2+z
1/2-x,1/2-y,1/2+z
1/2+x,1/2-y,1/2-z
1/2-x,1/2+y,1/2-z
1/2-x,1/2-y,1/2-z
1/2+x,1/2+y,1/2-z
1/2-x,1/2+y,1/2+z
1/2+x,1/2-y,1/2+z
loop_
_atom_site_type_symbol
_atom_site_label
_atom_site_fract_x
_atom_site_fract_y
_atom_site_fract_z
Si Si1 0.336635 0.166817 0.922787
Si Si2 0.744289 0.667160 0.578034
Si Si3 0.953648 0.337380 0.803754
Si Si4 0.624813 0.165527 0.781812
Si Si5 0.168161 0.163427 0.166107
Si Si6 0.413019 0.662271 0.419977
O O1 0.290468 0.218582 0.901790
O O2 0.368883 0.215481 0.862652
O O3 0.336053 0.000000 0.927987
O O4 0.349411 0.227507 0.000000
O O5 0.733303 0.723441 0.500000
O O6 0.741520 0.500000 0.577615
O O7 0.711044 0.723727 0.634327
O O8 0.947845 0.500000 0.823500
O O9 0.921761 0.294226 0.741785
O O10 0.945439 0.250314 0.874239
O O11 0.000000 0.305962 0.776480
O O12 0.658239 0.246185 0.734793
O O13 0.633389 0.000000 0.773761
O O14 0.133362 0.186466 0.107059
O O15 0.171178 0.000000 0.187871
O O16 0.415471 0.714986 0.500000
O O17 0.425897 0.500000 0.413747
#
# Coordination Sequence:
#
# PCOD8292663 Si02
#       6
#    16  16  16  16  16  16
#     4   8  14  25  42  63  83 104 133 167 201 238
#     4   8  13  22  38  60  84 110 140 169 194 226
#     4   9  18  31  44  58  79 108 137 164 201 249
#     4   9  17  29  44  61  81 105 134 168 204 241
#     4   9  16  26  41  61  85 112 139 165 195 232
#     4   9  17  28  42  61  84 109 138 171 201 227
#
# _framework density 16.426214000000002
#
# number of rings (size 3 to 8) (size 9 to 14) (size 15 to 20)
#    0.000    3.333    0.000    1.500    0.000    3.667 
#    0.000    1.667    0.000    2.500    0.000    5.833 
#    0.000    0.000    0.000    8.333    0.000    8.667 
#
# Total GULP energy -594892.423492 kJ/mol
# GULP energy per Si atom -12393.592156 kJ/mol
# Density = 1.638883 g / cm^3
# Si number density = 16.426214 Si / 1000 Ang^3
#
#
#
# Elastic Constant Matrix: (Units=GPa)
#
#
# Indices 1 2 3 4 5 6 
#
# 1 91.4931 24.0014 76.9222 0.0000 0.0000 0.0000
# 2 24.0014 25.2209 32.3756 0.0000 0.0000 0.0000
# 3 76.9222 32.3756 143.2641 0.0000 0.0000 0.0000
# 4 0.0000 0.0000 0.0000 17.4821 0.0000 0.0000
# 5 0.0000 0.0000 0.0000 0.0000 17.6166 0.0000
# 6 0.0000 0.0000 0.0000 0.0000 0.0000 14.3401
#
#
#
# Elastic Compliance Matrix: (Units=1/GPa)
#
#
# Indices 1 2 3 4 5 6 
#
# 1 0.020944 -0.007742 -0.009496 0.000000 0.000000 0.000000
# 2 -0.007742 0.058714 -0.009112 0.000000 0.000000 0.000000
# 3 -0.009496 -0.009112 0.014138 0.000000 0.000000 0.000000
# 4 0.000000 0.000000 0.000000 0.057201 0.000000 0.000000
# 5 0.000000 0.000000 0.000000 0.000000 0.056765 0.000000
# 6 0.000000 0.000000 0.000000 0.000000 0.000000 0.069734
#
#
# Mechanical properties :
#
#
# Convention : Reuss Voigt Hill
#
# Bulk Modulus (GPa) = 24.33274 58.50852 41.42063
# Shear Modulus (GPa) = 14.53934 18.33302 16.43618
#
# Velocity S-wave (km/s) = 2.97834 3.34441 3.16667
# Velocity P-wave (km/s) = 5.16458 7.11405 6.21621
#
# Compressibility (1/GPa) = 0.04109689
#
# Stress axis : x y z
#
# Youngs Moduli (GPa) = 47.74525 17.03184 70.73171
#
# Poissons Ratio (x) = 0.13186 0.67168
# Poissons Ratio (y) = 0.36963 0.64448
# Poissons Ratio (z) = 0.45339 0.15519
#
# Static dielectric constant tensor:
#      x y z
#    x 3.183720 0.000000 0.000000 
#    y 0.000000 2.801440 0.000000 
#    z 0.000000 0.000000 3.291570 
# 
# 
# High freq. dielectric constant tensor:
#      x y z
#    x 1.625630 0.000000 0.000000 
#    y 0.000000 1.594770 0.000000 
#    z 0.000000 0.000000 1.627160 
# 
# From -- ./inp_files/24426.got.cif
#   From: 2010.06.25/outbox.cif.g09.slc.cpg/sg71_13_cif.got.tgz:24426.got - 2010.06.28 04:59:45.
