data_PCOD8292158
_publ_section_title
;
Structure prediction by ZEFSAII (Michael W. Deem and Ramdas Pophale) SiO2 
 PCOD8292158
Probable space group: I M M M
;
_chemical_formula_sum "Si O2"
_cell_formula_units_Z 72
_cell_length_a 23.066872
_cell_length_b 9.811581
_cell_length_c 14.800967
_cell_angle_alpha 90.000000
_cell_angle_beta 90.000000
_cell_angle_gamma 90.000000
_cell_volume 3349.791603
_symmetry_space_group_name_H-M "I M M M"
_symmetry_group_IT_number 71
_symmetry_cell_setting 'orthorhombic'
loop_
_space_group_symop_operation_xyz
x,y,z
-x,-y,z
x,-y,-z
-x,y,-z
-x,-y,-z
x,y,-z
-x,y,z
x,-y,z
1/2+x,1/2+y,1/2+z
1/2-x,1/2-y,1/2+z
1/2+x,1/2-y,1/2-z
1/2-x,1/2+y,1/2-z
1/2-x,1/2-y,1/2-z
1/2+x,1/2+y,1/2-z
1/2-x,1/2+y,1/2+z
1/2+x,1/2-y,1/2+z
loop_
_atom_site_type_symbol
_atom_site_label
_atom_site_fract_x
_atom_site_fract_y
_atom_site_fract_z
Si Si1 0.341975 0.646112 0.902353
Si Si2 0.249286 0.841181 0.838518
Si Si3 0.380607 0.656831 0.398466
Si Si4 0.431995 0.000000 0.102165
Si Si5 0.932395 0.757849 0.279036
O O1 0.308089 0.500000 0.895033
O O2 0.298993 0.774744 0.899468
O O3 0.390875 0.630874 0.824582
O O4 0.373285 0.657167 0.000000
O O5 0.250000 0.750000 0.750000
O O6 0.188076 0.826910 0.887828
O O7 0.263829 0.000000 0.819084
O O8 0.397423 0.703435 0.500000
O O9 0.399150 0.500000 0.383050
O O10 0.415794 0.751249 0.327234
O O11 0.412962 0.873569 0.163515
O O12 0.500000 0.000000 0.090136
O O13 0.404430 0.000000 0.000000
O O14 0.000000 0.792437 0.289442
#
# Coordination Sequence:
#
# PCOD8292158 Si02
#       5
#    16  16  16   8  16
#     4  11  24  40  60  92 130 163 205 262 321 387
#     4  11  22  40  67  93 125 165 211 266 326 389
#     4  10  22  41  64  91 123 163 215 267 314 374
#     4   9  20  40  63  89 123 163 212 264 314 383
#     4  11  23  40  63  90 125 167 212 262 320 381
#
# _framework density 21.493876
#
# number of rings (size 3 to 8) (size 9 to 14) (size 15 to 20)
#    0.000    1.444    2.222    2.667    1.556    4.889 
#    2.000    2.778    0.000    2.000    0.000    0.000 
#    0.000    0.000    0.000    0.000    0.000    0.000 
#
# Total GULP energy -446028.349709 kJ/mol
# GULP energy per Si atom -12389.676381 kJ/mol
# Density = 2.144495 g / cm^3
# Si number density = 21.493876 Si / 1000 Ang^3
#
#
#
# Elastic Constant Matrix: (Units=GPa)
#
#
# Indices 1 2 3 4 5 6 
#
# 1 88.2584 33.9060 34.0347 0.0000 0.0000 0.0000
# 2 33.9060 125.4724 61.5055 0.0000 0.0000 0.0000
# 3 34.0347 61.5055 191.4010 0.0000 0.0000 0.0000
# 4 0.0000 0.0000 0.0000 19.2835 0.0000 0.0000
# 5 0.0000 0.0000 0.0000 0.0000 29.2610 0.0000
# 6 0.0000 0.0000 0.0000 0.0000 0.0000 26.3897
#
#
#
# Elastic Compliance Matrix: (Units=1/GPa)
#
#
# Indices 1 2 3 4 5 6 
#
# 1 0.012951 -0.002814 -0.001399 0.000000 0.000000 0.000000
# 2 -0.002814 0.010071 -0.002736 0.000000 0.000000 0.000000
# 3 -0.001399 -0.002736 0.006353 0.000000 0.000000 0.000000
# 4 0.000000 0.000000 0.000000 0.051858 0.000000 0.000000
# 5 0.000000 0.000000 0.000000 0.000000 0.034175 0.000000
# 6 0.000000 0.000000 0.000000 0.000000 0.000000 0.037894
#
#
# Mechanical properties :
#
#
# Convention : Reuss Voigt Hill
#
# Bulk Modulus (GPa) = 64.61025 73.78049 69.19537
# Shear Modulus (GPa) = 29.00940 33.36587 31.18763
#
# Velocity S-wave (km/s) = 3.67776 3.94425 3.81333
# Velocity P-wave (km/s) = 6.93971 7.42588 7.18691
#
# Compressibility (1/GPa) = 0.01547742
#
# Stress axis : x y z
#
# Youngs Moduli (GPa) = 77.21545 99.29023 157.41746
#
# Poissons Ratio (x) = 0.27941 0.22017
# Poissons Ratio (y) = 0.21729 0.43070
# Poissons Ratio (z) = 0.10799 0.27166
#
# Static dielectric constant tensor:
#      x y z
#    x 3.842880 0.000000 0.000000 
#    y 0.000000 4.568400 0.000000 
#    z 0.000000 0.000000 4.253610 
# 
# 
# High freq. dielectric constant tensor:
#      x y z
#    x 1.826470 0.000000 0.000000 
#    y 0.000000 1.839120 0.000000 
#    z 0.000000 0.000000 1.861100 
# 
# From -- ./inp_files/39954.got.cif
#   From: 2010.06.25/outbox.cif.g09.slc.cpg/sg71_20_cif.got.tgz:39954.got - 2010.06.28 04:59:45.
