data_PCOD8292528
_publ_section_title
;
Structure prediction by ZEFSAII (Michael W. Deem and Ramdas Pophale) SiO2 
 PCOD8292528
Probable space group: I M M M
;
_chemical_formula_sum "Si O2"
_cell_formula_units_Z 88
_cell_length_a 22.603214
_cell_length_b 9.021216
_cell_length_c 24.144015
_cell_angle_alpha 90.000000
_cell_angle_beta 90.000000
_cell_angle_gamma 90.000000
_cell_volume 4923.169298
_symmetry_space_group_name_H-M "I M M M"
_symmetry_group_IT_number 71
_symmetry_cell_setting 'orthorhombic'
loop_
_space_group_symop_operation_xyz
x,y,z
-x,-y,z
x,-y,-z
-x,y,-z
-x,-y,-z
x,y,-z
-x,y,z
x,-y,z
1/2+x,1/2+y,1/2+z
1/2-x,1/2-y,1/2+z
1/2+x,1/2-y,1/2-z
1/2-x,1/2+y,1/2-z
1/2-x,1/2-y,1/2-z
1/2+x,1/2+y,1/2-z
1/2-x,1/2+y,1/2+z
1/2+x,1/2-y,1/2+z
loop_
_atom_site_type_symbol
_atom_site_label
_atom_site_fract_x
_atom_site_fract_y
_atom_site_fract_z
Si Si1 0.434168 0.824561 0.645855
Si Si2 0.000000 0.329067 0.434550
Si Si3 0.430793 0.169489 0.770385
Si Si4 0.710312 0.169948 0.935750
Si Si5 0.653702 0.671638 0.562819
Si Si6 0.108344 0.174579 0.624629
O O1 0.500000 0.765851 0.630906
O O2 0.417499 0.774582 0.708154
O O3 0.387307 0.763578 0.603102
O O4 0.433838 0.000000 0.643136
O O5 0.058377 0.253158 0.411420
O O6 0.000000 0.500000 0.415921
O O7 0.000000 0.312154 0.500000
O O8 0.500000 0.183490 0.784143
O O9 0.394563 0.274411 0.811641
O O10 0.410044 0.000000 0.778231
O O11 0.778444 0.201234 0.921240
O O12 0.672096 0.280980 0.898947
O O13 0.693692 0.000000 0.922016
O O14 0.697893 0.202219 0.000000
O O15 0.641729 0.723716 0.500000
O O16 0.638123 0.500000 0.569255
O O17 0.099568 0.000000 0.620898
#
# Coordination Sequence:
#
# PCOD8292528 Si02
#       6
#    16   8  16  16  16  16
#     4   9  19  35  56  83 110 139 176 217 263 315
#     4  11  23  37  53  73 103 145 184 217 262 319
#     4   9  18  35  56  74 101 144 184 215 260 322
#     4   9  19  37  57  74 100 143 186 217 259 324
#     4   9  19  36  57  81 108 140 178 218 262 317
#     4  12  23  33  51  81 109 134 175 228 275 313
#
# _framework density 17.874665
#
# number of rings (size 3 to 8) (size 9 to 14) (size 15 to 20)
#    0.000    2.273    0.909    4.636    0.000    5.818 
#    0.000    6.364    0.000    0.000    0.000    0.000 
#    0.000    0.000    0.000    0.000    0.000    0.000 
#
# Total GULP energy -545654.996012 kJ/mol
# GULP energy per Si atom -12401.249909 kJ/mol
# Density = 1.783398 g / cm^3
# Si number density = 17.874665 Si / 1000 Ang^3
#
#
#
# Elastic Constant Matrix: (Units=GPa)
#
#
# Indices 1 2 3 4 5 6 
#
# 1 86.3732 43.1001 62.0212 0.0000 0.0000 0.0000
# 2 43.1001 86.2876 51.3616 0.0000 0.0000 0.0000
# 3 62.0212 51.3616 104.6575 0.0000 0.0000 0.0000
# 4 0.0000 0.0000 0.0000 29.9046 0.0000 0.0000
# 5 0.0000 0.0000 0.0000 0.0000 24.8370 0.0000
# 6 0.0000 0.0000 0.0000 0.0000 0.0000 31.7386
#
#
#
# Elastic Compliance Matrix: (Units=1/GPa)
#
#
# Indices 1 2 3 4 5 6 
#
# 1 0.021279 -0.004411 -0.010445 0.000000 0.000000 0.000000
# 2 -0.004411 0.017286 -0.005869 0.000000 0.000000 0.000000
# 3 -0.010445 -0.005869 0.018625 0.000000 0.000000 0.000000
# 4 0.000000 0.000000 0.000000 0.033440 0.000000 0.000000
# 5 0.000000 0.000000 0.000000 0.000000 0.040263 0.000000
# 6 0.000000 0.000000 0.000000 0.000000 0.000000 0.031507
#
#
# Mechanical properties :
#
#
# Convention : Reuss Voigt Hill
#
# Bulk Modulus (GPa) = 63.53640 65.58712 64.56176
# Shear Modulus (GPa) = 23.91216 25.35175 24.63195
#
# Velocity S-wave (km/s) = 3.66152 3.77013 3.71622
# Velocity P-wave (km/s) = 7.31425 7.46487 7.38994
#
# Compressibility (1/GPa) = 0.01573901
#
# Stress axis : x y z
#
# Youngs Moduli (GPa) = 46.99372 57.84992 53.69014
#
# Poissons Ratio (x) = 0.25520 0.56082
# Poissons Ratio (y) = 0.20731 0.31511
# Poissons Ratio (z) = 0.49087 0.33953
#
# Static dielectric constant tensor:
#      x y z
#    x 3.353700 0.000000 0.000000 
#    y 0.000000 3.185590 0.000000 
#    z 0.000000 0.000000 3.432650 
# 
# 
# High freq. dielectric constant tensor:
#      x y z
#    x 1.684620 0.000000 0.000000 
#    y 0.000000 1.685160 0.000000 
#    z 0.000000 0.000000 1.697700 
# 
# From -- ./inp_files/12521.got.cif
#   From: 2010.06.25/outbox.cif.g09.slc.cpg/sg71_7_cif.got.tgz:12521.got - 2010.06.28 04:59:45.
