data_PCOD8292451
_publ_section_title
;
Structure prediction by ZEFSAII (Michael W. Deem and Ramdas Pophale) SiO2 
 PCOD8292451
Probable space group: I M M M
;
_chemical_formula_sum "Si O2"
_cell_formula_units_Z 64
_cell_length_a 18.615402
_cell_length_b 22.092997
_cell_length_c 8.876775
_cell_angle_alpha 90.000000
_cell_angle_beta 90.000000
_cell_angle_gamma 90.000000
_cell_volume 3650.751437
_symmetry_space_group_name_H-M "I M M M"
_symmetry_group_IT_number 71
_symmetry_cell_setting 'orthorhombic'
loop_
_space_group_symop_operation_xyz
x,y,z
-x,-y,z
x,-y,-z
-x,y,-z
-x,-y,-z
x,y,-z
-x,y,z
x,-y,z
1/2+x,1/2+y,1/2+z
1/2-x,1/2-y,1/2+z
1/2+x,1/2-y,1/2-z
1/2-x,1/2+y,1/2-z
1/2-x,1/2-y,1/2-z
1/2+x,1/2+y,1/2-z
1/2-x,1/2+y,1/2+z
1/2+x,1/2-y,1/2+z
loop_
_atom_site_type_symbol
_atom_site_label
_atom_site_fract_x
_atom_site_fract_y
_atom_site_fract_z
Si Si1 0.500000 0.930587 0.322496
Si Si2 0.079350 0.665513 0.331747
Si Si3 0.914784 0.000000 0.669883
Si Si4 0.582514 0.376869 0.678273
Si Si5 0.173692 0.238159 0.822747
O O1 0.500000 0.918828 0.500000
O O2 0.571112 0.900616 0.246548
O O3 0.500000 0.000000 0.279499
O O4 0.113246 0.659983 0.500000
O O5 0.126219 0.704960 0.220965
O O6 0.000000 0.695410 0.342923
O O7 0.887123 0.939307 0.752066
O O8 0.885195 0.000000 0.500000
O O9 0.000000 0.000000 0.674903
O O10 0.585909 0.382963 0.500000
O O11 0.500000 0.364089 0.729593
O O12 0.634463 0.322948 0.736224
O O13 0.250000 0.250000 0.750000
O O14 0.182966 0.235059 0.000000
#
# Coordination Sequence:
#
# PCOD8292451 Si02
#       5
#     8  16   8  16  16
#     4   9  17  31  55  83 109 138 173 216 265 313
#     4   9  19  33  53  79 107 136 173 217 262 312
#     4   9  17  29  49  79 107 131 162 209 258 303
#     4   9  18  33  54  77 101 135 173 210 257 311
#     4  11  22  35  53  76 107 143 179 220 266 314
#
# _framework density 17.530636999999999
#
# number of rings (size 3 to 8) (size 9 to 14) (size 15 to 20)
#    0.750    1.750    0.000    2.625    0.000    5.500 
#    0.000    2.500    2.750    0.000    0.000    0.000 
#    0.000    0.000    0.000    0.000    0.000    0.000 
#
# Total GULP energy -396548.124548 kJ/mol
# GULP energy per Si atom -12392.128892 kJ/mol
# Density = 1.749074 g / cm^3
# Si number density = 17.530637 Si / 1000 Ang^3
#
#
#
# Elastic Constant Matrix: (Units=GPa)
#
#
# Indices 1 2 3 4 5 6 
#
# 1 77.3402 61.8232 30.1941 0.0000 0.0000 0.0000
# 2 61.8232 160.8399 49.9594 0.0000 0.0000 0.0000
# 3 30.1941 49.9594 62.2322 0.0000 0.0000 0.0000
# 4 0.0000 0.0000 0.0000 25.1850 0.0000 0.0000
# 5 0.0000 0.0000 0.0000 0.0000 26.9254 0.0000
# 6 0.0000 0.0000 0.0000 0.0000 0.0000 5.6261
#
#
#
# Elastic Compliance Matrix: (Units=1/GPa)
#
#
# Indices 1 2 3 4 5 6 
#
# 1 0.019611 -0.006105 -0.004614 0.000000 0.000000 0.000000
# 2 -0.006105 0.010183 -0.005213 0.000000 0.000000 0.000000
# 3 -0.004614 -0.005213 0.022492 0.000000 0.000000 0.000000
# 4 0.000000 0.000000 0.000000 0.039706 0.000000 0.000000
# 5 0.000000 0.000000 0.000000 0.000000 0.037140 0.000000
# 6 0.000000 0.000000 0.000000 0.000000 0.000000 0.177744
#
#
# Mechanical properties :
#
#
# Convention : Reuss Voigt Hill
#
# Bulk Modulus (GPa) = 48.96451 64.92953 56.94702
# Shear Modulus (GPa) = 14.46976 22.10968 18.28972
#
# Velocity S-wave (km/s) = 2.87609 3.55519 3.23352
# Velocity P-wave (km/s) = 6.24665 7.34647 6.81877
#
# Compressibility (1/GPa) = 0.02042296
#
# Stress axis : x y z
#
# Youngs Moduli (GPa) = 50.99081 98.20109 44.45935
#
# Poissons Ratio (x) = 0.59951 0.20514
# Poissons Ratio (y) = 0.31130 0.23176
# Poissons Ratio (z) = 0.23528 0.51192
#
# Static dielectric constant tensor:
#      x y z
#    x 2.906170 0.000000 0.000000 
#    y 0.000000 3.337830 0.000000 
#    z 0.000000 0.000000 3.303820 
# 
# 
# High freq. dielectric constant tensor:
#      x y z
#    x 1.641290 0.000000 0.000000 
#    y 0.000000 1.679220 0.000000 
#    z 0.000000 0.000000 1.688460 
# 
# From -- ./inp_files/9822.got.cif
#   From: 2010.06.25/outbox.cif.g09.slc.cpg/sg71_5_cif.got.tgz:9822.got - 2010.06.28 04:59:45.
