data_PCOD8292965
_publ_section_title
;
Structure prediction by ZEFSAII (Michael W. Deem and Ramdas Pophale) SiO2 
 PCOD8292965
Probable space group: I B A M
;
_chemical_formula_sum "Si O2"
_cell_formula_units_Z 72
_cell_length_a 23.837772
_cell_length_b 18.025738
_cell_length_c 10.089234
_cell_angle_alpha 90.000000
_cell_angle_beta 90.000000
_cell_angle_gamma 90.000000
_cell_volume 4335.277590
_symmetry_space_group_name_H-M "I B A M"
_symmetry_group_IT_number 72
_symmetry_cell_setting 'orthorhombic'
loop_
_space_group_symop_operation_xyz
x,y,z
-x,-y,z
x,-y,1/2-z
-x,y,1/2-z
-x,-y,-z
x,y,-z
-x,y,1/2+z
x,-y,1/2+z
1/2+x,1/2+y,1/2+z
1/2-x,1/2-y,1/2+z
1/2+x,1/2-y,-z
1/2-x,1/2+y,-z
1/2-x,1/2-y,1/2-z
1/2+x,1/2+y,1/2-z
1/2-x,1/2+y,z
1/2+x,1/2-y,z
loop_
_atom_site_type_symbol
_atom_site_label
_atom_site_fract_x
_atom_site_fract_y
_atom_site_fract_z
Si Si1 0.830011 0.753257 0.349206
Si Si2 0.229409 0.646223 0.650393
Si Si3 0.314960 0.000000 0.250000
Si Si4 0.952412 0.724806 0.348548
Si Si5 0.923556 0.556971 0.353198
O O1 0.822115 0.723223 0.500000
O O2 0.811823 0.689888 0.247490
O O3 0.793617 0.827660 0.325834
O O4 0.895593 0.772338 0.326367
O O5 0.210607 0.663585 0.500000
O O6 0.225332 0.558306 0.675659
O O7 0.355863 0.955130 0.350915
O O8 0.973660 0.731601 0.500000
O O9 0.938326 0.640094 0.310721
O O10 0.000000 0.755701 0.250000
O O11 0.952896 0.500000 0.250000
O O12 0.945954 0.539426 0.500000
#
# Coordination Sequence:
#
# PCOD8292965 Si02
#       5
#    16  16   8  16  16
#     4   9  18  34  50  70  97 125 160 204 245 282
#     4  10  19  30  51  74  96 128 161 194 241 294
#     4  10  18  28  47  70 101 122 158 186 234 284
#     4  10  20  33  47  65  91 125 161 199 236 274
#     4   9  18  30  44  62  91 125 156 190 230 272
#
# _framework density 16.607934
#
# number of rings (size 3 to 8) (size 9 to 14) (size 15 to 20)
#    0.667    1.778    2.222    0.667    0.000    3.111 
#    0.000    2.222    0.000    0.000    0.000    0.778 
#    0.000    5.333    0.000    0.000    0.000    0.000 
#
# Total GULP energy -446113.239228 kJ/mol
# GULP energy per Si atom -12392.034423 kJ/mol
# Density = 1.657013 g / cm^3
# Si number density = 16.607934 Si / 1000 Ang^3
#
#
#
# Elastic Constant Matrix: (Units=GPa)
#
#
# Indices 1 2 3 4 5 6 
#
# 1 104.8444 34.0016 53.1149 0.0000 0.0000 0.0000
# 2 34.0016 41.0026 24.0291 0.0000 0.0000 0.0000
# 3 53.1149 24.0291 92.4473 0.0000 0.0000 0.0000
# 4 0.0000 0.0000 0.0000 20.2905 0.0000 0.0000
# 5 0.0000 0.0000 0.0000 0.0000 21.8601 0.0000
# 6 0.0000 0.0000 0.0000 0.0000 0.0000 21.5138
#
#
#
# Elastic Compliance Matrix: (Units=1/GPa)
#
#
# Indices 1 2 3 4 5 6 
#
# 1 0.015976 -0.009283 -0.006766 0.000000 0.000000 0.000000
# 2 -0.009283 0.034165 -0.003547 0.000000 0.000000 0.000000
# 3 -0.006766 -0.003547 0.015626 0.000000 0.000000 0.000000
# 4 0.000000 0.000000 0.000000 0.049284 0.000000 0.000000
# 5 0.000000 0.000000 0.000000 0.000000 0.045746 0.000000
# 6 0.000000 0.000000 0.000000 0.000000 0.000000 0.046482
#
#
# Mechanical properties :
#
#
# Convention : Reuss Voigt Hill
#
# Bulk Modulus (GPa) = 37.62825 51.17615 44.40220
# Shear Modulus (GPa) = 19.58247 21.20944 20.39596
#
# Velocity S-wave (km/s) = 3.43753 3.57748 3.50821
# Velocity P-wave (km/s) = 6.20173 6.92428 6.57294
#
# Compressibility (1/GPa) = 0.02657578
#
# Stress axis : x y z
#
# Youngs Moduli (GPa) = 62.59257 29.26939 63.99471
#
# Poissons Ratio (x) = 0.27171 0.43300
# Poissons Ratio (y) = 0.58106 0.22697
# Poissons Ratio (z) = 0.42351 0.10381
#
# Static dielectric constant tensor:
#      x y z
#    x 3.124630 0.000000 0.000000 
#    y 0.000000 2.843480 0.000000 
#    z 0.000000 0.000000 3.171010 
# 
# 
# High freq. dielectric constant tensor:
#      x y z
#    x 1.630690 0.000000 0.000000 
#    y 0.000000 1.595580 0.000000 
#    z 0.000000 0.000000 1.649590 
# 
# From -- ./inp_files/6771.got.cif
#   From: 2010.03.12/outbox.cif.g09.slc.cpg/sg72_4_cif.got.tgz:6771.got - 2010.04.16 14:54:00.
