data_PCOD8292229
_publ_section_title
;
Structure prediction by ZEFSAII (Michael W. Deem and Ramdas Pophale) SiO2 
 PCOD8292229
Probable space group: I M M M
;
_chemical_formula_sum "Si O2"
_cell_formula_units_Z 112
_cell_length_a 18.806989
_cell_length_b 20.417160
_cell_length_c 18.860949
_cell_angle_alpha 90.000000
_cell_angle_beta 90.000000
_cell_angle_gamma 90.000000
_cell_volume 7242.327227
_symmetry_space_group_name_H-M "I M M M"
_symmetry_group_IT_number 71
_symmetry_cell_setting 'orthorhombic'
loop_
_space_group_symop_operation_xyz
x,y,z
-x,-y,z
x,-y,-z
-x,y,-z
-x,-y,-z
x,y,-z
-x,y,z
x,-y,z
1/2+x,1/2+y,1/2+z
1/2-x,1/2-y,1/2+z
1/2+x,1/2-y,1/2-z
1/2-x,1/2+y,1/2-z
1/2-x,1/2-y,1/2-z
1/2+x,1/2+y,1/2-z
1/2-x,1/2+y,1/2+z
1/2+x,1/2-y,1/2+z
loop_
_atom_site_type_symbol
_atom_site_label
_atom_site_fract_x
_atom_site_fract_y
_atom_site_fract_z
Si Si1 0.224633 0.778794 0.921812
Si Si2 0.422347 0.670954 0.578493
Si Si3 0.712761 0.814116 0.217636
Si Si4 0.712542 0.427296 0.798837
Si Si5 0.078493 0.110154 0.220485
Si Si6 0.919211 0.762607 0.310490
Si Si7 0.673826 0.663543 0.080879
O O1 0.139262 0.774731 0.912272
O O2 0.257530 0.826205 0.861864
O O3 0.253947 0.705468 0.914310
O O4 0.244694 0.806990 0.000000
O O5 0.417386 0.639143 0.500000
O O6 0.500000 0.704744 0.589521
O O7 0.412890 0.612574 0.635381
O O8 0.750000 0.750000 0.250000
O O9 0.729916 0.878168 0.264029
O O10 0.628174 0.800260 0.212571
O O11 0.745975 0.500000 0.804397
O O12 0.640642 0.433841 0.752488
O O13 0.689638 0.403276 0.876997
O O14 0.086629 0.184559 0.247962
O O15 0.000000 0.082423 0.241299
O O16 0.889865 0.795263 0.383011
O O17 0.000000 0.739164 0.323020
O O18 0.652491 0.646987 0.000000
#
# Coordination Sequence:
#
# PCOD8292229 Si02
#       7
#    16  16  16  16  16  16  16
#     4   9  15  25  45  68  90 120 152 191 242 283
#     4   9  15  22  38  66  95 119 146 185 228 271
#     4  11  16  31  50  67  93 122 161 204 242 285
#     4  11  21  31  47  69  95 131 168 199 237 286
#     4   9  16  28  44  64  91 119 154 190 229 280
#     4   9  17  28  49  74  92 119 158 202 251 292
#     4   9  18  31  47  68  97 127 158 200 243 289
#
# _framework density 15.464643000000001
#
# number of rings (size 3 to 8) (size 9 to 14) (size 15 to 20)
#    0.000    2.429    5.714    0.000    0.000    0.857 
#    0.000    0.000    0.000    2.143    0.000    6.000 
#    0.000    0.000    0.000   14.000    0.000    0.000 
#
# Total GULP energy -693858.471189 kJ/mol
# GULP energy per Si atom -12390.329843 kJ/mol
# Density = 1.542944 g / cm^3
# Si number density = 15.464643 Si / 1000 Ang^3
#
#
#
# Elastic Constant Matrix: (Units=GPa)
#
#
# Indices 1 2 3 4 5 6 
#
# 1 89.1571 36.1914 32.2425 0.0000 0.0000 0.0000
# 2 36.1914 69.4171 27.9839 0.0000 0.0000 0.0000
# 3 32.2425 27.9839 105.9400 0.0000 0.0000 0.0000
# 4 0.0000 0.0000 0.0000 9.0528 0.0000 0.0000
# 5 0.0000 0.0000 0.0000 0.0000 18.3678 0.0000
# 6 0.0000 0.0000 0.0000 0.0000 0.0000 12.4119
#
#
#
# Elastic Compliance Matrix: (Units=1/GPa)
#
#
# Indices 1 2 3 4 5 6 
#
# 1 0.014926 -0.006660 -0.002784 0.000000 0.000000 0.000000
# 2 -0.006660 0.019094 -0.003017 0.000000 0.000000 0.000000
# 3 -0.002784 -0.003017 0.011083 0.000000 0.000000 0.000000
# 4 0.000000 0.000000 0.000000 0.110464 0.000000 0.000000
# 5 0.000000 0.000000 0.000000 0.000000 0.054443 0.000000
# 6 0.000000 0.000000 0.000000 0.000000 0.000000 0.080568
#
#
# Mechanical properties :
#
#
# Convention : Reuss Voigt Hill
#
# Bulk Modulus (GPa) = 49.54599 50.81663 50.18131
# Shear Modulus (GPa) = 15.51706 19.17292 17.34499
#
# Velocity S-wave (km/s) = 3.17107 3.52489 3.35265
# Velocity P-wave (km/s) = 6.74651 7.03546 6.89250
#
# Compressibility (1/GPa) = 0.02018327
#
# Stress axis : x y z
#
# Youngs Moduli (GPa) = 66.99620 52.37249 90.22552
#
# Poissons Ratio (x) = 0.34879 0.25115
# Poissons Ratio (y) = 0.44618 0.27219
# Poissons Ratio (z) = 0.18649 0.15799
#
# Static dielectric constant tensor:
#      x y z
#    x 3.154030 0.000000 0.000000 
#    y 0.000000 2.466090 0.000000 
#    z 0.000000 0.000000 3.346160 
# 
# 
# High freq. dielectric constant tensor:
#      x y z
#    x 1.592090 0.000000 0.000000 
#    y 0.000000 1.530790 0.000000 
#    z 0.000000 0.000000 1.613500 
# 
# From -- ./inp_files/47672.got.cif
#   From: 2010.06.25/outbox.cif.g09.slc.cpg/sg71_24_cif.got.tgz:47672.got - 2010.06.28 04:59:45.
