data_PCOD8292974
_publ_section_title
;
Structure prediction by ZEFSAII (Michael W. Deem and Ramdas Pophale) SiO2 
 PCOD8292974
Probable space group: I B A M
;
_chemical_formula_sum "Si O2"
_cell_formula_units_Z 96
_cell_length_a 23.881902
_cell_length_b 29.769923
_cell_length_c 8.803069
_cell_angle_alpha 90.000000
_cell_angle_beta 90.000000
_cell_angle_gamma 90.000000
_cell_volume 6258.650920
_symmetry_space_group_name_H-M "I B A M"
_symmetry_group_IT_number 72
_symmetry_cell_setting 'orthorhombic'
loop_
_space_group_symop_operation_xyz
x,y,z
-x,-y,z
x,-y,1/2-z
-x,y,1/2-z
-x,-y,-z
x,y,-z
-x,y,1/2+z
x,-y,1/2+z
1/2+x,1/2+y,1/2+z
1/2-x,1/2-y,1/2+z
1/2+x,1/2-y,-z
1/2-x,1/2+y,-z
1/2-x,1/2-y,1/2-z
1/2+x,1/2+y,1/2-z
1/2-x,1/2+y,z
1/2+x,1/2-y,z
loop_
_atom_site_type_symbol
_atom_site_label
_atom_site_fract_x
_atom_site_fract_y
_atom_site_fract_z
Si Si1 0.556551 0.713364 0.319757
Si Si2 0.670237 0.719680 0.178782
Si Si3 0.549465 0.187001 0.834570
Si Si4 0.143440 0.616294 0.671442
Si Si5 0.941454 0.548956 0.318030
Si Si6 0.281427 0.815147 0.679386
O O1 0.500000 0.690406 0.250000
O O2 0.557029 0.706786 0.500000
O O3 0.615040 0.695849 0.250612
O O4 0.558569 0.764632 0.258584
O O5 0.678271 0.772695 0.221077
O O6 0.721582 0.691658 0.245025
O O7 0.668291 0.713007 0.000000
O O8 0.500000 0.159793 0.750000
O O9 0.605330 0.159676 0.838106
O O10 0.525517 0.196398 0.000000
O O11 0.157632 0.599142 0.500000
O O12 0.112055 0.578036 0.767193
O O13 0.197080 0.636380 0.758166
O O14 0.931124 0.500000 0.250000
O O15 0.945490 0.547592 0.500000
O O16 0.000000 0.568205 0.250000
O O17 0.274615 0.819042 0.500000
#
# Coordination Sequence:
#
# PCOD8292974 Si02
#       6
#    16  16  16  16  16  16
#     4  10  18  29  42  59  81 108 141 178 218 261
#     4  10  19  31  45  61  84 113 145 182 224 267
#     4   9  18  27  38  55  78 104 133 171 216 258
#     4  11  20  32  47  66  87 110 142 182 224 270
#     4  11  22  37  53  70  90 116 148 185 233 284
#     4  10  20  31  45  63  84 113 146 181 222 268
#
# _framework density 15.338768
#
# number of rings (size 3 to 8) (size 9 to 14) (size 15 to 20)
#    0.000    1.833    1.667    4.500    0.000    4.667 
#    0.000    0.000    0.000    0.000    0.000    0.000 
#    0.000    0.000    0.000    0.000    0.000    0.833 
#
# Total GULP energy -594724.923496 kJ/mol
# GULP energy per Si atom -12390.102573 kJ/mol
# Density = 1.530386 g / cm^3
# Si number density = 15.338768 Si / 1000 Ang^3
#
#
#
# Elastic Constant Matrix: (Units=GPa)
#
#
# Indices 1 2 3 4 5 6 
#
# 1 112.5476 25.4578 53.6968 0.0000 0.0000 0.0000
# 2 25.4578 44.0456 27.2926 0.0000 0.0000 0.0000
# 3 53.6968 27.2926 107.9586 0.0000 0.0000 0.0000
# 4 0.0000 0.0000 0.0000 15.4773 0.0000 0.0000
# 5 0.0000 0.0000 0.0000 0.0000 29.9675 0.0000
# 6 0.0000 0.0000 0.0000 0.0000 0.0000 23.3042
#
#
#
# Elastic Compliance Matrix: (Units=1/GPa)
#
#
# Indices 1 2 3 4 5 6 
#
# 1 0.012189 -0.003899 -0.005077 0.000000 0.000000 0.000000
# 2 -0.003899 0.028168 -0.005182 0.000000 0.000000 0.000000
# 3 -0.005077 -0.005182 0.013098 0.000000 0.000000 0.000000
# 4 0.000000 0.000000 0.000000 0.064611 0.000000 0.000000
# 5 0.000000 0.000000 0.000000 0.000000 0.033370 0.000000
# 6 0.000000 0.000000 0.000000 0.000000 0.000000 0.042911
#
#
# Mechanical properties :
#
#
# Convention : Reuss Voigt Hill
#
# Bulk Modulus (GPa) = 39.77787 53.04959 46.41373
# Shear Modulus (GPa) = 21.64103 24.29010 22.96556
#
# Velocity S-wave (km/s) = 3.76023 3.98373 3.87359
# Velocity P-wave (km/s) = 6.69639 7.47132 7.09444
#
# Compressibility (1/GPa) = 0.02513961
#
# Stress axis : x y z
#
# Youngs Moduli (GPa) = 82.03841 35.50090 76.34758
#
# Poissons Ratio (x) = 0.13843 0.38762
# Poissons Ratio (y) = 0.31990 0.39561
# Poissons Ratio (z) = 0.41651 0.18395
#
# Static dielectric constant tensor:
#      x y z
#    x 3.036790 0.000000 0.000000 
#    y 0.000000 2.536650 0.000000 
#    z 0.000000 0.000000 3.172880 
# 
# 
# High freq. dielectric constant tensor:
#      x y z
#    x 1.584240 0.000000 0.000000 
#    y 0.000000 1.524010 0.000000 
#    z 0.000000 0.000000 1.609410 
# 
# From -- ./inp_files/7088.got.cif
#   From: 2010.03.12/outbox.cif.g09.slc.cpg/sg72_4_cif.got.tgz:7088.got - 2010.04.16 14:54:00.
