data_PCOD8292121
_publ_section_title
;
Structure prediction by ZEFSAII (Michael W. Deem and Ramdas Pophale) SiO2 
 PCOD8292121
Probable space group: I M M M
;
_chemical_formula_sum "Si O2"
_cell_formula_units_Z 40
_cell_length_a 10.282732
_cell_length_b 13.444289
_cell_length_c 14.558312
_cell_angle_alpha 90.000000
_cell_angle_beta 90.000000
_cell_angle_gamma 90.000000
_cell_volume 2012.599586
_symmetry_space_group_name_H-M "I M M M"
_symmetry_group_IT_number 71
_symmetry_cell_setting 'orthorhombic'
loop_
_space_group_symop_operation_xyz
x,y,z
-x,-y,z
x,-y,-z
-x,y,-z
-x,-y,-z
x,y,-z
-x,y,z
x,-y,z
1/2+x,1/2+y,1/2+z
1/2-x,1/2-y,1/2+z
1/2+x,1/2-y,1/2-z
1/2-x,1/2+y,1/2-z
1/2-x,1/2-y,1/2-z
1/2+x,1/2+y,1/2-z
1/2-x,1/2+y,1/2+z
1/2+x,1/2-y,1/2+z
loop_
_atom_site_type_symbol
_atom_site_label
_atom_site_fract_x
_atom_site_fract_y
_atom_site_fract_z
Si Si1 0.000000 0.257923 0.606134
Si Si2 0.500000 0.116594 0.277409
Si Si3 0.846697 0.889314 0.000000
Si Si4 0.721078 0.206823 0.399455
O O1 0.872575 0.190564 0.627071
O O2 0.000000 0.294777 0.500000
O O3 0.000000 0.354741 0.670806
O O4 0.629656 0.160395 0.323247
O O5 0.500000 0.000000 0.289584
O O6 0.801603 0.826959 0.090575
O O7 0.000000 0.897815 0.000000
O O8 0.784327 0.000000 0.000000
O O9 0.690964 0.157775 0.500000
#
# Coordination Sequence:
#
# PCOD8292121 Si02
#       4
#     8   8   8  16
#     4  10  22  40  62  81 121 155 195 251 305 333
#     4  12  23  37  60  89 121 159 200 235 287 364
#     4   9  16  31  59  89 116 148 193 240 291 343
#     4   9  19  39  59  88 118 154 191 247 294 347
#
# _framework density 19.874793
#
# number of rings (size 3 to 8) (size 9 to 14) (size 15 to 20)
#    1.200    1.000    2.000    1.800    0.000    3.600 
#    0.000    1.000    0.000    3.600    0.000    0.000 
#    0.000    0.000    0.000    0.000    0.000    0.000 
#
# Total GULP energy -247767.530350 kJ/mol
# GULP energy per Si atom -12388.376518 kJ/mol
# Density = 1.982956 g / cm^3
# Si number density = 19.874793 Si / 1000 Ang^3
#
#
#
# Elastic Constant Matrix: (Units=GPa)
#
#
# Indices 1 2 3 4 5 6 
#
# 1 162.2409 43.4356 57.2243 0.0000 0.0000 0.0000
# 2 43.4356 100.8356 47.9759 0.0000 0.0000 0.0000
# 3 57.2243 47.9759 112.7835 0.0000 0.0000 0.0000
# 4 0.0000 0.0000 0.0000 18.6943 0.0000 0.0000
# 5 0.0000 0.0000 0.0000 0.0000 20.7461 0.0000
# 6 0.0000 0.0000 0.0000 0.0000 0.0000 0.3279
#
#
#
# Elastic Compliance Matrix: (Units=1/GPa)
#
#
# Indices 1 2 3 4 5 6 
#
# 1 0.007772 -0.001845 -0.003158 0.000000 0.000000 0.000000
# 2 -0.001845 0.012872 -0.004539 0.000000 0.000000 0.000000
# 3 -0.003158 -0.004539 0.012400 0.000000 0.000000 0.000000
# 4 0.000000 0.000000 0.000000 0.053492 0.000000 0.000000
# 5 0.000000 0.000000 0.000000 0.000000 0.048202 0.000000
# 6 0.000000 0.000000 0.000000 0.000000 0.000000 3.049564
#
#
# Mechanical properties :
#
#
# Convention : Reuss Voigt Hill
#
# Bulk Modulus (GPa) = 71.64344 74.79242 73.21793
# Shear Modulus (GPa) = 1.55858 23.10194 12.33026
#
# Velocity S-wave (km/s) = 0.88651 3.41306 2.49348
# Velocity P-wave (km/s) = 6.09701 7.29695 6.72380
#
# Compressibility (1/GPa) = 0.01395801
#
# Stress axis : x y z
#
# Youngs Moduli (GPa) = 128.67344 77.69075 80.64560
#
# Poissons Ratio (x) = 0.14334 0.25471
# Poissons Ratio (y) = 0.23740 0.36607
# Poissons Ratio (z) = 0.40640 0.35265
#
# Static dielectric constant tensor:
#      x y z
#    x 3.929620 0.000000 0.000000 
#    y 0.000000 3.293430 0.000000 
#    z 0.000000 0.000000 3.484810 
# 
# 
# High freq. dielectric constant tensor:
#      x y z
#    x 1.799700 0.000000 0.000000 
#    y 0.000000 1.725620 0.000000 
#    z 0.000000 0.000000 1.764910 
# 
# From -- ./inp_files/31922.got.cif
#   From: 2010.06.25/outbox.cif.g09.slc.cpg/sg71_16_cif.got.tgz:31922.got - 2010.06.28 04:59:45.
