data_PCOD8292537
_publ_section_title
;
Structure prediction by ZEFSAII (Michael W. Deem and Ramdas Pophale) SiO2 
 PCOD8292537
Probable space group: I M M M
;
_chemical_formula_sum "Si O2"
_cell_formula_units_Z 88
_cell_length_a 18.887021
_cell_length_b 28.525846
_cell_length_c 7.951496
_cell_angle_alpha 90.000000
_cell_angle_beta 90.000000
_cell_angle_gamma 90.000000
_cell_volume 4284.013604
_symmetry_space_group_name_H-M "I M M M"
_symmetry_group_IT_number 71
_symmetry_cell_setting 'orthorhombic'
loop_
_space_group_symop_operation_xyz
x,y,z
-x,-y,z
x,-y,-z
-x,y,-z
-x,-y,-z
x,y,-z
-x,y,z
x,-y,z
1/2+x,1/2+y,1/2+z
1/2-x,1/2-y,1/2+z
1/2+x,1/2-y,1/2-z
1/2-x,1/2+y,1/2-z
1/2-x,1/2-y,1/2-z
1/2+x,1/2+y,1/2-z
1/2-x,1/2+y,1/2+z
1/2+x,1/2-y,1/2+z
loop_
_atom_site_type_symbol
_atom_site_label
_atom_site_fract_x
_atom_site_fract_y
_atom_site_fract_z
Si Si1 0.080440 0.444642 0.500000
Si Si2 0.823331 0.227253 0.802398
Si Si3 0.580216 0.194067 0.193138
Si Si4 0.802920 0.877372 0.191717
Si Si5 0.152693 0.604094 0.187186
Si Si6 0.419268 0.553517 0.803589
O O1 0.083575 0.500000 0.500000
O O2 0.117356 0.427717 0.670637
O O3 0.000000 0.425799 0.500000
O O4 0.750000 0.250000 0.750000
O O5 0.887452 0.254224 0.712352
O O6 0.825934 0.173555 0.739574
O O7 0.834481 0.230822 0.000000
O O8 0.500000 0.194614 0.260149
O O9 0.626326 0.157551 0.299450
O O10 0.583113 0.178008 0.000000
O O11 0.737497 0.897406 0.297575
O O12 0.868719 0.912481 0.200004
O O13 0.777055 0.872380 0.000000
O O14 0.133227 0.585251 0.000000
O O15 0.500000 0.564460 0.752145
O O16 0.400500 0.500000 0.757357
O O17 0.407912 0.562429 0.000000
#
# Coordination Sequence:
#
# PCOD8292537 Si02
#       6
#     8  16  16  16  16  16
#     4  11  26  48  70  96 133 169 213 277 333 391
#     4  11  23  38  59  87 123 166 211 261 318 377
#     4  11  23  40  63  92 128 168 213 265 321 384
#     4  11  23  40  63  93 131 171 214 272 329 382
#     4  12  24  42  69  97 129 173 218 267 328 391
#     4   9  20  40  64  91 125 166 215 268 320 383
#
# _framework density 20.541485000000002
#
# number of rings (size 3 to 8) (size 9 to 14) (size 15 to 20)
#    0.000    1.182    3.636    2.727    0.000    7.273 
#    0.000    5.455    0.000    0.000    0.000    0.000 
#    0.000    0.000    0.000    0.000    0.000    0.000 
#
# Total GULP energy -545805.988043 kJ/mol
# GULP energy per Si atom -12404.681546 kJ/mol
# Density = 2.049473 g / cm^3
# Si number density = 20.541485 Si / 1000 Ang^3
#
#
#
# Elastic Constant Matrix: (Units=GPa)
#
#
# Indices 1 2 3 4 5 6 
#
# 1 131.3699 57.9555 30.7421 0.0000 0.0000 0.0000
# 2 57.9555 107.2924 28.9208 0.0000 0.0000 0.0000
# 3 30.7421 28.9208 102.3643 -0.0001 0.0001 0.0000
# 4 0.0000 0.0000 -0.0001 27.7293 0.0000 0.0000
# 5 0.0000 0.0000 0.0001 0.0000 29.5645 0.0000
# 6 0.0000 0.0000 0.0000 0.0000 0.0000 41.3194
#
#
#
# Elastic Compliance Matrix: (Units=1/GPa)
#
#
# Indices 1 2 3 4 5 6 
#
# 1 0.010241 -0.005090 -0.001637 0.000000 0.000000 0.000000
# 2 -0.005090 0.012619 -0.002036 0.000000 0.000000 0.000000
# 3 -0.001637 -0.002036 0.010836 0.000000 0.000000 0.000000
# 4 0.000000 0.000000 0.000000 0.036063 0.000000 0.000000
# 5 0.000000 0.000000 0.000000 0.000000 0.033824 0.000000
# 6 0.000000 0.000000 0.000000 0.000000 0.000000 0.024202
#
#
# Mechanical properties :
#
#
# Convention : Reuss Voigt Hill
#
# Bulk Modulus (GPa) = 61.85250 64.02925 62.94088
# Shear Modulus (GPa) = 33.17792 34.61653 33.89722
#
# Velocity S-wave (km/s) = 4.02327 4.10957 4.06665
# Velocity P-wave (km/s) = 7.19435 7.33188 7.26344
#
# Compressibility (1/GPa) = 0.01616749
#
# Stress axis : x y z
#
# Youngs Moduli (GPa) = 97.64702 79.24605 92.28396
#
# Poissons Ratio (x) = 0.40340 0.15110
# Poissons Ratio (y) = 0.49707 0.18793
# Poissons Ratio (z) = 0.15988 0.16138
#
# Static dielectric constant tensor:
#      x y z
#    x 3.752000 0.000000 0.000000 
#    y 0.000000 3.721700 0.000000 
#    z 0.000000 0.000000 3.728410 
# 
# 
# High freq. dielectric constant tensor:
#      x y z
#    x 1.808180 0.000000 0.000000 
#    y 0.000000 1.801050 0.000000 
#    z 0.000000 0.000000 1.806740 
# 
# From -- ./inp_files/8853.got.cif
#   From: 2010.06.25/outbox.cif.g09.slc.cpg/sg71_5_cif.got.tgz:8853.got - 2010.06.28 04:59:45.
