data_PCOD8292267
_publ_section_title
;
Structure prediction by ZEFSAII (Michael W. Deem and Ramdas Pophale) SiO2 
 PCOD8292267
Probable space group: I M M M
;
_chemical_formula_sum "Si O2"
_cell_formula_units_Z 88
_cell_length_a 14.776770
_cell_length_b 15.287327
_cell_length_c 19.285842
_cell_angle_alpha 90.000000
_cell_angle_beta 90.000000
_cell_angle_gamma 90.000000
_cell_volume 4356.619925
_symmetry_space_group_name_H-M "I M M M"
_symmetry_group_IT_number 71
_symmetry_cell_setting 'orthorhombic'
loop_
_space_group_symop_operation_xyz
x,y,z
-x,-y,z
x,-y,-z
-x,y,-z
-x,-y,-z
x,y,-z
-x,y,z
x,-y,z
1/2+x,1/2+y,1/2+z
1/2-x,1/2-y,1/2+z
1/2+x,1/2-y,1/2-z
1/2-x,1/2+y,1/2-z
1/2-x,1/2-y,1/2-z
1/2+x,1/2+y,1/2-z
1/2-x,1/2+y,1/2+z
1/2+x,1/2-y,1/2+z
loop_
_atom_site_type_symbol
_atom_site_label
_atom_site_fract_x
_atom_site_fract_y
_atom_site_fract_z
Si Si1 0.500000 0.601218 0.921635
Si Si2 0.357797 0.330091 0.185581
Si Si3 0.606038 0.859519 0.842767
Si Si4 0.401671 0.283683 0.662269
Si Si5 0.768811 0.902796 0.922519
Si Si6 0.338796 0.097215 0.305298
O O1 0.500000 0.500000 0.935233
O O2 0.413076 0.624079 0.875641
O O3 0.500000 0.645184 0.000000
O O4 0.340109 0.232264 0.159630
O O5 0.409168 0.317054 0.258459
O O6 0.268017 0.385232 0.199851
O O7 0.500000 0.849950 0.863167
O O8 0.662932 0.910457 0.900835
O O9 0.615835 0.909002 0.770133
O O10 0.500000 0.300476 0.628340
O O11 0.325463 0.337834 0.624474
O O12 0.382954 0.179041 0.654338
O O13 0.810801 0.000000 0.917188
O O14 0.773988 0.866371 0.000000
O O15 0.354354 0.000000 0.339552
#
# Coordination Sequence:
#
# PCOD8292267 Si02
#       6
#     8  16  16  16  16  16
#     4  11  24  38  56  92 132 162 208 265 314 378
#     4  11  19  39  61  89 121 166 212 250 309 377
#     4  11  21  38  63  92 127 166 205 256 316 376
#     4  11  22  41  66  90 123 162 214 264 313 370
#     4  11  25  43  62  90 127 166 212 265 317 374
#     4  11  21  36  63  95 126 160 205 259 311 372
#
# _framework density 20.199145999999999
#
# number of rings (size 3 to 8) (size 9 to 14) (size 15 to 20)
#    0.000    1.000    5.455    3.818    0.000    5.091 
#    0.000    1.818    0.000    0.545    0.000    1.273 
#    0.000    0.000    0.000    0.000    0.000    0.000 
#
# Total GULP energy -545148.047028 kJ/mol
# GULP energy per Si atom -12389.728342 kJ/mol
# Density = 2.015317 g / cm^3
# Si number density = 20.199146 Si / 1000 Ang^3
#
#
#
# Elastic Constant Matrix: (Units=GPa)
#
#
# Indices 1 2 3 4 5 6 
#
# 1 122.3124 35.6028 39.8186 0.0000 0.0000 0.0000
# 2 35.6028 112.3790 44.6839 0.0000 0.0000 0.0000
# 3 39.8186 44.6839 85.0487 0.0000 0.0000 0.0000
# 4 0.0000 0.0000 0.0000 25.1629 0.0000 0.0000
# 5 0.0000 0.0000 0.0000 0.0000 38.2329 0.0000
# 6 0.0000 0.0000 0.0000 0.0000 0.0000 38.5217
#
#
#
# Elastic Compliance Matrix: (Units=1/GPa)
#
#
# Indices 1 2 3 4 5 6 
#
# 1 0.009877 -0.001631 -0.003767 0.000000 0.000000 0.000000
# 2 -0.001631 0.011518 -0.005288 0.000000 0.000000 0.000000
# 3 -0.003767 -0.005288 0.016300 0.000000 0.000000 0.000000
# 4 0.000000 0.000000 0.000000 0.039741 0.000000 0.000000
# 5 0.000000 0.000000 0.000000 0.000000 0.026156 0.000000
# 6 0.000000 0.000000 0.000000 0.000000 0.000000 0.025959
#
#
# Mechanical properties :
#
#
# Convention : Reuss Voigt Hill
#
# Bulk Modulus (GPa) = 61.26548 62.21671 61.74110
# Shear Modulus (GPa) = 31.97679 33.69248 32.83463
#
# Velocity S-wave (km/s) = 3.98311 4.08856 4.03618
# Velocity P-wave (km/s) = 7.17984 7.29088 7.23557
#
# Compressibility (1/GPa) = 0.01632241
#
# Stress axis : x y z
#
# Youngs Moduli (GPa) = 101.24510 86.82303 61.35043
#
# Poissons Ratio (x) = 0.14163 0.23112
# Poissons Ratio (y) = 0.16515 0.32440
# Poissons Ratio (z) = 0.38142 0.45908
#
# Static dielectric constant tensor:
#      x y z
#    x 3.837300 0.000000 0.000000 
#    y 0.000000 3.822000 0.000000 
#    z 0.000000 0.000000 3.492480 
# 
# 
# High freq. dielectric constant tensor:
#      x y z
#    x 1.795190 0.000000 0.000000 
#    y 0.000000 1.800320 0.000000 
#    z 0.000000 0.000000 1.752990 
# 
# From -- ./inp_files/52893.got.cif
#   From: 2010.06.25/outbox.cif.g09.slc.cpg/sg71_27_cif.got.tgz:52893.got - 2010.06.28 04:59:45.
