data_PCOD8292988
_publ_section_title
;
Structure prediction by ZEFSAII (Michael W. Deem and Ramdas Pophale) SiO2 
 PCOD8292988
Probable space group: I B A M
;
_chemical_formula_sum "Si O2"
_cell_formula_units_Z 96
_cell_length_a 17.837144
_cell_length_b 23.289672
_cell_length_c 14.107365
_cell_angle_alpha 90.000000
_cell_angle_beta 90.000000
_cell_angle_gamma 90.000000
_cell_volume 5860.498965
_symmetry_space_group_name_H-M "I B A M"
_symmetry_group_IT_number 72
_symmetry_cell_setting 'orthorhombic'
loop_
_space_group_symop_operation_xyz
x,y,z
-x,-y,z
x,-y,1/2-z
-x,y,1/2-z
-x,-y,-z
x,y,-z
-x,y,1/2+z
x,-y,1/2+z
1/2+x,1/2+y,1/2+z
1/2-x,1/2-y,1/2+z
1/2+x,1/2-y,-z
1/2-x,1/2+y,-z
1/2-x,1/2-y,1/2-z
1/2+x,1/2+y,1/2-z
1/2-x,1/2+y,z
1/2+x,1/2-y,z
loop_
_atom_site_type_symbol
_atom_site_label
_atom_site_fract_x
_atom_site_fract_y
_atom_site_fract_z
Si Si1 0.679429 0.285115 0.715951
Si Si2 0.977285 0.401241 0.890167
Si Si3 0.888397 0.769927 0.895397
Si Si4 0.796027 0.346663 0.608524
Si Si5 0.382217 0.063520 0.726924
Si Si6 0.451960 0.771773 0.604971
O O1 0.750000 0.250000 0.750000
O O2 0.644741 0.311834 0.813476
O O3 0.710293 0.330590 0.639526
O O4 0.615205 0.243382 0.675095
O O5 0.901816 0.412866 0.831425
O O6 0.990021 0.333494 0.878128
O O7 0.045845 0.436453 0.843502
O O8 0.968665 0.419625 0.000000
O O9 0.854087 0.705918 0.881122
O O10 0.978151 0.771153 0.883648
O O11 0.865903 0.792724 0.000000
O O12 0.794231 0.368144 0.500000
O O13 0.818341 0.398759 0.677401
O O14 0.352254 0.000000 0.750000
O O15 0.417205 0.768470 0.500000
#
# Coordination Sequence:
#
# PCOD8292988 Si02
#       6
#    16  16  16  16  16  16
#     4  10  19  28  44  69  95 127 163 200 234 288
#     4  10  19  31  47  66  93 122 157 207 251 288
#     4   9  17  29  47  68  94 128 158 189 241 299
#     4  10  19  34  49  65  94 131 164 200 249 298
#     4  11  22  32  46  65  87 124 173 212 246 286
#     4  10  18  29  47  70  94 127 163 196 238 297
#
# _framework density 16.380858
#
# number of rings (size 3 to 8) (size 9 to 14) (size 15 to 20)
#    0.000    2.000    1.667    4.500    2.333    2.667 
#    0.000    0.833    0.000    0.000    0.000    0.000 
#    0.000    2.667    0.000   10.000    0.000    0.167 
#
# Total GULP energy -594647.836576 kJ/mol
# GULP energy per Si atom -12388.496595 kJ/mol
# Density = 1.634357 g / cm^3
# Si number density = 16.380858 Si / 1000 Ang^3
#
#
#
# Elastic Constant Matrix: (Units=GPa)
#
#
# Indices 1 2 3 4 5 6 
#
# 1 58.4013 15.6707 35.2657 0.0000 0.0000 0.0000
# 2 15.6707 34.1660 22.0300 0.0000 0.0000 0.0000
# 3 35.2657 22.0300 120.5868 0.0000 0.0000 0.0000
# 4 0.0000 0.0000 0.0000 17.5694 0.0000 0.0000
# 5 0.0000 0.0000 0.0000 0.0000 30.5384 0.0000
# 6 0.0000 0.0000 0.0000 0.0000 0.0000 16.0615
#
#
#
# Elastic Compliance Matrix: (Units=1/GPa)
#
#
# Indices 1 2 3 4 5 6 
#
# 1 0.022093 -0.006764 -0.005225 0.000000 0.000000 0.000000
# 2 -0.006764 0.035248 -0.004461 0.000000 0.000000 0.000000
# 3 -0.005225 -0.004461 0.010636 0.000000 0.000000 0.000000
# 4 0.000000 0.000000 0.000000 0.056917 0.000000 0.000000
# 5 0.000000 0.000000 0.000000 0.000000 0.032746 0.000000
# 6 0.000000 0.000000 0.000000 0.000000 0.000000 0.062261
#
#
# Mechanical properties :
#
#
# Convention : Reuss Voigt Hill
#
# Bulk Modulus (GPa) = 28.50986 39.89854 34.20420
# Shear Modulus (GPa) = 18.90402 22.17971 20.54187
#
# Velocity S-wave (km/s) = 3.40079 3.68367 3.54505
# Velocity P-wave (km/s) = 5.73259 6.51937 6.13860
#
# Compressibility (1/GPa) = 0.03507558
#
# Stress axis : x y z
#
# Youngs Moduli (GPa) = 45.26263 28.37047 94.02022
#
# Poissons Ratio (x) = 0.19190 0.49130
# Poissons Ratio (y) = 0.30616 0.41945
# Poissons Ratio (z) = 0.23652 0.12657
#
# Static dielectric constant tensor:
#      x y z
#    x 3.127540 0.000000 0.000000 
#    y 0.000000 2.696070 0.000000 
#    z 0.000000 0.000000 3.685040 
# 
# 
# High freq. dielectric constant tensor:
#      x y z
#    x 1.611360 0.000000 0.000000 
#    y 0.000000 1.562890 0.000000 
#    z 0.000000 0.000000 1.664300 
# 
# From -- ./inp_files/24421.got.cif
#   From: 2010.03.12/outbox.cif.g09.slc.cpg/sg72_13_cif.got.tgz:24421.got - 2010.04.16 14:54:00.
