data_PCOD8292118
_publ_section_title
;
Structure prediction by ZEFSAII (Michael W. Deem and Ramdas Pophale) SiO2 
 PCOD8292118
Probable space group: I M M M
;
_chemical_formula_sum "Si O2"
_cell_formula_units_Z 96
_cell_length_a 15.121235
_cell_length_b 16.715046
_cell_length_c 18.831311
_cell_angle_alpha 90.000000
_cell_angle_beta 90.000000
_cell_angle_gamma 90.000000
_cell_volume 4759.654128
_symmetry_space_group_name_H-M "I M M M"
_symmetry_group_IT_number 71
_symmetry_cell_setting 'orthorhombic'
loop_
_space_group_symop_operation_xyz
x,y,z
-x,-y,z
x,-y,-z
-x,y,-z
-x,-y,-z
x,y,-z
-x,y,z
x,-y,z
1/2+x,1/2+y,1/2+z
1/2-x,1/2-y,1/2+z
1/2+x,1/2-y,1/2-z
1/2-x,1/2+y,1/2-z
1/2-x,1/2-y,1/2-z
1/2+x,1/2+y,1/2-z
1/2-x,1/2+y,1/2+z
1/2+x,1/2-y,1/2+z
loop_
_atom_site_type_symbol
_atom_site_label
_atom_site_fract_x
_atom_site_fract_y
_atom_site_fract_z
Si Si1 0.156546 0.353417 0.853335
Si Si2 0.147864 0.906617 0.316825
Si Si3 0.603557 0.909064 0.500000
Si Si4 0.197180 0.806953 0.804600
Si Si5 0.000000 0.652660 0.388379
Si Si6 0.500000 0.910782 0.739499
Si Si7 0.691056 0.092685 0.080627
Si Si8 0.000000 0.837452 0.417623
O O1 0.250770 0.388258 0.831880
O O2 0.147556 0.366268 0.935209
O O3 0.139827 0.258085 0.846742
O O4 0.086030 0.402454 0.808428
O O5 0.132152 0.866696 0.238916
O O6 0.087103 0.869265 0.378012
O O7 0.127084 0.000000 0.311933
O O8 0.500000 0.897934 0.500000
O O9 0.632655 0.000000 0.500000
O O10 0.250000 0.750000 0.750000
O O11 0.260285 0.853976 0.859739
O O12 0.000000 0.653446 0.302628
O O13 0.913664 0.607670 0.416666
O O14 0.000000 0.742344 0.416703
O O15 0.500000 0.000000 0.772316
O O16 0.710226 0.000000 0.098166
O O17 0.723608 0.112938 0.000000
O O18 0.000000 0.866549 0.500000
#
# Coordination Sequence:
#
# PCOD8292118 Si02
#       8
#    16  16   8  16   8   8  16   8
#     4  11  23  38  62  90 124 163 205 253 315 375
#     4  11  23  42  65  88 120 164 215 260 313 372
#     4  11  22  38  58  89 128 160 199 251 312 375
#     4  10  22  40  61  88 118 160 207 255 308 370
#     4  12  22  36  61  88 127 167 204 250 318 380
#     4  12  22  37  61  94 129 160 204 257 305 374
#     4  11  23  39  62  93 129 165 210 263 317 380
#     4  12  27  44  62  90 127 166 212 268 313 372
#
# _framework density 20.169533000000001
#
# number of rings (size 3 to 8) (size 9 to 14) (size 15 to 20)
#    0.000    0.917    0.833    8.750    2.333    1.333 
#    0.000    0.000    0.000    0.000    0.000    0.000 
#    0.000    5.333    0.000    0.000    0.000    0.000 
#
# Total GULP energy -595022.749114 kJ/mol
# GULP energy per Si atom -12396.307273 kJ/mol
# Density = 2.012363 g / cm^3
# Si number density = 20.169533 Si / 1000 Ang^3
#
#
#
# Elastic Constant Matrix: (Units=GPa)
#
#
# Indices 1 2 3 4 5 6 
#
# 1 83.8382 30.4632 36.2719 0.0000 0.0000 0.0000
# 2 30.4632 136.9729 69.6126 0.0000 0.0000 0.0000
# 3 36.2719 69.6126 162.8338 0.0000 0.0000 0.0000
# 4 0.0000 0.0000 0.0000 39.1487 0.0000 0.0000
# 5 0.0000 0.0000 0.0000 0.0000 32.7008 0.0000
# 6 0.0000 0.0000 0.0000 0.0000 0.0000 40.1160
#
#
#
# Elastic Compliance Matrix: (Units=1/GPa)
#
#
# Indices 1 2 3 4 5 6 
#
# 1 0.013574 -0.001894 -0.002214 0.000000 0.000000 0.000000
# 2 -0.001894 0.009591 -0.003679 0.000000 0.000000 0.000000
# 3 -0.002214 -0.003679 0.008207 0.000000 0.000000 0.000000
# 4 0.000000 0.000000 0.000000 0.025544 0.000000 0.000000
# 5 0.000000 0.000000 0.000000 0.000000 0.030580 0.000000
# 6 0.000000 0.000000 0.000000 0.000000 0.000000 0.024928
#
#
# Mechanical properties :
#
#
# Convention : Reuss Voigt Hill
#
# Bulk Modulus (GPa) = 63.29262 72.92671 68.10967
# Shear Modulus (GPa) = 37.51985 38.87958 38.19971
#
# Velocity S-wave (km/s) = 4.31771 4.39525 4.35665
# Velocity P-wave (km/s) = 7.50368 7.87356 7.69085
#
# Compressibility (1/GPa) = 0.01579963
#
# Stress axis : x y z
#
# Youngs Moduli (GPa) = 73.67201 104.26019 121.84657
#
# Poissons Ratio (x) = 0.19743 0.26978
# Poissons Ratio (y) = 0.13950 0.44822
# Poissons Ratio (z) = 0.16311 0.38353
#
# Static dielectric constant tensor:
#      x y z
#    x 3.502830 0.000000 0.000000 
#    y 0.000000 4.383500 0.000000 
#    z 0.000000 0.000000 4.062800 
# 
# 
# High freq. dielectric constant tensor:
#      x y z
#    x 1.770030 0.000000 0.000000 
#    y 0.000000 1.804000 0.000000 
#    z 0.000000 0.000000 1.804560 
# 
# From -- ./inp_files/53054.got.cif
#   From: 2010.06.25/outbox.cif.g09.slc.cpg/sg71_27_cif.got.tgz:53054.got - 2010.06.28 04:59:45.
