data_PCOD8292310
_publ_section_title
;
Structure prediction by ZEFSAII (Michael W. Deem and Ramdas Pophale) SiO2 
 PCOD8292310
Probable space group: I M M M
;
_chemical_formula_sum "Si O2"
_cell_formula_units_Z 80
_cell_length_a 16.801885
_cell_length_b 8.808843
_cell_length_c 28.317462
_cell_angle_alpha 90.000000
_cell_angle_beta 90.000000
_cell_angle_gamma 90.000000
_cell_volume 4191.130694
_symmetry_space_group_name_H-M "I M M M"
_symmetry_group_IT_number 71
_symmetry_cell_setting 'orthorhombic'
loop_
_space_group_symop_operation_xyz
x,y,z
-x,-y,z
x,-y,-z
-x,y,-z
-x,-y,-z
x,y,-z
-x,y,z
x,-y,z
1/2+x,1/2+y,1/2+z
1/2-x,1/2-y,1/2+z
1/2+x,1/2-y,1/2-z
1/2-x,1/2+y,1/2-z
1/2-x,1/2-y,1/2-z
1/2+x,1/2+y,1/2-z
1/2-x,1/2+y,1/2+z
1/2+x,1/2-y,1/2+z
loop_
_atom_site_type_symbol
_atom_site_label
_atom_site_fract_x
_atom_site_fract_y
_atom_site_fract_z
Si Si1 0.648720 0.820977 0.712898
Si Si2 0.411231 0.822147 0.812866
Si Si3 0.500000 0.664999 0.435440
Si Si4 0.000000 0.832634 0.172843
Si Si5 0.742562 0.177251 0.861427
Si Si6 0.334448 0.825527 0.447489
O O1 0.631079 0.757771 0.765529
O O2 0.574090 0.774094 0.682036
O O3 0.723182 0.739651 0.688148
O O4 0.662990 0.000000 0.711579
O O5 0.500000 0.750355 0.820625
O O6 0.352969 0.790456 0.857556
O O7 0.421882 0.000000 0.804968
O O8 0.500000 0.500000 0.460839
O O9 0.500000 0.631108 0.381182
O O10 0.421898 0.755955 0.450175
O O11 0.000000 0.000000 0.198703
O O12 0.776795 0.250284 0.908839
O O13 0.762018 0.000000 0.863755
O O14 0.296139 0.807489 0.500000
O O15 0.342766 0.000000 0.432892
#
# Coordination Sequence:
#
# PCOD8292310 Si02
#       6
#    16  16   8   8  16  16
#     4  11  20  34  57  80 112 154 188 219 264 321
#     4   9  19  36  57  82 111 145 184 225 272 322
#     4  11  22  36  57  84 115 146 182 227 269 315
#     4  11  21  32  50  81 117 150 186 226 265 307
#     4  11  22  36  57  83 112 143 181 230 275 321
#     4  11  24  40  58  80 109 145 184 225 272 330
#
# _framework density 19.087928000000002
#
# number of rings (size 3 to 8) (size 9 to 14) (size 15 to 20)
#    0.000    1.400    3.000    3.300    0.000    3.600 
#    0.000    3.000    0.000    0.600    0.000    4.200 
#    0.000    0.000    0.000    0.000    0.000    0.000 
#
# Total GULP energy -495629.725243 kJ/mol
# GULP energy per Si atom -12390.743131 kJ/mol
# Density = 1.904448 g / cm^3
# Si number density = 19.087928 Si / 1000 Ang^3
#
#
#
# Elastic Constant Matrix: (Units=GPa)
#
#
# Indices 1 2 3 4 5 6 
#
# 1 126.4075 46.8530 68.2827 0.0000 0.0000 0.0000
# 2 46.8530 109.1701 43.3615 0.0000 0.0000 0.0000
# 3 68.2827 43.3615 105.2859 0.0000 0.0000 0.0000
# 4 0.0000 0.0000 0.0000 14.2689 0.0000 0.0000
# 5 0.0000 0.0000 0.0000 0.0000 -11.8945 0.0000
# 6 0.0000 0.0000 0.0000 0.0000 0.0000 23.0389
#
#
#
# Elastic Compliance Matrix: (Units=1/GPa)
#
#
# Indices 1 2 3 4 5 6 
#
# 1 0.012775 -0.002620 -0.007206 0.000000 0.000000 0.000000
# 2 -0.002620 0.011489 -0.003032 0.000000 0.000000 0.000000
# 3 -0.007206 -0.003032 0.015420 0.000000 0.000000 0.000000
# 4 0.000000 0.000000 0.000000 0.070083 0.000000 0.000000
# 5 0.000000 0.000000 0.000000 0.000000 -0.084073 0.000000
# 6 0.000000 0.000000 0.000000 0.000000 0.000000 0.043405
#
#
# Mechanical properties :
#
#
# Convention : Reuss Voigt Hill
#
# Bulk Modulus (GPa) = 71.59809 73.09534 72.34671
# Shear Modulus (GPa) = 50.26611 17.24041 33.75326
#
# Velocity S-wave (km/s) = 5.13723 3.00861 4.20968
# Velocity P-wave (km/s) = 8.53108 7.10254 7.84937
#
# Compressibility (1/GPa) = 0.01396685
#
# Stress axis : x y z
#
# Youngs Moduli (GPa) = 78.28071 87.03963 64.85116
#
# Poissons Ratio (x) = 0.22809 0.46729
# Poissons Ratio (y) = 0.20513 0.19664
# Poissons Ratio (z) = 0.56406 0.26392
#
# Static dielectric constant tensor:
#      x y z
#    x 3.644720 0.000000 0.000000 
#    y 0.000000 3.523130 0.000000 
#    z 0.000000 0.000000 3.537560 
# 
# 
# High freq. dielectric constant tensor:
#      x y z
#    x 1.736330 0.000000 0.000000 
#    y 0.000000 1.741710 0.000000 
#    z 0.000000 0.000000 1.733820 
# 
# From -- ./inp_files/65817.got.cif
#   From: 2010.06.25/outbox.cif.g09.slc.cpg/sg71_33_cif.got.tgz:65817.got - 2010.06.28 04:59:45.
