data_PCOD8292090
_publ_section_title
;
Structure prediction by ZEFSAII (Michael W. Deem and Ramdas Pophale) SiO2 
 PCOD8292090
Probable space group: I M M M
;
_chemical_formula_sum "Si O2"
_cell_formula_units_Z 96
_cell_length_a 13.509436
_cell_length_b 13.920091
_cell_length_c 26.611525
_cell_angle_alpha 90.000000
_cell_angle_beta 90.000000
_cell_angle_gamma 90.000000
_cell_volume 5004.365893
_symmetry_space_group_name_H-M "I M M M"
_symmetry_group_IT_number 71
_symmetry_cell_setting 'orthorhombic'
loop_
_space_group_symop_operation_xyz
x,y,z
-x,-y,z
x,-y,-z
-x,y,-z
-x,-y,-z
x,y,-z
-x,y,z
x,-y,z
1/2+x,1/2+y,1/2+z
1/2-x,1/2-y,1/2+z
1/2+x,1/2-y,1/2-z
1/2-x,1/2+y,1/2-z
1/2-x,1/2-y,1/2-z
1/2+x,1/2+y,1/2-z
1/2-x,1/2+y,1/2+z
1/2+x,1/2-y,1/2+z
loop_
_atom_site_type_symbol
_atom_site_label
_atom_site_fract_x
_atom_site_fract_y
_atom_site_fract_z
Si Si1 0.614674 0.894002 0.500000
Si Si2 0.500000 0.885855 0.944029
Si Si3 0.889064 0.112542 0.442488
Si Si4 0.201908 0.293076 0.905065
Si Si5 0.117459 0.718558 0.202897
Si Si6 0.698732 0.891964 0.893401
Si Si7 0.243157 0.391861 0.719394
O O1 0.500000 0.911477 0.500000
O O2 0.640040 0.835211 0.450467
O O3 0.667104 0.000000 0.500000
O O4 0.597796 0.849371 0.916201
O O5 0.500000 0.000000 0.944341
O O6 0.500000 0.842843 0.000000
O O7 0.854320 0.132742 0.500000
O O8 0.812036 0.160896 0.404062
O O9 0.000000 0.154773 0.433951
O O10 0.891181 0.000000 0.431743
O O11 0.145855 0.314450 0.853260
O O12 0.212701 0.177617 0.911642
O O13 0.162962 0.638674 0.239403
O O14 0.161370 0.822569 0.218015
O O15 0.000000 0.722714 0.208919
O O16 0.686704 0.888166 0.833605
O O17 0.722353 0.000000 0.912373
O O18 0.280337 0.500000 0.730978
#
# Coordination Sequence:
#
# PCOD8292090 Si02
#       7
#     8   8  16  16  16  16  16
#     4  11  24  40  58  80 111 152 196 240 291 347
#     4   9  18  30  48  80 118 150 186 227 275 341
#     4   9  18  33  53  77 108 149 196 239 286 347
#     4  11  21  36  58  83 115 155 193 242 289 346
#     4  10  22  39  60  88 118 149 196 247 293 350
#     4   9  20  36  55  81 115 151 188 233 282 342
#     4   9  20  40  62  86 114 150 193 242 297 350
#
# _framework density 19.183250000000001
#
# number of rings (size 3 to 8) (size 9 to 14) (size 15 to 20)
#    0.000    2.333    0.833    1.500    3.500    2.000 
#    0.000    0.833    0.000    2.000    0.000    0.000 
#    0.000    0.000    0.000    0.000    0.000    0.000 
#
# Total GULP energy -595142.675653 kJ/mol
# GULP energy per Si atom -12398.805743 kJ/mol
# Density = 1.913959 g / cm^3
# Si number density = 19.183250 Si / 1000 Ang^3
#
#
#
# Elastic Constant Matrix: (Units=GPa)
#
#
# Indices 1 2 3 4 5 6 
#
# 1 105.5220 36.2404 52.9398 0.0000 0.0000 0.0000
# 2 36.2404 96.8741 57.4930 0.0000 0.0000 0.0000
# 3 52.9398 57.4930 107.2553 0.0000 0.0000 0.0000
# 4 0.0000 0.0000 0.0000 23.3854 0.0000 0.0000
# 5 0.0000 0.0000 0.0000 0.0000 31.3286 0.0000
# 6 0.0000 0.0000 0.0000 0.0000 0.0000 21.8072
#
#
#
# Elastic Compliance Matrix: (Units=1/GPa)
#
#
# Indices 1 2 3 4 5 6 
#
# 1 0.012746 -0.001517 -0.005478 0.000000 0.000000 0.000000
# 2 -0.001517 0.015319 -0.007463 0.000000 0.000000 0.000000
# 3 -0.005478 -0.007463 0.016028 0.000000 0.000000 0.000000
# 4 0.000000 0.000000 0.000000 0.042762 0.000000 0.000000
# 5 0.000000 0.000000 0.000000 0.000000 0.031920 0.000000
# 6 0.000000 0.000000 0.000000 0.000000 0.000000 0.045856
#
#
# Mechanical properties :
#
#
# Convention : Reuss Voigt Hill
#
# Bulk Modulus (GPa) = 65.88903 66.99976 66.44440
# Shear Modulus (GPa) = 25.17544 26.16945 25.67244
#
# Velocity S-wave (km/s) = 3.62659 3.69749 3.66221
# Velocity P-wave (km/s) = 7.20818 7.29593 7.25219
#
# Compressibility (1/GPa) = 0.01517703
#
# Stress axis : x y z
#
# Youngs Moduli (GPa) = 78.45575 65.27691 62.39140
#
# Poissons Ratio (x) = 0.09904 0.34178
# Poissons Ratio (y) = 0.11903 0.46562
# Poissons Ratio (z) = 0.42978 0.48716
#
# Static dielectric constant tensor:
#      x y z
#    x 3.440510 0.000000 0.000000 
#    y 0.000000 3.696180 0.000000 
#    z 0.000000 0.000000 3.481230 
# 
# 
# High freq. dielectric constant tensor:
#      x y z
#    x 1.735920 0.000000 0.000000 
#    y 0.000000 1.759420 0.000000 
#    z 0.000000 0.000000 1.739980 
# 
# From -- ./inp_files/59843.got.cif
#   From: 2010.06.25/outbox.cif.g09.slc.cpg/sg71_30_cif.got.tgz:59843.got - 2010.06.28 04:59:45.
