data_PCOD8292761
_publ_section_title
;
Structure prediction by ZEFSAII (Michael W. Deem and Ramdas Pophale) SiO2 
 PCOD8292761
Probable space group: I M M M
;
_chemical_formula_sum "Si O2"
_cell_formula_units_Z 80
_cell_length_a 18.260123
_cell_length_b 27.664482
_cell_length_c 9.541394
_cell_angle_alpha 90.000000
_cell_angle_beta 90.000000
_cell_angle_gamma 90.000000
_cell_volume 4819.900481
_symmetry_space_group_name_H-M "I M M M"
_symmetry_group_IT_number 71
_symmetry_cell_setting 'orthorhombic'
loop_
_space_group_symop_operation_xyz
x,y,z
-x,-y,z
x,-y,-z
-x,y,-z
-x,-y,-z
x,y,-z
-x,y,z
x,-y,z
1/2+x,1/2+y,1/2+z
1/2-x,1/2-y,1/2+z
1/2+x,1/2-y,1/2-z
1/2-x,1/2+y,1/2-z
1/2-x,1/2-y,1/2-z
1/2+x,1/2+y,1/2-z
1/2-x,1/2+y,1/2+z
1/2+x,1/2-y,1/2+z
loop_
_atom_site_type_symbol
_atom_site_label
_atom_site_fract_x
_atom_site_fract_y
_atom_site_fract_z
Si Si1 0.917037 0.093255 0.661170
Si Si2 0.580909 0.209335 0.165240
Si Si3 0.283496 0.849771 0.163909
Si Si4 0.656589 0.306544 0.162450
Si Si5 0.709544 0.446497 0.661549
O O1 0.905614 0.078856 0.500000
O O2 0.899253 0.149452 0.685046
O O3 0.864741 0.059354 0.751788
O O4 0.000000 0.083878 0.709282
O O5 0.500000 0.201381 0.232035
O O6 0.633135 0.164015 0.204817
O O7 0.616741 0.258860 0.221532
O O8 0.572621 0.214038 0.000000
O O9 0.229822 0.814698 0.248625
O O10 0.269546 0.905984 0.204615
O O11 0.269314 0.840402 0.000000
O O12 0.679104 0.300961 0.000000
O O13 0.688059 0.440219 0.500000
O O14 0.742445 0.500000 0.690720
#
# Coordination Sequence:
#
# PCOD8292761 Si02
#       5
#    16  16  16  16  16
#     4   9  17  28  42  62  87 111 136 168 203 240
#     4   9  16  26  43  66  88 110 137 168 203 245
#     4   9  17  29  45  63  83 109 141 174 204 239
#     4   9  16  27  44  64  87 114 139 163 197 243
#     4   9  18  31  44  58  79 109 142 174 210 248
#
# _framework density 16.597853000000001
#
# number of rings (size 3 to 8) (size 9 to 14) (size 15 to 20)
#    0.000    3.000    0.000    1.200    0.000    3.600 
#    0.000    2.000    0.000    4.200    0.000    4.200 
#    0.000    0.000    0.000   10.000    0.000   10.400 
#
# Total GULP energy -495850.569842 kJ/mol
# GULP energy per Si atom -12396.264246 kJ/mol
# Density = 1.656008 g / cm^3
# Si number density = 16.597853 Si / 1000 Ang^3
#
#
#
# Elastic Constant Matrix: (Units=GPa)
#
#
# Indices 1 2 3 4 5 6 
#
# 1 132.9759 73.6318 34.2605 0.0000 0.0000 0.0000
# 2 73.6318 115.5893 27.0251 0.0000 0.0000 0.0000
# 3 34.2605 27.0251 32.2178 0.0004 0.0004 0.0000
# 4 0.0000 0.0000 0.0004 16.5038 0.0001 0.0000
# 5 0.0000 0.0000 0.0004 0.0001 18.3676 0.0000
# 6 0.0000 0.0000 0.0000 0.0000 0.0000 14.2573
#
#
#
# Elastic Compliance Matrix: (Units=1/GPa)
#
#
# Indices 1 2 3 4 5 6 
#
# 1 0.013359 -0.006454 -0.008792 0.000000 0.000000 0.000000
# 2 -0.006454 0.013880 -0.004780 0.000000 0.000000 0.000000
# 3 -0.008792 -0.004780 0.044398 -0.000001 -0.000001 0.000000
# 4 0.000000 0.000000 -0.000001 0.060592 0.000000 0.000000
# 5 0.000000 0.000000 -0.000001 0.000000 0.054444 0.000000
# 6 0.000000 0.000000 0.000000 0.000000 0.000000 0.070139
#
#
# Mechanical properties :
#
#
# Convention : Reuss Voigt Hill
#
# Bulk Modulus (GPa) = 31.66071 61.17978 46.42024
# Shear Modulus (GPa) = 16.26581 19.55012 17.90797
#
# Velocity S-wave (km/s) = 3.13388 3.43574 3.28827
# Velocity P-wave (km/s) = 5.67552 7.25804 6.51501
#
# Compressibility (1/GPa) = 0.03158489
#
# Stress axis : x y z
#
# Youngs Moduli (GPa) = 74.85358 72.04428 22.52376
#
# Poissons Ratio (x) = 0.46501 0.19803
# Poissons Ratio (y) = 0.48314 0.10765
# Poissons Ratio (z) = 0.65813 0.34434
#
# Static dielectric constant tensor:
#      x y z
#    x 3.214090 0.000000 0.000000 
#    y 0.000000 3.233930 0.000000 
#    z 0.000000 0.000000 2.969880 
# 
# 
# High freq. dielectric constant tensor:
#      x y z
#    x 1.625230 0.000000 0.000000 
#    y 0.000000 1.639290 0.000000 
#    z 0.000000 0.000000 1.616450 
# 
# From -- ./inp_files/8269.got.cif
#   From: 2010.06.25/outbox.cif.g09.slc.cpg/sg71_5_cif.got.tgz:8269.got - 2010.06.28 04:59:45.
