data_PCOD8292281
_publ_section_title
;
Structure prediction by ZEFSAII (Michael W. Deem and Ramdas Pophale) SiO2 
 PCOD8292281
Probable space group: I M M M
;
_chemical_formula_sum "Si O2"
_cell_formula_units_Z 104
_cell_length_a 24.026801
_cell_length_b 9.282270
_cell_length_c 28.297687
_cell_angle_alpha 90.000000
_cell_angle_beta 90.000000
_cell_angle_gamma 90.000000
_cell_volume 6311.042239
_symmetry_space_group_name_H-M "I M M M"
_symmetry_group_IT_number 71
_symmetry_cell_setting 'orthorhombic'
loop_
_space_group_symop_operation_xyz
x,y,z
-x,-y,z
x,-y,-z
-x,y,-z
-x,-y,-z
x,y,-z
-x,y,z
x,-y,z
1/2+x,1/2+y,1/2+z
1/2-x,1/2-y,1/2+z
1/2+x,1/2-y,1/2-z
1/2-x,1/2+y,1/2-z
1/2-x,1/2-y,1/2-z
1/2+x,1/2+y,1/2-z
1/2-x,1/2+y,1/2+z
1/2+x,1/2-y,1/2+z
loop_
_atom_site_type_symbol
_atom_site_label
_atom_site_fract_x
_atom_site_fract_y
_atom_site_fract_z
Si Si1 0.356406 0.670890 0.947792
Si Si2 0.937747 0.829044 0.000000
Si Si3 0.435398 0.831356 0.671518
Si Si4 0.269223 0.166359 0.555077
Si Si5 0.870737 0.828577 0.091279
Si Si6 0.936148 0.830273 0.366460
Si Si7 0.933985 0.658745 0.276976
O O1 0.361025 0.500000 0.950058
O O2 0.293837 0.713683 0.933043
O O3 0.399957 0.733391 0.909734
O O4 0.370638 0.733437 0.000000
O O5 0.906344 0.773400 0.046513
O O6 0.000000 0.764275 0.000000
O O7 0.939754 0.000000 0.000000
O O8 0.500000 0.792174 0.663881
O O9 0.398583 0.732661 0.638076
O O10 0.415452 0.791622 0.724680
O O11 0.425397 0.000000 0.661232
O O12 0.281595 0.192332 0.500000
O O13 0.308676 0.266464 0.586624
O O14 0.279368 0.000000 0.568442
O O15 0.868077 0.000000 0.094301
O O16 0.912428 0.766546 0.317401
O O17 0.000000 0.784679 0.375354
O O18 0.929655 0.000000 0.362618
O O19 0.909902 0.500000 0.287955
O O20 0.000000 0.652653 0.277103
#
# Coordination Sequence:
#
# PCOD8292281 Si02
#       7
#    16   8  16  16  16  16  16
#     4   8  15  28  46  69  96 126 156 187 225 268
#     4   9  18  30  41  59  91 123 142 167 224 288
#     4   9  18  32  48  67  91 120 156 192 226 273
#     4   9  17  31  49  64  84 120 164 197 222 264
#     4  11  20  30  46  67  93 121 150 191 237 279
#     4   9  16  26  45  74 101 122 149 186 226 271
#     4   8  15  29  47  65  90 124 155 184 223 272
#
# _framework density 16.479054000000001
#
# number of rings (size 3 to 8) (size 9 to 14) (size 15 to 20)
#    0.000    3.000    0.769    2.769    0.000    1.846 
#    0.000    3.846    0.000    4.154    0.000    2.154 
#    0.000    0.000    0.000    0.000    0.000    0.000 
#
# Total GULP energy -644598.299296 kJ/mol
# GULP energy per Si atom -12396.121140 kJ/mol
# Density = 1.644155 g / cm^3
# Si number density = 16.479054 Si / 1000 Ang^3
#
#
#
# Elastic Constant Matrix: (Units=GPa)
#
#
# Indices 1 2 3 4 5 6 
#
# 1 88.2896 39.8192 70.4161 0.0000 0.0000 0.0000
# 2 39.8192 50.3013 50.3161 0.0000 0.0000 0.0000
# 3 70.4161 50.3161 138.1131 0.0000 0.0000 0.0000
# 4 0.0000 0.0000 0.0000 21.9979 0.0000 0.0000
# 5 0.0000 0.0000 0.0000 0.0000 13.1750 0.0000
# 6 0.0000 0.0000 0.0000 0.0000 0.0000 15.5568
#
#
#
# Elastic Compliance Matrix: (Units=1/GPa)
#
#
# Indices 1 2 3 4 5 6 
#
# 1 0.021687 -0.009609 -0.007556 0.000000 0.000000 0.000000
# 2 -0.009609 0.035536 -0.008047 0.000000 0.000000 0.000000
# 3 -0.007556 -0.008047 0.014025 0.000000 0.000000 0.000000
# 4 0.000000 0.000000 0.000000 0.045459 0.000000 0.000000
# 5 0.000000 0.000000 0.000000 0.000000 0.075901 0.000000
# 6 0.000000 0.000000 0.000000 0.000000 0.000000 0.064281
#
#
# Mechanical properties :
#
#
# Convention : Reuss Voigt Hill
#
# Bulk Modulus (GPa) = 48.02416 66.42299 57.22357
# Shear Modulus (GPa) = 15.91071 17.88945 16.90008
#
# Velocity S-wave (km/s) = 3.11064 3.29840 3.20589
# Velocity P-wave (km/s) = 6.48901 7.40952 6.96449
#
# Compressibility (1/GPa) = 0.02082285
#
# Stress axis : x y z
#
# Youngs Moduli (GPa) = 46.11162 28.14017 71.30368
#
# Poissons Ratio (x) = 0.27040 0.53877
# Poissons Ratio (y) = 0.44309 0.57379
# Poissons Ratio (z) = 0.34842 0.22645
#
# Static dielectric constant tensor:
#      x y z
#    x 3.035250 0.000000 0.000000 
#    y 0.000000 2.913010 0.000000 
#    z 0.000000 0.000000 3.342780 
# 
# 
# High freq. dielectric constant tensor:
#      x y z
#    x 1.615080 0.000000 0.000000 
#    y 0.000000 1.612670 0.000000 
#    z 0.000000 0.000000 1.635210 
# 
# From -- ./inp_files/62298.got.cif
#   From: 2010.06.25/outbox.cif.g09.slc.cpg/sg71_32_cif.got.tgz:62298.got - 2010.06.28 04:59:45.
