data_PCOD8292052
_publ_section_title
;
Structure prediction by ZEFSAII (Michael W. Deem and Ramdas Pophale) SiO2 
 PCOD8292052
Probable space group: I M M M
;
_chemical_formula_sum "Si O2"
_cell_formula_units_Z 96
_cell_length_a 24.315480
_cell_length_b 21.414162
_cell_length_c 9.501310
_cell_angle_alpha 90.000000
_cell_angle_beta 90.000000
_cell_angle_gamma 90.000000
_cell_volume 4947.290576
_symmetry_space_group_name_H-M "I M M M"
_symmetry_group_IT_number 71
_symmetry_cell_setting 'orthorhombic'
loop_
_space_group_symop_operation_xyz
x,y,z
-x,-y,z
x,-y,-z
-x,y,-z
-x,-y,-z
x,y,-z
-x,y,z
x,-y,z
1/2+x,1/2+y,1/2+z
1/2-x,1/2-y,1/2+z
1/2+x,1/2-y,1/2-z
1/2-x,1/2+y,1/2-z
1/2-x,1/2-y,1/2-z
1/2+x,1/2+y,1/2-z
1/2-x,1/2+y,1/2+z
1/2+x,1/2-y,1/2+z
loop_
_atom_site_type_symbol
_atom_site_label
_atom_site_fract_x
_atom_site_fract_y
_atom_site_fract_z
Si Si1 0.677815 0.431348 0.167477
Si Si2 0.062459 0.428063 0.344030
Si Si3 0.749397 0.313899 0.839510
Si Si4 0.559078 0.399891 0.166485
Si Si5 0.874750 0.336910 0.841270
Si Si6 0.438605 0.742533 0.160666
O O1 0.702428 0.500000 0.212614
O O2 0.710770 0.369985 0.224550
O O3 0.614567 0.431708 0.225415
O O4 0.678651 0.426071 0.000000
O O5 0.071529 0.398520 0.500000
O O6 0.077121 0.500000 0.350789
O O7 0.102372 0.398738 0.230395
O O8 0.000000 0.417091 0.295899
O O9 0.750000 0.250000 0.750000
O O10 0.809667 0.342659 0.837226
O O11 0.731640 0.297438 0.000000
O O12 0.500000 0.427787 0.223209
O O13 0.561306 0.328141 0.211239
O O14 0.558491 0.406733 0.000000
O O15 0.894858 0.276519 0.757877
O O16 0.896848 0.332627 0.000000
O O17 0.500000 0.771481 0.177276
O O18 0.418636 0.747932 0.000000
#
# Coordination Sequence:
#
# PCOD8292052 Si02
#       6
#    16  16  16  16  16  16
#     4   9  17  30  49  72 100 134 168 206 256 309
#     4   9  19  36  55  74  99 134 175 214 255 313
#     4  10  22  38  55  76 103 140 183 221 261 313
#     4   8  14  25  44  72 100 125 158 199 244 297
#     4  11  22  32  47  74 102 129 168 218 268 313
#     4   9  17  30  49  72 100 135 170 203 246 306
#
# _framework density 19.40456
#
# number of rings (size 3 to 8) (size 9 to 14) (size 15 to 20)
#    0.000    2.667    0.000    3.500    0.000    6.667 
#    0.000    4.167    0.000    0.500    0.000    0.000 
#    0.000    0.000    0.000   14.333    0.000   11.667 
#
# Total GULP energy -594646.670401 kJ/mol
# GULP energy per Si atom -12388.472300 kJ/mol
# Density = 1.936039 g / cm^3
# Si number density = 19.404560 Si / 1000 Ang^3
#
#
#
# Elastic Constant Matrix: (Units=GPa)
#
#
# Indices 1 2 3 4 5 6 
#
# 1 94.0184 45.9464 31.5553 0.0000 0.0000 0.0000
# 2 45.9464 123.2153 31.8806 0.0000 0.0000 0.0000
# 3 31.5553 31.8806 62.1672 0.0000 0.0000 0.0000
# 4 0.0000 0.0000 0.0000 15.1981 0.0000 0.0000
# 5 0.0000 0.0000 0.0000 0.0000 20.8257 0.0000
# 6 0.0000 0.0000 0.0000 0.0000 0.0000 28.1211
#
#
#
# Elastic Compliance Matrix: (Units=1/GPa)
#
#
# Indices 1 2 3 4 5 6 
#
# 1 0.014345 -0.003995 -0.005232 0.000000 0.000000 0.000000
# 2 -0.003995 0.010470 -0.003341 0.000000 0.000000 0.000000
# 3 -0.005232 -0.003341 0.020455 0.000000 0.000000 0.000000
# 4 0.000000 0.000000 0.000000 0.065797 0.000000 0.000000
# 5 0.000000 0.000000 0.000000 0.000000 0.048018 0.000000
# 6 0.000000 0.000000 0.000000 0.000000 0.000000 0.035560
#
#
# Mechanical properties :
#
#
# Convention : Reuss Voigt Hill
#
# Bulk Modulus (GPa) = 49.67214 55.35172 52.51193
# Shear Modulus (GPa) = 22.07558 24.16357 23.11958
#
# Velocity S-wave (km/s) = 3.37656 3.53264 3.45548
# Velocity P-wave (km/s) = 6.39182 6.72506 6.56056
#
# Compressibility (1/GPa) = 0.02013201
#
# Stress axis : x y z
#
# Youngs Moduli (GPa) = 69.71149 95.50867 48.88766
#
# Poissons Ratio (x) = 0.38159 0.25580
# Poissons Ratio (y) = 0.27852 0.16335
# Poissons Ratio (z) = 0.36476 0.31913
#
# Static dielectric constant tensor:
#      x y z
#    x 3.727530 0.000000 0.000000 
#    y 0.000000 3.620210 0.000000 
#    z 0.000000 0.000000 4.227760 
# 
# 
# High freq. dielectric constant tensor:
#      x y z
#    x 1.762000 0.000000 0.000000 
#    y 0.000000 1.764840 0.000000 
#    z 0.000000 0.000000 1.700930 
# 
# From -- ./inp_files/12851.got.cif
#   From: 2010.06.25/outbox.cif.g09.slc.cpg/sg71_7_cif.got.tgz:12851.got - 2010.06.28 04:59:45.
