data_PCOD8292865
_publ_section_title
;
Structure prediction by ZEFSAII (Michael W. Deem and Ramdas Pophale) SiO2 
 PCOD8292865
Probable space group: I B A M
;
_chemical_formula_sum "Si O2"
_cell_formula_units_Z 80
_cell_length_a 17.736538
_cell_length_b 27.980984
_cell_length_c 8.746336
_cell_angle_alpha 90.000000
_cell_angle_beta 90.000000
_cell_angle_gamma 90.000000
_cell_volume 4340.682236
_symmetry_space_group_name_H-M "I B A M"
_symmetry_group_IT_number 72
_symmetry_cell_setting 'orthorhombic'
loop_
_space_group_symop_operation_xyz
x,y,z
-x,-y,z
x,-y,1/2-z
-x,y,1/2-z
-x,-y,-z
x,y,-z
-x,y,1/2+z
x,-y,1/2+z
1/2+x,1/2+y,1/2+z
1/2-x,1/2-y,1/2+z
1/2+x,1/2-y,-z
1/2-x,1/2+y,-z
1/2-x,1/2-y,1/2-z
1/2+x,1/2+y,1/2-z
1/2-x,1/2+y,z
1/2+x,1/2-y,z
loop_
_atom_site_type_symbol
_atom_site_label
_atom_site_fract_x
_atom_site_fract_y
_atom_site_fract_z
Si Si1 0.291198 0.361889 0.323981
Si Si2 0.074265 0.552875 0.817665
Si Si3 0.420277 0.712449 0.820276
Si Si4 0.772517 0.448464 0.680106
Si Si5 0.184659 0.719783 0.176473
O O1 0.302196 0.376490 0.500000
O O2 0.360239 0.328195 0.270958
O O3 0.292351 0.410029 0.221673
O O4 0.209981 0.335259 0.301993
O O5 0.073161 0.500000 0.750000
O O6 0.152096 0.574726 0.755542
O O7 0.000000 0.580004 0.750000
O O8 0.072365 0.553189 0.000000
O O9 0.500000 0.698099 0.750000
O O10 0.393405 0.764702 0.758209
O O11 0.427661 0.716307 0.000000
O O12 0.751777 0.500000 0.750000
O O13 0.782314 0.454390 0.500000
O O14 0.250000 0.750000 0.250000
O O15 0.177027 0.733049 0.000000
#
# Coordination Sequence:
#
# PCOD8292865 Si02
#       5
#    16  16  16  16  16
#     4   9  19  35  53  76 105 138 174 215 259 307
#     4  10  17  28  45  65  91 121 158 203 249 298
#     4  10  20  34  55  81 110 140 173 213 259 313
#     4  11  21  33  51  74 101 137 179 222 264 310
#     4   9  17  31  52  76 104 134 166 205 252 306
#
# _framework density 18.430281999999998
#
# number of rings (size 3 to 8) (size 9 to 14) (size 15 to 20)
#    0.000    2.200    0.000    7.800    0.000    4.800 
#    0.000    1.000    0.000    5.400    0.000    4.200 
#    0.000    0.000    0.000    0.000    0.000    0.000 
#
# Total GULP energy -495653.399857 kJ/mol
# GULP energy per Si atom -12391.334996 kJ/mol
# Density = 1.838833 g / cm^3
# Si number density = 18.430282 Si / 1000 Ang^3
#
#
#
# Elastic Constant Matrix: (Units=GPa)
#
#
# Indices 1 2 3 4 5 6 
#
# 1 96.9012 44.5071 47.5932 0.0001 0.0000 0.0000
# 2 44.5071 81.4873 47.4386 -0.0001 -0.0001 0.0000
# 3 47.5932 47.4386 142.3292 0.0017 0.0018 0.0008
# 4 0.0001 -0.0001 0.0017 27.6536 0.0006 0.0003
# 5 0.0000 -0.0001 0.0018 0.0006 32.0835 0.0001
# 6 0.0000 0.0000 0.0008 0.0003 0.0001 18.3752
#
#
#
# Elastic Compliance Matrix: (Units=1/GPa)
#
#
# Indices 1 2 3 4 5 6 
#
# 1 0.014600 -0.006368 -0.002760 0.000000 0.000000 0.000000
# 2 -0.006368 0.018004 -0.003871 0.000000 0.000000 0.000000
# 3 -0.002760 -0.003871 0.009239 -0.000001 -0.000001 0.000000
# 4 0.000000 0.000000 -0.000001 0.036162 -0.000001 0.000000
# 5 0.000000 0.000000 -0.000001 -0.000001 0.031169 0.000000
# 6 0.000000 0.000000 0.000000 0.000000 0.000000 0.054421
#
#
# Mechanical properties :
#
#
# Convention : Reuss Voigt Hill
#
# Bulk Modulus (GPa) = 63.11082 66.64395 64.87738
# Shear Modulus (GPa) = 25.65773 27.70104 26.67939
#
# Velocity S-wave (km/s) = 3.73520 3.88108 3.80884
# Velocity P-wave (km/s) = 7.27459 7.50482 7.39060
#
# Compressibility (1/GPa) = 0.01584514
#
# Stress axis : x y z
#
# Youngs Moduli (GPa) = 68.49365 55.54475 108.23568
#
# Poissons Ratio (x) = 0.35369 0.29870
# Poissons Ratio (y) = 0.43614 0.41902
# Poissons Ratio (z) = 0.18902 0.21503
#
# Static dielectric constant tensor:
#      x y z
#    x 3.848410 0.000000 0.000000 
#    y 0.000000 3.298600 0.000000 
#    z 0.000000 0.000000 3.647220 
# 
# 
# High freq. dielectric constant tensor:
#      x y z
#    x 1.696990 0.000000 0.000000 
#    y 0.000000 1.690910 0.000000 
#    z 0.000000 0.000000 1.729840 
# 
# From -- ./inp_files/4754.got.cif
#   From: 2010.03.12/outbox.cif.g09.slc.cpg/sg72_3_cif.got.tgz:4754.got - 2010.04.16 14:54:00.
