data_PCOD8292211
_publ_section_title
;
Structure prediction by ZEFSAII (Michael W. Deem and Ramdas Pophale) SiO2 
 PCOD8292211
Probable space group: I M M M
;
_chemical_formula_sum "Si O2"
_cell_formula_units_Z 76
_cell_length_a 12.976921
_cell_length_b 28.445592
_cell_length_c 10.488135
_cell_angle_alpha 90.000000
_cell_angle_beta 90.000000
_cell_angle_gamma 90.000000
_cell_volume 3871.550301
_symmetry_space_group_name_H-M "I M M M"
_symmetry_group_IT_number 71
_symmetry_cell_setting 'orthorhombic'
loop_
_space_group_symop_operation_xyz
x,y,z
-x,-y,z
x,-y,-z
-x,y,-z
-x,-y,-z
x,y,-z
-x,y,z
x,-y,z
1/2+x,1/2+y,1/2+z
1/2-x,1/2-y,1/2+z
1/2+x,1/2-y,1/2-z
1/2-x,1/2+y,1/2-z
1/2-x,1/2-y,1/2-z
1/2+x,1/2+y,1/2-z
1/2-x,1/2+y,1/2+z
1/2+x,1/2-y,1/2+z
loop_
_atom_site_type_symbol
_atom_site_label
_atom_site_fract_x
_atom_site_fract_y
_atom_site_fract_z
Si Si1 0.616539 0.795162 0.770352
Si Si2 0.000000 0.556027 0.257980
Si Si3 0.113182 0.052466 0.848661
Si Si4 0.667243 0.807609 0.500000
Si Si5 0.805181 0.391458 0.647965
Si Si6 0.500000 0.887662 0.500000
Si Si7 0.618696 0.725252 0.000000
O O1 0.500000 0.812243 0.790539
O O2 0.634854 0.777143 0.625332
O O3 0.685138 0.841580 0.783163
O O4 0.641808 0.755424 0.873052
O O5 0.100627 0.572944 0.333207
O O6 0.000000 0.578400 0.119242
O O7 0.000000 0.500000 0.249341
O O8 0.201771 0.085810 0.792259
O O9 0.000000 0.071888 0.809523
O O10 0.127866 0.000000 0.793288
O O11 0.123606 0.050424 0.000000
O O12 0.604594 0.856626 0.500000
O O13 0.792812 0.815013 0.500000
O O14 0.793197 0.380640 0.500000
O O15 0.500000 0.706184 0.000000
#
# Coordination Sequence:
#
# PCOD8292211 Si02
#       7
#    16   8  16   8  16   4   8
#     4  11  20  37  60  86 119 153 190 232 296 354
#     4  12  24  36  55  89 118 148 200 247 291 349
#     4   8  15  28  45  67 101 145 187 226 273 330
#     4  12  20  41  64  84 109 155 207 223 285 361
#     4  11  19  31  55  82 114 153 186 235 293 345
#     4  12  23  42  64  76 110 168 190 244 293 356
#     4  10  24  38  63  93 118 148 183 251 294 348
#
# _framework density 19.630379000000001
#
# number of rings (size 3 to 8) (size 9 to 14) (size 15 to 20)
#    0.000    1.474    5.263    2.368    0.000    1.684 
#    0.000    1.053    2.316    0.000    0.000    0.000 
#    0.000    5.895    0.000    0.000    0.000    0.000 
#
# Total GULP energy -470986.398558 kJ/mol
# GULP energy per Si atom -12394.378909 kJ/mol
# Density = 1.958570 g / cm^3
# Si number density = 19.630379 Si / 1000 Ang^3
#
#
#
# Elastic Constant Matrix: (Units=GPa)
#
#
# Indices 1 2 3 4 5 6 
#
# 1 156.4815 59.0430 6.3530 0.0000 -0.0001 0.0000
# 2 59.0430 65.6007 17.3497 0.0006 0.0001 0.0000
# 3 6.3530 17.3497 94.3425 -0.0015 -0.0021 0.0002
# 4 0.0000 0.0006 -0.0015 0.1693 0.0006 0.0001
# 5 -0.0001 0.0001 -0.0021 0.0006 10.5116 0.0002
# 6 0.0000 0.0000 0.0002 0.0001 0.0002 30.5783
#
#
#
# Elastic Compliance Matrix: (Units=1/GPa)
#
#
# Indices 1 2 3 4 5 6 
#
# 1 0.009767 -0.009057 0.001008 0.000044 0.000000 0.000000
# 2 -0.009057 0.024422 -0.003881 -0.000126 -0.000001 0.000000
# 3 0.001008 -0.003881 0.011246 0.000113 0.000002 0.000000
# 4 0.000044 -0.000126 0.000113 5.907523 -0.000359 -0.000011
# 5 0.000000 -0.000001 0.000002 -0.000359 0.095133 -0.000001
# 6 0.000000 0.000000 0.000000 -0.000011 -0.000001 0.032703
#
#
# Mechanical properties :
#
#
# Convention : Reuss Voigt Hill
#
# Bulk Modulus (GPa) = 46.35340 53.54624 49.94982
# Shear Modulus (GPa) = 0.81808 23.83043 12.32426
#
# Velocity S-wave (km/s) = 0.64626 3.48797 2.50834
# Velocity P-wave (km/s) = 4.92151 6.59982 5.82146
#
# Compressibility (1/GPa) = 0.02157339
#
# Stress axis : x y z
#
# Youngs Moduli (GPa) = 102.38476 40.94642 88.92376
#
# Poissons Ratio (x) = 0.37086 -0.08963
# Poissons Ratio (y) = 0.92733 0.34515
# Poissons Ratio (z) = -0.10320 0.15893
#
# Static dielectric constant tensor:
#      x y z
#    x 3.951840 0.000000 0.000000 
#    y 0.000000 3.320770 0.000000 
#    z 0.000000 0.000000 3.649610 
# 
# 
# High freq. dielectric constant tensor:
#      x y z
#    x 1.780300 0.000000 0.000000 
#    y 0.000000 1.733550 0.000000 
#    z 0.000000 0.000000 1.754700 
# 
# From -- ./inp_files/20214.got.cif
#   From: 2010.06.25/outbox.cif.g09.slc.cpg/sg71_11_cif.got.tgz:20214.got - 2010.06.28 04:59:45.
