data_PCOD8292637
_publ_section_title
;
Structure prediction by ZEFSAII (Michael W. Deem and Ramdas Pophale) SiO2 
 PCOD8292637
Probable space group: I M M M
;
_chemical_formula_sum "Si O2"
_cell_formula_units_Z 96
_cell_length_a 32.779761
_cell_length_b 9.479869
_cell_length_c 19.101140
_cell_angle_alpha 90.000000
_cell_angle_beta 90.000000
_cell_angle_gamma 90.000000
_cell_volume 5935.637999
_symmetry_space_group_name_H-M "I M M M"
_symmetry_group_IT_number 71
_symmetry_cell_setting 'orthorhombic'
loop_
_space_group_symop_operation_xyz
x,y,z
-x,-y,z
x,-y,-z
-x,y,-z
-x,-y,-z
x,y,-z
-x,y,z
x,-y,z
1/2+x,1/2+y,1/2+z
1/2-x,1/2-y,1/2+z
1/2+x,1/2-y,1/2-z
1/2-x,1/2+y,1/2-z
1/2-x,1/2-y,1/2-z
1/2+x,1/2+y,1/2-z
1/2-x,1/2+y,1/2+z
1/2+x,1/2-y,1/2+z
loop_
_atom_site_type_symbol
_atom_site_label
_atom_site_fract_x
_atom_site_fract_y
_atom_site_fract_z
Si Si1 0.589186 0.832987 0.923271
Si Si2 0.168372 0.667919 0.923098
Si Si3 0.829349 0.334792 0.651684
Si Si4 0.876296 0.667311 0.788730
Si Si5 0.954861 0.331497 0.287520
Si Si6 0.260871 0.336137 0.080237
O O1 0.635238 0.791910 0.902721
O O2 0.557641 0.775268 0.864913
O O3 0.585440 0.000000 0.925720
O O4 0.579014 0.768518 0.000000
O O5 0.166906 0.500000 0.923013
O O6 0.138300 0.730475 0.863382
O O7 0.214567 0.715324 0.907348
O O8 0.154573 0.723705 0.000000
O O9 0.819667 0.500000 0.647878
O O10 0.843778 0.289763 0.729293
O O11 0.788683 0.251262 0.633074
O O12 0.878392 0.500000 0.792699
O O13 0.921654 0.724498 0.769055
O O14 0.954369 0.500000 0.288140
O O15 0.000000 0.274069 0.268508
O O16 0.265632 0.500000 0.098581
O O17 0.273582 0.307129 0.000000
#
# Coordination Sequence:
#
# PCOD8292637 Si02
#       6
#    16  16  16  16  16  16
#     4   8  13  20  30  46  69  97 126 151 178 219
#     4   8  14  25  39  52  68  94 126 157 190 229
#     4   9  16  25  38  56  78 104 131 159 193 228
#     4   8  14  24  37  53  72  95 124 155 189 232
#     4   8  13  20  30  46  69  95 120 150 190 227
#     4   9  17  27  38  54  76 102 134 167 190 213
#
# _framework density 16.173493000000001
#
# number of rings (size 3 to 8) (size 9 to 14) (size 15 to 20)
#    0.000    3.667    0.000    3.500    0.000    2.000 
#    0.000    1.667    0.000    0.500    0.000    3.500 
#    0.000   10.667    0.000   36.667    0.000   30.667 
#
# Total GULP energy -594695.726216 kJ/mol
# GULP energy per Si atom -12389.494296 kJ/mol
# Density = 1.613668 g / cm^3
# Si number density = 16.173493 Si / 1000 Ang^3
#
#
#
# Elastic Constant Matrix: (Units=GPa)
#
#
# Indices 1 2 3 4 5 6 
#
# 1 124.0062 17.0321 91.5556 0.0000 0.0000 0.0000
# 2 17.0321 12.8959 16.8192 0.0000 0.0000 0.0000
# 3 91.5556 16.8192 135.4655 0.0000 0.0000 0.0000
# 4 0.0000 0.0000 0.0000 9.2175 0.0000 0.0000
# 5 0.0000 0.0000 0.0000 0.0000 18.6664 0.0000
# 6 0.0000 0.0000 0.0000 0.0000 0.0000 12.0494
#
#
#
# Elastic Compliance Matrix: (Units=1/GPa)
#
#
# Indices 1 2 3 4 5 6 
#
# 1 0.016904 -0.008860 -0.010325 0.000000 0.000000 0.000000
# 2 -0.008860 0.097170 -0.006077 0.000000 0.000000 0.000000
# 3 -0.010325 -0.006077 0.015114 0.000000 0.000000 0.000000
# 4 0.000000 0.000000 0.000000 0.108489 0.000000 0.000000
# 5 0.000000 0.000000 0.000000 0.000000 0.053572 0.000000
# 6 0.000000 0.000000 0.000000 0.000000 0.000000 0.082992
#
#
# Mechanical properties :
#
#
# Convention : Reuss Voigt Hill
#
# Bulk Modulus (GPa) = 12.71186 58.13126 35.42156
# Shear Modulus (GPa) = 11.08683 17.78405 14.43544
#
# Velocity S-wave (km/s) = 2.62103 3.31959 2.99078
# Velocity P-wave (km/s) = 4.12753 7.12132 5.82021
#
# Compressibility (1/GPa) = 0.07866666
#
# Stress axis : x y z
#
# Youngs Moduli (GPa) = 59.15850 10.29120 66.16238
#
# Poissons Ratio (x) = 0.09118 0.68309
# Poissons Ratio (y) = 0.52413 0.40204
# Poissons Ratio (z) = 0.61078 0.06254
#
# Static dielectric constant tensor:
#      x y z
#    x 3.208820 0.000000 0.000000 
#    y 0.000000 2.386870 0.000000 
#    z 0.000000 0.000000 3.474960 
# 
# 
# High freq. dielectric constant tensor:
#      x y z
#    x 1.617180 0.000000 0.000000 
#    y 0.000000 1.546810 0.000000 
#    z 0.000000 0.000000 1.623460 
# 
# From -- ./inp_files/56368.got.cif
#   From: 2010.06.25/outbox.cif.g09.slc.cpg/sg71_29_cif.got.tgz:56368.got - 2010.06.28 04:59:45.
