data_PCOD8292437
_publ_section_title
;
Structure prediction by ZEFSAII (Michael W. Deem and Ramdas Pophale) SiO2 
 PCOD8292437
Probable space group: I M M M
;
_chemical_formula_sum "Si O2"
_cell_formula_units_Z 64
_cell_length_a 13.055271
_cell_length_b 21.865003
_cell_length_c 12.700747
_cell_angle_alpha 90.000000
_cell_angle_beta 90.000000
_cell_angle_gamma 90.000000
_cell_volume 3625.473186
_symmetry_space_group_name_H-M "I M M M"
_symmetry_group_IT_number 71
_symmetry_cell_setting 'orthorhombic'
loop_
_space_group_symop_operation_xyz
x,y,z
-x,-y,z
x,-y,-z
-x,y,-z
-x,-y,-z
x,y,-z
-x,y,z
x,-y,z
1/2+x,1/2+y,1/2+z
1/2-x,1/2-y,1/2+z
1/2+x,1/2-y,1/2-z
1/2-x,1/2+y,1/2-z
1/2-x,1/2-y,1/2-z
1/2+x,1/2+y,1/2-z
1/2-x,1/2+y,1/2+z
1/2+x,1/2-y,1/2+z
loop_
_atom_site_type_symbol
_atom_site_label
_atom_site_fract_x
_atom_site_fract_y
_atom_site_fract_z
Si Si1 0.620054 0.571474 0.500000
Si Si2 0.379776 0.000000 0.123342
Si Si3 0.118205 0.142137 0.380397
Si Si4 0.750943 0.889368 0.807758
Si Si5 0.384730 0.784466 0.878221
O O1 0.650114 0.500000 0.500000
O O2 0.500000 0.581430 0.500000
O O3 0.664062 0.604636 0.397729
O O4 0.335126 0.940750 0.180414
O O5 0.500000 0.000000 0.139997
O O6 0.350491 0.000000 0.000000
O O7 0.145139 0.123908 0.500000
O O8 0.191448 0.103511 0.303736
O O9 0.139340 0.213525 0.361611
O O10 0.000000 0.126493 0.356320
O O11 0.695974 0.823640 0.811800
O O12 0.500000 0.799008 0.839611
O O13 0.374356 0.803208 0.000000
#
# Coordination Sequence:
#
# PCOD8292437 Si02
#       5
#     8   8  16  16  16
#     4  11  22  34  48  76 112 140 168 215 272 317
#     4  11  22  36  55  84 111 133 172 216 260 320
#     4   9  20  36  53  76 104 140 181 217 251 305
#     4  12  18  34  54  80 104 141 173 215 264 317
#     4   9  17  31  53  80 108 135 173 217 260 312
#
# _framework density 17.652868999999999
#
# number of rings (size 3 to 8) (size 9 to 14) (size 15 to 20)
#    0.000    1.750    3.750    3.750    0.000    2.000 
#    0.000    0.625    0.000    5.250    0.000    0.000 
#    0.000    0.000    0.000    0.000    0.000    0.000 
#
# Total GULP energy -396852.516986 kJ/mol
# GULP energy per Si atom -12401.641156 kJ/mol
# Density = 1.761269 g / cm^3
# Si number density = 17.652869 Si / 1000 Ang^3
#
#
#
# Elastic Constant Matrix: (Units=GPa)
#
#
# Indices 1 2 3 4 5 6 
#
# 1 118.1098 42.0277 68.9887 0.0001 0.0000 0.0000
# 2 42.0277 52.2179 38.4075 -0.0002 0.0000 0.0000
# 3 68.9887 38.4075 117.7609 -0.0005 0.0000 0.0000
# 4 0.0001 -0.0002 -0.0005 17.4686 0.0000 0.0000
# 5 0.0000 0.0000 0.0000 0.0000 32.8705 0.0000
# 6 0.0000 0.0000 0.0000 0.0000 0.0000 20.8444
#
#
#
# Elastic Compliance Matrix: (Units=1/GPa)
#
#
# Indices 1 2 3 4 5 6 
#
# 1 0.014687 -0.007226 -0.006248 0.000000 0.000000 0.000000
# 2 -0.007226 0.028749 -0.005143 0.000000 0.000000 0.000000
# 3 -0.006248 -0.005143 0.013829 0.000000 0.000000 0.000000
# 4 0.000000 0.000000 0.000000 0.057246 0.000000 0.000000
# 5 0.000000 0.000000 0.000000 0.000000 0.030422 0.000000
# 6 0.000000 0.000000 0.000000 0.000000 0.000000 0.047974
#
#
# Mechanical properties :
#
#
# Convention : Reuss Voigt Hill
#
# Bulk Modulus (GPa) = 49.91944 65.21516 57.56730
# Shear Modulus (GPa) = 21.11314 23.48101 22.29708
#
# Velocity S-wave (km/s) = 3.46210 3.65108 3.55785
# Velocity P-wave (km/s) = 6.65742 7.40251 7.03983
#
# Compressibility (1/GPa) = 0.02003228
#
# Stress axis : x y z
#
# Youngs Moduli (GPa) = 68.08671 34.78350 72.30975
#
# Poissons Ratio (x) = 0.25134 0.45176
# Poissons Ratio (y) = 0.49198 0.37192
# Poissons Ratio (z) = 0.42538 0.17891
#
# Static dielectric constant tensor:
#      x y z
#    x 3.292950 0.000000 0.000000 
#    y 0.000000 3.154610 0.000000 
#    z 0.000000 0.000000 3.113570 
# 
# 
# High freq. dielectric constant tensor:
#      x y z
#    x 1.693870 0.000000 0.000000 
#    y 0.000000 1.674970 0.000000 
#    z 0.000000 0.000000 1.662570 
# 
# From -- ./inp_files/21280.got.cif
#   From: 2010.06.25/outbox.cif.g09.slc.cpg/sg71_11_cif.got.tgz:21280.got - 2010.06.28 04:59:45.
