data_PCOD8292622
_publ_section_title
;
Structure prediction by ZEFSAII (Michael W. Deem and Ramdas Pophale) SiO2 
 PCOD8292622
Probable space group: I M M M
;
_chemical_formula_sum "Si O2"
_cell_formula_units_Z 104
_cell_length_a 18.055996
_cell_length_b 20.048062
_cell_length_c 24.675468
_cell_angle_alpha 90.000000
_cell_angle_beta 90.000000
_cell_angle_gamma 90.000000
_cell_volume 8932.216581
_symmetry_space_group_name_H-M "I M M M"
_symmetry_group_IT_number 71
_symmetry_cell_setting 'orthorhombic'
loop_
_space_group_symop_operation_xyz
x,y,z
-x,-y,z
x,-y,-z
-x,y,-z
-x,-y,-z
x,y,-z
-x,y,z
x,-y,z
1/2+x,1/2+y,1/2+z
1/2-x,1/2-y,1/2+z
1/2+x,1/2-y,1/2-z
1/2-x,1/2+y,1/2-z
1/2-x,1/2-y,1/2-z
1/2+x,1/2+y,1/2-z
1/2-x,1/2+y,1/2+z
1/2+x,1/2-y,1/2+z
loop_
_atom_site_type_symbol
_atom_site_label
_atom_site_fract_x
_atom_site_fract_y
_atom_site_fract_z
Si Si1 0.500000 0.920441 0.939004
Si Si2 0.418129 0.672675 0.564259
Si Si3 0.417561 0.920863 0.765546
Si Si4 0.088478 0.574746 0.146734
Si Si5 0.788904 0.922443 0.936533
Si Si6 0.856741 0.579247 0.623462
Si Si7 0.587985 0.820779 0.560331
O O1 0.426991 0.892338 0.909416
O O2 0.500000 0.000000 0.937724
O O3 0.500000 0.893179 0.000000
O O4 0.423861 0.670060 0.500000
O O5 0.500000 0.657396 0.588726
O O6 0.360249 0.617707 0.585223
O O7 0.390653 0.746714 0.581152
O O8 0.500000 0.890802 0.774753
O O9 0.385437 0.900247 0.706517
O O10 0.363449 0.896355 0.813925
O O11 0.424401 0.000000 0.767242
O O12 0.117904 0.500000 0.134367
O O13 0.121605 0.624741 0.101690
O O14 0.000000 0.574589 0.146040
O O15 0.718811 0.894125 0.903237
O O16 0.803812 0.000000 0.924882
O O17 0.773871 0.909895 0.000000
O O18 0.856848 0.500000 0.619407
O O19 0.620226 0.834389 0.500000
O O20 0.500000 0.826701 0.558197
#
# Coordination Sequence:
#
# PCOD8292622 Si02
#       7
#     8  16  16  16  16  16  16
#     4   9  14  18  26  40  58  80 101 121 150 184
#     4   8  14  24  35  44  56  77 102 126 155 190
#     4   8  12  19  29  41  58  81 106 123 139 170
#     4   8  13  19  29  46  64  79  98 124 146 169
#     4   9  16  23  31  45  61  75  98 133 165 186
#     4   9  14  20  29  41  59  81 101 124 152 181
#     4   8  13  21  32  45  60  78  99 121 149 185
#
# _framework density 11.643246
#
# number of rings (size 3 to 8) (size 9 to 14) (size 15 to 20)
#    0.000    3.615    0.769    2.308    0.000    2.462 
#    0.000    3.077    0.000    0.923    0.000    0.000 
#    0.000    0.000    0.000    0.000    0.000    0.000 
#
# Total GULP energy -644256.782478 kJ/mol
# GULP energy per Si atom -12389.553509 kJ/mol
# Density = 1.161675 g / cm^3
# Si number density = 11.643246 Si / 1000 Ang^3
#
#
#
# Elastic Constant Matrix: (Units=GPa)
#
#
# Indices 1 2 3 4 5 6 
#
# 1 58.5803 30.4258 33.7033 0.0000 0.0000 0.0000
# 2 30.4258 45.0545 33.7406 0.0000 0.0000 0.0000
# 3 33.7033 33.7406 77.0041 0.0000 0.0000 0.0000
# 4 0.0000 0.0000 0.0000 6.4260 0.0000 0.0000
# 5 0.0000 0.0000 0.0000 0.0000 8.2559 0.0000
# 6 0.0000 0.0000 0.0000 0.0000 0.0000 4.5457
#
#
#
# Elastic Compliance Matrix: (Units=1/GPa)
#
#
# Indices 1 2 3 4 5 6 
#
# 1 0.027988 -0.014478 -0.005906 0.000000 0.000000 0.000000
# 2 -0.014478 0.040524 -0.011420 0.000000 0.000000 0.000000
# 3 -0.005906 -0.011420 0.020575 0.000000 0.000000 0.000000
# 4 0.000000 0.000000 0.000000 0.155619 0.000000 0.000000
# 5 0.000000 0.000000 0.000000 0.000000 0.121126 0.000000
# 6 0.000000 0.000000 0.000000 0.000000 0.000000 0.219989
#
#
# Mechanical properties :
#
#
# Convention : Reuss Voigt Hill
#
# Bulk Modulus (GPa) = 39.24607 41.81981 40.53294
# Shear Modulus (GPa) = 7.59969 9.36346 8.48157
#
# Velocity S-wave (km/s) = 2.55760 2.83891 2.70192
# Velocity P-wave (km/s) = 6.51936 6.83678 6.67995
#
# Compressibility (1/GPa) = 0.02548026
#
# Stress axis : x y z
#
# Youngs Moduli (GPa) = 35.72946 24.67652 48.60221
#
# Poissons Ratio (x) = 0.35726 0.28706
# Poissons Ratio (y) = 0.51727 0.55503
# Poissons Ratio (z) = 0.21103 0.28180
#
# Static dielectric constant tensor:
#      x y z
#    x 2.373090 0.000000 0.000000 
#    y 0.000000 2.295540 0.000000 
#    z 0.000000 0.000000 2.651280 
# 
# 
# High freq. dielectric constant tensor:
#      x y z
#    x 1.406760 0.000000 0.000000 
#    y 0.000000 1.403270 0.000000 
#    z 0.000000 0.000000 1.435930 
# 
# From -- ./inp_files/60249.got.cif
#   From: 2010.06.25/outbox.cif.g09.slc.cpg/sg71_31_cif.got.tgz:60249.got - 2010.06.28 04:59:45.
