data_PCOD8292839
_publ_section_title
;
Structure prediction by ZEFSAII (Michael W. Deem and Ramdas Pophale) SiO2 
 PCOD8292839
Probable space group: I B A M
;
_chemical_formula_sum "Si O2"
_cell_formula_units_Z 80
_cell_length_a 12.692966
_cell_length_b 22.612319
_cell_length_c 18.293440
_cell_angle_alpha 90.000000
_cell_angle_beta 90.000000
_cell_angle_gamma 90.000000
_cell_volume 5250.535517
_symmetry_space_group_name_H-M "I B A M"
_symmetry_group_IT_number 72
_symmetry_cell_setting 'orthorhombic'
loop_
_space_group_symop_operation_xyz
x,y,z
-x,-y,z
x,-y,1/2-z
-x,y,1/2-z
-x,-y,-z
x,y,-z
-x,y,1/2+z
x,-y,1/2+z
1/2+x,1/2+y,1/2+z
1/2-x,1/2-y,1/2+z
1/2+x,1/2-y,-z
1/2-x,1/2+y,-z
1/2-x,1/2-y,1/2-z
1/2+x,1/2+y,1/2-z
1/2-x,1/2+y,z
1/2+x,1/2-y,z
loop_
_atom_site_type_symbol
_atom_site_label
_atom_site_fract_x
_atom_site_fract_y
_atom_site_fract_z
Si Si1 0.092605 0.252811 0.804472
Si Si2 0.957093 0.814478 0.417899
Si Si3 0.284933 0.673423 0.303769
Si Si4 0.940205 0.061382 0.419652
Si Si5 0.121897 0.933441 0.733008
O O1 0.162702 0.311395 0.819637
O O2 0.169628 0.205242 0.768049
O O3 0.000000 0.271697 0.750000
O O4 0.048583 0.223589 0.878552
O O5 0.945680 0.789493 0.500000
O O6 0.847723 0.806080 0.375568
O O7 0.978483 0.884443 0.419768
O O8 0.299502 0.604515 0.283543
O O9 0.885272 0.056957 0.500000
O O10 0.857466 0.074256 0.354450
O O11 0.000000 0.000000 0.401316
O O12 0.000000 0.915620 0.750000
O O13 0.148475 0.000000 0.750000
#
# Coordination Sequence:
#
# PCOD8292839 Si02
#       5
#    16  16  16  16  16
#     4   9  18  31  46  60  85 119 150 188 220 262
#     4  10  18  28  42  64  92 117 145 184 229 275
#     4  10  17  29  46  64  84 117 155 183 222 277
#     4  10  17  25  39  62  93 120 139 175 231 282
#     4  11  16  26  44  66  91 118 149 188 235 286
#
# _framework density 15.236541000000001
#
# number of rings (size 3 to 8) (size 9 to 14) (size 15 to 20)
#    0.000    2.000    6.000    0.600    0.000    0.800 
#    0.000    0.000    0.000    0.600    0.000    0.000 
#    0.000    0.000    0.000   20.600    0.000    0.000 
#
# Total GULP energy -495679.816433 kJ/mol
# GULP energy per Si atom -12391.995411 kJ/mol
# Density = 1.520186 g / cm^3
# Si number density = 15.236541 Si / 1000 Ang^3
#
#
#
# Elastic Constant Matrix: (Units=GPa)
#
#
# Indices 1 2 3 4 5 6 
#
# 1 67.9000 43.1391 31.6238 0.0000 0.0000 0.0000
# 2 43.1391 75.8389 28.4445 0.0000 0.0000 0.0000
# 3 31.6238 28.4445 128.3029 0.0000 0.0000 0.0000
# 4 0.0000 0.0000 0.0000 20.3049 0.0000 0.0000
# 5 0.0000 0.0000 0.0000 0.0000 8.3576 0.0000
# 6 0.0000 0.0000 0.0000 0.0000 0.0000 14.0852
#
#
#
# Elastic Compliance Matrix: (Units=1/GPa)
#
#
# Indices 1 2 3 4 5 6 
#
# 1 0.024193 -0.012570 -0.003176 0.000000 0.000000 0.000000
# 2 -0.012570 0.020913 -0.001538 0.000000 0.000000 0.000000
# 3 -0.003176 -0.001538 0.008918 0.000000 0.000000 0.000000
# 4 0.000000 0.000000 0.000000 0.049249 0.000000 0.000000
# 5 0.000000 0.000000 0.000000 0.000000 0.119652 0.000000
# 6 0.000000 0.000000 0.000000 0.000000 0.000000 0.070997
#
#
# Mechanical properties :
#
#
# Convention : Reuss Voigt Hill
#
# Bulk Modulus (GPa) = 51.40127 53.16183 52.28155
# Shear Modulus (GPa) = 14.92642 19.80516 17.36579
#
# Velocity S-wave (km/s) = 3.13333 3.60925 3.37968
# Velocity P-wave (km/s) = 6.84829 7.23434 7.04396
#
# Compressibility (1/GPa) = 0.01945477
#
# Stress axis : x y z
#
# Youngs Moduli (GPa) = 41.33377 47.81690 112.13376
#
# Poissons Ratio (x) = 0.60108 0.35617
# Poissons Ratio (y) = 0.51958 0.17247
# Poissons Ratio (z) = 0.13129 0.07354
#
# Static dielectric constant tensor:
#      x y z
#    x 2.667230 0.000000 0.000000 
#    y 0.000000 2.979290 0.000000 
#    z 0.000000 0.000000 3.327640 
# 
# 
# High freq. dielectric constant tensor:
#      x y z
#    x 1.525770 0.000000 0.000000 
#    y 0.000000 1.579200 0.000000 
#    z 0.000000 0.000000 1.601880 
# 
# From -- ./inp_files/30464.got.cif
#   From: 2010.03.12/outbox.cif.g09.slc.cpg/sg72_16_cif.got.tgz:30464.got - 2010.04.16 14:54:00.
