data_PCOD8292360
_publ_section_title
;
Structure prediction by ZEFSAII (Michael W. Deem and Ramdas Pophale) SiO2 
 PCOD8292360
Probable space group: I M M M
;
_chemical_formula_sum "Si O2"
_cell_formula_units_Z 104
_cell_length_a 22.500433
_cell_length_b 29.649574
_cell_length_c 9.158012
_cell_angle_alpha 90.000000
_cell_angle_beta 90.000000
_cell_angle_gamma 90.000000
_cell_volume 6109.568549
_symmetry_space_group_name_H-M "I M M M"
_symmetry_group_IT_number 71
_symmetry_cell_setting 'orthorhombic'
loop_
_space_group_symop_operation_xyz
x,y,z
-x,-y,z
x,-y,-z
-x,y,-z
-x,-y,-z
x,y,-z
-x,y,z
x,-y,z
1/2+x,1/2+y,1/2+z
1/2-x,1/2-y,1/2+z
1/2+x,1/2-y,1/2-z
1/2-x,1/2+y,1/2-z
1/2-x,1/2-y,1/2-z
1/2+x,1/2+y,1/2-z
1/2-x,1/2+y,1/2+z
1/2+x,1/2-y,1/2+z
loop_
_atom_site_type_symbol
_atom_site_label
_atom_site_fract_x
_atom_site_fract_y
_atom_site_fract_z
Si Si1 0.068573 0.871167 0.171832
Si Si2 0.568319 0.195925 0.667889
Si Si3 0.000000 0.553329 0.667823
Si Si4 0.151697 0.049629 0.173017
Si Si5 0.390679 0.901985 0.329107
Si Si6 0.070692 0.782638 0.664673
Si Si7 0.713684 0.052534 0.832198
O O1 0.105935 0.913372 0.234659
O O2 0.093727 0.826318 0.248597
O O3 0.000000 0.880073 0.211621
O O4 0.077514 0.864841 0.000000
O O5 0.573479 0.210358 0.500000
O O6 0.500000 0.185709 0.709256
O O7 0.605702 0.151278 0.702703
O O8 0.595330 0.236933 0.762120
O O9 0.058512 0.571690 0.744275
O O10 0.000000 0.500000 0.681048
O O11 0.000000 0.569074 0.500000
O O12 0.218814 0.062599 0.216529
O O13 0.135420 0.000000 0.236727
O O14 0.146819 0.047387 0.000000
O O15 0.398306 0.912157 0.500000
O O16 0.326925 0.918181 0.274024
O O17 0.094521 0.785180 0.500000
O O18 0.000000 0.781539 0.672063
O O19 0.698536 0.000000 0.812709
O O20 0.702875 0.066885 0.000000
#
# Coordination Sequence:
#
# PCOD8292360 Si02
#       7
#    16  16   8  16  16  16  16
#     4   9  16  27  47  75 102 128 157 192 239 286
#     4   9  17  31  47  65  92 122 153 192 242 291
#     4  11  23  35  47  67  97 131 163 197 242 295
#     4   8  15  29  49  72  98 128 163 200 234 277
#     4  11  21  33  49  71  96 123 158 205 252 289
#     4   9  17  28  44  68  96 126 157 190 231 283
#     4   9  18  33  50  67  91 127 167 201 236 283
#
# _framework density 17.022478
#
# number of rings (size 3 to 8) (size 9 to 14) (size 15 to 20)
#    0.000    2.692    0.769    2.538    0.000    6.154 
#    0.000    2.308    0.000    2.308    0.000    2.154 
#    0.000    0.000    0.000    0.000    0.000    0.000 
#
# Total GULP energy -644759.482623 kJ/mol
# GULP energy per Si atom -12399.220820 kJ/mol
# Density = 1.698373 g / cm^3
# Si number density = 17.022478 Si / 1000 Ang^3
#
#
#
# Elastic Constant Matrix: (Units=GPa)
#
#
# Indices 1 2 3 4 5 6 
#
# 1 73.9077 65.5439 40.0124 0.0000 0.0000 0.0000
# 2 65.5439 138.1958 66.5270 0.0000 0.0000 0.0000
# 3 40.0124 66.5270 81.6409 0.0000 0.0000 0.0000
# 4 0.0000 0.0000 0.0000 21.8508 0.0000 0.0000
# 5 0.0000 0.0000 0.0000 0.0000 12.0912 0.0000
# 6 0.0000 0.0000 0.0000 0.0000 0.0000 7.8969
#
#
#
# Elastic Compliance Matrix: (Units=1/GPa)
#
#
# Indices 1 2 3 4 5 6 
#
# 1 0.024167 -0.009478 -0.004121 0.000000 0.000000 0.000000
# 2 -0.009478 0.015624 -0.008086 0.000000 0.000000 0.000000
# 3 -0.004121 -0.008086 0.020858 0.000000 0.000000 0.000000
# 4 0.000000 0.000000 0.000000 0.045765 0.000000 0.000000
# 5 0.000000 0.000000 0.000000 0.000000 0.082704 0.000000
# 6 0.000000 0.000000 0.000000 0.000000 0.000000 0.126632
#
#
# Mechanical properties :
#
#
# Convention : Reuss Voigt Hill
#
# Bulk Modulus (GPa) = 57.87673 70.87900 64.37787
# Shear Modulus (GPa) = 13.70313 16.47853 15.09083
#
# Velocity S-wave (km/s) = 2.84033 3.11472 2.98068
# Velocity P-wave (km/s) = 6.69557 7.39352 7.05318
#
# Compressibility (1/GPa) = 0.01727810
#
# Stress axis : x y z
#
# Youngs Moduli (GPa) = 41.37891 64.00285 47.94374
#
# Poissons Ratio (x) = 0.60664 0.19756
# Poissons Ratio (y) = 0.39220 0.38770
# Poissons Ratio (z) = 0.17051 0.51756
#
# Static dielectric constant tensor:
#      x y z
#    x 3.018930 0.000000 0.000000 
#    y 0.000000 3.423470 0.000000 
#    z 0.000000 0.000000 3.102090 
# 
# 
# High freq. dielectric constant tensor:
#      x y z
#    x 1.626190 0.000000 0.000000 
#    y 0.000000 1.665250 0.000000 
#    z 0.000000 0.000000 1.645540 
# 
# From -- ./inp_files/15548.got.cif
#   From: 2010.06.25/outbox.cif.g09.slc.cpg/sg71_8_cif.got.tgz:15548.got - 2010.06.28 04:59:45.
