data_PCOD8292602
_publ_section_title
;
Structure prediction by ZEFSAII (Michael W. Deem and Ramdas Pophale) SiO2 
 PCOD8292602
Probable space group: I M M M
;
_chemical_formula_sum "Si O2"
_cell_formula_units_Z 72
_cell_length_a 17.892883
_cell_length_b 14.287116
_cell_length_c 15.093001
_cell_angle_alpha 90.000000
_cell_angle_beta 90.000000
_cell_angle_gamma 90.000000
_cell_volume 3858.339986
_symmetry_space_group_name_H-M "I M M M"
_symmetry_group_IT_number 71
_symmetry_cell_setting 'orthorhombic'
loop_
_space_group_symop_operation_xyz
x,y,z
-x,-y,z
x,-y,-z
-x,y,-z
-x,-y,-z
x,y,-z
-x,y,z
x,-y,z
1/2+x,1/2+y,1/2+z
1/2-x,1/2-y,1/2+z
1/2+x,1/2-y,1/2-z
1/2-x,1/2+y,1/2-z
1/2-x,1/2-y,1/2-z
1/2+x,1/2+y,1/2-z
1/2-x,1/2+y,1/2+z
1/2+x,1/2-y,1/2+z
loop_
_atom_site_type_symbol
_atom_site_label
_atom_site_fract_x
_atom_site_fract_y
_atom_site_fract_z
Si Si1 0.335900 0.775939 0.253116
Si Si2 0.914013 0.389961 0.601518
Si Si3 0.587904 0.394246 0.808975
Si Si4 0.911764 0.896737 0.500000
Si Si5 0.914893 0.608948 0.101983
O O1 0.250000 0.750000 0.250000
O O2 0.359626 0.834283 0.166601
O O3 0.378030 0.676374 0.261895
O O4 0.355533 0.833725 0.340795
O O5 0.897148 0.360391 0.500000
O O6 0.900087 0.500000 0.614307
O O7 0.000000 0.365204 0.624755
O O8 0.500000 0.396306 0.797609
O O9 0.619107 0.500000 0.796251
O O10 0.611964 0.350657 0.906290
O O11 0.000000 0.905932 0.500000
O O12 0.876595 0.000000 0.500000
O O13 0.899282 0.500000 0.117482
O O14 0.000000 0.632580 0.130889
O O15 0.902474 0.635986 0.000000
#
# Coordination Sequence:
#
# PCOD8292602 Si02
#       5
#    16  16  16   8  16
#     4  12  24  33  51  81 120 153 178 214 278 346
#     4   9  19  37  61  86 109 138 182 233 282 334
#     4   9  18  33  52  75 104 142 187 224 255 305
#     4   7  12  26  48  72  97 127 168 215 253 289
#     4   9  19  39  65  85 102 136 193 251 287 314
#
# _framework density 18.660874
#
# number of rings (size 3 to 8) (size 9 to 14) (size 15 to 20)
#    0.000    2.556    0.000    5.333    1.556    4.444 
#    0.000    0.000    0.000    0.667    0.000    3.111 
#    0.000    0.000    0.000    0.000    0.000    0.000 
#
# Total GULP energy -446103.601148 kJ/mol
# GULP energy per Si atom -12391.766699 kJ/mol
# Density = 1.861840 g / cm^3
# Si number density = 18.660874 Si / 1000 Ang^3
#
#
#
# Elastic Constant Matrix: (Units=GPa)
#
#
# Indices 1 2 3 4 5 6 
#
# 1 91.7234 53.9168 58.3796 0.0000 0.0000 0.0000
# 2 53.9168 88.1187 60.1583 0.0000 0.0000 0.0000
# 3 58.3796 60.1583 102.4870 0.0000 0.0000 0.0000
# 4 0.0000 0.0000 0.0000 35.7874 0.0000 0.0000
# 5 0.0000 0.0000 0.0000 0.0000 19.0919 0.0000
# 6 0.0000 0.0000 0.0000 0.0000 0.0000 10.8514
#
#
#
# Elastic Compliance Matrix: (Units=1/GPa)
#
#
# Indices 1 2 3 4 5 6 
#
# 1 0.019547 -0.007273 -0.006865 0.000000 0.000000 0.000000
# 2 -0.007273 0.021643 -0.008561 0.000000 0.000000 0.000000
# 3 -0.006865 -0.008561 0.018693 0.000000 0.000000 0.000000
# 4 0.000000 0.000000 0.000000 0.027943 0.000000 0.000000
# 5 0.000000 0.000000 0.000000 0.000000 0.052378 0.000000
# 6 0.000000 0.000000 0.000000 0.000000 0.000000 0.092154
#
#
# Mechanical properties :
#
#
# Convention : Reuss Voigt Hill
#
# Bulk Modulus (GPa) = 69.04094 69.69316 69.36705
# Shear Modulus (GPa) = 17.69363 20.47110 19.08237
#
# Velocity S-wave (km/s) = 3.08257 3.31570 3.20126
# Velocity P-wave (km/s) = 7.05320 7.21712 7.13563
#
# Compressibility (1/GPa) = 0.01448416
#
# Stress axis : x y z
#
# Youngs Moduli (GPa) = 51.15758 46.20363 53.49497
#
# Poissons Ratio (x) = 0.33606 0.36727
# Poissons Ratio (y) = 0.37209 0.45798
# Poissons Ratio (z) = 0.35122 0.39556
#
# Static dielectric constant tensor:
#      x y z
#    x 3.051870 0.000000 0.000000 
#    y 0.000000 3.661290 0.000000 
#    z 0.000000 0.000000 3.553910 
# 
# 
# High freq. dielectric constant tensor:
#      x y z
#    x 1.689100 0.000000 0.000000 
#    y 0.000000 1.733990 0.000000 
#    z 0.000000 0.000000 1.719470 
# 
# From -- ./inp_files/34069.got.cif
#   From: 2010.06.25/outbox.cif.g09.slc.cpg/sg71_18_cif.got.tgz:34069.got - 2010.06.28 04:59:45.
