data_PCOD8292982
_publ_section_title
;
Structure prediction by ZEFSAII (Michael W. Deem and Ramdas Pophale) SiO2 
 PCOD8292982
Probable space group: I B A M
;
_chemical_formula_sum "Si O2"
_cell_formula_units_Z 128
_cell_length_a 18.820014
_cell_length_b 22.812333
_cell_length_c 18.071430
_cell_angle_alpha 90.000000
_cell_angle_beta 90.000000
_cell_angle_gamma 90.000000
_cell_volume 7758.578605
_symmetry_space_group_name_H-M "I B A M"
_symmetry_group_IT_number 72
_symmetry_cell_setting 'orthorhombic'
loop_
_space_group_symop_operation_xyz
x,y,z
-x,-y,z
x,-y,1/2-z
-x,y,1/2-z
-x,-y,-z
x,y,-z
-x,y,1/2+z
x,-y,1/2+z
1/2+x,1/2+y,1/2+z
1/2-x,1/2-y,1/2+z
1/2+x,1/2-y,-z
1/2-x,1/2+y,-z
1/2-x,1/2-y,1/2-z
1/2+x,1/2+y,1/2-z
1/2-x,1/2+y,z
1/2+x,1/2-y,z
loop_
_atom_site_type_symbol
_atom_site_label
_atom_site_fract_x
_atom_site_fract_y
_atom_site_fract_z
Si Si1 0.852287 0.451806 0.413807
Si Si2 0.385685 0.291692 0.914915
Si Si3 0.749466 0.147040 0.085681
Si Si4 0.860942 0.418367 0.085159
Si Si5 0.191903 0.306740 0.336149
Si Si6 0.330876 0.758578 0.178744
Si Si7 0.016821 0.623476 0.415751
Si Si8 0.486420 0.245353 0.664537
O O1 0.869304 0.458621 0.500000
O O2 0.777328 0.418860 0.398851
O O3 0.843621 0.517152 0.381837
O O4 0.918480 0.414477 0.380190
O O5 0.332081 0.344462 0.889659
O O6 0.341936 0.231620 0.902076
O O7 0.459039 0.293103 0.869370
O O8 0.406858 0.296557 0.000000
O O9 0.696246 0.189659 0.127443
O O10 0.743074 0.163870 0.000000
O O11 0.821263 0.373921 0.141240
O O12 0.945704 0.414392 0.088303
O O13 0.834240 0.409487 0.000000
O O14 0.276004 0.295629 0.323611
O O15 0.154790 0.286096 0.260065
O O16 0.405759 0.733929 0.148858
O O17 0.035474 0.641236 0.500000
O O18 0.001089 0.682025 0.370676
O O19 0.500000 0.239961 0.750000
#
# Coordination Sequence:
#
# PCOD8292982 Si02
#       8
#    16  16  16  16  16  16  16  16
#     4   9  17  29  47  69  93 127 166 200 235 277
#     4  10  19  31  48  69  95 126 163 201 241 287
#     4   9  18  32  49  69  93 125 164 202 236 280
#     4  10  18  30  48  69  96 129 165 199 235 282
#     4  10  19  33  48  69  96 127 159 200 245 290
#     4  10  20  32  49  68  97 127 158 197 248 292
#     4  10  18  29  45  67  97 131 165 198 231 280
#     4  12  20  30  47  72  97 130 161 198 247 296
#
# _framework density 16.497866999999999
#
# number of rings (size 3 to 8) (size 9 to 14) (size 15 to 20)
#    0.000    2.000    3.750    1.125    0.000    2.500 
#    0.000    0.625    0.000    0.750    0.000    0.875 
#    0.000    5.000    0.000    0.000    0.000    0.000 
#
# Total GULP energy -793263.961304 kJ/mol
# GULP energy per Si atom -12394.749395 kJ/mol
# Density = 1.646032 g / cm^3
# Si number density = 16.497867 Si / 1000 Ang^3
#
#
#
# Elastic Constant Matrix: (Units=GPa)
#
#
# Indices 1 2 3 4 5 6 
#
# 1 123.2820 50.9639 39.0312 0.0000 0.0000 0.0000
# 2 50.9639 81.0743 26.7982 0.0000 0.0000 0.0000
# 3 39.0312 26.7982 55.1666 0.0000 0.0000 0.0000
# 4 0.0000 0.0000 0.0000 15.0908 0.0000 0.0000
# 5 0.0000 0.0000 0.0000 0.0000 20.9964 0.0000
# 6 0.0000 0.0000 0.0000 0.0000 0.0000 21.9580
#
#
#
# Elastic Compliance Matrix: (Units=1/GPa)
#
#
# Indices 1 2 3 4 5 6 
#
# 1 0.012404 -0.005833 -0.005943 0.000000 0.000000 0.000000
# 2 -0.005833 0.017437 -0.004343 0.000000 0.000000 0.000000
# 3 -0.005943 -0.004343 0.024441 0.000000 0.000000 0.000000
# 4 0.000000 0.000000 0.000000 0.066266 0.000000 0.000000
# 5 0.000000 0.000000 0.000000 0.000000 0.047627 0.000000
# 6 0.000000 0.000000 0.000000 0.000000 0.000000 0.045542
#
#
# Mechanical properties :
#
#
# Convention : Reuss Voigt Hill
#
# Bulk Modulus (GPa) = 45.36330 54.78994 50.07662
# Shear Modulus (GPa) = 19.73922 21.12433 20.43177
#
# Velocity S-wave (km/s) = 3.46276 3.58219 3.52298
# Velocity P-wave (km/s) = 6.59877 7.09872 6.85331
#
# Compressibility (1/GPa) = 0.02204425
#
# Stress axis : x y z
#
# Youngs Moduli (GPa) = 80.61699 57.35026 40.91449
#
# Poissons Ratio (x) = 0.33453 0.24314
# Poissons Ratio (y) = 0.47025 0.17770
# Poissons Ratio (z) = 0.47908 0.24908
#
# Static dielectric constant tensor:
#      x y z
#    x 3.346160 0.000000 0.000000 
#    y 0.000000 2.973680 0.000000 
#    z 0.000000 0.000000 3.075690 
# 
# 
# High freq. dielectric constant tensor:
#      x y z
#    x 1.636580 0.000000 0.000000 
#    y 0.000000 1.598660 0.000000 
#    z 0.000000 0.000000 1.629720 
# 
# From -- ./inp_files/32064.got.cif
#   From: 2010.03.12/outbox.cif.g09.slc.cpg/sg72_17_cif.got.tgz:32064.got - 2010.04.16 14:54:00.
