data_PCOD8292915
_publ_section_title
;
Structure prediction by ZEFSAII (Michael W. Deem and Ramdas Pophale) SiO2 
 PCOD8292915
Probable space group: I B A M
;
_chemical_formula_sum "Si O2"
_cell_formula_units_Z 88
_cell_length_a 14.219255
_cell_length_b 13.655424
_cell_length_c 22.967872
_cell_angle_alpha 90.000000
_cell_angle_beta 90.000000
_cell_angle_gamma 90.000000
_cell_volume 4459.670695
_symmetry_space_group_name_H-M "I B A M"
_symmetry_group_IT_number 72
_symmetry_cell_setting 'orthorhombic'
loop_
_space_group_symop_operation_xyz
x,y,z
-x,-y,z
x,-y,1/2-z
-x,y,1/2-z
-x,-y,-z
x,y,-z
-x,y,1/2+z
x,-y,1/2+z
1/2+x,1/2+y,1/2+z
1/2-x,1/2-y,1/2+z
1/2+x,1/2-y,-z
1/2-x,1/2+y,-z
1/2-x,1/2-y,1/2-z
1/2+x,1/2+y,1/2-z
1/2-x,1/2+y,z
1/2+x,1/2-y,z
loop_
_atom_site_type_symbol
_atom_site_label
_atom_site_fract_x
_atom_site_fract_y
_atom_site_fract_z
Si Si1 0.149892 0.984354 0.617897
Si Si2 0.363093 0.996433 0.125459
Si Si3 0.510934 0.343358 0.624473
Si Si4 0.110581 0.573427 0.000000
Si Si5 0.518625 0.745263 0.500000
Si Si6 0.498906 0.143268 0.817913
Si Si7 0.814419 0.882885 0.000000
O O1 0.254268 0.994540 0.643611
O O2 0.156763 0.955893 0.550917
O O3 0.085193 0.897885 0.644093
O O4 0.100549 0.087166 0.630390
O O5 0.410170 0.087777 0.156401
O O6 0.405803 0.894724 0.150134
O O7 0.385614 0.002865 0.056343
O O8 0.518210 0.305749 0.558296
O O9 0.517931 0.256673 0.670540
O O10 0.203268 0.643127 0.000000
O O11 0.016291 0.641292 0.000000
O O12 0.632018 0.723026 0.500000
O O13 0.500000 0.121346 0.750000
#
# Coordination Sequence:
#
# PCOD8292915 Si02
#       7
#    16  16  16   8   8  16   8
#     4   9  19  37  60  87 117 153 187 227 285 341
#     4  10  21  39  59  84 120 149 186 234 285 344
#     4  10  20  37  61  88 117 150 190 231 280 345
#     4  10  18  34  57  91 118 142 188 232 278 343
#     4  10  17  33  57  88 120 154 179 224 289 333
#     4  11  24  42  58  80 112 153 195 241 289 335
#     4   8  17  32  55  86 127 153 176 224 279 355
#
# _framework density 19.732398
#
# number of rings (size 3 to 8) (size 9 to 14) (size 15 to 20)
#    0.000    2.182    1.818    1.636    0.000    5.818 
#    3.273    7.273    0.000    0.000    0.000    0.000 
#    0.000    0.000    0.000    0.000    0.000    0.000 
#
# Total GULP energy -545177.085858 kJ/mol
# GULP energy per Si atom -12390.388315 kJ/mol
# Density = 1.968749 g / cm^3
# Si number density = 19.732398 Si / 1000 Ang^3
#
#
#
# Elastic Constant Matrix: (Units=GPa)
#
#
# Indices 1 2 3 4 5 6 
#
# 1 152.6454 42.7267 37.0366 0.0000 0.0000 0.0000
# 2 42.7267 72.9087 28.9446 0.0000 0.0000 0.0000
# 3 37.0366 28.9446 103.2936 0.0000 0.0000 0.0000
# 4 0.0000 0.0000 0.0000 -17.5732 0.0000 0.0000
# 5 0.0000 0.0000 0.0000 0.0000 -12.6069 0.0000
# 6 0.0000 0.0000 0.0000 0.0000 0.0000 21.0994
#
#
#
# Elastic Compliance Matrix: (Units=1/GPa)
#
#
# Indices 1 2 3 4 5 6 
#
# 1 0.008116 -0.004052 -0.001775 0.000000 0.000000 0.000000
# 2 -0.004052 0.017455 -0.003439 0.000000 0.000000 0.000000
# 3 -0.001775 -0.003439 0.011281 0.000000 0.000000 0.000000
# 4 0.000000 0.000000 0.000000 -0.056905 0.000000 0.000000
# 5 0.000000 0.000000 0.000000 0.000000 -0.079322 0.000000
# 6 0.000000 0.000000 0.000000 0.000000 0.000000 0.047395
#
#
# Mechanical properties :
#
#
# Convention : Reuss Voigt Hill
#
# Bulk Modulus (GPa) = 54.57769 60.69592 57.63681
# Shear Modulus (GPa) = -182.86164 12.85986 -85.00089
#
# Velocity S-wave (km/s) = -9.63701 2.55564 -6.57041
# Velocity P-wave (km/s) = 9.80359 6.28766 5.31863
#
# Compressibility (1/GPa) = 0.01832251
#
# Stress axis : x y z
#
# Youngs Moduli (GPa) = 123.21672 57.28948 88.64470
#
# Poissons Ratio (x) = 0.23211 0.15731
# Poissons Ratio (y) = 0.49922 0.30481
# Poissons Ratio (z) = 0.21867 0.19699
#
# Static dielectric constant tensor:
#      x y z
#    x 3.885580 0.000000 0.000000 
#    y 0.000000 3.533180 0.000000 
#    z 0.000000 0.000000 3.448620 
# 
# 
# High freq. dielectric constant tensor:
#      x y z
#    x 1.775310 0.000000 0.000000 
#    y 0.000000 1.764020 0.000000 
#    z 0.000000 0.000000 1.752910 
# 
# From -- ./inp_files/37979.got.cif
#   From: 2010.03.12/outbox.cif.g09.slc.cpg/sg72_19_cif.got.tgz:37979.got - 2010.04.16 14:54:00.
