data_PCOD8292376
_publ_section_title
;
Structure prediction by ZEFSAII (Michael W. Deem and Ramdas Pophale) SiO2 
 PCOD8292376
Probable space group: I M M M
;
_chemical_formula_sum "Si O2"
_cell_formula_units_Z 88
_cell_length_a 28.641370
_cell_length_b 18.363920
_cell_length_c 8.912749
_cell_angle_alpha 90.000000
_cell_angle_beta 90.000000
_cell_angle_gamma 90.000000
_cell_volume 4687.819227
_symmetry_space_group_name_H-M "I M M M"
_symmetry_group_IT_number 71
_symmetry_cell_setting 'orthorhombic'
loop_
_space_group_symop_operation_xyz
x,y,z
-x,-y,z
x,-y,-z
-x,y,-z
-x,-y,-z
x,y,-z
-x,y,z
x,-y,z
1/2+x,1/2+y,1/2+z
1/2-x,1/2-y,1/2+z
1/2+x,1/2-y,1/2-z
1/2-x,1/2+y,1/2-z
1/2-x,1/2-y,1/2-z
1/2+x,1/2+y,1/2-z
1/2-x,1/2+y,1/2+z
1/2+x,1/2-y,1/2+z
loop_
_atom_site_type_symbol
_atom_site_label
_atom_site_fract_x
_atom_site_fract_y
_atom_site_fract_z
Si Si1 0.208698 0.579397 0.324142
Si Si2 0.554653 0.417311 0.672343
Si Si3 0.116665 0.797816 0.676836
Si Si4 0.783544 0.192085 0.824630
Si Si5 0.611873 0.136377 0.177665
Si Si6 0.552785 0.000000 0.179134
O O1 0.200336 0.572057 0.500000
O O2 0.209117 0.500000 0.248112
O O3 0.258543 0.615326 0.291829
O O4 0.164590 0.624795 0.259598
O O5 0.568149 0.402359 0.500000
O O6 0.500000 0.406138 0.697922
O O7 0.568851 0.500000 0.716021
O O8 0.580887 0.360341 0.777051
O O9 0.124353 0.800170 0.500000
O O10 0.166006 0.812082 0.752849
O O11 0.096651 0.718190 0.726568
O O12 0.750000 0.250000 0.750000
O O13 0.787969 0.209151 0.000000
O O14 0.578006 0.073141 0.242437
O O15 0.610656 0.130533 0.000000
O O16 0.500000 0.000000 0.239979
O O17 0.553817 0.000000 0.000000
#
# Coordination Sequence:
#
# PCOD8292376 Si02
#       6
#    16  16  16  16  16   8
#     4   9  16  29  50  72  97 138 187 228 268 321
#     4   9  20  41  65  85 109 146 191 234 280 343
#     4  11  22  35  55  86 119 148 182 231 289 345
#     4  11  21  34  53  79 110 148 192 236 282 331
#     4   9  16  28  46  71 105 142 182 224 270 328
#     4   9  16  26  44  72 107 143 179 227 278 319
#
# _framework density 18.772055000000002
#
# number of rings (size 3 to 8) (size 9 to 14) (size 15 to 20)
#    0.000    2.273    2.727    1.636    0.000    2.182 
#    0.000    4.545    0.000    1.636    0.000    1.909 
#    0.000    4.364    0.000    0.000    0.000    0.000 
#
# Total GULP energy -545355.214338 kJ/mol
# GULP energy per Si atom -12394.436690 kJ/mol
# Density = 1.872933 g / cm^3
# Si number density = 18.772055 Si / 1000 Ang^3
#
#
#
# Elastic Constant Matrix: (Units=GPa)
#
#
# Indices 1 2 3 4 5 6 
#
# 1 106.4328 67.7304 32.4718 0.0000 0.0000 0.0000
# 2 67.7304 158.4007 40.2003 0.0000 0.0000 0.0000
# 3 32.4718 40.2003 54.6271 0.0000 0.0000 0.0000
# 4 0.0000 0.0000 0.0000 22.1053 0.0000 0.0000
# 5 0.0000 0.0000 0.0000 0.0000 27.4448 0.0000
# 6 0.0000 0.0000 0.0000 0.0000 0.0000 28.6704
#
#
#
# Elastic Compliance Matrix: (Units=1/GPa)
#
#
# Indices 1 2 3 4 5 6 
#
# 1 0.013848 -0.004712 -0.004764 0.000000 0.000000 0.000000
# 2 -0.004712 0.009366 -0.004092 0.000000 0.000000 0.000000
# 3 -0.004764 -0.004092 0.024149 0.000000 0.000000 0.000000
# 4 0.000000 0.000000 0.000000 0.045238 0.000000 0.000000
# 5 0.000000 0.000000 0.000000 0.000000 0.036437 0.000000
# 6 0.000000 0.000000 0.000000 0.000000 0.000000 0.034879
#
#
# Mechanical properties :
#
#
# Convention : Reuss Voigt Hill
#
# Bulk Modulus (GPa) = 49.43751 66.69619 58.06685
# Shear Modulus (GPa) = 25.27877 27.58131 26.43004
#
# Velocity S-wave (km/s) = 3.67361 3.83727 3.75633
# Velocity P-wave (km/s) = 6.66234 7.43233 7.05784
#
# Compressibility (1/GPa) = 0.02022756
#
# Stress axis : x y z
#
# Youngs Moduli (GPa) = 72.21468 106.76469 41.41003
#
# Poissons Ratio (x) = 0.50309 0.19727
# Poissons Ratio (y) = 0.34028 0.16944
# Poissons Ratio (z) = 0.34401 0.43686
#
# Static dielectric constant tensor:
#      x y z
#    x -3.389010 0.000000 0.000000 
#    y 0.000000 1.805050 0.000000 
#    z 0.000000 0.000000 3.079610 
# 
# 
# High freq. dielectric constant tensor:
#      x y z
#    x 1.729350 0.000000 0.000000 
#    y 0.000000 1.746700 0.000000 
#    z 0.000000 0.000000 1.684210 
# 
# From -- ./inp_files/16710.got.cif
#   From: 2010.06.25/outbox.cif.g09.slc.cpg/sg71_9_cif.got.tgz:16710.got - 2010.06.28 04:59:45.
