data_PCOD8292515
_publ_section_title
;
Structure prediction by ZEFSAII (Michael W. Deem and Ramdas Pophale) SiO2 
 PCOD8292515
Probable space group: I M M M
;
_chemical_formula_sum "Si O2"
_cell_formula_units_Z 88
_cell_length_a 24.058770
_cell_length_b 11.568215
_cell_length_c 16.130396
_cell_angle_alpha 90.000000
_cell_angle_beta 90.000000
_cell_angle_gamma 90.000000
_cell_volume 4489.363811
_symmetry_space_group_name_H-M "I M M M"
_symmetry_group_IT_number 71
_symmetry_cell_setting 'orthorhombic'
loop_
_space_group_symop_operation_xyz
x,y,z
-x,-y,z
x,-y,-z
-x,y,-z
-x,-y,-z
x,y,-z
-x,y,z
x,-y,z
1/2+x,1/2+y,1/2+z
1/2-x,1/2-y,1/2+z
1/2+x,1/2-y,1/2-z
1/2-x,1/2+y,1/2-z
1/2-x,1/2-y,1/2-z
1/2+x,1/2+y,1/2-z
1/2-x,1/2+y,1/2+z
1/2+x,1/2-y,1/2+z
loop_
_atom_site_type_symbol
_atom_site_label
_atom_site_fract_x
_atom_site_fract_y
_atom_site_fract_z
Si Si1 0.787332 0.500000 0.590884
Si Si2 0.264375 0.637364 0.000000
Si Si3 0.269398 0.281792 0.657275
Si Si4 0.000000 0.863287 0.091807
Si Si5 0.390463 0.637573 0.310265
Si Si6 0.061779 0.746987 0.658811
Si Si7 0.608058 0.636049 0.000000
Si Si8 0.582713 0.000000 0.907212
O O1 0.759077 0.500000 0.500000
O O2 0.770440 0.612466 0.639715
O O3 0.852379 0.500000 0.582043
O O4 0.237844 0.684112 0.913888
O O5 0.257079 0.500000 0.000000
O O6 0.328297 0.677839 0.000000
O O7 0.250000 0.250000 0.750000
O O8 0.333101 0.322685 0.648597
O O9 0.943216 0.821933 0.135380
O O10 0.000000 0.000000 0.087788
O O11 0.000000 0.809291 0.000000
O O12 0.390353 0.500000 0.294496
O O13 0.393743 0.707788 0.224887
O O14 0.075285 0.813968 0.576283
O O15 0.063552 0.609979 0.645413
O O16 0.000000 0.781904 0.688544
O O17 0.604450 0.500000 0.000000
O O18 0.555980 0.000000 0.000000
#
# Coordination Sequence:
#
# PCOD8292515 Si02
#       8
#     8   8  16   8  16  16   8   8
#     4  11  22  41  66  97 127 167 217 272 329 384
#     4  11  26  46  65  96 137 177 215 268 334 396
#     4  12  25  41  68  98 131 172 219 270 329 395
#     4   9  20  38  66  92 121 156 194 256 327 379
#     4  11  23  42  65  96 128 161 212 271 325 385
#     4  12  24  40  62  91 129 175 217 262 315 375
#     4  11  23  39  63  92 131 168 211 263 322 382
#     4  11  23  40  63  88 130 175 226 262 298 375
#
# _framework density 19.601887999999999
#
# number of rings (size 3 to 8) (size 9 to 14) (size 15 to 20)
#    0.000    0.818    3.636    4.364    2.545    3.273 
#    1.636    0.000    0.000    0.000    0.000    1.273 
#    0.000    0.000    0.000    0.000    0.000    0.000 
#
# Total GULP energy -545550.496929 kJ/mol
# GULP energy per Si atom -12398.874930 kJ/mol
# Density = 1.955727 g / cm^3
# Si number density = 19.601888 Si / 1000 Ang^3
#
#
#
# Elastic Constant Matrix: (Units=GPa)
#
#
# Indices 1 2 3 4 5 6 
#
# 1 110.9829 31.3485 24.9158 0.0000 0.0000 0.0000
# 2 31.3485 98.3252 44.8984 0.0000 0.0000 0.0000
# 3 24.9158 44.8984 121.5312 0.0000 0.0000 0.0000
# 4 0.0000 0.0000 0.0000 5.7352 0.0000 0.0000
# 5 0.0000 0.0000 0.0000 0.0000 27.8526 0.0000
# 6 0.0000 0.0000 0.0000 0.0000 0.0000 28.7075
#
#
#
# Elastic Compliance Matrix: (Units=1/GPa)
#
#
# Indices 1 2 3 4 5 6 
#
# 1 0.010012 -0.002712 -0.001051 0.000000 0.000000 0.000000
# 2 -0.002712 0.012969 -0.004235 0.000000 0.000000 0.000000
# 3 -0.001051 -0.004235 0.010008 0.000000 0.000000 0.000000
# 4 0.000000 0.000000 0.000000 0.174363 0.000000 0.000000
# 5 0.000000 0.000000 0.000000 0.000000 0.035903 0.000000
# 6 0.000000 0.000000 0.000000 0.000000 0.000000 0.034834
#
#
# Mechanical properties :
#
#
# Convention : Reuss Voigt Hill
#
# Bulk Modulus (GPa) = 58.84658 59.24051 59.04355
# Shear Modulus (GPa) = 16.68052 27.77082 22.22567
#
# Velocity S-wave (km/s) = 2.92029 3.76805 3.37093
# Velocity P-wave (km/s) = 6.43870 7.01558 6.73332
#
# Compressibility (1/GPa) = 0.01699334
#
# Stress axis : x y z
#
# Youngs Moduli (GPa) = 99.87585 77.10672 99.91637
#
# Poissons Ratio (x) = 0.20915 0.10497
# Poissons Ratio (y) = 0.27091 0.42316
# Poissons Ratio (z) = 0.10493 0.32656
#
# Static dielectric constant tensor:
#      x y z
#    x 3.775380 0.000000 0.000000 
#    y 0.000000 3.613630 0.000000 
#    z 0.000000 0.000000 4.271230 
# 
# 
# High freq. dielectric constant tensor:
#      x y z
#    x 1.781810 0.000000 0.000000 
#    y 0.000000 1.760400 0.000000 
#    z 0.000000 0.000000 1.770400 
# 
# From -- ./inp_files/39059.got.cif
#   From: 2010.06.25/outbox.cif.g09.slc.cpg/sg71_20_cif.got.tgz:39059.got - 2010.06.28 04:59:45.
