data_PCOD8292305
_publ_section_title
;
Structure prediction by ZEFSAII (Michael W. Deem and Ramdas Pophale) SiO2 
 PCOD8292305
Probable space group: I M M M
;
_chemical_formula_sum "Si O2"
_cell_formula_units_Z 104
_cell_length_a 27.793284
_cell_length_b 16.800005
_cell_length_c 13.523446
_cell_angle_alpha 90.000000
_cell_angle_beta 90.000000
_cell_angle_gamma 90.000000
_cell_volume 6314.466265
_symmetry_space_group_name_H-M "I M M M"
_symmetry_group_IT_number 71
_symmetry_cell_setting 'orthorhombic'
loop_
_space_group_symop_operation_xyz
x,y,z
-x,-y,z
x,-y,-z
-x,y,-z
-x,-y,-z
x,y,-z
-x,y,z
x,-y,z
1/2+x,1/2+y,1/2+z
1/2-x,1/2-y,1/2+z
1/2+x,1/2-y,1/2-z
1/2-x,1/2+y,1/2-z
1/2-x,1/2-y,1/2-z
1/2+x,1/2+y,1/2-z
1/2-x,1/2+y,1/2+z
1/2+x,1/2-y,1/2+z
loop_
_atom_site_type_symbol
_atom_site_label
_atom_site_fract_x
_atom_site_fract_y
_atom_site_fract_z
Si Si1 0.671072 0.407186 0.890104
Si Si2 0.637583 0.193590 0.616992
Si Si3 0.270768 0.589364 0.606507
Si Si4 0.552575 0.088482 0.382457
Si Si5 0.443185 0.500000 0.617376
Si Si6 0.870847 0.871094 0.190912
Si Si7 0.725761 0.906045 0.696103
O O1 0.660024 0.500000 0.882545
O O2 0.636528 0.365415 0.809578
O O3 0.727321 0.391777 0.870237
O O4 0.658806 0.374697 0.000000
O O5 0.639957 0.188453 0.500000
O O6 0.592698 0.145714 0.662418
O O7 0.628343 0.282868 0.649120
O O8 0.685420 0.153339 0.658160
O O9 0.265562 0.634984 0.500000
O O10 0.253524 0.500000 0.590722
O O11 0.325793 0.585066 0.641469
O O12 0.237083 0.625232 0.692312
O O13 0.555439 0.087502 0.500000
O O14 0.500000 0.118912 0.348339
O O15 0.561832 0.000000 0.341347
O O16 0.500000 0.500000 0.644043
O O17 0.435464 0.500000 0.500000
O O18 0.418913 0.420341 0.663245
O O19 0.710729 0.000000 0.691978
#
# Coordination Sequence:
#
# PCOD8292305 Si02
#       7
#    16  16  16  16   8  16  16
#     4   9  17  32  54  72  93 129 167 201 236 287
#     4  11  21  29  44  70 102 131 157 201 247 289
#     4   9  16  29  50  68  93 133 168 198 235 291
#     4   8  15  29  47  65  88 124 163 191 228 286
#     4  11  22  36  55  75  97 127 164 206 248 293
#     4  11  20  34  49  72  97 126 162 198 244 300
#     4   9  18  31  46  71  99 129 168 204 240 284
#
# _framework density 16.470117999999999
#
# number of rings (size 3 to 8) (size 9 to 14) (size 15 to 20)
#    0.000    2.385    1.538    3.692    0.000    4.615 
#    0.000    3.846    0.000    0.923    0.000    0.000 
#    0.000    1.846    0.000   10.923    0.000    0.615 
#
# Total GULP energy -644347.988615 kJ/mol
# GULP energy per Si atom -12391.307473 kJ/mol
# Density = 1.643263 g / cm^3
# Si number density = 16.470118 Si / 1000 Ang^3
#
#
#
# Elastic Constant Matrix: (Units=GPa)
#
#
# Indices 1 2 3 4 5 6 
#
# 1 105.2234 51.1688 44.3854 0.0000 0.0000 0.0000
# 2 51.1688 65.9721 23.9582 0.0000 0.0000 0.0000
# 3 44.3854 23.9582 112.7116 0.0000 0.0000 0.0000
# 4 0.0000 0.0000 0.0000 20.5933 0.0000 0.0000
# 5 0.0000 0.0000 0.0000 0.0000 15.5329 0.0000
# 6 0.0000 0.0000 0.0000 0.0000 0.0000 1.0555
#
#
#
# Elastic Compliance Matrix: (Units=1/GPa)
#
#
# Indices 1 2 3 4 5 6 
#
# 1 0.016910 -0.011592 -0.004195 0.000000 0.000000 0.000000
# 2 -0.011592 0.024373 -0.000616 0.000000 0.000000 0.000000
# 3 -0.004195 -0.000616 0.010655 0.000000 0.000000 0.000000
# 4 0.000000 0.000000 0.000000 0.048559 0.000000 0.000000
# 5 0.000000 0.000000 0.000000 0.000000 0.064379 0.000000
# 6 0.000000 0.000000 0.000000 0.000000 0.000000 0.947404
#
#
# Mechanical properties :
#
#
# Convention : Reuss Voigt Hill
#
# Bulk Modulus (GPa) = 52.26909 58.10355 55.18632
# Shear Modulus (GPa) = 4.34229 18.39601 11.36915
#
# Velocity S-wave (km/s) = 1.62548 3.34568 2.63019
# Velocity P-wave (km/s) = 5.94370 7.09080 6.54244
#
# Compressibility (1/GPa) = 0.01913177
#
# Stress axis : x y z
#
# Youngs Moduli (GPa) = 59.13496 41.02938 93.85181
#
# Poissons Ratio (x) = 0.47563 0.39372
# Poissons Ratio (y) = 0.68552 0.05778
# Poissons Ratio (z) = 0.24808 0.02526
#
# Static dielectric constant tensor:
#      x y z
#    x 3.093320 0.000000 0.000000 
#    y 0.000000 3.023430 0.000000 
#    z 0.000000 0.000000 3.340210 
# 
# 
# High freq. dielectric constant tensor:
#      x y z
#    x 1.616250 0.000000 0.000000 
#    y 0.000000 1.625080 0.000000 
#    z 0.000000 0.000000 1.622690 
# 
# From -- ./inp_files/40469.got.cif
#   From: 2010.06.25/outbox.cif.g09.slc.cpg/sg71_21_cif.got.tgz:40469.got - 2010.06.28 04:59:45.
