data_PCOD8292650
_publ_section_title
;
Structure prediction by ZEFSAII (Michael W. Deem and Ramdas Pophale) SiO2 
 PCOD8292650
Probable space group: I M M M
;
_chemical_formula_sum "Si O2"
_cell_formula_units_Z 112
_cell_length_a 19.726644
_cell_length_b 9.892843
_cell_length_c 35.471276
_cell_angle_alpha 90.000000
_cell_angle_beta 90.000000
_cell_angle_gamma 90.000000
_cell_volume 6922.311453
_symmetry_space_group_name_H-M "I M M M"
_symmetry_group_IT_number 71
_symmetry_cell_setting 'orthorhombic'
loop_
_space_group_symop_operation_xyz
x,y,z
-x,-y,z
x,-y,-z
-x,y,-z
-x,-y,-z
x,y,-z
-x,y,z
x,-y,z
1/2+x,1/2+y,1/2+z
1/2-x,1/2-y,1/2+z
1/2+x,1/2-y,1/2-z
1/2-x,1/2+y,1/2-z
1/2-x,1/2-y,1/2-z
1/2+x,1/2+y,1/2-z
1/2-x,1/2+y,1/2+z
1/2+x,1/2-y,1/2+z
loop_
_atom_site_type_symbol
_atom_site_label
_atom_site_fract_x
_atom_site_fract_y
_atom_site_fract_z
Si Si1 0.808710 0.843020 0.456407
Si Si2 0.080530 0.348598 0.171037
Si Si3 0.184633 0.845300 0.043123
Si Si4 0.922006 0.844717 0.894069
Si Si5 0.925000 0.839471 0.598987
Si Si6 0.580705 0.848534 0.245295
Si Si7 0.419389 0.650255 0.817765
O O1 0.827248 0.820785 0.500000
O O2 0.744531 0.754197 0.444317
O O3 0.872379 0.788641 0.432383
O O4 0.792554 0.000000 0.447893
O O5 0.105998 0.500000 0.161313
O O6 0.108752 0.244575 0.139994
O O7 0.106031 0.306095 0.212838
O O8 0.000000 0.344720 0.170795
O O9 0.119034 0.812375 0.068059
O O10 0.208818 0.000000 0.048768
O O11 0.163569 0.818020 0.000000
O O12 0.000000 0.807821 0.902530
O O13 0.914342 0.000000 0.881759
O O14 0.899976 0.793739 0.640651
O O15 0.000000 0.779611 0.590013
O O16 0.929826 0.000000 0.598704
O O17 0.500000 0.842889 0.243865
O O18 0.612193 0.747869 0.214149
O O19 0.605647 0.000000 0.236038
O O20 0.500000 0.644680 0.814671
O O21 0.389386 0.500000 0.811305
#
# Coordination Sequence:
#
# PCOD8292650 Si02
#       7
#    16  16  16  16  16  16  16
#     4   9  17  29  46  66  85 109 144 179 207 245
#     4   8  14  24  37  55  82 113 138 164 205 250
#     4   9  18  32  47  62  84 113 140 170 211 253
#     4   9  17  28  43  64  86 108 139 176 209 246
#     4   8  14  25  41  63  90 114 138 174 216 250
#     4   8  13  21  33  51  78 110 139 165 197 241
#     4   8  13  21  34  53  78 108 138 167 202 242
#
# _framework density 16.179568
#
# number of rings (size 3 to 8) (size 9 to 14) (size 15 to 20)
#    0.000    3.571    0.000    1.714    0.000    1.714 
#    0.000    6.429    0.000    1.286    0.000    7.000 
#    0.000    0.000    0.000    0.000    0.000    0.000 
#
# Total GULP energy -694027.969849 kJ/mol
# GULP energy per Si atom -12393.356604 kJ/mol
# Density = 1.614274 g / cm^3
# Si number density = 16.179568 Si / 1000 Ang^3
#
#
#
# Elastic Constant Matrix: (Units=GPa)
#
#
# Indices 1 2 3 4 5 6 
#
# 1 54.6472 37.9992 54.6621 0.0000 0.0000 0.0000
# 2 37.9992 72.3836 64.6842 0.0000 0.0000 0.0000
# 3 54.6621 64.6842 123.3247 0.0000 0.0000 0.0000
# 4 0.0000 0.0000 0.0000 24.3256 0.0000 0.0000
# 5 0.0000 0.0000 0.0000 0.0000 4.3771 0.0000
# 6 0.0000 0.0000 0.0000 0.0000 0.0000 15.4563
#
#
#
# Elastic Compliance Matrix: (Units=1/GPa)
#
#
# Indices 1 2 3 4 5 6 
#
# 1 0.035516 -0.008616 -0.011223 0.000000 0.000000 0.000000
# 2 -0.008616 0.028093 -0.010916 0.000000 0.000000 0.000000
# 3 -0.011223 -0.010916 0.018809 0.000000 0.000000 0.000000
# 4 0.000000 0.000000 0.000000 0.041109 0.000000 0.000000
# 5 0.000000 0.000000 0.000000 0.000000 0.228461 0.000000
# 6 0.000000 0.000000 0.000000 0.000000 0.000000 0.064699
#
#
# Mechanical properties :
#
#
# Convention : Reuss Voigt Hill
#
# Bulk Modulus (GPa) = 47.82787 62.78294 55.30541
# Shear Modulus (GPa) = 10.30572 15.03246 12.66909
#
# Velocity S-wave (km/s) = 2.52654 3.05142 2.80130
# Velocity P-wave (km/s) = 6.17544 7.16261 6.68727
#
# Compressibility (1/GPa) = 0.02090831
#
# Stress axis : x y z
#
# Youngs Moduli (GPa) = 28.15601 35.59559 53.16631
#
# Poissons Ratio (x) = 0.30668 0.59670
# Poissons Ratio (y) = 0.24258 0.58038
# Poissons Ratio (z) = 0.31600 0.38857
#
# Static dielectric constant tensor:
#      x y z
#    x 2.723670 0.000000 0.000000 
#    y 0.000000 3.140900 0.000000 
#    z 0.000000 0.000000 3.360380 
# 
# 
# High freq. dielectric constant tensor:
#      x y z
#    x 1.569950 0.000000 0.000000 
#    y 0.000000 1.610770 0.000000 
#    z 0.000000 0.000000 1.632050 
# 
# From -- ./inp_files/69942.got.cif
#   From: 2010.06.25/outbox.cif.g09.slc.cpg/sg71_35_cif.got.tgz:69942.got - 2010.06.28 04:59:45.
