data_PCOD8292011
_publ_section_title
;
Structure prediction by ZEFSAII (Michael W. Deem and Ramdas Pophale) SiO2 
 PCOD8292011
Probable space group: I M M M
;
_chemical_formula_sum "Si O2"
_cell_formula_units_Z 64
_cell_length_a 23.943869
_cell_length_b 8.843418
_cell_length_c 15.561423
_cell_angle_alpha 90.000000
_cell_angle_beta 90.000000
_cell_angle_gamma 90.000000
_cell_volume 3295.063505
_symmetry_space_group_name_H-M "I M M M"
_symmetry_group_IT_number 71
_symmetry_cell_setting 'orthorhombic'
loop_
_space_group_symop_operation_xyz
x,y,z
-x,-y,z
x,-y,-z
-x,y,-z
-x,-y,-z
x,y,-z
-x,y,z
x,-y,z
1/2+x,1/2+y,1/2+z
1/2-x,1/2-y,1/2+z
1/2+x,1/2-y,1/2-z
1/2-x,1/2+y,1/2-z
1/2-x,1/2-y,1/2-z
1/2+x,1/2+y,1/2-z
1/2-x,1/2+y,1/2+z
1/2+x,1/2-y,1/2+z
loop_
_atom_site_type_symbol
_atom_site_label
_atom_site_fract_x
_atom_site_fract_y
_atom_site_fract_z
Si Si1 0.225815 0.678021 0.664867
Si Si2 0.607606 0.174095 0.099976
Si Si3 0.500000 0.319307 0.628006
Si Si4 0.297073 0.678377 0.500000
Si Si5 0.000000 0.822502 0.323342
Si Si6 0.916596 0.320280 0.000000
O O1 0.227420 0.500000 0.674970
O O2 0.250000 0.750000 0.750000
O O3 0.162015 0.732106 0.651442
O O4 0.262431 0.727405 0.583507
O O5 0.554550 0.269320 0.127232
O O6 0.594975 0.000000 0.120678
O O7 0.620066 0.197430 0.000000
O O8 0.500000 0.500000 0.618260
O O9 0.500000 0.263141 0.725912
O O10 0.555167 0.250882 0.584445
O O11 0.310919 0.500000 0.500000
O O12 0.352337 0.777619 0.500000
O O13 0.000000 0.000000 0.323716
O O14 0.924628 0.500000 0.000000
#
# Coordination Sequence:
#
# PCOD8292011 Si02
#       6
#    16  16   8   8   8   8
#     4  10  22  40  63  90 121 159 202 245 295 355
#     4  10  21  41  64  86 116 157 199 242 294 353
#     4  10  22  42  61  83 119 160 196 236 299 364
#     4  10  21  41  64  87 124 166 198 238 301 370
#     4  11  25  39  59  90 119 152 195 245 298 353
#     4  11  23  38  61  90 119 151 199 250 294 343
#
# _framework density 19.422996000000001
#
# number of rings (size 3 to 8) (size 9 to 14) (size 15 to 20)
#    0.000    1.750    1.250    3.000    3.500    6.000 
#    0.000    0.000    0.000    0.000    0.000    0.000 
#    0.000    0.000    0.000    0.000    0.000    0.000 
#
# Total GULP energy -396902.227932 kJ/mol
# GULP energy per Si atom -12403.194623 kJ/mol
# Density = 1.937879 g / cm^3
# Si number density = 19.422996 Si / 1000 Ang^3
#
#
#
# Elastic Constant Matrix: (Units=GPa)
#
#
# Indices 1 2 3 4 5 6 
#
# 1 159.5982 38.0609 54.5076 0.0000 0.0000 0.0000
# 2 38.0609 55.4133 28.0358 0.0000 0.0000 0.0000
# 3 54.5076 28.0358 110.0071 0.0000 0.0000 0.0000
# 4 0.0000 0.0000 0.0000 33.4523 0.0000 0.0000
# 5 0.0000 0.0000 0.0000 0.0000 21.6371 0.0000
# 6 0.0000 0.0000 0.0000 0.0000 0.0000 17.0613
#
#
#
# Elastic Compliance Matrix: (Units=1/GPa)
#
#
# Indices 1 2 3 4 5 6 
#
# 1 0.008300 -0.004156 -0.003053 0.000000 0.000000 0.000000
# 2 -0.004156 0.022799 -0.003751 0.000000 0.000000 0.000000
# 3 -0.003053 -0.003751 0.011559 0.000000 0.000000 0.000000
# 4 0.000000 0.000000 0.000000 0.029893 0.000000 0.000000
# 5 0.000000 0.000000 0.000000 0.000000 0.046217 0.000000
# 6 0.000000 0.000000 0.000000 0.000000 0.000000 0.058612
#
#
# Mechanical properties :
#
#
# Convention : Reuss Voigt Hill
#
# Bulk Modulus (GPa) = 48.22331 62.91412 55.56871
# Shear Modulus (GPa) = 24.24682 28.05775 26.15228
#
# Velocity S-wave (km/s) = 3.53704 3.80486 3.67339
# Velocity P-wave (km/s) = 6.44692 7.19476 6.83108
#
# Compressibility (1/GPa) = 0.02073686
#
# Stress axis : x y z
#
# Youngs Moduli (GPa) = 120.48774 43.86246 86.51144
#
# Poissons Ratio (x) = 0.18229 0.26414
# Poissons Ratio (y) = 0.50073 0.32451
# Poissons Ratio (z) = 0.36788 0.16453
#
# Static dielectric constant tensor:
#      x y z
#    x 3.660340 0.000000 0.000000 
#    y 0.000000 3.457030 0.000000 
#    z 0.000000 0.000000 3.683030 
# 
# 
# High freq. dielectric constant tensor:
#      x y z
#    x 1.772250 0.000000 0.000000 
#    y 0.000000 1.749730 0.000000 
#    z 0.000000 0.000000 1.767450 
# 
# From -- ./inp_files/38803.got.cif
#   From: 2010.06.25/outbox.cif.g09.slc.cpg/sg71_20_cif.got.tgz:38803.got - 2010.06.28 04:59:45.
