data_PCOD8292058
_publ_section_title
;
Structure prediction by ZEFSAII (Michael W. Deem and Ramdas Pophale) SiO2 
 PCOD8292058
Probable space group: I M M M
;
_chemical_formula_sum "Si O2"
_cell_formula_units_Z 72
_cell_length_a 9.713378
_cell_length_b 19.621923
_cell_length_c 19.637727
_cell_angle_alpha 90.000000
_cell_angle_beta 90.000000
_cell_angle_gamma 90.000000
_cell_volume 3742.855625
_symmetry_space_group_name_H-M "I M M M"
_symmetry_group_IT_number 71
_symmetry_cell_setting 'orthorhombic'
loop_
_space_group_symop_operation_xyz
x,y,z
-x,-y,z
x,-y,-z
-x,y,-z
-x,-y,-z
x,y,-z
-x,y,z
x,-y,z
1/2+x,1/2+y,1/2+z
1/2-x,1/2-y,1/2+z
1/2+x,1/2-y,1/2-z
1/2-x,1/2+y,1/2-z
1/2-x,1/2-y,1/2-z
1/2+x,1/2+y,1/2-z
1/2-x,1/2+y,1/2+z
1/2+x,1/2-y,1/2+z
loop_
_atom_site_type_symbol
_atom_site_label
_atom_site_fract_x
_atom_site_fract_y
_atom_site_fract_z
Si Si1 0.843509 0.693859 0.076788
Si Si2 0.344874 0.080165 0.000000
Si Si3 0.345892 0.425059 0.919023
Si Si4 0.159459 0.077953 0.872957
Si Si5 0.344707 0.710126 0.698051
O O1 0.755439 0.632394 0.109932
O O2 0.823235 0.760468 0.122201
O O3 0.000000 0.668328 0.076737
O O4 0.794730 0.711912 0.000000
O O5 0.259157 0.102078 0.933613
O O6 0.500000 0.112531 0.000000
O O7 0.359337 0.000000 0.000000
O O8 0.500000 0.407808 0.894101
O O9 0.302408 0.500000 0.891744
O O10 0.338837 0.425404 0.000000
O O11 0.187864 0.129112 0.809142
O O12 0.000000 0.085139 0.896788
O O13 0.190001 0.000000 0.850042
O O14 0.500000 0.721584 0.723604
O O15 0.250000 0.750000 0.750000
#
# Coordination Sequence:
#
# PCOD8292058 Si02
#       5
#    16   8  16  16  16
#     4   9  18  32  51  75 102 135 175 217 264 319
#     4   9  17  29  49  83 119 143 170 219 278 327
#     4   8  14  26  45  70 100 131 165 210 259 302
#     4   9  18  34  57  81 106 143 188 228 271 328
#     4  10  22  38  56  77 108 145 181 223 271 326
#
# _framework density 19.236650000000001
#
# number of rings (size 3 to 8) (size 9 to 14) (size 15 to 20)
#    0.000    3.000    0.000    1.000    1.556    3.556 
#    0.000    3.333    0.000    4.000    0.000    0.000 
#    0.000    0.000    0.000    0.000    0.000    0.000 
#
# Total GULP energy -446159.685022 kJ/mol
# GULP energy per Si atom -12393.324584 kJ/mol
# Density = 1.919287 g / cm^3
# Si number density = 19.236650 Si / 1000 Ang^3
#
#
#
# Elastic Constant Matrix: (Units=GPa)
#
#
# Indices 1 2 3 4 5 6 
#
# 1 96.0751 59.0149 44.8864 0.0000 0.0000 0.0000
# 2 59.0149 116.9362 42.6329 0.0000 0.0000 0.0000
# 3 44.8864 42.6329 65.0242 0.0000 0.0000 0.0000
# 4 0.0000 0.0000 0.0000 23.5468 0.0000 0.0000
# 5 0.0000 0.0000 0.0000 0.0000 27.8876 0.0000
# 6 0.0000 0.0000 0.0000 0.0000 0.0000 27.7105
#
#
#
# Elastic Compliance Matrix: (Units=1/GPa)
#
#
# Indices 1 2 3 4 5 6 
#
# 1 0.018098 -0.006017 -0.008548 0.000000 0.000000 0.000000
# 2 -0.006017 0.013239 -0.004526 0.000000 0.000000 0.000000
# 3 -0.008548 -0.004526 0.024247 0.000000 0.000000 0.000000
# 4 0.000000 0.000000 0.000000 0.042469 0.000000 0.000000
# 5 0.000000 0.000000 0.000000 0.000000 0.035858 0.000000
# 6 0.000000 0.000000 0.000000 0.000000 0.000000 0.036087
#
#
# Mechanical properties :
#
#
# Convention : Reuss Voigt Hill
#
# Bulk Modulus (GPa) = 57.46751 63.45598 60.46174
# Shear Modulus (GPa) = 23.36644 24.59572 23.98108
#
# Velocity S-wave (km/s) = 3.48901 3.57961 3.53460
# Velocity P-wave (km/s) = 6.79483 7.08120 6.93950
#
# Compressibility (1/GPa) = 0.01740114
#
# Stress axis : x y z
#
# Youngs Moduli (GPa) = 55.25341 75.53669 41.24186
#
# Poissons Ratio (x) = 0.45453 0.35254
# Poissons Ratio (y) = 0.33248 0.18666
# Poissons Ratio (z) = 0.47232 0.34188
#
# Static dielectric constant tensor:
#      x y z
#    x 3.720490 0.000000 0.000000 
#    y 0.000000 3.800290 0.000000 
#    z 0.000000 0.000000 3.141300 
# 
# 
# High freq. dielectric constant tensor:
#      x y z
#    x 1.745430 0.000000 0.000000 
#    y 0.000000 1.753570 0.000000 
#    z 0.000000 0.000000 1.707480 
# 
# From -- ./inp_files/9908.got.cif
#   From: 2010.06.25/outbox.cif.g09.slc.cpg/sg71_5_cif.got.tgz:9908.got - 2010.06.28 04:59:45.
