data_PCOD8292899
_publ_section_title
;
Structure prediction by ZEFSAII (Michael W. Deem and Ramdas Pophale) SiO2 
 PCOD8292899
Probable space group: I B A M
;
_chemical_formula_sum "Si O2"
_cell_formula_units_Z 88
_cell_length_a 19.179901
_cell_length_b 13.924787
_cell_length_c 19.696828
_cell_angle_alpha 90.000000
_cell_angle_beta 90.000000
_cell_angle_gamma 90.000000
_cell_volume 5260.550746
_symmetry_space_group_name_H-M "I B A M"
_symmetry_group_IT_number 72
_symmetry_cell_setting 'orthorhombic'
loop_
_space_group_symop_operation_xyz
x,y,z
-x,-y,z
x,-y,1/2-z
-x,y,1/2-z
-x,-y,-z
x,y,-z
-x,y,1/2+z
x,-y,1/2+z
1/2+x,1/2+y,1/2+z
1/2-x,1/2-y,1/2+z
1/2+x,1/2-y,-z
1/2-x,1/2+y,-z
1/2-x,1/2-y,1/2-z
1/2+x,1/2+y,1/2-z
1/2-x,1/2+y,z
1/2+x,1/2-y,z
loop_
_atom_site_type_symbol
_atom_site_label
_atom_site_fract_x
_atom_site_fract_y
_atom_site_fract_z
Si Si1 0.519392 0.606055 0.376901
Si Si2 0.147165 0.735264 0.790506
Si Si3 0.874651 0.162378 0.925195
Si Si4 0.227322 0.102437 0.785606
Si Si5 0.500000 0.268119 0.250000
Si Si6 0.834438 0.946134 0.924363
O O1 0.500000 0.500000 0.352120
O O2 0.458229 0.651179 0.422346
O O3 0.530127 0.667173 0.309737
O O4 0.590034 0.604284 0.420253
O O5 0.153921 0.763083 0.869759
O O6 0.169533 0.827464 0.746197
O O7 0.195396 0.644484 0.773681
O O8 0.066914 0.705696 0.774034
O O9 0.839155 0.059821 0.912237
O O10 0.855163 0.201557 0.000000
O O11 0.215926 0.095596 0.866527
O O12 0.220898 0.000000 0.750000
O O13 0.804596 0.924468 0.000000
#
# Coordination Sequence:
#
# PCOD8292899 Si02
#       6
#    16  16  16  16   8  16
#     4   9  16  24  43  72 106 134 158 200 256 305
#     4  10  21  33  54  74  99 133 169 211 251 298
#     4   9  17  29  46  73 104 131 164 204 246 299
#     4  11  21  36  50  74 103 133 168 209 255 297
#     4  10  17  30  49  76  98 126 176 212 246 298
#     4  10  18  29  47  72 105 138 166 197 250 311
#
# _framework density 16.728286000000001
#
# number of rings (size 3 to 8) (size 9 to 14) (size 15 to 20)
#    0.000    2.182    3.636    0.818    0.000    2.909 
#    0.000    0.455    0.000    0.000    0.000    0.000 
#    0.000    4.727    0.000    0.000    0.000    0.000 
#
# Total GULP energy -545400.171459 kJ/mol
# GULP energy per Si atom -12395.458442 kJ/mol
# Density = 1.669021 g / cm^3
# Si number density = 16.728286 Si / 1000 Ang^3
#
#
#
# Elastic Constant Matrix: (Units=GPa)
#
#
# Indices 1 2 3 4 5 6 
#
# 1 81.9079 25.1603 24.3552 0.0000 0.0000 0.0000
# 2 25.1603 37.9138 17.9075 0.0000 0.0000 0.0000
# 3 24.3552 17.9075 108.7822 0.0000 0.0000 0.0000
# 4 0.0000 0.0000 0.0000 10.2029 0.0000 0.0000
# 5 0.0000 0.0000 0.0000 0.0000 19.0832 0.0000
# 6 0.0000 0.0000 0.0000 0.0000 0.0000 14.1433
#
#
#
# Elastic Compliance Matrix: (Units=1/GPa)
#
#
# Indices 1 2 3 4 5 6 
#
# 1 0.015708 -0.009502 -0.001953 0.000000 0.000000 0.000000
# 2 -0.009502 0.034347 -0.003527 0.000000 0.000000 0.000000
# 3 -0.001953 -0.003527 0.010210 0.000000 0.000000 0.000000
# 4 0.000000 0.000000 0.000000 0.098011 0.000000 0.000000
# 5 0.000000 0.000000 0.000000 0.000000 0.052402 0.000000
# 6 0.000000 0.000000 0.000000 0.000000 0.000000 0.070705
#
#
# Mechanical properties :
#
#
# Convention : Reuss Voigt Hill
#
# Bulk Modulus (GPa) = 33.00015 40.38331 36.69173
# Shear Modulus (GPa) = 15.55464 19.43130 17.49297
#
# Velocity S-wave (km/s) = 3.05264 3.41190 3.23726
# Velocity P-wave (km/s) = 5.67404 6.30195 5.99622
#
# Compressibility (1/GPa) = 0.03030290
#
# Stress axis : x y z
#
# Youngs Moduli (GPa) = 63.66074 29.11453 97.93904
#
# Poissons Ratio (x) = 0.27665 0.19125
# Poissons Ratio (y) = 0.60490 0.34541
# Poissons Ratio (z) = 0.12431 0.10268
#
# Static dielectric constant tensor:
#      x y z
#    x 3.000200 0.000000 0.000000 
#    y 0.000000 2.706050 0.000000 
#    z 0.000000 0.000000 3.693140 
# 
# 
# High freq. dielectric constant tensor:
#      x y z
#    x 1.635450 0.000000 0.000000 
#    y 0.000000 1.596330 0.000000 
#    z 0.000000 0.000000 1.659250 
# 
# From -- ./inp_files/32506.got.cif
#   From: 2010.03.12/outbox.cif.g09.slc.cpg/sg72_17_cif.got.tgz:32506.got - 2010.04.16 14:54:00.
