data_PCOD8292099
_publ_section_title
;
Structure prediction by ZEFSAII (Michael W. Deem and Ramdas Pophale) SiO2 
 PCOD8292099
Probable space group: I M M M
;
_chemical_formula_sum "Si O2"
_cell_formula_units_Z 64
_cell_length_a 8.151494
_cell_length_b 15.400319
_cell_length_c 25.252095
_cell_angle_alpha 90.000000
_cell_angle_beta 90.000000
_cell_angle_gamma 90.000000
_cell_volume 3170.037097
_symmetry_space_group_name_H-M "I M M M"
_symmetry_group_IT_number 71
_symmetry_cell_setting 'orthorhombic'
loop_
_space_group_symop_operation_xyz
x,y,z
-x,-y,z
x,-y,-z
-x,y,-z
-x,-y,-z
x,y,-z
-x,y,z
x,-y,z
1/2+x,1/2+y,1/2+z
1/2-x,1/2-y,1/2+z
1/2+x,1/2-y,1/2-z
1/2-x,1/2+y,1/2-z
1/2-x,1/2-y,1/2-z
1/2+x,1/2+y,1/2-z
1/2-x,1/2+y,1/2+z
1/2+x,1/2-y,1/2+z
loop_
_atom_site_type_symbol
_atom_site_label
_atom_site_fract_x
_atom_site_fract_y
_atom_site_fract_z
Si Si1 0.500000 0.600293 0.060418
Si Si2 0.809766 0.403001 0.500000
Si Si3 0.312445 0.655597 0.389716
Si Si4 0.809445 0.000000 0.822054
Si Si5 0.311560 0.849940 0.624700
Si Si6 0.812659 0.500000 0.206116
O O1 0.500000 0.500000 0.072981
O O2 0.327969 0.636894 0.081243
O O3 0.500000 0.625353 0.000000
O O4 0.726691 0.500000 0.500000
O O5 0.766108 0.347391 0.447952
O O6 0.000000 0.417485 0.500000
O O7 0.500000 0.632529 0.399173
O O8 0.230434 0.585136 0.349995
O O9 0.294732 0.748646 0.360532
O O10 0.789596 0.000000 0.759381
O O11 0.000000 0.000000 0.833408
O O12 0.500000 0.869789 0.604591
O O13 0.269571 0.912539 0.673835
O O14 0.000000 0.500000 0.223076
#
# Coordination Sequence:
#
# PCOD8292099 Si02
#       6
#     8   8  16   8  16   8
#     4  11  24  40  64  95 125 165 211 254 310 368
#     4  11  23  37  59  90 127 164 201 251 312 367
#     4  10  22  40  60  89 124 162 205 252 306 373
#     4  10  22  39  63  90 118 157 213 257 304 371
#     4  10  23  42  63  91 128 165 208 253 312 372
#     4  10  22  42  63  84 120 163 204 261 315 361
#
# _framework density 20.189039000000001
#
# number of rings (size 3 to 8) (size 9 to 14) (size 15 to 20)
#    0.000    1.750    2.500    0.375    5.250    3.000 
#    0.000    1.250    0.000    0.000    0.000    0.000 
#    0.000    0.000    0.000    0.000    0.000    0.000 
#
# Total GULP energy -396554.434848 kJ/mol
# GULP energy per Si atom -12392.326089 kJ/mol
# Density = 2.014309 g / cm^3
# Si number density = 20.189039 Si / 1000 Ang^3
#
#
#
# Elastic Constant Matrix: (Units=GPa)
#
#
# Indices 1 2 3 4 5 6 
#
# 1 84.7198 36.3175 44.5127 0.0000 0.0000 0.0000
# 2 36.3175 164.7193 70.3911 0.0000 0.0000 0.0000
# 3 44.5127 70.3911 160.4619 0.0000 0.0000 0.0000
# 4 0.0000 0.0000 0.0000 15.8968 0.0000 0.0000
# 5 0.0000 0.0000 0.0000 0.0000 23.8090 0.0000
# 6 0.0000 0.0000 0.0000 0.0000 0.0000 19.1938
#
#
#
# Elastic Compliance Matrix: (Units=1/GPa)
#
#
# Indices 1 2 3 4 5 6 
#
# 1 0.014232 -0.001785 -0.003165 0.000000 0.000000 0.000000
# 2 -0.001785 0.007696 -0.002881 0.000000 0.000000 0.000000
# 3 -0.003165 -0.002881 0.008374 0.000000 0.000000 0.000000
# 4 0.000000 0.000000 0.000000 0.062906 0.000000 0.000000
# 5 0.000000 0.000000 0.000000 0.000000 0.042001 0.000000
# 6 0.000000 0.000000 0.000000 0.000000 0.000000 0.052100
#
#
# Mechanical properties :
#
#
# Convention : Reuss Voigt Hill
#
# Bulk Modulus (GPa) = 68.30864 79.14926 73.72895
# Shear Modulus (GPa) = 24.05591 29.02523 26.54057
#
# Velocity S-wave (km/s) = 3.45560 3.79578 3.62968
# Velocity P-wave (km/s) = 7.05901 7.64851 7.35966
#
# Compressibility (1/GPa) = 0.01463944
#
# Stress axis : x y z
#
# Youngs Moduli (GPa) = 70.26536 129.94474 119.42341
#
# Poissons Ratio (x) = 0.23201 0.37794
# Poissons Ratio (y) = 0.12545 0.34401
# Poissons Ratio (z) = 0.22237 0.37432
#
# Static dielectric constant tensor:
#      x y z
#    x 3.816100 0.000000 0.000000 
#    y 0.000000 4.023510 0.000000 
#    z 0.000000 0.000000 3.463170 
# 
# 
# High freq. dielectric constant tensor:
#      x y z
#    x 1.789680 0.000000 0.000000 
#    y 0.000000 1.806530 0.000000 
#    z 0.000000 0.000000 1.770080 
# 
# From -- ./inp_files/5625.got.cif
#   From: 2010.06.25/outbox.cif.g09.slc.cpg/sg71_3_cif.got.tgz:5625.got - 2010.06.28 04:59:45.
