data_PCOD8292262
_publ_section_title
;
Structure prediction by ZEFSAII (Michael W. Deem and Ramdas Pophale) SiO2 
 PCOD8292262
Probable space group: I M M M
;
_chemical_formula_sum "Si O2"
_cell_formula_units_Z 96
_cell_length_a 21.199140
_cell_length_b 22.375177
_cell_length_c 11.885199
_cell_angle_alpha 90.000000
_cell_angle_beta 90.000000
_cell_angle_gamma 90.000000
_cell_volume 5637.560041
_symmetry_space_group_name_H-M "I M M M"
_symmetry_group_IT_number 71
_symmetry_cell_setting 'orthorhombic'
loop_
_space_group_symop_operation_xyz
x,y,z
-x,-y,z
x,-y,-z
-x,y,-z
-x,-y,-z
x,y,-z
-x,y,z
x,-y,z
1/2+x,1/2+y,1/2+z
1/2-x,1/2-y,1/2+z
1/2+x,1/2-y,1/2-z
1/2-x,1/2+y,1/2-z
1/2-x,1/2-y,1/2-z
1/2+x,1/2+y,1/2-z
1/2-x,1/2+y,1/2+z
1/2+x,1/2-y,1/2+z
loop_
_atom_site_type_symbol
_atom_site_label
_atom_site_fract_x
_atom_site_fract_y
_atom_site_fract_z
Si Si1 0.574564 0.726837 0.500000
Si Si2 0.751296 0.830741 0.631240
Si Si3 0.568843 0.221288 0.877128
Si Si4 0.068850 0.581403 0.376388
Si Si5 0.927846 0.369135 0.000000
Si Si6 0.155481 0.432925 0.176919
Si Si7 0.659810 0.272838 0.701127
O O1 0.500000 0.709348 0.500000
O O2 0.583565 0.798314 0.500000
O O3 0.611005 0.699877 0.390898
O O4 0.773359 0.835802 0.500000
O O5 0.717659 0.892256 0.667834
O O6 0.709146 0.770894 0.639799
O O7 0.807596 0.824547 0.723110
O O8 0.500000 0.246510 0.839769
O O9 0.565471 0.151446 0.886108
O O10 0.621188 0.233396 0.786988
O O11 0.586820 0.248167 0.000000
O O12 0.081308 0.554443 0.500000
O O13 0.127504 0.560053 0.301428
O O14 0.000000 0.558669 0.331612
O O15 0.898371 0.398728 0.108994
O O16 0.000000 0.385787 0.000000
O O17 0.170470 0.500000 0.131069
#
# Coordination Sequence:
#
# PCOD8292262 Si02
#       7
#     8  16  16  16   8  16  16
#     4  11  20  35  58  83 113 136 169 217 269 314
#     4  11  22  36  49  71 101 135 181 216 255 307
#     4   9  16  28  48  73  97 127 166 209 260 307
#     4   9  18  32  47  66  96 131 173 219 260 298
#     4  11  21  34  51  76 108 141 184 228 260 297
#     4  12  22  35  50  68  98 138 186 226 261 298
#     4  11  19  33  52  73 101 134 169 212 263 316
#
# _framework density 17.028642999999999
#
# number of rings (size 3 to 8) (size 9 to 14) (size 15 to 20)
#    0.000    1.500    5.000    2.750    0.000    4.667 
#    1.500    0.833    0.000    0.000    0.000    0.000 
#    0.000    3.333    0.000    8.167    0.000    0.000 
#
# Total GULP energy -594678.889075 kJ/mol
# GULP energy per Si atom -12389.143522 kJ/mol
# Density = 1.698989 g / cm^3
# Si number density = 17.028643 Si / 1000 Ang^3
#
#
#
# Elastic Constant Matrix: (Units=GPa)
#
#
# Indices 1 2 3 4 5 6 
#
# 1 87.4835 34.6418 58.3610 0.0000 0.0000 0.0000
# 2 34.6418 51.8766 29.3296 0.0000 0.0000 0.0000
# 3 58.3610 29.3296 105.4510 0.0000 0.0000 0.0000
# 4 0.0000 0.0000 0.0000 -58.0614 0.0000 0.0000
# 5 0.0000 0.0000 0.0000 0.0000 27.4412 0.0000
# 6 0.0000 0.0000 0.0000 0.0000 0.0000 67.3117
#
#
#
# Elastic Compliance Matrix: (Units=1/GPa)
#
#
# Indices 1 2 3 4 5 6 
#
# 1 0.021083 -0.008878 -0.009199 0.000000 0.000000 0.000000
# 2 -0.008878 0.026612 -0.002488 0.000000 0.000000 0.000000
# 3 -0.009199 -0.002488 0.015266 0.000000 0.000000 0.000000
# 4 0.000000 0.000000 0.000000 -0.017223 0.000000 0.000000
# 5 0.000000 0.000000 0.000000 0.000000 0.036442 0.000000
# 6 0.000000 0.000000 0.000000 0.000000 0.000000 0.014856
#
#
# Mechanical properties :
#
#
# Convention : Reuss Voigt Hill
#
# Bulk Modulus (GPa) = 45.80685 54.38619 50.09652
# Shear Modulus (GPa) = 34.37791 15.50354 24.94073
#
# Velocity S-wave (km/s) = 4.49801 3.02062 3.83121
# Velocity P-wave (km/s) = 7.34401 6.64627 7.00383
#
# Compressibility (1/GPa) = 0.02183079
#
# Stress axis : x y z
#
# Youngs Moduli (GPa) = 47.43199 37.57753 65.50400
#
# Poissons Ratio (x) = 0.33360 0.60257
# Poissons Ratio (y) = 0.42109 0.16299
# Poissons Ratio (z) = 0.43632 0.09350
#
# Static dielectric constant tensor:
#      x y z
#    x 3.365150 0.000000 0.000000 
#    y 0.000000 2.883300 0.000000 
#    z 0.000000 0.000000 3.544110 
# 
# 
# High freq. dielectric constant tensor:
#      x y z
#    x 1.641810 0.000000 0.000000 
#    y 0.000000 1.607570 0.000000 
#    z 0.000000 0.000000 1.679640 
# 
# From -- ./inp_files/25995.got.cif
#   From: 2010.06.25/outbox.cif.g09.slc.cpg/sg71_13_cif.got.tgz:25995.got - 2010.06.28 04:59:45.
