data_PCOD8292671
_publ_section_title
;
Structure prediction by ZEFSAII (Michael W. Deem and Ramdas Pophale) SiO2 
 PCOD8292671
Probable space group: I M M M
;
_chemical_formula_sum "Si O2"
_cell_formula_units_Z 72
_cell_length_a 9.180938
_cell_length_b 18.453708
_cell_length_c 31.621681
_cell_angle_alpha 90.000000
_cell_angle_beta 90.000000
_cell_angle_gamma 90.000000
_cell_volume 5357.419475
_symmetry_space_group_name_H-M "I M M M"
_symmetry_group_IT_number 71
_symmetry_cell_setting 'orthorhombic'
loop_
_space_group_symop_operation_xyz
x,y,z
-x,-y,z
x,-y,-z
-x,y,-z
-x,-y,-z
x,y,-z
-x,y,z
x,-y,z
1/2+x,1/2+y,1/2+z
1/2-x,1/2-y,1/2+z
1/2+x,1/2-y,1/2-z
1/2-x,1/2+y,1/2-z
1/2-x,1/2-y,1/2-z
1/2+x,1/2+y,1/2-z
1/2-x,1/2+y,1/2+z
1/2+x,1/2-y,1/2+z
loop_
_atom_site_type_symbol
_atom_site_label
_atom_site_fract_x
_atom_site_fract_y
_atom_site_fract_z
Si Si1 0.830349 0.291869 0.786961
Si Si2 0.669397 0.584933 0.582428
Si Si3 0.328536 0.416584 0.753650
Si Si4 0.164295 0.413810 0.500000
Si Si5 0.331604 0.346559 0.667201
O O1 0.750000 0.250000 0.750000
O O2 0.754055 0.370729 0.790564
O O3 0.809594 0.240733 0.828383
O O4 0.000000 0.301420 0.776327
O O5 0.500000 0.602723 0.575482
O O6 0.695110 0.500000 0.589214
O O7 0.754323 0.615160 0.541681
O O8 0.737928 0.625779 0.623339
O O9 0.500000 0.402074 0.757806
O O10 0.288446 0.500000 0.760262
O O11 0.268588 0.389911 0.707880
O O12 0.168785 0.500000 0.500000
O O13 0.000000 0.384126 0.500000
O O14 0.500000 0.367755 0.665100
#
# Coordination Sequence:
#
# PCOD8292671 Si02
#       5
#    16  16  16   8  16
#     4   9  16  26  38  52  72  96 121 150 185 220
#     4   9  15  24  39  54  66  87 122 154 176 206
#     4   9  16  26  39  54  73  97 124 154 186 216
#     4   9  17  27  35  47  71  95 112 139 182 219
#     4   8  14  24  38  54  70  91 121 155 184 209
#
# _framework density 13.439306
#
# number of rings (size 3 to 8) (size 9 to 14) (size 15 to 20)
#    0.000    3.222    0.000    3.000    0.000    4.444 
#    0.000    5.556    0.000    5.333    0.000    0.000 
#    0.000    0.000    0.000    1.000    0.000   20.889 
#
# Total GULP energy -446054.256403 kJ/mol
# GULP energy per Si atom -12390.396011 kJ/mol
# Density = 1.340872 g / cm^3
# Si number density = 13.439306 Si / 1000 Ang^3
#
#
#
# Elastic Constant Matrix: (Units=GPa)
#
#
# Indices 1 2 3 4 5 6 
#
# 1 55.3318 37.6035 32.4023 0.0000 0.0000 0.0000
# 2 37.6035 86.4520 40.4809 0.0000 0.0000 0.0000
# 3 32.4023 40.4809 74.1310 0.0000 0.0000 0.0000
# 4 0.0000 0.0000 0.0000 18.0124 0.0000 0.0000
# 5 0.0000 0.0000 0.0000 0.0000 13.4670 0.0000
# 6 0.0000 0.0000 0.0000 0.0000 0.0000 20.5632
#
#
#
# Elastic Compliance Matrix: (Units=1/GPa)
#
#
# Indices 1 2 3 4 5 6 
#
# 1 0.028564 -0.008838 -0.007659 0.000000 0.000000 0.000000
# 2 -0.008838 0.018275 -0.006117 0.000000 0.000000 0.000000
# 3 -0.007659 -0.006117 0.020178 0.000000 0.000000 0.000000
# 4 0.000000 0.000000 0.000000 0.055517 0.000000 0.000000
# 5 0.000000 0.000000 0.000000 0.000000 0.074256 0.000000
# 6 0.000000 0.000000 0.000000 0.000000 0.000000 0.048631
#
#
# Mechanical properties :
#
#
# Convention : Reuss Voigt Hill
#
# Bulk Modulus (GPa) = 45.89335 48.54314 47.21825
# Shear Modulus (GPa) = 16.78349 17.43705 17.11027
#
# Velocity S-wave (km/s) = 3.53772 3.60594 3.57200
# Velocity P-wave (km/s) = 7.13513 7.31682 7.22654
#
# Compressibility (1/GPa) = 0.02178965
#
# Stress axis : x y z
#
# Youngs Moduli (GPa) = 35.00868 54.71815 49.56011
#
# Poissons Ratio (x) = 0.48360 0.37959
# Poissons Ratio (y) = 0.30941 0.30314
# Poissons Ratio (z) = 0.26814 0.33469
#
# Static dielectric constant tensor:
#      x y z
#    x 2.687920 0.000000 0.000000 
#    y 0.000000 2.916790 0.000000 
#    z 0.000000 0.000000 2.724910 
# 
# 
# High freq. dielectric constant tensor:
#      x y z
#    x 1.504080 0.000000 0.000000 
#    y 0.000000 1.490700 0.000000 
#    z 0.000000 0.000000 1.483960 
# 
# From -- ./inp_files/64528.got.cif
#   From: 2010.06.25/outbox.cif.g09.slc.cpg/sg71_33_cif.got.tgz:64528.got - 2010.06.28 04:59:45.
