data_PCOD8292098
_publ_section_title
;
Structure prediction by ZEFSAII (Michael W. Deem and Ramdas Pophale) SiO2 
 PCOD8292098
Probable space group: I M M M
;
_chemical_formula_sum "Si O2"
_cell_formula_units_Z 72
_cell_length_a 14.012347
_cell_length_b 17.272853
_cell_length_c 14.404186
_cell_angle_alpha 90.000000
_cell_angle_beta 90.000000
_cell_angle_gamma 90.000000
_cell_volume 3486.291374
_symmetry_space_group_name_H-M "I M M M"
_symmetry_group_IT_number 71
_symmetry_cell_setting 'orthorhombic'
loop_
_space_group_symop_operation_xyz
x,y,z
-x,-y,z
x,-y,-z
-x,y,-z
-x,-y,-z
x,y,-z
-x,y,z
x,-y,z
1/2+x,1/2+y,1/2+z
1/2-x,1/2-y,1/2+z
1/2+x,1/2-y,1/2-z
1/2-x,1/2+y,1/2-z
1/2-x,1/2-y,1/2-z
1/2+x,1/2+y,1/2-z
1/2-x,1/2+y,1/2+z
1/2+x,1/2-y,1/2+z
loop_
_atom_site_type_symbol
_atom_site_label
_atom_site_fract_x
_atom_site_fract_y
_atom_site_fract_z
Si Si1 0.391721 0.769402 0.105046
Si Si2 0.393894 0.088336 0.776220
Si Si3 0.109859 0.090816 0.895186
Si Si4 0.703014 0.638887 0.213317
Si Si5 0.112364 0.000000 0.603942
O O1 0.500000 0.737976 0.116861
O O2 0.387899 0.860064 0.130836
O O3 0.320313 0.723353 0.172963
O O4 0.356802 0.758765 0.000000
O O5 0.500000 0.095137 0.731295
O O6 0.315631 0.119460 0.702674
O O7 0.371081 0.000000 0.804675
O O8 0.175176 0.137015 0.822364
O O9 0.000000 0.113453 0.878431
O O10 0.124316 0.000000 0.878611
O O11 0.140498 0.113590 0.000000
O O12 0.643667 0.576677 0.156323
O O13 0.155407 0.000000 0.500000
O O14 0.000000 0.000000 0.600219
#
# Coordination Sequence:
#
# PCOD8292098 Si02
#       5
#    16  16  16  16   8
#     4  10  22  39  62  94 128 160 199 255 318 375
#     4  10  22  41  62  85 116 162 218 264 302 352
#     4   9  17  29  48  79 119 161 202 241 291 361
#     4  12  20  36  60  90 125 161 205 252 311 372
#     4  11  22  34  56  92 130 165 198 238 298 376
#
# _framework density 20.652318000000001
#
# number of rings (size 3 to 8) (size 9 to 14) (size 15 to 20)
#    0.000    1.667    2.222    4.000    0.000    3.111 
#    0.000    2.222    0.000    3.333    0.000    3.111 
#    0.000    0.000    0.000    0.000    0.000    0.000 
#
# Total GULP energy -446415.414106 kJ/mol
# GULP energy per Si atom -12400.428170 kJ/mol
# Density = 2.060531 g / cm^3
# Si number density = 20.652318 Si / 1000 Ang^3
#
#
#
# Elastic Constant Matrix: (Units=GPa)
#
#
# Indices 1 2 3 4 5 6 
#
# 1 121.5502 47.3557 53.3196 0.0000 0.0000 0.0000
# 2 47.3557 115.5696 45.2309 -0.0001 0.0000 0.0000
# 3 53.3196 45.2309 119.6944 -0.0002 0.0000 0.0000
# 4 0.0000 -0.0001 -0.0002 15.9748 0.0000 0.0000
# 5 0.0000 0.0000 0.0000 0.0000 16.9994 0.0000
# 6 0.0000 0.0000 0.0000 0.0000 0.0000 20.0984
#
#
#
# Elastic Compliance Matrix: (Units=1/GPa)
#
#
# Indices 1 2 3 4 5 6 
#
# 1 0.011076 -0.003060 -0.003778 0.000000 0.000000 0.000000
# 2 -0.003060 0.011000 -0.002794 0.000000 0.000000 0.000000
# 3 -0.003778 -0.002794 0.011093 0.000000 0.000000 0.000000
# 4 0.000000 0.000000 0.000000 0.062599 0.000000 0.000000
# 5 0.000000 0.000000 0.000000 0.000000 0.058826 0.000000
# 6 0.000000 0.000000 0.000000 0.000000 0.000000 0.049755
#
#
# Mechanical properties :
#
#
# Convention : Reuss Voigt Hill
#
# Bulk Modulus (GPa) = 71.90823 72.06963 71.98893
# Shear Modulus (GPa) = 21.90602 24.67505 23.29053
#
# Velocity S-wave (km/s) = 3.26038 3.46031 3.36183
# Velocity P-wave (km/s) = 7.00482 7.13705 7.07124
#
# Compressibility (1/GPa) = 0.01390661
#
# Stress axis : x y z
#
# Youngs Moduli (GPa) = 90.28166 90.90868 90.14593
#
# Poissons Ratio (x) = 0.27819 0.34055
# Poissons Ratio (y) = 0.27628 0.25183
# Poissons Ratio (z) = 0.34106 0.25396
#
# Static dielectric constant tensor:
#      x y z
#    x 3.963100 0.000000 0.000000 
#    y 0.000000 3.735460 0.000000 
#    z 0.000000 0.000000 3.686600 
# 
# 
# High freq. dielectric constant tensor:
#      x y z
#    x 1.817710 0.000000 0.000000 
#    y 0.000000 1.805170 0.000000 
#    z 0.000000 0.000000 1.786980 
# 
# From -- ./inp_files/34047.got.cif
#   From: 2010.06.25/outbox.cif.g09.slc.cpg/sg71_18_cif.got.tgz:34047.got - 2010.06.28 04:59:45.
