data_PCOD8292630
_publ_section_title
;
Structure prediction by ZEFSAII (Michael W. Deem and Ramdas Pophale) SiO2 
 PCOD8292630
Probable space group: I M M M
;
_chemical_formula_sum "Si O2"
_cell_formula_units_Z 112
_cell_length_a 34.875443
_cell_length_b 10.019447
_cell_length_c 30.747983
_cell_angle_alpha 90.000000
_cell_angle_beta 90.000000
_cell_angle_gamma 90.000000
_cell_volume 10744.349266
_symmetry_space_group_name_H-M "I M M M"
_symmetry_group_IT_number 71
_symmetry_cell_setting 'orthorhombic'
loop_
_space_group_symop_operation_xyz
x,y,z
-x,-y,z
x,-y,-z
-x,y,-z
-x,-y,-z
x,y,-z
-x,y,z
x,-y,z
1/2+x,1/2+y,1/2+z
1/2-x,1/2-y,1/2+z
1/2+x,1/2-y,1/2-z
1/2-x,1/2+y,1/2-z
1/2-x,1/2-y,1/2-z
1/2+x,1/2+y,1/2-z
1/2-x,1/2+y,1/2+z
1/2+x,1/2-y,1/2+z
loop_
_atom_site_type_symbol
_atom_site_label
_atom_site_fract_x
_atom_site_fract_y
_atom_site_fract_z
Si Si1 0.311914 0.152299 0.949813
Si Si2 0.612351 0.845343 0.105478
Si Si3 0.352102 0.649586 0.167730
Si Si4 0.042632 0.341759 0.548456
Si Si5 0.729063 0.850456 0.691875
Si Si6 0.224089 0.149380 0.388931
Si Si7 0.194672 0.850598 0.251307
O O1 0.353147 0.175265 0.928230
O O2 0.279365 0.245551 0.928220
O O3 0.298451 0.000000 0.943767
O O4 0.315854 0.191466 0.000000
O O5 0.618004 0.757621 0.149016
O O6 0.574082 0.788583 0.082379
O O7 0.608581 0.000000 0.119334
O O8 0.369787 0.500000 0.166102
O O9 0.314116 0.653526 0.139215
O O10 0.341011 0.687831 0.217364
O O11 0.050628 0.284356 0.500000
O O12 0.045890 0.500000 0.546237
O O13 0.000000 0.298475 0.563938
O O14 0.740265 0.811155 0.642354
O O15 0.766692 0.842755 0.721157
O O16 0.696785 0.750159 0.710444
O O17 0.712082 0.000000 0.693137
O O18 0.230115 0.000000 0.407747
O O19 0.189105 0.000000 0.232949
#
# Coordination Sequence:
#
# PCOD8292630 Si02
#       7
#    16  16  16  16  16  16  16
#     4   9  16  23  30  41  55  68  84 109 136 158
#     4   9  15  22  33  46  56  67  85 107 130 158
#     4   8  14  23  31  40  56  73  85  99 121 150
#     4   8  13  21  33  47  59  69  83 106 135 164
#     4   8  13  20  29  40  53  67  83 104 124 141
#     4   8  14  23  31  39  52  69  87 104 124 152
#     4   8  13  20  29  40  53  69  86 100 117 144
#
# _framework density 10.424084000000001
#
# number of rings (size 3 to 8) (size 9 to 14) (size 15 to 20)
#    0.000    3.714    0.000    2.571    0.000    3.143 
#    0.000    5.714    0.000    1.714    0.000    1.000 
#    0.000    0.000    0.000    0.000    0.000    0.000 
#
# Total GULP energy -693862.203306 kJ/mol
# GULP energy per Si atom -12390.396488 kJ/mol
# Density = 1.040036 g / cm^3
# Si number density = 10.424084 Si / 1000 Ang^3
#
#
#
# Elastic Constant Matrix: (Units=GPa)
#
#
# Indices 1 2 3 4 5 6 
#
# 1 34.2887 30.1755 32.6414 0.0000 0.0000 0.0000
# 2 30.1755 59.8879 39.8518 0.0000 0.0000 0.0000
# 3 32.6414 39.8518 46.5708 0.0000 0.0000 0.0000
# 4 0.0000 0.0000 0.0000 18.4533 0.0000 0.0000
# 5 0.0000 0.0000 0.0000 0.0000 17.8679 0.0000
# 6 0.0000 0.0000 0.0000 0.0000 0.0000 7.5554
#
#
#
# Elastic Compliance Matrix: (Units=1/GPa)
#
#
# Indices 1 2 3 4 5 6 
#
# 1 0.089165 -0.007758 -0.055857 0.000000 0.000000 0.000000
# 2 -0.007758 0.039456 -0.028326 0.000000 0.000000 0.000000
# 3 -0.055857 -0.028326 0.084862 0.000000 0.000000 0.000000
# 4 0.000000 0.000000 0.000000 0.054191 0.000000 0.000000
# 5 0.000000 0.000000 0.000000 0.000000 0.055966 0.000000
# 6 0.000000 0.000000 0.000000 0.000000 0.000000 0.132356
#
#
# Mechanical properties :
#
#
# Convention : Reuss Voigt Hill
#
# Bulk Modulus (GPa) = 33.78231 38.45387 36.11809
# Shear Modulus (GPa) = 7.69534 11.31390 9.50462
#
# Velocity S-wave (km/s) = 2.71998 3.29806 3.02287
# Velocity P-wave (km/s) = 6.50713 7.17443 6.84891
#
# Compressibility (1/GPa) = 0.02960129
#
# Stress axis : x y z
#
# Youngs Moduli (GPa) = 11.21520 25.34464 11.78383
#
# Poissons Ratio (x) = 0.19662 0.65821
# Poissons Ratio (y) = 0.08700 0.33379
# Poissons Ratio (z) = 0.62645 0.71792
#
# Static dielectric constant tensor:
#      x y z
#    x 2.083850 0.000000 0.000000 
#    y 0.000000 2.386580 0.000000 
#    z 0.000000 0.000000 2.316590 
# 
# 
# High freq. dielectric constant tensor:
#      x y z
#    x 1.343640 0.000000 0.000000 
#    y 0.000000 1.393860 0.000000 
#    z 0.000000 0.000000 1.374440 
# 
# From -- ./inp_files/62126.got.cif
#   From: 2010.06.25/outbox.cif.g09.slc.cpg/sg71_32_cif.got.tgz:62126.got - 2010.06.28 04:59:45.
