data_PCOD8292324
_publ_section_title
;
Structure prediction by ZEFSAII (Michael W. Deem and Ramdas Pophale) SiO2 
 PCOD8292324
Probable space group: I M M M
;
_chemical_formula_sum "Si O2"
_cell_formula_units_Z 68
_cell_length_a 23.327729
_cell_length_b 7.718726
_cell_length_c 18.447991
_cell_angle_alpha 90.000000
_cell_angle_beta 90.000000
_cell_angle_gamma 90.000000
_cell_volume 3321.751686
_symmetry_space_group_name_H-M "I M M M"
_symmetry_group_IT_number 71
_symmetry_cell_setting 'orthorhombic'
loop_
_space_group_symop_operation_xyz
x,y,z
-x,-y,z
x,-y,-z
-x,y,-z
-x,-y,-z
x,y,-z
-x,y,z
x,-y,z
1/2+x,1/2+y,1/2+z
1/2-x,1/2-y,1/2+z
1/2+x,1/2-y,1/2-z
1/2-x,1/2+y,1/2-z
1/2-x,1/2-y,1/2-z
1/2+x,1/2+y,1/2-z
1/2-x,1/2+y,1/2+z
1/2+x,1/2-y,1/2+z
loop_
_atom_site_type_symbol
_atom_site_label
_atom_site_fract_x
_atom_site_fract_y
_atom_site_fract_z
Si Si1 0.000000 0.195657 0.756064
Si Si2 0.704542 0.203538 0.919057
Si Si3 0.378666 0.204565 0.797894
Si Si4 0.679862 0.697913 0.343550
Si Si5 0.500000 0.000000 0.629311
Si Si6 0.120083 0.500000 0.920773
O O1 0.057226 0.220504 0.707665
O O2 0.000000 0.328812 0.821470
O O3 0.000000 0.000000 0.786829
O O4 0.645578 0.252547 0.877741
O O5 0.757467 0.265110 0.868454
O O6 0.708661 0.000000 0.928023
O O7 0.705833 0.288633 0.000000
O O8 0.332516 0.286832 0.742044
O O9 0.380377 0.000000 0.783823
O O10 0.669953 0.500000 0.368708
O O11 0.634682 0.822783 0.380863
O O12 0.552209 0.000000 0.574568
O O13 0.148190 0.500000 0.000000
#
# Coordination Sequence:
#
# PCOD8292324 Si02
#       6
#     8  16  16  16   4   8
#     4  12  22  39  64  88 117 155 205 258 299 350
#     4   9  20  37  60  91 126 161 198 247 307 366
#     4  11  20  38  64  90 120 159 206 252 300 358
#     4  11  21  39  64  90 124 161 201 247 297 360
#     4  12  23  44  60  86 125 156 206 252 299 346
#     4  12  25  40  62  92 124 163 202 245 301 359
#
# _framework density 20.471126999999999
#
# number of rings (size 3 to 8) (size 9 to 14) (size 15 to 20)
#    0.000    1.176    4.706    2.294    0.000    1.412 
#    4.235    0.588    0.000    5.647    0.000    0.000 
#    0.000    0.000    0.000    0.000    0.000    0.000 
#
# Total GULP energy -421415.473566 kJ/mol
# GULP energy per Si atom -12394.572752 kJ/mol
# Density = 2.042453 g / cm^3
# Si number density = 20.471127 Si / 1000 Ang^3
#
#
#
# Elastic Constant Matrix: (Units=GPa)
#
#
# Indices 1 2 3 4 5 6 
#
# 1 117.2036 17.7884 60.9824 0.0000 0.0000 0.0000
# 2 17.7884 110.3153 20.0451 0.0000 0.0000 0.0000
# 3 60.9824 20.0451 124.2704 0.0000 0.0000 0.0000
# 4 0.0000 0.0000 0.0000 11.8696 0.0000 0.0000
# 5 0.0000 0.0000 0.0000 0.0000 18.2002 0.0000
# 6 0.0000 0.0000 0.0000 0.0000 0.0000 16.7381
#
#
#
# Elastic Compliance Matrix: (Units=1/GPa)
#
#
# Indices 1 2 3 4 5 6 
#
# 1 0.011536 -0.000857 -0.005523 0.000000 0.000000 0.000000
# 2 -0.000857 0.009402 -0.001096 0.000000 0.000000 0.000000
# 3 -0.005523 -0.001096 0.010934 0.000000 0.000000 0.000000
# 4 0.000000 0.000000 0.000000 0.084249 0.000000 0.000000
# 5 0.000000 0.000000 0.000000 0.000000 0.054944 0.000000
# 6 0.000000 0.000000 0.000000 0.000000 0.000000 0.059744
#
#
# Mechanical properties :
#
#
# Convention : Reuss Voigt Hill
#
# Bulk Modulus (GPa) = 59.09894 61.04681 60.07288
# Shear Modulus (GPa) = 19.88858 26.22647 23.05752
#
# Velocity S-wave (km/s) = 3.12034 3.58319 3.35975
# Velocity P-wave (km/s) = 6.47411 6.85600 6.66779
#
# Compressibility (1/GPa) = 0.01692078
#
# Stress axis : x y z
#
# Youngs Moduli (GPa) = 86.68765 106.35752 91.45878
#
# Poissons Ratio (x) = 0.09111 0.50509
# Poissons Ratio (y) = 0.07426 0.10026
# Poissons Ratio (z) = 0.47875 0.11659
#
# Static dielectric constant tensor:
#      x y z
#    x 3.886200 0.000000 0.000000 
#    y 0.000000 3.738480 0.000000 
#    z 0.000000 0.000000 3.799480 
# 
# 
# High freq. dielectric constant tensor:
#      x y z
#    x 1.803320 0.000000 0.000000 
#    y 0.000000 1.799480 0.000000 
#    z 0.000000 0.000000 1.787120 
# 
# From -- ./inp_files/47941.got.cif
#   From: 2010.06.25/outbox.cif.g09.slc.cpg/sg71_24_cif.got.tgz:47941.got - 2010.06.28 04:59:45.
