data_PCOD8292776
_publ_section_title
;
Structure prediction by ZEFSAII (Michael W. Deem and Ramdas Pophale) SiO2 
 PCOD8292776
Probable space group: I M M M
;
_chemical_formula_sum "Si O2"
_cell_formula_units_Z 88
_cell_length_a 22.210884
_cell_length_b 24.802665
_cell_length_c 9.353681
_cell_angle_alpha 90.000000
_cell_angle_beta 90.000000
_cell_angle_gamma 90.000000
_cell_volume 5152.841050
_symmetry_space_group_name_H-M "I M M M"
_symmetry_group_IT_number 71
_symmetry_cell_setting 'orthorhombic'
loop_
_space_group_symop_operation_xyz
x,y,z
-x,-y,z
x,-y,-z
-x,y,-z
-x,-y,-z
x,y,-z
-x,y,z
x,-y,z
1/2+x,1/2+y,1/2+z
1/2-x,1/2-y,1/2+z
1/2+x,1/2-y,1/2-z
1/2-x,1/2+y,1/2-z
1/2-x,1/2-y,1/2-z
1/2+x,1/2+y,1/2-z
1/2-x,1/2+y,1/2+z
1/2+x,1/2-y,1/2+z
loop_
_atom_site_type_symbol
_atom_site_label
_atom_site_fract_x
_atom_site_fract_y
_atom_site_fract_z
Si Si1 0.206287 0.355411 0.162813
Si Si2 0.430614 0.561653 0.331838
Si Si3 0.000000 0.564531 0.660448
Si Si4 0.656346 0.357188 0.834441
Si Si5 0.312072 0.758813 0.832593
Si Si6 0.891015 0.439449 0.161345
O O1 0.274531 0.366010 0.215368
O O2 0.165854 0.314238 0.259431
O O3 0.173355 0.411938 0.175996
O O4 0.208144 0.333335 0.000000
O O5 0.421572 0.568974 0.500000
O O6 0.500000 0.573227 0.289666
O O7 0.413811 0.500000 0.287620
O O8 0.388225 0.605047 0.254520
O O9 0.940968 0.587975 0.737896
O O10 0.000000 0.500000 0.671502
O O11 0.000000 0.586026 0.500000
O O12 0.643504 0.292798 0.809668
O O13 0.647756 0.372614 0.000000
O O14 0.250000 0.750000 0.750000
O O15 0.300385 0.767693 0.000000
O O16 0.879219 0.500000 0.211068
O O17 0.915701 0.436221 0.000000
#
# Coordination Sequence:
#
# PCOD8292776 Si02
#       6
#    16  16   8  16  16  16
#     4   9  18  31  48  73 101 127 159 199 242 290
#     4   9  19  35  52  71  97 129 165 203 243 290
#     4   9  17  29  45  65  89 119 157 197 232 271
#     4   9  18  31  49  74  99 124 157 197 241 288
#     4   9  17  30  48  70  96 125 158 193 234 283
#     4   9  17  30  48  68  93 127 162 195 235 285
#
# _framework density 17.077957999999999
#
# number of rings (size 3 to 8) (size 9 to 14) (size 15 to 20)
#    0.000    3.000    0.000    2.455    0.000    6.909 
#    0.000    2.727    2.000    2.182    0.000    0.000 
#    0.000    0.000    0.000    0.000    0.000    0.000 
#
# Total GULP energy -545113.611504 kJ/mol
# GULP energy per Si atom -12388.945716 kJ/mol
# Density = 1.703909 g / cm^3
# Si number density = 17.077958 Si / 1000 Ang^3
#
#
#
# Elastic Constant Matrix: (Units=GPa)
#
#
# Indices 1 2 3 4 5 6 
#
# 1 88.7260 58.2053 47.7982 0.0000 0.0000 0.0000
# 2 58.2053 97.2165 55.2763 0.0000 0.0000 0.0000
# 3 47.7982 55.2763 88.5040 0.0000 0.0000 0.0000
# 4 0.0000 0.0000 0.0000 30.4923 0.0000 0.0000
# 5 0.0000 0.0000 0.0000 0.0000 25.9272 0.0000
# 6 0.0000 0.0000 0.0000 0.0000 0.0000 23.3744
#
#
#
# Elastic Compliance Matrix: (Units=1/GPa)
#
#
# Indices 1 2 3 4 5 6 
#
# 1 0.019964 -0.009029 -0.005143 0.000000 0.000000 0.000000
# 2 -0.009029 0.020034 -0.007636 0.000000 0.000000 0.000000
# 3 -0.005143 -0.007636 0.018846 0.000000 0.000000 0.000000
# 4 0.000000 0.000000 0.000000 0.032795 0.000000 0.000000
# 5 0.000000 0.000000 0.000000 0.000000 0.038570 0.000000
# 6 0.000000 0.000000 0.000000 0.000000 0.000000 0.042782
#
#
# Mechanical properties :
#
#
# Convention : Reuss Voigt Hill
#
# Bulk Modulus (GPa) = 65.66901 66.33402 66.00151
# Shear Modulus (GPa) = 22.55475 23.50321 23.02898
#
# Velocity S-wave (km/s) = 3.63808 3.71378 3.67612
# Velocity P-wave (km/s) = 7.49556 7.57072 7.53323
#
# Compressibility (1/GPa) = 0.01522788
#
# Stress axis : x y z
#
# Youngs Moduli (GPa) = 50.08954 49.91540 53.06188
#
# Poissons Ratio (x) = 0.45067 0.27290
# Poissons Ratio (y) = 0.45224 0.40520
# Poissons Ratio (z) = 0.25762 0.38117
#
# Static dielectric constant tensor:
#      x y z
#    x 3.002510 0.000000 0.000000 
#    y 0.000000 3.869270 0.000000 
#    z 0.000000 0.000000 3.556360 
# 
# 
# High freq. dielectric constant tensor:
#      x y z
#    x 1.634730 0.000000 0.000000 
#    y 0.000000 1.655200 0.000000 
#    z 0.000000 0.000000 1.661570 
# 
# From -- ./inp_files/12546.got.cif
#   From: 2010.06.25/outbox.cif.g09.slc.cpg/sg71_7_cif.got.tgz:12546.got - 2010.06.28 04:59:45.
