data_PCOD8292802
_publ_section_title
;
Structure prediction by ZEFSAII (Michael W. Deem and Ramdas Pophale) SiO2 
 PCOD8292802
Probable space group: I M M M
;
_chemical_formula_sum "Si O2"
_cell_formula_units_Z 52
_cell_length_a 21.000000
_cell_length_b 30.000000
_cell_length_c 9.000000
_cell_angle_alpha 90.000000
_cell_angle_beta 90.000000
_cell_angle_gamma 90.000000
_cell_volume 5670.000000
_symmetry_space_group_name_H-M "I M M M"
_symmetry_group_IT_number 71
_symmetry_cell_setting 'orthorhombic'
loop_
_space_group_symop_operation_xyz
x,y,z
-x,-y,z
x,-y,-z
-x,y,-z
-x,-y,-z
x,y,-z
-x,y,z
x,-y,z
1/2+x,1/2+y,1/2+z
1/2-x,1/2-y,1/2+z
1/2+x,1/2-y,1/2-z
1/2-x,1/2+y,1/2-z
1/2-x,1/2-y,1/2-z
1/2+x,1/2+y,1/2-z
1/2-x,1/2+y,1/2+z
1/2+x,1/2-y,1/2+z
loop_
_atom_site_type_symbol
_atom_site_label
_atom_site_fract_x
_atom_site_fract_y
_atom_site_fract_z
Si Si1 0.134213 0.426545 0.167693
Si Si2 0.500000 0.947494 0.667626
Si Si3 0.812495 0.328525 0.167146
Si Si4 0.929321 0.731412 0.827418
Si Si5 0.571189 0.675592 0.172262
Si Si6 0.752216 0.047856 0.170393
Si Si7 0.192782 0.139330 0.824361
O O1 0.158736 0.376968 0.172591
O O2 0.184005 0.457298 0.252573
O O3 0.064540 0.429461 0.245522
O O4 0.128974 0.444937 0.000000
O O5 0.500000 0.928659 0.500000
O O6 0.500000 0.000000 0.673789
O O7 0.870107 0.298266 0.229146
O O8 0.747394 0.326672 0.263760
O O9 0.793974 0.314429 0.000000
O O10 0.926560 0.773987 0.724445
O O11 0.000000 0.708697 0.808403
O O12 0.919538 0.744360 0.000000
O O13 0.500000 0.656029 0.200772
O O14 0.622772 0.648040 0.263415
O O15 0.589088 0.673363 0.000000
O O16 0.793304 0.088956 0.233044
O O17 0.787861 0.000000 0.192284
O O18 0.738339 0.058095 0.000000
O O19 0.191690 0.144425 0.000000
#
# Coordination Sequence:
#
# PCOD8292802 Si02
#       7
#    16   8  16  16  16  16  16
#     4   9  17  28  44  66  94 128 167 208 249 291
#     4   9  16  24  37  61  91 123 163 209 251 289
#     4   9  18  31  48  72 101 133 169 211 253 290
#     4   9  18  32  51  74 101 135 175 211 247 293
#     4  10  21  37  56  77 101 128 159 198 247 299
#     4   9  18  33  51  71  97 127 160 200 244 290
#     4  10  20  34  54  77 101 130 165 203 245 295
#
# _framework density 9.1710759999999993
#
# number of rings (size 3 to 8) (size 9 to 14) (size 15 to 20)
#    0.000    2.692    0.000    1.385    1.077    3.692 
#    0.000    0.385    0.000    1.846    0.000    3.231 
#    0.000    0.000    0.000    0.000    0.000    0.000 
#
# Total GULP energy -644271.160127 kJ/mol
# GULP energy per Si atom -12389.830002 kJ/mol
# Density = 0.915020 g / cm^3
# Si number density = 9.171076 Si / 1000 Ang^3
#
#
#
# Elastic Constant Matrix: (Units=GPa)
#
#
# Indices 1 2 3 4 5 6 
#
# 1 148.6671 49.6702 51.5048 0.0000 0.0000 0.0000
# 2 49.6702 48.8086 25.2172 0.0000 0.0000 0.0000
# 3 51.5048 25.2172 53.2335 0.0000 0.0000 0.0000
# 4 0.0000 0.0000 0.0000 16.2177 0.0000 0.0000
# 5 0.0000 0.0000 0.0000 0.0000 19.4294 0.0000
# 6 0.0000 0.0000 0.0000 0.0000 0.0000 13.1670
#
#
#
# Elastic Compliance Matrix: (Units=1/GPa)
#
#
# Indices 1 2 3 4 5 6 
#
# 1 0.012269 -0.008411 -0.007886 0.000000 0.000000 0.000000
# 2 -0.008411 0.032894 -0.007444 0.000000 0.000000 0.000000
# 3 -0.007886 -0.007444 0.029941 0.000000 0.000000 0.000000
# 4 0.000000 0.000000 0.000000 0.061661 0.000000 0.000000
# 5 0.000000 0.000000 0.000000 0.000000 0.051468 0.000000
# 6 0.000000 0.000000 0.000000 0.000000 0.000000 0.075948
#
#
# Mechanical properties :
#
#
# Convention : Reuss Voigt Hill
#
# Bulk Modulus (GPa) = 36.20361 55.94374 46.07368
# Shear Modulus (GPa) = 15.58265 18.05062 16.81664
#
# Velocity S-wave (km/s) = 2.91787 3.14045 3.03121
# Velocity P-wave (km/s) = 5.57967 6.61182 6.11756
#
# Compressibility (1/GPa) = 0.02762155
#
# Stress axis : x y z
#
# Youngs Moduli (GPa) = 81.50934 30.40101 33.39867
#
# Poissons Ratio (x) = 0.25570 0.26338
# Poissons Ratio (y) = 0.68556 0.24863
# Poissons Ratio (z) = 0.64277 0.22631
#
# Static dielectric constant tensor:
#      x y z
#    x 3.734980 0.000000 0.000000 
#    y 0.000000 3.272060 0.000000 
#    z 0.000000 0.000000 3.355510 
# 
# 
# High freq. dielectric constant tensor:
#      x y z
#    x 1.715530 0.000000 0.000000 
#    y 0.000000 1.691740 0.000000 
#    z 0.000000 0.000000 1.694050 
# 
# From -- ./inp_files/11458.got.cif
#   From: 2010.06.25/outbox.ucp.g09.slc.cvg/sg71_6_cif.got.tgz:11458.got - 2010.06.28 16:23:14.
