data_PCOD8292534
_publ_section_title
;
Structure prediction by ZEFSAII (Michael W. Deem and Ramdas Pophale) SiO2 
 PCOD8292534
Probable space group: I M M M
;
_chemical_formula_sum "Si O2"
_cell_formula_units_Z 56
_cell_length_a 9.339252
_cell_length_b 17.252120
_cell_length_c 17.557518
_cell_angle_alpha 90.000000
_cell_angle_beta 90.000000
_cell_angle_gamma 90.000000
_cell_volume 2828.900593
_symmetry_space_group_name_H-M "I M M M"
_symmetry_group_IT_number 71
_symmetry_cell_setting 'orthorhombic'
loop_
_space_group_symop_operation_xyz
x,y,z
-x,-y,z
x,-y,-z
-x,y,-z
-x,-y,-z
x,y,-z
-x,y,z
x,-y,z
1/2+x,1/2+y,1/2+z
1/2-x,1/2-y,1/2+z
1/2+x,1/2-y,1/2-z
1/2-x,1/2+y,1/2-z
1/2-x,1/2-y,1/2-z
1/2+x,1/2+y,1/2-z
1/2-x,1/2+y,1/2+z
1/2+x,1/2-y,1/2+z
loop_
_atom_site_type_symbol
_atom_site_label
_atom_site_fract_x
_atom_site_fract_y
_atom_site_fract_z
Si Si1 0.656731 0.590834 0.136478
Si Si2 0.841648 0.407127 0.000000
Si Si3 0.665867 0.089200 0.911572
Si Si4 0.668743 0.323340 0.715788
O O1 0.500000 0.625638 0.118025
O O2 0.655612 0.500000 0.125692
O O3 0.698384 0.609214 0.222867
O O4 0.765932 0.627026 0.075390
O O5 0.842218 0.500000 0.000000
O O6 0.000000 0.372841 0.000000
O O7 0.500000 0.103349 0.890937
O O8 0.763576 0.147933 0.863286
O O9 0.707473 0.000000 0.894003
O O10 0.693962 0.107571 0.000000
O O11 0.500000 0.306116 0.704177
O O12 0.750000 0.250000 0.750000
#
# Coordination Sequence:
#
# PCOD8292534 Si02
#       4
#    16   8  16  16
#     4   9  18  34  55  77 104 141 183 225 272 329
#     4   9  17  29  49  79 107 131 168 217 264 313
#     4   9  19  38  64  91 118 151 193 242 296 352
#     4  11  23  38  56  82 116 153 193 236 289 347
#
# _framework density 19.795677000000001
#
# number of rings (size 3 to 8) (size 9 to 14) (size 15 to 20)
#    0.000    2.429    0.000    3.000    0.000    6.286 
#    2.571    4.286    0.000    0.000    0.000    0.000 
#    0.000    0.000    0.000    0.000    0.000    0.000 
#
# Total GULP energy -347093.565983 kJ/mol
# GULP energy per Si atom -12396.198785 kJ/mol
# Density = 1.975062 g / cm^3
# Si number density = 19.795677 Si / 1000 Ang^3
#
#
#
# Elastic Constant Matrix: (Units=GPa)
#
#
# Indices 1 2 3 4 5 6 
#
# 1 144.4294 48.5534 84.8406 0.0000 0.0000 0.0000
# 2 48.5534 52.8857 39.3415 0.0000 0.0000 0.0000
# 3 84.8406 39.3415 129.2858 0.0000 0.0000 0.0000
# 4 0.0000 0.0000 0.0000 27.9223 0.0000 0.0000
# 5 0.0000 0.0000 0.0000 0.0000 39.5037 0.0000
# 6 0.0000 0.0000 0.0000 0.0000 0.0000 27.7964
#
#
#
# Elastic Compliance Matrix: (Units=1/GPa)
#
#
# Indices 1 2 3 4 5 6 
#
# 1 0.013137 -0.007301 -0.006399 0.000000 0.000000 0.000000
# 2 -0.007301 0.028498 -0.003881 0.000000 0.000000 0.000000
# 3 -0.006399 -0.003881 0.013115 0.000000 0.000000 0.000000
# 4 0.000000 0.000000 0.000000 0.035814 0.000000 0.000000
# 5 0.000000 0.000000 0.000000 0.000000 0.025314 0.000000
# 6 0.000000 0.000000 0.000000 0.000000 0.000000 0.035976
#
#
# Mechanical properties :
#
#
# Convention : Reuss Voigt Hill
#
# Bulk Modulus (GPa) = 51.05015 74.67464 62.86239
# Shear Modulus (GPa) = 25.83358 29.30215 27.56787
#
# Velocity S-wave (km/s) = 3.61641 3.85155 3.73583
# Velocity P-wave (km/s) = 6.57894 7.58840 7.10163
#
# Compressibility (1/GPa) = 0.01958858
#
# Stress axis : x y z
#
# Youngs Moduli (GPa) = 76.11984 35.08966 76.24671
#
# Poissons Ratio (x) = 0.25617 0.48793
# Poissons Ratio (y) = 0.55571 0.29593
# Poissons Ratio (z) = 0.48712 0.13619
#
# Static dielectric constant tensor:
#      x y z
#    x 3.821410 0.000000 0.000000 
#    y 0.000000 3.308030 0.000000 
#    z 0.000000 0.000000 3.879600 
# 
# 
# High freq. dielectric constant tensor:
#      x y z
#    x 1.777130 0.000000 0.000000 
#    y 0.000000 1.743630 0.000000 
#    z 0.000000 0.000000 1.782090 
# 
# From -- ./inp_files/7211.got.cif
#   From: 2010.06.25/outbox.cif.g09.slc.cpg/sg71_4_cif.got.tgz:7211.got - 2010.06.28 04:59:45.
