data_PCOD8292503
_publ_section_title
;
Structure prediction by ZEFSAII (Michael W. Deem and Ramdas Pophale) SiO2 
 PCOD8292503
Probable space group: I M M M
;
_chemical_formula_sum "Si O2"
_cell_formula_units_Z 52
_cell_length_a 14.363365
_cell_length_b 23.378742
_cell_length_c 7.575880
_cell_angle_alpha 90.000000
_cell_angle_beta 90.000000
_cell_angle_gamma 90.000000
_cell_volume 2543.960841
_symmetry_space_group_name_H-M "I M M M"
_symmetry_group_IT_number 71
_symmetry_cell_setting 'orthorhombic'
loop_
_space_group_symop_operation_xyz
x,y,z
-x,-y,z
x,-y,-z
-x,y,-z
-x,-y,-z
x,y,-z
-x,y,z
x,-y,z
1/2+x,1/2+y,1/2+z
1/2-x,1/2-y,1/2+z
1/2+x,1/2-y,1/2-z
1/2-x,1/2+y,1/2-z
1/2-x,1/2-y,1/2-z
1/2+x,1/2+y,1/2-z
1/2-x,1/2+y,1/2+z
1/2+x,1/2-y,1/2+z
loop_
_atom_site_type_symbol
_atom_site_label
_atom_site_fract_x
_atom_site_fract_y
_atom_site_fract_z
Si Si1 0.108426 0.873187 0.000000
Si Si2 0.896037 0.380997 0.296870
Si Si3 0.820892 0.000000 0.000000
Si Si4 0.224934 0.186352 0.304337
Si Si5 0.829504 0.500000 0.200144
O O1 0.154394 0.845178 0.826968
O O2 0.118220 0.942065 0.000000
O O3 0.000000 0.857481 0.000000
O O4 0.865170 0.375756 0.500000
O O5 0.823204 0.345984 0.182273
O O6 0.895208 0.446464 0.238040
O O7 0.000000 0.356726 0.266937
O O8 0.760541 0.000000 0.823288
O O9 0.179815 0.185879 0.500000
O O10 0.250000 0.250000 0.250000
O O11 0.792543 0.500000 0.000000
#
# Coordination Sequence:
#
# PCOD8292503 Si02
#       5
#     8  16   4  16   8
#     4  12  27  48  72 104 138 185 237 292 346 402
#     4  11  22  39  64  97 134 172 217 272 340 412
#     4  12  23  46  69  96 136 184 239 292 343 404
#     4  12  24  45  72  98 138 180 226 282 344 414
#     4  12  21  36  64  94 131 176 217 274 342 401
#
# _framework density 20.440567000000001
#
# number of rings (size 3 to 8) (size 9 to 14) (size 15 to 20)
#    0.000    0.308    7.692    1.615    0.000    6.154 
#    0.000    0.000    0.000    2.769    0.000    0.000 
#    0.000    0.000    0.000    0.000    0.000    0.000 
#
# Total GULP energy -322449.756581 kJ/mol
# GULP energy per Si atom -12401.913715 kJ/mol
# Density = 2.039404 g / cm^3
# Si number density = 20.440567 Si / 1000 Ang^3
#
#
#
# Elastic Constant Matrix: (Units=GPa)
#
#
# Indices 1 2 3 4 5 6 
#
# 1 120.0653 48.6345 53.5281 0.0006 -0.0001 0.0001
# 2 48.6345 134.8415 27.6296 -0.0001 -0.0004 0.0000
# 3 53.5281 27.6296 160.9377 -0.0069 -0.0015 0.0039
# 4 0.0006 -0.0001 -0.0069 27.6806 -0.0004 0.0004
# 5 -0.0001 -0.0004 -0.0015 -0.0004 15.7304 0.0005
# 6 0.0001 0.0000 0.0039 0.0004 0.0005 18.5765
#
#
#
# Elastic Compliance Matrix: (Units=1/GPa)
#
#
# Indices 1 2 3 4 5 6 
#
# 1 0.011074 -0.003358 -0.003107 -0.000001 0.000000 0.000001
# 2 -0.003358 0.008704 -0.000378 0.000000 0.000000 0.000000
# 3 -0.003107 -0.000378 0.007312 0.000002 0.000001 -0.000002
# 4 -0.000001 0.000000 0.000002 0.036126 0.000001 -0.000001
# 5 0.000000 0.000000 0.000001 0.000001 0.063571 -0.000002
# 6 0.000001 0.000000 -0.000002 -0.000001 -0.000002 0.053831
#
#
# Mechanical properties :
#
#
# Convention : Reuss Voigt Hill
#
# Bulk Modulus (GPa) = 74.59236 75.04765 74.82001
# Shear Modulus (GPa) = 25.15446 31.46766 28.31106
#
# Velocity S-wave (km/s) = 3.51182 3.92787 3.72565
# Velocity P-wave (km/s) = 7.28116 7.57401 7.42903
#
# Compressibility (1/GPa) = 0.01340620
#
# Stress axis : x y z
#
# Youngs Moduli (GPa) = 90.30240 114.88330 136.76636
#
# Poissons Ratio (x) = 0.38572 0.42490
# Poissons Ratio (y) = 0.30319 0.05165
# Poissons Ratio (z) = 0.28055 0.04339
#
# Static dielectric constant tensor:
#      x y z
#    x 3.519490 0.000000 0.000000 
#    y 0.000000 3.787160 0.000010 
#    z 0.000000 0.000010 3.944400 
# 
# 
# High freq. dielectric constant tensor:
#      x y z
#    x 1.783460 0.000000 0.000000 
#    y 0.000000 1.810250 0.000000 
#    z 0.000000 0.000000 1.815320 
# 
# From -- ./inp_files/5259.got.cif
#   From: 2010.06.25/outbox.cif.g09.slc.cpg/sg71_3_cif.got.tgz:5259.got - 2010.06.28 04:59:45.
