data_PCOD8292462
_publ_section_title
;
Structure prediction by ZEFSAII (Michael W. Deem and Ramdas Pophale) SiO2 
 PCOD8292462
Probable space group: I M M M
;
_chemical_formula_sum "Si O2"
_cell_formula_units_Z 104
_cell_length_a 27.073415
_cell_length_b 22.053472
_cell_length_c 8.946329
_cell_angle_alpha 90.000000
_cell_angle_beta 90.000000
_cell_angle_gamma 90.000000
_cell_volume 5341.520239
_symmetry_space_group_name_H-M "I M M M"
_symmetry_group_IT_number 71
_symmetry_cell_setting 'orthorhombic'
loop_
_space_group_symop_operation_xyz
x,y,z
-x,-y,z
x,-y,-z
-x,y,-z
-x,-y,-z
x,y,-z
-x,y,z
x,-y,z
1/2+x,1/2+y,1/2+z
1/2-x,1/2-y,1/2+z
1/2+x,1/2-y,1/2-z
1/2-x,1/2+y,1/2-z
1/2-x,1/2-y,1/2-z
1/2+x,1/2+y,1/2-z
1/2-x,1/2+y,1/2+z
1/2+x,1/2-y,1/2+z
loop_
_atom_site_type_symbol
_atom_site_label
_atom_site_fract_x
_atom_site_fract_y
_atom_site_fract_z
Si Si1 0.057554 0.934088 0.663292
Si Si2 0.200800 0.068874 0.176866
Si Si3 0.442583 0.000000 0.834296
Si Si4 0.443105 0.761592 0.176601
Si Si5 0.614679 0.343556 0.327295
Si Si6 0.594885 0.117919 0.324904
Si Si7 0.198965 0.430966 0.828715
O O1 0.074525 0.907915 0.500000
O O2 0.070788 0.891050 0.800751
O O3 0.000000 0.941900 0.662174
O O4 0.082195 0.000000 0.688713
O O5 0.163041 0.120794 0.236903
O O6 0.255130 0.089265 0.227494
O O7 0.189346 0.000000 0.236502
O O8 0.197838 0.068590 0.000000
O O9 0.428826 0.057775 0.738070
O O10 0.500000 0.000000 0.860691
O O11 0.417054 0.000000 0.000000
O O12 0.500000 0.743904 0.221422
O O13 0.400891 0.716690 0.239301
O O14 0.430277 0.826948 0.240067
O O15 0.438230 0.763059 0.000000
O O16 0.620330 0.326389 0.500000
O O17 0.583370 0.123373 0.500000
O O18 0.653879 0.114708 0.295817
O O19 0.182272 0.500000 0.790932
O O20 0.215884 0.426444 0.000000
#
# Coordination Sequence:
#
# PCOD8292462 Si02
#       7
#    16  16   8  16  16  16  16
#     4   9  18  32  50  74 105 141 183 232 287 346
#     4   9  19  35  56  85 118 150 188 237 290 341
#     4  11  23  37  57  89 125 157 191 231 280 343
#     4  11  25  43  60  81 113 153 198 242 286 347
#     4  11  22  36  55  80 111 148 193 241 289 341
#     4  11  22  39  62  89 119 150 190 239 290 341
#     4   9  18  35  58  87 119 148 183 230 285 343
#
# _framework density 19.470112
#
# number of rings (size 3 to 8) (size 9 to 14) (size 15 to 20)
#    0.000    1.923    0.769    3.462    0.000    9.231 
#    0.000    3.077    0.000    0.000    0.000    0.000 
#    0.000    0.000    0.000    0.000    0.000    0.000 
#
# Total GULP energy -644431.247447 kJ/mol
# GULP energy per Si atom -12392.908605 kJ/mol
# Density = 1.942580 g / cm^3
# Si number density = 19.470112 Si / 1000 Ang^3
#
#
#
# Elastic Constant Matrix: (Units=GPa)
#
#
# Indices 1 2 3 4 5 6 
#
# 1 88.0488 43.5129 35.7554 0.0000 0.0000 0.0000
# 2 43.5129 100.7130 34.6523 0.0000 0.0000 0.0000
# 3 35.7554 34.6523 54.7428 0.0000 0.0000 0.0000
# 4 0.0000 0.0000 0.0000 33.2028 0.0000 0.0000
# 5 0.0000 0.0000 0.0000 0.0000 33.6499 0.0000
# 6 0.0000 0.0000 0.0000 0.0000 0.0000 60.3741
#
#
#
# Elastic Compliance Matrix: (Units=1/GPa)
#
#
# Indices 1 2 3 4 5 6 
#
# 1 0.016903 -0.004480 -0.008204 0.000000 0.000000 0.000000
# 2 -0.004480 0.013881 -0.005861 0.000000 0.000000 0.000000
# 3 -0.008204 -0.005861 0.027336 0.000000 0.000000 0.000000
# 4 0.000000 0.000000 0.000000 0.030118 0.000000 0.000000
# 5 0.000000 0.000000 0.000000 0.000000 0.029718 0.000000
# 6 0.000000 0.000000 0.000000 0.000000 0.000000 0.016563
#
#
# Mechanical properties :
#
#
# Convention : Reuss Voigt Hill
#
# Bulk Modulus (GPa) = 47.55153 52.37176 49.96164
# Shear Modulus (GPa) = 27.99246 34.08429 31.03838
#
# Velocity S-wave (km/s) = 3.79583 4.18855 3.99702
# Velocity P-wave (km/s) = 6.60961 7.09569 6.85696
#
# Compressibility (1/GPa) = 0.02102982
#
# Stress axis : x y z
#
# Youngs Moduli (GPa) = 59.16102 72.03934 36.58202
#
# Poissons Ratio (x) = 0.32274 0.30013
# Poissons Ratio (y) = 0.26504 0.21440
# Poissons Ratio (z) = 0.48538 0.42220
#
# Static dielectric constant tensor:
#      x y z
#    x 3.638010 0.000000 0.000000 
#    y 0.000000 3.472720 0.000000 
#    z 0.000000 0.000000 3.685170 
# 
# 
# High freq. dielectric constant tensor:
#      x y z
#    x 1.756430 0.000000 0.000000 
#    y 0.000000 1.749920 0.000000 
#    z 0.000000 0.000000 1.760130 
# 
# From -- ./inp_files/15030.got.cif
#   From: 2010.06.25/outbox.cif.g09.slc.cpg/sg71_8_cif.got.tgz:15030.got - 2010.06.28 04:59:45.
