data_PCOD8292892
_publ_section_title
;
Structure prediction by ZEFSAII (Michael W. Deem and Ramdas Pophale) SiO2 
 PCOD8292892
Probable space group: I B A M
;
_chemical_formula_sum "Si O2"
_cell_formula_units_Z 96
_cell_length_a 11.100251
_cell_length_b 20.268259
_cell_length_c 24.033339
_cell_angle_alpha 90.000000
_cell_angle_beta 90.000000
_cell_angle_gamma 90.000000
_cell_volume 5407.086994
_symmetry_space_group_name_H-M "I B A M"
_symmetry_group_IT_number 72
_symmetry_cell_setting 'orthorhombic'
loop_
_space_group_symop_operation_xyz
x,y,z
-x,-y,z
x,-y,1/2-z
-x,y,1/2-z
-x,-y,-z
x,y,-z
-x,y,1/2+z
x,-y,1/2+z
1/2+x,1/2+y,1/2+z
1/2-x,1/2-y,1/2+z
1/2+x,1/2-y,-z
1/2-x,1/2+y,-z
1/2-x,1/2-y,1/2-z
1/2+x,1/2+y,1/2-z
1/2-x,1/2+y,z
1/2+x,1/2-y,z
loop_
_atom_site_type_symbol
_atom_site_label
_atom_site_fract_x
_atom_site_fract_y
_atom_site_fract_z
Si Si1 0.021215 0.700516 0.500000
Si Si2 0.248112 0.161349 0.809712
Si Si3 0.884268 0.167456 0.115807
Si Si4 0.467207 0.423830 0.310656
Si Si5 0.540162 0.188114 0.616262
Si Si6 0.197764 0.805586 0.000000
Si Si7 0.833237 0.303858 0.694681
O O1 0.163797 0.724541 0.500000
O O2 0.998703 0.657851 0.443785
O O3 0.911304 0.753247 0.500000
O O4 0.174790 0.093019 0.815668
O O5 0.327117 0.165229 0.865906
O O6 0.157453 0.223913 0.803461
O O7 0.334698 0.163393 0.755745
O O8 0.966064 0.232603 0.110072
O O9 0.820284 0.151178 0.056363
O O10 0.788536 0.177305 0.164159
O O11 0.967075 0.107818 0.136222
O O12 0.500000 0.500000 0.312816
O O13 0.500000 0.394207 0.250000
O O14 0.445956 0.165055 0.662719
#
# Coordination Sequence:
#
# PCOD8292892 Si02
#       7
#     8  16  16  16  16   8  16
#     4  10  20  32  50  83 116 156 174 219 289 342
#     4  10  20  30  51  81 110 141 177 219 282 321
#     4  10  19  32  51  78 108 145 178 220 272 327
#     4  11  22  37  55  77 108 144 186 228 270 331
#     4  10  19  30  51  81 115 138 176 222 276 337
#     4  10  20  32  53  77 117 148 187 225 276 340
#     4  10  17  29  51  79 115 136 167 223 267 337
#
# _framework density 17.754476
#
# number of rings (size 3 to 8) (size 9 to 14) (size 15 to 20)
#    0.000    1.833    5.000    0.500    0.000    0.000 
#    0.000    0.417    0.000    1.000    0.000    1.167 
#    0.000    0.000    0.000    0.000    0.000    0.000 
#
# Total GULP energy -594656.184713 kJ/mol
# GULP energy per Si atom -12388.670515 kJ/mol
# Density = 1.771407 g / cm^3
# Si number density = 17.754476 Si / 1000 Ang^3
#
#
#
# Elastic Constant Matrix: (Units=GPa)
#
#
# Indices 1 2 3 4 5 6 
#
# 1 101.0949 32.1009 49.9272 0.0000 0.0000 0.0000
# 2 32.1009 51.5732 28.5455 0.0000 0.0000 0.0000
# 3 49.9272 28.5455 134.8821 0.0000 0.0000 0.0000
# 4 0.0000 0.0000 0.0000 12.0063 0.0000 0.0000
# 5 0.0000 0.0000 0.0000 0.0000 33.4042 0.0000
# 6 0.0000 0.0000 0.0000 0.0000 0.0000 19.9239
#
#
#
# Elastic Compliance Matrix: (Units=1/GPa)
#
#
# Indices 1 2 3 4 5 6 
#
# 1 0.013807 -0.006530 -0.003729 0.000000 0.000000 0.000000
# 2 -0.006530 0.025051 -0.002885 0.000000 0.000000 0.000000
# 3 -0.003729 -0.002885 0.009405 0.000000 0.000000 0.000000
# 4 0.000000 0.000000 0.000000 0.083290 0.000000 0.000000
# 5 0.000000 0.000000 0.000000 0.000000 0.029936 0.000000
# 6 0.000000 0.000000 0.000000 0.000000 0.000000 0.050191
#
#
# Mechanical properties :
#
#
# Convention : Reuss Voigt Hill
#
# Bulk Modulus (GPa) = 45.50437 56.52191 51.01314
# Shear Modulus (GPa) = 20.38399 24.86532 22.62466
#
# Velocity S-wave (km/s) = 3.39205 3.74640 3.57362
# Velocity P-wave (km/s) = 6.40521 7.11466 6.76924
#
# Compressibility (1/GPa) = 0.02197591
#
# Stress axis : x y z
#
# Youngs Moduli (GPa) = 72.42923 39.91868 106.33196
#
# Poissons Ratio (x) = 0.26067 0.39647
# Poissons Ratio (y) = 0.47296 0.30672
# Poissons Ratio (z) = 0.27006 0.11515
#
# Static dielectric constant tensor:
#      x y z
#    x 3.306720 0.000000 0.000000 
#    y 0.000000 2.677000 0.000000 
#    z 0.000000 0.000000 3.910160 
# 
# 
# High freq. dielectric constant tensor:
#      x y z
#    x 1.697160 0.000000 0.000000 
#    y 0.000000 1.602460 0.000000 
#    z 0.000000 0.000000 1.711740 
# 
# From -- ./inp_files/37155.got.cif
#   From: 2010.03.12/outbox.cif.g09.slc.cpg/sg72_19_cif.got.tgz:37155.got - 2010.04.16 14:54:00.
