data_PCOD8292682
_publ_section_title
;
Structure prediction by ZEFSAII (Michael W. Deem and Ramdas Pophale) SiO2 
 PCOD8292682
Probable space group: I M M M
;
_chemical_formula_sum "Si O2"
_cell_formula_units_Z 120
_cell_length_a 9.391766
_cell_length_b 29.613383
_cell_length_c 28.236739
_cell_angle_alpha 90.000000
_cell_angle_beta 90.000000
_cell_angle_gamma 90.000000
_cell_volume 7853.257296
_symmetry_space_group_name_H-M "I M M M"
_symmetry_group_IT_number 71
_symmetry_cell_setting 'orthorhombic'
loop_
_space_group_symop_operation_xyz
x,y,z
-x,-y,z
x,-y,-z
-x,y,-z
-x,-y,-z
x,y,-z
-x,y,z
x,-y,z
1/2+x,1/2+y,1/2+z
1/2-x,1/2-y,1/2+z
1/2+x,1/2-y,1/2-z
1/2-x,1/2+y,1/2-z
1/2-x,1/2-y,1/2-z
1/2+x,1/2+y,1/2-z
1/2-x,1/2+y,1/2+z
1/2+x,1/2-y,1/2+z
loop_
_atom_site_type_symbol
_atom_site_label
_atom_site_fract_x
_atom_site_fract_y
_atom_site_fract_z
Si Si1 0.666305 0.447533 0.365293
Si Si2 0.833742 0.947317 0.683312
Si Si3 0.665666 0.699020 0.944871
Si Si4 0.670168 0.449212 0.000000
Si Si5 0.168935 0.103690 0.590233
Si Si6 0.830585 0.882248 0.052550
Si Si7 0.339105 0.946409 0.225563
Si Si8 0.342181 0.716783 0.443746
O O1 0.500000 0.438825 0.355093
O O2 0.695893 0.500000 0.375385
O O3 0.722137 0.420266 0.411022
O O4 0.755091 0.429199 0.320624
O O5 0.776979 0.918035 0.639117
O O6 0.744426 0.929597 0.728080
O O7 0.000000 0.938928 0.693695
O O8 0.805894 0.000000 0.672443
O O9 0.500000 0.707660 0.937706
O O10 0.718292 0.655690 0.914826
O O11 0.743780 0.743109 0.924019
O O12 0.701030 0.690208 0.000000
O O13 0.732137 0.424699 0.046465
O O14 0.727660 0.500000 0.000000
O O15 0.500000 0.447782 0.000000
O O16 0.000000 0.100753 0.587972
O O17 0.779556 0.832556 0.070289
O O18 0.000000 0.881458 0.049691
O O19 0.769208 0.893257 0.000000
O O20 0.500000 0.927094 0.225540
O O21 0.340556 0.000000 0.225259
O O22 0.348459 0.719097 0.500000
O O23 0.500000 0.723496 0.422356
#
# Coordination Sequence:
#
# PCOD8292682 Si02
#       8
#    16  16  16   8  16  16  16  16
#     4   9  16  26  43  66  88 110 137 166 195 232
#     4   9  16  26  41  60  80 103 136 175 208 241
#     4   9  15  24  38  56  80 107 135 169 207 243
#     4   9  14  20  32  52  81 113 139 161 196 251
#     4   9  15  23  35  56  83 108 133 167 210 248
#     4   8  14  25  41  63  90 115 137 163 195 232
#     4   9  17  29  43  58  79 108 139 171 207 241
#     4   8  14  25  40  56  77 107 140 169 196 229
#
# _framework density 15.280284
#
# number of rings (size 3 to 8) (size 9 to 14) (size 15 to 20)
#    0.000    3.267    0.667    1.600    0.000    3.467 
#    0.000    2.667    0.000    1.200    0.000    2.800 
#    0.000    3.200    0.000    0.000    0.000    0.000 
#
# Total GULP energy -743667.559901 kJ/mol
# GULP energy per Si atom -12394.459332 kJ/mol
# Density = 1.524551 g / cm^3
# Si number density = 15.280284 Si / 1000 Ang^3
#
#
#
# Elastic Constant Matrix: (Units=GPa)
#
#
# Indices 1 2 3 4 5 6 
#
# 1 46.7608 34.3680 40.3377 0.0000 0.0000 0.0000
# 2 34.3680 99.2111 64.8508 0.0000 0.0000 0.0000
# 3 40.3377 64.8508 116.1679 0.0000 0.0000 0.0000
# 4 0.0000 0.0000 0.0000 10.3715 0.0000 0.0000
# 5 0.0000 0.0000 0.0000 0.0000 9.7576 0.0000
# 6 0.0000 0.0000 0.0000 0.0000 0.0000 17.6468
#
#
#
# Elastic Compliance Matrix: (Units=1/GPa)
#
#
# Indices 1 2 3 4 5 6 
#
# 1 0.032759 -0.006161 -0.007936 0.000000 0.000000 0.000000
# 2 -0.006161 0.017030 -0.007368 0.000000 0.000000 0.000000
# 3 -0.007936 -0.007368 0.015477 0.000000 0.000000 0.000000
# 4 0.000000 0.000000 0.000000 0.096418 0.000000 0.000000
# 5 0.000000 0.000000 0.000000 0.000000 0.102484 0.000000
# 6 0.000000 0.000000 0.000000 0.000000 0.000000 0.056668
#
#
# Mechanical properties :
#
#
# Convention : Reuss Voigt Hill
#
# Bulk Modulus (GPa) = 44.76843 60.13920 52.45382
# Shear Modulus (GPa) = 13.46946 15.72739 14.59842
#
# Velocity S-wave (km/s) = 2.97222 3.21169 3.09427
# Velocity P-wave (km/s) = 6.41409 7.29356 6.86792
#
# Compressibility (1/GPa) = 0.02233717
#
# Stress axis : x y z
#
# Youngs Moduli (GPa) = 30.52563 58.72135 64.61279
#
# Poissons Ratio (x) = 0.36177 0.51276
# Poissons Ratio (y) = 0.18806 0.47604
# Poissons Ratio (z) = 0.24225 0.43263
#
# Static dielectric constant tensor:
#      x y z
#    x 2.752190 0.000000 0.000000 
#    y 0.000000 3.018280 0.000000 
#    z 0.000000 0.000000 2.939390 
# 
# 
# High freq. dielectric constant tensor:
#      x y z
#    x 1.554190 0.000000 0.000000 
#    y 0.000000 1.573770 0.000000 
#    z 0.000000 0.000000 1.566540 
# 
# From -- ./inp_files/59354.got.cif
#   From: 2010.06.25/outbox.cif.g09.slc.cpg/sg71_30_cif.got.tgz:59354.got - 2010.06.28 04:59:45.
