data_PCOD8292373
_publ_section_title
;
Structure prediction by ZEFSAII (Michael W. Deem and Ramdas Pophale) SiO2 
 PCOD8292373
Probable space group: I M M M
;
_chemical_formula_sum "Si O2"
_cell_formula_units_Z 72
_cell_length_a 30.781710
_cell_length_b 8.590789
_cell_length_c 14.531574
_cell_angle_alpha 90.000000
_cell_angle_beta 90.000000
_cell_angle_gamma 90.000000
_cell_volume 3842.717450
_symmetry_space_group_name_H-M "I M M M"
_symmetry_group_IT_number 71
_symmetry_cell_setting 'orthorhombic'
loop_
_space_group_symop_operation_xyz
x,y,z
-x,-y,z
x,-y,-z
-x,y,-z
-x,-y,-z
x,y,-z
-x,y,z
x,-y,z
1/2+x,1/2+y,1/2+z
1/2-x,1/2-y,1/2+z
1/2+x,1/2-y,1/2-z
1/2-x,1/2+y,1/2-z
1/2-x,1/2-y,1/2-z
1/2+x,1/2+y,1/2-z
1/2-x,1/2+y,1/2+z
1/2+x,1/2-y,1/2+z
loop_
_atom_site_type_symbol
_atom_site_label
_atom_site_fract_x
_atom_site_fract_y
_atom_site_fract_z
Si Si1 0.551170 0.168700 0.500000
Si Si2 0.335765 0.814317 0.000000
Si Si3 0.763320 0.815520 0.000000
Si Si4 0.211055 0.315721 0.190307
Si Si5 0.870399 0.684771 0.308172
Si Si6 0.451501 0.813284 0.697953
O O1 0.500000 0.142564 0.500000
O O2 0.562841 0.254615 0.596673
O O3 0.574657 0.000000 0.500000
O O4 0.286243 0.753690 0.000000
O O5 0.360345 0.748177 0.909856
O O6 0.335568 0.000000 0.000000
O O7 0.788516 0.752292 0.088269
O O8 0.764303 0.000000 0.000000
O O9 0.214861 0.500000 0.187197
O O10 0.250000 0.250000 0.250000
O O11 0.166390 0.260064 0.237170
O O12 0.870974 0.500000 0.313256
O O13 0.917187 0.748031 0.273572
O O14 0.500000 0.755463 0.725321
O O15 0.451011 0.000000 0.691675
#
# Coordination Sequence:
#
# PCOD8292373 Si02
#       6
#     8   8   8  16  16  16
#     4   7  10  17  30  48  74 110 146 183 235 291
#     4   9  16  29  45  62  89 132 167 194 251 312
#     4  11  21  36  54  73 103 139 171 215 267 313
#     4  11  21  34  52  76 103 136 175 215 257 307
#     4   9  17  28  44  65  93 129 169 208 253 306
#     4   8  13  22  37  59  89 125 162 201 248 304
#
# _framework density 18.736740999999999
#
# number of rings (size 3 to 8) (size 9 to 14) (size 15 to 20)
#    0.000    2.778    2.222    2.333    0.000    0.889 
#    0.000    3.889    0.000    3.333    0.000    0.000 
#    0.000    4.444    0.000    2.000    0.000    2.889 
#
# Total GULP energy -446077.409565 kJ/mol
# GULP energy per Si atom -12391.039155 kJ/mol
# Density = 1.869409 g / cm^3
# Si number density = 18.736741 Si / 1000 Ang^3
#
#
#
# Elastic Constant Matrix: (Units=GPa)
#
#
# Indices 1 2 3 4 5 6 
#
# 1 141.4138 14.9106 94.3776 0.0000 0.0000 0.0000
# 2 14.9106 26.0394 18.4944 0.0000 0.0000 0.0000
# 3 94.3776 18.4944 194.4132 0.0000 0.0000 0.0000
# 4 0.0000 0.0000 0.0000 19.6679 0.0000 0.0000
# 5 0.0000 0.0000 0.0000 0.0000 34.7260 0.0000
# 6 0.0000 0.0000 0.0000 0.0000 0.0000 12.8420
#
#
#
# Elastic Compliance Matrix: (Units=1/GPa)
#
#
# Indices 1 2 3 4 5 6 
#
# 1 0.010621 -0.002595 -0.004909 0.000000 0.000000 0.000000
# 2 -0.002595 0.041820 -0.002718 0.000000 0.000000 0.000000
# 3 -0.004909 -0.002718 0.007786 0.000000 0.000000 0.000000
# 4 0.000000 0.000000 0.000000 0.050844 0.000000 0.000000
# 5 0.000000 0.000000 0.000000 0.000000 0.028797 0.000000
# 6 0.000000 0.000000 0.000000 0.000000 0.000000 0.077869
#
#
# Mechanical properties :
#
#
# Convention : Reuss Voigt Hill
#
# Bulk Modulus (GPa) = 25.13749 68.60351 46.87050
# Shear Modulus (GPa) = 19.88513 29.05277 24.46895
#
# Velocity S-wave (km/s) = 3.26128 3.94201 3.61769
# Velocity P-wave (km/s) = 5.25610 7.57715 6.52072
#
# Compressibility (1/GPa) = 0.03978122
#
# Stress axis : x y z
#
# Youngs Moduli (GPa) = 94.14881 23.91186 128.44385
#
# Poissons Ratio (x) = 0.06206 0.63057
# Poissons Ratio (y) = 0.24434 0.34917
# Poissons Ratio (z) = 0.46220 0.06500
#
# Static dielectric constant tensor:
#      x y z
#    x 3.539550 0.000000 0.000000 
#    y 0.000000 2.854700 0.000000 
#    z 0.000000 0.000000 3.960390 
# 
# 
# High freq. dielectric constant tensor:
#      x y z
#    x 1.719990 0.000000 0.000000 
#    y 0.000000 1.661370 0.000000 
#    z 0.000000 0.000000 1.742630 
# 
# From -- ./inp_files/40734.got.cif
#   From: 2010.06.25/outbox.cif.g09.slc.cpg/sg71_21_cif.got.tgz:40734.got - 2010.06.28 04:59:45.
