data_PCOD8292214
_publ_section_title
;
Structure prediction by ZEFSAII (Michael W. Deem and Ramdas Pophale) SiO2 
 PCOD8292214
Probable space group: I M M M
;
_chemical_formula_sum "Si O2"
_cell_formula_units_Z 72
_cell_length_a 21.170813
_cell_length_b 9.077291
_cell_length_c 20.044951
_cell_angle_alpha 90.000000
_cell_angle_beta 90.000000
_cell_angle_gamma 90.000000
_cell_volume 3852.111003
_symmetry_space_group_name_H-M "I M M M"
_symmetry_group_IT_number 71
_symmetry_cell_setting 'orthorhombic'
loop_
_space_group_symop_operation_xyz
x,y,z
-x,-y,z
x,-y,-z
-x,y,-z
-x,-y,-z
x,y,-z
-x,y,z
x,-y,z
1/2+x,1/2+y,1/2+z
1/2-x,1/2-y,1/2+z
1/2+x,1/2-y,1/2-z
1/2-x,1/2+y,1/2-z
1/2-x,1/2-y,1/2-z
1/2+x,1/2+y,1/2-z
1/2-x,1/2+y,1/2+z
1/2+x,1/2-y,1/2+z
loop_
_atom_site_type_symbol
_atom_site_label
_atom_site_fract_x
_atom_site_fract_y
_atom_site_fract_z
Si Si1 0.572767 0.828403 0.263195
Si Si2 0.427598 0.830133 0.111268
Si Si3 0.500000 0.840841 0.574582
Si Si4 0.150670 0.174137 0.500000
Si Si5 0.783293 0.827891 0.000000
Si Si6 0.121531 0.826860 0.882842
O O1 0.500000 0.795524 0.287780
O O2 0.580598 0.775660 0.187220
O O3 0.624887 0.743268 0.308255
O O4 0.587658 0.000000 0.267280
O O5 0.500000 0.811382 0.088729
O O6 0.407021 0.000000 0.103393
O O7 0.383797 0.730079 0.066057
O O8 0.500000 0.891637 0.500000
O O9 0.560335 0.742061 0.585449
O O10 0.500000 0.000000 0.614905
O O11 0.221801 0.229339 0.500000
O O12 0.149853 0.000000 0.500000
O O13 0.820560 0.787590 0.931814
O O14 0.765822 0.000000 0.000000
O O15 0.113935 0.000000 0.875806
#
# Coordination Sequence:
#
# PCOD8292214 Si02
#       6
#    16  16   8   8   8  16
#     4   9  18  33  55  86 118 148 182 222 276 339
#     4   9  19  38  64  89 115 148 181 217 276 348
#     4  11  21  31  49  77 111 150 189 232 279 329
#     4  12  25  39  59  86 112 141 187 241 286 329
#     4  10  24  42  56  74 109 156 200 233 274 338
#     4  11  21  34  54  81 113 149 190 236 282 326
#
# _framework density 18.691051000000002
#
# number of rings (size 3 to 8) (size 9 to 14) (size 15 to 20)
#    0.000    1.889    2.222    3.667    0.000    4.889 
#    0.000    3.333    0.000    0.000    0.000    0.000 
#    0.000    0.000    0.000    0.000    0.000    0.000 
#
# Total GULP energy -446184.164677 kJ/mol
# GULP energy per Si atom -12394.004574 kJ/mol
# Density = 1.864851 g / cm^3
# Si number density = 18.691051 Si / 1000 Ang^3
#
#
#
# Elastic Constant Matrix: (Units=GPa)
#
#
# Indices 1 2 3 4 5 6 
#
# 1 101.2392 70.5091 64.9776 0.0000 0.0000 0.0000
# 2 70.5091 103.9191 70.3555 0.0000 0.0000 0.0000
# 3 64.9776 70.3555 130.8875 0.0000 0.0000 0.0000
# 4 0.0000 0.0000 0.0000 34.3095 0.0000 0.0000
# 5 0.0000 0.0000 0.0000 0.0000 24.4971 0.0000
# 6 0.0000 0.0000 0.0000 0.0000 0.0000 27.2938
#
#
#
# Elastic Compliance Matrix: (Units=1/GPa)
#
#
# Indices 1 2 3 4 5 6 
#
# 1 0.020069 -0.010803 -0.004156 0.000000 0.000000 0.000000
# 2 -0.010803 0.020944 -0.005895 0.000000 0.000000 0.000000
# 3 -0.004156 -0.005895 0.012872 0.000000 0.000000 0.000000
# 4 0.000000 0.000000 0.000000 0.029146 0.000000 0.000000
# 5 0.000000 0.000000 0.000000 0.000000 0.040821 0.000000
# 6 0.000000 0.000000 0.000000 0.000000 0.000000 0.036638
#
#
# Mechanical properties :
#
#
# Convention : Reuss Voigt Hill
#
# Bulk Modulus (GPa) = 82.12296 83.08112 82.60204
# Shear Modulus (GPa) = 24.24162 25.90032 25.07097
#
# Velocity S-wave (km/s) = 3.60525 3.72655 3.66640
# Velocity P-wave (km/s) = 7.83344 7.94118 7.88750
#
# Compressibility (1/GPa) = 0.01217686
#
# Stress axis : x y z
#
# Youngs Moduli (GPa) = 49.82824 47.74746 77.68842
#
# Poissons Ratio (x) = 0.51582 0.32288
# Poissons Ratio (y) = 0.53829 0.45795
# Poissons Ratio (z) = 0.20709 0.28146
#
# Static dielectric constant tensor:
#      x y z
#    x 3.239820 0.000000 0.000000 
#    y 0.000000 3.356360 0.000000 
#    z 0.000000 0.000000 3.862460 
# 
# 
# High freq. dielectric constant tensor:
#      x y z
#    x 1.695310 0.000000 0.000000 
#    y 0.000000 1.725610 0.000000 
#    z 0.000000 0.000000 1.749710 
# 
# From -- ./inp_files/54710.got.cif
#   From: 2010.06.25/outbox.cif.g09.slc.cpg/sg71_28_cif.got.tgz:54710.got - 2010.06.28 04:59:45.
