data_PCOD8292903
_publ_section_title
;
Structure prediction by ZEFSAII (Michael W. Deem and Ramdas Pophale) SiO2 
 PCOD8292903
Probable space group: I B A M
;
_chemical_formula_sum "Si O2"
_cell_formula_units_Z 72
_cell_length_a 10.743253
_cell_length_b 22.008715
_cell_length_c 16.318247
_cell_angle_alpha 90.000000
_cell_angle_beta 90.000000
_cell_angle_gamma 90.000000
_cell_volume 3858.371069
_symmetry_space_group_name_H-M "I B A M"
_symmetry_group_IT_number 72
_symmetry_cell_setting 'orthorhombic'
loop_
_space_group_symop_operation_xyz
x,y,z
-x,-y,z
x,-y,1/2-z
-x,y,1/2-z
-x,-y,-z
x,y,-z
-x,y,1/2+z
x,-y,1/2+z
1/2+x,1/2+y,1/2+z
1/2-x,1/2-y,1/2+z
1/2+x,1/2-y,-z
1/2-x,1/2+y,-z
1/2-x,1/2-y,1/2-z
1/2+x,1/2+y,1/2-z
1/2-x,1/2+y,z
1/2+x,1/2-y,z
loop_
_atom_site_type_symbol
_atom_site_label
_atom_site_fract_x
_atom_site_fract_y
_atom_site_fract_z
Si Si1 0.933397 0.142633 0.667021
Si Si2 0.185046 0.130330 0.591745
Si Si3 0.500000 0.848501 0.250000
Si Si4 0.775978 0.570727 0.747885
Si Si5 0.818895 0.264034 0.334408
O O1 0.842876 0.086604 0.690934
O O2 0.858759 0.199344 0.627495
O O3 0.000000 0.166513 0.750000
O O4 0.036439 0.121148 0.602252
O O5 0.221050 0.109896 0.500000
O O6 0.256280 0.089231 0.657496
O O7 0.223851 0.200981 0.605353
O O8 0.606883 0.892018 0.211672
O O9 0.440724 0.806142 0.179499
O O10 0.803879 0.500000 0.750000
O O11 0.750000 0.250000 0.250000
#
# Coordination Sequence:
#
# PCOD8292903 Si02
#       5
#    16  16   8  16  16
#     4  10  18  32  55  81 107 145 189 226 269 334
#     4  10  22  35  54  83 115 144 180 242 296 320
#     4  10  17  30  58  84 105 136 188 238 264 316
#     4  10  21  36  57  82 107 149 198 224 266 339
#     4  11  16  32  57  85 110 144 187 224 276 339
#
# _framework density 18.660724999999999
#
# number of rings (size 3 to 8) (size 9 to 14) (size 15 to 20)
#    0.000    1.778    7.778    0.333    0.000    4.889 
#    0.000    2.222    0.000   12.000    0.000    0.000 
#    0.000    0.000    0.000    0.000    0.000    0.000 
#
# Total GULP energy -446224.267924 kJ/mol
# GULP energy per Si atom -12395.118553 kJ/mol
# Density = 1.861825 g / cm^3
# Si number density = 18.660725 Si / 1000 Ang^3
#
#
#
# Elastic Constant Matrix: (Units=GPa)
#
#
# Indices 1 2 3 4 5 6 
#
# 1 92.6095 20.9957 23.0292 0.0000 0.0000 0.0000
# 2 20.9957 93.7966 13.9122 0.0000 0.0000 0.0000
# 3 23.0292 13.9122 75.9559 0.0000 0.0000 0.0000
# 4 0.0000 0.0000 0.0000 13.9831 0.0000 0.0000
# 5 0.0000 0.0000 0.0000 0.0000 14.4014 0.0000
# 6 0.0000 0.0000 0.0000 0.0000 0.0000 27.6707
#
#
#
# Elastic Compliance Matrix: (Units=1/GPa)
#
#
# Indices 1 2 3 4 5 6 
#
# 1 0.012115 -0.002228 -0.003265 0.000000 0.000000 0.000000
# 2 -0.002228 0.011369 -0.001407 0.000000 0.000000 0.000000
# 3 -0.003265 -0.001407 0.014413 0.000000 0.000000 0.000000
# 4 0.000000 0.000000 0.000000 0.071515 0.000000 0.000000
# 5 0.000000 0.000000 0.000000 0.000000 0.069438 0.000000
# 6 0.000000 0.000000 0.000000 0.000000 0.000000 0.036139
#
#
# Mechanical properties :
#
#
# Convention : Reuss Voigt Hill
#
# Bulk Modulus (GPa) = 41.49797 42.02626 41.76211
# Shear Modulus (GPa) = 21.11305 24.83938 22.97621
#
# Velocity S-wave (km/s) = 3.36730 3.65239 3.51274
# Velocity P-wave (km/s) = 6.11594 6.35269 6.23544
#
# Compressibility (1/GPa) = 0.02409756
#
# Stress axis : x y z
#
# Youngs Moduli (GPa) = 82.54244 87.96107 69.38087
#
# Poissons Ratio (x) = 0.19594 0.22654
# Poissons Ratio (y) = 0.18387 0.09761
# Poissons Ratio (z) = 0.26951 0.12376
#
# Static dielectric constant tensor:
#      x y z
#    x 3.814620 0.000000 0.000000 
#    y 0.000000 3.449090 0.000000 
#    z 0.000000 0.000000 2.922400 
# 
# 
# High freq. dielectric constant tensor:
#      x y z
#    x 1.740670 0.000000 0.000000 
#    y 0.000000 1.718300 0.000000 
#    z 0.000000 0.000000 1.663950 
# 
# From -- ./inp_files/29354.got.cif
#   From: 2010.03.12/outbox.cif.g09.slc.cpg/sg72_15_cif.got.tgz:29354.got - 2010.04.16 14:54:00.
