data_PCOD8292389
_publ_section_title
;
Structure prediction by ZEFSAII (Michael W. Deem and Ramdas Pophale) SiO2 
 PCOD8292389
Probable space group: I M M M
;
_chemical_formula_sum "Si O2"
_cell_formula_units_Z 96
_cell_length_a 23.472696
_cell_length_b 25.491153
_cell_length_c 8.707054
_cell_angle_alpha 90.000000
_cell_angle_beta 90.000000
_cell_angle_gamma 90.000000
_cell_volume 5209.831673
_symmetry_space_group_name_H-M "I M M M"
_symmetry_group_IT_number 71
_symmetry_cell_setting 'orthorhombic'
loop_
_space_group_symop_operation_xyz
x,y,z
-x,-y,z
x,-y,-z
-x,y,-z
-x,-y,-z
x,y,-z
-x,y,z
x,-y,z
1/2+x,1/2+y,1/2+z
1/2-x,1/2-y,1/2+z
1/2+x,1/2-y,1/2-z
1/2-x,1/2+y,1/2-z
1/2-x,1/2-y,1/2-z
1/2+x,1/2+y,1/2-z
1/2-x,1/2+y,1/2+z
1/2+x,1/2-y,1/2+z
loop_
_atom_site_type_symbol
_atom_site_label
_atom_site_fract_x
_atom_site_fract_y
_atom_site_fract_z
Si Si1 0.433834 0.310613 0.678756
Si Si2 0.936605 0.000000 0.317486
Si Si3 0.633403 0.905136 0.682203
Si Si4 0.364342 0.598036 0.180508
Si Si5 0.249346 0.059962 0.181444
Si Si6 0.432660 0.000000 0.824100
Si Si7 0.437110 0.192789 0.318084
O O1 0.420359 0.319724 0.500000
O O2 0.500000 0.322715 0.713063
O O3 0.394017 0.347297 0.780689
O O4 0.418599 0.251374 0.730435
O O5 0.904199 0.051290 0.256774
O O6 0.939547 0.000000 0.500000
O O7 0.000000 0.000000 0.246898
O O8 0.637540 0.907746 0.500000
O O9 0.695386 0.912123 0.751875
O O10 0.590473 0.949197 0.739325
O O11 0.608803 0.849337 0.741478
O O12 0.303934 0.593990 0.263508
O O13 0.354353 0.593434 0.000000
O O14 0.245173 0.000000 0.242608
O O15 0.252822 0.060693 0.000000
O O16 0.500000 0.000000 0.812427
O O17 0.411286 0.000000 0.000000
O O18 0.441443 0.190367 0.500000
O O19 0.500000 0.179941 0.249941
#
# Coordination Sequence:
#
# PCOD8292389 Si02
#       7
#    16   8  16  16  16   8  16
#     4   9  18  35  58  83 114 149 182 221 276 336
#     4   9  18  31  49  76 109 138 164 211 274 323
#     4  11  21  35  59  85 109 141 189 236 277 329
#     4  11  21  35  56  81 111 144 187 231 272 325
#     4  11  23  39  57  77 110 150 186 226 280 338
#     4  11  23  36  51  78 117 152 180 221 280 337
#     4   8  16  33  57  84 113 145 181 225 277 330
#
# _framework density 18.4267
#
# number of rings (size 3 to 8) (size 9 to 14) (size 15 to 20)
#    0.000    2.000    1.667    3.750    0.000    3.000 
#    0.000    2.500    0.000    4.000    0.000    0.000 
#    0.000    0.000    0.000    0.000    0.000    0.000 
#
# Total GULP energy -595268.984682 kJ/mol
# GULP energy per Si atom -12401.437181 kJ/mol
# Density = 1.838476 g / cm^3
# Si number density = 18.426700 Si / 1000 Ang^3
#
#
#
# Elastic Constant Matrix: (Units=GPa)
#
#
# Indices 1 2 3 4 5 6 
#
# 1 133.2004 76.6733 36.6573 0.0000 0.0000 0.0000
# 2 76.6733 143.5962 32.6353 0.0000 0.0000 0.0000
# 3 36.6573 32.6353 54.8931 0.0000 0.0000 0.0000
# 4 0.0000 0.0000 0.0000 -14.6506 0.0000 0.0000
# 5 0.0000 0.0000 0.0000 0.0000 29.3936 0.0000
# 6 0.0000 0.0000 0.0000 0.0000 0.0000 25.6891
#
#
#
# Elastic Compliance Matrix: (Units=1/GPa)
#
#
# Indices 1 2 3 4 5 6 
#
# 1 0.011838 -0.005231 -0.004796 0.000000 0.000000 0.000000
# 2 -0.005231 0.010364 -0.002668 0.000000 0.000000 0.000000
# 3 -0.004796 -0.002668 0.023006 0.000000 0.000000 0.000000
# 4 0.000000 0.000000 0.000000 -0.068257 0.000000 0.000000
# 5 0.000000 0.000000 0.000000 0.000000 0.034021 0.000000
# 6 0.000000 0.000000 0.000000 0.000000 0.000000 0.038927
#
#
# Mechanical properties :
#
#
# Convention : Reuss Voigt Hill
#
# Bulk Modulus (GPa) = 50.45842 69.29129 59.87486
# Shear Modulus (GPa) = 61.05375 20.46800 40.76087
#
# Velocity S-wave (km/s) = 5.76240 3.33645 4.70835
# Velocity P-wave (km/s) = 8.46855 7.24761 7.88176
#
# Compressibility (1/GPa) = 0.01981830
#
# Stress axis : x y z
#
# Youngs Moduli (GPa) = 84.47027 96.49179 43.46716
#
# Poissons Ratio (x) = 0.50478 0.20845
# Poissons Ratio (y) = 0.44189 0.11597
# Poissons Ratio (z) = 0.40508 0.25744
#
# Static dielectric constant tensor:
#      x y z
#    x 3.480750 0.000000 0.000000 
#    y 0.000000 3.609270 0.000000 
#    z 0.000000 0.000000 3.212740 
# 
# 
# High freq. dielectric constant tensor:
#      x y z
#    x 1.719200 0.000000 0.000000 
#    y 0.000000 1.718430 0.000000 
#    z 0.000000 0.000000 1.700100 
# 
# From -- ./inp_files/12947.got.cif
#   From: 2010.06.25/outbox.cif.g09.slc.cpg/sg71_7_cif.got.tgz:12947.got - 2010.06.28 04:59:45.
