data_PCOD8292837
_publ_section_title
;
Structure prediction by ZEFSAII (Michael W. Deem and Ramdas Pophale) SiO2 
 PCOD8292837
Probable space group: I B A M
;
_chemical_formula_sum "Si O2"
_cell_formula_units_Z 64
_cell_length_a 10.169115
_cell_length_b 21.811695
_cell_length_c 17.309370
_cell_angle_alpha 90.000000
_cell_angle_beta 90.000000
_cell_angle_gamma 90.000000
_cell_volume 3839.315801
_symmetry_space_group_name_H-M "I B A M"
_symmetry_group_IT_number 72
_symmetry_cell_setting 'orthorhombic'
loop_
_space_group_symop_operation_xyz
x,y,z
-x,-y,z
x,-y,1/2-z
-x,y,1/2-z
-x,-y,-z
x,y,-z
-x,y,1/2+z
x,-y,1/2+z
1/2+x,1/2+y,1/2+z
1/2-x,1/2-y,1/2+z
1/2+x,1/2-y,-z
1/2-x,1/2+y,-z
1/2-x,1/2-y,1/2-z
1/2+x,1/2+y,1/2-z
1/2-x,1/2+y,z
1/2+x,1/2-y,z
loop_
_atom_site_type_symbol
_atom_site_label
_atom_site_fract_x
_atom_site_fract_y
_atom_site_fract_z
Si Si1 0.021107 0.658470 0.085517
Si Si2 0.276220 0.355805 0.914894
Si Si3 0.387775 0.050394 0.000000
Si Si4 0.858654 0.968310 0.500000
Si Si5 0.123505 0.241092 0.697479
O O1 0.093618 0.592655 0.076606
O O2 0.102672 0.698742 0.145588
O O3 0.873504 0.645807 0.116408
O O4 0.015803 0.690205 0.000000
O O5 0.332693 0.425613 0.923842
O O6 0.366273 0.318270 0.856606
O O7 0.280067 0.324513 0.000000
O O8 0.500000 0.000000 0.000000
O O9 0.243201 0.023640 0.000000
O O10 0.000000 0.000000 0.500000
O O11 0.250000 0.250000 0.750000
O O12 0.000000 0.227681 0.750000
#
# Coordination Sequence:
#
# PCOD8292837 Si02
#       5
#    16  16   8   8  16
#     4   9  19  36  61  84 111 147 200 231 278 340
#     4   9  19  38  59  82 117 145 191 242 279 330
#     4  10  16  35  64  84 104 147 194 246 278 325
#     4  10  20  35  60  92 110 139 194 254 282 320
#     4  12  23  36  57  84 124 154 182 230 294 347
#
# _framework density 16.669636000000001
#
# number of rings (size 3 to 8) (size 9 to 14) (size 15 to 20)
#    1.500    0.500    5.000    0.750    0.000    2.000 
#    0.000    0.000    0.000    9.000    0.000    0.000 
#    0.000    0.000    0.000    0.000    0.000    0.000 
#
# Total GULP energy -396439.819023 kJ/mol
# GULP energy per Si atom -12388.744344 kJ/mol
# Density = 1.663169 g / cm^3
# Si number density = 16.669636 Si / 1000 Ang^3
#
#
#
# Elastic Constant Matrix: (Units=GPa)
#
#
# Indices 1 2 3 4 5 6 
#
# 1 148.8315 72.7249 56.8960 0.0000 0.0000 0.0000
# 2 72.7249 126.2129 57.0746 0.0000 0.0000 0.0000
# 3 56.8960 57.0746 76.6053 0.0001 0.0000 0.0000
# 4 0.0000 0.0000 0.0001 4.8830 0.0000 0.0000
# 5 0.0000 0.0000 0.0000 0.0000 33.1523 0.0000
# 6 0.0000 0.0000 0.0000 0.0000 0.0000 36.3734
#
#
#
# Elastic Compliance Matrix: (Units=1/GPa)
#
#
# Indices 1 2 3 4 5 6 
#
# 1 0.010463 -0.003792 -0.004945 0.000000 0.000000 0.000000
# 2 -0.003792 0.013324 -0.007110 0.000000 0.000000 0.000000
# 3 -0.004945 -0.007110 0.022024 0.000000 0.000000 0.000000
# 4 0.000000 0.000000 0.000000 0.204792 0.000000 0.000000
# 5 0.000000 0.000000 0.000000 0.000000 0.030164 0.000000
# 6 0.000000 0.000000 0.000000 0.000000 0.000000 0.027493
#
#
# Mechanical properties :
#
#
# Convention : Reuss Voigt Hill
#
# Bulk Modulus (GPa) = 70.84654 80.56008 75.70331
# Shear Modulus (GPa) = 14.50710 25.87870 20.19290
#
# Velocity S-wave (km/s) = 2.95324 3.94438 3.48423
# Velocity P-wave (km/s) = 7.36352 8.31724 7.85487
#
# Compressibility (1/GPa) = 0.01411501
#
# Stress axis : x y z
#
# Youngs Moduli (GPa) = 95.57872 75.05529 45.40472
#
# Poissons Ratio (x) = 0.28463 0.22454
# Poissons Ratio (y) = 0.36247 0.32283
# Poissons Ratio (z) = 0.47266 0.53364
#
# Static dielectric constant tensor:
#      x y z
#    x 3.214470 0.000000 0.000000 
#    y 0.000000 3.117770 0.000000 
#    z 0.000000 0.000000 2.982280 
# 
# 
# High freq. dielectric constant tensor:
#      x y z
#    x 1.648350 0.000000 0.000000 
#    y 0.000000 1.634700 0.000000 
#    z 0.000000 0.000000 1.620230 
# 
# From -- ./inp_files/33082.got.cif
#   From: 2010.03.12/outbox.cif.g09.slc.cpg/sg72_17_cif.got.tgz:33082.got - 2010.04.16 14:54:00.
