data_PCOD8292244
_publ_section_title
;
Structure prediction by ZEFSAII (Michael W. Deem and Ramdas Pophale) SiO2 
 PCOD8292244
Probable space group: I M M M
;
_chemical_formula_sum "Si O2"
_cell_formula_units_Z 80
_cell_length_a 9.153344
_cell_length_b 32.595275
_cell_length_c 19.542245
_cell_angle_alpha 90.000000
_cell_angle_beta 90.000000
_cell_angle_gamma 90.000000
_cell_volume 5830.541454
_symmetry_space_group_name_H-M "I M M M"
_symmetry_group_IT_number 71
_symmetry_cell_setting 'orthorhombic'
loop_
_space_group_symop_operation_xyz
x,y,z
-x,-y,z
x,-y,-z
-x,y,-z
-x,-y,-z
x,y,-z
-x,y,z
x,-y,z
1/2+x,1/2+y,1/2+z
1/2-x,1/2-y,1/2+z
1/2+x,1/2-y,1/2-z
1/2-x,1/2+y,1/2-z
1/2-x,1/2-y,1/2-z
1/2+x,1/2+y,1/2-z
1/2-x,1/2+y,1/2+z
1/2+x,1/2-y,1/2+z
loop_
_atom_site_type_symbol
_atom_site_label
_atom_site_fract_x
_atom_site_fract_y
_atom_site_fract_z
Si Si1 0.667605 0.307016 0.218111
Si Si2 0.172189 0.765820 0.852990
Si Si3 0.664070 0.261229 0.500000
Si Si4 0.669487 0.378039 0.877083
Si Si5 0.833685 0.663925 0.000000
Si Si6 0.830672 0.546469 0.920825
O O1 0.500000 0.293786 0.206887
O O2 0.763898 0.277183 0.172092
O O3 0.709329 0.301868 0.298563
O O4 0.691752 0.354201 0.195165
O O5 0.000000 0.758435 0.860675
O O6 0.237971 0.777059 0.928651
O O7 0.500000 0.278021 0.500000
O O8 0.670007 0.212437 0.500000
O O9 0.500000 0.381703 0.896488
O O10 0.752058 0.351923 0.933529
O O11 0.737508 0.423564 0.872175
O O12 0.000000 0.647197 0.000000
O O13 0.778279 0.500000 0.907499
O O14 0.000000 0.550963 0.902314
O O15 0.803555 0.558561 0.000000
#
# Coordination Sequence:
#
# PCOD8292244 Si02
#       6
#    16  16   8  16   8  16
#     4   9  18  28  38  54  78 101 123 157 196 229
#     4   9  16  28  41  54  73  99 131 162 190 222
#     4   9  16  25  41  58  70  95 136 170 190 215
#     4  11  20  28  39  58  79 101 127 159 198 234
#     4  11  19  27  38  56  75  99 135 169 193 218
#     4   9  18  31  44  57  74  98 128 160 192 225
#
# _framework density 13.720853
#
# number of rings (size 3 to 8) (size 9 to 14) (size 15 to 20)
#    0.000    2.400    3.000    1.500    0.000    1.200 
#    0.000    1.500    0.000    0.000    0.000    0.000 
#    0.000    0.000    0.000    0.900    0.000   22.000 
#
# Total GULP energy -495670.579139 kJ/mol
# GULP energy per Si atom -12391.764478 kJ/mol
# Density = 1.368962 g / cm^3
# Si number density = 13.720853 Si / 1000 Ang^3
#
#
#
# Elastic Constant Matrix: (Units=GPa)
#
#
# Indices 1 2 3 4 5 6 
#
# 1 50.1809 31.0515 28.9894 0.0000 0.0000 0.0000
# 2 31.0515 71.9260 44.1364 0.0001 0.0000 0.0000
# 3 28.9894 44.1364 113.7768 0.0000 0.0000 0.0000
# 4 0.0000 0.0001 0.0000 20.1294 0.0000 0.0000
# 5 0.0000 0.0000 0.0000 0.0000 12.9453 0.0000
# 6 0.0000 0.0000 0.0000 0.0000 0.0000 18.6760
#
#
#
# Elastic Compliance Matrix: (Units=1/GPa)
#
#
# Indices 1 2 3 4 5 6 
#
# 1 0.028061 -0.010141 -0.003216 0.000000 0.000000 0.000000
# 2 -0.010141 0.021912 -0.005916 0.000000 0.000000 0.000000
# 3 -0.003216 -0.005916 0.011903 0.000000 0.000000 0.000000
# 4 0.000000 0.000000 0.000000 0.049679 0.000000 0.000000
# 5 0.000000 0.000000 0.000000 0.000000 0.077248 0.000000
# 6 0.000000 0.000000 0.000000 0.000000 0.000000 0.053545
#
#
# Mechanical properties :
#
#
# Convention : Reuss Voigt Hill
#
# Bulk Modulus (GPa) = 42.86304 49.35981 46.11142
# Shear Modulus (GPa) = 17.32084 19.13056 18.22570
#
# Velocity S-wave (km/s) = 3.55684 3.73804 3.64857
# Velocity P-wave (km/s) = 6.94085 7.39480 7.17141
#
# Compressibility (1/GPa) = 0.02333012
#
# Stress axis : x y z
#
# Youngs Moduli (GPa) = 35.63700 45.63812 84.00905
#
# Poissons Ratio (x) = 0.46281 0.27015
# Poissons Ratio (y) = 0.36139 0.49701
# Poissons Ratio (z) = 0.11460 0.27000
#
# Static dielectric constant tensor:
#      x y z
#    x 2.744300 0.000000 0.000000 
#    y 0.000000 2.640700 0.000000 
#    z 0.000000 0.000000 2.928590 
# 
# 
# High freq. dielectric constant tensor:
#      x y z
#    x 1.523790 0.000000 0.000000 
#    y 0.000000 1.496120 0.000000 
#    z 0.000000 0.000000 1.505780 
# 
# From -- ./inp_files/51020.got.cif
#   From: 2010.06.25/outbox.cif.g09.slc.cpg/sg71_26_cif.got.tgz:51020.got - 2010.06.28 04:59:45.
