data_PCOD8292583
_publ_section_title
;
Structure prediction by ZEFSAII (Michael W. Deem and Ramdas Pophale) SiO2 
 PCOD8292583
Probable space group: I M M M
;
_chemical_formula_sum "Si O2"
_cell_formula_units_Z 88
_cell_length_a 28.725667
_cell_length_b 17.302028
_cell_length_c 9.700834
_cell_angle_alpha 90.000000
_cell_angle_beta 90.000000
_cell_angle_gamma 90.000000
_cell_volume 4821.433767
_symmetry_space_group_name_H-M "I M M M"
_symmetry_group_IT_number 71
_symmetry_cell_setting 'orthorhombic'
loop_
_space_group_symop_operation_xyz
x,y,z
-x,-y,z
x,-y,-z
-x,y,-z
-x,-y,-z
x,y,-z
-x,y,z
x,-y,z
1/2+x,1/2+y,1/2+z
1/2-x,1/2-y,1/2+z
1/2+x,1/2-y,1/2-z
1/2-x,1/2+y,1/2-z
1/2-x,1/2-y,1/2-z
1/2+x,1/2+y,1/2-z
1/2-x,1/2+y,1/2+z
1/2+x,1/2-y,1/2+z
loop_
_atom_site_type_symbol
_atom_site_label
_atom_site_fract_x
_atom_site_fract_y
_atom_site_fract_z
Si Si1 0.610509 0.625232 0.161787
Si Si2 0.555558 0.500000 0.335470
Si Si3 0.793444 0.329649 0.347218
Si Si4 0.784544 0.146614 0.651702
Si Si5 0.054600 0.584498 0.151252
Si Si6 0.605021 0.196497 0.838870
O O1 0.578462 0.574386 0.262147
O O2 0.665240 0.612784 0.197675
O O3 0.597979 0.713527 0.194138
O O4 0.601482 0.605350 0.000000
O O5 0.500000 0.500000 0.309619
O O6 0.566177 0.500000 0.500000
O O7 0.789746 0.365046 0.500000
O O8 0.784194 0.238711 0.354151
O O9 0.756453 0.377823 0.256007
O O10 0.845470 0.337620 0.286856
O O11 0.772809 0.113862 0.500000
O O12 0.074014 0.500000 0.196669
O O13 0.065751 0.649956 0.260894
O O14 0.000000 0.579711 0.141267
O O15 0.074871 0.606130 0.000000
O O16 0.600101 0.182167 0.000000
#
# Coordination Sequence:
#
# PCOD8292583 Si02
#       6
#    16   8  16  16  16  16
#     4   9  19  36  56  77 103 136 173 214 262 314
#     4  11  25  41  55  75 103 135 177 229 278 321
#     4   8  14  25  43  71 105 133 158 196 246 295
#     4   8  14  26  46  72  99 128 164 201 239 295
#     4   9  19  35  52  71  99 135 171 209 256 306
#     4   9  18  32  52  80 108 134 170 214 257 308
#
# _framework density 18.251830999999999
#
# number of rings (size 3 to 8) (size 9 to 14) (size 15 to 20)
#    0.000    3.182    0.000    3.000    0.000    4.364 
#    0.000    8.182    2.000    0.000    0.000    0.000 
#    0.000    0.000    0.000    0.000    0.000    0.000 
#
# Total GULP energy -545169.539257 kJ/mol
# GULP energy per Si atom -12390.216801 kJ/mol
# Density = 1.821029 g / cm^3
# Si number density = 18.251831 Si / 1000 Ang^3
#
#
#
# Elastic Constant Matrix: (Units=GPa)
#
#
# Indices 1 2 3 4 5 6 
#
# 1 93.0103 46.6311 66.0611 0.0000 0.0000 0.0000
# 2 46.6311 77.0271 59.1706 0.0000 0.0000 0.0000
# 3 66.0611 59.1706 97.0996 0.0000 0.0000 0.0000
# 4 0.0000 0.0000 0.0000 23.0034 0.0000 0.0000
# 5 0.0000 0.0000 0.0000 0.0000 37.5718 0.0000
# 6 0.0000 0.0000 0.0000 0.0000 0.0000 18.8361
#
#
#
# Elastic Compliance Matrix: (Units=1/GPa)
#
#
# Indices 1 2 3 4 5 6 
#
# 1 0.021243 -0.003305 -0.012438 0.000000 0.000000 0.000000
# 2 -0.003305 0.024923 -0.012939 0.000000 0.000000 0.000000
# 3 -0.012438 -0.012939 0.026646 0.000000 0.000000 0.000000
# 4 0.000000 0.000000 0.000000 0.043472 0.000000 0.000000
# 5 0.000000 0.000000 0.000000 0.000000 0.026616 0.000000
# 6 0.000000 0.000000 0.000000 0.000000 0.000000 0.053089
#
#
# Mechanical properties :
#
#
# Convention : Reuss Voigt Hill
#
# Bulk Modulus (GPa) = 64.73890 67.87362 66.30626
# Shear Modulus (GPa) = 19.34224 22.23389 20.78806
#
# Velocity S-wave (km/s) = 3.25890 3.49402 3.37851
# Velocity P-wave (km/s) = 7.05035 7.31749 7.18516
#
# Compressibility (1/GPa) = 0.01544666
#
# Stress axis : x y z
#
# Youngs Moduli (GPa) = 47.07416 40.12431 37.52971
#
# Poissons Ratio (x) = 0.13262 0.46681
# Poissons Ratio (y) = 0.15560 0.48558
# Poissons Ratio (z) = 0.58553 0.51915
#
# Static dielectric constant tensor:
#      x y z
#    x 3.434070 0.000000 0.000000 
#    y 0.000000 3.192910 0.000000 
#    z 0.000000 0.000000 3.598160 
# 
# 
# High freq. dielectric constant tensor:
#      x y z
#    x 1.704810 0.000000 0.000000 
#    y 0.000000 1.680230 0.000000 
#    z 0.000000 0.000000 1.705770 
# 
# From -- ./inp_files/16651.got.cif
#   From: 2010.06.25/outbox.cif.g09.slc.cpg/sg71_9_cif.got.tgz:16651.got - 2010.06.28 04:59:45.
