data_PCOD8292296
_publ_section_title
;
Structure prediction by ZEFSAII (Michael W. Deem and Ramdas Pophale) SiO2 
 PCOD8292296
Probable space group: I M M M
;
_chemical_formula_sum "Si O2"
_cell_formula_units_Z 128
_cell_length_a 19.959123
_cell_length_b 23.429550
_cell_length_c 18.071971
_cell_angle_alpha 90.000000
_cell_angle_beta 90.000000
_cell_angle_gamma 90.000000
_cell_volume 8451.054899
_symmetry_space_group_name_H-M "I M M M"
_symmetry_group_IT_number 71
_symmetry_cell_setting 'orthorhombic'
loop_
_space_group_symop_operation_xyz
x,y,z
-x,-y,z
x,-y,-z
-x,y,-z
-x,-y,-z
x,y,-z
-x,y,z
x,-y,z
1/2+x,1/2+y,1/2+z
1/2-x,1/2-y,1/2+z
1/2+x,1/2-y,1/2-z
1/2-x,1/2+y,1/2-z
1/2-x,1/2-y,1/2-z
1/2+x,1/2+y,1/2-z
1/2-x,1/2+y,1/2+z
1/2+x,1/2-y,1/2+z
loop_
_atom_site_type_symbol
_atom_site_label
_atom_site_fract_x
_atom_site_fract_y
_atom_site_fract_z
Si Si1 0.924921 0.840943 0.912901
Si Si2 0.072135 0.262321 0.415988
Si Si3 0.576832 0.105188 0.083938
Si Si4 0.196379 0.242016 0.338218
Si Si5 0.193093 0.435414 0.316621
Si Si6 0.800847 0.667925 0.218232
Si Si7 0.670175 0.763204 0.413680
Si Si8 0.320932 0.565888 0.586073
O O1 0.886297 0.782782 0.892584
O O2 0.882471 0.895489 0.884338
O O3 0.000000 0.840805 0.877618
O O4 0.931764 0.845939 0.000000
O O5 0.065347 0.243727 0.500000
O O6 0.093636 0.328153 0.409569
O O7 0.129667 0.222956 0.380968
O O8 0.000000 0.252017 0.376881
O O9 0.500000 0.093316 0.106564
O O10 0.624101 0.070149 0.138669
O O11 0.589391 0.084317 0.000000
O O12 0.171975 0.292700 0.284564
O O13 0.222691 0.186882 0.292494
O O14 0.255785 0.262608 0.394684
O O15 0.200946 0.500000 0.289280
O O16 0.192497 0.397692 0.241618
O O17 0.254432 0.417110 0.369081
O O18 0.840754 0.681693 0.140971
O O19 0.666287 0.781250 0.500000
O O20 0.305684 0.578608 0.500000
O O21 0.340738 0.500000 0.598436
#
# Coordination Sequence:
#
# PCOD8292296 Si02
#       8
#    16  16  16  16  16  16  16  16
#     4   9  17  28  43  64  88 113 145 185 225 259
#     4   9  16  26  44  72 102 129 152 178 217 267
#     4   9  18  30  44  66  97 129 159 188 218 261
#     4   9  16  29  48  65  95 121 148 184 219 276
#     4  11  20  32  48  62  88 121 155 195 228 268
#     4   9  19  30  45  67  89 114 154 186 233 271
#     4   9  17  29  47  66  84 114 150 188 230 272
#     4   9  18  29  43  65  89 119 156 183 210 256
#
# _framework density 15.146038000000001
#
# number of rings (size 3 to 8) (size 9 to 14) (size 15 to 20)
#    0.750    2.000    1.250    2.250    0.000    1.250 
#    0.000    3.125    0.000    0.375    0.000    0.000 
#    0.000    0.000    0.000    5.625    0.000    0.000 
#
# Total GULP energy -792905.918718 kJ/mol
# GULP energy per Si atom -12389.154980 kJ/mol
# Density = 1.511157 g / cm^3
# Si number density = 15.146038 Si / 1000 Ang^3
#
#
#
# Elastic Constant Matrix: (Units=GPa)
#
#
# Indices 1 2 3 4 5 6 
#
# 1 109.7046 37.5848 36.2873 0.0000 0.0000 0.0000
# 2 37.5848 71.0308 42.3831 0.0000 0.0000 0.0000
# 3 36.2873 42.3831 68.1457 0.0000 0.0000 0.0000
# 4 0.0000 0.0000 0.0000 22.2036 0.0000 0.0000
# 5 0.0000 0.0000 0.0000 0.0000 14.0755 0.0000
# 6 0.0000 0.0000 0.0000 0.0000 0.0000 12.9770
#
#
#
# Elastic Compliance Matrix: (Units=1/GPa)
#
#
# Indices 1 2 3 4 5 6 
#
# 1 0.011719 -0.003939 -0.003790 0.000000 0.000000 0.000000
# 2 -0.003939 0.023710 -0.012649 0.000000 0.000000 0.000000
# 3 -0.003790 -0.012649 0.024560 0.000000 0.000000 0.000000
# 4 0.000000 0.000000 0.000000 0.045038 0.000000 0.000000
# 5 0.000000 0.000000 0.000000 0.000000 0.071046 0.000000
# 6 0.000000 0.000000 0.000000 0.000000 0.000000 0.077059
#
#
# Mechanical properties :
#
#
# Convention : Reuss Voigt Hill
#
# Bulk Modulus (GPa) = 51.99677 53.48795 52.74236
# Shear Modulus (GPa) = 16.65010 18.69293 17.67152
#
# Velocity S-wave (km/s) = 3.31917 3.51690 3.41947
# Velocity P-wave (km/s) = 7.00671 7.20298 7.10552
#
# Compressibility (1/GPa) = 0.01923197
#
# Stress axis : x y z
#
# Youngs Moduli (GPa) = 85.33414 42.17588 40.71717
#
# Poissons Ratio (x) = 0.16614 0.15432
# Poissons Ratio (y) = 0.33615 0.51503
# Poissons Ratio (z) = 0.32343 0.53348
#
# Static dielectric constant tensor:
#      x y z
#    x 3.060330 0.000000 0.000000 
#    y 0.000000 2.644570 0.000000 
#    z 0.000000 0.000000 2.755320 
# 
# 
# High freq. dielectric constant tensor:
#      x y z
#    x 1.583640 0.000000 0.000000 
#    y 0.000000 1.544420 0.000000 
#    z 0.000000 0.000000 1.556710 
# 
# From -- ./inp_files/54497.got.cif
#   From: 2010.06.25/outbox.cif.g09.slc.cpg/sg71_28_cif.got.tgz:54497.got - 2010.06.28 04:59:45.
