data_PCOD8292894
_publ_section_title
;
Structure prediction by ZEFSAII (Michael W. Deem and Ramdas Pophale) SiO2 
 PCOD8292894
Probable space group: I B A M
;
_chemical_formula_sum "Si O2"
_cell_formula_units_Z 96
_cell_length_a 28.256370
_cell_length_b 7.920561
_cell_length_c 21.313756
_cell_angle_alpha 90.000000
_cell_angle_beta 90.000000
_cell_angle_gamma 90.000000
_cell_volume 4770.152917
_symmetry_space_group_name_H-M "I B A M"
_symmetry_group_IT_number 72
_symmetry_cell_setting 'orthorhombic'
loop_
_space_group_symop_operation_xyz
x,y,z
-x,-y,z
x,-y,1/2-z
-x,y,1/2-z
-x,-y,-z
x,y,-z
-x,y,1/2+z
x,-y,1/2+z
1/2+x,1/2+y,1/2+z
1/2-x,1/2-y,1/2+z
1/2+x,1/2-y,-z
1/2-x,1/2+y,-z
1/2-x,1/2-y,1/2-z
1/2+x,1/2+y,1/2-z
1/2-x,1/2+y,z
1/2+x,1/2-y,z
loop_
_atom_site_type_symbol
_atom_site_label
_atom_site_fract_x
_atom_site_fract_y
_atom_site_fract_z
Si Si1 0.355705 0.211766 0.888494
Si Si2 0.631765 0.832152 0.621221
Si Si3 0.313449 0.796105 0.000000
Si Si4 0.791703 0.685328 0.500000
Si Si5 0.529953 0.155762 0.071925
Si Si6 0.943482 0.115386 0.929775
Si Si7 0.388108 0.513894 0.180120
O O1 0.314227 0.265218 0.937074
O O2 0.406964 0.224565 0.923777
O O3 0.354014 0.350708 0.832430
O O4 0.348814 0.019981 0.862522
O O5 0.656531 0.748533 0.560893
O O6 0.575662 0.837626 0.614458
O O7 0.640672 0.691876 0.675623
O O8 0.264470 0.696507 0.000000
O O9 0.305545 0.992800 0.000000
O O10 0.497889 0.325696 0.078248
O O11 0.500000 0.000000 0.098075
O O12 0.544666 0.124668 0.000000
O O13 0.929135 0.984121 0.874273
O O14 0.937032 0.035785 0.000000
O O15 0.409695 0.500000 0.250000
#
# Coordination Sequence:
#
# PCOD8292894 Si02
#       7
#    16  16   8   8  16  16  16
#     4   9  19  37  57  85 120 151 192 246 301 340
#     4  11  21  36  58  89 118 155 206 237 293 372
#     4  10  24  34  60 100 116 152 193 240 309 361
#     4  10  20  36  61  92 128 145 182 255 303 357
#     4  10  17  29  56  84 125 156 191 251 298 349
#     4   9  18  33  56  85 117 156 190 241 307 330
#     4  10  23  39  60  82 121 167 198 245 292 349
#
# _framework density 20.125140999999999
#
# number of rings (size 3 to 8) (size 9 to 14) (size 15 to 20)
#    1.000    1.167    3.333    0.000    3.500    1.333 
#    0.000    3.333    0.000    2.000    0.000    0.000 
#    0.000    0.000    0.000    0.000    0.000    0.000 
#
# Total GULP energy -594659.404437 kJ/mol
# GULP energy per Si atom -12388.737592 kJ/mol
# Density = 2.007934 g / cm^3
# Si number density = 20.125141 Si / 1000 Ang^3
#
#
#
# Elastic Constant Matrix: (Units=GPa)
#
#
# Indices 1 2 3 4 5 6 
#
# 1 70.9746 11.6277 18.5225 0.0000 0.0000 0.0000
# 2 11.6277 99.1328 41.1034 0.0000 0.0000 0.0000
# 3 18.5225 41.1034 111.9854 0.0000 0.0000 0.0000
# 4 0.0000 0.0000 0.0000 18.2443 0.0000 0.0000
# 5 0.0000 0.0000 0.0000 0.0000 7.9993 0.0000
# 6 0.0000 0.0000 0.0000 0.0000 0.0000 36.8023
#
#
#
# Elastic Compliance Matrix: (Units=1/GPa)
#
#
# Indices 1 2 3 4 5 6 
#
# 1 0.014786 -0.000850 -0.002134 0.000000 0.000000 0.000000
# 2 -0.000850 0.011947 -0.004245 0.000000 0.000000 0.000000
# 3 -0.002134 -0.004245 0.010841 0.000000 0.000000 0.000000
# 4 0.000000 0.000000 0.000000 0.054812 0.000000 0.000000
# 5 0.000000 0.000000 0.000000 0.000000 0.125011 0.000000
# 6 0.000000 0.000000 0.000000 0.000000 0.000000 0.027172
#
#
# Mechanical properties :
#
#
# Convention : Reuss Voigt Hill
#
# Bulk Modulus (GPa) = 43.25721 47.17778 45.21749
# Shear Modulus (GPa) = 18.74555 26.66512 22.70534
#
# Velocity S-wave (km/s) = 3.05528 3.64396 3.36252
# Velocity P-wave (km/s) = 5.82984 6.41854 6.13126
#
# Compressibility (1/GPa) = 0.02311754
#
# Stress axis : x y z
#
# Youngs Moduli (GPa) = 67.63345 83.70265 92.24594
#
# Poissons Ratio (x) = 0.07111 0.19683
# Poissons Ratio (y) = 0.05746 0.39154
# Poissons Ratio (z) = 0.14431 0.35528
#
# Static dielectric constant tensor:
#      x y z
#    x 2.959370 0.000000 0.000000 
#    y 0.000000 3.828390 0.000000 
#    z 0.000000 0.000000 3.211340 
# 
# 
# High freq. dielectric constant tensor:
#      x y z
#    x 1.759430 0.000000 0.000000 
#    y 0.000000 1.807340 0.000000 
#    z 0.000000 0.000000 1.736900 
# 
# From -- ./inp_files/45928.got.cif
#   From: 2010.03.12/outbox.cif.g09.slc.cpg/sg72_23_cif.got.tgz:45928.got - 2010.04.16 14:54:00.
