data_PCOD8292905
_publ_section_title
;
Structure prediction by ZEFSAII (Michael W. Deem and Ramdas Pophale) SiO2 
 PCOD8292905
Probable space group: I B A M
;
_chemical_formula_sum "Si O2"
_cell_formula_units_Z 120
_cell_length_a 19.493819
_cell_length_b 14.801063
_cell_length_c 23.053146
_cell_angle_alpha 90.000000
_cell_angle_beta 90.000000
_cell_angle_gamma 90.000000
_cell_volume 6651.506767
_symmetry_space_group_name_H-M "I B A M"
_symmetry_group_IT_number 72
_symmetry_cell_setting 'orthorhombic'
loop_
_space_group_symop_operation_xyz
x,y,z
-x,-y,z
x,-y,1/2-z
-x,y,1/2-z
-x,-y,-z
x,y,-z
-x,y,1/2+z
x,-y,1/2+z
1/2+x,1/2+y,1/2+z
1/2-x,1/2-y,1/2+z
1/2+x,1/2-y,-z
1/2-x,1/2+y,-z
1/2-x,1/2-y,1/2-z
1/2+x,1/2+y,1/2-z
1/2-x,1/2+y,z
1/2+x,1/2-y,z
loop_
_atom_site_type_symbol
_atom_site_label
_atom_site_fract_x
_atom_site_fract_y
_atom_site_fract_z
Si Si1 0.705734 0.838593 0.064830
Si Si2 0.205734 0.661407 0.564830
Si Si3 0.924695 0.688438 0.643899
Si Si4 0.252416 0.000000 0.365890
Si Si5 0.419514 0.685737 0.750000
Si Si6 0.575305 0.811562 0.356101
Si Si7 0.337330 0.500000 0.750000
Si Si8 0.897347 0.500000 0.315137
O O1 0.750000 0.750000 0.062556
O O2 0.632527 0.817501 0.094436
O O3 0.756982 0.909055 0.096865
O O4 0.689342 0.873820 0.000000
O O5 0.189342 0.626180 0.500000
O O6 0.256982 0.590945 0.596865
O O7 0.132527 0.682499 0.594436
O O8 0.897749 0.757930 0.693019
O O9 0.939610 0.590621 0.672300
O O10 1.000000 0.719813 0.619706
O O11 0.208051 0.000000 0.307879
O O12 0.332568 1.000000 0.355723
O O13 0.500000 0.667611 0.750000
O O14 0.397749 0.742070 0.806981
O O15 0.382831 0.589359 0.750000
O O16 0.560390 0.909379 0.327700
O O17 0.871051 0.500000 0.250000
#
# Coordination Sequence:
#
# PCOD8292905 Si02
#       8
#    16  16  16  16  16  16   8  16
#     4  10  21  37  55  75 103 138 176 219 261 302
#     4  10  21  37  55  75 103 138 176 219 261 302
#     4  10  20  33  53  79 107 138 169 207 257 315
#     4  10  21  34  52  78 103 134 171 218 254 307
#     4  10  21  34  50  76 108 137 172 217 262 307
#     4  10  20  33  53  79 107 138 169 207 257 315
#     4  12  21  34  54  74 101 142 182 216 260 308
#     4  10  17  31  49  77 106 132 160 193 247 309
#
# _framework density 18.041025000000001
#
# number of rings (size 3 to 8) (size 9 to 14) (size 15 to 20)
#    0.000    1.867    2.000    2.600    0.000    1.067 
#    0.000    4.000    0.000    4.800    0.000    0.000 
#    0.000   19.200    0.000    0.000    0.000    0.000 
#
# Total GULP energy -743469.526676 kJ/mol
# GULP energy per Si atom -12391.158778 kJ/mol
# Density = 1.799996 g / cm^3
# Si number density = 18.041025 Si / 1000 Ang^3
#
#
#
# Elastic Constant Matrix: (Units=GPa)
#
#
# Indices 1 2 3 4 5 6 
#
# 1 64.9735 38.1813 46.0861 0.0000 0.0000 0.0000
# 2 38.1813 114.4409 55.3485 0.0000 0.0000 0.0000
# 3 46.0861 55.3485 138.7631 0.0000 0.0000 0.0000
# 4 0.0000 0.0000 0.0000 24.8392 0.0000 0.0000
# 5 0.0000 0.0000 0.0000 0.0000 25.2356 0.0000
# 6 0.0000 0.0000 0.0000 0.0000 0.0000 33.0990
#
#
#
# Elastic Compliance Matrix: (Units=1/GPa)
#
#
# Indices 1 2 3 4 5 6 
#
# 1 0.022015 -0.004719 -0.005429 0.000000 0.000000 0.000000
# 2 -0.004719 0.011838 -0.003155 0.000000 0.000000 0.000000
# 3 -0.005429 -0.003155 0.010268 0.000000 0.000000 0.000000
# 4 0.000000 0.000000 0.000000 0.040259 0.000000 0.000000
# 5 0.000000 0.000000 0.000000 0.000000 0.039627 0.000000
# 6 0.000000 0.000000 0.000000 0.000000 0.000000 0.030212
#
#
# Mechanical properties :
#
#
# Convention : Reuss Voigt Hill
#
# Bulk Modulus (GPa) = 57.09315 66.37882 61.73598
# Shear Modulus (GPa) = 26.78610 28.53887 27.66249
#
# Velocity S-wave (km/s) = 3.85740 3.98161 3.92000
# Velocity P-wave (km/s) = 7.18014 7.61648 7.40153
#
# Compressibility (1/GPa) = 0.01751524
#
# Stress axis : x y z
#
# Youngs Moduli (GPa) = 45.42324 84.47155 97.38967
#
# Poissons Ratio (x) = 0.39863 0.52877
# Poissons Ratio (y) = 0.21436 0.30723
# Poissons Ratio (z) = 0.24662 0.26648
#
# Static dielectric constant tensor:
#      x y z
#    x 3.105640 0.000000 0.000000 
#    y 0.000000 3.632590 0.000000 
#    z 0.000000 0.000000 3.446050 
# 
# 
# High freq. dielectric constant tensor:
#      x y z
#    x 1.695090 0.000000 0.000000 
#    y 0.000000 1.708850 0.000000 
#    z 0.000000 0.000000 1.694080 
# 
# From -- ./inp_files/45515.got.cif
#   From: 2010.03.12/outbox.cif.g09.slc.cpg/sg72_23_cif.got.tgz:45515.got - 2010.04.16 14:54:00.
