data_PCOD8292743
_publ_section_title
;
Structure prediction by ZEFSAII (Michael W. Deem and Ramdas Pophale) SiO2 
 PCOD8292743
Probable space group: I M M M
;
_chemical_formula_sum "Si O2"
_cell_formula_units_Z 120
_cell_length_a 22.678989
_cell_length_b 32.038259
_cell_length_c 9.581670
_cell_angle_alpha 90.000000
_cell_angle_beta 90.000000
_cell_angle_gamma 90.000000
_cell_volume 6961.996613
_symmetry_space_group_name_H-M "I M M M"
_symmetry_group_IT_number 71
_symmetry_cell_setting 'orthorhombic'
loop_
_space_group_symop_operation_xyz
x,y,z
-x,-y,z
x,-y,-z
-x,y,-z
-x,-y,-z
x,y,-z
-x,y,z
x,-y,z
1/2+x,1/2+y,1/2+z
1/2-x,1/2-y,1/2+z
1/2+x,1/2-y,1/2-z
1/2-x,1/2+y,1/2-z
1/2-x,1/2-y,1/2-z
1/2+x,1/2+y,1/2-z
1/2-x,1/2+y,1/2+z
1/2+x,1/2-y,1/2+z
loop_
_atom_site_type_symbol
_atom_site_label
_atom_site_fract_x
_atom_site_fract_y
_atom_site_fract_z
Si Si1 0.769426 0.047116 0.166209
Si Si2 0.567155 0.858088 0.336436
Si Si3 0.000000 0.952806 0.166501
Si Si4 0.771739 0.308051 0.657633
Si Si5 0.128579 0.274300 0.837910
Si Si6 0.334686 0.104200 0.157441
Si Si7 0.140755 0.815575 0.836723
Si Si8 0.614672 0.594470 0.666623
O O1 0.707715 0.067607 0.216319
O O2 0.825903 0.072522 0.224000
O O3 0.772300 0.000000 0.223867
O O4 0.771247 0.048043 0.000000
O O5 0.577226 0.865038 0.500000
O O6 0.500000 0.866529 0.292941
O O7 0.582054 0.810020 0.293979
O O8 0.607887 0.891007 0.254861
O O9 0.057865 0.929676 0.225893
O O10 0.000000 0.000000 0.222802
O O11 0.000000 0.952281 0.000000
O O12 0.772649 0.290215 0.500000
O O13 0.810632 0.278406 0.754660
O O14 0.796222 0.354522 0.660149
O O15 0.706512 0.309385 0.722809
O O16 0.103678 0.227247 0.806381
O O17 0.144423 0.278585 0.000000
O O18 0.356287 0.094359 0.000000
O O19 0.111144 0.857632 0.775420
O O20 0.147435 0.823576 0.000000
O O21 0.613762 0.592990 0.500000
#
# Coordination Sequence:
#
# PCOD8292743 Si02
#       8
#    16  16   8  16  16  16  16  16
#     4   9  15  24  41  64  89 114 140 176 223 267
#     4   9  18  32  46  61  85 117 151 183 220 265
#     4   9  16  24  34  52  82 120 159 189 213 255
#     4   9  15  25  41  60  85 114 144 176 214 260
#     4   9  17  27  40  60  84 113 147 182 215 250
#     4   9  16  27  45  68  89 111 145 185 221 261
#     4   9  15  24  37  55  82 113 145 180 216 256
#     4   9  15  24  36  55  83 118 154 183 215 256
#
# _framework density 17.236435
#
# number of rings (size 3 to 8) (size 9 to 14) (size 15 to 20)
#    0.000    3.000    1.333    0.800    0.000    1.867 
#    1.200    0.000    0.000    0.800    0.000    2.800 
#    0.000    0.000    0.000    3.000    0.000   13.600 
#
# Total GULP energy -743532.146769 kJ/mol
# GULP energy per Si atom -12392.202446 kJ/mol
# Density = 1.719720 g / cm^3
# Si number density = 17.236435 Si / 1000 Ang^3
#
#
#
# Elastic Constant Matrix: (Units=GPa)
#
#
# Indices 1 2 3 4 5 6 
#
# 1 120.4489 57.8674 25.8413 0.0000 0.0000 0.0000
# 2 57.8674 118.8456 17.6293 0.0000 0.0000 0.0000
# 3 25.8413 17.6293 22.4306 0.0000 0.0000 0.0000
# 4 0.0000 0.0000 0.0000 12.6616 0.0000 0.0000
# 5 0.0000 0.0000 0.0000 0.0000 9.3824 0.0000
# 6 0.0000 0.0000 0.0000 0.0000 0.0000 19.6376
#
#
#
# Elastic Compliance Matrix: (Units=1/GPa)
#
#
# Indices 1 2 3 4 5 6 
#
# 1 0.012946 -0.004631 -0.011275 0.000000 0.000000 0.000000
# 2 -0.004631 0.011181 -0.003453 0.000000 0.000000 0.000000
# 3 -0.011275 -0.003453 0.060285 0.000000 0.000000 0.000000
# 4 0.000000 0.000000 0.000000 0.078979 0.000000 0.000000
# 5 0.000000 0.000000 0.000000 0.000000 0.106582 0.000000
# 6 0.000000 0.000000 0.000000 0.000000 0.000000 0.050923
#
#
# Mechanical properties :
#
#
# Convention : Reuss Voigt Hill
#
# Bulk Modulus (GPa) = 21.88417 51.60012 36.74215
# Shear Modulus (GPa) = 13.33884 19.02881 16.18382
#
# Velocity S-wave (km/s) = 2.78488 3.32624 3.06752
# Velocity P-wave (km/s) = 4.80258 6.68980 5.82315
#
# Compressibility (1/GPa) = 0.04569512
#
# Stress axis : x y z
#
# Youngs Moduli (GPa) = 77.24302 89.43424 16.58788
#
# Poissons Ratio (x) = 0.41418 0.18703
# Poissons Ratio (y) = 0.35772 0.05727
# Poissons Ratio (z) = 0.87090 0.30879
#
# Static dielectric constant tensor:
#      x y z
#    x 3.196650 0.000000 0.000000 
#    y 0.000000 3.443700 0.000000 
#    z 0.000000 0.000000 2.789390 
# 
# 
# High freq. dielectric constant tensor:
#      x y z
#    x 1.654390 0.000000 0.000000 
#    y 0.000000 1.670820 0.000000 
#    z 0.000000 0.000000 1.604130 
# 
# From -- ./inp_files/26630.got.cif
#   From: 2010.06.25/outbox.cif.g09.slc.cpg/sg71_14_cif.got.tgz:26630.got - 2010.06.28 04:59:45.
