data_PCOD8292667
_publ_section_title
;
Structure prediction by ZEFSAII (Michael W. Deem and Ramdas Pophale) SiO2 
 PCOD8292667
Probable space group: I M M M
;
_chemical_formula_sum "Si O2"
_cell_formula_units_Z 112
_cell_length_a 23.430022
_cell_length_b 9.901025
_cell_length_c 34.211973
_cell_angle_alpha 90.000000
_cell_angle_beta 90.000000
_cell_angle_gamma 90.000000
_cell_volume 7936.535699
_symmetry_space_group_name_H-M "I M M M"
_symmetry_group_IT_number 71
_symmetry_cell_setting 'orthorhombic'
loop_
_space_group_symop_operation_xyz
x,y,z
-x,-y,z
x,-y,-z
-x,y,-z
-x,-y,-z
x,y,-z
-x,y,z
x,-y,z
1/2+x,1/2+y,1/2+z
1/2-x,1/2-y,1/2+z
1/2+x,1/2-y,1/2-z
1/2-x,1/2+y,1/2-z
1/2-x,1/2-y,1/2-z
1/2+x,1/2+y,1/2-z
1/2-x,1/2+y,1/2+z
1/2+x,1/2-y,1/2+z
loop_
_atom_site_type_symbol
_atom_site_label
_atom_site_fract_x
_atom_site_fract_y
_atom_site_fract_z
Si Si1 0.063703 0.339766 0.807342
Si Si2 0.222090 0.845702 0.303743
Si Si3 0.834428 0.656237 0.754565
Si Si4 0.753577 0.151529 0.956701
Si Si5 0.254826 0.846493 0.610097
Si Si6 0.889250 0.848536 0.043411
Si Si7 0.610915 0.844058 0.610903
O O1 0.067844 0.500000 0.808985
O O2 0.107182 0.288858 0.774047
O O3 0.081203 0.286180 0.850108
O O4 0.000000 0.289519 0.796870
O O5 0.176752 0.746087 0.283702
O O6 0.284880 0.822746 0.286276
O O7 0.223391 0.810442 0.349522
O O8 0.202711 0.000000 0.296756
O O9 0.839021 0.500000 0.741728
O O10 0.728795 0.252490 0.923998
O O11 0.821374 0.158570 0.956476
O O12 0.732984 0.000000 0.946733
O O13 0.731438 0.193524 0.000000
O O14 0.321829 0.823388 0.616092
O O15 0.242578 0.000000 0.597752
O O16 0.913876 0.742375 0.074685
O O17 0.909298 0.000000 0.054487
O O18 0.911780 0.810612 0.000000
O O19 0.595393 0.000000 0.603100
#
# Coordination Sequence:
#
# PCOD8292667 Si02
#       7
#    16  16  16  16  16  16  16
#     4   9  16  27  43  59  75  96 122 155 194 230
#     4   9  16  26  39  56  79 100 119 151 191 226
#     4   9  16  27  41  57  75  96 124 153 185 229
#     4   8  14  23  33  48  72  98 123 151 181 217
#     4   9  15  23  36  53  74  97 121 152 187 222
#     4   8  14  24  36  50  69  92 116 146 187 230
#     4   9  15  24  38  55  72  89 117 154 188 225
#
# _framework density 14.11195
#
# number of rings (size 3 to 8) (size 9 to 14) (size 15 to 20)
#    0.000    3.286    1.429    0.857    0.000    1.143 
#    0.000    3.571    0.000    2.143    0.000    3.000 
#    0.000    0.000    0.000    0.000    0.000    0.714 
#
# Total GULP energy -694100.193040 kJ/mol
# GULP energy per Si atom -12394.646304 kJ/mol
# Density = 1.407983 g / cm^3
# Si number density = 14.111950 Si / 1000 Ang^3
#
#
#
# Elastic Constant Matrix: (Units=GPa)
#
#
# Indices 1 2 3 4 5 6 
#
# 1 42.3920 28.8913 42.5963 0.0000 0.0000 0.0000
# 2 28.8913 73.3326 68.1483 0.0000 0.0000 0.0000
# 3 42.5963 68.1483 116.4130 0.0000 0.0000 0.0000
# 4 0.0000 0.0000 0.0000 29.5434 0.0000 0.0000
# 5 0.0000 0.0000 0.0000 0.0000 10.0937 0.0000
# 6 0.0000 0.0000 0.0000 0.0000 0.0000 8.4306
#
#
#
# Elastic Compliance Matrix: (Units=1/GPa)
#
#
# Indices 1 2 3 4 5 6 
#
# 1 0.037968 -0.004491 -0.011264 0.000000 0.000000 0.000000
# 2 -0.004491 0.030437 -0.016175 0.000000 0.000000 0.000000
# 3 -0.011264 -0.016175 0.022180 0.000000 0.000000 0.000000
# 4 0.000000 0.000000 0.000000 0.033849 0.000000 0.000000
# 5 0.000000 0.000000 0.000000 0.000000 0.099072 0.000000
# 6 0.000000 0.000000 0.000000 0.000000 0.000000 0.118615
#
#
# Mechanical properties :
#
#
# Convention : Reuss Voigt Hill
#
# Bulk Modulus (GPa) = 37.41592 56.82327 47.11960
# Shear Modulus (GPa) = 12.05144 15.78032 13.91588
#
# Velocity S-wave (km/s) = 2.92548 3.34761 3.14364
# Velocity P-wave (km/s) = 6.16299 7.43609 6.82927
#
# Compressibility (1/GPa) = 0.02672659
#
# Stress axis : x y z
#
# Youngs Moduli (GPa) = 26.33790 32.85481 45.08534
#
# Poissons Ratio (x) = 0.14755 0.50783
# Poissons Ratio (y) = 0.11829 0.72923
# Poissons Ratio (z) = 0.29666 0.53141
#
# Static dielectric constant tensor:
#      x y z
#    x 2.380940 0.000000 0.000000 
#    y 0.000000 2.804350 0.000000 
#    z 0.000000 0.000000 2.951850 
# 
# 
# High freq. dielectric constant tensor:
#      x y z
#    x 1.477060 0.000000 0.000000 
#    y 0.000000 1.531800 0.000000 
#    z 0.000000 0.000000 1.541240 
# 
# From -- ./inp_files/26462.got.cif
#   From: 2010.06.25/outbox.cif.g09.slc.cpg/sg71_14_cif.got.tgz:26462.got - 2010.06.28 04:59:45.
