data_PCOD8292827
_publ_section_title
;
Structure prediction by ZEFSAII (Michael W. Deem and Ramdas Pophale) SiO2 
 PCOD8292827
Probable space group: I B A M
;
_chemical_formula_sum "Si O2"
_cell_formula_units_Z 96
_cell_length_a 28.532884
_cell_length_b 22.748624
_cell_length_c 10.053936
_cell_angle_alpha 90.000000
_cell_angle_beta 90.000000
_cell_angle_gamma 90.000000
_cell_volume 6525.847484
_symmetry_space_group_name_H-M "I B A M"
_symmetry_group_IT_number 72
_symmetry_cell_setting 'orthorhombic'
loop_
_space_group_symop_operation_xyz
x,y,z
-x,-y,z
x,-y,1/2-z
-x,y,1/2-z
-x,-y,-z
x,y,-z
-x,y,1/2+z
x,-y,1/2+z
1/2+x,1/2+y,1/2+z
1/2-x,1/2-y,1/2+z
1/2+x,1/2-y,-z
1/2-x,1/2+y,-z
1/2-x,1/2-y,1/2-z
1/2+x,1/2+y,1/2-z
1/2-x,1/2+y,z
1/2+x,1/2-y,z
loop_
_atom_site_type_symbol
_atom_site_label
_atom_site_fract_x
_atom_site_fract_y
_atom_site_fract_z
Si Si1 0.058688 0.369436 0.000000
Si Si2 0.361346 0.073315 0.000000
Si Si3 0.815200 0.630694 0.752513
Si Si4 0.954418 0.628391 0.500000
Si Si5 0.360271 0.252287 0.346544
Si Si6 0.051733 0.711677 0.247555
Si Si7 0.345959 0.937561 0.000000
Si Si8 0.766341 0.198154 0.655552
O O1 0.063065 0.329673 0.128630
O O2 0.099601 0.417810 0.000000
O O3 0.006753 0.399098 0.000000
O O4 0.344625 0.107354 0.870483
O O5 0.418185 0.074331 0.000000
O O6 0.343386 0.007358 0.000000
O O7 0.836080 0.691790 0.802754
O O8 0.760982 0.639665 0.704352
O O9 0.817588 0.583941 0.871147
O O10 0.944301 0.670662 0.377901
O O11 0.375098 0.247515 0.500000
O O12 0.407386 0.261660 0.256219
O O13 0.323121 0.305904 0.326599
O O14 0.000000 0.741280 0.250000
O O15 0.754636 0.211622 0.500000
O O16 0.750000 0.250000 0.750000
#
# Coordination Sequence:
#
# PCOD8292827 Si02
#       8
#     8   8  16   8  16  16   8  16
#     4  10  18  33  43  53  78 114 149 180 227 263
#     4  12  22  31  46  64  81 109 151 196 229 252
#     4  11  19  34  44  62  89 105 139 189 219 264
#     4  10  20  29  43  59  80 108 143 196 227 243
#     4  10  16  30  49  64  82 112 139 169 217 270
#     4  10  17  27  44  62  82 111 139 173 219 256
#     4  12  22  33  48  58  79 121 151 182 233 268
#     4   9  19  29  47  68  84 105 133 171 223 263
#
# _framework density 14.710732
#
# number of rings (size 3 to 8) (size 9 to 14) (size 15 to 20)
#    0.000    1.667    5.833    0.500    1.167    0.333 
#    0.000    0.000    0.000    5.000    0.000    0.000 
#    0.000    0.000    0.000    0.000    0.000    5.000 
#
# Total GULP energy -594650.892513 kJ/mol
# GULP energy per Si atom -12388.560261 kJ/mol
# Density = 1.467725 g / cm^3
# Si number density = 14.710732 Si / 1000 Ang^3
#
#
#
# Elastic Constant Matrix: (Units=GPa)
#
#
# Indices 1 2 3 4 5 6 
#
# 1 103.5524 30.8996 14.2079 0.0000 0.0000 0.0000
# 2 30.8996 25.0233 5.6067 0.0000 0.0000 0.0000
# 3 14.2079 5.6067 75.2384 0.0000 0.0000 0.0000
# 4 0.0000 0.0000 0.0000 20.1250 0.0000 0.0000
# 5 0.0000 0.0000 0.0000 0.0000 24.0601 0.0000
# 6 0.0000 0.0000 0.0000 0.0000 0.0000 18.3476
#
#
#
# Elastic Compliance Matrix: (Units=1/GPa)
#
#
# Indices 1 2 3 4 5 6 
#
# 1 0.015461 -0.018751 -0.001522 0.000000 0.000000 0.000000
# 2 -0.018751 0.063382 -0.001182 0.000000 0.000000 0.000000
# 3 -0.001522 -0.001182 0.013667 0.000000 0.000000 0.000000
# 4 0.000000 0.000000 0.000000 0.049689 0.000000 0.000000
# 5 0.000000 0.000000 0.000000 0.000000 0.041563 0.000000
# 6 0.000000 0.000000 0.000000 0.000000 0.000000 0.054503
#
#
# Mechanical properties :
#
#
# Convention : Reuss Voigt Hill
#
# Bulk Modulus (GPa) = 20.16180 33.91582 27.03881
# Shear Modulus (GPa) = 16.79501 22.71320 19.75410
#
# Velocity S-wave (km/s) = 3.38255 3.93362 3.66845
# Velocity P-wave (km/s) = 5.38431 6.61335 6.03022
#
# Compressibility (1/GPa) = 0.04959874
#
# Stress axis : x y z
#
# Youngs Moduli (GPa) = 64.67917 15.77745 73.17078
#
# Poissons Ratio (x) = 0.29584 0.11139
# Poissons Ratio (y) = 1.21277 0.08651
# Poissons Ratio (z) = 0.09846 0.01865
#
# Static dielectric constant tensor:
#      x y z
#    x 3.653140 0.000000 0.000000 
#    y 0.000000 2.481940 0.000000 
#    z 0.000000 0.000000 3.090540 
# 
# 
# High freq. dielectric constant tensor:
#      x y z
#    x 1.574750 0.000000 0.000000 
#    y 0.000000 1.490130 0.000000 
#    z 0.000000 0.000000 1.588170 
# 
# From -- ./inp_files/16369.got.cif
#   From: 2010.03.12/outbox.cif.g09.slc.cpg/sg72_9_cif.got.tgz:16369.got - 2010.04.16 14:54:00.
