data_PCOD8292564
_publ_section_title
;
Structure prediction by ZEFSAII (Michael W. Deem and Ramdas Pophale) SiO2 
 PCOD8292564
Probable space group: I M M M
;
_chemical_formula_sum "Si O2"
_cell_formula_units_Z 64
_cell_length_a 22.026655
_cell_length_b 8.599191
_cell_length_c 16.411378
_cell_angle_alpha 90.000000
_cell_angle_beta 90.000000
_cell_angle_gamma 90.000000
_cell_volume 3108.502303
_symmetry_space_group_name_H-M "I M M M"
_symmetry_group_IT_number 71
_symmetry_cell_setting 'orthorhombic'
loop_
_space_group_symop_operation_xyz
x,y,z
-x,-y,z
x,-y,-z
-x,y,-z
-x,-y,-z
x,y,-z
-x,y,z
x,-y,z
1/2+x,1/2+y,1/2+z
1/2-x,1/2-y,1/2+z
1/2+x,1/2-y,1/2-z
1/2-x,1/2+y,1/2-z
1/2-x,1/2-y,1/2-z
1/2+x,1/2+y,1/2-z
1/2-x,1/2+y,1/2+z
1/2+x,1/2-y,1/2+z
loop_
_atom_site_type_symbol
_atom_site_label
_atom_site_fract_x
_atom_site_fract_y
_atom_site_fract_z
Si Si1 0.360075 0.683736 0.347647
Si Si2 0.500000 0.676593 0.096358
Si Si3 0.928213 0.678922 0.000000
Si Si4 0.236794 0.183262 0.594143
Si Si5 0.617440 0.183545 0.175161
O O1 0.359178 0.500000 0.345228
O O2 0.402152 0.739536 0.420698
O O3 0.291660 0.744112 0.355333
O O4 0.388769 0.748534 0.265312
O O5 0.500000 0.500000 0.130361
O O6 0.441540 0.768769 0.125748
O O7 0.500000 0.674794 0.000000
O O8 0.907178 0.500000 0.000000
O O9 0.000000 0.696406 0.000000
O O10 0.244039 0.230413 0.500000
O O11 0.174732 0.249012 0.628181
O O12 0.237287 0.000000 0.606388
O O13 0.623167 0.000000 0.180026
#
# Coordination Sequence:
#
# PCOD8292564 Si02
#       5
#    16   8   8  16  16
#     4  12  25  43  68  98 134 173 223 273 327 391
#     4  11  25  47  71  98 133 172 219 271 331 393
#     4  11  25  45  69  97 135 176 219 270 332 394
#     4  11  23  42  68  97 134 174 219 273 333 392
#     4  12  26  43  67  97 134 174 221 273 330 392
#
# _framework density 20.588692000000002
#
# number of rings (size 3 to 8) (size 9 to 14) (size 15 to 20)
#    0.000    0.500    1.250    7.500    1.750    6.500 
#    0.000    0.000    0.000    0.000    0.000    0.000 
#    0.000    0.000    0.000    0.000    0.000    0.000 
#
# Total GULP energy -397071.753276 kJ/mol
# GULP energy per Si atom -12408.492290 kJ/mol
# Density = 2.054183 g / cm^3
# Si number density = 20.588692 Si / 1000 Ang^3
#
#
#
# Elastic Constant Matrix: (Units=GPa)
#
#
# Indices 1 2 3 4 5 6 
#
# 1 116.6401 33.1733 41.3445 0.0000 0.0000 0.0000
# 2 33.1733 126.7371 66.8566 0.0000 0.0000 0.0000
# 3 41.3445 66.8566 100.8639 0.0000 0.0000 0.0000
# 4 0.0000 0.0000 0.0000 38.4693 0.0000 0.0000
# 5 0.0000 0.0000 0.0000 0.0000 15.6777 0.0000
# 6 0.0000 0.0000 0.0000 0.0000 0.0000 47.6847
#
#
#
# Elastic Compliance Matrix: (Units=1/GPa)
#
#
# Indices 1 2 3 4 5 6 
#
# 1 0.010072 -0.000705 -0.003661 0.000000 0.000000 0.000000
# 2 -0.000705 0.012182 -0.007786 0.000000 0.000000 0.000000
# 3 -0.003661 -0.007786 0.016576 0.000000 0.000000 0.000000
# 4 0.000000 0.000000 0.000000 0.025995 0.000000 0.000000
# 5 0.000000 0.000000 0.000000 0.000000 0.063785 0.000000
# 6 0.000000 0.000000 0.000000 0.000000 0.000000 0.020971
#
#
# Mechanical properties :
#
#
# Convention : Reuss Voigt Hill
#
# Bulk Modulus (GPa) = 68.84327 69.66555 69.25441
# Shear Modulus (GPa) = 27.97583 33.89079 30.93331
#
# Velocity S-wave (km/s) = 3.69018 4.06160 3.88034
# Velocity P-wave (km/s) = 7.18795 7.47701 7.33391
#
# Compressibility (1/GPa) = 0.01452575
#
# Stress axis : x y z
#
# Youngs Moduli (GPa) = 99.28911 82.08809 60.32883
#
# Poissons Ratio (x) = 0.05786 0.22087
# Poissons Ratio (y) = 0.06999 0.46971
# Poissons Ratio (z) = 0.36351 0.63912
#
# Static dielectric constant tensor:
#      x y z
#    x 3.864320 0.000000 0.000000 
#    y 0.000000 4.029330 0.000000 
#    z 0.000000 0.000000 4.028290 
# 
# 
# High freq. dielectric constant tensor:
#      x y z
#    x 1.822160 0.000000 0.000000 
#    y 0.000000 1.827510 0.000000 
#    z 0.000000 0.000000 1.824220 
# 
# From -- ./inp_files/46808.got.cif
#   From: 2010.06.25/outbox.cif.g09.slc.cpg/sg71_24_cif.got.tgz:46808.got - 2010.06.28 04:59:45.
