data_PCOD8292828
_publ_section_title
;
Structure prediction by ZEFSAII (Michael W. Deem and Ramdas Pophale) SiO2 
 PCOD8292828
Probable space group: I B A M
;
_chemical_formula_sum "Si O2"
_cell_formula_units_Z 64
_cell_length_a 5.196545
_cell_length_b 15.854619
_cell_length_c 36.348839
_cell_angle_alpha 90.000000
_cell_angle_beta 90.000000
_cell_angle_gamma 90.000000
_cell_volume 2994.753260
_symmetry_space_group_name_H-M "I B A M"
_symmetry_group_IT_number 72
_symmetry_cell_setting 'orthorhombic'
loop_
_space_group_symop_operation_xyz
x,y,z
-x,-y,z
x,-y,1/2-z
-x,y,1/2-z
-x,-y,-z
x,y,-z
-x,y,1/2+z
x,-y,1/2+z
1/2+x,1/2+y,1/2+z
1/2-x,1/2-y,1/2+z
1/2+x,1/2-y,-z
1/2-x,1/2+y,-z
1/2-x,1/2-y,1/2-z
1/2+x,1/2+y,1/2-z
1/2-x,1/2+y,z
1/2+x,1/2-y,z
loop_
_atom_site_type_symbol
_atom_site_label
_atom_site_fract_x
_atom_site_fract_y
_atom_site_fract_z
Si Si1 0.798177 0.303570 0.349738
Si Si2 0.746395 0.844227 0.733853
Si Si3 0.024593 0.899771 0.458417
Si Si4 0.528081 0.099468 0.081580
O O1 0.508806 0.269969 0.355607
O O2 0.790230 0.344683 0.309677
O O3 0.884664 0.376828 0.377415
O O4 0.500000 0.893347 0.750000
O O5 0.750000 0.750000 0.750000
O O6 0.000000 0.890805 0.750000
O O7 0.081248 0.870706 0.500000
O O8 0.253808 0.863427 0.432285
O O9 0.750394 0.863507 0.445136
O O10 0.000000 0.000000 0.455804
O O11 0.500000 0.000000 0.079333
#
# Coordination Sequence:
#
# PCOD8292828 Si02
#       4
#    16  16  16  16
#     4  12  21  33  55  81 109 141 179 227 268 318
#     4  10  16  30  49  76 102 128 176 226 241 287
#     4   9  17  33  57  79 101 139 188 225 255 314
#     4  10  21  35  53  82 112 138 174 226 280 322
#
# _framework density 21.370709999999999
#
# number of rings (size 3 to 8) (size 9 to 14) (size 15 to 20)
#    0.000    1.750    5.000    2.250    0.000    3.000 
#    0.000    0.000    0.000   15.750    0.000    3.500 
#    0.000    0.000    0.000    0.000    0.000    0.000 
#
# Total GULP energy -396470.517887 kJ/mol
# GULP energy per Si atom -12389.703684 kJ/mol
# Density = 2.132207 g / cm^3
# Si number density = 21.370710 Si / 1000 Ang^3
#
#
#
# Elastic Constant Matrix: (Units=GPa)
#
#
# Indices 1 2 3 4 5 6 
#
# 1 199.8845 15.4739 69.7610 0.0000 0.0000 0.0000
# 2 15.4739 3.1042 10.7669 0.0000 0.0000 0.0000
# 3 69.7610 10.7669 167.1210 0.0000 0.0000 0.0000
# 4 0.0000 0.0000 0.0000 23.0458 0.0000 0.0000
# 5 0.0000 0.0000 0.0000 0.0000 47.8004 0.0000
# 6 0.0000 0.0000 0.0000 0.0000 0.0000 12.1761
#
#
#
# Elastic Compliance Matrix: (Units=1/GPa)
#
#
# Indices 1 2 3 4 5 6 
#
# 1 0.008281 -0.037719 -0.001027 0.000000 0.000000 0.000000
# 2 -0.037719 0.586637 -0.022050 0.000000 0.000000 0.000000
# 3 -0.001027 -0.022050 0.007833 0.000000 0.000000 0.000000
# 4 0.000000 0.000000 0.000000 0.043392 0.000000 0.000000
# 5 0.000000 0.000000 0.000000 0.000000 0.020920 0.000000
# 6 0.000000 0.000000 0.000000 0.000000 0.000000 0.082128
#
#
# Mechanical properties :
#
#
# Convention : Reuss Voigt Hill
#
# Bulk Modulus (GPa) = 2.07831 62.45705 32.26768
# Shear Modulus (GPa) = 4.84887 34.87832 19.86360
#
# Velocity S-wave (km/s) = 1.50793 4.04426 3.05204
# Velocity P-wave (km/s) = 2.00161 7.14822 5.24897
#
# Compressibility (1/GPa) = 0.48116090
#
# Stress axis : x y z
#
# Youngs Moduli (GPa) = 120.75562 1.70463 127.66747
#
# Poissons Ratio (x) = 0.06430 0.13108
# Poissons Ratio (y) = 4.55473 2.81503
# Poissons Ratio (z) = 0.12399 0.03759
#
# Static dielectric constant tensor:
#      x y z
#    x 3.412600 0.000000 0.000000 
#    y 0.000000 3.499850 0.000000 
#    z 0.000000 0.000000 3.916140 
# 
# 
# High freq. dielectric constant tensor:
#      x y z
#    x 1.875510 0.000000 0.000000 
#    y 0.000000 1.763640 0.000000 
#    z 0.000000 0.000000 1.849340 
# 
# From -- ./inp_files/50155.got.cif
#   From: 2010.03.12/outbox.cif.g09.slc.cpg/sg72_26_cif.got.tgz:50155.got - 2010.04.16 14:54:00.
