data_PCOD8292140
_publ_section_title
;
Structure prediction by ZEFSAII (Michael W. Deem and Ramdas Pophale) SiO2 
 PCOD8292140
Probable space group: I M M M
;
_chemical_formula_sum "Si O2"
_cell_formula_units_Z 112
_cell_length_a 23.455181
_cell_length_b 17.261537
_cell_length_c 13.899009
_cell_angle_alpha 90.000000
_cell_angle_beta 90.000000
_cell_angle_gamma 90.000000
_cell_volume 5627.326169
_symmetry_space_group_name_H-M "I M M M"
_symmetry_group_IT_number 71
_symmetry_cell_setting 'orthorhombic'
loop_
_space_group_symop_operation_xyz
x,y,z
-x,-y,z
x,-y,-z
-x,y,-z
-x,-y,-z
x,y,-z
-x,y,z
x,-y,z
1/2+x,1/2+y,1/2+z
1/2-x,1/2-y,1/2+z
1/2+x,1/2-y,1/2-z
1/2-x,1/2+y,1/2-z
1/2-x,1/2-y,1/2-z
1/2+x,1/2+y,1/2-z
1/2-x,1/2+y,1/2+z
1/2+x,1/2-y,1/2+z
loop_
_atom_site_type_symbol
_atom_site_label
_atom_site_fract_x
_atom_site_fract_y
_atom_site_fract_z
Si Si1 0.275891 0.158737 0.889898
Si Si2 0.619550 0.910903 0.783741
Si Si3 0.064868 0.836283 0.887893
Si Si4 0.330275 0.319387 0.109447
Si Si5 0.937064 0.278403 0.610737
Si Si6 0.170037 0.090027 0.794237
Si Si7 0.434440 0.842086 0.610457
O O1 0.317343 0.112581 0.817883
O O2 0.283989 0.251017 0.878516
O O3 0.211249 0.138737 0.863927
O O4 0.289229 0.134336 0.000000
O O5 0.571839 0.859536 0.835999
O O6 0.609811 0.895025 0.670223
O O7 0.608931 0.000000 0.808063
O O8 0.105640 0.890444 0.824553
O O9 0.072746 0.747009 0.856549
O O10 0.000000 0.862680 0.868299
O O11 0.079739 0.846243 0.000000
O O12 0.392102 0.286783 0.140937
O O13 0.317006 0.388550 0.182971
O O14 0.330361 0.351448 0.000000
O O15 0.927978 0.298288 0.500000
O O16 0.000000 0.246189 0.633804
O O17 0.182318 0.000000 0.807826
O O18 0.417001 0.852110 0.500000
O O19 0.500000 0.868227 0.626237
#
# Coordination Sequence:
#
# PCOD8292140 Si02
#       7
#    16  16  16  16  16  16  16
#     4  10  22  41  61  79 105 144 187 226 266 321
#     4  11  21  32  50  77 110 146 181 224 278 326
#     4   9  19  37  59  81 107 141 182 228 276 330
#     4   9  20  39  60  80 105 143 187 224 258 306
#     4   9  18  33  54  79 106 140 182 224 267 318
#     4  12  24  36  57  87 115 143 174 218 279 335
#     4   9  19  36  56  78 108 149 193 232 270 317
#
# _framework density 19.902878999999999
#
# number of rings (size 3 to 8) (size 9 to 14) (size 15 to 20)
#    0.000    2.143    0.000    5.571    0.000    6.571 
#    0.000    4.286    0.000    1.714    0.000    3.000 
#    0.000    0.000    0.000    0.000    0.000    0.000 
#
# Total GULP energy -694450.095467 kJ/mol
# GULP energy per Si atom -12400.894562 kJ/mol
# Density = 1.985758 g / cm^3
# Si number density = 19.902879 Si / 1000 Ang^3
#
#
#
# Elastic Constant Matrix: (Units=GPa)
#
#
# Indices 1 2 3 4 5 6 
#
# 1 93.5328 22.1250 33.7964 0.0000 0.0000 0.0000
# 2 22.1250 48.9182 21.2885 0.0000 0.0000 0.0000
# 3 33.7964 21.2885 79.9647 0.0000 0.0000 0.0000
# 4 0.0000 0.0000 0.0000 17.3268 0.0000 0.0000
# 5 0.0000 0.0000 0.0000 0.0000 29.8389 0.0000
# 6 0.0000 0.0000 0.0000 0.0000 0.0000 13.4071
#
#
#
# Elastic Compliance Matrix: (Units=1/GPa)
#
#
# Indices 1 2 3 4 5 6 
#
# 1 0.013286 -0.004033 -0.004542 0.000000 0.000000 0.000000
# 2 -0.004033 0.024345 -0.004777 0.000000 0.000000 0.000000
# 3 -0.004542 -0.004777 0.015697 0.000000 0.000000 0.000000
# 4 0.000000 0.000000 0.000000 0.057714 0.000000 0.000000
# 5 0.000000 0.000000 0.000000 0.000000 0.033513 0.000000
# 6 0.000000 0.000000 0.000000 0.000000 0.000000 0.074587
#
#
# Mechanical properties :
#
#
# Convention : Reuss Voigt Hill
#
# Bulk Modulus (GPa) = 37.55790 41.87059 39.71425
# Shear Modulus (GPa) = 19.62934 21.79495 20.71214
#
# Velocity S-wave (km/s) = 3.14388 3.31277 3.22943
# Velocity P-wave (km/s) = 5.66482 5.97626 5.82262
#
# Compressibility (1/GPa) = 0.02662556
#
# Stress axis : x y z
#
# Youngs Moduli (GPa) = 75.26445 41.07615 63.70731
#
# Poissons Ratio (x) = 0.16565 0.28935
# Poissons Ratio (y) = 0.30352 0.30432
# Poissons Ratio (z) = 0.34184 0.19621
#
# Static dielectric constant tensor:
#      x y z
#    x 3.667110 0.000000 0.000000 
#    y 0.000000 3.279540 0.000000 
#    z 0.000000 0.000000 3.753180 
# 
# 
# High freq. dielectric constant tensor:
#      x y z
#    x 1.774220 0.000000 0.000000 
#    y 0.000000 1.742790 0.000000 
#    z 0.000000 0.000000 1.790950 
# 
# From -- ./inp_files/39246.got.cif
#   From: 2010.06.25/outbox.cif.g09.slc.cpg/sg71_20_cif.got.tgz:39246.got - 2010.06.28 04:59:45.
