data_PCOD8292872
_publ_section_title
;
Structure prediction by ZEFSAII (Michael W. Deem and Ramdas Pophale) SiO2 
 PCOD8292872
Probable space group: I B A M
;
_chemical_formula_sum "Si O2"
_cell_formula_units_Z 68
_cell_length_a 8.122394
_cell_length_b 23.181076
_cell_length_c 21.223722
_cell_angle_alpha 90.000000
_cell_angle_beta 90.000000
_cell_angle_gamma 90.000000
_cell_volume 3996.126168
_symmetry_space_group_name_H-M "I B A M"
_symmetry_group_IT_number 72
_symmetry_cell_setting 'orthorhombic'
loop_
_space_group_symop_operation_xyz
x,y,z
-x,-y,z
x,-y,1/2-z
-x,y,1/2-z
-x,-y,-z
x,y,-z
-x,y,1/2+z
x,-y,1/2+z
1/2+x,1/2+y,1/2+z
1/2-x,1/2-y,1/2+z
1/2+x,1/2-y,-z
1/2-x,1/2+y,-z
1/2-x,1/2-y,1/2-z
1/2+x,1/2+y,1/2-z
1/2-x,1/2+y,z
1/2+x,1/2-y,z
loop_
_atom_site_type_symbol
_atom_site_label
_atom_site_fract_x
_atom_site_fract_y
_atom_site_fract_z
Si Si1 0.996477 0.334125 0.931107
Si Si2 0.684750 0.273778 0.112154
Si Si3 0.000000 0.500000 0.750000
Si Si4 0.888811 0.609878 0.806156
Si Si5 0.896705 0.805811 0.310622
O O1 0.807816 0.312988 0.927703
O O2 0.121207 0.280318 0.928347
O O3 0.032134 0.378628 0.874687
O O4 0.020095 0.363545 0.000000
O O5 0.776914 0.247966 0.174046
O O6 0.529307 0.312900 0.132793
O O7 0.884642 0.540650 0.794246
O O8 0.704511 0.634923 0.802445
O O9 0.000000 0.638502 0.750000
O O10 0.000000 0.789293 0.250000
#
# Coordination Sequence:
#
# PCOD8292872 Si02
#       5
#    16  16   4  16  16
#     4  10  18  31  50  76 105 140 169 196 240 304
#     4   9  19  28  43  74 115 139 160 193 238 298
#     4   8  20  40  56  68  96 120 172 236 276 282
#     4   9  19  35  55  70  96 129 170 220 257 296
#     4  10  17  28  47  75 105 138 168 196 241 302
#
# _framework density 17.016479
#
# number of rings (size 3 to 8) (size 9 to 14) (size 15 to 20)
#    0.706    1.882    0.000    2.824    0.000    6.588 
#    0.000    2.353    0.000    0.000    0.000    1.647 
#    0.000    0.000    0.000    0.000    0.000    0.000 
#
# Total GULP energy -421292.754640 kJ/mol
# GULP energy per Si atom -12390.963372 kJ/mol
# Density = 1.697775 g / cm^3
# Si number density = 17.016479 Si / 1000 Ang^3
#
#
#
# Elastic Constant Matrix: (Units=GPa)
#
#
# Indices 1 2 3 4 5 6 
#
# 1 102.4301 36.0209 38.5658 0.0000 0.0000 0.0000
# 2 36.0209 75.6526 41.7008 0.0000 0.0000 0.0000
# 3 38.5658 41.7008 132.1283 0.0000 0.0000 0.0000
# 4 0.0000 0.0000 0.0000 14.6525 0.0000 0.0000
# 5 0.0000 0.0000 0.0000 0.0000 10.8359 0.0000
# 6 0.0000 0.0000 0.0000 0.0000 0.0000 9.9504
#
#
#
# Elastic Compliance Matrix: (Units=1/GPa)
#
#
# Indices 1 2 3 4 5 6 
#
# 1 0.012184 -0.004650 -0.002089 0.000000 0.000000 0.000000
# 2 -0.004650 0.017777 -0.004253 0.000000 0.000000 0.000000
# 3 -0.002089 -0.004253 0.009520 0.000000 0.000000 0.000000
# 4 0.000000 0.000000 0.000000 0.068248 0.000000 0.000000
# 5 0.000000 0.000000 0.000000 0.000000 0.092286 0.000000
# 6 0.000000 0.000000 0.000000 0.000000 0.000000 0.100499
#
#
# Mechanical properties :
#
#
# Convention : Reuss Voigt Hill
#
# Bulk Modulus (GPa) = 57.15110 60.30954 58.73032
# Shear Modulus (GPa) = 15.22854 20.01599 17.62226
#
# Velocity S-wave (km/s) = 2.99478 3.43340 3.22156
# Velocity P-wave (km/s) = 6.75403 7.15796 6.95893
#
# Compressibility (1/GPa) = 0.01749748
#
# Stress axis : x y z
#
# Youngs Moduli (GPa) = 82.07165 56.25298 105.03708
#
# Poissons Ratio (x) = 0.26158 0.21940
# Poissons Ratio (y) = 0.38164 0.44675
# Poissons Ratio (z) = 0.17143 0.23926
#
# Static dielectric constant tensor:
#      x y z
#    x 3.424650 0.000000 0.000000 
#    y 0.000000 2.708200 0.000000 
#    z 0.000000 0.000000 3.129140 
# 
# 
# High freq. dielectric constant tensor:
#      x y z
#    x 1.667340 0.000000 0.000000 
#    y 0.000000 1.598320 0.000000 
#    z 0.000000 0.000000 1.657650 
# 
# From -- ./inp_files/28269.got.cif
#   From: 2010.03.12/outbox.cif.g09.slc.cpg/sg72_15_cif.got.tgz:28269.got - 2010.04.16 14:54:00.
