data_PCOD8292879
_publ_section_title
;
Structure prediction by ZEFSAII (Michael W. Deem and Ramdas Pophale) SiO2 
 PCOD8292879
Probable space group: I B A M
;
_chemical_formula_sum "Si O2"
_cell_formula_units_Z 96
_cell_length_a 19.524838
_cell_length_b 11.530345
_cell_length_c 24.080804
_cell_angle_alpha 90.000000
_cell_angle_beta 90.000000
_cell_angle_gamma 90.000000
_cell_volume 5421.266089
_symmetry_space_group_name_H-M "I B A M"
_symmetry_group_IT_number 72
_symmetry_cell_setting 'orthorhombic'
loop_
_space_group_symop_operation_xyz
x,y,z
-x,-y,z
x,-y,1/2-z
-x,y,1/2-z
-x,-y,-z
x,y,-z
-x,y,1/2+z
x,-y,1/2+z
1/2+x,1/2+y,1/2+z
1/2-x,1/2-y,1/2+z
1/2+x,1/2-y,-z
1/2-x,1/2+y,-z
1/2-x,1/2-y,1/2-z
1/2+x,1/2+y,1/2-z
1/2-x,1/2+y,z
1/2+x,1/2-y,z
loop_
_atom_site_type_symbol
_atom_site_label
_atom_site_fract_x
_atom_site_fract_y
_atom_site_fract_z
Si Si1 0.826118 0.972228 0.808525
Si Si2 0.836745 0.779670 0.642705
Si Si3 0.313156 0.758710 0.853874
Si Si4 0.089904 0.607461 0.435872
Si Si5 0.564083 0.156712 0.436292
Si Si6 0.182098 0.382521 0.262077
O O1 0.855211 0.860959 0.842388
O O2 0.748802 0.932461 0.793838
O O3 0.864778 0.000000 0.750000
O O4 0.833493 0.082576 0.848129
O O5 0.762425 0.738089 0.620001
O O6 0.895434 0.752911 0.598373
O O7 0.856776 0.709581 0.699119
O O8 0.355060 0.835485 0.896196
O O9 0.297273 0.821210 0.795228
O O10 0.106150 0.636619 0.500000
O O11 0.095031 0.470336 0.425688
O O12 0.015526 0.656170 0.419376
O O13 0.571918 0.192061 0.500000
O O14 0.136883 0.500000 0.250000
#
# Coordination Sequence:
#
# PCOD8292879 Si02
#       6
#    16  16  16  16  16  16
#     4  10  17  31  47  80 114 149 172 206 272 331
#     4  11  19  31  55  82 112 144 181 225 268 333
#     4  11  19  30  56  83 111 146 183 223 272 332
#     4   9  20  40  59  77 105 143 188 237 286 327
#     4   9  20  39  60  77 103 146 188 234 288 329
#     4  10  17  28  49  81 112 142 176 218 271 322
#
# _framework density 17.708041000000001
#
# number of rings (size 3 to 8) (size 9 to 14) (size 15 to 20)
#    0.000    2.000    5.000    3.000    2.333    0.667 
#    0.000    2.500    0.000    6.000    0.000    0.000 
#    0.000    0.000    0.000    0.000    0.000    0.000 
#
# Total GULP energy -594758.594789 kJ/mol
# GULP energy per Si atom -12390.804058 kJ/mol
# Density = 1.766774 g / cm^3
# Si number density = 17.708041 Si / 1000 Ang^3
#
#
#
# Elastic Constant Matrix: (Units=GPa)
#
#
# Indices 1 2 3 4 5 6 
#
# 1 58.9085 25.7136 43.2674 0.0000 0.0000 0.0000
# 2 25.7136 112.0806 35.9720 0.0000 0.0000 0.0000
# 3 43.2674 35.9720 74.9244 0.0000 0.0000 0.0000
# 4 0.0000 0.0000 0.0000 31.0491 0.0000 0.0000
# 5 0.0000 0.0000 0.0000 0.0000 -6.1744 0.0000
# 6 0.0000 0.0000 0.0000 0.0000 0.0000 24.0675
#
#
#
# Elastic Compliance Matrix: (Units=1/GPa)
#
#
# Indices 1 2 3 4 5 6 
#
# 1 0.029704 -0.001548 -0.016411 0.000000 0.000000 0.000000
# 2 -0.001548 0.010628 -0.004209 0.000000 0.000000 0.000000
# 3 -0.016411 -0.004209 0.024844 0.000000 0.000000 0.000000
# 4 0.000000 0.000000 0.000000 0.032207 0.000000 0.000000
# 5 0.000000 0.000000 0.000000 0.000000 -0.161958 0.000000
# 6 0.000000 0.000000 0.000000 0.000000 0.000000 0.041550
#
#
# Mechanical properties :
#
#
# Convention : Reuss Voigt Hill
#
# Bulk Modulus (GPa) = 47.97937 50.64659 49.31298
# Shear Modulus (GPa) = 176.94269 19.18579 98.06424
#
# Velocity S-wave (km/s) = 10.00695 3.29515 7.44974
# Velocity P-wave (km/s) = 12.67566 6.56813 10.09487
#
# Compressibility (1/GPa) = 0.02084229
#
# Stress axis : x y z
#
# Youngs Moduli (GPa) = 33.66504 94.09059 40.25076
#
# Poissons Ratio (x) = 0.14564 0.66054
# Poissons Ratio (y) = 0.05211 0.16941
# Poissons Ratio (z) = 0.55246 0.39601
#
# Static dielectric constant tensor:
#      x y z
#    x 2.862660 0.000000 0.000000 
#    y 0.000000 3.848770 0.000000 
#    z 0.000000 0.000000 3.256870 
# 
# 
# High freq. dielectric constant tensor:
#      x y z
#    x 1.635650 0.000000 0.000000 
#    y 0.000000 1.702060 0.000000 
#    z 0.000000 0.000000 1.676710 
# 
# From -- ./inp_files/44797.got.cif
#   From: 2010.03.12/outbox.cif.g09.slc.cpg/sg72_23_cif.got.tgz:44797.got - 2010.04.16 14:54:00.
