data_PCOD8292770
_publ_section_title
;
Structure prediction by ZEFSAII (Michael W. Deem and Ramdas Pophale) SiO2 
 PCOD8292770
Probable space group: I M M M
;
_chemical_formula_sum "Si O2"
_cell_formula_units_Z 96
_cell_length_a 9.734947
_cell_length_b 18.239857
_cell_length_c 32.445534
_cell_angle_alpha 90.000000
_cell_angle_beta 90.000000
_cell_angle_gamma 90.000000
_cell_volume 5761.160135
_symmetry_space_group_name_H-M "I M M M"
_symmetry_group_IT_number 71
_symmetry_cell_setting 'orthorhombic'
loop_
_space_group_symop_operation_xyz
x,y,z
-x,-y,z
x,-y,-z
-x,y,-z
-x,-y,-z
x,y,-z
-x,y,z
x,-y,z
1/2+x,1/2+y,1/2+z
1/2-x,1/2-y,1/2+z
1/2+x,1/2-y,1/2-z
1/2-x,1/2+y,1/2-z
1/2-x,1/2-y,1/2-z
1/2+x,1/2+y,1/2-z
1/2-x,1/2+y,1/2+z
1/2+x,1/2-y,1/2+z
loop_
_atom_site_type_symbol
_atom_site_label
_atom_site_fract_x
_atom_site_fract_y
_atom_site_fract_z
Si Si1 0.842152 0.356413 0.838892
Si Si2 0.156634 0.918646 0.406204
Si Si3 0.339948 0.725167 0.952947
Si Si4 0.657598 0.709456 0.614734
Si Si5 0.341507 0.583946 0.324354
Si Si6 0.157502 0.584775 0.751726
O O1 0.750800 0.410465 0.866179
O O2 0.814180 0.272595 0.851577
O O3 0.801993 0.366399 0.791185
O O4 0.000000 0.379129 0.845926
O O5 0.195272 0.858825 0.440832
O O6 0.000000 0.907523 0.391764
O O7 0.178780 0.000000 0.425009
O O8 0.500000 0.742353 0.946431
O O9 0.253495 0.781152 0.925072
O O10 0.295452 0.736770 0.000000
O O11 0.500000 0.711440 0.599814
O O12 0.695128 0.632270 0.635740
O O13 0.500000 0.594625 0.311903
O O14 0.307848 0.500000 0.335844
O O15 0.251646 0.611008 0.285910
O O16 0.184995 0.500000 0.762649
O O17 0.000000 0.597561 0.738824
#
# Coordination Sequence:
#
# PCOD8292770 Si02
#       6
#    16  16  16  16  16  16
#     4   9  17  29  44  63  90 123 156 188 220 254
#     4   9  17  28  43  65  92 122 155 186 215 251
#     4   9  18  32  49  69  92 117 145 179 221 266
#     4   9  18  32  49  68  89 115 148 184 223 267
#     4   9  18  32  48  66  89 116 146 183 227 270
#     4   9  17  28  42  62  89 121 154 184 216 256
#
# _framework density 16.663311
#
# number of rings (size 3 to 8) (size 9 to 14) (size 15 to 20)
#    0.000    3.000    0.000    0.500    0.000    3.667 
#    0.000    3.333    0.000    0.500    0.000    8.167 
#    0.000    0.000    0.000    0.000    0.000    0.000 
#
# Total GULP energy -595213.358107 kJ/mol
# GULP energy per Si atom -12400.278294 kJ/mol
# Density = 1.662538 g / cm^3
# Si number density = 16.663311 Si / 1000 Ang^3
#
#
#
# Elastic Constant Matrix: (Units=GPa)
#
#
# Indices 1 2 3 4 5 6 
#
# 1 68.3524 39.0612 71.0199 0.0000 0.0000 0.0000
# 2 39.0612 68.1883 61.4616 0.0000 0.0000 0.0000
# 3 71.0199 61.4616 137.3063 0.0000 0.0000 0.0000
# 4 0.0000 0.0000 0.0000 17.9008 0.0000 0.0000
# 5 0.0000 0.0000 0.0000 0.0000 31.6578 0.0000
# 6 0.0000 0.0000 0.0000 0.0000 0.0000 21.2357
#
#
#
# Elastic Compliance Matrix: (Units=1/GPa)
#
#
# Indices 1 2 3 4 5 6 
#
# 1 0.032983 -0.005896 -0.014421 0.000000 0.000000 0.000000
# 2 -0.005896 0.025638 -0.008427 0.000000 0.000000 0.000000
# 3 -0.014421 -0.008427 0.018514 0.000000 0.000000 0.000000
# 4 0.000000 0.000000 0.000000 0.055863 0.000000 0.000000
# 5 0.000000 0.000000 0.000000 0.000000 0.031588 0.000000
# 6 0.000000 0.000000 0.000000 0.000000 0.000000 0.047091
#
#
# Mechanical properties :
#
#
# Convention : Reuss Voigt Hill
#
# Bulk Modulus (GPa) = 50.89505 68.54803 59.72154
# Shear Modulus (GPa) = 18.13479 20.97914 19.55696
#
# Velocity S-wave (km/s) = 3.30253 3.55209 3.42958
# Velocity P-wave (km/s) = 6.71950 7.61902 7.18336
#
# Compressibility (1/GPa) = 0.01964828
#
# Stress axis : x y z
#
# Youngs Moduli (GPa) = 30.31860 39.00450 54.01307
#
# Poissons Ratio (x) = 0.22996 0.77892
# Poissons Ratio (y) = 0.17875 0.45515
# Poissons Ratio (z) = 0.43722 0.32868
#
# Static dielectric constant tensor:
#      x y z
#    x 3.183570 0.000000 0.000000 
#    y 0.000000 3.090620 0.000000 
#    z 0.000000 0.000000 2.985360 
# 
# 
# High freq. dielectric constant tensor:
#      x y z
#    x 1.644120 0.000000 0.000000 
#    y 0.000000 1.631480 0.000000 
#    z 0.000000 0.000000 1.624840 
# 
# From -- ./inp_files/10892.got.cif
#   From: 2010.06.25/outbox.cif.g09.slc.cpg/sg71_6_cif.got.tgz:10892.got - 2010.06.28 04:59:45.
