data_PCOD8292175
_publ_section_title
;
Structure prediction by ZEFSAII (Michael W. Deem and Ramdas Pophale) SiO2 
 PCOD8292175
Probable space group: I M M M
;
_chemical_formula_sum "Si O2"
_cell_formula_units_Z 104
_cell_length_a 21.911643
_cell_length_b 8.418685
_cell_length_c 27.186150
_cell_angle_alpha 90.000000
_cell_angle_beta 90.000000
_cell_angle_gamma 90.000000
_cell_volume 5014.953520
_symmetry_space_group_name_H-M "I M M M"
_symmetry_group_IT_number 71
_symmetry_cell_setting 'orthorhombic'
loop_
_space_group_symop_operation_xyz
x,y,z
-x,-y,z
x,-y,-z
-x,y,-z
-x,-y,-z
x,y,-z
-x,y,z
x,-y,z
1/2+x,1/2+y,1/2+z
1/2-x,1/2-y,1/2+z
1/2+x,1/2-y,1/2-z
1/2-x,1/2+y,1/2-z
1/2-x,1/2-y,1/2-z
1/2+x,1/2+y,1/2-z
1/2-x,1/2+y,1/2+z
1/2+x,1/2-y,1/2+z
loop_
_atom_site_type_symbol
_atom_site_label
_atom_site_fract_x
_atom_site_fract_y
_atom_site_fract_z
Si Si1 0.500000 0.311317 0.681918
Si Si2 0.789250 0.319644 0.055563
Si Si3 0.622378 0.317039 0.184022
Si Si4 0.570391 0.188572 0.000000
Si Si5 0.872919 0.815973 0.136046
Si Si6 0.000000 0.312327 0.707350
Si Si7 0.337632 0.184955 0.084410
Si Si8 0.688808 0.182882 0.271774
O O1 0.500000 0.500000 0.690914
O O2 0.440616 0.255722 0.651092
O O3 0.500000 0.228085 0.734818
O O4 0.769858 0.500000 0.066960
O O5 0.847471 0.274034 0.088568
O O6 0.729820 0.210246 0.062885
O O7 0.812209 0.298759 0.000000
O O8 0.631986 0.500000 0.198972
O O9 0.552974 0.270528 0.176019
O O10 0.660314 0.281590 0.135099
O O11 0.638981 0.203972 0.229663
O O12 0.608961 0.247169 0.047623
O O13 0.500000 0.254826 0.000000
O O14 0.568650 0.000000 0.000000
O O15 0.826819 0.785532 0.180648
O O16 0.874665 0.000000 0.123238
O O17 0.000000 0.500000 0.699784
O O18 0.347132 0.000000 0.095274
O O19 0.750000 0.250000 0.250000
O O20 0.694794 0.000000 0.287299
#
# Coordination Sequence:
#
# PCOD8292175 Si02
#       8
#     8  16  16   8  16   8  16  16
#     4  10  22  42  67  95 131 170 208 262 330 399
#     4  11  24  43  66  93 128 169 217 272 329 387
#     4  12  25  41  60  89 128 166 205 256 310 371
#     4   9  20  38  61  91 123 160 208 267 322 378
#     4  11  23  41  67  96 128 166 211 265 330 398
#     4  12  24  40  64  92 124 170 216 259 309 380
#     4  11  22  40  66  94 125 166 216 269 326 385
#     4  12  24  40  61  90 125 164 209 256 313 378
#
# _framework density 20.737977999999998
#
# number of rings (size 3 to 8) (size 9 to 14) (size 15 to 20)
#    0.000    0.846    2.308    5.769    1.077    1.538 
#    0.000    0.385    0.000    4.154    0.000    0.000 
#    0.000    0.000    0.000    0.000    0.000    0.000 
#
# Total GULP energy -644926.620576 kJ/mol
# GULP energy per Si atom -12402.435011 kJ/mol
# Density = 2.069078 g / cm^3
# Si number density = 20.737978 Si / 1000 Ang^3
#
#
#
# Elastic Constant Matrix: (Units=GPa)
#
#
# Indices 1 2 3 4 5 6 
#
# 1 102.9353 23.1935 31.9326 0.0000 0.0000 0.0000
# 2 23.1935 63.7346 23.4621 0.0000 0.0000 0.0000
# 3 31.9326 23.4621 114.4977 0.0000 0.0000 0.0000
# 4 0.0000 0.0000 0.0000 29.7828 0.0000 0.0000
# 5 0.0000 0.0000 0.0000 0.0000 38.7560 0.0000
# 6 0.0000 0.0000 0.0000 0.0000 0.0000 28.3054
#
#
#
# Elastic Compliance Matrix: (Units=1/GPa)
#
#
# Indices 1 2 3 4 5 6 
#
# 1 0.011195 -0.003163 -0.002474 0.000000 0.000000 0.000000
# 2 -0.003163 0.017864 -0.002778 0.000000 0.000000 0.000000
# 3 -0.002474 -0.002778 0.009993 0.000000 0.000000 0.000000
# 4 0.000000 0.000000 0.000000 0.033576 0.000000 0.000000
# 5 0.000000 0.000000 0.000000 0.000000 0.025802 0.000000
# 6 0.000000 0.000000 0.000000 0.000000 0.000000 0.035329
#
#
# Mechanical properties :
#
#
# Convention : Reuss Voigt Hill
#
# Bulk Modulus (GPa) = 45.00266 48.70486 46.85376
# Shear Modulus (GPa) = 31.64592 32.87413 32.26002
#
# Velocity S-wave (km/s) = 3.91063 3.98579 3.94839
# Velocity P-wave (km/s) = 6.49141 6.68722 6.59004
#
# Compressibility (1/GPa) = 0.02222091
#
# Stress axis : x y z
#
# Youngs Moduli (GPa) = 89.32494 55.97866 100.06893
#
# Poissons Ratio (x) = 0.17707 0.24757
# Poissons Ratio (y) = 0.28255 0.27803
# Poissons Ratio (z) = 0.22099 0.15553
#
# Static dielectric constant tensor:
#      x y z
#    x 3.926030 0.000000 0.000000 
#    y 0.000000 3.558710 0.000000 
#    z 0.000000 0.000000 3.774900 
# 
# 
# High freq. dielectric constant tensor:
#      x y z
#    x 1.819710 0.000000 0.000000 
#    y 0.000000 1.810340 0.000000 
#    z 0.000000 0.000000 1.811170 
# 
# From -- ./inp_files/66481.got.cif
#   From: 2010.06.25/outbox.cif.g09.slc.cpg/sg71_34_cif.got.tgz:66481.got - 2010.06.28 04:59:45.
