data_PCOD8292538
_publ_section_title
;
Structure prediction by ZEFSAII (Michael W. Deem and Ramdas Pophale) SiO2 
 PCOD8292538
Probable space group: I M M M
;
_chemical_formula_sum "Si O2"
_cell_formula_units_Z 88
_cell_length_a 22.247473
_cell_length_b 8.733981
_cell_length_c 22.456743
_cell_angle_alpha 90.000000
_cell_angle_beta 90.000000
_cell_angle_gamma 90.000000
_cell_volume 4363.547421
_symmetry_space_group_name_H-M "I M M M"
_symmetry_group_IT_number 71
_symmetry_cell_setting 'orthorhombic'
loop_
_space_group_symop_operation_xyz
x,y,z
-x,-y,z
x,-y,-z
-x,y,-z
-x,-y,-z
x,y,-z
-x,y,z
x,-y,z
1/2+x,1/2+y,1/2+z
1/2-x,1/2-y,1/2+z
1/2+x,1/2-y,1/2-z
1/2-x,1/2+y,1/2-z
1/2-x,1/2-y,1/2-z
1/2+x,1/2+y,1/2-z
1/2-x,1/2+y,1/2+z
1/2+x,1/2-y,1/2+z
loop_
_atom_site_type_symbol
_atom_site_label
_atom_site_fract_x
_atom_site_fract_y
_atom_site_fract_z
Si Si1 0.266496 0.323006 0.432978
Si Si2 0.377976 0.181836 0.382169
Si Si3 0.684297 0.179866 0.259641
Si Si4 0.566992 0.170908 0.069400
Si Si5 0.000000 0.181933 0.930620
Si Si6 0.163147 0.176724 0.642480
O O1 0.240788 0.305639 0.500000
O O2 0.271095 0.500000 0.414715
O O3 0.332023 0.245732 0.431509
O O4 0.224429 0.237374 0.386272
O O5 0.351641 0.236412 0.318074
O O6 0.442580 0.254143 0.395328
O O7 0.383405 0.000000 0.386386
O O8 0.750000 0.250000 0.250000
O O9 0.646023 0.232757 0.202525
O O10 0.691611 0.000000 0.262127
O O11 0.500000 0.184575 0.095732
O O12 0.608045 0.299928 0.098104
O O13 0.592854 0.000000 0.082137
O O14 0.565590 0.203097 0.000000
O O15 0.000000 0.000000 0.926920
O O16 0.000000 0.235641 0.000000
O O17 0.172512 0.000000 0.657020
#
# Coordination Sequence:
#
# PCOD8292538 Si02
#       6
#    16  16  16  16   8  16
#     4  11  23  38  60  90 124 162 203 251 310 373
#     4  11  24  42  66  95 125 162 210 263 319 375
#     4  11  23  41  65  91 122 161 203 251 309 370
#     4   9  19  38  62  86 116 157 202 248 303 364
#     4  11  25  45  69  97 131 173 216 259 318 389
#     4  12  24  37  58  89 123 161 204 251 306 367
#
# _framework density 20.167078
#
# number of rings (size 3 to 8) (size 9 to 14) (size 15 to 20)
#    0.000    1.182    1.818    5.182    0.000    9.455 
#    1.636    0.909    0.000    0.000    0.000    0.000 
#    0.000    0.000    0.000    0.000    0.000    0.000 
#
# Total GULP energy -545684.565253 kJ/mol
# GULP energy per Si atom -12401.921938 kJ/mol
# Density = 2.012118 g / cm^3
# Si number density = 20.167078 Si / 1000 Ang^3
#
#
#
# Elastic Constant Matrix: (Units=GPa)
#
#
# Indices 1 2 3 4 5 6 
#
# 1 120.7379 40.3109 49.5667 0.0000 0.0000 0.0000
# 2 40.3109 88.8368 44.9296 0.0000 0.0000 0.0000
# 3 49.5667 44.9296 99.3303 0.0000 0.0000 0.0000
# 4 0.0000 0.0000 0.0000 31.8325 0.0000 0.0000
# 5 0.0000 0.0000 0.0000 0.0000 30.4658 0.0000
# 6 0.0000 0.0000 0.0000 0.0000 0.0000 38.0276
#
#
#
# Elastic Compliance Matrix: (Units=1/GPa)
#
#
# Indices 1 2 3 4 5 6 
#
# 1 0.010949 -0.002859 -0.004170 0.000000 0.000000 0.000000
# 2 -0.002859 0.015342 -0.005513 0.000000 0.000000 0.000000
# 3 -0.004170 -0.005513 0.014642 0.000000 0.000000 0.000000
# 4 0.000000 0.000000 0.000000 0.031414 0.000000 0.000000
# 5 0.000000 0.000000 0.000000 0.000000 0.032824 0.000000
# 6 0.000000 0.000000 0.000000 0.000000 0.000000 0.026297
#
#
# Mechanical properties :
#
#
# Convention : Reuss Voigt Hill
#
# Bulk Modulus (GPa) = 63.09769 64.27995 63.68882
# Shear Modulus (GPa) = 30.89549 31.67169 31.28359
#
# Velocity S-wave (km/s) = 3.91829 3.96721 3.94283
# Velocity P-wave (km/s) = 7.19903 7.27516 7.23719
#
# Compressibility (1/GPa) = 0.01584844
#
# Stress axis : x y z
#
# Youngs Moduli (GPa) = 91.33205 65.18006 68.29600
#
# Poissons Ratio (x) = 0.18635 0.28483
# Poissons Ratio (y) = 0.26112 0.37651
# Poissons Ratio (z) = 0.38090 0.35933
#
# Static dielectric constant tensor:
#      x y z
#    x 3.587150 0.000000 0.000000 
#    y 0.000000 3.665240 0.000000 
#    z 0.000000 0.000000 4.822380 
# 
# 
# High freq. dielectric constant tensor:
#      x y z
#    x 1.786490 0.000000 0.000000 
#    y 0.000000 1.793450 0.000000 
#    z 0.000000 0.000000 1.794640 
# 
# From -- ./inp_files/55526.got.cif
#   From: 2010.06.25/outbox.cif.g09.slc.cpg/sg71_28_cif.got.tgz:55526.got - 2010.06.28 04:59:45.
