data_PCOD8292470
_publ_section_title
;
Structure prediction by ZEFSAII (Michael W. Deem and Ramdas Pophale) SiO2 
 PCOD8292470
Probable space group: I M M M
;
_chemical_formula_sum "Si O2"
_cell_formula_units_Z 64
_cell_length_a 24.189070
_cell_length_b 8.703150
_cell_length_c 15.515301
_cell_angle_alpha 90.000000
_cell_angle_beta 90.000000
_cell_angle_gamma 90.000000
_cell_volume 3266.298304
_symmetry_space_group_name_H-M "I M M M"
_symmetry_group_IT_number 71
_symmetry_cell_setting 'orthorhombic'
loop_
_space_group_symop_operation_xyz
x,y,z
-x,-y,z
x,-y,-z
-x,y,-z
-x,-y,-z
x,y,-z
-x,y,z
x,-y,z
1/2+x,1/2+y,1/2+z
1/2-x,1/2-y,1/2+z
1/2+x,1/2-y,1/2-z
1/2-x,1/2+y,1/2-z
1/2-x,1/2-y,1/2-z
1/2+x,1/2+y,1/2-z
1/2-x,1/2+y,1/2+z
1/2+x,1/2-y,1/2+z
loop_
_atom_site_type_symbol
_atom_site_label
_atom_site_fract_x
_atom_site_fract_y
_atom_site_fract_z
Si Si1 0.000000 0.179611 0.101207
Si Si2 0.500000 0.817442 0.901929
Si Si3 0.814354 0.181786 0.000000
Si Si4 0.310394 0.816634 0.000000
Si Si5 0.385186 0.819775 0.650931
Si Si6 0.116516 0.319242 0.343634
O O1 0.946877 0.257272 0.142968
O O2 0.000000 0.000000 0.121866
O O3 0.000000 0.211645 0.000000
O O4 0.555026 0.749385 0.856936
O O5 0.500000 0.000000 0.894800
O O6 0.500000 0.762664 0.000000
O O7 0.844344 0.238638 0.914636
O O8 0.752063 0.246366 0.000000
O O9 0.816371 0.000000 0.000000
O O10 0.340982 0.751539 0.085554
O O11 0.309901 0.000000 0.000000
O O12 0.363054 0.781624 0.747069
O O13 0.385898 0.000000 0.631993
O O14 0.112872 0.500000 0.358898
#
# Coordination Sequence:
#
# PCOD8292470 Si02
#       6
#     8   8   8   8  16  16
#     4  11  22  37  59  84 113 149 184 218 271 340
#     4   9  13  22  46  77 110 138 165 211 272 330
#     4  11  23  38  55  77 108 152 196 229 274 331
#     4   9  18  34  54  77 112 150 187 231 274 327
#     4  11  22  36  58  86 114 142 181 233 281 325
#     4   9  17  30  51  83 114 143 179 224 279 329
#
# _framework density 19.594045999999999
#
# number of rings (size 3 to 8) (size 9 to 14) (size 15 to 20)
#    0.000    2.000    2.500    2.250    0.000    3.500 
#    0.000    0.000    0.000    4.500    0.000    0.875 
#    0.000    0.000    0.000    0.000    0.000    0.000 
#
# Total GULP energy -396757.465628 kJ/mol
# GULP energy per Si atom -12398.670801 kJ/mol
# Density = 1.954945 g / cm^3
# Si number density = 19.594046 Si / 1000 Ang^3
#
#
#
# Elastic Constant Matrix: (Units=GPa)
#
#
# Indices 1 2 3 4 5 6 
#
# 1 176.5900 27.6804 88.2457 0.0000 0.0000 0.0000
# 2 27.6804 49.4723 35.7294 0.0000 0.0000 0.0000
# 3 88.2457 35.7294 154.8236 0.0000 0.0000 0.0000
# 4 0.0000 0.0000 0.0000 8.2663 0.0000 0.0000
# 5 0.0000 0.0000 0.0000 0.0000 -2.6678 0.0000
# 6 0.0000 0.0000 0.0000 0.0000 0.0000 -12.1400
#
#
#
# Elastic Compliance Matrix: (Units=1/GPa)
#
#
# Indices 1 2 3 4 5 6 
#
# 1 0.008000 -0.001420 -0.004232 0.000000 0.000000 0.000000
# 2 -0.001420 0.024508 -0.004847 0.000000 0.000000 0.000000
# 3 -0.004232 -0.004847 0.009990 0.000000 0.000000 0.000000
# 4 0.000000 0.000000 0.000000 0.120973 0.000000 0.000000
# 5 0.000000 0.000000 0.000000 0.000000 -0.374839 0.000000
# 6 0.000000 0.000000 0.000000 0.000000 0.000000 -0.082372
#
#
# Mechanical properties :
#
#
# Convention : Reuss Voigt Hill
#
# Bulk Modulus (GPa) = 46.51001 76.02189 61.26595
# Shear Modulus (GPa) = -18.82705 13.97372 -2.42667
#
# Velocity S-wave (km/s) = -3.10313 2.67341 -1.11407
# Velocity P-wave (km/s) = 3.30894 6.95788 5.44799
#
# Compressibility (1/GPa) = 0.02150075
#
# Stress axis : x y z
#
# Youngs Moduli (GPa) = 124.99395 40.80305 100.10188
#
# Poissons Ratio (x) = 0.05793 0.42367
# Poissons Ratio (y) = 0.17745 0.48516
# Poissons Ratio (z) = 0.52903 0.19776
#
# Static dielectric constant tensor:
#      x y z
#    x 3.785900 0.000000 0.000000 
#    y 0.000000 3.146320 0.000000 
#    z 0.000000 0.000000 3.779660 
# 
# 
# High freq. dielectric constant tensor:
#      x y z
#    x 1.766960 0.000000 0.000000 
#    y 0.000000 1.717410 0.000000 
#    z 0.000000 0.000000 1.781720 
# 
# From -- ./inp_files/12051.got.cif
#   From: 2010.06.25/outbox.cif.g09.slc.cpg/sg71_7_cif.got.tgz:12051.got - 2010.06.28 04:59:45.
