data_PCOD8292918
_publ_section_title
;
Structure prediction by ZEFSAII (Michael W. Deem and Ramdas Pophale) SiO2 
 PCOD8292918
Probable space group: I B A M
;
_chemical_formula_sum "Si O2"
_cell_formula_units_Z 128
_cell_length_a 18.490798
_cell_length_b 22.747348
_cell_length_c 18.027576
_cell_angle_alpha 90.000000
_cell_angle_beta 90.000000
_cell_angle_gamma 90.000000
_cell_volume 7582.698028
_symmetry_space_group_name_H-M "I B A M"
_symmetry_group_IT_number 72
_symmetry_cell_setting 'orthorhombic'
loop_
_space_group_symop_operation_xyz
x,y,z
-x,-y,z
x,-y,1/2-z
-x,y,1/2-z
-x,-y,-z
x,y,-z
-x,y,1/2+z
x,-y,1/2+z
1/2+x,1/2+y,1/2+z
1/2-x,1/2-y,1/2+z
1/2+x,1/2-y,-z
1/2-x,1/2+y,-z
1/2-x,1/2-y,1/2-z
1/2+x,1/2+y,1/2-z
1/2-x,1/2+y,z
1/2+x,1/2-y,z
loop_
_atom_site_type_symbol
_atom_site_label
_atom_site_fract_x
_atom_site_fract_y
_atom_site_fract_z
Si Si1 0.545225 0.251093 0.348443
Si Si2 0.811678 0.748465 0.581084
Si Si3 0.256353 0.841590 0.190301
Si Si4 0.887905 0.933555 0.163959
Si Si5 0.479440 0.376779 0.911655
Si Si6 0.798396 0.174704 0.352233
Si Si7 0.644371 0.434155 0.668682
Si Si8 0.396902 0.776629 0.187818
O O1 0.603796 0.231886 0.409243
O O2 0.514130 0.315850 0.367067
O O3 0.586422 0.248121 0.269814
O O4 0.474792 0.208165 0.349503
O O5 0.801331 0.775279 0.500000
O O6 0.786856 0.797619 0.638040
O O7 0.764518 0.689202 0.589001
O O8 0.237872 0.822053 0.272401
O O9 0.226470 0.907501 0.173017
O O10 0.343799 0.833900 0.183416
O O11 0.831117 0.888301 0.128122
O O12 0.895972 0.923131 0.252428
O O13 0.964254 0.924062 0.122922
O O14 0.853497 0.997270 0.148995
O O15 0.399406 0.401747 0.896376
O O16 0.491358 0.369102 0.000000
O O17 0.860169 0.224138 0.358181
#
# Coordination Sequence:
#
# PCOD8292918 Si02
#       8
#    16  16  16  16  16  16  16  16
#     4  11  19  31  49  75 101 134 167 200 255 312
#     4  11  20  31  48  72 102 134 165 201 255 307
#     4  10  18  34  51  73  97 127 171 214 252 301
#     4  10  21  36  52  72  98 135 178 213 252 296
#     4  12  23  33  46  71 107 141 173 211 245 297
#     4  10  17  34  50  70  99 127 166 207 248 300
#     4  10  21  35  55  71  95 136 179 215 253 298
#     4  10  18  30  54  74  95 131 166 210 253 302
#
# _framework density 16.880534999999998
#
# number of rings (size 3 to 8) (size 9 to 14) (size 15 to 20)
#    0.000    1.500    5.000    2.625    1.750    2.500 
#    0.000    0.625    0.000    0.000    0.000    0.875 
#    0.000    1.000    0.000    0.000    0.000    0.000 
#
# Total GULP energy -793125.524796 kJ/mol
# GULP energy per Si atom -12392.586325 kJ/mol
# Density = 1.684211 g / cm^3
# Si number density = 16.880535 Si / 1000 Ang^3
#
#
#
# Elastic Constant Matrix: (Units=GPa)
#
#
# Indices 1 2 3 4 5 6 
#
# 1 121.1069 48.4093 29.6272 0.0000 0.0000 0.0000
# 2 48.4093 70.3782 17.3615 0.0000 0.0000 0.0000
# 3 29.6272 17.3615 55.1409 0.0000 0.0000 0.0000
# 4 0.0000 0.0000 0.0000 2.6018 0.0000 0.0000
# 5 0.0000 0.0000 0.0000 0.0000 13.4347 0.0000
# 6 0.0000 0.0000 0.0000 0.0000 0.0000 27.5518
#
#
#
# Elastic Compliance Matrix: (Units=1/GPa)
#
#
# Indices 1 2 3 4 5 6 
#
# 1 0.012246 -0.007373 -0.004258 0.000000 0.000000 0.000000
# 2 -0.007373 0.019844 -0.002287 0.000000 0.000000 0.000000
# 3 -0.004258 -0.002287 0.021143 0.000000 0.000000 0.000000
# 4 0.000000 0.000000 0.000000 0.384357 0.000000 0.000000
# 5 0.000000 0.000000 0.000000 0.000000 0.074434 0.000000
# 6 0.000000 0.000000 0.000000 0.000000 0.000000 0.036295
#
#
# Mechanical properties :
#
#
# Convention : Reuss Voigt Hill
#
# Bulk Modulus (GPa) = 39.37334 48.60245 43.98789
# Shear Modulus (GPa) = 8.55254 18.79953 13.67603
#
# Velocity S-wave (km/s) = 2.25333 3.34081 2.84943
# Velocity P-wave (km/s) = 5.49048 6.61331 6.07788
#
# Compressibility (1/GPa) = 0.02539790
#
# Stress axis : x y z
#
# Youngs Moduli (GPa) = 81.65900 50.39187 47.29611
#
# Poissons Ratio (x) = 0.37153 0.20141
# Poissons Ratio (y) = 0.60206 0.10815
# Poissons Ratio (z) = 0.34774 0.11523
#
# Static dielectric constant tensor:
#      x y z
#    x 3.480320 0.000000 0.000000 
#    y 0.000000 3.051560 0.000000 
#    z 0.000000 0.000000 3.087460 
# 
# 
# High freq. dielectric constant tensor:
#      x y z
#    x 1.652950 0.000000 0.000000 
#    y 0.000000 1.613550 0.000000 
#    z 0.000000 0.000000 1.641450 
# 
# From -- ./inp_files/32062.got.cif
#   From: 2010.03.12/outbox.cif.g09.slc.cpg/sg72_17_cif.got.tgz:32062.got - 2010.04.16 14:54:00.
