data_PCOD8292509
_publ_section_title
;
Structure prediction by ZEFSAII (Michael W. Deem and Ramdas Pophale) SiO2 
 PCOD8292509
Probable space group: I M M M
;
_chemical_formula_sum "Si O2"
_cell_formula_units_Z 72
_cell_length_a 23.099639
_cell_length_b 9.752344
_cell_length_c 16.416559
_cell_angle_alpha 90.000000
_cell_angle_beta 90.000000
_cell_angle_gamma 90.000000
_cell_volume 3698.250602
_symmetry_space_group_name_H-M "I M M M"
_symmetry_group_IT_number 71
_symmetry_cell_setting 'orthorhombic'
loop_
_space_group_symop_operation_xyz
x,y,z
-x,-y,z
x,-y,-z
-x,y,-z
-x,-y,-z
x,y,-z
-x,y,z
x,-y,z
1/2+x,1/2+y,1/2+z
1/2-x,1/2-y,1/2+z
1/2+x,1/2-y,1/2-z
1/2-x,1/2+y,1/2-z
1/2-x,1/2-y,1/2-z
1/2+x,1/2+y,1/2-z
1/2-x,1/2+y,1/2+z
1/2+x,1/2-y,1/2+z
loop_
_atom_site_type_symbol
_atom_site_label
_atom_site_fract_x
_atom_site_fract_y
_atom_site_fract_z
Si Si1 0.431707 0.000000 0.097207
Si Si2 0.064236 0.161505 0.000000
Si Si3 0.874331 0.237003 0.327167
Si Si4 0.854210 0.835246 0.146855
Si Si5 0.933800 0.000000 0.587777
Si Si6 0.253903 0.658096 0.094879
O O1 0.396757 0.122302 0.137391
O O2 0.500000 0.000000 0.119975
O O3 0.424059 0.000000 0.000000
O O4 0.098463 0.208246 0.919855
O O5 0.000000 0.228269 0.000000
O O6 0.058517 0.000000 0.000000
O O7 0.876453 0.231974 0.229865
O O8 0.920247 0.130773 0.359815
O O9 0.810391 0.198406 0.355331
O O10 0.794412 0.764802 0.122436
O O11 0.845585 0.000000 0.153203
O O12 0.900201 0.000000 0.500000
O O13 0.000000 0.000000 0.566957
O O14 0.236544 0.500000 0.114615
O O15 0.266736 0.676958 0.000000
#
# Coordination Sequence:
#
# PCOD8292509 Si02
#       6
#     8   8  16  16   8  16
#     4  11  26  46  65  93 135 175 214 267 332 397
#     4   9  20  40  65  93 131 173 212 265 322 381
#     4  12  24  41  65  97 126 169 222 268 327 394
#     4  11  23  42  65  99 130 169 221 275 328 389
#     4  11  22  40  65  91 125 161 208 267 322 387
#     4  11  23  40  66  94 132 171 214 270 338 393
#
# _framework density 19.468664
#
# number of rings (size 3 to 8) (size 9 to 14) (size 15 to 20)
#    0.000    1.000    3.333    3.333    3.111    3.556 
#    0.000    0.000    0.000    0.667    0.000    0.000 
#    0.000    0.000    0.000    0.000    0.000    0.000 
#
# Total GULP energy -446353.992378 kJ/mol
# GULP energy per Si atom -12398.722010 kJ/mol
# Density = 1.942435 g / cm^3
# Si number density = 19.468664 Si / 1000 Ang^3
#
#
#
# Elastic Constant Matrix: (Units=GPa)
#
#
# Indices 1 2 3 4 5 6 
#
# 1 99.8751 35.8202 56.9247 0.0000 0.0000 0.0000
# 2 35.8202 117.3838 43.4802 0.0000 0.0000 0.0000
# 3 56.9247 43.4802 168.4146 0.0000 0.0000 0.0000
# 4 0.0000 0.0000 0.0000 40.8394 0.0000 0.0000
# 5 0.0000 0.0000 0.0000 0.0000 30.2887 0.0000
# 6 0.0000 0.0000 0.0000 0.0000 0.0000 31.8707
#
#
#
# Elastic Compliance Matrix: (Units=1/GPa)
#
#
# Indices 1 2 3 4 5 6 
#
# 1 0.013084 -0.002603 -0.003750 0.000000 0.000000 0.000000
# 2 -0.002603 0.009938 -0.001686 0.000000 0.000000 0.000000
# 3 -0.003750 -0.001686 0.007641 0.000000 0.000000 0.000000
# 4 0.000000 0.000000 0.000000 0.024486 0.000000 0.000000
# 5 0.000000 0.000000 0.000000 0.000000 0.033016 0.000000
# 6 0.000000 0.000000 0.000000 0.000000 0.000000 0.031377
#
#
# Mechanical properties :
#
#
# Convention : Reuss Voigt Hill
#
# Bulk Modulus (GPa) = 68.57112 73.12485 70.84799
# Shear Modulus (GPa) = 35.59212 37.22966 36.41089
#
# Velocity S-wave (km/s) = 4.28035 4.37771 4.32931
# Velocity P-wave (km/s) = 7.72828 7.94949 7.83966
#
# Compressibility (1/GPa) = 0.01458340
#
# Stress axis : x y z
#
# Youngs Moduli (GPa) = 76.43109 100.62456 130.88119
#
# Poissons Ratio (x) = 0.26197 0.49083
# Poissons Ratio (y) = 0.19898 0.22063
# Poissons Ratio (z) = 0.28663 0.16963
#
# Static dielectric constant tensor:
#      x y z
#    x 3.776560 0.000000 0.000000 
#    y 0.000000 3.733120 0.000000 
#    z 0.000000 0.000000 3.934320 
# 
# 
# High freq. dielectric constant tensor:
#      x y z
#    x 1.766820 0.000000 0.000000 
#    y 0.000000 1.757250 0.000000 
#    z 0.000000 0.000000 1.777700 
# 
# From -- ./inp_files/39983.got.cif
#   From: 2010.06.25/outbox.cif.g09.slc.cpg/sg71_20_cif.got.tgz:39983.got - 2010.06.28 04:59:45.
