data_PCOD8292856
_publ_section_title
;
Structure prediction by ZEFSAII (Michael W. Deem and Ramdas Pophale) SiO2 
 PCOD8292856
Probable space group: I B A M
;
_chemical_formula_sum "Si O2"
_cell_formula_units_Z 96
_cell_length_a 26.393231
_cell_length_b 28.934181
_cell_length_c 8.763876
_cell_angle_alpha 90.000000
_cell_angle_beta 90.000000
_cell_angle_gamma 90.000000
_cell_volume 6692.678712
_symmetry_space_group_name_H-M "I B A M"
_symmetry_group_IT_number 72
_symmetry_cell_setting 'orthorhombic'
loop_
_space_group_symop_operation_xyz
x,y,z
-x,-y,z
x,-y,1/2-z
-x,y,1/2-z
-x,-y,-z
x,y,-z
-x,y,1/2+z
x,-y,1/2+z
1/2+x,1/2+y,1/2+z
1/2-x,1/2-y,1/2+z
1/2+x,1/2-y,-z
1/2-x,1/2+y,-z
1/2-x,1/2-y,1/2-z
1/2+x,1/2+y,1/2-z
1/2-x,1/2+y,z
1/2+x,1/2-y,z
loop_
_atom_site_type_symbol
_atom_site_label
_atom_site_fract_x
_atom_site_fract_y
_atom_site_fract_z
Si Si1 0.901040 0.548009 0.178377
Si Si2 0.237922 0.359874 0.320619
Si Si3 0.282704 0.952194 0.177772
Si Si4 0.357196 0.807587 0.820066
Si Si5 0.703866 0.724937 0.324318
Si Si6 0.446688 0.861354 0.319544
O O1 0.919895 0.500000 0.250000
O O2 0.841875 0.555481 0.212070
O O3 0.931825 0.588583 0.257224
O O4 0.912940 0.547848 0.000000
O O5 0.225198 0.361322 0.500000
O O6 0.248418 0.411060 0.258015
O O7 0.190366 0.338371 0.231732
O O8 0.289828 0.329895 0.287924
O O9 0.263661 0.000000 0.250000
O O10 0.270547 0.952794 0.000000
O O11 0.347499 0.752760 0.778424
O O12 0.406788 0.822415 0.729513
O O13 0.365661 0.815994 0.000000
O O14 0.711802 0.733778 0.500000
O O15 0.750000 0.750000 0.250000
O O16 0.500000 0.846045 0.250000
O O17 0.450218 0.863672 0.500000
#
# Coordination Sequence:
#
# PCOD8292856 Si02
#       6
#    16  16  16  16  16  16
#     4  10  20  34  49  63  80 102 134 173 216 257
#     4  10  17  27  44  65  86 109 136 166 202 244
#     4  10  19  29  43  61  84 111 139 172 209 248
#     4  10  18  31  46  62  84 107 133 168 207 247
#     4   8  16  27  42  63  85 107 131 161 199 242
#     4  12  24  36  49  63  80 104 136 173 216 259
#
# _framework density 14.344032
#
# number of rings (size 3 to 8) (size 9 to 14) (size 15 to 20)
#    0.000    2.000    1.667    3.500    0.000    3.000 
#    0.000    1.667    0.000    0.000    0.000    0.000 
#    0.000    0.000    0.000    0.000    0.000    0.833 
#
# Total GULP energy -594843.521059 kJ/mol
# GULP energy per Si atom -12392.573355 kJ/mol
# Density = 1.431138 g / cm^3
# Si number density = 14.344032 Si / 1000 Ang^3
#
#
#
# Elastic Constant Matrix: (Units=GPa)
#
#
# Indices 1 2 3 4 5 6 
#
# 1 52.2152 54.0117 31.1669 0.0000 0.0000 0.0000
# 2 54.0117 109.8323 42.6912 0.0000 0.0000 0.0000
# 3 31.1669 42.6912 77.0471 0.0000 0.0000 0.0000
# 4 0.0000 0.0000 0.0000 23.3449 0.0000 0.0000
# 5 0.0000 0.0000 0.0000 0.0000 15.3480 0.0000
# 6 0.0000 0.0000 0.0000 0.0000 0.0000 18.1880
#
#
#
# Elastic Compliance Matrix: (Units=1/GPa)
#
#
# Indices 1 2 3 4 5 6 
#
# 1 0.041767 -0.017808 -0.007028 0.000000 0.000000 0.000000
# 2 -0.017808 0.019196 -0.003433 0.000000 0.000000 0.000000
# 3 -0.007028 -0.003433 0.017724 0.000000 0.000000 0.000000
# 4 0.000000 0.000000 0.000000 0.042836 0.000000 0.000000
# 5 0.000000 0.000000 0.000000 0.000000 0.065155 0.000000
# 6 0.000000 0.000000 0.000000 0.000000 0.000000 0.054981
#
#
# Mechanical properties :
#
#
# Convention : Reuss Voigt Hill
#
# Bulk Modulus (GPa) = 45.14759 54.98158 50.06458
# Shear Modulus (GPa) = 16.36223 18.79117 17.57670
#
# Velocity S-wave (km/s) = 3.38109 3.62337 3.50432
# Velocity P-wave (km/s) = 6.83999 7.47789 7.16604
#
# Compressibility (1/GPa) = 0.02214958
#
# Stress axis : x y z
#
# Youngs Moduli (GPa) = 23.94228 52.09308 56.41934
#
# Poissons Ratio (x) = 0.92766 0.39654
# Poissons Ratio (y) = 0.42636 0.19369
# Poissons Ratio (z) = 0.16828 0.17884
#
# Static dielectric constant tensor:
#      x y z
#    x 2.653940 0.000000 0.000000 
#    y 0.000000 3.232300 0.000000 
#    z 0.000000 0.000000 2.943000 
# 
# 
# High freq. dielectric constant tensor:
#      x y z
#    x 1.492580 0.000000 0.000000 
#    y 0.000000 1.549840 0.000000 
#    z 0.000000 0.000000 1.569820 
# 
# From -- ./inp_files/7104.got.cif
#   From: 2010.03.12/outbox.cif.g09.slc.cpg/sg72_4_cif.got.tgz:7104.got - 2010.04.16 14:54:00.
