data_PCOD8292626
_publ_section_title
;
Structure prediction by ZEFSAII (Michael W. Deem and Ramdas Pophale) SiO2 
 PCOD8292626
Probable space group: I M M M
;
_chemical_formula_sum "Si O2"
_cell_formula_units_Z 88
_cell_length_a 17.692815
_cell_length_b 24.597295
_cell_length_c 14.872702
_cell_angle_alpha 90.000000
_cell_angle_beta 90.000000
_cell_angle_gamma 90.000000
_cell_volume 6472.531346
_symmetry_space_group_name_H-M "I M M M"
_symmetry_group_IT_number 71
_symmetry_cell_setting 'orthorhombic'
loop_
_space_group_symop_operation_xyz
x,y,z
-x,-y,z
x,-y,-z
-x,y,-z
-x,-y,-z
x,y,-z
-x,y,z
x,-y,z
1/2+x,1/2+y,1/2+z
1/2-x,1/2-y,1/2+z
1/2+x,1/2-y,1/2-z
1/2-x,1/2+y,1/2-z
1/2-x,1/2-y,1/2-z
1/2+x,1/2+y,1/2-z
1/2-x,1/2+y,1/2+z
1/2+x,1/2-y,1/2+z
loop_
_atom_site_type_symbol
_atom_site_label
_atom_site_fract_x
_atom_site_fract_y
_atom_site_fract_z
Si Si1 0.791849 0.437238 0.896985
Si Si2 0.415916 0.263634 0.106701
Si Si3 0.412950 0.937622 0.749874
Si Si4 0.590043 0.144621 0.899958
Si Si5 0.000000 0.061295 0.392774
Si Si6 0.854302 0.124845 0.606903
O O1 0.767282 0.500000 0.888719
O O2 0.866650 0.424537 0.840082
O O3 0.723538 0.400978 0.857153
O O4 0.810573 0.422215 0.000000
O O5 0.500000 0.272673 0.147282
O O6 0.383011 0.204432 0.134574
O O7 0.361323 0.312414 0.140033
O O8 0.422563 0.265430 0.000000
O O9 0.500000 0.923846 0.728527
O O10 0.380741 0.901100 0.831327
O O11 0.403193 0.000000 0.779799
O O12 0.500000 0.144786 0.904487
O O13 0.622313 0.132077 0.000000
O O14 0.074396 0.091289 0.354966
O O15 0.000000 0.062523 0.500000
O O16 0.000000 0.000000 0.356063
O O17 0.854350 0.120702 0.500000
#
# Coordination Sequence:
#
# PCOD8292626 Si02
#       6
#    16  16  16  16   8  16
#     4   9  17  27  37  50  71  99 127 153 179 203
#     4   8  12  20  34  52  73  96 118 139 169 211
#     4   9  17  28  40  53  69  91 121 155 187 217
#     4   8  14  24  39  57  74  91 112 142 183 226
#     4   9  14  18  28  48  72  96 122 148 170 201
#     4   9  14  21  33  50  72  97 123 147 171 204
#
# _framework density 13.595917
#
# number of rings (size 3 to 8) (size 9 to 14) (size 15 to 20)
#    0.000    3.364    0.909    1.636    0.000    2.909 
#    0.000    4.545    0.000    0.000    0.000    0.000 
#    0.000    0.000    0.000    0.818    0.000    9.182 
#
# Total GULP energy -545255.377975 kJ/mol
# GULP energy per Si atom -12392.167681 kJ/mol
# Density = 1.356497 g / cm^3
# Si number density = 13.595917 Si / 1000 Ang^3
#
#
#
# Elastic Constant Matrix: (Units=GPa)
#
#
# Indices 1 2 3 4 5 6 
#
# 1 62.8441 45.9966 29.5435 0.0000 0.0000 0.0000
# 2 45.9966 103.2101 41.0191 0.0000 0.0000 0.0000
# 3 29.5435 41.0191 44.5135 0.0000 0.0000 0.0000
# 4 0.0000 0.0000 0.0000 11.0621 0.0000 0.0000
# 5 0.0000 0.0000 0.0000 0.0000 7.5176 0.0000
# 6 0.0000 0.0000 0.0000 0.0000 0.0000 15.9621
#
#
#
# Elastic Compliance Matrix: (Units=1/GPa)
#
#
# Indices 1 2 3 4 5 6 
#
# 1 0.026421 -0.007583 -0.010548 0.000000 0.000000 0.000000
# 2 -0.007583 0.017464 -0.011061 0.000000 0.000000 0.000000
# 3 -0.010548 -0.011061 0.039658 0.000000 0.000000 0.000000
# 4 0.000000 0.000000 0.000000 0.090398 0.000000 0.000000
# 5 0.000000 0.000000 0.000000 0.000000 0.133021 0.000000
# 6 0.000000 0.000000 0.000000 0.000000 0.000000 0.062648
#
#
# Mechanical properties :
#
#
# Convention : Reuss Voigt Hill
#
# Bulk Modulus (GPa) = 39.74474 49.29846 44.52160
# Shear Modulus (GPa) = 11.45788 13.17560 12.31674
#
# Velocity S-wave (km/s) = 2.90616 3.11639 3.01311
# Velocity P-wave (km/s) = 6.36846 7.02052 6.70242
#
# Compressibility (1/GPa) = 0.02516057
#
# Stress axis : x y z
#
# Youngs Moduli (GPa) = 37.84876 57.26049 25.21547
#
# Poissons Ratio (x) = 0.43418 0.26598
# Poissons Ratio (y) = 0.28699 0.27890
# Poissons Ratio (z) = 0.39924 0.63333
#
# Static dielectric constant tensor:
#      x y z
#    x 2.581910 0.000000 0.000000 
#    y 0.000000 3.050740 0.000000 
#    z 0.000000 0.000000 2.376450 
# 
# 
# High freq. dielectric constant tensor:
#      x y z
#    x 1.494710 0.000000 0.000000 
#    y 0.000000 1.531670 0.000000 
#    z 0.000000 0.000000 1.462500 
# 
# From -- ./inp_files/34986.got.cif
#   From: 2010.06.25/outbox.cif.g09.slc.cpg/sg71_18_cif.got.tgz:34986.got - 2010.06.28 04:59:45.
