data_PCOD8292200
_publ_section_title
;
Structure prediction by ZEFSAII (Michael W. Deem and Ramdas Pophale) SiO2 
 PCOD8292200
Probable space group: I M M M
;
_chemical_formula_sum "Si O2"
_cell_formula_units_Z 112
_cell_length_a 14.901508
_cell_length_b 23.637226
_cell_length_c 14.918463
_cell_angle_alpha 90.000000
_cell_angle_beta 90.000000
_cell_angle_gamma 90.000000
_cell_volume 5254.734882
_symmetry_space_group_name_H-M "I M M M"
_symmetry_group_IT_number 71
_symmetry_cell_setting 'orthorhombic'
loop_
_space_group_symop_operation_xyz
x,y,z
-x,-y,z
x,-y,-z
-x,y,-z
-x,-y,-z
x,y,-z
-x,y,z
x,-y,z
1/2+x,1/2+y,1/2+z
1/2-x,1/2-y,1/2+z
1/2+x,1/2-y,1/2-z
1/2-x,1/2+y,1/2-z
1/2-x,1/2-y,1/2-z
1/2+x,1/2+y,1/2-z
1/2-x,1/2+y,1/2+z
1/2+x,1/2-y,1/2+z
loop_
_atom_site_type_symbol
_atom_site_label
_atom_site_fract_x
_atom_site_fract_y
_atom_site_fract_z
Si Si1 0.258960 0.752457 0.106668
Si Si2 0.104903 0.566278 0.757713
Si Si3 0.396126 0.846683 0.103392
Si Si4 0.105597 0.059996 0.154768
Si Si5 0.599537 0.435798 0.860621
Si Si6 0.768917 0.372570 0.900355
Si Si7 0.401944 0.321755 0.398615
O O1 0.343243 0.790640 0.137573
O O2 0.257491 0.688357 0.142780
O O3 0.168365 0.780116 0.148401
O O4 0.257092 0.752836 0.000000
O O5 0.130020 0.500000 0.745993
O O6 0.128067 0.599069 0.665247
O O7 0.162172 0.593031 0.838586
O O8 0.000000 0.573119 0.781821
O O9 0.500000 0.830992 0.113029
O O10 0.371970 0.862044 0.000000
O O11 0.130190 0.068269 0.257963
O O12 0.140635 0.114774 0.101926
O O13 0.000000 0.055675 0.141797
O O14 0.147717 0.000000 0.120192
O O15 0.500000 0.409099 0.875334
O O16 0.596984 0.500000 0.893665
O O17 0.674333 0.403453 0.916280
O O18 0.812355 0.366130 0.000000
O O19 0.414650 0.302574 0.500000
O O20 0.500000 0.319282 0.349992
#
# Coordination Sequence:
#
# PCOD8292200 Si02
#       7
#    16  16  16  16  16  16  16
#     4   9  20  37  56  82 115 152 196 240 284 344
#     4  10  23  42  63  90 120 152 200 255 302 357
#     4   9  19  39  65  90 120 156 193 243 305 360
#     4   8  15  29  48  72 105 143 179 219 272 330
#     4   9  19  36  56  80 111 144 183 233 285 343
#     4  11  24  40  60  85 117 159 200 244 297 348
#     4   9  17  30  49  75 110 149 187 228 272 328
#
# _framework density 21.314109999999999
#
# number of rings (size 3 to 8) (size 9 to 14) (size 15 to 20)
#    0.000    2.714    0.000    1.286    2.000    4.000 
#    0.000    7.143    0.000    2.571    0.000    0.000 
#    0.000    0.000    0.000    0.000    0.000    0.143 
#
# Total GULP energy -693817.415228 kJ/mol
# GULP energy per Si atom -12389.596700 kJ/mol
# Density = 2.126560 g / cm^3
# Si number density = 21.314110 Si / 1000 Ang^3
#
#
#
# Elastic Constant Matrix: (Units=GPa)
#
#
# Indices 1 2 3 4 5 6 
#
# 1 97.3286 68.2796 34.7024 0.0000 0.0000 0.0000
# 2 68.2796 157.0719 43.4064 -0.0001 0.0000 0.0000
# 3 34.7024 43.4064 68.6674 -0.0002 -0.0001 0.0001
# 4 0.0000 -0.0001 -0.0002 28.8846 0.0000 0.0001
# 5 0.0000 0.0000 -0.0001 0.0000 21.0612 0.0000
# 6 0.0000 0.0000 0.0001 0.0001 0.0000 29.8013
#
#
#
# Elastic Compliance Matrix: (Units=1/GPa)
#
#
# Indices 1 2 3 4 5 6 
#
# 1 0.015817 -0.005654 -0.004419 0.000000 0.000000 0.000000
# 2 -0.005654 0.009735 -0.003296 0.000000 0.000000 0.000000
# 3 -0.004419 -0.003296 0.018880 0.000000 0.000000 0.000000
# 4 0.000000 0.000000 0.000000 0.034621 0.000000 0.000000
# 5 0.000000 0.000000 0.000000 0.000000 0.047481 0.000000
# 6 0.000000 0.000000 0.000000 0.000000 0.000000 0.033556
#
#
# Mechanical properties :
#
#
# Convention : Reuss Voigt Hill
#
# Bulk Modulus (GPa) = 56.52134 68.42719 62.47427
# Shear Modulus (GPa) = 25.94349 27.72805 26.83577
#
# Velocity S-wave (km/s) = 3.49262 3.61075 3.55217
# Velocity P-wave (km/s) = 6.54526 7.03969 6.79697
#
# Compressibility (1/GPa) = 0.01769243
#
# Stress axis : x y z
#
# Youngs Moduli (GPa) = 63.22362 102.71710 52.96618
#
# Poissons Ratio (x) = 0.58081 0.23406
# Poissons Ratio (y) = 0.35749 0.17460
# Poissons Ratio (z) = 0.27939 0.33860
#
# Static dielectric constant tensor:
#      x y z
#    x 3.918270 0.000000 0.000000 
#    y 0.000000 4.023940 0.000000 
#    z 0.000000 0.000000 3.641380 
# 
# 
# High freq. dielectric constant tensor:
#      x y z
#    x 1.830350 0.000000 0.000000 
#    y 0.000000 1.839200 0.000000 
#    z 0.000000 0.000000 1.815150 
# 
# From -- ./inp_files/34881.got.cif
#   From: 2010.06.25/outbox.cif.g09.slc.cpg/sg71_18_cif.got.tgz:34881.got - 2010.06.28 04:59:45.
