data_PCOD8292439
_publ_section_title
;
Structure prediction by ZEFSAII (Michael W. Deem and Ramdas Pophale) SiO2 
 PCOD8292439
Probable space group: I M M M
;
_chemical_formula_sum "Si O2"
_cell_formula_units_Z 104
_cell_length_a 14.665742
_cell_length_b 20.924915
_cell_length_c 18.333375
_cell_angle_alpha 90.000000
_cell_angle_beta 90.000000
_cell_angle_gamma 90.000000
_cell_volume 5626.135207
_symmetry_space_group_name_H-M "I M M M"
_symmetry_group_IT_number 71
_symmetry_cell_setting 'orthorhombic'
loop_
_space_group_symop_operation_xyz
x,y,z
-x,-y,z
x,-y,-z
-x,y,-z
-x,-y,-z
x,y,-z
-x,y,z
x,-y,z
1/2+x,1/2+y,1/2+z
1/2-x,1/2-y,1/2+z
1/2+x,1/2-y,1/2-z
1/2-x,1/2+y,1/2-z
1/2-x,1/2-y,1/2-z
1/2+x,1/2+y,1/2-z
1/2-x,1/2+y,1/2+z
1/2+x,1/2-y,1/2+z
loop_
_atom_site_type_symbol
_atom_site_label
_atom_site_fract_x
_atom_site_fract_y
_atom_site_fract_z
Si Si1 0.100614 0.575878 0.919500
Si Si2 0.608060 0.000000 0.086346
Si Si3 0.752165 0.075008 0.687596
Si Si4 0.600565 0.428095 0.413887
Si Si5 0.106171 0.129647 0.581984
Si Si6 0.220748 0.616546 0.651906
Si Si7 0.395538 0.222016 0.083721
O O1 0.107406 0.500000 0.921763
O O2 0.171815 0.603724 0.862366
O O3 0.000000 0.597517 0.894696
O O4 0.122368 0.603265 0.000000
O O5 0.654098 0.061650 0.122086
O O6 0.500000 0.000000 0.103234
O O7 0.626902 0.000000 0.000000
O O8 0.845623 0.088570 0.644838
O O9 0.742311 0.111764 0.762993
O O10 0.743217 0.000000 0.702669
O O11 0.601903 0.428184 0.500000
O O12 0.500000 0.405186 0.386556
O O13 0.619273 0.500000 0.384650
O O14 0.680284 0.382499 0.385918
O O15 0.137953 0.109300 0.500000
O O16 0.127479 0.203926 0.594090
O O17 0.000000 0.115587 0.590208
O O18 0.172025 0.683537 0.636267
O O19 0.500000 0.207792 0.105807
O O20 0.379952 0.200851 0.000000
#
# Coordination Sequence:
#
# PCOD8292439 Si02
#       7
#    16   8  16  16  16  16  16
#     4   8  15  29  48  68  94 133 175 213 256 315
#     4  11  22  34  51  79 114 153 195 233 269 318
#     4  11  22  34  50  82 116 144 177 222 284 344
#     4   9  17  30  48  68  96 140 190 229 259 306
#     4   9  20  40  63  83 105 140 190 243 292 342
#     4  12  21  33  51  80 117 151 179 227 285 332
#     4   9  19  37  60  83 107 144 194 241 284 335
#
# _framework density 18.485157999999998
#
# number of rings (size 3 to 8) (size 9 to 14) (size 15 to 20)
#    0.000    2.231    1.538    4.154    0.000    4.923 
#    0.000    0.769    0.000    0.923    0.000    4.308 
#    0.000    0.000    0.000    0.000    0.000    0.000 
#
# Total GULP energy -644662.730463 kJ/mol
# GULP energy per Si atom -12397.360201 kJ/mol
# Density = 1.844309 g / cm^3
# Si number density = 18.485158 Si / 1000 Ang^3
#
#
#
# Elastic Constant Matrix: (Units=GPa)
#
#
# Indices 1 2 3 4 5 6 
#
# 1 107.4862 17.1146 42.2924 0.0000 0.0000 0.0000
# 2 17.1146 22.4976 14.1750 0.0000 0.0000 0.0000
# 3 42.2924 14.1750 93.7874 0.0000 0.0000 0.0000
# 4 0.0000 0.0000 0.0000 18.4962 0.0000 0.0000
# 5 0.0000 0.0000 0.0000 0.0000 10.4651 0.0000
# 6 0.0000 0.0000 0.0000 0.0000 0.0000 26.7379
#
#
#
# Elastic Compliance Matrix: (Units=1/GPa)
#
#
# Indices 1 2 3 4 5 6 
#
# 1 0.012082 -0.006365 -0.004486 0.000000 0.000000 0.000000
# 2 -0.006365 0.052480 -0.005062 0.000000 0.000000 0.000000
# 3 -0.004486 -0.005062 0.013451 0.000000 0.000000 0.000000
# 4 0.000000 0.000000 0.000000 0.054065 0.000000 0.000000
# 5 0.000000 0.000000 0.000000 0.000000 0.095555 0.000000
# 6 0.000000 0.000000 0.000000 0.000000 0.000000 0.037400
#
#
# Mechanical properties :
#
#
# Convention : Reuss Voigt Hill
#
# Bulk Modulus (GPa) = 21.65089 41.21502 31.43296
# Shear Modulus (GPa) = 16.01256 21.15246 18.58251
#
# Velocity S-wave (km/s) = 2.94639 3.38641 3.17403
# Velocity P-wave (km/s) = 4.82835 6.13474 5.52033
#
# Compressibility (1/GPa) = 0.04618747
#
# Stress axis : x y z
#
# Youngs Moduli (GPa) = 82.76654 19.05476 74.34646
#
# Poissons Ratio (x) = 0.12128 0.33355
# Poissons Ratio (y) = 0.52678 0.37633
# Poissons Ratio (z) = 0.37132 0.09645
#
# Static dielectric constant tensor:
#      x y z
#    x 3.668990 0.000000 0.000000 
#    y 0.000000 3.092030 0.000000 
#    z 0.000000 0.000000 3.514290 
# 
# 
# High freq. dielectric constant tensor:
#      x y z
#    x 1.732120 0.000000 0.000000 
#    y 0.000000 1.678740 0.000000 
#    z 0.000000 0.000000 1.713610 
# 
# From -- ./inp_files/44947.got.cif
#   From: 2010.06.25/outbox.cif.g09.slc.cpg/sg71_23_cif.got.tgz:44947.got - 2010.06.28 04:59:45.
