data_PCOD8292845
_publ_section_title
;
Structure prediction by ZEFSAII (Michael W. Deem and Ramdas Pophale) SiO2 
 PCOD8292845
Probable space group: I B A M
;
_chemical_formula_sum "Si O2"
_cell_formula_units_Z 96
_cell_length_a 26.422385
_cell_length_b 29.075665
_cell_length_c 8.651061
_cell_angle_alpha 90.000000
_cell_angle_beta 90.000000
_cell_angle_gamma 90.000000
_cell_volume 6646.163899
_symmetry_space_group_name_H-M "I B A M"
_symmetry_group_IT_number 72
_symmetry_cell_setting 'orthorhombic'
loop_
_space_group_symop_operation_xyz
x,y,z
-x,-y,z
x,-y,1/2-z
-x,y,1/2-z
-x,-y,-z
x,y,-z
-x,y,1/2+z
x,-y,1/2+z
1/2+x,1/2+y,1/2+z
1/2-x,1/2-y,1/2+z
1/2+x,1/2-y,-z
1/2-x,1/2+y,-z
1/2-x,1/2-y,1/2-z
1/2+x,1/2+y,1/2-z
1/2-x,1/2+y,z
1/2+x,1/2-y,z
loop_
_atom_site_type_symbol
_atom_site_label
_atom_site_fract_x
_atom_site_fract_y
_atom_site_fract_z
Si Si1 0.296043 0.723549 0.679267
Si Si2 0.602408 0.048347 0.816717
Si Si3 0.150891 0.689628 0.819489
Si Si4 0.244543 0.363219 0.181022
Si Si5 0.287630 0.047715 0.818258
Si Si6 0.052403 0.364310 0.682063
O O1 0.285480 0.721797 0.500000
O O2 0.250000 0.750000 0.750000
O O3 0.345769 0.754725 0.716253
O O4 0.292160 0.669957 0.733720
O O5 0.657797 0.059884 0.751705
O O6 0.563753 0.087252 0.762991
O O7 0.582686 0.000000 0.750000
O O8 0.604922 0.045723 0.000000
O O9 0.191468 0.661445 0.720312
O O10 0.094925 0.673271 0.774399
O O11 0.162311 0.679926 0.000000
O O12 0.250316 0.410984 0.273665
O O13 0.245583 0.374601 0.000000
O O14 0.266341 0.000000 0.750000
O O15 0.292947 0.042781 0.000000
O O16 0.048564 0.371997 0.500000
O O17 0.000000 0.345010 0.750000
#
# Coordination Sequence:
#
# PCOD8292845 Si02
#       6
#    16  16  16  16  16  16
#     4   8  15  26  41  62  82 102 127 158 196 238
#     4  11  21  34  49  62  77  98 131 170 214 255
#     4   9  17  30  45  59  80 105 131 165 203 241
#     4  10  17  26  43  64  84 104 130 162 199 240
#     4  11  20  30  43  60  82 108 137 166 202 242
#     4  11  22  34  47  62  80 104 135 170 211 250
#
# _framework density 14.444421999999999
#
# number of rings (size 3 to 8) (size 9 to 14) (size 15 to 20)
#    0.000    2.000    1.667    5.000    0.000    1.667 
#    0.000    1.667    0.000    0.000    0.000    0.000 
#    0.000    0.000    0.000    0.000    0.000    0.833 
#
# Total GULP energy -594755.748809 kJ/mol
# GULP energy per Si atom -12390.744767 kJ/mol
# Density = 1.441155 g / cm^3
# Si number density = 14.444422 Si / 1000 Ang^3
#
#
#
# Elastic Constant Matrix: (Units=GPa)
#
#
# Indices 1 2 3 4 5 6 
#
# 1 47.6793 50.8632 21.7266 0.0000 0.0000 0.0000
# 2 50.8632 111.6955 35.5018 0.0000 0.0000 0.0000
# 3 21.7266 35.5018 80.6056 0.0000 0.0000 0.0000
# 4 0.0000 0.0000 0.0000 19.7848 0.0000 0.0000
# 5 0.0000 0.0000 0.0000 0.0000 13.3025 0.0000
# 6 0.0000 0.0000 0.0000 0.0000 0.0000 0.2805
#
#
#
# Elastic Compliance Matrix: (Units=1/GPa)
#
#
# Indices 1 2 3 4 5 6 
#
# 1 0.041543 -0.017858 -0.003332 0.000000 0.000000 0.000000
# 2 -0.017858 0.018087 -0.003153 0.000000 0.000000 0.000000
# 3 -0.003332 -0.003153 0.014693 0.000000 0.000000 0.000000
# 4 0.000000 0.000000 0.000000 0.050544 0.000000 0.000000
# 5 0.000000 0.000000 0.000000 0.000000 0.075174 0.000000
# 6 0.000000 0.000000 0.000000 0.000000 0.000000 3.564966
#
#
# Mechanical properties :
#
#
# Convention : Reuss Voigt Hill
#
# Bulk Modulus (GPa) = 39.00683 50.68483 44.84583
# Shear Modulus (GPa) = 1.30813 15.46616 8.38715
#
# Velocity S-wave (km/s) = 0.95268 3.27576 2.41228
# Velocity P-wave (km/s) = 5.31729 7.03372 6.23485
#
# Compressibility (1/GPa) = 0.02563654
#
# Stress axis : x y z
#
# Youngs Moduli (GPa) = 24.07159 55.28760 68.06071
#
# Poissons Ratio (x) = 0.98735 0.22678
# Poissons Ratio (y) = 0.42988 0.21458
# Poissons Ratio (z) = 0.08021 0.17431
#
# Static dielectric constant tensor:
#      x y z
#    x 2.679500 0.000000 0.000000 
#    y 0.000000 3.304760 0.000000 
#    z 0.000000 0.000000 2.908900 
# 
# 
# High freq. dielectric constant tensor:
#      x y z
#    x 1.492000 0.000000 0.000000 
#    y 0.000000 1.557040 0.000000 
#    z 0.000000 0.000000 1.569190 
# 
# From -- ./inp_files/8474.got.cif
#   From: 2010.03.12/outbox.cif.g09.slc.cpg/sg72_5_cif.got.tgz:8474.got - 2010.04.16 14:54:00.
