data_PCOD8292295
_publ_section_title
;
Structure prediction by ZEFSAII (Michael W. Deem and Ramdas Pophale) SiO2 
 PCOD8292295
Probable space group: I M M M
;
_chemical_formula_sum "Si O2"
_cell_formula_units_Z 72
_cell_length_a 25.992222
_cell_length_b 11.236711
_cell_length_c 14.398410
_cell_angle_alpha 90.000000
_cell_angle_beta 90.000000
_cell_angle_gamma 90.000000
_cell_volume 4205.301664
_symmetry_space_group_name_H-M "I M M M"
_symmetry_group_IT_number 71
_symmetry_cell_setting 'orthorhombic'
loop_
_space_group_symop_operation_xyz
x,y,z
-x,-y,z
x,-y,-z
-x,y,-z
-x,-y,-z
x,y,-z
-x,y,z
x,-y,z
1/2+x,1/2+y,1/2+z
1/2-x,1/2-y,1/2+z
1/2+x,1/2-y,1/2-z
1/2-x,1/2+y,1/2-z
1/2-x,1/2-y,1/2-z
1/2+x,1/2+y,1/2-z
1/2-x,1/2+y,1/2+z
1/2+x,1/2-y,1/2+z
loop_
_atom_site_type_symbol
_atom_site_label
_atom_site_fract_x
_atom_site_fract_y
_atom_site_fract_z
Si Si1 0.168556 0.357961 0.000000
Si Si2 0.715053 0.640470 0.000000
Si Si3 0.896813 0.756808 0.160329
Si Si4 0.864235 0.141526 0.652966
Si Si5 0.944100 0.860419 0.500000
Si Si6 0.000000 0.359765 0.892900
Si Si7 0.056172 0.000000 0.105956
O O1 0.227079 0.310615 0.000000
O O2 0.141949 0.308726 0.908238
O O3 0.164800 0.500000 0.000000
O O4 0.685992 0.681038 0.905928
O O5 0.713969 0.500000 0.000000
O O6 0.868052 0.771168 0.258716
O O7 0.950036 0.683627 0.163207
O O8 0.909092 0.888644 0.128759
O O9 0.914003 0.175309 0.592609
O O10 0.863241 0.000000 0.678155
O O11 0.000000 0.797364 0.500000
O O12 0.950827 0.000000 0.500000
O O13 0.000000 0.500000 0.895963
O O14 0.000000 0.309964 0.000000
O O15 0.000000 0.000000 0.158571
O O16 0.042343 0.000000 0.000000
#
# Coordination Sequence:
#
# PCOD8292295 Si02
#       7
#     8   8  16  16   8   8   8
#     4  11  23  38  55  74 102 147 194 222 254 309
#     4   8  18  39  57  74 105 140 179 228 269 311
#     4  12  21  32  54  82 108 141 173 218 267 321
#     4   9  18  32  52  80 110 136 168 219 277 321
#     4   8  15  27  45  72 108 141 166 199 254 326
#     4  11  22  37  51  74 111 149 185 212 247 310
#     4  11  20  32  46  77 119 143 163 200 278 334
#
# _framework density 17.121244999999998
#
# number of rings (size 3 to 8) (size 9 to 14) (size 15 to 20)
#    0.000    1.889    4.444    2.000    1.556    0.889 
#    0.000    0.000    0.000    0.000    2.889   12.444 
#    0.000    0.000    0.000    0.000    0.000    0.000 
#
# Total GULP energy -446161.568085 kJ/mol
# GULP energy per Si atom -12393.376891 kJ/mol
# Density = 1.708228 g / cm^3
# Si number density = 17.121245 Si / 1000 Ang^3
#
#
#
# Elastic Constant Matrix: (Units=GPa)
#
#
# Indices 1 2 3 4 5 6 
#
# 1 159.2001 38.7374 68.3579 0.0000 0.0000 0.0000
# 2 38.7374 66.2771 36.5263 0.0000 0.0000 0.0000
# 3 68.3579 36.5263 130.0399 0.0000 0.0000 0.0000
# 4 0.0000 0.0000 0.0000 3.2964 0.0000 0.0000
# 5 0.0000 0.0000 0.0000 0.0000 11.0908 0.0000
# 6 0.0000 0.0000 0.0000 0.0000 0.0000 21.2075
#
#
#
# Elastic Compliance Matrix: (Units=1/GPa)
#
#
# Indices 1 2 3 4 5 6 
#
# 1 0.008587 -0.002995 -0.003673 0.000000 0.000000 0.000000
# 2 -0.002995 0.018896 -0.003733 0.000000 0.000000 0.000000
# 3 -0.003673 -0.003733 0.010669 0.000000 0.000000 0.000000
# 4 0.000000 0.000000 0.000000 0.303358 0.000000 0.000000
# 5 0.000000 0.000000 0.000000 0.000000 0.090165 0.000000
# 6 0.000000 0.000000 0.000000 0.000000 0.000000 0.047153
#
#
# Mechanical properties :
#
#
# Convention : Reuss Voigt Hill
#
# Bulk Modulus (GPa) = 57.63508 71.41780 64.52644
# Shear Modulus (GPa) = 9.89288 21.24531 15.56909
#
# Velocity S-wave (km/s) = 2.40638 3.52643 3.01880
# Velocity P-wave (km/s) = 6.43870 7.64097 7.06545
#
# Compressibility (1/GPa) = 0.01735054
#
# Stress axis : x y z
#
# Youngs Moduli (GPa) = 116.45284 52.92101 93.72719
#
# Poissons Ratio (x) = 0.15849 0.34424
# Poissons Ratio (y) = 0.34876 0.34991
# Poissons Ratio (z) = 0.42771 0.19757
#
# Static dielectric constant tensor:
#      x y z
#    x 3.845920 0.000000 0.000000 
#    y 0.000000 2.957290 0.000000 
#    z 0.000000 0.000000 3.300580 
# 
# 
# High freq. dielectric constant tensor:
#      x y z
#    x 1.668360 0.000000 0.000000 
#    y 0.000000 1.630220 0.000000 
#    z 0.000000 0.000000 1.657870 
# 
# From -- ./inp_files/38947.got.cif
#   From: 2010.06.25/outbox.cif.g09.slc.cpg/sg71_20_cif.got.tgz:38947.got - 2010.06.28 04:59:45.
