data_PCOD8292816
_publ_section_title
;
Structure prediction by ZEFSAII (Michael W. Deem and Ramdas Pophale) SiO2 
 PCOD8292816
Probable space group: I B A M
;
_chemical_formula_sum "Si O2"
_cell_formula_units_Z 128
_cell_length_a 21.166968
_cell_length_b 23.102390
_cell_length_c 17.010348
_cell_angle_alpha 90.000000
_cell_angle_beta 90.000000
_cell_angle_gamma 90.000000
_cell_volume 8318.188598
_symmetry_space_group_name_H-M "I B A M"
_symmetry_group_IT_number 72
_symmetry_cell_setting 'orthorhombic'
loop_
_space_group_symop_operation_xyz
x,y,z
-x,-y,z
x,-y,1/2-z
-x,y,1/2-z
-x,-y,-z
x,y,-z
-x,y,1/2+z
x,-y,1/2+z
1/2+x,1/2+y,1/2+z
1/2-x,1/2-y,1/2+z
1/2+x,1/2-y,-z
1/2-x,1/2+y,-z
1/2-x,1/2-y,1/2-z
1/2+x,1/2+y,1/2-z
1/2-x,1/2+y,z
1/2+x,1/2-y,z
loop_
_atom_site_type_symbol
_atom_site_label
_atom_site_fract_x
_atom_site_fract_y
_atom_site_fract_z
Si Si1 0.668990 0.047394 0.190403
Si Si2 0.569047 0.023290 0.407444
Si Si3 0.621977 0.870587 0.820786
Si Si4 0.242858 0.309154 0.660891
Si Si5 0.346214 0.235207 0.588035
Si Si6 0.743664 0.872982 0.588254
Si Si7 0.072735 0.742869 0.744105
Si Si8 0.321545 0.309017 0.801034
O O1 0.636194 0.098400 0.238587
O O2 0.726388 0.070425 0.137762
O O3 0.697280 0.000000 0.250000
O O4 0.617758 0.019671 0.132931
O O5 0.580177 0.022236 0.500000
O O6 0.579248 0.088926 0.376653
O O7 0.500000 0.000000 0.384795
O O8 0.688391 0.854630 0.866561
O O9 0.582686 0.813972 0.797311
O O10 0.292505 0.285695 0.596025
O O11 0.283184 0.340137 0.730208
O O12 0.203707 0.256462 0.697340
O O13 0.375445 0.241489 0.500000
O O14 0.312602 0.173272 0.596239
O O15 0.400735 0.237747 0.654264
O O16 0.756295 0.892455 0.500000
O O17 0.809140 0.845044 0.619840
O O18 0.104656 0.800271 0.782955
O O19 0.000000 0.757809 0.750000
#
# Coordination Sequence:
#
# PCOD8292816 Si02
#       8
#    16  16  16  16  16  16  16  16
#     4  10  19  30  46  64  84 117 159 200 231 266
#     4  10  23  36  42  57  90 128 165 206 236 261
#     4  10  18  30  50  65  83 119 161 195 234 271
#     4   8  13  26  45  65  85 105 142 186 232 278
#     4   9  17  28  46  69  90 115 149 189 230 278
#     4  10  16  27  48  69  87 115 152 191 236 276
#     4  10  19  30  46  68  92 123 156 186 226 280
#     4   8  14  27  43  63  89 112 138 181 227 280
#
# _framework density 15.387964999999999
#
# number of rings (size 3 to 8) (size 9 to 14) (size 15 to 20)
#    0.000    2.625    2.500    1.875    1.750    2.250 
#    0.000    3.125    0.000    0.000    0.000    0.000 
#    0.000    0.500    0.000    1.125    0.250    0.000 
#
# Total GULP energy -792930.375776 kJ/mol
# GULP energy per Si atom -12389.537121 kJ/mol
# Density = 1.535294 g / cm^3
# Si number density = 15.387965 Si / 1000 Ang^3
#
#
#
# Elastic Constant Matrix: (Units=GPa)
#
#
# Indices 1 2 3 4 5 6 
#
# 1 98.5326 45.4220 42.4524 0.0000 0.0000 0.0000
# 2 45.4220 55.7690 39.3408 0.0000 0.0000 0.0000
# 3 42.4524 39.3408 93.2084 0.0000 0.0000 0.0000
# 4 0.0000 0.0000 0.0000 19.8681 0.0000 0.0000
# 5 0.0000 0.0000 0.0000 0.0000 18.5324 0.0000
# 6 0.0000 0.0000 0.0000 0.0000 0.0000 24.0899
#
#
#
# Elastic Compliance Matrix: (Units=1/GPa)
#
#
# Indices 1 2 3 4 5 6 
#
# 1 0.016699 -0.011728 -0.002656 0.000000 0.000000 0.000000
# 2 -0.011728 0.033769 -0.008912 0.000000 0.000000 0.000000
# 3 -0.002656 -0.008912 0.015700 0.000000 0.000000 0.000000
# 4 0.000000 0.000000 0.000000 0.050332 0.000000 0.000000
# 5 0.000000 0.000000 0.000000 0.000000 0.053960 0.000000
# 6 0.000000 0.000000 0.000000 0.000000 0.000000 0.041511
#
#
# Mechanical properties :
#
#
# Convention : Reuss Voigt Hill
#
# Bulk Modulus (GPa) = 51.07781 55.77116 53.42449
# Shear Modulus (GPa) = 18.86166 20.51774 19.68970
#
# Velocity S-wave (km/s) = 3.50486 3.65549 3.58096
# Velocity P-wave (km/s) = 7.04586 7.35791 7.20357
#
# Compressibility (1/GPa) = 0.01957797
#
# Stress axis : x y z
#
# Youngs Moduli (GPa) = 59.88213 29.61255 63.69518
#
# Poissons Ratio (x) = 0.34728 0.16917
# Poissons Ratio (y) = 0.70227 0.56764
# Poissons Ratio (z) = 0.15905 0.26390
#
# Static dielectric constant tensor:
#      x y z
#    x 2.835990 0.000000 0.000000 
#    y 0.000000 2.866280 0.000000 
#    z 0.000000 0.000000 2.990270 
# 
# 
# High freq. dielectric constant tensor:
#      x y z
#    x 1.563000 0.000000 0.000000 
#    y 0.000000 1.564770 0.000000 
#    z 0.000000 0.000000 1.592600 
# 
# From -- ./inp_files/32975.got.cif
#   From: 2010.03.12/outbox.cif.g09.slc.cpg/sg72_17_cif.got.tgz:32975.got - 2010.04.16 14:54:00.
