data_PCOD8292623
_publ_section_title
;
Structure prediction by ZEFSAII (Michael W. Deem and Ramdas Pophale) SiO2 
 PCOD8292623
Probable space group: I M M M
;
_chemical_formula_sum "Si O2"
_cell_formula_units_Z 104
_cell_length_a 15.223752
_cell_length_b 22.985427
_cell_length_c 24.533662
_cell_angle_alpha 90.000000
_cell_angle_beta 90.000000
_cell_angle_gamma 90.000000
_cell_volume 8584.927943
_symmetry_space_group_name_H-M "I M M M"
_symmetry_group_IT_number 71
_symmetry_cell_setting 'orthorhombic'
loop_
_space_group_symop_operation_xyz
x,y,z
-x,-y,z
x,-y,-z
-x,y,-z
-x,-y,-z
x,y,-z
-x,y,z
x,-y,z
1/2+x,1/2+y,1/2+z
1/2-x,1/2-y,1/2+z
1/2+x,1/2-y,1/2-z
1/2-x,1/2+y,1/2-z
1/2-x,1/2-y,1/2-z
1/2+x,1/2+y,1/2-z
1/2-x,1/2+y,1/2+z
1/2+x,1/2-y,1/2+z
loop_
_atom_site_type_symbol
_atom_site_label
_atom_site_fract_x
_atom_site_fract_y
_atom_site_fract_z
Si Si1 0.604361 0.220442 0.439190
Si Si2 0.250041 0.567689 0.436590
Si Si3 0.902399 0.430738 0.357965
Si Si4 0.604590 0.000000 0.561483
Si Si5 0.604246 0.064719 0.261246
Si Si6 0.902688 0.848856 0.064763
Si Si7 0.104689 0.611839 0.126955
O O1 0.642777 0.209908 0.500000
O O2 0.500000 0.216121 0.442180
O O3 0.630139 0.284600 0.416943
O O4 0.643096 0.171484 0.398550
O O5 0.231915 0.579903 0.500000
O O6 0.268504 0.500000 0.425503
O O7 0.165011 0.590701 0.404019
O O8 0.334522 0.602674 0.414493
O O9 0.906941 0.500000 0.356544
O O10 0.869442 0.409269 0.298074
O O11 0.000000 0.406106 0.371459
O O12 0.640079 0.057292 0.592071
O O13 0.500000 0.000000 0.561456
O O14 0.641304 0.000000 0.500000
O O15 0.500000 0.059752 0.263693
O O16 0.638252 0.105817 0.310463
O O17 0.644110 0.000000 0.269433
O O18 0.000000 0.862650 0.088730
O O19 0.908535 0.849698 0.000000
O O20 0.000000 0.612873 0.124978
#
# Coordination Sequence:
#
# PCOD8292623 Si02
#       7
#    16  16  16   8  16  16  16
#     4   8  13  20  29  41  58  82 109 131 153 182
#     4   9  16  24  35  51  65  77  97 126 164 202
#     4   8  14  23  34  47  64  84 102 124 155 190
#     4   9  14  16  20  36  62  84 101 131 166 179
#     4   8  12  19  29  41  58  81 108 131 151 177
#     4   8  14  24  35  46  62  83 105 129 155 186
#     4   9  13  17  26  40  58  81 108 134 154 177
#
# _framework density 12.114254000000001
#
# number of rings (size 3 to 8) (size 9 to 14) (size 15 to 20)
#    0.000    3.615    0.769    2.308    0.000    2.462 
#    0.000    3.077    0.000    0.923    0.000    0.000 
#    0.000    0.000    0.000    0.000    0.000    0.000 
#
# Total GULP energy -644232.993483 kJ/mol
# GULP energy per Si atom -12389.096029 kJ/mol
# Density = 1.208668 g / cm^3
# Si number density = 12.114254 Si / 1000 Ang^3
#
#
#
# Elastic Constant Matrix: (Units=GPa)
#
#
# Indices 1 2 3 4 5 6 
#
# 1 41.1773 30.5870 31.9527 0.0000 0.0000 0.0000
# 2 30.5870 64.5708 37.4442 0.0000 0.0000 0.0000
# 3 31.9527 37.4442 73.0364 0.0000 0.0000 0.0000
# 4 0.0000 0.0000 0.0000 9.7074 0.0000 0.0000
# 5 0.0000 0.0000 0.0000 0.0000 5.4229 0.0000
# 6 0.0000 0.0000 0.0000 0.0000 0.0000 5.1867
#
#
#
# Elastic Compliance Matrix: (Units=1/GPa)
#
#
# Indices 1 2 3 4 5 6 
#
# 1 0.043954 -0.013761 -0.012175 0.000000 0.000000 0.000000
# 2 -0.013761 0.026347 -0.007487 0.000000 0.000000 0.000000
# 3 -0.012175 -0.007487 0.022857 0.000000 0.000000 0.000000
# 4 0.000000 0.000000 0.000000 0.103014 0.000000 0.000000
# 5 0.000000 0.000000 0.000000 0.000000 0.184404 0.000000
# 6 0.000000 0.000000 0.000000 0.000000 0.000000 0.192801
#
#
# Mechanical properties :
#
#
# Convention : Reuss Voigt Hill
#
# Bulk Modulus (GPa) = 38.00504 42.08357 40.04431
# Shear Modulus (GPa) = 7.70423 9.31676 8.51049
#
# Velocity S-wave (km/s) = 2.52457 2.77623 2.65338
# Velocity P-wave (km/s) = 6.31967 6.71498 6.52032
#
# Compressibility (1/GPa) = 0.02631230
#
# Stress axis : x y z
#
# Youngs Moduli (GPa) = 22.75093 37.95448 43.75088
#
# Poissons Ratio (x) = 0.52229 0.53265
# Poissons Ratio (y) = 0.31308 0.32758
# Poissons Ratio (z) = 0.27698 0.28418
#
# Static dielectric constant tensor:
#      x y z
#    x 2.244630 0.000000 0.000000 
#    y 0.000000 2.572200 0.000000 
#    z 0.000000 0.000000 2.679750 
# 
# 
# High freq. dielectric constant tensor:
#      x y z
#    x 1.399950 0.000000 0.000000 
#    y 0.000000 1.445700 0.000000 
#    z 0.000000 0.000000 1.454270 
# 
# From -- ./inp_files/60154.got.cif
#   From: 2010.06.25/outbox.cif.g09.slc.cpg/sg71_31_cif.got.tgz:60154.got - 2010.06.28 04:59:45.
