data_PCOD8292500
_publ_section_title
;
Structure prediction by ZEFSAII (Michael W. Deem and Ramdas Pophale) SiO2 
 PCOD8292500
Probable space group: I M M M
;
_chemical_formula_sum "Si O2"
_cell_formula_units_Z 64
_cell_length_a 32.603058
_cell_length_b 10.612896
_cell_length_c 8.370790
_cell_angle_alpha 90.000000
_cell_angle_beta 90.000000
_cell_angle_gamma 90.000000
_cell_volume 2896.401020
_symmetry_space_group_name_H-M "I M M M"
_symmetry_group_IT_number 71
_symmetry_cell_setting 'orthorhombic'
loop_
_space_group_symop_operation_xyz
x,y,z
-x,-y,z
x,-y,-z
-x,y,-z
-x,-y,-z
x,y,-z
-x,y,z
x,-y,z
1/2+x,1/2+y,1/2+z
1/2-x,1/2-y,1/2+z
1/2+x,1/2-y,1/2-z
1/2-x,1/2+y,1/2-z
1/2-x,1/2-y,1/2-z
1/2+x,1/2+y,1/2-z
1/2-x,1/2+y,1/2+z
1/2+x,1/2-y,1/2+z
loop_
_atom_site_type_symbol
_atom_site_label
_atom_site_fract_x
_atom_site_fract_y
_atom_site_fract_z
Si Si1 0.000000 0.641505 0.327729
Si Si2 0.451484 0.500000 0.185787
Si Si3 0.283133 0.000000 0.684498
Si Si4 0.333657 0.230991 0.184799
Si Si5 0.194262 0.000000 0.814567
Si Si6 0.420000 0.754991 0.315697
O O1 0.040168 0.664343 0.224390
O O2 0.000000 0.500000 0.379786
O O3 0.000000 0.718988 0.500000
O O4 0.500000 0.500000 0.215143
O O5 0.430401 0.613307 0.274973
O O6 0.440146 0.500000 0.000000
O O7 0.307821 0.871939 0.718212
O O8 0.270052 0.000000 0.500000
O O9 0.242889 0.000000 0.792667
O O10 0.324699 0.373910 0.238169
O O11 0.381379 0.199032 0.212436
O O12 0.322612 0.215712 0.000000
O O13 0.183007 0.000000 0.000000
O O14 0.408505 0.770799 0.500000
#
# Coordination Sequence:
#
# PCOD8292500 Si02
#       6
#     8   8   8  16   8  16
#     4  11  25  44  65  90 127 175 225 273 329 394
#     4  11  22  39  64  91 125 167 217 268 328 391
#     4  12  26  47  73 105 140 179 227 280 341 408
#     4  12  26  46  71 102 140 183 229 281 341 405
#     4  12  25  47  74 105 141 180 226 278 341 409
#     4  12  25  42  66  97 133 172 221 276 332 392
#
# _framework density 22.096388000000001
#
# number of rings (size 3 to 8) (size 9 to 14) (size 15 to 20)
#    0.000    0.250    1.250    9.000    1.750    1.500 
#    0.000    0.000    0.000    0.000    0.000    0.000 
#    0.000    0.000    0.000    0.000    0.000    0.000 
#
# Total GULP energy -396908.913899 kJ/mol
# GULP energy per Si atom -12403.403559 kJ/mol
# Density = 2.204610 g / cm^3
# Si number density = 22.096388 Si / 1000 Ang^3
#
#
#
# Elastic Constant Matrix: (Units=GPa)
#
#
# Indices 1 2 3 4 5 6 
#
# 1 125.0016 22.7082 4.3816 0.0000 0.0000 0.0000
# 2 22.7082 103.7713 18.7471 0.0000 0.0000 0.0000
# 3 4.3816 18.7471 116.1473 0.0001 0.0000 -0.0001
# 4 0.0000 0.0000 0.0001 34.5973 0.0000 0.0000
# 5 0.0000 0.0000 0.0000 0.0000 36.5491 0.0000
# 6 0.0000 0.0000 -0.0001 0.0000 0.0000 80.4606
#
#
#
# Elastic Compliance Matrix: (Units=1/GPa)
#
#
# Indices 1 2 3 4 5 6 
#
# 1 0.008331 -0.001819 -0.000021 0.000000 0.000000 0.000000
# 2 -0.001819 0.010323 -0.001598 0.000000 0.000000 0.000000
# 3 -0.000021 -0.001598 0.008868 0.000000 0.000000 0.000000
# 4 0.000000 0.000000 0.000000 0.028904 0.000000 0.000000
# 5 0.000000 0.000000 0.000000 0.000000 0.027360 0.000000
# 6 0.000000 0.000000 0.000000 0.000000 0.000000 0.012428
#
#
# Mechanical properties :
#
#
# Convention : Reuss Voigt Hill
#
# Bulk Modulus (GPa) = 48.43179 48.51048 48.47113
# Shear Modulus (GPa) = 45.46546 50.26027 47.86287
#
# Velocity S-wave (km/s) = 4.54100 4.77444 4.65918
# Velocity P-wave (km/s) = 7.03279 7.23847 7.13637
#
# Compressibility (1/GPa) = 0.02064760
#
# Stress axis : x y z
#
# Youngs Moduli (GPa) = 120.03173 96.86796 112.75987
#
# Poissons Ratio (x) = 0.17624 0.00233
# Poissons Ratio (y) = 0.21838 0.18015
# Poissons Ratio (z) = 0.00248 0.15476
#
# Static dielectric constant tensor:
#      x y z
#    x 4.454680 0.000000 0.000000 
#    y 0.000000 4.034530 0.000000 
#    z 0.000000 0.000000 4.074160 
# 
# 
# High freq. dielectric constant tensor:
#      x y z
#    x 1.884060 0.000000 0.000000 
#    y 0.000000 1.880170 0.000000 
#    z 0.000000 0.000000 1.886100 
# 
# From -- ./inp_files/16199.got.cif
#   From: 2010.06.25/outbox.cif.g09.slc.cpg/sg71_9_cif.got.tgz:16199.got - 2010.06.28 04:59:45.
