data_PCOD8292481
_publ_section_title
;
Structure prediction by ZEFSAII (Michael W. Deem and Ramdas Pophale) SiO2 
 PCOD8292481
Probable space group: I M M M
;
_chemical_formula_sum "Si O2"
_cell_formula_units_Z 84
_cell_length_a 21.379194
_cell_length_b 15.561922
_cell_length_c 14.028311
_cell_angle_alpha 90.000000
_cell_angle_beta 90.000000
_cell_angle_gamma 90.000000
_cell_volume 4667.238000
_symmetry_space_group_name_H-M "I M M M"
_symmetry_group_IT_number 71
_symmetry_cell_setting 'orthorhombic'
loop_
_space_group_symop_operation_xyz
x,y,z
-x,-y,z
x,-y,-z
-x,y,-z
-x,-y,-z
x,y,-z
-x,y,z
x,-y,z
1/2+x,1/2+y,1/2+z
1/2-x,1/2-y,1/2+z
1/2+x,1/2-y,1/2-z
1/2-x,1/2+y,1/2-z
1/2-x,1/2-y,1/2-z
1/2+x,1/2+y,1/2-z
1/2-x,1/2+y,1/2+z
1/2+x,1/2-y,1/2+z
loop_
_atom_site_type_symbol
_atom_site_label
_atom_site_fract_x
_atom_site_fract_y
_atom_site_fract_z
Si Si1 0.574788 0.319341 0.500000
Si Si2 0.567242 0.500000 0.711156
Si Si3 0.761447 0.599604 0.110653
Si Si4 0.133038 0.845371 0.690346
Si Si5 0.615237 0.800047 0.667919
Si Si6 0.586425 0.500000 0.500000
Si Si7 0.500000 0.100993 0.609864
Si Si8 0.926381 0.098008 0.500000
O O1 0.500000 0.341445 0.500000
O O2 0.593705 0.270196 0.406530
O O3 0.618848 0.406181 0.500000
O O4 0.500000 0.500000 0.766377
O O5 0.606012 0.584356 0.737469
O O6 0.549236 0.500000 0.600015
O O7 0.773931 0.500000 0.134031
O O8 0.706041 0.635808 0.175561
O O9 0.822280 0.653411 0.135735
O O10 0.743852 0.611904 0.000000
O O11 0.124437 0.749014 0.731709
O O12 0.096731 0.850106 0.591209
O O13 0.560238 0.870414 0.670631
O O14 0.500000 0.139374 0.500000
O O15 0.500000 0.000000 0.601701
O O16 0.000000 0.094885 0.500000
O O17 0.898838 0.000000 0.500000
#
# Coordination Sequence:
#
# PCOD8292481 Si02
#       8
#     8   8  16  16  16   4   8   8
#     4  12  21  35  53  88 126 153 197 237 295 369
#     4  12  23  35  58  89 123 161 195 240 296 362
#     4  11  22  41  62  85 118 160 203 256 308 355
#     4  12  24  38  59  87 121 160 201 247 301 357
#     4  12  23  37  60  90 121 153 199 251 302 364
#     4  12  25  36  56  86 130 176 194 223 304 403
#     4  11  22  40  64  95 124 155 195 250 309 356
#     4  11  22  37  58  89 123 157 202 252 291 346
#
# _framework density 17.997796000000001
#
# number of rings (size 3 to 8) (size 9 to 14) (size 15 to 20)
#    0.000    0.381    7.619    2.571    2.667    1.524 
#    0.000    0.000    0.000    0.000    0.000    2.667 
#    0.000    0.000    0.000    0.000    0.000    0.000 
#
# Total GULP energy -520547.258217 kJ/mol
# GULP energy per Si atom -12393.982338 kJ/mol
# Density = 1.795683 g / cm^3
# Si number density = 17.997796 Si / 1000 Ang^3
#
#
#
# Elastic Constant Matrix: (Units=GPa)
#
#
# Indices 1 2 3 4 5 6 
#
# 1 122.9850 44.2395 35.0935 0.0000 0.0000 0.0000
# 2 44.2395 99.3582 44.4881 0.0000 0.0000 0.0000
# 3 35.0935 44.4881 99.9979 0.0000 0.0000 0.0000
# 4 0.0000 0.0000 0.0000 42.8264 0.0000 0.0000
# 5 0.0000 0.0000 0.0000 0.0000 35.4527 0.0000
# 6 0.0000 0.0000 0.0000 0.0000 0.0000 185.8994
#
#
#
# Elastic Compliance Matrix: (Units=1/GPa)
#
#
# Indices 1 2 3 4 5 6 
#
# 1 0.009963 -0.003585 -0.001902 0.000000 0.000000 0.000000
# 2 -0.003585 0.013858 -0.004907 0.000000 0.000000 0.000000
# 3 -0.001902 -0.004907 0.012851 0.000000 0.000000 0.000000
# 4 0.000000 0.000000 0.000000 0.023350 0.000000 0.000000
# 5 0.000000 0.000000 0.000000 0.000000 0.028207 0.000000
# 6 0.000000 0.000000 0.000000 0.000000 0.000000 0.005379
#
#
# Mechanical properties :
#
#
# Convention : Reuss Voigt Hill
#
# Bulk Modulus (GPa) = 62.95382 63.33147 63.14265
# Shear Modulus (GPa) = 41.77460 66.07036 53.92248
#
# Velocity S-wave (km/s) = 4.82300 6.06547 5.47957
# Velocity P-wave (km/s) = 8.12833 9.18249 8.67144
#
# Compressibility (1/GPa) = 0.01588466
#
# Stress axis : x y z
#
# Youngs Moduli (GPa) = 100.36969 72.16094 77.81614
#
# Poissons Ratio (x) = 0.25867 0.14799
# Poissons Ratio (y) = 0.35979 0.38186
# Poissons Ratio (z) = 0.19088 0.35411
#
# Static dielectric constant tensor:
#      x y z
#    x 3.437260 0.000000 0.000000 
#    y 0.000000 3.484100 0.000000 
#    z 0.000000 0.000000 3.405180 
# 
# 
# High freq. dielectric constant tensor:
#      x y z
#    x 1.699430 0.000000 0.000000 
#    y 0.000000 1.701230 0.000000 
#    z 0.000000 0.000000 1.691030 
# 
# From -- ./inp_files/37803.got.cif
#   From: 2010.06.25/outbox.cif.g09.slc.cpg/sg71_19_cif.got.tgz:37803.got - 2010.06.28 04:59:45.
