data_PCOD8292653
_publ_section_title
;
Structure prediction by ZEFSAII (Michael W. Deem and Ramdas Pophale) SiO2 
 PCOD8292653
Probable space group: I M M M
;
_chemical_formula_sum "Si O2"
_cell_formula_units_Z 96
_cell_length_a 19.866734
_cell_length_b 9.786298
_cell_length_c 30.532024
_cell_angle_alpha 90.000000
_cell_angle_beta 90.000000
_cell_angle_gamma 90.000000
_cell_volume 5936.090429
_symmetry_space_group_name_H-M "I M M M"
_symmetry_group_IT_number 71
_symmetry_cell_setting 'orthorhombic'
loop_
_space_group_symop_operation_xyz
x,y,z
-x,-y,z
x,-y,-z
-x,y,-z
-x,-y,-z
x,y,-z
-x,y,z
x,-y,z
1/2+x,1/2+y,1/2+z
1/2-x,1/2-y,1/2+z
1/2+x,1/2-y,1/2-z
1/2-x,1/2+y,1/2-z
1/2-x,1/2-y,1/2-z
1/2+x,1/2+y,1/2-z
1/2-x,1/2+y,1/2+z
1/2+x,1/2-y,1/2+z
loop_
_atom_site_type_symbol
_atom_site_label
_atom_site_fract_x
_atom_site_fract_y
_atom_site_fract_z
Si Si1 0.832684 0.338685 0.386254
Si Si2 0.578397 0.343212 0.949602
Si Si3 0.574892 0.337414 0.548823
Si Si4 0.180819 0.163018 0.117584
Si Si5 0.327662 0.651752 0.713476
Si Si6 0.332205 0.849498 0.212777
O O1 0.840155 0.500000 0.395301
O O2 0.880086 0.257250 0.418892
O O3 0.756072 0.288477 0.394246
O O4 0.853140 0.303658 0.336163
O O5 0.500000 0.315649 0.941251
O O6 0.596248 0.500000 0.938358
O O7 0.596676 0.311682 0.000000
O O8 0.591934 0.284963 0.500000
O O9 0.500000 0.288924 0.562464
O O10 0.578404 0.500000 0.549967
O O11 0.629507 0.274634 0.582002
O O12 0.156274 0.214182 0.165445
O O13 0.180569 0.000000 0.118719
O O14 0.358309 0.500000 0.719026
O O15 0.361318 0.745012 0.751131
O O16 0.247678 0.644436 0.717429
O O17 0.362021 0.000000 0.222350
#
# Coordination Sequence:
#
# PCOD8292653 Si02
#       6
#    16  16  16  16  16  16
#     4   9  17  28  44  67  90 111 139 177 217 254
#     4   9  19  35  50  63  84 114 143 173 213 260
#     4   8  13  21  34  53  79 113 146 170 202 252
#     4   8  14  24  37  58  88 114 140 180 220 247
#     4   8  13  22  37  56  80 112 144 171 205 249
#     4   8  14  24  37  57  85 110 135 171 210 247
#
# _framework density 16.172260999999999
#
# number of rings (size 3 to 8) (size 9 to 14) (size 15 to 20)
#    0.000    3.667    0.000    3.000    0.000    2.000 
#    0.000    5.000    0.000    1.000    0.000    2.333 
#    0.000    2.000    0.000    9.167    0.000    8.000 
#
# Total GULP energy -594787.675428 kJ/mol
# GULP energy per Si atom -12391.409905 kJ/mol
# Density = 1.613545 g / cm^3
# Si number density = 16.172261 Si / 1000 Ang^3
#
#
#
# Elastic Constant Matrix: (Units=GPa)
#
#
# Indices 1 2 3 4 5 6 
#
# 1 63.8846 35.0859 69.0162 0.0000 0.0000 0.0000
# 2 35.0859 59.0048 63.2593 0.0000 0.0000 0.0000
# 3 69.0162 63.2593 146.2817 0.0000 0.0000 0.0000
# 4 0.0000 0.0000 0.0000 28.1589 0.0000 0.0000
# 5 0.0000 0.0000 0.0000 0.0000 2.7811 0.0000
# 6 0.0000 0.0000 0.0000 0.0000 0.0000 14.6946
#
#
#
# Elastic Compliance Matrix: (Units=1/GPa)
#
#
# Indices 1 2 3 4 5 6 
#
# 1 0.032835 -0.005436 -0.013141 0.000000 0.000000 0.000000
# 2 -0.005436 0.032497 -0.011488 0.000000 0.000000 0.000000
# 3 -0.013141 -0.011488 0.018004 0.000000 0.000000 0.000000
# 4 0.000000 0.000000 0.000000 0.035513 0.000000 0.000000
# 5 0.000000 0.000000 0.000000 0.000000 0.359567 0.000000
# 6 0.000000 0.000000 0.000000 0.000000 0.000000 0.068052
#
#
# Mechanical properties :
#
#
# Convention : Reuss Voigt Hill
#
# Bulk Modulus (GPa) = 43.09361 67.09932 55.09647
# Shear Modulus (GPa) = 8.13887 15.91425 12.02656
#
# Velocity S-wave (km/s) = 2.24578 3.14035 2.72996
# Velocity P-wave (km/s) = 5.78180 7.39794 6.63923
#
# Compressibility (1/GPa) = 0.02320529
#
# Stress axis : x y z
#
# Youngs Moduli (GPa) = 30.45494 30.77181 55.54267
#
# Poissons Ratio (x) = 0.16729 0.72988
# Poissons Ratio (y) = 0.16557 0.63810
# Poissons Ratio (z) = 0.40020 0.35352
#
# Static dielectric constant tensor:
#      x y z
#    x 2.852950 0.000000 0.000000 
#    y 0.000000 2.916110 0.000000 
#    z 0.000000 0.000000 3.360750 
# 
# 
# High freq. dielectric constant tensor:
#      x y z
#    x 1.586550 0.000000 0.000000 
#    y 0.000000 1.585980 0.000000 
#    z 0.000000 0.000000 1.633950 
# 
# From -- ./inp_files/66523.got.cif
#   From: 2010.06.25/outbox.cif.g09.slc.cpg/sg71_34_cif.got.tgz:66523.got - 2010.06.28 04:59:45.
