data_PCOD8292380
_publ_section_title
;
Structure prediction by ZEFSAII (Michael W. Deem and Ramdas Pophale) SiO2 
 PCOD8292380
Probable space group: I M M M
;
_chemical_formula_sum "Si O2"
_cell_formula_units_Z 80
_cell_length_a 8.880384
_cell_length_b 23.457646
_cell_length_c 19.656923
_cell_angle_alpha 90.000000
_cell_angle_beta 90.000000
_cell_angle_gamma 90.000000
_cell_volume 4094.790718
_symmetry_space_group_name_H-M "I M M M"
_symmetry_group_IT_number 71
_symmetry_cell_setting 'orthorhombic'
loop_
_space_group_symop_operation_xyz
x,y,z
-x,-y,z
x,-y,-z
-x,y,-z
-x,-y,-z
x,y,-z
-x,y,z
x,-y,z
1/2+x,1/2+y,1/2+z
1/2-x,1/2-y,1/2+z
1/2+x,1/2-y,1/2-z
1/2-x,1/2+y,1/2-z
1/2-x,1/2-y,1/2-z
1/2+x,1/2+y,1/2-z
1/2-x,1/2+y,1/2+z
1/2+x,1/2-y,1/2+z
loop_
_atom_site_type_symbol
_atom_site_label
_atom_site_fract_x
_atom_site_fract_y
_atom_site_fract_z
Si Si1 0.677837 0.260452 0.322597
Si Si2 0.834832 0.066420 0.073939
Si Si3 0.821082 0.661527 0.076757
Si Si4 0.178732 0.564517 0.176518
Si Si5 0.325903 0.123796 0.814541
O O1 0.500000 0.255031 0.316158
O O2 0.750000 0.250000 0.250000
O O3 0.737990 0.214851 0.378306
O O4 0.728946 0.323355 0.342797
O O5 0.700761 0.077871 0.126851
O O6 0.000000 0.088986 0.098807
O O7 0.844398 0.000000 0.064742
O O8 0.797129 0.093891 0.000000
O O9 0.769002 0.601796 0.111401
O O10 0.000000 0.663549 0.073764
O O11 0.754389 0.664744 0.000000
O O12 0.246169 0.500000 0.172208
O O13 0.236003 0.597797 0.243713
O O14 0.000000 0.560217 0.180053
O O15 0.500000 0.140804 0.807244
#
# Coordination Sequence:
#
# PCOD8292380 Si02
#       5
#    16  16  16  16  16
#     4  11  21  36  57  81 109 146 186 229 280 333
#     4   9  19  36  55  77 110 151 192 233 279 333
#     4   9  18  33  53  79 110 142 179 225 277 332
#     4   9  17  30  50  79 112 142 176 222 274 329
#     4  11  21  34  54  83 114 146 186 231 280 336
#
# _framework density 19.537018
#
# number of rings (size 3 to 8) (size 9 to 14) (size 15 to 20)
#    0.000    2.200    2.000    2.400    0.000    2.800 
#    0.000    5.000    0.000    1.800    0.000    0.000 
#    0.000    1.600    0.000    0.000    0.000    0.000 
#
# Total GULP energy -495705.623515 kJ/mol
# GULP energy per Si atom -12392.640588 kJ/mol
# Density = 1.949255 g / cm^3
# Si number density = 19.537018 Si / 1000 Ang^3
#
#
#
# Elastic Constant Matrix: (Units=GPa)
#
#
# Indices 1 2 3 4 5 6 
#
# 1 35.6511 21.1576 27.3868 0.0000 0.0000 0.0000
# 2 21.1576 133.8400 71.3295 0.0000 0.0000 0.0000
# 3 27.3868 71.3295 164.7457 0.0000 0.0000 0.0000
# 4 0.0000 0.0000 0.0000 34.0282 0.0000 0.0000
# 5 0.0000 0.0000 0.0000 0.0000 25.6905 0.0000
# 6 0.0000 0.0000 0.0000 0.0000 0.0000 25.9107
#
#
#
# Elastic Compliance Matrix: (Units=1/GPa)
#
#
# Indices 1 2 3 4 5 6 
#
# 1 0.033049 -0.002985 -0.004201 0.000000 0.000000 0.000000
# 2 -0.002985 0.009982 -0.003826 0.000000 0.000000 0.000000
# 3 -0.004201 -0.003826 0.008425 0.000000 0.000000 0.000000
# 4 0.000000 0.000000 0.000000 0.029387 0.000000 0.000000
# 5 0.000000 0.000000 0.000000 0.000000 0.038925 0.000000
# 6 0.000000 0.000000 0.000000 0.000000 0.000000 0.038594
#
#
# Mechanical properties :
#
#
# Convention : Reuss Voigt Hill
#
# Bulk Modulus (GPa) = 33.97769 63.77607 48.87688
# Shear Modulus (GPa) = 26.28842 31.41674 28.85258
#
# Velocity S-wave (km/s) = 3.67218 4.01442 3.84711
# Velocity P-wave (km/s) = 5.95055 7.36220 6.69369
#
# Compressibility (1/GPa) = 0.02943108
#
# Stress axis : x y z
#
# Youngs Moduli (GPa) = 30.25834 100.17554 118.69651
#
# Poissons Ratio (x) = 0.29905 0.49869
# Poissons Ratio (y) = 0.09033 0.45411
# Poissons Ratio (z) = 0.12713 0.38325
#
# Static dielectric constant tensor:
#      x y z
#    x 3.180120 0.000000 0.000000 
#    y 0.000000 4.206320 0.000000 
#    z 0.000000 0.000000 3.843530 
# 
# 
# High freq. dielectric constant tensor:
#      x y z
#    x 1.714100 0.000000 0.000000 
#    y 0.000000 1.768570 0.000000 
#    z 0.000000 0.000000 1.768010 
# 
# From -- ./inp_files/8311.got.cif
#   From: 2010.06.25/outbox.cif.g09.slc.cpg/sg71_5_cif.got.tgz:8311.got - 2010.06.28 04:59:45.
