data_PCOD8292987
_publ_section_title
;
Structure prediction by ZEFSAII (Michael W. Deem and Ramdas Pophale) SiO2 
 PCOD8292987
Probable space group: I B A M
;
_chemical_formula_sum "Si O2"
_cell_formula_units_Z 80
_cell_length_a 24.287024
_cell_length_b 23.362670
_cell_length_c 8.655047
_cell_angle_alpha 90.000000
_cell_angle_beta 90.000000
_cell_angle_gamma 90.000000
_cell_volume 4910.957855
_symmetry_space_group_name_H-M "I B A M"
_symmetry_group_IT_number 72
_symmetry_cell_setting 'orthorhombic'
loop_
_space_group_symop_operation_xyz
x,y,z
-x,-y,z
x,-y,1/2-z
-x,y,1/2-z
-x,-y,-z
x,y,-z
-x,y,1/2+z
x,-y,1/2+z
1/2+x,1/2+y,1/2+z
1/2-x,1/2-y,1/2+z
1/2+x,1/2-y,-z
1/2-x,1/2+y,-z
1/2-x,1/2-y,1/2-z
1/2+x,1/2+y,1/2-z
1/2-x,1/2+y,z
1/2+x,1/2-y,z
loop_
_atom_site_type_symbol
_atom_site_label
_atom_site_fract_x
_atom_site_fract_y
_atom_site_fract_z
Si Si1 0.164973 0.440423 0.318784
Si Si2 0.945327 0.737250 0.678788
Si Si3 0.228443 0.659846 0.322645
Si Si4 0.557208 0.887129 0.682819
Si Si5 0.672745 0.733966 0.823108
O O1 0.186667 0.500000 0.250000
O O2 0.156469 0.445295 0.500000
O O3 0.211325 0.392982 0.283725
O O4 0.106841 0.425887 0.241615
O O5 0.956086 0.724272 0.500000
O O6 0.933317 0.677522 0.762147
O O7 0.892281 0.778219 0.703741
O O8 0.000000 0.766915 0.750000
O O9 0.219031 0.642262 0.500000
O O10 0.292392 0.676353 0.288838
O O11 0.191305 0.715198 0.288588
O O12 0.500000 0.911716 0.750000
O O13 0.555323 0.889261 0.500000
O O14 0.683174 0.753773 0.000000
#
# Coordination Sequence:
#
# PCOD8292987 Si02
#       5
#    16  16  16  16  16
#     4  12  24  38  52  69  93 124 162 206 246 288
#     4  10  18  29  46  70  99 130 160 196 236 280
#     4  10  19  32  50  72  94 123 161 199 242 287
#     4  11  21  34  50  69  92 125 163 204 243 284
#     4   9  18  31  49  71  98 127 158 196 238 287
#
# _framework density 16.290101
#
# number of rings (size 3 to 8) (size 9 to 14) (size 15 to 20)
#    0.000    1.600    2.000    6.000    0.000    2.000 
#    0.000    2.000    0.000    0.000    0.000    0.000 
#    0.000    0.800    0.000    9.200    0.000    2.800 
#
# Total GULP energy -495974.857794 kJ/mol
# GULP energy per Si atom -12399.371445 kJ/mol
# Density = 1.625302 g / cm^3
# Si number density = 16.290101 Si / 1000 Ang^3
#
#
#
# Elastic Constant Matrix: (Units=GPa)
#
#
# Indices 1 2 3 4 5 6 
#
# 1 116.9958 47.0640 43.2225 0.0000 0.0000 0.0000
# 2 47.0640 60.8234 30.3796 0.0000 0.0000 0.0000
# 3 43.2225 30.3796 121.0944 0.0000 0.0000 0.0000
# 4 0.0000 0.0000 0.0000 20.9221 0.0000 0.0000
# 5 0.0000 0.0000 0.0000 0.0000 25.8882 0.0000
# 6 0.0000 0.0000 0.0000 0.0000 0.0000 25.6305
#
#
#
# Elastic Compliance Matrix: (Units=1/GPa)
#
#
# Indices 1 2 3 4 5 6 
#
# 1 0.013002 -0.008852 -0.002420 0.000000 0.000000 0.000000
# 2 -0.008852 0.024823 -0.003068 0.000000 0.000000 0.000000
# 3 -0.002420 -0.003068 0.009891 0.000000 0.000000 0.000000
# 4 0.000000 0.000000 0.000000 0.047796 0.000000 0.000000
# 5 0.000000 0.000000 0.000000 0.000000 0.038628 0.000000
# 6 0.000000 0.000000 0.000000 0.000000 0.000000 0.039016
#
#
# Mechanical properties :
#
#
# Convention : Reuss Voigt Hill
#
# Bulk Modulus (GPa) = 52.53075 60.02729 56.27902
# Shear Modulus (GPa) = 24.01736 26.37133 25.19435
#
# Velocity S-wave (km/s) = 3.84390 4.02787 3.93696
# Velocity P-wave (km/s) = 7.21233 7.65249 7.43567
#
# Compressibility (1/GPa) = 0.01903647
#
# Stress axis : x y z
#
# Youngs Moduli (GPa) = 76.90892 40.28527 101.09693
#
# Poissons Ratio (x) = 0.35661 0.24467
# Poissons Ratio (y) = 0.68081 0.31015
# Poissons Ratio (z) = 0.18613 0.12359
#
# Static dielectric constant tensor:
#      x y z
#    x 3.360140 0.000000 0.000000 
#    y 0.000000 2.833950 0.000000 
#    z 0.000000 0.000000 3.247440 
# 
# 
# High freq. dielectric constant tensor:
#      x y z
#    x 1.631060 0.000000 0.000000 
#    y 0.000000 1.574280 0.000000 
#    z 0.000000 0.000000 1.648250 
# 
# From -- ./inp_files/5030.got.cif
#   From: 2010.03.12/outbox.cif.g09.slc.cpg/sg72_3_cif.got.tgz:5030.got - 2010.04.16 14:54:00.
