data_PCOD8292005
_publ_section_title
;
Structure prediction by ZEFSAII (Michael W. Deem and Ramdas Pophale) SiO2 
 PCOD8292005
Probable space group: I M M M
;
_chemical_formula_sum "Si O2"
_cell_formula_units_Z 40
_cell_length_a 10.317553
_cell_length_b 14.451861
_cell_length_c 12.030247
_cell_angle_alpha 90.000000
_cell_angle_beta 90.000000
_cell_angle_gamma 90.000000
_cell_volume 1793.804167
_symmetry_space_group_name_H-M "I M M M"
_symmetry_group_IT_number 71
_symmetry_cell_setting 'orthorhombic'
loop_
_space_group_symop_operation_xyz
x,y,z
-x,-y,z
x,-y,-z
-x,y,-z
-x,-y,-z
x,y,-z
-x,y,z
x,-y,z
1/2+x,1/2+y,1/2+z
1/2-x,1/2-y,1/2+z
1/2+x,1/2-y,1/2-z
1/2-x,1/2+y,1/2-z
1/2-x,1/2-y,1/2-z
1/2+x,1/2+y,1/2-z
1/2-x,1/2+y,1/2+z
1/2+x,1/2-y,1/2+z
loop_
_atom_site_type_symbol
_atom_site_label
_atom_site_fract_x
_atom_site_fract_y
_atom_site_fract_z
Si Si1 0.000000 0.296774 0.123696
Si Si2 0.780733 0.394882 0.741140
Si Si3 0.143739 0.609035 0.500000
Si Si4 0.000000 0.897177 0.205901
O O1 0.870388 0.329833 0.185377
O O2 0.000000 0.185498 0.116808
O O3 0.000000 0.337905 0.000000
O O4 0.833201 0.500000 0.750960
O O5 0.782991 0.359651 0.612455
O O6 0.630504 0.388475 0.781098
O O7 0.133554 0.500000 0.500000
O O8 0.000000 0.653064 0.500000
O O9 0.000000 0.000000 0.147694
#
# Coordination Sequence:
#
# PCOD8292005 Si02
#       4
#     8  16   8   8
#     4  12  25  40  62  96 131 166 207 250 310 385
#     4  10  21  40  66  95 124 162 209 260 314 365
#     4   9  16  31  61  95 121 153 204 258 305 356
#     4  10  24  44  65  89 125 166 212 266 310 357
#
# _framework density 22.298978000000002
#
# number of rings (size 3 to 8) (size 9 to 14) (size 15 to 20)
#    0.000    1.800    2.000    1.800    2.800    2.000 
#    0.000    1.000    0.000    3.600    0.000    0.000 
#    0.000    0.000    0.000    0.000    0.000    0.000 
#
# Total GULP energy -247835.891300 kJ/mol
# GULP energy per Si atom -12391.794565 kJ/mol
# Density = 2.224822 g / cm^3
# Si number density = 22.298978 Si / 1000 Ang^3
#
#
#
# Elastic Constant Matrix: (Units=GPa)
#
#
# Indices 1 2 3 4 5 6 
#
# 1 193.0708 48.0324 60.5312 0.0000 0.0000 0.0000
# 2 48.0324 115.6373 50.7414 0.0001 0.0002 0.0000
# 3 60.5312 50.7414 131.7572 0.0002 0.0002 0.0001
# 4 0.0000 0.0001 0.0002 14.3538 0.0002 0.0001
# 5 0.0000 0.0002 0.0002 0.0002 1.3870 0.0001
# 6 0.0000 0.0000 0.0001 0.0001 0.0001 21.2201
#
#
#
# Elastic Compliance Matrix: (Units=1/GPa)
#
#
# Indices 1 2 3 4 5 6 
#
# 1 0.006293 -0.001619 -0.002268 0.000000 0.000001 0.000000
# 2 -0.001619 0.010823 -0.003424 0.000000 -0.000001 0.000000
# 3 -0.002268 -0.003424 0.009950 0.000000 -0.000001 0.000000
# 4 0.000000 0.000000 0.000000 0.069668 -0.000008 0.000000
# 5 0.000001 -0.000001 -0.000001 -0.000008 0.720961 -0.000002
# 6 0.000000 0.000000 0.000000 0.000000 -0.000002 0.047125
#
#
# Mechanical properties :
#
#
# Convention : Reuss Voigt Hill
#
# Bulk Modulus (GPa) = 80.35715 84.34170 82.34943
# Shear Modulus (GPa) = 5.65873 26.13621 15.89747
#
# Velocity S-wave (km/s) = 1.59473 3.42728 2.67296
# Velocity P-wave (km/s) = 6.28533 7.31894 6.82174
#
# Compressibility (1/GPa) = 0.01244444
#
# Stress axis : x y z
#
# Youngs Moduli (GPa) = 158.90231 92.39819 100.50010
#
# Poissons Ratio (x) = 0.14959 0.22790
# Poissons Ratio (y) = 0.25725 0.34413
# Poissons Ratio (z) = 0.36034 0.31639
#
# Static dielectric constant tensor:
#      x y z
#    x 4.358560 0.000000 0.000000 
#    y 0.000000 3.989700 0.000000 
#    z 0.000000 0.000000 3.632620 
# 
# 
# High freq. dielectric constant tensor:
#      x y z
#    x 1.906000 0.000000 0.000000 
#    y 0.000000 1.873710 0.000000 
#    z 0.000000 0.000000 1.822120 
# 
# From -- ./inp_files/6707.got.cif
#   From: 2010.06.25/outbox.cif.g09.slc.cpg/sg71_4_cif.got.tgz:6707.got - 2010.06.28 04:59:45.
