data_PCOD8292581
_publ_section_title
;
Structure prediction by ZEFSAII (Michael W. Deem and Ramdas Pophale) SiO2 
 PCOD8292581
Probable space group: I M M M
;
_chemical_formula_sum "Si O2"
_cell_formula_units_Z 64
_cell_length_a 16.531146
_cell_length_b 9.279446
_cell_length_c 22.238139
_cell_angle_alpha 90.000000
_cell_angle_beta 90.000000
_cell_angle_gamma 90.000000
_cell_volume 3411.327779
_symmetry_space_group_name_H-M "I M M M"
_symmetry_group_IT_number 71
_symmetry_cell_setting 'orthorhombic'
loop_
_space_group_symop_operation_xyz
x,y,z
-x,-y,z
x,-y,-z
-x,y,-z
-x,-y,-z
x,y,-z
-x,y,z
x,-y,z
1/2+x,1/2+y,1/2+z
1/2-x,1/2-y,1/2+z
1/2+x,1/2-y,1/2-z
1/2-x,1/2+y,1/2-z
1/2-x,1/2-y,1/2-z
1/2+x,1/2+y,1/2-z
1/2-x,1/2+y,1/2+z
1/2+x,1/2-y,1/2+z
loop_
_atom_site_type_symbol
_atom_site_label
_atom_site_fract_x
_atom_site_fract_y
_atom_site_fract_z
Si Si1 0.363985 0.662719 0.364746
Si Si2 0.169713 0.833966 0.266072
Si Si3 0.591203 0.171054 0.000000
Si Si4 0.000000 0.330964 0.930891
Si Si5 0.824330 0.668602 0.621232
O O1 0.381597 0.500000 0.386375
O O2 0.385841 0.676231 0.293598
O O3 0.419233 0.770680 0.401201
O O4 0.271030 0.702300 0.378637
O O5 0.250000 0.750000 0.250000
O O6 0.131389 0.756375 0.324666
O O7 0.189267 0.000000 0.281227
O O8 0.638125 0.226125 0.940981
O O9 0.500000 0.232667 0.000000
O O10 0.590168 0.000000 0.000000
O O11 0.000000 0.500000 0.921599
O O12 0.000000 0.285531 0.000000
O O13 0.841306 0.500000 0.631410
#
# Coordination Sequence:
#
# PCOD8292581 Si02
#       5
#    16  16   8   8  16
#     4   9  19  35  56  79 105 144 185 220 263 322
#     4   9  17  32  55  82 109 138 177 224 268 317
#     4   9  18  34  55  82 115 144 178 223 265 317
#     4  11  25  39  51  77 113 142 177 230 277 317
#     4   9  18  33  57  84 110 144 184 221 265 321
#
# _framework density 18.761023000000002
#
# number of rings (size 3 to 8) (size 9 to 14) (size 15 to 20)
#    0.000    2.750    0.000    2.625    1.750    6.000 
#    2.250    0.625    0.000    0.750    0.000    0.000 
#    0.000    0.000    0.000    0.000    0.000    0.000 
#
# Total GULP energy -396649.039554 kJ/mol
# GULP energy per Si atom -12395.282486 kJ/mol
# Density = 1.871832 g / cm^3
# Si number density = 18.761023 Si / 1000 Ang^3
#
#
#
# Elastic Constant Matrix: (Units=GPa)
#
#
# Indices 1 2 3 4 5 6 
#
# 1 74.8974 32.1902 64.4615 0.0000 0.0000 0.0000
# 2 32.1902 84.4705 71.2964 0.0000 0.0000 0.0000
# 3 64.4615 71.2964 182.3995 0.0000 0.0000 0.0000
# 4 0.0000 0.0000 0.0000 34.7383 0.0000 0.0000
# 5 0.0000 0.0000 0.0000 0.0000 19.9254 0.0000
# 6 0.0000 0.0000 0.0000 0.0000 0.0000 19.4719
#
#
#
# Elastic Compliance Matrix: (Units=1/GPa)
#
#
# Indices 1 2 3 4 5 6 
#
# 1 0.019511 -0.002411 -0.005953 0.000000 0.000000 0.000000
# 2 -0.002411 0.017965 -0.006170 0.000000 0.000000 0.000000
# 3 -0.005953 -0.006170 0.009998 0.000000 0.000000 0.000000
# 4 0.000000 0.000000 0.000000 0.028787 0.000000 0.000000
# 5 0.000000 0.000000 0.000000 0.000000 0.050187 0.000000
# 6 0.000000 0.000000 0.000000 0.000000 0.000000 0.051356
#
#
# Mechanical properties :
#
#
# Convention : Reuss Voigt Hill
#
# Bulk Modulus (GPa) = 54.32897 75.29594 64.81246
# Shear Modulus (GPa) = 23.47327 26.41507 24.94417
#
# Velocity S-wave (km/s) = 3.54103 3.75637 3.65029
# Velocity P-wave (km/s) = 6.76312 7.68343 7.23792
#
# Compressibility (1/GPa) = 0.01840638
#
# Stress axis : x y z
#
# Youngs Moduli (GPa) = 51.25212 55.66373 100.01814
#
# Poissons Ratio (x) = 0.13419 0.59543
# Poissons Ratio (y) = 0.12355 0.61713
# Poissons Ratio (z) = 0.30511 0.34346
#
# Static dielectric constant tensor:
#      x y z
#    x 3.177320 0.000000 0.000000 
#    y 0.000000 3.422130 0.000000 
#    z 0.000000 0.000000 4.138470 
# 
# 
# High freq. dielectric constant tensor:
#      x y z
#    x 1.700230 0.000000 0.000000 
#    y 0.000000 1.717350 0.000000 
#    z 0.000000 0.000000 1.745690 
# 
# From -- ./inp_files/7549.got.cif
#   From: 2010.06.25/outbox.cif.g09.slc.cpg/sg71_4_cif.got.tgz:7549.got - 2010.06.28 04:59:45.
