data_PCOD8292400
_publ_section_title
;
Structure prediction by ZEFSAII (Michael W. Deem and Ramdas Pophale) SiO2 
 PCOD8292400
Probable space group: I M M M
;
_chemical_formula_sum "Si O2"
_cell_formula_units_Z 72
_cell_length_a 14.476451
_cell_length_b 30.307745
_cell_length_c 8.734891
_cell_angle_alpha 90.000000
_cell_angle_beta 90.000000
_cell_angle_gamma 90.000000
_cell_volume 3832.421070
_symmetry_space_group_name_H-M "I M M M"
_symmetry_group_IT_number 71
_symmetry_cell_setting 'orthorhombic'
loop_
_space_group_symop_operation_xyz
x,y,z
-x,-y,z
x,-y,-z
-x,y,-z
-x,-y,-z
x,y,-z
-x,y,z
x,-y,z
1/2+x,1/2+y,1/2+z
1/2-x,1/2-y,1/2+z
1/2+x,1/2-y,1/2-z
1/2-x,1/2+y,1/2-z
1/2-x,1/2-y,1/2-z
1/2+x,1/2+y,1/2-z
1/2-x,1/2+y,1/2+z
1/2+x,1/2-y,1/2+z
loop_
_atom_site_type_symbol
_atom_site_label
_atom_site_fract_x
_atom_site_fract_y
_atom_site_fract_z
Si Si1 0.500000 0.261558 0.819406
Si Si2 0.000000 0.337166 0.318308
Si Si3 0.000000 0.947883 0.333179
Si Si4 0.802846 0.791314 0.318740
Si Si5 0.695349 0.871560 0.818935
Si Si6 0.199992 0.949455 0.317751
O O1 0.500000 0.212205 0.748136
O O2 0.409649 0.288200 0.766304
O O3 0.500000 0.255853 0.000000
O O4 0.908788 0.362622 0.260431
O O5 0.000000 0.335021 0.500000
O O6 0.902541 0.935255 0.252158
O O7 0.000000 0.925017 0.500000
O O8 0.000000 0.000000 0.356831
O O9 0.792216 0.790028 0.500000
O O10 0.750000 0.750000 0.250000
O O11 0.764737 0.836839 0.255212
O O12 0.722852 0.920270 0.764453
O O13 0.702225 0.867426 0.000000
O O14 0.202474 0.942578 0.500000
O O15 0.221883 0.000000 0.275232
#
# Coordination Sequence:
#
# PCOD8292400 Si02
#       6
#     8   8   8  16  16  16
#     4   9  18  35  57  77 107 148 184 214 263 330
#     4   9  18  36  56  74 102 147 189 218 263 330
#     4   7  12  27  53  78 102 139 177 207 256 329
#     4  11  21  36  57  81 108 141 180 223 269 320
#     4  11  22  37  57  80 109 144 185 228 271 325
#     4   9  18  35  58  83 111 143 182 226 270 321
#
# _framework density 18.787078999999999
#
# number of rings (size 3 to 8) (size 9 to 14) (size 15 to 20)
#    0.000    2.333    2.222    2.667    0.000    1.333 
#    0.000   11.111    0.000    5.333    0.000    0.000 
#    0.000    0.000    0.000    0.000    0.000    0.000 
#
# Total GULP energy -446196.658387 kJ/mol
# GULP energy per Si atom -12394.351622 kJ/mol
# Density = 1.874432 g / cm^3
# Si number density = 18.787079 Si / 1000 Ang^3
#
#
#
# Elastic Constant Matrix: (Units=GPa)
#
#
# Indices 1 2 3 4 5 6 
#
# 1 184.2496 81.0395 41.5619 -0.0003 -0.0001 -0.0001
# 2 81.0395 108.1691 32.1576 -0.0019 0.0004 -0.0001
# 3 41.5619 32.1576 52.7005 0.0032 -0.0002 0.0000
# 4 -0.0003 -0.0019 0.0032 32.1044 0.0003 0.0003
# 5 -0.0001 0.0004 -0.0002 0.0003 25.6939 -0.0001
# 6 -0.0001 -0.0001 0.0000 0.0003 -0.0001 33.2757
#
#
#
# Elastic Compliance Matrix: (Units=1/GPa)
#
#
# Indices 1 2 3 4 5 6 
#
# 1 0.008587 -0.005399 -0.003477 0.000000 0.000000 0.000000
# 2 -0.005399 0.014689 -0.004705 0.000001 0.000000 0.000000
# 3 -0.003477 -0.004705 0.024588 -0.000003 0.000000 0.000000
# 4 0.000000 0.000001 -0.000003 0.031148 0.000000 0.000000
# 5 0.000000 0.000000 0.000000 0.000000 0.038920 0.000000
# 6 0.000000 0.000000 0.000000 0.000000 0.000000 0.030052
#
#
# Mechanical properties :
#
#
# Convention : Reuss Voigt Hill
#
# Bulk Modulus (GPa) = 48.30694 72.73748 60.52221
# Shear Modulus (GPa) = 27.46555 30.90546 29.18551
#
# Velocity S-wave (km/s) = 3.82768 4.06031 3.94571
# Velocity P-wave (km/s) = 6.73079 7.79630 7.28305
#
# Compressibility (1/GPa) = 0.02070096
#
# Stress axis : x y z
#
# Youngs Moduli (GPa) = 116.46098 68.08019 40.66989
#
# Poissons Ratio (x) = 0.36758 0.14141
# Poissons Ratio (y) = 0.62880 0.19134
# Poissons Ratio (z) = 0.40495 0.32030
#
# Static dielectric constant tensor:
#      x y z
#    x 3.982750 0.000000 0.000000 
#    y 0.000000 3.410350 0.000000 
#    z 0.000000 0.000000 3.137100 
# 
# 
# High freq. dielectric constant tensor:
#      x y z
#    x 1.743600 0.000000 0.000000 
#    y 0.000000 1.721570 0.000000 
#    z 0.000000 0.000000 1.698090 
# 
# From -- ./inp_files/6562.got.cif
#   From: 2010.06.25/outbox.cif.g09.slc.cpg/sg71_4_cif.got.tgz:6562.got - 2010.06.28 04:59:45.
