data_PCOD8292407
_publ_section_title
;
Structure prediction by ZEFSAII (Michael W. Deem and Ramdas Pophale) SiO2 
 PCOD8292407
Probable space group: I M M M
;
_chemical_formula_sum "Si O2"
_cell_formula_units_Z 72
_cell_length_a 7.773296
_cell_length_b 17.624196
_cell_length_c 24.356479
_cell_angle_alpha 90.000000
_cell_angle_beta 90.000000
_cell_angle_gamma 90.000000
_cell_volume 3336.791157
_symmetry_space_group_name_H-M "I M M M"
_symmetry_group_IT_number 71
_symmetry_cell_setting 'orthorhombic'
loop_
_space_group_symop_operation_xyz
x,y,z
-x,-y,z
x,-y,-z
-x,y,-z
-x,-y,-z
x,y,-z
-x,y,z
x,-y,z
1/2+x,1/2+y,1/2+z
1/2-x,1/2-y,1/2+z
1/2+x,1/2-y,1/2-z
1/2-x,1/2+y,1/2-z
1/2-x,1/2-y,1/2-z
1/2+x,1/2+y,1/2-z
1/2-x,1/2+y,1/2+z
1/2+x,1/2-y,1/2+z
loop_
_atom_site_type_symbol
_atom_site_label
_atom_site_fract_x
_atom_site_fract_y
_atom_site_fract_z
Si Si1 0.807576 0.856690 0.137400
Si Si2 0.204310 0.915627 0.560901
Si Si3 0.300496 0.914465 0.250629
Si Si4 0.000000 0.410904 0.435572
Si Si5 0.803231 0.807981 0.654434
O O1 0.772264 0.910141 0.189292
O O2 0.671543 0.873474 0.089409
O O3 0.799350 0.770041 0.158251
O O4 0.000000 0.873069 0.115088
O O5 0.259447 0.888453 0.500000
O O6 0.281236 0.857947 0.605541
O O7 0.000000 0.917992 0.566041
O O8 0.277823 0.000000 0.572116
O O9 0.500000 0.893158 0.249504
O O10 0.204783 0.854765 0.289247
O O11 0.269069 0.000000 0.272358
O O12 0.000000 0.500000 0.422773
O O13 0.000000 0.393491 0.500000
O O14 0.000000 0.788078 0.641417
#
# Coordination Sequence:
#
# PCOD8292407 Si02
#       5
#    16  16  16   8  16
#     4  12  25  44  69  99 136 174 219 274 341 402
#     4   8  15  29  51  81 119 166 218 268 320 380
#     4  11  23  40  63  93 133 177 223 278 336 400
#     4  11  26  50  76 102 133 171 222 278 335 404
#     4  11  21  36  59  95 133 175 224 275 329 392
#
# _framework density 21.577618000000001
#
# number of rings (size 3 to 8) (size 9 to 14) (size 15 to 20)
#    0.000    1.444    2.222    4.000    0.000    5.333 
#    0.000    1.111    0.000    2.000    0.000    7.778 
#    0.000    0.000    0.000    0.000    0.000    0.000 
#
# Total GULP energy -446499.085027 kJ/mol
# GULP energy per Si atom -12402.752362 kJ/mol
# Density = 2.152851 g / cm^3
# Si number density = 21.577618 Si / 1000 Ang^3
#
#
#
# Elastic Constant Matrix: (Units=GPa)
#
#
# Indices 1 2 3 4 5 6 
#
# 1 108.5401 25.9472 29.5065 0.0000 0.0000 0.0000
# 2 25.9472 97.7427 33.1578 0.0000 0.0000 0.0000
# 3 29.5065 33.1578 114.0732 0.0000 0.0000 0.0000
# 4 0.0000 0.0000 0.0000 30.1160 0.0000 0.0000
# 5 0.0000 0.0000 0.0000 0.0000 23.3689 0.0000
# 6 0.0000 0.0000 0.0000 0.0000 0.0000 16.6160
#
#
#
# Elastic Compliance Matrix: (Units=1/GPa)
#
#
# Indices 1 2 3 4 5 6 
#
# 1 0.010258 -0.002022 -0.002066 0.000000 0.000000 0.000000
# 2 -0.002022 0.011749 -0.002892 0.000000 0.000000 0.000000
# 3 -0.002066 -0.002892 0.010141 0.000000 0.000000 0.000000
# 4 0.000000 0.000000 0.000000 0.033205 0.000000 0.000000
# 5 0.000000 0.000000 0.000000 0.000000 0.042792 0.000000
# 6 0.000000 0.000000 0.000000 0.000000 0.000000 0.060183
#
#
# Mechanical properties :
#
#
# Convention : Reuss Voigt Hill
#
# Bulk Modulus (GPa) = 54.98020 55.28657 55.13338
# Shear Modulus (GPa) = 26.54619 29.46980 28.00800
#
# Velocity S-wave (km/s) = 3.51132 3.69963 3.60670
# Velocity P-wave (km/s) = 6.47879 6.62778 6.55371
#
# Compressibility (1/GPa) = 0.01818837
#
# Stress axis : x y z
#
# Youngs Moduli (GPa) = 97.48307 85.11451 98.60795
#
# Poissons Ratio (x) = 0.17214 0.20368
# Poissons Ratio (y) = 0.19716 0.28517
# Poissons Ratio (z) = 0.20135 0.24614
#
# Static dielectric constant tensor:
#      x y z
#    x 3.736740 0.000000 0.000000 
#    y 0.000000 4.047160 0.000000 
#    z 0.000000 0.000000 3.895570 
# 
# 
# High freq. dielectric constant tensor:
#      x y z
#    x 1.834890 0.000000 0.000000 
#    y 0.000000 1.854690 0.000000 
#    z 0.000000 0.000000 1.842920 
# 
# From -- ./inp_files/57306.got.cif
#   From: 2010.06.25/outbox.cif.g09.slc.cpg/sg71_29_cif.got.tgz:57306.got - 2010.06.28 04:59:45.
