data_PCOD8292931
_publ_section_title
;
Structure prediction by ZEFSAII (Michael W. Deem and Ramdas Pophale) SiO2 
 PCOD8292931
Probable space group: I B A M
;
_chemical_formula_sum "Si O2"
_cell_formula_units_Z 96
_cell_length_a 17.455969
_cell_length_b 10.040858
_cell_length_c 28.261290
_cell_angle_alpha 90.000000
_cell_angle_beta 90.000000
_cell_angle_gamma 90.000000
_cell_volume 4953.438425
_symmetry_space_group_name_H-M "I B A M"
_symmetry_group_IT_number 72
_symmetry_cell_setting 'orthorhombic'
loop_
_space_group_symop_operation_xyz
x,y,z
-x,-y,z
x,-y,1/2-z
-x,y,1/2-z
-x,-y,-z
x,y,-z
-x,y,1/2+z
x,-y,1/2+z
1/2+x,1/2+y,1/2+z
1/2-x,1/2-y,1/2+z
1/2+x,1/2-y,-z
1/2-x,1/2+y,-z
1/2-x,1/2-y,1/2-z
1/2+x,1/2+y,1/2-z
1/2-x,1/2+y,z
1/2+x,1/2-y,z
loop_
_atom_site_type_symbol
_atom_site_label
_atom_site_fract_x
_atom_site_fract_y
_atom_site_fract_z
Si Si1 0.348002 0.513620 0.898812
Si Si2 0.151774 0.745787 0.852629
Si Si3 0.332086 0.241888 0.336085
Si Si4 0.168302 0.072068 0.000000
Si Si5 0.666931 0.012399 0.903219
Si Si6 0.685186 0.884838 0.500000
Si Si7 0.090007 0.347974 0.255145
O O1 0.382193 0.379752 0.875907
O O2 0.367903 0.632335 0.863127
O O3 0.380714 0.546642 0.951732
O O4 0.258071 0.492124 0.904220
O O5 0.240323 0.753030 0.837272
O O6 0.135773 0.634533 0.892684
O O7 0.105131 0.711947 0.806233
O O8 0.363969 0.241305 0.282845
O O9 0.362316 0.109004 0.361736
O O10 0.235300 0.963368 0.000000
O O11 0.199823 0.225013 0.000000
O O12 0.637466 0.069983 0.953528
O O13 0.118966 0.500000 0.250000
O O14 0.000000 0.337362 0.250000
#
# Coordination Sequence:
#
# PCOD8292931 Si02
#       7
#    16  16  16   8  16   8  16
#     4   9  19  29  50  77 110 143 175 220 267 317
#     4  10  20  35  53  80 109 144 180 223 268 322
#     4  10  18  35  54  78 108 143 179 218 266 323
#     4  10  18  28  44  76 117 146 174 213 272 323
#     4   9  17  29  49  74 110 142 179 212 261 319
#     4  10  18  26  44  76 113 149 175 218 269 320
#     4  11  23  38  57  80 106 141 184 230 278 326
#
# _framework density 19.380476000000002
#
# number of rings (size 3 to 8) (size 9 to 14) (size 15 to 20)
#    0.000    2.167    3.333    0.500    7.000    0.667 
#    0.000    1.667    0.000    0.000    0.000    7.000 
#    0.000    0.000    0.000    0.000    0.000    0.000 
#
# Total GULP energy -594937.407678 kJ/mol
# GULP energy per Si atom -12394.529327 kJ/mol
# Density = 1.933637 g / cm^3
# Si number density = 19.380476 Si / 1000 Ang^3
#
#
#
# Elastic Constant Matrix: (Units=GPa)
#
#
# Indices 1 2 3 4 5 6 
#
# 1 21.3652 20.6733 21.7162 0.0000 0.0000 0.0000
# 2 20.6733 149.8885 63.1300 0.0000 0.0000 0.0000
# 3 21.7162 63.1300 150.4710 0.0000 0.0000 0.0000
# 4 0.0000 0.0000 0.0000 37.1684 0.0000 0.0000
# 5 0.0000 0.0000 0.0000 0.0000 3.0767 0.0000
# 6 0.0000 0.0000 0.0000 0.0000 0.0000 12.3732
#
#
#
# Elastic Compliance Matrix: (Units=1/GPa)
#
#
# Indices 1 2 3 4 5 6 
#
# 1 0.058317 -0.005464 -0.006124 0.000000 0.000000 0.000000
# 2 -0.005464 0.008616 -0.002826 0.000000 0.000000 0.000000
# 3 -0.006124 -0.002826 0.008715 0.000000 0.000000 0.000000
# 4 0.000000 0.000000 0.000000 0.026905 0.000000 0.000000
# 5 0.000000 0.000000 0.000000 0.000000 0.325021 0.000000
# 6 0.000000 0.000000 0.000000 0.000000 0.000000 0.080820
#
#
# Mechanical properties :
#
#
# Convention : Reuss Voigt Hill
#
# Bulk Modulus (GPa) = 21.35859 59.19597 40.27728
# Shear Modulus (GPa) = 9.04441 24.93734 16.99088
#
# Velocity S-wave (km/s) = 2.16261 3.59099 2.96413
# Velocity P-wave (km/s) = 4.15698 6.91404 5.70458
#
# Compressibility (1/GPa) = 0.04681958
#
# Stress axis : x y z
#
# Youngs Moduli (GPa) = 17.14770 116.06940 114.74090
#
# Poissons Ratio (x) = 0.63421 0.70267
# Poissons Ratio (y) = 0.09370 0.32426
# Poissons Ratio (z) = 0.10501 0.32802
#
# Static dielectric constant tensor:
#      x y z
#    x 2.798760 0.000000 0.000000 
#    y 0.000000 3.894440 0.000000 
#    z 0.000000 0.000000 4.019530 
# 
# 
# High freq. dielectric constant tensor:
#      x y z
#    x 1.676460 0.000000 0.000000 
#    y 0.000000 1.770800 0.000000 
#    z 0.000000 0.000000 1.777870 
# 
# From -- ./inp_files/49660.got.cif
#   From: 2010.03.12/outbox.cif.g09.slc.cpg/sg72_25_cif.got.tgz:49660.got - 2010.04.16 14:54:00.
