data_PCOD8292781
_publ_section_title
;
Structure prediction by ZEFSAII (Michael W. Deem and Ramdas Pophale) SiO2 
 PCOD8292781
Probable space group: I M M M
;
_chemical_formula_sum "Si O2"
_cell_formula_units_Z 80
_cell_length_a 23.421174
_cell_length_b 8.073246
_cell_length_c 22.270212
_cell_angle_alpha 90.000000
_cell_angle_beta 90.000000
_cell_angle_gamma 90.000000
_cell_volume 4210.960794
_symmetry_space_group_name_H-M "I M M M"
_symmetry_group_IT_number 71
_symmetry_cell_setting 'orthorhombic'
loop_
_space_group_symop_operation_xyz
x,y,z
-x,-y,z
x,-y,-z
-x,y,-z
-x,-y,-z
x,y,-z
-x,y,z
x,-y,z
1/2+x,1/2+y,1/2+z
1/2-x,1/2-y,1/2+z
1/2+x,1/2-y,1/2-z
1/2-x,1/2+y,1/2-z
1/2-x,1/2-y,1/2-z
1/2+x,1/2+y,1/2-z
1/2-x,1/2+y,1/2+z
1/2+x,1/2-y,1/2+z
loop_
_atom_site_type_symbol
_atom_site_label
_atom_site_fract_x
_atom_site_fract_y
_atom_site_fract_z
Si Si1 0.212622 0.810284 0.824098
Si Si2 0.932406 0.814989 0.500000
Si Si3 0.135323 0.187272 0.068982
Si Si4 0.664751 0.192520 0.208242
Si Si5 0.936191 0.693436 0.627815
Si Si6 0.937473 0.500000 0.929004
O O1 0.192736 0.790395 0.892614
O O2 0.275894 0.730932 0.818226
O O3 0.166176 0.723887 0.779898
O O4 0.215241 0.000000 0.803798
O O5 0.911634 0.724402 0.560691
O O6 0.000000 0.813730 0.500000
O O7 0.907539 0.000000 0.500000
O O8 0.092143 0.329033 0.091802
O O9 0.109822 0.000000 0.078108
O O10 0.152399 0.215917 0.000000
O O11 0.608900 0.272427 0.175823
O O12 0.662393 0.000000 0.193333
O O13 0.941696 0.500000 0.638673
O O14 0.000000 0.773021 0.636443
O O15 0.000000 0.500000 0.899412
O O16 0.941876 0.500000 0.000000
#
# Coordination Sequence:
#
# PCOD8292781 Si02
#       6
#    16   8  16  16  16   8
#     4   9  18  33  51  72  98 132 172 211 256 308
#     4   9  17  29  47  69  97 133 165 199 247 296
#     4   9  18  33  53  76 105 138 171 215 264 308
#     4   9  18  32  51  73  97 133 174 210 254 304
#     4   9  17  31  50  72  99 131 168 207 249 300
#     4   9  18  32  52  78 104 134 171 206 254 316
#
# _framework density 18.998038999999999
#
# number of rings (size 3 to 8) (size 9 to 14) (size 15 to 20)
#    0.000    3.000    0.000    0.300    1.400    2.400 
#    1.800    3.000    0.000    1.200    0.000    0.000 
#    0.000    0.000    0.000    0.000    0.000    0.000 
#
# Total GULP energy -495596.576764 kJ/mol
# GULP energy per Si atom -12389.914419 kJ/mol
# Density = 1.895480 g / cm^3
# Si number density = 18.998039 Si / 1000 Ang^3
#
#
#
# Elastic Constant Matrix: (Units=GPa)
#
#
# Indices 1 2 3 4 5 6 
#
# 1 112.2604 30.9323 69.4788 0.0000 0.0000 0.0000
# 2 30.9323 60.4022 19.4826 0.0000 0.0000 0.0000
# 3 69.4788 19.4826 102.5788 0.0000 0.0000 0.0000
# 4 0.0000 0.0000 0.0000 23.2614 0.0000 0.0000
# 5 0.0000 0.0000 0.0000 0.0000 29.0287 0.0000
# 6 0.0000 0.0000 0.0000 0.0000 0.0000 18.0916
#
#
#
# Elastic Compliance Matrix: (Units=1/GPa)
#
#
# Indices 1 2 3 4 5 6 
#
# 1 0.016764 -0.005244 -0.010358 0.000000 0.000000 0.000000
# 2 -0.005244 0.019276 -0.000109 0.000000 0.000000 0.000000
# 3 -0.010358 -0.000109 0.016785 0.000000 0.000000 0.000000
# 4 0.000000 0.000000 0.000000 0.042990 0.000000 0.000000
# 5 0.000000 0.000000 0.000000 0.000000 0.034449 0.000000
# 6 0.000000 0.000000 0.000000 0.000000 0.000000 0.055274
#
#
# Mechanical properties :
#
#
# Convention : Reuss Voigt Hill
#
# Bulk Modulus (GPa) = 46.72423 57.22543 51.97483
# Shear Modulus (GPa) = 22.31196 24.43285 23.37241
#
# Velocity S-wave (km/s) = 3.43072 3.59008 3.51130
# Velocity P-wave (km/s) = 6.35144 6.88273 6.62242
#
# Compressibility (1/GPa) = 0.02140217
#
# Stress axis : x y z
#
# Youngs Moduli (GPa) = 59.65301 51.87716 59.57559
#
# Poissons Ratio (x) = 0.27203 0.61711
# Poissons Ratio (y) = 0.31280 0.00652
# Poissons Ratio (z) = 0.61791 0.00568
#
# Static dielectric constant tensor:
#      x y z
#    x 3.703120 0.000000 0.000000 
#    y 0.000000 3.470600 0.000000 
#    z 0.000000 0.000000 3.415720 
# 
# 
# High freq. dielectric constant tensor:
#      x y z
#    x 1.716090 0.000000 0.000000 
#    y 0.000000 1.730490 0.000000 
#    z 0.000000 0.000000 1.728930 
# 
# From -- ./inp_files/55448.got.cif
#   From: 2010.06.25/outbox.cif.g09.slc.cpg/sg71_28_cif.got.tgz:55448.got - 2010.06.28 04:59:45.
