data_PCOD8292195
_publ_section_title
;
Structure prediction by ZEFSAII (Michael W. Deem and Ramdas Pophale) SiO2 
 PCOD8292195
Probable space group: I M M M
;
_chemical_formula_sum "Si O2"
_cell_formula_units_Z 104
_cell_length_a 27.079068
_cell_length_b 22.632622
_cell_length_c 8.655674
_cell_angle_alpha 90.000000
_cell_angle_beta 90.000000
_cell_angle_gamma 90.000000
_cell_volume 5304.805609
_symmetry_space_group_name_H-M "I M M M"
_symmetry_group_IT_number 71
_symmetry_cell_setting 'orthorhombic'
loop_
_space_group_symop_operation_xyz
x,y,z
-x,-y,z
x,-y,-z
-x,y,-z
-x,-y,-z
x,y,-z
-x,y,z
x,-y,z
1/2+x,1/2+y,1/2+z
1/2-x,1/2-y,1/2+z
1/2+x,1/2-y,1/2-z
1/2-x,1/2+y,1/2-z
1/2-x,1/2-y,1/2-z
1/2+x,1/2+y,1/2-z
1/2-x,1/2+y,1/2+z
1/2+x,1/2-y,1/2+z
loop_
_atom_site_type_symbol
_atom_site_label
_atom_site_fract_x
_atom_site_fract_y
_atom_site_fract_z
Si Si1 0.290657 0.567209 0.820074
Si Si2 0.632757 0.665522 0.179272
Si Si3 0.943429 0.757507 0.182266
Si Si4 0.198180 0.739220 0.177997
Si Si5 0.500000 0.069609 0.673171
Si Si6 0.695863 0.880182 0.175616
Si Si7 0.912491 0.636346 0.325074
O O1 0.308312 0.500000 0.794848
O O2 0.334722 0.609938 0.755931
O O3 0.238687 0.574890 0.729522
O O4 0.281223 0.581319 0.000000
O O5 0.579814 0.679543 0.258886
O O6 0.661704 0.725382 0.212429
O O7 0.623243 0.655377 0.000000
O O8 0.912801 0.699831 0.237968
O O9 0.000000 0.753353 0.240324
O O10 0.940192 0.758425 0.000000
O O11 0.250000 0.750000 0.250000
O O12 0.191501 0.670124 0.195989
O O13 0.192917 0.759076 0.000000
O O14 0.500000 0.095028 0.500000
O O15 0.451579 0.091908 0.756330
O O16 0.500000 0.000000 0.676109
O O17 0.638932 0.901600 0.180481
O O18 0.708901 0.859574 0.000000
O O19 0.926347 0.652009 0.500000
#
# Coordination Sequence:
#
# PCOD8292195 Si02
#       7
#    16  16  16  16   8  16  16
#     4  10  23  42  62  85 118 161 204 246 295 355
#     4  11  22  37  60  89 120 155 198 244 299 365
#     4  11  23  38  60  90 123 155 193 245 307 368
#     4  12  22  33  54  84 119 154 190 237 289 346
#     4  11  25  43  61  81 111 157 210 255 300 355
#     4  11  23  37  57  87 120 156 197 242 294 352
#     4  11  23  38  60  87 119 156 200 251 301 354
#
# _framework density 19.604866000000001
#
# number of rings (size 3 to 8) (size 9 to 14) (size 15 to 20)
#    0.000    1.000    3.846    3.462    0.000    4.923 
#    0.000    3.077    0.000    0.462    0.000    3.231 
#    0.000    0.000    0.000    0.000    0.000    0.000 
#
# Total GULP energy -644229.033446 kJ/mol
# GULP energy per Si atom -12389.019874 kJ/mol
# Density = 1.956024 g / cm^3
# Si number density = 19.604866 Si / 1000 Ang^3
#
#
#
# Elastic Constant Matrix: (Units=GPa)
#
#
# Indices 1 2 3 4 5 6 
#
# 1 101.2006 33.6074 34.8731 0.0000 0.0000 0.0000
# 2 33.6074 78.3310 21.1101 0.0000 0.0000 0.0000
# 3 34.8731 21.1101 77.6911 0.0000 0.0000 0.0000
# 4 0.0000 0.0000 0.0000 25.2411 0.0000 0.0000
# 5 0.0000 0.0000 0.0000 0.0000 29.6951 0.0000
# 6 0.0000 0.0000 0.0000 0.0000 0.0000 27.4328
#
#
#
# Elastic Compliance Matrix: (Units=1/GPa)
#
#
# Indices 1 2 3 4 5 6 
#
# 1 0.012899 -0.004288 -0.004625 0.000000 0.000000 0.000000
# 2 -0.004288 0.015200 -0.002206 0.000000 0.000000 0.000000
# 3 -0.004625 -0.002206 0.015547 0.000000 0.000000 0.000000
# 4 0.000000 0.000000 0.000000 0.039618 0.000000 0.000000
# 5 0.000000 0.000000 0.000000 0.000000 0.033676 0.000000
# 6 0.000000 0.000000 0.000000 0.000000 0.000000 0.036453
#
#
# Mechanical properties :
#
#
# Convention : Reuss Voigt Hill
#
# Bulk Modulus (GPa) = 46.70798 48.48932 47.59865
# Shear Modulus (GPa) = 27.35747 27.64927 27.50337
#
# Velocity S-wave (km/s) = 3.73962 3.75951 3.74957
# Velocity P-wave (km/s) = 6.52094 6.60547 6.56334
#
# Compressibility (1/GPa) = 0.02140962
#
# Stress axis : x y z
#
# Youngs Moduli (GPa) = 77.52538 65.78768 64.32223
#
# Poissons Ratio (x) = 0.28209 0.29748
# Poissons Ratio (y) = 0.33242 0.14187
# Poissons Ratio (z) = 0.35854 0.14510
#
# Static dielectric constant tensor:
#      x y z
#    x 3.908070 0.000000 0.000000 
#    y 0.000000 3.363210 0.000000 
#    z 0.000000 0.000000 2.825670 
# 
# 
# High freq. dielectric constant tensor:
#      x y z
#    x 1.774980 0.000000 0.000000 
#    y 0.000000 1.733660 0.000000 
#    z 0.000000 0.000000 1.772730 
# 
# From -- ./inp_files/15017.got.cif
#   From: 2010.06.25/outbox.cif.g09.slc.cpg/sg71_8_cif.got.tgz:15017.got - 2010.06.28 04:59:45.
