data_PCOD8292664
_publ_section_title
;
Structure prediction by ZEFSAII (Michael W. Deem and Ramdas Pophale) SiO2 
 PCOD8292664
Probable space group: I M M M
;
_chemical_formula_sum "Si O2"
_cell_formula_units_Z 96
_cell_length_a 30.386816
_cell_length_b 19.976941
_cell_length_c 9.439597
_cell_angle_alpha 90.000000
_cell_angle_beta 90.000000
_cell_angle_gamma 90.000000
_cell_volume 5730.171716
_symmetry_space_group_name_H-M "I M M M"
_symmetry_group_IT_number 71
_symmetry_cell_setting 'orthorhombic'
loop_
_space_group_symop_operation_xyz
x,y,z
-x,-y,z
x,-y,-z
-x,y,-z
-x,-y,-z
x,y,-z
-x,y,z
x,-y,z
1/2+x,1/2+y,1/2+z
1/2-x,1/2-y,1/2+z
1/2+x,1/2-y,1/2-z
1/2-x,1/2+y,1/2-z
1/2-x,1/2-y,1/2-z
1/2+x,1/2+y,1/2-z
1/2-x,1/2+y,1/2+z
1/2+x,1/2-y,1/2+z
loop_
_atom_site_type_symbol
_atom_site_label
_atom_site_fract_x
_atom_site_fract_y
_atom_site_fract_z
Si Si1 0.377168 0.423185 0.335997
Si Si2 0.206415 0.079716 0.340532
Si Si3 0.286661 0.920485 0.157732
Si Si4 0.383960 0.925731 0.831496
Si Si5 0.449416 0.812708 0.165879
Si Si6 0.949881 0.182667 0.163720
O O1 0.363997 0.415221 0.500000
O O2 0.388192 0.500000 0.299413
O O3 0.336629 0.395835 0.243481
O O4 0.420197 0.380831 0.296303
O O5 0.204802 0.108184 0.500000
O O6 0.249826 0.109008 0.263372
O O7 0.208200 0.000000 0.340931
O O8 0.335236 0.901150 0.215589
O O9 0.283050 0.000000 0.149638
O O10 0.278846 0.890835 0.000000
O O11 0.420300 0.873989 0.774445
O O12 0.394186 0.000000 0.769865
O O13 0.385184 0.929483 0.000000
O O14 0.500000 0.830005 0.199710
O O15 0.434204 0.745781 0.244900
O O16 0.441592 0.801352 0.000000
O O17 0.000000 0.162977 0.200540
O O18 0.944784 0.202337 0.000000
#
# Coordination Sequence:
#
# PCOD8292664 Si02
#       6
#    16  16  16  16  16  16
#     4   9  17  29  46  67  88 112 145 182 218 257
#     4   9  16  25  39  62  91 117 140 172 216 262
#     4   8  13  23  40  60  84 115 147 177 211 253
#     4   8  14  25  43  68  93 116 147 186 221 251
#     4   9  17  29  46  67  90 118 150 181 216 261
#     4   9  18  32  48  65  87 116 147 179 217 261
#
# _framework density 16.753423999999999
#
# number of rings (size 3 to 8) (size 9 to 14) (size 15 to 20)
#    0.000    3.333    0.000    1.500    0.000    3.333 
#    0.000    4.167    0.000    2.500    0.000    7.000 
#    0.000    0.000    0.000    0.000    0.000    0.000 
#
# Total GULP energy -595026.350938 kJ/mol
# GULP energy per Si atom -12396.382311 kJ/mol
# Density = 1.671529 g / cm^3
# Si number density = 16.753424 Si / 1000 Ang^3
#
#
#
# Elastic Constant Matrix: (Units=GPa)
#
#
# Indices 1 2 3 4 5 6 
#
# 1 130.4024 68.6858 55.3235 0.0000 0.0000 0.0000
# 2 68.6858 74.9192 37.0268 0.0000 0.0000 0.0000
# 3 55.3235 37.0268 65.9662 0.0000 0.0000 0.0000
# 4 0.0000 0.0000 0.0000 18.1269 0.0000 0.0000
# 5 0.0000 0.0000 0.0000 0.0000 18.2302 0.0000
# 6 0.0000 0.0000 0.0000 0.0000 0.0000 7.4537
#
#
#
# Elastic Compliance Matrix: (Units=1/GPa)
#
#
# Indices 1 2 3 4 5 6 
#
# 1 0.017288 -0.012018 -0.007753 0.000000 0.000000 0.000000
# 2 -0.012018 0.026826 -0.004979 0.000000 0.000000 0.000000
# 3 -0.007753 -0.004979 0.024456 0.000000 0.000000 0.000000
# 4 0.000000 0.000000 0.000000 0.055167 0.000000 0.000000
# 5 0.000000 0.000000 0.000000 0.000000 0.054854 0.000000
# 6 0.000000 0.000000 0.000000 0.000000 0.000000 0.134162
#
#
# Mechanical properties :
#
#
# Convention : Reuss Voigt Hill
#
# Bulk Modulus (GPa) = 52.43568 65.92887 59.18228
# Shear Modulus (GPa) = 13.56453 16.11227 14.83840
#
# Velocity S-wave (km/s) = 2.84853 3.10454 2.97929
# Velocity P-wave (km/s) = 6.49502 7.23110 6.87292
#
# Compressibility (1/GPa) = 0.01907098
#
# Stress axis : x y z
#
# Youngs Moduli (GPa) = 57.84426 37.27726 40.88960
#
# Poissons Ratio (x) = 0.44798 0.31702
# Poissons Ratio (y) = 0.69515 0.20358
# Poissons Ratio (z) = 0.44848 0.18559
#
# Static dielectric constant tensor:
#      x y z
#    x 3.369380 0.000000 0.000000 
#    y 0.000000 2.920870 0.000000 
#    z 0.000000 0.000000 3.105220 
# 
# 
# High freq. dielectric constant tensor:
#      x y z
#    x 1.655430 0.000000 0.000000 
#    y 0.000000 1.605050 0.000000 
#    z 0.000000 0.000000 1.628400 
# 
# From -- ./inp_files/15177.got.cif
#   From: 2010.06.25/outbox.cif.g09.slc.cpg/sg71_8_cif.got.tgz:15177.got - 2010.06.28 04:59:45.
