data_PCOD8292223
_publ_section_title
;
Structure prediction by ZEFSAII (Michael W. Deem and Ramdas Pophale) SiO2 
 PCOD8292223
Probable space group: I M M M
;
_chemical_formula_sum "Si O2"
_cell_formula_units_Z 76
_cell_length_a 16.560034
_cell_length_b 7.605523
_cell_length_c 29.476622
_cell_angle_alpha 90.000000
_cell_angle_beta 90.000000
_cell_angle_gamma 90.000000
_cell_volume 3712.513319
_symmetry_space_group_name_H-M "I M M M"
_symmetry_group_IT_number 71
_symmetry_cell_setting 'orthorhombic'
loop_
_space_group_symop_operation_xyz
x,y,z
-x,-y,z
x,-y,-z
-x,y,-z
-x,-y,-z
x,y,-z
-x,y,z
x,-y,z
1/2+x,1/2+y,1/2+z
1/2-x,1/2-y,1/2+z
1/2+x,1/2-y,1/2-z
1/2-x,1/2+y,1/2-z
1/2-x,1/2-y,1/2-z
1/2+x,1/2+y,1/2-z
1/2-x,1/2+y,1/2+z
1/2+x,1/2-y,1/2+z
loop_
_atom_site_type_symbol
_atom_site_label
_atom_site_fract_x
_atom_site_fract_y
_atom_site_fract_z
Si Si1 0.000000 0.000000 0.771718
Si Si2 0.089888 0.708850 0.451290
Si Si3 0.319866 0.799824 0.134740
Si Si4 0.092209 0.000000 0.685581
Si Si5 0.000000 0.295006 0.845175
Si Si6 0.654723 0.798133 0.402429
Si Si7 0.591325 0.295054 0.500000
O O1 0.000000 0.821640 0.800331
O O2 0.919454 0.000000 0.740139
O O3 0.125089 0.771027 0.500000
O O4 0.089384 0.500000 0.449073
O O5 0.143682 0.783949 0.411214
O O6 0.000000 0.782935 0.445378
O O7 0.354477 0.673213 0.173931
O O8 0.224619 0.804626 0.124695
O O9 0.347888 0.000000 0.145681
O O10 0.000000 0.000000 0.663869
O O11 0.925298 0.242878 0.876344
O O12 0.000000 0.500000 0.830974
O O13 0.643307 0.757612 0.455780
O O14 0.675667 0.000000 0.396570
O O15 0.580027 0.500000 0.500000
O O16 0.500000 0.209234 0.500000
#
# Coordination Sequence:
#
# PCOD8292223 Si02
#       7
#     4  16  16   8   8  16   8
#     4  10  26  46  80  95 131 158 224 296 350 426
#     4   8  15  29  50  79 115 164 216 257 303 369
#     4  11  22  38  64  95 134 179 218 278 337 394
#     4  10  24  46  67  99 127 163 222 288 344 425
#     4  10  24  45  73  99 126 179 220 273 351 415
#     4  11  23  41  65  95 143 182 231 276 327 399
#     4  11  23  37  61 103 139 192 239 271 319 401
#
# _framework density 20.471306999999999
#
# number of rings (size 3 to 8) (size 9 to 14) (size 15 to 20)
#    0.316    1.579    2.105    2.211    4.421    2.526 
#    0.000    1.579    0.000    1.895    0.000    0.000 
#    0.000    0.000    0.000    0.000    0.000    0.000 
#
# Total GULP energy -470881.613972 kJ/mol
# GULP energy per Si atom -12391.621420 kJ/mol
# Density = 2.042471 g / cm^3
# Si number density = 20.471307 Si / 1000 Ang^3
#
#
#
# Elastic Constant Matrix: (Units=GPa)
#
#
# Indices 1 2 3 4 5 6 
#
# 1 103.7983 29.3012 47.9080 0.0000 0.0000 0.0000
# 2 29.3012 89.0563 48.1739 0.0000 0.0000 0.0000
# 3 47.9080 48.1739 137.5849 0.0000 0.0000 0.0000
# 4 0.0000 0.0000 0.0000 33.7847 0.0000 0.0000
# 5 0.0000 0.0000 0.0000 0.0000 42.1933 0.0000
# 6 0.0000 0.0000 0.0000 0.0000 0.0000 13.1714
#
#
#
# Elastic Compliance Matrix: (Units=1/GPa)
#
#
# Indices 1 2 3 4 5 6 
#
# 1 0.011773 -0.002043 -0.003384 0.000000 0.000000 0.000000
# 2 -0.002043 0.014207 -0.004263 0.000000 0.000000 0.000000
# 3 -0.003384 -0.004263 0.009939 0.000000 0.000000 0.000000
# 4 0.000000 0.000000 0.000000 0.029599 0.000000 0.000000
# 5 0.000000 0.000000 0.000000 0.000000 0.023700 0.000000
# 6 0.000000 0.000000 0.000000 0.000000 0.000000 0.075922
#
#
# Mechanical properties :
#
#
# Convention : Reuss Voigt Hill
#
# Bulk Modulus (GPa) = 60.46333 64.57843 62.52088
# Shear Modulus (GPa) = 26.31110 31.50030 28.90570
#
# Velocity S-wave (km/s) = 3.58895 3.92695 3.76175
# Velocity P-wave (km/s) = 6.83914 7.22327 7.03383
#
# Compressibility (1/GPa) = 0.01653895
#
# Stress axis : x y z
#
# Youngs Moduli (GPa) = 84.94264 70.38749 100.61111
#
# Poissons Ratio (x) = 0.14379 0.34047
# Poissons Ratio (y) = 0.17353 0.42892
# Poissons Ratio (z) = 0.28745 0.30007
#
# Static dielectric constant tensor:
#      x y z
#    x 3.830000 0.000000 0.000000 
#    y 0.000000 3.523860 0.000000 
#    z 0.000000 0.000000 -8.935670 
# 
# 
# High freq. dielectric constant tensor:
#      x y z
#    x 1.801000 0.000000 0.000000 
#    y 0.000000 1.800170 0.000000 
#    z 0.000000 0.000000 1.781900 
# 
# From -- ./inp_files/65881.got.cif
#   From: 2010.06.25/outbox.cif.g09.slc.cpg/sg71_33_cif.got.tgz:65881.got - 2010.06.28 04:59:45.
