data_PCOD8292465
_publ_section_title
;
Structure prediction by ZEFSAII (Michael W. Deem and Ramdas Pophale) SiO2 
 PCOD8292465
Probable space group: I M M M
;
_chemical_formula_sum "Si O2"
_cell_formula_units_Z 80
_cell_length_a 18.253252
_cell_length_b 8.271620
_cell_length_c 25.711858
_cell_angle_alpha 90.000000
_cell_angle_beta 90.000000
_cell_angle_gamma 90.000000
_cell_volume 3882.078251
_symmetry_space_group_name_H-M "I M M M"
_symmetry_group_IT_number 71
_symmetry_cell_setting 'orthorhombic'
loop_
_space_group_symop_operation_xyz
x,y,z
-x,-y,z
x,-y,-z
-x,y,-z
-x,-y,-z
x,y,-z
-x,y,z
x,-y,z
1/2+x,1/2+y,1/2+z
1/2-x,1/2-y,1/2+z
1/2+x,1/2-y,1/2-z
1/2-x,1/2+y,1/2-z
1/2-x,1/2-y,1/2-z
1/2+x,1/2+y,1/2-z
1/2-x,1/2+y,1/2+z
1/2+x,1/2-y,1/2+z
loop_
_atom_site_type_symbol
_atom_site_label
_atom_site_fract_x
_atom_site_fract_y
_atom_site_fract_z
Si Si1 0.082197 0.808111 0.442878
Si Si2 0.676835 0.687076 0.347669
Si Si3 0.335782 0.687714 0.842358
Si Si4 0.581792 0.308016 0.557693
Si Si5 0.084093 0.313698 0.756100
O O1 0.107230 0.743568 0.500000
O O2 0.137268 0.745079 0.398429
O O3 0.000000 0.745948 0.430642
O O4 0.082565 0.000000 0.443678
O O5 0.697884 0.500000 0.354659
O O6 0.749181 0.789966 0.337276
O O7 0.637810 0.759289 0.399293
O O8 0.622517 0.703521 0.299200
O O9 0.355438 0.500000 0.834980
O O10 0.377160 0.789792 0.798980
O O11 0.607612 0.253033 0.500000
O O12 0.500000 0.240235 0.568771
O O13 0.579298 0.500000 0.561250
O O14 0.090961 0.500000 0.772573
O O15 0.000000 0.258805 0.751583
#
# Coordination Sequence:
#
# PCOD8292465 Si02
#       5
#    16  16  16  16  16
#     4   8  15  30  53  80 108 140 181 226 269 316
#     4  11  22  36  56  82 113 147 183 223 269 322
#     4  11  22  36  56  82 113 147 183 223 269 322
#     4   8  15  30  53  80 108 140 181 226 269 316
#     4  11  24  41  60  81 107 139 178 227 278 327
#
# _framework density 20.607519
#
# number of rings (size 3 to 8) (size 9 to 14) (size 15 to 20)
#    0.000    2.200    0.000    4.800    0.000    4.000 
#    0.000    0.000    0.000    3.600    0.000   14.000 
#    0.000    0.000    0.000    0.000    0.000    0.000 
#
# Total GULP energy -496015.883542 kJ/mol
# GULP energy per Si atom -12400.397089 kJ/mol
# Density = 2.056062 g / cm^3
# Si number density = 20.607519 Si / 1000 Ang^3
#
#
#
# Elastic Constant Matrix: (Units=GPa)
#
#
# Indices 1 2 3 4 5 6 
#
# 1 130.8025 5.5338 68.2148 0.0000 0.0000 0.0000
# 2 5.5338 29.4473 5.8182 0.0000 0.0000 0.0000
# 3 68.2148 5.8182 148.5879 0.0000 0.0000 0.0000
# 4 0.0000 0.0000 0.0000 -1.3134 0.0000 0.0000
# 5 0.0000 0.0000 0.0000 0.0000 30.3339 0.0000
# 6 0.0000 0.0000 0.0000 0.0000 0.0000 9.8378
#
#
#
# Elastic Compliance Matrix: (Units=1/GPa)
#
#
# Indices 1 2 3 4 5 6 
#
# 1 0.010080 -0.000988 -0.004589 0.000000 0.000000 0.000000
# 2 -0.000988 0.034320 -0.000890 0.000000 0.000000 0.000000
# 3 -0.004589 -0.000890 0.008872 0.000000 0.000000 0.000000
# 4 0.000000 0.000000 0.000000 -0.761385 0.000000 0.000000
# 5 0.000000 0.000000 0.000000 0.000000 0.032966 0.000000
# 6 0.000000 0.000000 0.000000 0.000000 0.000000 0.101649
#
#
# Mechanical properties :
#
#
# Convention : Reuss Voigt Hill
#
# Bulk Modulus (GPa) = 24.79044 51.99681 38.39362
# Shear Modulus (GPa) = -9.13881 23.05638 6.95878
#
# Velocity S-wave (km/s) = -2.10816 3.34853 1.83961
# Velocity P-wave (km/s) = 2.47591 6.34326 4.81493
#
# Compressibility (1/GPa) = 0.04033813
#
# Stress axis : x y z
#
# Youngs Moduli (GPa) = 99.20547 29.13711 112.71883
#
# Poissons Ratio (x) = 0.02878 0.51726
# Poissons Ratio (y) = 0.09797 0.10037
# Poissons Ratio (z) = 0.45525 0.02595
#
# Static dielectric constant tensor:
#      x y z
#    x 3.772710 0.000000 0.000000 
#    y 0.000000 3.230180 0.000000 
#    z 0.000000 0.000000 4.112010 
# 
# 
# High freq. dielectric constant tensor:
#      x y z
#    x 1.805910 0.000000 0.000000 
#    y 0.000000 1.770270 0.000000 
#    z 0.000000 0.000000 1.822320 
# 
# From -- ./inp_files/8371.got.cif
#   From: 2010.06.25/outbox.cif.g09.slc.cpg/sg71_5_cif.got.tgz:8371.got - 2010.06.28 04:59:45.
