data_PCOD8292111
_publ_section_title
;
Structure prediction by ZEFSAII (Michael W. Deem and Ramdas Pophale) SiO2 
 PCOD8292111
Probable space group: I M M M
;
_chemical_formula_sum "Si O2"
_cell_formula_units_Z 80
_cell_length_a 11.382160
_cell_length_b 22.667631
_cell_length_c 17.230601
_cell_angle_alpha 90.000000
_cell_angle_beta 90.000000
_cell_angle_gamma 90.000000
_cell_volume 4445.608829
_symmetry_space_group_name_H-M "I M M M"
_symmetry_group_IT_number 71
_symmetry_cell_setting 'orthorhombic'
loop_
_space_group_symop_operation_xyz
x,y,z
-x,-y,z
x,-y,-z
-x,y,-z
-x,-y,-z
x,y,-z
-x,y,z
x,-y,z
1/2+x,1/2+y,1/2+z
1/2-x,1/2-y,1/2+z
1/2+x,1/2-y,1/2-z
1/2-x,1/2+y,1/2-z
1/2-x,1/2-y,1/2-z
1/2+x,1/2+y,1/2-z
1/2-x,1/2+y,1/2+z
1/2+x,1/2-y,1/2+z
loop_
_atom_site_type_symbol
_atom_site_label
_atom_site_fract_x
_atom_site_fract_y
_atom_site_fract_z
Si Si1 0.365773 0.407527 0.000000
Si Si2 0.865167 0.669893 0.232021
Si Si3 0.786608 0.219257 0.864062
Si Si4 0.000000 0.069330 0.761220
Si Si5 0.774260 0.933110 0.665828
Si Si6 0.500000 0.356726 0.414274
Si Si7 0.133245 0.768109 0.500000
O O1 0.300387 0.433200 0.074658
O O2 0.500000 0.429845 0.000000
O O3 0.358560 0.337821 0.000000
O O4 0.850098 0.727296 0.179266
O O5 0.781873 0.675452 0.306580
O O6 0.832876 0.610477 0.185083
O O7 0.000000 0.665019 0.258397
O O8 0.884777 0.183139 0.909049
O O9 0.692418 0.244538 0.922930
O O10 0.112895 0.091099 0.713138
O O11 0.000000 0.094442 0.847732
O O12 0.000000 0.000000 0.768848
O O13 0.741710 0.000000 0.690882
O O14 0.500000 0.386531 0.500000
O O15 0.000000 0.745873 0.500000
#
# Coordination Sequence:
#
# PCOD8292111 Si02
#       7
#     8  16  16   8  16   8   8
#     4  11  21  34  57  88 118 154 195 242 294 340
#     4  11  23  38  58  81 116 158 196 244 287 345
#     4  11  22  37  57  88 115 149 195 236 293 353
#     4  10  22  40  60  86 117 152 195 247 289 342
#     4  11  22  37  59  85 117 154 202 244 287 346
#     4  12  22  37  65  91 117 148 187 241 302 354
#     4  11  22  36  57  85 120 156 188 236 293 361
#
# _framework density 17.995284999999999
#
# number of rings (size 3 to 8) (size 9 to 14) (size 15 to 20)
#    0.000    1.000    7.000    0.900    0.000    1.000 
#    0.000    1.500    0.000    1.200    0.000    0.000 
#    0.000    6.400    0.000    0.000    0.000    0.000 
#
# Total GULP energy -496149.729912 kJ/mol
# GULP energy per Si atom -12403.743248 kJ/mol
# Density = 1.795433 g / cm^3
# Si number density = 17.995285 Si / 1000 Ang^3
#
#
#
# Elastic Constant Matrix: (Units=GPa)
#
#
# Indices 1 2 3 4 5 6 
#
# 1 102.1812 30.3936 28.5858 0.0000 0.0000 0.0000
# 2 30.3936 55.1928 18.7383 0.0000 0.0000 0.0000
# 3 28.5858 18.7383 106.4376 0.0001 0.0000 0.0000
# 4 0.0000 0.0000 0.0001 29.1535 0.0000 0.0000
# 5 0.0000 0.0000 0.0000 0.0000 29.4948 0.0000
# 6 0.0000 0.0000 0.0000 0.0000 0.0000 1.9860
#
#
#
# Elastic Compliance Matrix: (Units=1/GPa)
#
#
# Indices 1 2 3 4 5 6 
#
# 1 0.012179 -0.005952 -0.002223 0.000000 0.000000 0.000000
# 2 -0.005952 0.022179 -0.002306 0.000000 0.000000 0.000000
# 3 -0.002223 -0.002306 0.010398 0.000000 0.000000 0.000000
# 4 0.000000 0.000000 0.000000 0.034301 0.000000 0.000000
# 5 0.000000 0.000000 0.000000 0.000000 0.033904 0.000000
# 6 0.000000 0.000000 0.000000 0.000000 0.000000 0.503536
#
#
# Mechanical properties :
#
#
# Convention : Reuss Voigt Hill
#
# Bulk Modulus (GPa) = 42.02770 46.58299 44.30535
# Shear Modulus (GPa) = 7.74724 24.53310 16.14017
#
# Velocity S-wave (km/s) = 2.07714 3.69630 2.99810
# Velocity P-wave (km/s) = 5.39983 6.64525 6.05465
#
# Compressibility (1/GPa) = 0.02379383
#
# Stress axis : x y z
#
# Youngs Moduli (GPa) = 82.10968 45.08801 96.17053
#
# Poissons Ratio (x) = 0.26836 0.21379
# Poissons Ratio (y) = 0.48871 0.22178
# Poissons Ratio (z) = 0.18253 0.10398
#
# Static dielectric constant tensor:
#      x y z
#    x 3.322040 0.000000 0.000000 
#    y 0.000000 3.237530 0.000000 
#    z 0.000000 0.000000 3.353050 
# 
# 
# High freq. dielectric constant tensor:
#      x y z
#    x 1.696430 0.000000 0.000000 
#    y 0.000000 1.692770 0.000000 
#    z 0.000000 0.000000 1.703350 
# 
# From -- ./inp_files/23891.got.cif
#   From: 2010.06.25/outbox.cif.g09.slc.cpg/sg71_12_cif.got.tgz:23891.got - 2010.06.28 04:59:45.
