data_PCOD8292705
_publ_section_title
;
Structure prediction by ZEFSAII (Michael W. Deem and Ramdas Pophale) SiO2 
 PCOD8292705
Probable space group: I M M M
;
_chemical_formula_sum "Si O2"
_cell_formula_units_Z 72
_cell_length_a 22.632591
_cell_length_b 17.943602
_cell_length_c 9.807891
_cell_angle_alpha 90.000000
_cell_angle_beta 90.000000
_cell_angle_gamma 90.000000
_cell_volume 3983.084626
_symmetry_space_group_name_H-M "I M M M"
_symmetry_group_IT_number 71
_symmetry_cell_setting 'orthorhombic'
loop_
_space_group_symop_operation_xyz
x,y,z
-x,-y,z
x,-y,-z
-x,y,-z
-x,-y,-z
x,y,-z
-x,y,z
x,-y,z
1/2+x,1/2+y,1/2+z
1/2-x,1/2-y,1/2+z
1/2+x,1/2-y,1/2-z
1/2-x,1/2+y,1/2-z
1/2-x,1/2-y,1/2-z
1/2+x,1/2+y,1/2-z
1/2-x,1/2+y,1/2+z
1/2+x,1/2-y,1/2+z
loop_
_atom_site_type_symbol
_atom_site_label
_atom_site_fract_x
_atom_site_fract_y
_atom_site_fract_z
Si Si1 0.097643 0.913907 0.850852
Si Si2 0.784945 0.841451 0.844753
Si Si3 0.565688 0.915895 0.338363
Si Si4 0.321718 0.824415 0.658708
Si Si5 0.500000 0.589108 0.151712
O O1 0.166378 0.904287 0.815536
O O2 0.056882 0.879151 0.732804
O O3 0.082261 0.000000 0.860745
O O4 0.084315 0.876842 0.000000
O O5 0.731323 0.860793 0.744747
O O6 0.818635 0.763726 0.813826
O O7 0.761358 0.842787 0.000000
O O8 0.564446 0.914508 0.500000
O O9 0.500000 0.892742 0.284005
O O10 0.615985 0.858054 0.286893
O O11 0.580843 0.000000 0.288205
O O12 0.312195 0.844043 0.500000
O O13 0.500000 0.500000 0.142440
O O14 0.500000 0.623436 0.000000
#
# Coordination Sequence:
#
# PCOD8292705 Si02
#       5
#    16  16  16  16   8
#     4   9  17  30  46  63  87 120 155 186 218 261
#     4   9  18  31  45  65  91 121 153 186 223 264
#     4   8  14  26  45  69  94 116 143 186 234 274
#     4   9  17  30  47  67  90 118 149 184 227 271
#     4   9  17  29  45  65  89 115 144 183 228 264
#
# _framework density 18.076442
#
# number of rings (size 3 to 8) (size 9 to 14) (size 15 to 20)
#    0.000    3.222    0.000    1.000    0.000    3.111 
#    2.000    0.000    0.000    0.667    0.000    1.556 
#    0.000    0.000    0.000    0.000    0.000    0.000 
#
# Total GULP energy -446085.077946 kJ/mol
# GULP energy per Si atom -12391.252165 kJ/mol
# Density = 1.803530 g / cm^3
# Si number density = 18.076442 Si / 1000 Ang^3
#
#
#
# Elastic Constant Matrix: (Units=GPa)
#
#
# Indices 1 2 3 4 5 6 
#
# 1 149.6177 37.0071 66.2890 0.0000 0.0000 0.0000
# 2 37.0071 28.5151 15.1639 0.0000 0.0000 0.0000
# 3 66.2890 15.1639 89.0131 0.0000 0.0000 0.0000
# 4 0.0000 0.0000 0.0000 13.9571 0.0000 0.0000
# 5 0.0000 0.0000 0.0000 0.0000 31.8314 0.0000
# 6 0.0000 0.0000 0.0000 0.0000 0.0000 31.0507
#
#
#
# Elastic Compliance Matrix: (Units=1/GPa)
#
#
# Indices 1 2 3 4 5 6 
#
# 1 0.013377 -0.013265 -0.007702 0.000000 0.000000 0.000000
# 2 -0.013265 0.051717 0.001069 0.000000 0.000000 0.000000
# 3 -0.007702 0.001069 0.016788 0.000000 0.000000 0.000000
# 4 0.000000 0.000000 0.000000 0.071648 0.000000 0.000000
# 5 0.000000 0.000000 0.000000 0.000000 0.031416 0.000000
# 6 0.000000 0.000000 0.000000 0.000000 0.000000 0.032205
#
#
# Mechanical properties :
#
#
# Convention : Reuss Voigt Hill
#
# Bulk Modulus (GPa) = 23.76198 56.00732 39.88465
# Shear Modulus (GPa) = 18.45167 25.28021 21.86594
#
# Velocity S-wave (km/s) = 3.19840 3.74373 3.48176
# Velocity P-wave (km/s) = 5.17817 7.05253 6.18675
#
# Compressibility (1/GPa) = 0.04208404
#
# Stress axis : x y z
#
# Youngs Moduli (GPa) = 74.75283 19.33613 59.56500
#
# Poissons Ratio (x) = 0.25650 0.45880
# Poissons Ratio (y) = 0.99162 -0.06365
# Poissons Ratio (z) = 0.57578 -0.02066
#
# Static dielectric constant tensor:
#      x y z
#    x 3.576930 0.000000 0.000000 
#    y 0.000000 3.126750 0.000000 
#    z 0.000000 0.000000 3.297930 
# 
# 
# High freq. dielectric constant tensor:
#      x y z
#    x 1.706260 0.000000 0.000000 
#    y 0.000000 1.669230 0.000000 
#    z 0.000000 0.000000 1.674770 
# 
# From -- ./inp_files/9892.got.cif
#   From: 2010.06.25/outbox.cif.g09.slc.cpg/sg71_5_cif.got.tgz:9892.got - 2010.06.28 04:59:45.
