data_PCOD8292919
_publ_section_title
;
Structure prediction by ZEFSAII (Michael W. Deem and Ramdas Pophale) SiO2 
 PCOD8292919
Probable space group: I B A M
;
_chemical_formula_sum "Si O2"
_cell_formula_units_Z 112
_cell_length_a 12.758577
_cell_length_b 18.626404
_cell_length_c 26.410562
_cell_angle_alpha 90.000000
_cell_angle_beta 90.000000
_cell_angle_gamma 90.000000
_cell_volume 6276.375237
_symmetry_space_group_name_H-M "I B A M"
_symmetry_group_IT_number 72
_symmetry_cell_setting 'orthorhombic'
loop_
_space_group_symop_operation_xyz
x,y,z
-x,-y,z
x,-y,1/2-z
-x,y,1/2-z
-x,-y,-z
x,y,-z
-x,y,1/2+z
x,-y,1/2+z
1/2+x,1/2+y,1/2+z
1/2-x,1/2-y,1/2+z
1/2+x,1/2-y,-z
1/2-x,1/2+y,-z
1/2-x,1/2-y,1/2-z
1/2+x,1/2+y,1/2-z
1/2-x,1/2+y,z
1/2+x,1/2-y,z
loop_
_atom_site_type_symbol
_atom_site_label
_atom_site_fract_x
_atom_site_fract_y
_atom_site_fract_z
Si Si1 0.885327 0.342879 0.724377
Si Si2 0.279047 0.883821 0.323181
Si Si3 0.090767 0.394219 0.056597
Si Si4 0.926631 0.286710 0.892859
Si Si5 0.110838 0.525518 0.653181
Si Si6 0.386456 0.283495 0.651298
Si Si7 0.764783 0.729645 0.056192
O O1 0.799584 0.365822 0.764971
O O2 0.870357 0.398338 0.678572
O O3 0.853762 0.268050 0.698022
O O4 0.000000 0.342175 0.750000
O O5 0.356376 0.835377 0.356564
O O6 0.156518 0.862911 0.333582
O O7 0.298426 0.967823 0.334551
O O8 0.101984 0.463593 0.092524
O O9 0.203298 0.354148 0.056576
O O10 0.002330 0.339356 0.076351
O O11 0.061512 0.420256 0.000000
O O12 0.857890 0.239469 0.931275
O O13 0.989690 0.228683 0.858008
O O14 0.000000 0.500000 0.675688
O O15 0.332909 0.270259 0.597416
O O16 0.786870 0.761691 0.000000
#
# Coordination Sequence:
#
# PCOD8292919 Si02
#       7
#    16  16  16  16  16  16  16
#     4  12  19  34  55  77 108 149 173 216 267 318
#     4  11  22  32  53  78 112 139 173 217 263 318
#     4  10  19  33  51  76 109 141 175 219 270 321
#     4  10  17  34  52  77 106 135 176 219 269 312
#     4  12  20  34  49  81 111 143 174 210 268 333
#     4  10  20  35  51  81 109 135 182 222 261 311
#     4   9  18  32  52  76 102 140 179 216 266 317
#
# _framework density 17.844695000000002
#
# number of rings (size 3 to 8) (size 9 to 14) (size 15 to 20)
#    0.000    1.429    7.143    1.286    0.000    0.857 
#    0.000    0.714    0.000    0.857    0.000    2.000 
#    0.000    0.000    0.000    0.000    0.000    0.000 
#
# Total GULP energy -693855.477826 kJ/mol
# GULP energy per Si atom -12390.276390 kJ/mol
# Density = 1.780408 g / cm^3
# Si number density = 17.844695 Si / 1000 Ang^3
#
#
#
# Elastic Constant Matrix: (Units=GPa)
#
#
# Indices 1 2 3 4 5 6 
#
# 1 41.0031 18.5876 10.1827 0.0000 0.0000 0.0000
# 2 18.5876 57.3448 10.8581 0.0000 0.0000 0.0000
# 3 10.1827 10.8581 103.6825 0.0000 0.0000 0.0000
# 4 0.0000 0.0000 0.0000 20.0218 0.0000 0.0000
# 5 0.0000 0.0000 0.0000 0.0000 24.6541 0.0000
# 6 0.0000 0.0000 0.0000 0.0000 0.0000 26.4452
#
#
#
# Elastic Compliance Matrix: (Units=1/GPa)
#
#
# Indices 1 2 3 4 5 6 
#
# 1 0.028951 -0.009025 -0.001898 0.000000 0.000000 0.000000
# 2 -0.009025 0.020604 -0.001271 0.000000 0.000000 0.000000
# 3 -0.001898 -0.001271 0.009964 0.000000 0.000000 0.000000
# 4 0.000000 0.000000 0.000000 0.049945 0.000000 0.000000
# 5 0.000000 0.000000 0.000000 0.000000 0.040561 0.000000
# 6 0.000000 0.000000 0.000000 0.000000 0.000000 0.037814
#
#
# Mechanical properties :
#
#
# Convention : Reuss Voigt Hill
#
# Bulk Modulus (GPa) = 28.46486 31.25413 29.85949
# Shear Modulus (GPa) = 22.32747 25.05102 23.68925
#
# Velocity S-wave (km/s) = 3.54108 3.75084 3.64747
# Velocity P-wave (km/s) = 5.71884 6.02586 5.87435
#
# Compressibility (1/GPa) = 0.03513104
#
# Stress axis : x y z
#
# Youngs Moduli (GPa) = 34.54121 48.53338 100.35721
#
# Poissons Ratio (x) = 0.43800 0.19050
# Poissons Ratio (y) = 0.31172 0.12760
# Poissons Ratio (z) = 0.06557 0.06171
#
# Static dielectric constant tensor:
#      x y z
#    x 3.523160 0.000000 0.000000 
#    y 0.000000 3.196150 0.000000 
#    z 0.000000 0.000000 3.627540 
# 
# 
# High freq. dielectric constant tensor:
#      x y z
#    x 1.665340 0.000000 0.000000 
#    y 0.000000 1.660730 0.000000 
#    z 0.000000 0.000000 1.714800 
# 
# From -- ./inp_files/48272.got.cif
#   From: 2010.03.12/outbox.cif.g09.slc.cpg/sg72_25_cif.got.tgz:48272.got - 2010.04.16 14:54:00.
