data_PCOD8293278
_publ_section_title
;
Structure prediction by ZEFSAII (Michael W. Deem and Ramdas Pophale) SiO2 
 PCOD8293278
Probable space group: I B A M
;
_chemical_formula_sum "Si O2"
_cell_formula_units_Z 96
_cell_length_a 11.250942
_cell_length_b 19.118702
_cell_length_c 22.165206
_cell_angle_alpha 90.000000
_cell_angle_beta 90.000000
_cell_angle_gamma 90.000000
_cell_volume 4767.811334
_symmetry_space_group_name_H-M "I B A M"
_symmetry_group_IT_number 72
_symmetry_cell_setting 'orthorhombic'
loop_
_space_group_symop_operation_xyz
x,y,z
-x,-y,z
x,-y,1/2-z
-x,y,1/2-z
-x,-y,-z
x,y,-z
-x,y,1/2+z
x,-y,1/2+z
1/2+x,1/2+y,1/2+z
1/2-x,1/2-y,1/2+z
1/2+x,1/2-y,-z
1/2-x,1/2+y,-z
1/2-x,1/2-y,1/2-z
1/2+x,1/2+y,1/2-z
1/2-x,1/2+y,z
1/2+x,1/2-y,z
loop_
_atom_site_type_symbol
_atom_site_label
_atom_site_fract_x
_atom_site_fract_y
_atom_site_fract_z
Si Si1 0.919772 0.567760 0.570717
Si Si2 0.922878 0.322546 0.363930
Si Si3 0.718244 0.375412 0.863792
Si Si4 0.260772 0.331478 0.766182
Si Si5 0.277593 0.263372 0.067926
Si Si6 0.968653 0.822593 0.354492
O O1 0.913055 0.586857 0.500000
O O2 0.784904 0.561916 0.598664
O O3 0.000000 0.500000 0.580859
O O4 0.973824 0.628421 0.612108
O O5 0.844677 0.356524 0.310525
O O6 0.841037 0.308701 0.422728
O O7 0.972756 0.250989 0.335706
O O8 0.748474 0.379584 0.792884
O O9 0.771450 0.303062 0.888824
O O10 0.574159 0.377947 0.870429
O O11 0.250000 0.250000 0.750000
O O12 0.386949 0.347340 0.798807
O O13 0.390827 0.310905 0.085247
O O14 0.289682 0.237604 0.000000
#
# Coordination Sequence:
#
# PCOD8293278 Si02
#       6
#    16  16  16  16  16  16
#     4  11  24  42  59  77 111 159 206 250 293 346
#     4  10  20  34  54  80 113 149 191 235 287 357
#     4  11  21  32  52  82 114 149 193 236 292 358
#     4  11  18  32  53  84 119 153 180 225 302 364
#     4  10  19  30  49  79 114 148 183 240 303 351
#     4  10  19  30  52  84 121 148 180 237 300 365
#
# _framework density 20.135026
#
# number of rings (size 3 to 8) (size 9 to 14) (size 15 to 20)
#    0.000    1.500    6.667    1.500    0.000    5.333 
#    0.000    1.667    0.000    4.000    0.000   15.167 
#    0.000    0.000    0.000    0.000    0.000    0.000 
#
# Total GULP energy -594821.397968 kJ/mol
# GULP energy per Si atom -12392.112458 kJ/mol
# Density = 2.008920 g / cm^3
# Si number density = 20.135026 Si / 1000 Ang^3
#
#
#
# Elastic Constant Matrix: (Units=GPa)
#
#
# Indices 1 2 3 4 5 6 
#
# 1 127.7402 18.7866 55.1156 0.0000 0.0000 0.0000
# 2 18.7866 23.3527 13.7301 0.0000 0.0000 0.0000
# 3 55.1156 13.7301 141.3039 0.0000 0.0000 0.0000
# 4 0.0000 0.0000 0.0000 16.3175 0.0000 0.0000
# 5 0.0000 0.0000 0.0000 0.0000 27.7013 0.0000
# 6 0.0000 0.0000 0.0000 0.0000 0.0000 27.1031
#
#
#
# Elastic Compliance Matrix: (Units=1/GPa)
#
#
# Indices 1 2 3 4 5 6 
#
# 1 0.010199 -0.006221 -0.003374 0.000000 0.000000 0.000000
# 2 -0.006221 0.049211 -0.002355 0.000000 0.000000 0.000000
# 3 -0.003374 -0.002355 0.008622 0.000000 0.000000 0.000000
# 4 0.000000 0.000000 0.000000 0.061284 0.000000 0.000000
# 5 0.000000 0.000000 0.000000 0.000000 0.036099 0.000000
# 6 0.000000 0.000000 0.000000 0.000000 0.000000 0.036896
#
#
# Mechanical properties :
#
#
# Convention : Reuss Voigt Hill
#
# Bulk Modulus (GPa) = 22.65944 51.96235 37.31089
# Shear Modulus (GPa) = 20.75364 27.87533 24.31449
#
# Velocity S-wave (km/s) = 3.21397 3.72482 3.47878
# Velocity P-wave (km/s) = 5.00510 6.66048 5.89122
#
# Compressibility (1/GPa) = 0.04413172
#
# Stress axis : x y z
#
# Youngs Moduli (GPa) = 98.04949 20.32067 115.98707
#
# Poissons Ratio (x) = 0.12642 0.39129
# Poissons Ratio (y) = 0.60999 0.27316
# Poissons Ratio (z) = 0.33078 0.04786
#
# Static dielectric constant tensor:
#      x y z
#    x 4.276890 0.000000 0.000000 
#    y 0.000000 3.102670 0.000000 
#    z 0.000000 0.000000 3.833230 
# 
# 
# High freq. dielectric constant tensor:
#      x y z
#    x 1.814640 0.000000 0.000000 
#    y 0.000000 1.703090 0.000000 
#    z 0.000000 0.000000 1.794740 
# 
# From -- ./inp_files/37088.got.cif
#   From: 2010.03.12/outbox.cif.g09.slc.cpg/sg72_19_cif.got.tgz:37088.got - 2010.04.16 14:54:00.
