data_PCOD8293282
_publ_section_title
;
Structure prediction by ZEFSAII (Michael W. Deem and Ramdas Pophale) SiO2 
 PCOD8293282
Probable space group: I B A M
;
_chemical_formula_sum "Si O2"
_cell_formula_units_Z 96
_cell_length_a 9.562973
_cell_length_b 21.965994
_cell_length_c 25.069684
_cell_angle_alpha 90.000000
_cell_angle_beta 90.000000
_cell_angle_gamma 90.000000
_cell_volume 5266.143024
_symmetry_space_group_name_H-M "I B A M"
_symmetry_group_IT_number 72
_symmetry_cell_setting 'orthorhombic'
loop_
_space_group_symop_operation_xyz
x,y,z
-x,-y,z
x,-y,1/2-z
-x,y,1/2-z
-x,-y,-z
x,y,-z
-x,y,1/2+z
x,-y,1/2+z
1/2+x,1/2+y,1/2+z
1/2-x,1/2-y,1/2+z
1/2+x,1/2-y,-z
1/2-x,1/2+y,-z
1/2-x,1/2-y,1/2-z
1/2+x,1/2+y,1/2-z
1/2-x,1/2+y,z
1/2+x,1/2-y,z
loop_
_atom_site_type_symbol
_atom_site_label
_atom_site_fract_x
_atom_site_fract_y
_atom_site_fract_z
Si Si1 0.089219 0.939523 0.439501
Si Si2 0.205526 0.055298 0.289442
Si Si3 0.308823 0.129693 0.197077
Si Si4 0.882508 0.243330 0.788350
Si Si5 0.497877 0.363538 0.655995
Si Si6 0.851872 0.520988 0.375991
O O1 0.094857 0.915940 0.500000
O O2 0.246476 0.956415 0.421486
O O3 0.016729 0.885510 0.405375
O O4 0.000000 0.000000 0.433532
O O5 0.293627 0.107679 0.258602
O O6 0.056313 0.080647 0.308874
O O7 0.173763 0.000000 0.250000
O O8 0.290002 0.034643 0.341644
O O9 0.410213 0.188314 0.190606
O O10 0.381379 0.076902 0.163574
O O11 0.157571 0.150534 0.175821
O O12 0.750000 0.250000 0.750000
O O13 0.893673 0.194287 0.837428
O O14 0.000000 0.217422 0.750000
O O15 0.000000 0.500000 0.401391
#
# Coordination Sequence:
#
# PCOD8293282 Si02
#       6
#    16  16  16  16  16  16
#     4  10  21  39  62  82 103 140 193 248 294 340
#     4  10  19  30  50  78 117 153 185 221 275 350
#     4  10  22  33  51  79 121 156 189 222 272 346
#     4  12  22  35  52  81 116 156 193 229 269 337
#     4  11  20  36  54  80 109 150 196 230 285 339
#     4  10  22  35  54  87 115 149 183 232 299 344
#
# _framework density 18.229659999999999
#
# number of rings (size 3 to 8) (size 9 to 14) (size 15 to 20)
#    0.000    1.500    5.000    0.500    2.333    6.000 
#    0.000    0.000    0.000    4.000    0.000    0.000 
#    0.000    0.000    0.000    0.000    0.000    0.000 
#
# Total GULP energy -594789.908020 kJ/mol
# GULP energy per Si atom -12391.456417 kJ/mol
# Density = 1.818817 g / cm^3
# Si number density = 18.229660 Si / 1000 Ang^3
#
#
#
# Elastic Constant Matrix: (Units=GPa)
#
#
# Indices 1 2 3 4 5 6 
#
# 1 71.4073 26.3355 33.3969 0.0000 0.0000 0.0000
# 2 26.3355 99.8148 54.0206 0.0000 0.0000 0.0000
# 3 33.3969 54.0206 109.9397 0.0000 0.0000 0.0000
# 4 0.0000 0.0000 0.0000 23.1995 0.0000 0.0000
# 5 0.0000 0.0000 0.0000 0.0000 17.4542 0.0000
# 6 0.0000 0.0000 0.0000 0.0000 0.0000 32.4936
#
#
#
# Elastic Compliance Matrix: (Units=1/GPa)
#
#
# Indices 1 2 3 4 5 6 
#
# 1 0.016690 -0.002261 -0.003959 0.000000 0.000000 0.000000
# 2 -0.002261 0.013954 -0.006170 0.000000 0.000000 0.000000
# 3 -0.003959 -0.006170 0.013330 0.000000 0.000000 0.000000
# 4 0.000000 0.000000 0.000000 0.043104 0.000000 0.000000
# 5 0.000000 0.000000 0.000000 0.000000 0.057293 0.000000
# 6 0.000000 0.000000 0.000000 0.000000 0.000000 0.030775
#
#
# Mechanical properties :
#
#
# Convention : Reuss Voigt Hill
#
# Bulk Modulus (GPa) = 52.09771 56.51863 54.30817
# Shear Modulus (GPa) = 24.23373 25.79005 25.01189
#
# Velocity S-wave (km/s) = 3.64999 3.76537 3.70813
# Velocity P-wave (km/s) = 6.81204 7.06930 6.94186
#
# Compressibility (1/GPa) = 0.01919470
#
# Stress axis : x y z
#
# Youngs Moduli (GPa) = 59.91770 71.66285 75.01761
#
# Poissons Ratio (x) = 0.16201 0.29699
# Poissons Ratio (y) = 0.13546 0.46285
# Poissons Ratio (z) = 0.23721 0.44215
#
# Static dielectric constant tensor:
#      x y z
#    x 3.002950 0.000000 0.000000 
#    y 0.000000 3.751980 0.000000 
#    z 0.000000 0.000000 3.191880 
# 
# 
# High freq. dielectric constant tensor:
#      x y z
#    x 1.703840 0.000000 0.000000 
#    y 0.000000 1.712270 0.000000 
#    z 0.000000 0.000000 1.666930 
# 
# From -- ./inp_files/42454.got.cif
#   From: 2010.03.12/outbox.cif.g09.slc.cpg/sg72_22_cif.got.tgz:42454.got - 2010.04.16 14:54:00.
