data_PCOD8293475
_publ_section_title
;
Structure prediction by ZEFSAII (Michael W. Deem and Ramdas Pophale) SiO2 
 PCOD8293475
Probable space group: I B A M
;
_chemical_formula_sum "Si O2"
_cell_formula_units_Z 96
_cell_length_a 22.566548
_cell_length_b 25.426474
_cell_length_c 8.722279
_cell_angle_alpha 90.000000
_cell_angle_beta 90.000000
_cell_angle_gamma 90.000000
_cell_volume 5004.736807
_symmetry_space_group_name_H-M "I B A M"
_symmetry_group_IT_number 72
_symmetry_cell_setting 'orthorhombic'
loop_
_space_group_symop_operation_xyz
x,y,z
-x,-y,z
x,-y,1/2-z
-x,y,1/2-z
-x,-y,-z
x,y,-z
-x,y,1/2+z
x,-y,1/2+z
1/2+x,1/2+y,1/2+z
1/2-x,1/2-y,1/2+z
1/2+x,1/2-y,-z
1/2-x,1/2+y,-z
1/2-x,1/2-y,1/2-z
1/2+x,1/2+y,1/2-z
1/2-x,1/2+y,z
1/2+x,1/2-y,z
loop_
_atom_site_type_symbol
_atom_site_label
_atom_site_fract_x
_atom_site_fract_y
_atom_site_fract_z
Si Si1 0.880694 0.339309 0.177348
Si Si2 0.304405 0.555489 0.181549
Si Si3 0.062689 0.240225 0.819403
Si Si4 0.142999 0.151373 0.330183
Si Si5 0.268309 0.197908 0.669736
Si Si6 0.330431 0.054494 0.819659
O O1 0.922837 0.300907 0.275021
O O2 0.812732 0.326249 0.208028
O O3 0.880505 0.401290 0.224316
O O4 0.896847 0.330394 0.000000
O O5 0.324619 0.500000 0.250000
O O6 0.355143 0.596817 0.236852
O O7 0.236658 0.567949 0.238916
O O8 0.306804 0.553551 0.000000
O O9 0.111219 0.199215 0.757682
O O10 0.000000 0.223776 0.750000
O O11 0.059616 0.235601 0.000000
O O12 0.114146 0.144808 0.500000
O O13 0.211815 0.162194 0.350754
O O14 0.297493 0.207197 0.500000
O O15 0.250000 0.250000 0.750000
O O16 0.353517 0.000000 0.750000
O O17 0.327709 0.048471 0.000000
#
# Coordination Sequence:
#
# PCOD8293475 Si02
#       6
#    16  16  16  16  16  16
#     4  11  21  36  56  82 116 151 188 232 281 339
#     4  10  19  33  52  81 118 157 193 230 277 333
#     4  12  26  43  62  83 109 146 190 239 290 341
#     4  11  22  36  56  83 116 152 189 233 281 338
#     4  11  21  31  50  80 115 150 185 226 279 341
#     4   9  19  32  51  79 116 154 188 226 272 330
#
# _framework density 19.181826999999998
#
# number of rings (size 3 to 8) (size 9 to 14) (size 15 to 20)
#    0.000    1.333    3.333    3.500    0.000    3.333 
#    0.000    0.000    0.000    1.000    0.000    7.000 
#    0.000    0.000    0.000    0.000    0.000    0.000 
#
# Total GULP energy -594734.229163 kJ/mol
# GULP energy per Si atom -12390.296441 kJ/mol
# Density = 1.913817 g / cm^3
# Si number density = 19.181827 Si / 1000 Ang^3
#
#
#
# Elastic Constant Matrix: (Units=GPa)
#
#
# Indices 1 2 3 4 5 6 
#
# 1 42.6473 11.8494 13.7566 0.0000 0.0000 0.0000
# 2 11.8494 115.7104 41.0864 0.0000 0.0000 0.0000
# 3 13.7566 41.0864 93.9922 0.0000 0.0000 0.0000
# 4 0.0000 0.0000 0.0000 32.2690 0.0000 0.0000
# 5 0.0000 0.0000 0.0000 0.0000 25.2757 0.0000
# 6 0.0000 0.0000 0.0000 0.0000 0.0000 9.2819
#
#
#
# Elastic Compliance Matrix: (Units=1/GPa)
#
#
# Indices 1 2 3 4 5 6 
#
# 1 0.024823 -0.001482 -0.002985 0.000000 0.000000 0.000000
# 2 -0.001482 0.010319 -0.004294 0.000000 0.000000 0.000000
# 3 -0.002985 -0.004294 0.012953 0.000000 0.000000 0.000000
# 4 0.000000 0.000000 0.000000 0.030989 0.000000 0.000000
# 5 0.000000 0.000000 0.000000 0.000000 0.039564 0.000000
# 6 0.000000 0.000000 0.000000 0.000000 0.000000 0.107737
#
#
# Mechanical properties :
#
#
# Convention : Reuss Voigt Hill
#
# Bulk Modulus (GPa) = 32.70894 42.85942 37.78418
# Shear Modulus (GPa) = 19.67754 25.74248 22.71001
#
# Velocity S-wave (km/s) = 3.20635 3.66734 3.44457
# Velocity P-wave (km/s) = 5.54947 6.35018 5.96328
#
# Compressibility (1/GPa) = 0.03057269
#
# Stress axis : x y z
#
# Youngs Moduli (GPa) = 40.28548 96.91230 77.20253
#
# Poissons Ratio (x) = 0.14363 0.23047
# Poissons Ratio (y) = 0.05970 0.33148
# Poissons Ratio (z) = 0.12026 0.41610
#
# Static dielectric constant tensor:
#      x y z
#    x 3.201630 0.000000 0.000000 
#    y 0.000000 3.671850 0.000000 
#    z 0.000000 0.000000 4.061670 
# 
# 
# High freq. dielectric constant tensor:
#      x y z
#    x 1.696660 0.000000 0.000000 
#    y 0.000000 1.757180 0.000000 
#    z 0.000000 0.000000 1.759750 
# 
# From -- ./inp_files/6023.got.cif
#   From: 2010.03.12/outbox.cif.g09.slc.cpg/sg72_4_cif.got.tgz:6023.got - 2010.04.16 14:54:00.
