data_PCOD8293646
_publ_section_title
;
Structure prediction by ZEFSAII (Michael W. Deem and Ramdas Pophale) SiO2 
 PCOD8293646
Probable space group: I B A M
;
_chemical_formula_sum "Si O2"
_cell_formula_units_Z 96
_cell_length_a 29.203340
_cell_length_b 17.386180
_cell_length_c 9.104003
_cell_angle_alpha 90.000000
_cell_angle_beta 90.000000
_cell_angle_gamma 90.000000
_cell_volume 4622.416646
_symmetry_space_group_name_H-M "I B A M"
_symmetry_group_IT_number 72
_symmetry_cell_setting 'orthorhombic'
loop_
_space_group_symop_operation_xyz
x,y,z
-x,-y,z
x,-y,1/2-z
-x,y,1/2-z
-x,-y,-z
x,y,-z
-x,y,1/2+z
x,-y,1/2+z
1/2+x,1/2+y,1/2+z
1/2-x,1/2-y,1/2+z
1/2+x,1/2-y,-z
1/2-x,1/2+y,-z
1/2-x,1/2-y,1/2-z
1/2+x,1/2+y,1/2-z
1/2-x,1/2+y,z
1/2+x,1/2-y,z
loop_
_atom_site_type_symbol
_atom_site_label
_atom_site_fract_x
_atom_site_fract_y
_atom_site_fract_z
Si Si1 0.542248 0.675827 0.840255
Si Si2 0.309607 0.162745 0.168569
Si Si3 0.118216 0.577354 0.326573
Si Si4 0.218768 0.078022 0.829505
Si Si5 0.853719 0.825059 0.325376
Si Si6 0.458824 0.852558 0.661344
O O1 0.500000 0.636967 0.750000
O O2 0.593379 0.670856 0.769534
O O3 0.529240 0.764215 0.862329
O O4 0.543095 0.635309 0.000000
O O5 0.330890 0.097926 0.274812
O O6 0.255436 0.147982 0.187208
O O7 0.327105 0.246510 0.219648
O O8 0.324901 0.147927 0.000000
O O9 0.100752 0.500000 0.250000
O O10 0.114897 0.571102 0.500000
O O11 0.086316 0.644174 0.261211
O O12 0.171774 0.105119 0.754415
O O13 0.235671 0.000000 0.750000
O O14 0.210116 0.059636 0.000000
O O15 0.851466 0.834966 0.500000
O O16 0.500000 0.894052 0.750000
O O17 0.452358 0.891243 0.500000
#
# Coordination Sequence:
#
# PCOD8293646 Si02
#       6
#    16  16  16  16  16  16
#     4   9  18  33  57  86 119 154 187 235 291 345
#     4  10  21  40  61  85 118 154 195 244 294 344
#     4  12  24  36  53  77 108 151 198 244 295 349
#     4  11  24  40  61  88 120 159 199 244 297 355
#     4  10  20  38  63  90 122 157 193 242 296 345
#     4  10  19  35  54  76 108 145 190 240 295 350
#
# _framework density 20.768356000000001
#
# number of rings (size 3 to 8) (size 9 to 14) (size 15 to 20)
#    0.000    1.667    1.667    3.500    0.000    5.000 
#    0.000    1.667    0.000    0.500    0.000    3.500 
#    0.000    0.000    0.000    0.000    0.000    0.000 
#
# Total GULP energy -594917.855571 kJ/mol
# GULP energy per Si atom -12394.121991 kJ/mol
# Density = 2.072109 g / cm^3
# Si number density = 20.768356 Si / 1000 Ang^3
#
#
#
# Elastic Constant Matrix: (Units=GPa)
#
#
# Indices 1 2 3 4 5 6 
#
# 1 138.5342 26.3179 53.5333 0.0000 0.0000 0.0000
# 2 26.3179 41.4948 21.3001 0.0000 0.0000 0.0000
# 3 53.5333 21.3001 122.4181 0.0000 0.0000 0.0000
# 4 0.0000 0.0000 0.0000 25.3879 0.0000 0.0000
# 5 0.0000 0.0000 0.0000 0.0000 32.9724 0.0000
# 6 0.0000 0.0000 0.0000 0.0000 0.0000 16.7653
#
#
#
# Elastic Compliance Matrix: (Units=1/GPa)
#
#
# Indices 1 2 3 4 5 6 
#
# 1 0.009305 -0.004187 -0.003340 0.000000 0.000000 0.000000
# 2 -0.004187 0.028347 -0.003101 0.000000 0.000000 0.000000
# 3 -0.003340 -0.003101 0.010169 0.000000 0.000000 0.000000
# 4 0.000000 0.000000 0.000000 0.039389 0.000000 0.000000
# 5 0.000000 0.000000 0.000000 0.000000 0.030328 0.000000
# 6 0.000000 0.000000 0.000000 0.000000 0.000000 0.059647
#
#
# Mechanical properties :
#
#
# Convention : Reuss Voigt Hill
#
# Bulk Modulus (GPa) = 37.64555 56.08329 46.86442
# Shear Modulus (GPa) = 24.12005 28.44484 26.28245
#
# Velocity S-wave (km/s) = 3.41161 3.70486 3.56125
# Velocity P-wave (km/s) = 5.80383 6.73529 6.28684
#
# Compressibility (1/GPa) = 0.02656357
#
# Stress axis : x y z
#
# Youngs Moduli (GPa) = 107.47328 35.27733 98.33700
#
# Poissons Ratio (x) = 0.14770 0.32849
# Poissons Ratio (y) = 0.44996 0.30498
# Poissons Ratio (z) = 0.35901 0.10941
#
# Static dielectric constant tensor:
#      x y z
#    x 3.804650 0.000000 0.000000 
#    y 0.000000 3.305350 0.000000 
#    z 0.000000 0.000000 4.002510 
# 
# 
# High freq. dielectric constant tensor:
#      x y z
#    x 1.821220 0.000000 0.000000 
#    y 0.000000 1.771380 0.000000 
#    z 0.000000 0.000000 1.813710 
# 
# From -- ./inp_files/6031.got.cif
#   From: 2010.03.12/outbox.cif.g09.slc.cpg/sg72_4_cif.got.tgz:6031.got - 2010.04.16 14:54:00.
