data_PCOD8293986
_publ_section_title
;
Structure prediction by ZEFSAII (Michael W. Deem and Ramdas Pophale) SiO2 
 PCOD8293986
Probable space group: I B A M
;
_chemical_formula_sum "Si O2"
_cell_formula_units_Z 116
_cell_length_a 14.465082
_cell_length_b 14.897549
_cell_length_c 23.604719
_cell_angle_alpha 90.000000
_cell_angle_beta 90.000000
_cell_angle_gamma 90.000000
_cell_volume 5086.681640
_symmetry_space_group_name_H-M "I B A M"
_symmetry_group_IT_number 72
_symmetry_cell_setting 'orthorhombic'
loop_
_space_group_symop_operation_xyz
x,y,z
-x,-y,z
x,-y,1/2-z
-x,y,1/2-z
-x,-y,-z
x,y,-z
-x,y,1/2+z
x,-y,1/2+z
1/2+x,1/2+y,1/2+z
1/2-x,1/2-y,1/2+z
1/2+x,1/2-y,-z
1/2-x,1/2+y,-z
1/2-x,1/2-y,1/2-z
1/2+x,1/2+y,1/2-z
1/2-x,1/2+y,z
1/2+x,1/2-y,z
loop_
_atom_site_type_symbol
_atom_site_label
_atom_site_fract_x
_atom_site_fract_y
_atom_site_fract_z
Si Si1 0.652632 0.841649 0.353231
Si Si2 0.000000 0.000000 0.250000
Si Si3 0.682924 0.156986 0.437395
Si Si4 0.342836 0.363045 0.361530
Si Si5 0.453869 0.618093 0.347598
Si Si6 0.700862 0.629607 0.936036
Si Si7 0.790875 0.396615 0.237812
Si Si8 0.449462 0.830572 0.340764
O O1 0.639369 0.740795 0.373634
O O2 0.703320 0.897166 0.403875
O O3 0.719168 0.845603 0.298020
O O4 0.550225 0.878000 0.338532
O O5 0.933271 0.937239 0.289510
O O6 0.668062 0.118099 0.500000
O O7 0.770865 0.104422 0.409858
O O8 0.698172 0.263256 0.438160
O O9 0.591970 0.138283 0.400864
O O10 0.441563 0.412929 0.365867
O O11 0.298838 0.375608 0.299528
O O12 0.384129 0.591950 0.398282
O O13 0.452350 0.723212 0.333788
O O14 0.697424 0.589879 0.000000
O O15 0.800117 0.500000 0.250000
O O16 0.886323 0.365572 0.209605
#
# Coordination Sequence:
#
# PCOD8293986 Si02
#       8
#    16   4  16  16  16  16  16  16
#     4  10  20  34  58  83 117 159 203 244 305 366
#     4  12  28  36  62  88 118 162 216 254 304 380
#     4   8  15  32  58  87 116 150 204 253 298 366
#     4   9  20  35  55  87 116 156 195 251 311 361
#     4  10  23  38  58  87 123 160 205 254 311 372
#     4   9  19  37  58  84 119 160 204 252 302 364
#     4  11  23  36  59  87 122 159 201 250 305 374
#     4   9  20  37  57  88 124 163 196 252 318 366
#
# _framework density 22.804649999999999
#
# number of rings (size 3 to 8) (size 9 to 14) (size 15 to 20)
#    0.000    2.483    0.000    1.655    6.759    2.207 
#    0.000    5.862    0.000    6.621    0.000    4.828 
#    0.000    0.000    0.000    0.000    0.000    0.000 
#
# Total GULP energy -718928.184407 kJ/mol
# GULP energy per Si atom -12395.313524 kJ/mol
# Density = 2.275275 g / cm^3
# Si number density = 22.804650 Si / 1000 Ang^3
#
#
#
# Elastic Constant Matrix: (Units=GPa)
#
#
# Indices 1 2 3 4 5 6 
#
# 1 140.3134 21.0764 66.2499 0.0000 0.0000 0.0000
# 2 21.0764 22.5596 7.2263 0.0000 0.0000 0.0000
# 3 66.2499 7.2263 166.1558 0.0000 0.0000 0.0000
# 4 0.0000 0.0000 0.0000 16.7739 0.0000 0.0000
# 5 0.0000 0.0000 0.0000 0.0000 25.1654 0.0000
# 6 0.0000 0.0000 0.0000 0.0000 0.0000 19.4855
#
#
#
# Elastic Compliance Matrix: (Units=1/GPa)
#
#
# Indices 1 2 3 4 5 6 
#
# 1 0.010099 -0.008261 -0.003668 0.000000 0.000000 0.000000
# 2 -0.008261 0.051710 0.001045 0.000000 0.000000 0.000000
# 3 -0.003668 0.001045 0.007435 0.000000 0.000000 0.000000
# 4 0.000000 0.000000 0.000000 0.059617 0.000000 0.000000
# 5 0.000000 0.000000 0.000000 0.000000 0.039737 0.000000
# 6 0.000000 0.000000 0.000000 0.000000 0.000000 0.051320
#
#
# Mechanical properties :
#
#
# Convention : Reuss Voigt Hill
#
# Bulk Modulus (GPa) = 21.06248 57.57042 39.31645
# Shear Modulus (GPa) = 19.41663 27.91671 23.66667
#
# Velocity S-wave (km/s) = 2.92110 3.50261 3.22499
# Velocity P-wave (km/s) = 4.54238 6.45426 5.58080
#
# Compressibility (1/GPa) = 0.04747779
#
# Stress axis : x y z
#
# Youngs Moduli (GPa) = 99.01584 19.33867 134.49260
#
# Poissons Ratio (x) = 0.15975 0.49326
# Poissons Ratio (y) = 0.81793 -0.14051
# Poissons Ratio (z) = 0.36315 -0.02020
#
# Static dielectric constant tensor:
#      x y z
#    x 4.442330 0.000000 0.000000 
#    y 0.000000 3.764650 0.000000 
#    z 0.000000 0.000000 4.375080 
# 
# 
# High freq. dielectric constant tensor:
#      x y z
#    x 1.905450 0.000000 0.000000 
#    y 0.000000 1.877070 0.000000 
#    z 0.000000 0.000000 1.895210 
# 
# From -- ./inp_files/44516.got.cif
#   From: 2010.03.12/outbox.cif.g09.slc.cpg/sg72_23_cif.got.tgz:44516.got - 2010.04.16 14:54:00.
