data_PCOD8293161
_publ_section_title
;
Structure prediction by ZEFSAII (Michael W. Deem and Ramdas Pophale) SiO2 
 PCOD8293161
Probable space group: I B A M
;
_chemical_formula_sum "Si O2"
_cell_formula_units_Z 96
_cell_length_a 28.602053
_cell_length_b 10.308380
_cell_length_c 17.793872
_cell_angle_alpha 90.000000
_cell_angle_beta 90.000000
_cell_angle_gamma 90.000000
_cell_volume 5246.360009
_symmetry_space_group_name_H-M "I B A M"
_symmetry_group_IT_number 72
_symmetry_cell_setting 'orthorhombic'
loop_
_space_group_symop_operation_xyz
x,y,z
-x,-y,z
x,-y,1/2-z
-x,y,1/2-z
-x,-y,-z
x,y,-z
-x,y,1/2+z
x,-y,1/2+z
1/2+x,1/2+y,1/2+z
1/2-x,1/2-y,1/2+z
1/2+x,1/2-y,-z
1/2-x,1/2+y,-z
1/2-x,1/2-y,1/2-z
1/2+x,1/2+y,1/2-z
1/2-x,1/2+y,z
1/2+x,1/2-y,z
loop_
_atom_site_type_symbol
_atom_site_label
_atom_site_fract_x
_atom_site_fract_y
_atom_site_fract_z
Si Si1 0.616863 0.477965 0.665251
Si Si2 0.386484 0.739695 0.912710
Si Si3 0.780020 0.980870 0.339406
Si Si4 0.977218 0.627497 0.088087
Si Si5 0.220176 0.744965 0.411172
Si Si6 0.479850 0.363990 0.166986
O O1 0.630308 0.500000 0.750000
O O2 0.597199 0.610054 0.629563
O O3 0.667627 0.440780 0.631014
O O4 0.576804 0.368514 0.662333
O O5 0.422675 0.853876 0.888759
O O6 0.334209 0.781719 0.892029
O O7 0.391046 0.707428 0.000000
O O8 0.747152 0.865672 0.366540
O O9 0.775058 0.000000 0.250000
O O10 0.764852 0.114258 0.380298
O O11 0.000000 0.500000 0.126931
O O12 0.006853 0.751361 0.111091
O O13 0.981720 0.613326 0.000000
O O14 0.230443 0.737474 0.500000
O O15 0.500000 0.500000 0.137665
O O16 0.500000 0.335575 0.250000
#
# Coordination Sequence:
#
# PCOD8293161 Si02
#       6
#    16  16  16  16  16  16
#     4  10  18  33  54  82 108 137 174 224 268 313
#     4   9  18  33  55  75 103 144 178 212 269 328
#     4  10  21  36  58  81 112 142 182 229 278 325
#     4  10  21  36  52  75 109 143 177 217 265 321
#     4  10  20  37  58  80 108 145 185 227 276 328
#     4  11  19  33  57  81 108 137 177 220 262 316
#
# _framework density 18.298400999999998
#
# number of rings (size 3 to 8) (size 9 to 14) (size 15 to 20)
#    0.000    2.000    3.333    1.000    0.000    2.000 
#    3.000    0.000    0.000    0.000    0.000    0.000 
#    0.000    0.000    0.000    0.000    0.000    0.000 
#
# Total GULP energy -594884.823215 kJ/mol
# GULP energy per Si atom -12393.433817 kJ/mol
# Density = 1.825675 g / cm^3
# Si number density = 18.298401 Si / 1000 Ang^3
#
#
#
# Elastic Constant Matrix: (Units=GPa)
#
#
# Indices 1 2 3 4 5 6 
#
# 1 118.0882 57.9734 29.0166 0.0000 0.0000 0.0000
# 2 57.9734 74.2715 11.4215 0.0000 0.0000 0.0000
# 3 29.0166 11.4215 31.4772 0.0000 0.0000 0.0000
# 4 0.0000 0.0000 0.0000 40.7170 0.0000 0.0000
# 5 0.0000 0.0000 0.0000 0.0000 28.8802 0.0000
# 6 0.0000 0.0000 0.0000 0.0000 0.0000 0.3155
#
#
#
# Elastic Compliance Matrix: (Units=1/GPa)
#
#
# Indices 1 2 3 4 5 6 
#
# 1 0.016880 -0.011420 -0.011417 0.000000 0.000000 0.000000
# 2 -0.011420 0.021986 0.002550 0.000000 0.000000 0.000000
# 3 -0.011417 0.002550 0.041368 0.000000 0.000000 0.000000
# 4 0.000000 0.000000 0.000000 0.024560 0.000000 0.000000
# 5 0.000000 0.000000 0.000000 0.000000 0.034626 0.000000
# 6 0.000000 0.000000 0.000000 0.000000 0.000000 3.170047
#
#
# Mechanical properties :
#
#
# Convention : Reuss Voigt Hill
#
# Bulk Modulus (GPa) = 25.21428 46.73999 35.97714
# Shear Modulus (GPa) = 1.48665 22.34424 11.91544
#
# Velocity S-wave (km/s) = 0.90234 3.49822 2.55458
# Velocity P-wave (km/s) = 3.85941 6.47421 5.32965
#
# Compressibility (1/GPa) = 0.03966007
#
# Stress axis : x y z
#
# Youngs Moduli (GPa) = 59.24105 45.48302 24.17323
#
# Poissons Ratio (x) = 0.51943 0.27598
# Poissons Ratio (y) = 0.67655 -0.06164
# Poissons Ratio (z) = 0.67634 -0.11598
#
# Static dielectric constant tensor:
#      x y z
#    x 3.712910 0.000000 0.000000 
#    y 0.000000 3.398110 0.000000 
#    z 0.000000 0.000000 3.316280 
# 
# 
# High freq. dielectric constant tensor:
#      x y z
#    x 1.724850 0.000000 0.000000 
#    y 0.000000 1.690320 0.000000 
#    z 0.000000 0.000000 1.705500 
# 
# From -- ./inp_files/36068.got.cif
#   From: 2010.03.12/outbox.cif.g09.slc.cpg/sg72_19_cif.got.tgz:36068.got - 2010.04.16 14:54:00.
