data_PCOD8293049
_publ_section_title
;
Structure prediction by ZEFSAII (Michael W. Deem and Ramdas Pophale) SiO2 
 PCOD8293049
Probable space group: I B A M
;
_chemical_formula_sum "Si O2"
_cell_formula_units_Z 120
_cell_length_a 9.090357
_cell_length_b 28.108283
_cell_length_c 24.584718
_cell_angle_alpha 90.000000
_cell_angle_beta 90.000000
_cell_angle_gamma 90.000000
_cell_volume 6281.747677
_symmetry_space_group_name_H-M "I B A M"
_symmetry_group_IT_number 72
_symmetry_cell_setting 'orthorhombic'
loop_
_space_group_symop_operation_xyz
x,y,z
-x,-y,z
x,-y,1/2-z
-x,y,1/2-z
-x,-y,-z
x,y,-z
-x,y,1/2+z
x,-y,1/2+z
1/2+x,1/2+y,1/2+z
1/2-x,1/2-y,1/2+z
1/2+x,1/2-y,-z
1/2-x,1/2+y,-z
1/2-x,1/2-y,1/2-z
1/2+x,1/2+y,1/2-z
1/2-x,1/2+y,z
1/2+x,1/2-y,z
loop_
_atom_site_type_symbol
_atom_site_label
_atom_site_fract_x
_atom_site_fract_y
_atom_site_fract_z
Si Si1 0.187760 0.745714 0.377684
Si Si2 0.500000 0.500000 0.599727
Si Si3 0.785935 0.018278 0.694919
Si Si4 0.088025 0.457794 0.127801
Si Si5 0.098173 0.398148 0.699351
Si Si6 0.936091 0.290422 0.807749
Si Si7 0.056358 0.192151 0.564315
Si Si8 0.651009 0.588057 0.938968
O O1 0.295289 0.761189 0.328471
O O2 0.292534 0.720481 0.422023
O O3 0.069312 0.709644 0.351442
O O4 0.090364 0.787951 0.405339
O O5 0.629742 0.514833 0.638942
O O6 0.531185 0.454185 0.562413
O O7 0.751209 0.073699 0.705019
O O8 0.866603 0.000000 0.750000
O O9 0.645642 0.984302 0.682947
O O10 0.210715 0.430389 0.094288
O O11 0.000000 0.500000 0.094638
O O12 0.978556 0.415484 0.143947
O O13 0.129649 0.342688 0.698066
O O14 0.000000 0.412005 0.750000
O O15 0.000000 0.271112 0.750000
O O16 0.028139 0.196103 0.500000
O O17 0.080854 0.137325 0.583527
O O18 0.704129 0.597443 0.000000
#
# Coordination Sequence:
#
# PCOD8293049 Si02
#       8
#    16   8  16  16  16  16  16  16
#     4  10  21  38  59  83 115 145 188 238 288 348
#     4  10  22  34  52  76 110 144 186 220 262 332
#     4  10  18  31  51  75 110 140 170 220 266 310
#     4   9  18  31  51  78 105 142 179 219 266 319
#     4  10  18  30  53  78 106 138 177 216 267 323
#     4  10  21  35  56  82 114 151 184 225 279 344
#     4  10  21  38  62  85 111 145 190 244 300 344
#     4  10  21  37  55  76 108 148 185 228 279 330
#
# _framework density 19.102964
#
# number of rings (size 3 to 8) (size 9 to 14) (size 15 to 20)
#    0.000    2.133    1.333    2.000    1.867    0.267 
#    0.000    0.000    0.000    0.800    0.000    0.000 
#    0.000    0.000    0.000    0.000    0.000    0.000 
#
# Total GULP energy -743287.569637 kJ/mol
# GULP energy per Si atom -12388.126161 kJ/mol
# Density = 1.905948 g / cm^3
# Si number density = 19.102964 Si / 1000 Ang^3
#
#
#
# Elastic Constant Matrix: (Units=GPa)
#
#
# Indices 1 2 3 4 5 6 
#
# 1 81.2293 44.9862 22.9815 0.0000 0.0000 0.0000
# 2 44.9862 117.2534 34.4386 0.0000 0.0000 0.0000
# 3 22.9815 34.4386 74.3182 0.0001 0.0000 0.0000
# 4 0.0000 0.0000 0.0001 26.9290 0.0000 0.0000
# 5 0.0000 0.0000 0.0000 0.0000 26.1740 0.0000
# 6 0.0000 0.0000 0.0000 0.0000 0.0000 29.4704
#
#
#
# Elastic Compliance Matrix: (Units=1/GPa)
#
#
# Indices 1 2 3 4 5 6 
#
# 1 0.016004 -0.005425 -0.002435 0.000000 0.000000 0.000000
# 2 -0.005425 0.011711 -0.003749 0.000000 0.000000 0.000000
# 3 -0.002435 -0.003749 0.015946 0.000000 0.000000 0.000000
# 4 0.000000 0.000000 0.000000 0.037135 0.000000 0.000000
# 5 0.000000 0.000000 0.000000 0.000000 0.038206 0.000000
# 6 0.000000 0.000000 0.000000 0.000000 0.000000 0.033932
#
#
# Mechanical properties :
#
#
# Convention : Reuss Voigt Hill
#
# Bulk Modulus (GPa) = 48.91742 53.06816 50.99279
# Shear Modulus (GPa) = 27.32725 27.87431 27.60078
#
# Velocity S-wave (km/s) = 3.78633 3.82404 3.80523
# Velocity P-wave (km/s) = 6.69163 6.88027 6.78660
#
# Compressibility (1/GPa) = 0.02044262
#
# Stress axis : x y z
#
# Youngs Moduli (GPa) = 62.48334 85.38856 62.71146
#
# Poissons Ratio (x) = 0.46324 0.15271
# Poissons Ratio (y) = 0.33898 0.23512
# Poissons Ratio (z) = 0.15215 0.32015
#
# Static dielectric constant tensor:
#      x y z
#    x 3.559310 0.000000 0.000000 
#    y 0.000000 3.516550 0.000000 
#    z 0.000000 0.000000 3.379490 
# 
# 
# High freq. dielectric constant tensor:
#      x y z
#    x 1.741350 0.000000 0.000000 
#    y 0.000000 1.745080 0.000000 
#    z 0.000000 0.000000 1.733630 
# 
# From -- ./inp_files/47690.got.cif
#   From: 2010.03.12/outbox.cif.g09.slc.cpg/sg72_24_cif.got.tgz:47690.got - 2010.04.16 14:54:00.
