data_PCOD8293700
_publ_section_title
;
Structure prediction by ZEFSAII (Michael W. Deem and Ramdas Pophale) SiO2 
 PCOD8293700
Probable space group: I B A M
;
_chemical_formula_sum "Si O2"
_cell_formula_units_Z 96
_cell_length_a 17.482458
_cell_length_b 22.298569
_cell_length_c 14.463677
_cell_angle_alpha 90.000000
_cell_angle_beta 90.000000
_cell_angle_gamma 90.000000
_cell_volume 5638.430109
_symmetry_space_group_name_H-M "I B A M"
_symmetry_group_IT_number 72
_symmetry_cell_setting 'orthorhombic'
loop_
_space_group_symop_operation_xyz
x,y,z
-x,-y,z
x,-y,1/2-z
-x,y,1/2-z
-x,-y,-z
x,y,-z
-x,y,1/2+z
x,-y,1/2+z
1/2+x,1/2+y,1/2+z
1/2-x,1/2-y,1/2+z
1/2+x,1/2-y,-z
1/2-x,1/2+y,-z
1/2-x,1/2-y,1/2-z
1/2+x,1/2+y,1/2-z
1/2-x,1/2+y,z
1/2+x,1/2-y,z
loop_
_atom_site_type_symbol
_atom_site_label
_atom_site_fract_x
_atom_site_fract_y
_atom_site_fract_z
Si Si1 0.998804 0.747759 0.392492
Si Si2 0.873862 0.232136 0.252373
Si Si3 0.269080 0.847730 0.752817
Si Si4 0.835363 0.434540 0.392702
Si Si5 0.840523 0.428456 0.892718
Si Si6 0.996360 0.393431 0.605870
O O1 0.997824 0.766906 0.500000
O O2 0.920398 0.768366 0.343953
O O3 0.006589 0.677110 0.379116
O O4 0.070825 0.777451 0.340550
O O5 0.817076 0.176070 0.249689
O O6 0.828725 0.293969 0.264283
O O7 0.275522 0.892940 0.839130
O O8 0.282978 0.883793 0.658242
O O9 0.831650 0.416347 0.500000
O O10 0.813349 0.503607 0.376824
O O11 0.920298 0.422811 0.350566
O O12 0.925940 0.419892 0.850022
O O13 0.839222 0.410173 0.000000
O O14 0.997270 0.412750 0.500000
#
# Coordination Sequence:
#
# PCOD8293700 Si02
#       6
#    16  16  16  16  16  16
#     4  10  19  36  55  73 100 137 176 213 248 293
#     4  10  22  34  51  75 102 136 176 211 251 307
#     4  11  21  34  48  74 108 138 170 209 257 298
#     4  10  20  33  50  74 105 142 178 207 244 297
#     4  10  20  33  50  74 105 142 178 207 244 297
#     4   9  16  29  48  72 103 137 174 204 231 285
#
# _framework density 17.026015999999998
#
# number of rings (size 3 to 8) (size 9 to 14) (size 15 to 20)
#    0.000    2.000    3.333    1.000    0.000    4.000 
#    0.000    5.000    0.000    0.000    0.000    9.333 
#    0.000   16.000    0.000    0.000    0.000    0.000 
#
# Total GULP energy -595164.231324 kJ/mol
# GULP energy per Si atom -12399.254819 kJ/mol
# Density = 1.698726 g / cm^3
# Si number density = 17.026016 Si / 1000 Ang^3
#
#
#
# Elastic Constant Matrix: (Units=GPa)
#
#
# Indices 1 2 3 4 5 6 
#
# 1 60.5995 21.0992 11.0743 0.0000 0.0000 0.0000
# 2 21.0992 59.4030 11.5604 0.0000 0.0000 0.0000
# 3 11.0743 11.5604 72.7779 0.0000 0.0000 0.0000
# 4 0.0000 0.0000 0.0000 25.5726 0.0000 0.0000
# 5 0.0000 0.0000 0.0000 0.0000 21.8918 0.0000
# 6 0.0000 0.0000 0.0000 0.0000 0.0000 26.5572
#
#
#
# Elastic Compliance Matrix: (Units=1/GPa)
#
#
# Indices 1 2 3 4 5 6 
#
# 1 0.019078 -0.006409 -0.001885 0.000000 0.000000 0.000000
# 2 -0.006409 0.019524 -0.002126 0.000000 0.000000 0.000000
# 3 -0.001885 -0.002126 0.014365 0.000000 0.000000 0.000000
# 4 0.000000 0.000000 0.000000 0.039104 0.000000 0.000000
# 5 0.000000 0.000000 0.000000 0.000000 0.045679 0.000000
# 6 0.000000 0.000000 0.000000 0.000000 0.000000 0.037655
#
#
# Mechanical properties :
#
#
# Convention : Reuss Voigt Hill
#
# Bulk Modulus (GPa) = 31.12691 31.13869 31.13280
# Shear Modulus (GPa) = 24.15985 24.74075 24.45030
#
# Velocity S-wave (km/s) = 3.77104 3.81611 3.79364
# Velocity P-wave (km/s) = 6.10595 6.14374 6.12488
#
# Compressibility (1/GPa) = 0.03212655
#
# Stress axis : x y z
#
# Youngs Moduli (GPa) = 52.41691 51.21789 69.61385
#
# Poissons Ratio (x) = 0.32827 0.13122
# Poissons Ratio (y) = 0.33596 0.14800
# Poissons Ratio (z) = 0.09880 0.10889
#
# Static dielectric constant tensor:
#      x y z
#    x 3.087670 0.000000 0.000000 
#    y 0.000000 2.972970 0.000000 
#    z 0.000000 0.000000 3.292950 
# 
# 
# High freq. dielectric constant tensor:
#      x y z
#    x 1.633040 0.000000 0.000000 
#    y 0.000000 1.639170 0.000000 
#    z 0.000000 0.000000 1.666420 
# 
# From -- ./inp_files/21869.got.cif
#   From: 2010.03.12/outbox.cif.g09.slc.cpg/sg72_11_cif.got.tgz:21869.got - 2010.04.16 14:54:00.
