data_PCOD8293989
_publ_section_title
;
Structure prediction by ZEFSAII (Michael W. Deem and Ramdas Pophale) SiO2 
 PCOD8293989
Probable space group: I B A M
;
_chemical_formula_sum "Si O2"
_cell_formula_units_Z 88
_cell_length_a 14.053516
_cell_length_b 19.999325
_cell_length_c 14.882108
_cell_angle_alpha 90.000000
_cell_angle_beta 90.000000
_cell_angle_gamma 90.000000
_cell_volume 4182.777684
_symmetry_space_group_name_H-M "I B A M"
_symmetry_group_IT_number 72
_symmetry_cell_setting 'orthorhombic'
loop_
_space_group_symop_operation_xyz
x,y,z
-x,-y,z
x,-y,1/2-z
-x,y,1/2-z
-x,-y,-z
x,y,-z
-x,y,1/2+z
x,-y,1/2+z
1/2+x,1/2+y,1/2+z
1/2-x,1/2-y,1/2+z
1/2+x,1/2-y,-z
1/2-x,1/2+y,-z
1/2-x,1/2-y,1/2-z
1/2+x,1/2+y,1/2-z
1/2-x,1/2+y,z
1/2+x,1/2-y,z
loop_
_atom_site_type_symbol
_atom_site_label
_atom_site_fract_x
_atom_site_fract_y
_atom_site_fract_z
Si Si1 0.405944 0.242375 0.101345
Si Si2 0.574486 0.327607 0.100753
Si Si3 0.752598 0.500000 0.750000
Si Si4 0.894386 0.026348 0.395060
Si Si5 0.216470 0.723075 0.655113
Si Si6 0.108740 0.376754 0.260880
O O1 0.488694 0.286785 0.148930
O O2 0.313272 0.291138 0.100321
O O3 0.387064 0.174072 0.155271
O O4 0.435158 0.222485 0.000000
O O5 0.602707 0.398028 0.145130
O O6 0.665808 0.280927 0.099359
O O7 0.540176 0.344572 0.000000
O O8 0.684219 0.513752 0.836335
O O9 0.820945 0.561471 0.723709
O O10 0.864377 0.022124 0.500000
O O11 0.000000 0.000000 0.379176
O O12 0.250000 0.750000 0.750000
O O13 0.146196 0.660010 0.669642
O O14 0.000000 0.401682 0.250000
#
# Coordination Sequence:
#
# PCOD8293989 Si02
#       6
#    16  16   8  16  16  16
#     4  10  21  38  66  96 124 163 211 266 331 386
#     4  10  20  38  64  91 126 163 204 267 328 377
#     4  12  26  42  66  94 128 184 224 256 324 398
#     4  10  23  44  65  94 134 171 216 271 322 390
#     4  10  20  34  58  89 121 159 201 258 312 370
#     4  11  23  43  61  91 128 169 214 268 313 379
#
# _framework density 21.038651999999999
#
# number of rings (size 3 to 8) (size 9 to 14) (size 15 to 20)
#    0.000    1.636    1.818    3.273    2.545    2.182 
#    6.545    1.818    0.000    2.182    0.000    0.000 
#    0.000    0.000    0.000    0.000    0.000    0.000 
#
# Total GULP energy -545242.664634 kJ/mol
# GULP energy per Si atom -12391.878742 kJ/mol
# Density = 2.099077 g / cm^3
# Si number density = 21.038652 Si / 1000 Ang^3
#
#
#
# Elastic Constant Matrix: (Units=GPa)
#
#
# Indices 1 2 3 4 5 6 
#
# 1 147.3317 26.3984 32.4241 0.0000 0.0000 0.0000
# 2 26.3984 62.7496 22.7159 0.0003 0.0001 0.0000
# 3 32.4241 22.7159 75.0713 0.0006 -0.0001 0.0001
# 4 0.0000 0.0003 0.0006 26.2162 -0.0001 0.0000
# 5 0.0000 0.0001 -0.0001 -0.0001 26.3557 0.0000
# 6 0.0000 0.0000 0.0001 0.0000 0.0000 40.9063
#
#
#
# Elastic Compliance Matrix: (Units=1/GPa)
#
#
# Indices 1 2 3 4 5 6 
#
# 1 0.007788 -0.002312 -0.002664 0.000000 0.000000 0.000000
# 2 -0.002312 0.018583 -0.004625 0.000000 0.000000 0.000000
# 3 -0.002664 -0.004625 0.015871 0.000000 0.000000 0.000000
# 4 0.000000 0.000000 0.000000 0.038144 0.000000 0.000000
# 5 0.000000 0.000000 0.000000 0.000000 0.037942 0.000000
# 6 0.000000 0.000000 0.000000 0.000000 0.000000 0.024446
#
#
# Mechanical properties :
#
#
# Convention : Reuss Voigt Hill
#
# Bulk Modulus (GPa) = 43.40172 49.80326 46.60249
# Shear Modulus (GPa) = 29.47140 32.26991 30.87066
#
# Velocity S-wave (km/s) = 3.74682 3.92068 3.83473
# Velocity P-wave (km/s) = 6.27634 6.64976 6.46575
#
# Compressibility (1/GPa) = 0.02304056
#
# Stress axis : x y z
#
# Youngs Moduli (GPa) = 128.40333 53.81234 63.00931
#
# Poissons Ratio (x) = 0.12441 0.16787
# Poissons Ratio (y) = 0.29686 0.29139
# Poissons Ratio (z) = 0.34208 0.24886
#
# Static dielectric constant tensor:
#      x y z
#    x 4.060150 0.000000 0.000000 
#    y 0.000000 3.727320 0.000000 
#    z 0.000000 0.000000 3.831170 
# 
# 
# High freq. dielectric constant tensor:
#      x y z
#    x 1.847330 0.000000 0.000000 
#    y 0.000000 1.805180 0.000000 
#    z 0.000000 0.000000 1.808590 
# 
# From -- ./inp_files/21710.got.cif
#   From: 2010.03.12/outbox.cif.g09.slc.cpg/sg72_11_cif.got.tgz:21710.got - 2010.04.16 14:54:00.
