data_PCOD8293180
_publ_section_title
;
Structure prediction by ZEFSAII (Michael W. Deem and Ramdas Pophale) SiO2 
 PCOD8293180
Probable space group: I B A M
;
_chemical_formula_sum "Si O2"
_cell_formula_units_Z 96
_cell_length_a 16.847823
_cell_length_b 18.040071
_cell_length_c 18.238300
_cell_angle_alpha 90.000000
_cell_angle_beta 90.000000
_cell_angle_gamma 90.000000
_cell_volume 5543.274547
_symmetry_space_group_name_H-M "I B A M"
_symmetry_group_IT_number 72
_symmetry_cell_setting 'orthorhombic'
loop_
_space_group_symop_operation_xyz
x,y,z
-x,-y,z
x,-y,1/2-z
-x,y,1/2-z
-x,-y,-z
x,y,-z
-x,y,1/2+z
x,-y,1/2+z
1/2+x,1/2+y,1/2+z
1/2-x,1/2-y,1/2+z
1/2+x,1/2-y,-z
1/2-x,1/2+y,-z
1/2-x,1/2-y,1/2-z
1/2+x,1/2+y,1/2-z
1/2-x,1/2+y,z
1/2+x,1/2-y,z
loop_
_atom_site_type_symbol
_atom_site_label
_atom_site_fract_x
_atom_site_fract_y
_atom_site_fract_z
Si Si1 0.312545 0.668806 0.172435
Si Si2 0.416846 0.915753 0.725732
Si Si3 0.786718 0.330021 0.313862
Si Si4 0.776638 0.052193 0.081830
Si Si5 0.090688 0.025402 0.829471
Si Si6 0.175666 0.590016 0.915488
O O1 0.286081 0.676839 0.257069
O O2 0.327522 0.755135 0.153589
O O3 0.390137 0.614576 0.164673
O O4 0.244706 0.641817 0.116654
O O5 0.500000 0.879484 0.750000
O O6 0.350957 0.876790 0.772258
O O7 0.401236 0.904968 0.638076
O O8 0.415191 0.000000 0.750000
O O9 0.750821 0.372041 0.382586
O O10 0.857269 0.018829 0.113334
O O11 0.704944 0.994212 0.087672
O O12 0.798350 0.072881 0.000000
O O13 0.119856 0.000000 0.750000
O O14 0.000000 0.000000 0.842854
O O15 0.154729 0.612616 0.000000
#
# Coordination Sequence:
#
# PCOD8293180 Si02
#       6
#    16  16  16  16  16  16
#     4   9  19  32  55  78 102 140 179 220 270 312
#     4  10  19  33  53  76 107 141 178 219 268 319
#     4  10  18  34  52  77 105 137 181 224 263 318
#     4  10  19  32  54  78 102 138 180 221 270 318
#     4  10  19  34  54  79 111 142 180 225 265 322
#     4   9  18  33  54  77 102 137 179 222 264 318
#
# _framework density 17.318283999999998
#
# number of rings (size 3 to 8) (size 9 to 14) (size 15 to 20)
#    0.000    2.333    3.333    0.000    0.000    1.000 
#    3.000    2.500    0.000    0.000    0.000    0.000 
#    0.000    0.000    0.000    0.000    0.000    0.000 
#
# Total GULP energy -594668.792858 kJ/mol
# GULP energy per Si atom -12388.933185 kJ/mol
# Density = 1.727887 g / cm^3
# Si number density = 17.318284 Si / 1000 Ang^3
#
#
#
# Elastic Constant Matrix: (Units=GPa)
#
#
# Indices 1 2 3 4 5 6 
#
# 1 73.1348 20.5691 39.0254 0.0000 0.0000 0.0000
# 2 20.5691 81.9321 24.5852 0.0000 0.0000 0.0000
# 3 39.0254 24.5852 132.3331 0.0000 0.0000 0.0000
# 4 0.0000 0.0000 0.0000 14.3703 0.0000 0.0000
# 5 0.0000 0.0000 0.0000 0.0000 23.3503 0.0000
# 6 0.0000 0.0000 0.0000 0.0000 0.0000 15.2636
#
#
#
# Elastic Compliance Matrix: (Units=1/GPa)
#
#
# Indices 1 2 3 4 5 6 
#
# 1 0.016854 -0.002902 -0.004431 0.000000 0.000000 0.000000
# 2 -0.002902 0.013425 -0.001639 0.000000 0.000000 0.000000
# 3 -0.004431 -0.001639 0.009168 0.000000 0.000000 0.000000
# 4 0.000000 0.000000 0.000000 0.069588 0.000000 0.000000
# 5 0.000000 0.000000 0.000000 0.000000 0.042826 0.000000
# 6 0.000000 0.000000 0.000000 0.000000 0.000000 0.065515
#
#
# Mechanical properties :
#
#
# Convention : Reuss Voigt Hill
#
# Bulk Modulus (GPa) = 46.50161 50.63992 48.57076
# Shear Modulus (GPa) = 20.61962 24.14485 22.38224
#
# Velocity S-wave (km/s) = 3.45429 3.73793 3.59890
# Velocity P-wave (km/s) = 6.54362 6.92341 6.73619
#
# Compressibility (1/GPa) = 0.02150463
#
# Stress axis : x y z
#
# Youngs Moduli (GPa) = 59.33315 74.48605 109.07645
#
# Poissons Ratio (x) = 0.21612 0.48334
# Poissons Ratio (y) = 0.17216 0.17872
# Poissons Ratio (z) = 0.26292 0.12205
#
# Static dielectric constant tensor:
#      x y z
#    x 3.296870 0.000000 0.000000 
#    y 0.000000 3.328150 0.000000 
#    z 0.000000 0.000000 3.554610 
# 
# 
# High freq. dielectric constant tensor:
#      x y z
#    x 1.645410 0.000000 0.000000 
#    y 0.000000 1.668580 0.000000 
#    z 0.000000 0.000000 1.670480 
# 
# From -- ./inp_files/31652.got.cif
#   From: 2010.03.12/outbox.cif.g09.slc.cpg/sg72_16_cif.got.tgz:31652.got - 2010.04.16 14:54:00.
