data_PCOD8293182
_publ_section_title
;
Structure prediction by ZEFSAII (Michael W. Deem and Ramdas Pophale) SiO2 
 PCOD8293182
Probable space group: I B A M
;
_chemical_formula_sum "Si O2"
_cell_formula_units_Z 80
_cell_length_a 18.638288
_cell_length_b 9.717206
_cell_length_c 25.986662
_cell_angle_alpha 90.000000
_cell_angle_beta 90.000000
_cell_angle_gamma 90.000000
_cell_volume 4706.498511
_symmetry_space_group_name_H-M "I B A M"
_symmetry_group_IT_number 72
_symmetry_cell_setting 'orthorhombic'
loop_
_space_group_symop_operation_xyz
x,y,z
-x,-y,z
x,-y,1/2-z
-x,y,1/2-z
-x,-y,-z
x,y,-z
-x,y,1/2+z
x,-y,1/2+z
1/2+x,1/2+y,1/2+z
1/2-x,1/2-y,1/2+z
1/2+x,1/2-y,-z
1/2-x,1/2+y,-z
1/2-x,1/2-y,1/2-z
1/2+x,1/2+y,1/2-z
1/2-x,1/2+y,z
1/2+x,1/2-y,z
loop_
_atom_site_type_symbol
_atom_site_label
_atom_site_fract_x
_atom_site_fract_y
_atom_site_fract_z
Si Si1 0.226612 0.376216 0.715287
Si Si2 0.529676 0.141674 0.558437
Si Si3 0.936656 0.900612 0.058326
Si Si4 0.202000 0.027287 0.881079
Si Si5 0.826818 0.712215 0.384725
O O1 0.195945 0.500000 0.750000
O O2 0.250000 0.250000 0.750000
O O3 0.292869 0.435109 0.680094
O O4 0.164670 0.322529 0.676282
O O5 0.555888 0.118996 0.500000
O O6 0.463470 0.245115 0.560902
O O7 0.596224 0.201499 0.589682
O O8 0.500000 0.000000 0.582453
O O9 0.871120 0.911906 0.097040
O O10 0.913560 0.941126 0.000000
O O11 0.000000 0.000000 0.077305
O O12 0.269672 0.103249 0.909269
O O13 0.205700 0.864760 0.891559
#
# Coordination Sequence:
#
# PCOD8293182 Si02
#       5
#    16  16  16  16  16
#     4  10  18  34  56  81 109 142 182 229 285 325
#     4  10  22  38  57  81 116 153 182 219 276 338
#     4  10  20  36  57  79 113 154 179 215 278 337
#     4  10  21  34  57  86 107 146 187 233 269 329
#     4  10  21  35  57  86 107 146 186 234 270 325
#
# _framework density 16.997774
#
# number of rings (size 3 to 8) (size 9 to 14) (size 15 to 20)
#    1.200    0.800    4.000    0.000    2.800    0.800 
#    0.000    0.000    0.000    7.200    0.000    0.000 
#    0.000    0.000    0.000    0.000    0.000    0.000 
#
# Total GULP energy -495681.653219 kJ/mol
# GULP energy per Si atom -12392.041330 kJ/mol
# Density = 1.695909 g / cm^3
# Si number density = 16.997774 Si / 1000 Ang^3
#
#
#
# Elastic Constant Matrix: (Units=GPa)
#
#
# Indices 1 2 3 4 5 6 
#
# 1 68.9292 28.1508 38.1282 0.0000 0.0000 0.0000
# 2 28.1508 128.5255 24.9176 0.0000 0.0000 0.0000
# 3 38.1282 24.9176 68.0813 0.0000 0.0000 0.0000
# 4 0.0000 0.0000 0.0000 28.3765 0.0000 0.0000
# 5 0.0000 0.0000 0.0000 0.0000 -20.9457 0.0000
# 6 0.0000 0.0000 0.0000 0.0000 0.0000 27.7958
#
#
#
# Elastic Compliance Matrix: (Units=1/GPa)
#
#
# Indices 1 2 3 4 5 6 
#
# 1 0.021792 -0.002591 -0.011256 0.000000 0.000000 0.000000
# 2 -0.002591 0.008683 -0.001727 0.000000 0.000000 0.000000
# 3 -0.011256 -0.001727 0.021624 0.000000 0.000000 0.000000
# 4 0.000000 0.000000 0.000000 0.035240 0.000000 0.000000
# 5 0.000000 0.000000 0.000000 0.000000 -0.047743 0.000000
# 6 0.000000 0.000000 0.000000 0.000000 0.000000 0.035977
#
#
# Mechanical properties :
#
#
# Convention : Reuss Voigt Hill
#
# Bulk Modulus (GPa) = 47.72973 49.76993 48.74983
# Shear Modulus (GPa) = 43.97328 18.66795 31.32061
#
# Velocity S-wave (km/s) = 5.09178 3.31759 4.29724
# Velocity P-wave (km/s) = 7.91891 6.63469 7.30508
#
# Compressibility (1/GPa) = 0.02095130
#
# Stress axis : x y z
#
# Youngs Moduli (GPa) = 45.88819 115.16981 46.24428
#
# Poissons Ratio (x) = 0.29839 0.52053
# Poissons Ratio (y) = 0.11889 0.07986
# Poissons Ratio (z) = 0.51653 0.19889
#
# Static dielectric constant tensor:
#      x y z
#    x 2.859720 0.000000 0.000000 
#    y 0.000000 3.441880 0.000000 
#    z 0.000000 0.000000 3.157460 
# 
# 
# High freq. dielectric constant tensor:
#      x y z
#    x 1.627360 0.000000 0.000000 
#    y 0.000000 1.681730 0.000000 
#    z 0.000000 0.000000 1.642160 
# 
# From -- ./inp_files/52003.got.cif
#   From: 2010.03.12/outbox.cif.g09.slc.cpg/sg72_27_cif.got.tgz:52003.got - 2010.04.16 14:54:00.
