data_PCOD8293200
_publ_section_title
;
Structure prediction by ZEFSAII (Michael W. Deem and Ramdas Pophale) SiO2 
 PCOD8293200
Probable space group: I B A M
;
_chemical_formula_sum "Si O2"
_cell_formula_units_Z 112
_cell_length_a 12.262040
_cell_length_b 25.595849
_cell_length_c 18.658691
_cell_angle_alpha 90.000000
_cell_angle_beta 90.000000
_cell_angle_gamma 90.000000
_cell_volume 5856.166832
_symmetry_space_group_name_H-M "I B A M"
_symmetry_group_IT_number 72
_symmetry_cell_setting 'orthorhombic'
loop_
_space_group_symop_operation_xyz
x,y,z
-x,-y,z
x,-y,1/2-z
-x,y,1/2-z
-x,-y,-z
x,y,-z
-x,y,1/2+z
x,-y,1/2+z
1/2+x,1/2+y,1/2+z
1/2-x,1/2-y,1/2+z
1/2+x,1/2-y,-z
1/2-x,1/2+y,-z
1/2-x,1/2-y,1/2-z
1/2+x,1/2+y,1/2-z
1/2-x,1/2+y,z
1/2+x,1/2-y,z
loop_
_atom_site_type_symbol
_atom_site_label
_atom_site_fract_x
_atom_site_fract_y
_atom_site_fract_z
Si Si1 0.360618 0.392508 0.168978
Si Si2 0.466491 0.854464 0.418335
Si Si3 0.887528 0.111521 0.335968
Si Si4 0.746084 0.301357 0.082018
Si Si5 0.564122 0.954145 0.824231
Si Si6 0.704481 0.815829 0.415452
Si Si7 0.806120 0.994069 0.827033
O O1 0.485298 0.378358 0.152865
O O2 0.343527 0.389166 0.254311
O O3 0.287712 0.350209 0.129368
O O4 0.323138 0.449147 0.136246
O O5 0.471311 0.874068 0.500000
O O6 0.375582 0.809807 0.408452
O O7 0.430348 0.902466 0.370167
O O8 0.582186 0.831846 0.394111
O O9 0.822757 0.156718 0.374883
O O10 0.863362 0.053763 0.369857
O O11 0.719570 0.243622 0.109989
O O12 0.710101 0.307301 0.000000
O O13 0.500000 0.942941 0.750000
O O14 0.683012 0.977022 0.811605
O O15 0.500000 0.000000 0.866796
O O16 0.727568 0.822421 0.500000
O O17 0.866096 0.000000 0.750000
#
# Coordination Sequence:
#
# PCOD8293200 Si02
#       7
#    16  16  16  16  16  16  16
#     4  10  22  38  60  87 119 150 194 240 286 343
#     4  10  22  39  57  85 117 148 191 239 291 339
#     4  10  21  38  60  88 115 155 193 236 291 340
#     4  10  22  40  62  84 113 154 197 240 288 346
#     4  11  20  32  57  88 114 153 192 227 279 345
#     4  10  23  40  61  85 114 155 195 240 291 342
#     4  10  18  35  57  86 118 149 190 233 285 342
#
# _framework density 19.125138
#
# number of rings (size 3 to 8) (size 9 to 14) (size 15 to 20)
#    0.000    1.857    2.857    1.286    4.000    3.143 
#    0.000    1.429    0.000    1.714    0.000    0.000 
#    0.000    0.000    0.000    0.000    0.000    0.000 
#
# Total GULP energy -694112.648818 kJ/mol
# GULP energy per Si atom -12394.868729 kJ/mol
# Density = 1.908161 g / cm^3
# Si number density = 19.125138 Si / 1000 Ang^3
#
#
#
# Elastic Constant Matrix: (Units=GPa)
#
#
# Indices 1 2 3 4 5 6 
#
# 1 126.6168 65.3650 40.9224 0.0000 0.0000 0.0000
# 2 65.3650 172.6989 52.9812 0.0000 0.0000 0.0000
# 3 40.9224 52.9812 47.1803 -0.0001 0.0000 0.0000
# 4 0.0000 0.0000 -0.0001 31.2692 0.0000 0.0000
# 5 0.0000 0.0000 0.0000 0.0000 16.7951 0.0000
# 6 0.0000 0.0000 0.0000 0.0000 0.0000 26.7560
#
#
#
# Elastic Compliance Matrix: (Units=1/GPa)
#
#
# Indices 1 2 3 4 5 6 
#
# 1 0.011390 -0.001953 -0.007686 0.000000 0.000000 0.000000
# 2 -0.001953 0.009169 -0.008602 0.000000 0.000000 0.000000
# 3 -0.007686 -0.008602 0.037521 0.000000 0.000000 0.000000
# 4 0.000000 0.000000 0.000000 0.031980 0.000000 0.000000
# 5 0.000000 0.000000 0.000000 0.000000 0.059541 0.000000
# 6 0.000000 0.000000 0.000000 0.000000 0.000000 0.037375
#
#
# Mechanical properties :
#
#
# Convention : Reuss Voigt Hill
#
# Bulk Modulus (GPa) = 46.30061 73.89258 60.09659
# Shear Modulus (GPa) = 21.67707 27.44589 24.56148
#
# Velocity S-wave (km/s) = 3.37030 3.79234 3.58753
# Velocity P-wave (km/s) = 6.27751 7.60894 6.97507
#
# Compressibility (1/GPa) = 0.02159799
#
# Stress axis : x y z
#
# Youngs Moduli (GPa) = 87.79380 109.06856 26.65139
#
# Poissons Ratio (x) = 0.21302 0.20485
# Poissons Ratio (y) = 0.17147 0.22925
# Poissons Ratio (z) = 0.67481 0.93818
#
# Static dielectric constant tensor:
#      x y z
#    x 3.657220 0.000000 0.000000 
#    y 0.000000 3.708080 0.000000 
#    z 0.000000 0.000000 3.240630 
# 
# 
# High freq. dielectric constant tensor:
#      x y z
#    x 1.762130 0.000000 0.000000 
#    y 0.000000 1.758200 0.000000 
#    z 0.000000 0.000000 1.710550 
# 
# From -- ./inp_files/37325.got.cif
#   From: 2010.03.12/outbox.cif.g09.slc.cpg/sg72_19_cif.got.tgz:37325.got - 2010.04.16 14:54:00.
