data_PCOD8293067
_publ_section_title
;
Structure prediction by ZEFSAII (Michael W. Deem and Ramdas Pophale) SiO2 
 PCOD8293067
Probable space group: I B A M
;
_chemical_formula_sum "Si O2"
_cell_formula_units_Z 80
_cell_length_a 8.820382
_cell_length_b 29.490013
_cell_length_c 16.371866
_cell_angle_alpha 90.000000
_cell_angle_beta 90.000000
_cell_angle_gamma 90.000000
_cell_volume 4258.538125
_symmetry_space_group_name_H-M "I B A M"
_symmetry_group_IT_number 72
_symmetry_cell_setting 'orthorhombic'
loop_
_space_group_symop_operation_xyz
x,y,z
-x,-y,z
x,-y,1/2-z
-x,y,1/2-z
-x,-y,-z
x,y,-z
-x,y,1/2+z
x,-y,1/2+z
1/2+x,1/2+y,1/2+z
1/2-x,1/2-y,1/2+z
1/2+x,1/2-y,-z
1/2-x,1/2+y,-z
1/2-x,1/2-y,1/2-z
1/2+x,1/2+y,1/2-z
1/2-x,1/2+y,z
1/2+x,1/2-y,z
loop_
_atom_site_type_symbol
_atom_site_label
_atom_site_fract_x
_atom_site_fract_y
_atom_site_fract_z
Si Si1 0.178418 0.049130 0.261543
Si Si2 0.307905 0.209324 0.902832
Si Si3 0.347533 0.198874 0.596408
Si Si4 0.182308 0.109493 0.407133
Si Si5 0.390874 0.631778 0.172892
O O1 0.222838 0.065807 0.352313
O O2 0.219362 0.088691 0.195498
O O3 0.000000 0.042647 0.250000
O O4 0.259439 0.000000 0.250000
O O5 0.480574 0.204329 0.873740
O O6 0.252402 0.258678 0.873972
O O7 0.212246 0.173344 0.852185
O O8 0.287722 0.201835 0.000000
O O9 0.341115 0.197296 0.500000
O O10 0.275422 0.152343 0.629567
O O11 0.227487 0.098476 0.500000
O O12 0.002406 0.119956 0.402412
O O13 0.500000 0.643258 0.250000
#
# Coordination Sequence:
#
# PCOD8293067 Si02
#       5
#    16  16  16  16  16
#     4   8  16  32  49  69  99 125 152 200 249 283
#     4  10  18  31  49  70  98 131 162 196 236 283
#     4   9  18  30  49  73  97 125 161 200 236 276
#     4   9  16  30  51  73  94 125 164 199 234 281
#     4   9  18  31  47  70  99 129 159 198 240 282
#
# _framework density 18.785789999999999
#
# number of rings (size 3 to 8) (size 9 to 14) (size 15 to 20)
#    0.000    3.400    0.000    1.800    0.000    3.200 
#    0.000   22.000    0.000    2.400    0.000    4.200 
#    0.000    0.000    0.000    0.000    0.000    0.000 
#
# Total GULP energy -495586.110027 kJ/mol
# GULP energy per Si atom -12389.652751 kJ/mol
# Density = 1.874303 g / cm^3
# Si number density = 18.785790 Si / 1000 Ang^3
#
#
#
# Elastic Constant Matrix: (Units=GPa)
#
#
# Indices 1 2 3 4 5 6 
#
# 1 69.6254 52.3223 28.0125 0.0000 0.0001 0.0000
# 2 52.3223 175.5477 65.1188 -0.0001 0.0000 0.0000
# 3 28.0125 65.1188 63.3830 -0.0016 0.0002 0.0000
# 4 0.0000 -0.0001 -0.0016 27.8521 0.0000 0.0000
# 5 0.0001 0.0000 0.0002 0.0000 16.5264 -0.0001
# 6 0.0000 0.0000 0.0000 0.0000 -0.0001 11.0060
#
#
#
# Elastic Compliance Matrix: (Units=1/GPa)
#
#
# Indices 1 2 3 4 5 6 
#
# 1 0.019178 -0.004156 -0.004206 0.000000 0.000000 0.000000
# 2 -0.004156 0.010105 -0.008545 0.000000 0.000000 0.000000
# 3 -0.004206 -0.008545 0.026415 0.000001 0.000000 0.000000
# 4 0.000000 0.000000 0.000001 0.035904 0.000000 0.000000
# 5 0.000000 0.000000 0.000000 0.000000 0.060509 0.000000
# 6 0.000000 0.000000 0.000000 0.000000 0.000000 0.090859
#
#
# Mechanical properties :
#
#
# Convention : Reuss Voigt Hill
#
# Bulk Modulus (GPa) = 45.69568 66.60704 56.15136
# Shear Modulus (GPa) = 17.60079 21.95040 19.77559
#
# Velocity S-wave (km/s) = 3.06424 3.42198 3.24804
# Velocity P-wave (km/s) = 6.07427 7.15166 6.63487
#
# Compressibility (1/GPa) = 0.02188390
#
# Stress axis : x y z
#
# Youngs Moduli (GPa) = 52.14356 98.96341 37.85741
#
# Poissons Ratio (x) = 0.41126 0.15924
# Poissons Ratio (y) = 0.21669 0.32349
# Poissons Ratio (z) = 0.21933 0.84563
#
# Static dielectric constant tensor:
#      x y z
#    x 3.418760 0.000000 0.000000 
#    y 0.000000 4.106920 0.000000 
#    z 0.000000 0.000000 3.259860 
# 
# 
# High freq. dielectric constant tensor:
#      x y z
#    x 1.699530 0.000000 0.000000 
#    y 0.000000 1.734650 0.000000 
#    z 0.000000 0.000000 1.715130 
# 
# From -- ./inp_files/28139.got.cif
#   From: 2010.03.12/outbox.cif.g09.slc.cpg/sg72_15_cif.got.tgz:28139.got - 2010.04.16 14:54:00.
