data_PCOD8293981
_publ_section_title
;
Structure prediction by ZEFSAII (Michael W. Deem and Ramdas Pophale) SiO2 
 PCOD8293981
Probable space group: I B A M
;
_chemical_formula_sum "Si O2"
_cell_formula_units_Z 116
_cell_length_a 26.392776
_cell_length_b 23.381601
_cell_length_c 9.144446
_cell_angle_alpha 90.000000
_cell_angle_beta 90.000000
_cell_angle_gamma 90.000000
_cell_volume 5643.086620
_symmetry_space_group_name_H-M "I B A M"
_symmetry_group_IT_number 72
_symmetry_cell_setting 'orthorhombic'
loop_
_space_group_symop_operation_xyz
x,y,z
-x,-y,z
x,-y,1/2-z
-x,y,1/2-z
-x,-y,-z
x,y,-z
-x,y,1/2+z
x,-y,1/2+z
1/2+x,1/2+y,1/2+z
1/2-x,1/2-y,1/2+z
1/2+x,1/2-y,-z
1/2-x,1/2+y,-z
1/2-x,1/2-y,1/2-z
1/2+x,1/2+y,1/2-z
1/2-x,1/2+y,z
1/2+x,1/2-y,z
loop_
_atom_site_type_symbol
_atom_site_label
_atom_site_fract_x
_atom_site_fract_y
_atom_site_fract_z
Si Si1 0.000000 0.000000 0.250000
Si Si2 0.820969 0.775915 0.337229
Si Si3 0.161547 0.662717 0.673369
Si Si4 0.786563 0.557490 0.669764
Si Si5 0.561097 0.295409 0.338331
Si Si6 0.546629 0.184118 0.169899
Si Si7 0.315577 0.614135 0.833842
Si Si8 0.570537 0.597769 0.337709
O O1 0.038052 0.960490 0.343282
O O2 0.797899 0.766533 0.500000
O O3 0.812045 0.719633 0.238808
O O4 0.879394 0.790031 0.349733
O O5 0.796693 0.831810 0.262584
O O6 0.170949 0.661821 0.500000
O O7 0.184677 0.608537 0.751536
O O8 0.101649 0.659880 0.711340
O O9 0.803609 0.500000 0.750000
O O10 0.802612 0.555057 0.500000
O O11 0.726073 0.564764 0.687381
O O12 0.537024 0.287221 0.500000
O O13 0.541636 0.249582 0.222177
O O14 0.545980 0.357798 0.276696
O O15 0.500000 0.150284 0.250000
O O16 0.536366 0.180244 0.000000
O O17 0.370461 0.587641 0.791244
O O18 0.316411 0.636413 0.000000
O O19 0.569667 0.624549 0.500000
#
# Coordination Sequence:
#
# PCOD8293981 Si02
#       8
#     4  16  16  16  16  16  16  16
#     4  12  26  36  56  78 106 152 204 258 302 340
#     4   9  17  32  57  89 119 150 190 239 295 350
#     4  10  21  38  60  88 124 159 193 237 289 348
#     4  11  24  41  63  88 115 152 198 244 294 350
#     4   9  18  33  54  80 111 147 189 236 287 344
#     4  10  20  34  57  88 120 154 188 226 278 340
#     4   9  20  39  61  84 113 151 195 246 300 358
#     4  10  22  40  56  75 107 147 195 247 300 349
#
# _framework density 20.556127
#
# number of rings (size 3 to 8) (size 9 to 14) (size 15 to 20)
#    0.000    2.207    0.000    2.276    1.931    7.724 
#    0.000    0.000    0.000    0.414    0.000    2.897 
#    0.000    0.000    0.000    0.000    0.000    0.000 
#
# Total GULP energy -718900.789225 kJ/mol
# GULP energy per Si atom -12394.841194 kJ/mol
# Density = 2.050934 g / cm^3
# Si number density = 20.556127 Si / 1000 Ang^3
#
#
#
# Elastic Constant Matrix: (Units=GPa)
#
#
# Indices 1 2 3 4 5 6 
#
# 1 65.3412 35.3622 31.8560 0.0000 0.0000 0.0000
# 2 35.3622 116.8451 51.0420 0.0000 0.0000 0.0000
# 3 31.8560 51.0420 120.6411 0.0000 0.0000 0.0000
# 4 0.0000 0.0000 0.0000 31.7581 0.0000 0.0000
# 5 0.0000 0.0000 0.0000 0.0000 27.1929 0.0000
# 6 0.0000 0.0000 0.0000 0.0000 0.0000 22.2473
#
#
#
# Elastic Compliance Matrix: (Units=1/GPa)
#
#
# Indices 1 2 3 4 5 6 
#
# 1 0.019267 -0.004427 -0.003215 0.000000 0.000000 0.000000
# 2 -0.004427 0.011516 -0.003703 0.000000 0.000000 0.000000
# 3 -0.003215 -0.003703 0.010705 0.000000 0.000000 0.000000
# 4 0.000000 0.000000 0.000000 0.031488 0.000000 0.000000
# 5 0.000000 0.000000 0.000000 0.000000 0.036774 0.000000
# 6 0.000000 0.000000 0.000000 0.000000 0.000000 0.044949
#
#
# Mechanical properties :
#
#
# Convention : Reuss Voigt Hill
#
# Bulk Modulus (GPa) = 53.19646 59.92753 56.56200
# Shear Modulus (GPa) = 27.22496 28.54415 27.88455
#
# Velocity S-wave (km/s) = 3.64321 3.73043 3.68708
# Velocity P-wave (km/s) = 6.60546 6.91167 6.76030
#
# Compressibility (1/GPa) = 0.01879824
#
# Stress axis : x y z
#
# Youngs Moduli (GPa) = 51.90139 86.83728 93.41655
#
# Poissons Ratio (x) = 0.38441 0.30031
# Poissons Ratio (y) = 0.22976 0.34595
# Poissons Ratio (z) = 0.16685 0.32158
#
# Static dielectric constant tensor:
#      x y z
#    x 4.069340 0.000000 0.000000 
#    y 0.000000 3.407870 0.000000 
#    z 0.000000 0.000000 3.995310 
# 
# 
# High freq. dielectric constant tensor:
#      x y z
#    x 1.818030 0.000000 0.000000 
#    y 0.000000 1.767260 0.000000 
#    z 0.000000 0.000000 1.814100 
# 
# From -- ./inp_files/8407.got.cif
#   From: 2010.03.12/outbox.cif.g09.slc.cpg/sg72_5_cif.got.tgz:8407.got - 2010.04.16 14:54:00.
