data_PCOD8293845
_publ_section_title
;
Structure prediction by ZEFSAII (Michael W. Deem and Ramdas Pophale) SiO2 
 PCOD8293845
Probable space group: I B A M
;
_chemical_formula_sum "Si O2"
_cell_formula_units_Z 128
_cell_length_a 18.342867
_cell_length_b 21.798567
_cell_length_c 18.641481
_cell_angle_alpha 90.000000
_cell_angle_beta 90.000000
_cell_angle_gamma 90.000000
_cell_volume 7453.762908
_symmetry_space_group_name_H-M "I B A M"
_symmetry_group_IT_number 72
_symmetry_cell_setting 'orthorhombic'
loop_
_space_group_symop_operation_xyz
x,y,z
-x,-y,z
x,-y,1/2-z
-x,y,1/2-z
-x,-y,-z
x,y,-z
-x,y,1/2+z
x,-y,1/2+z
1/2+x,1/2+y,1/2+z
1/2-x,1/2-y,1/2+z
1/2+x,1/2-y,-z
1/2-x,1/2+y,-z
1/2-x,1/2-y,1/2-z
1/2+x,1/2+y,1/2-z
1/2-x,1/2+y,z
1/2+x,1/2-y,z
loop_
_atom_site_type_symbol
_atom_site_label
_atom_site_fract_x
_atom_site_fract_y
_atom_site_fract_z
Si Si1 0.919827 0.339092 0.169937
Si Si2 0.664052 0.256999 0.919556
Si Si3 0.086495 1.000000 0.831134
Si Si4 0.584422 0.380948 0.416689
Si Si5 0.080173 0.660908 0.669936
Si Si6 0.415578 0.619051 0.083311
Si Si7 1.000000 0.571510 0.416966
Si Si8 0.164052 0.243001 0.419556
O O1 0.893206 0.356645 0.250000
O O2 0.927386 0.400638 0.121203
O O3 0.863629 0.292879 0.135704
O O4 1.000000 0.307325 0.172836
O O5 0.636370 0.207122 0.864296
O O6 0.635819 0.323842 0.895179
O O7 0.750000 0.250000 0.917938
O O8 0.634245 0.244098 0.000000
O O9 0.113891 0.938936 0.871606
O O10 0.117054 0.000000 0.750000
O O11 0.113891 0.061063 0.871607
O O12 0.000000 0.000000 0.831973
O O13 0.592902 0.397786 0.500000
O O14 0.500000 0.365303 0.398584
O O15 0.635818 0.323841 0.395179
O O16 0.072614 0.599362 0.621202
O O17 0.407098 0.602214 0.000000
O O18 1.000000 0.589998 0.500000
O O19 0.000000 0.500000 0.404734
O O20 0.134245 0.255902 0.500000
#
# Coordination Sequence:
#
# PCOD8293845 Si02
#       8
#    16  16  16  16  16  16  16  16
#     4   9  19  32  50  76 104 133 166 207 256 305
#     4  10  20  33  51  75 103 136 174 213 251 296
#     4   9  17  29  47  73  99 123 156 203 248 297
#     4   9  17  30  50  73  97 128 163 204 250 294
#     4   9  19  32  50  76 104 133 166 207 256 305
#     4   9  17  30  50  73  97 128 163 204 250 294
#     4   9  17  31  55  81 103 130 167 214 259 299
#     4  10  20  33  51  75 103 136 174 213 251 296
#
# _framework density 17.172533999999999
#
# number of rings (size 3 to 8) (size 9 to 14) (size 15 to 20)
#    0.750    2.000    0.000    1.875    0.000    5.000 
#    0.000    2.500    2.750    0.000    0.000    0.000 
#    0.000    0.000    0.000    0.000    0.000    0.000 
#
# Total GULP energy -793152.725835 kJ/mol
# GULP energy per Si atom -12393.011341 kJ/mol
# Density = 1.713345 g / cm^3
# Si number density = 17.172534 Si / 1000 Ang^3
#
#
#
# Elastic Constant Matrix: (Units=GPa)
#
#
# Indices 1 2 3 4 5 6 
#
# 1 47.2629 39.6672 30.0410 0.0000 0.0000 0.0000
# 2 39.6672 131.5737 83.5832 0.0000 0.0000 0.0000
# 3 30.0410 83.5832 136.8546 0.0000 0.0000 0.0000
# 4 0.0000 0.0000 0.0000 11.6609 0.0000 0.0000
# 5 0.0000 0.0000 0.0000 0.0000 18.3332 0.0000
# 6 0.0000 0.0000 0.0000 0.0000 0.0000 4.5108
#
#
#
# Elastic Compliance Matrix: (Units=1/GPa)
#
#
# Indices 1 2 3 4 5 6 
#
# 1 0.028552 -0.007559 -0.001651 0.000000 0.000000 0.000000
# 2 -0.007559 0.014420 -0.007147 0.000000 0.000000 0.000000
# 3 -0.001651 -0.007147 0.012035 0.000000 0.000000 0.000000
# 4 0.000000 0.000000 0.000000 0.085757 0.000000 0.000000
# 5 0.000000 0.000000 0.000000 0.000000 0.054546 0.000000
# 6 0.000000 0.000000 0.000000 0.000000 0.000000 0.221688
#
#
# Mechanical properties :
#
#
# Convention : Reuss Voigt Hill
#
# Bulk Modulus (GPa) = 44.86021 69.14156 57.00089
# Shear Modulus (GPa) = 10.93752 17.72765 14.33259
#
# Velocity S-wave (km/s) = 2.52646 3.21647 2.89212
# Velocity P-wave (km/s) = 5.88988 7.35830 6.66465
#
# Compressibility (1/GPa) = 0.02229147
#
# Stress axis : x y z
#
# Youngs Moduli (GPa) = 35.02404 69.34915 83.09360
#
# Poissons Ratio (x) = 0.52423 0.13715
# Poissons Ratio (y) = 0.26476 0.59391
# Poissons Ratio (z) = 0.05781 0.49567
#
# Static dielectric constant tensor:
#      x y z
#    x 2.821350 0.000000 0.000000 
#    y 0.000000 3.111110 0.000000 
#    z 0.000000 0.000000 3.392330 
# 
# 
# High freq. dielectric constant tensor:
#      x y z
#    x 1.623370 0.000000 0.000000 
#    y 0.000000 1.658030 0.000000 
#    z 0.000000 0.000000 1.674310 
# 
# From -- ./inp_files/32912.got.cif
#   From: 2010.03.12/outbox.cif.g09.slc.cpg/sg72_17_cif.got.tgz:32912.got - 2010.04.16 14:54:00.
