data_PCOD8293262
_publ_section_title
;
Structure prediction by ZEFSAII (Michael W. Deem and Ramdas Pophale) SiO2 
 PCOD8293262
Probable space group: I B A M
;
_chemical_formula_sum "Si O2"
_cell_formula_units_Z 96
_cell_length_a 18.878931
_cell_length_b 31.788299
_cell_length_c 8.875645
_cell_angle_alpha 90.000000
_cell_angle_beta 90.000000
_cell_angle_gamma 90.000000
_cell_volume 5326.532876
_symmetry_space_group_name_H-M "I B A M"
_symmetry_group_IT_number 72
_symmetry_cell_setting 'orthorhombic'
loop_
_space_group_symop_operation_xyz
x,y,z
-x,-y,z
x,-y,1/2-z
-x,y,1/2-z
-x,-y,-z
x,y,-z
-x,y,1/2+z
x,-y,1/2+z
1/2+x,1/2+y,1/2+z
1/2-x,1/2-y,1/2+z
1/2+x,1/2-y,-z
1/2-x,1/2+y,-z
1/2-x,1/2-y,1/2-z
1/2+x,1/2+y,1/2-z
1/2-x,1/2+y,z
1/2+x,1/2-y,z
loop_
_atom_site_type_symbol
_atom_site_label
_atom_site_fract_x
_atom_site_fract_y
_atom_site_fract_z
Si Si1 0.072245 0.258399 0.176721
Si Si2 0.075325 0.413956 0.677326
Si Si3 0.652189 0.828766 0.827933
Si Si4 0.072148 0.836759 0.322674
Si Si5 0.286302 0.381856 0.323847
Si Si6 0.707739 0.043703 0.821115
O O1 0.136620 0.288332 0.225620
O O2 0.087694 0.210886 0.232104
O O3 0.000000 0.275502 0.250000
O O4 0.063254 0.260607 0.000000
O O5 0.073760 0.423312 0.500000
O O6 0.097320 0.366017 0.710545
O O7 0.131278 0.445043 0.753670
O O8 0.000000 0.423432 0.750000
O O9 0.731631 0.843935 0.792766
O O10 0.644325 0.814672 0.000000
O O11 0.062948 0.837830 0.500000
O O12 0.136505 0.866468 0.271773
O O13 0.000000 0.854238 0.250000
O O14 0.283109 0.394297 0.500000
O O15 0.266513 0.422025 0.224563
O O16 0.733273 0.000000 0.750000
O O17 0.702765 0.040515 0.000000
#
# Coordination Sequence:
#
# PCOD8293262 Si02
#       6
#    16  16  16  16  16  16
#     4  10  19  30  46  70 101 138 178 216 253 295
#     4  10  20  34  51  74 105 141 180 219 257 296
#     4   9  18  31  48  70 100 138 176 214 254 294
#     4   9  19  35  54  76 103 134 168 208 255 306
#     4   9  19  37  56  75 102 134 167 207 257 307
#     4  11  22  37  57  80 104 132 167 206 253 307
#
# _framework density 18.022981000000001
#
# number of rings (size 3 to 8) (size 9 to 14) (size 15 to 20)
#    0.000    2.333    0.000    4.000    0.000    7.000 
#    0.000    1.667    0.000    0.500    0.000    3.500 
#    0.000    0.000    0.000    0.000    0.000    0.000 
#
# Total GULP energy -595317.844200 kJ/mol
# GULP energy per Si atom -12402.455087 kJ/mol
# Density = 1.798196 g / cm^3
# Si number density = 18.022981 Si / 1000 Ang^3
#
#
#
# Elastic Constant Matrix: (Units=GPa)
#
#
# Indices 1 2 3 4 5 6 
#
# 1 122.8139 62.0893 44.5314 -0.0018 0.0018 0.0019
# 2 62.0893 84.3090 44.4884 0.0036 0.0002 0.0009
# 3 44.5314 44.4884 86.6851 0.0344 0.0015 0.0011
# 4 -0.0018 0.0036 0.0344 26.7425 -0.0008 -0.0002
# 5 0.0018 0.0002 0.0015 -0.0008 28.8622 0.0019
# 6 0.0019 0.0009 0.0011 -0.0002 0.0019 14.2008
#
#
#
# Elastic Compliance Matrix: (Units=1/GPa)
#
#
# Indices 1 2 3 4 5 6 
#
# 1 0.013352 -0.008521 -0.002486 0.000005 -0.000001 -0.000001
# 2 -0.008521 0.021705 -0.006762 0.000005 0.000001 0.000000
# 3 -0.002486 -0.006762 0.016283 -0.000020 -0.000001 -0.000001
# 4 0.000005 0.000005 -0.000020 0.037394 0.000001 0.000000
# 5 -0.000001 0.000001 -0.000001 0.000001 0.034647 -0.000005
# 6 -0.000001 0.000000 -0.000001 0.000000 -0.000005 0.070419
#
#
# Mechanical properties :
#
#
# Convention : Reuss Voigt Hill
#
# Bulk Modulus (GPa) = 63.28234 66.22513 64.75374
# Shear Modulus (GPa) = 21.31252 23.47434 22.39343
#
# Velocity S-wave (km/s) = 3.44251 3.61289 3.52873
# Velocity P-wave (km/s) = 7.14069 7.36400 7.25320
#
# Compressibility (1/GPa) = 0.01580220
#
# Stress axis : x y z
#
# Youngs Moduli (GPa) = 74.89742 46.07328 61.41279
#
# Poissons Ratio (x) = 0.39259 0.15266
# Poissons Ratio (y) = 0.63821 0.41526
# Poissons Ratio (z) = 0.18617 0.31154
#
# Static dielectric constant tensor:
#      x y z
#    x 3.290440 0.000000 -0.000020 
#    y 0.000000 3.262310 -0.000040 
#    z -0.000020 -0.000040 3.286790 
# 
# 
# High freq. dielectric constant tensor:
#      x y z
#    x 1.688840 0.000000 0.000000 
#    y 0.000000 1.686800 0.000000 
#    z 0.000000 0.000000 1.701440 
# 
# From -- ./inp_files/6033.got.cif
#   From: 2010.03.12/outbox.cif.g09.slc.cpg/sg72_4_cif.got.tgz:6033.got - 2010.04.16 14:54:00.
