data_PCOD8293173
_publ_section_title
;
Structure prediction by ZEFSAII (Michael W. Deem and Ramdas Pophale) SiO2 
 PCOD8293173
Probable space group: I B A M
;
_chemical_formula_sum "Si O2"
_cell_formula_units_Z 112
_cell_length_a 27.627663
_cell_length_b 13.042546
_cell_length_c 16.592815
_cell_angle_alpha 90.000000
_cell_angle_beta 90.000000
_cell_angle_gamma 90.000000
_cell_volume 5978.973081
_symmetry_space_group_name_H-M "I B A M"
_symmetry_group_IT_number 72
_symmetry_cell_setting 'orthorhombic'
loop_
_space_group_symop_operation_xyz
x,y,z
-x,-y,z
x,-y,1/2-z
-x,y,1/2-z
-x,-y,-z
x,y,-z
-x,y,1/2+z
x,-y,1/2+z
1/2+x,1/2+y,1/2+z
1/2-x,1/2-y,1/2+z
1/2+x,1/2-y,-z
1/2-x,1/2+y,-z
1/2-x,1/2-y,1/2-z
1/2+x,1/2+y,1/2-z
1/2-x,1/2+y,z
1/2+x,1/2-y,z
loop_
_atom_site_type_symbol
_atom_site_label
_atom_site_fract_x
_atom_site_fract_y
_atom_site_fract_z
Si Si1 0.273724 0.894439 0.790905
Si Si2 0.612647 0.151306 0.588095
Si Si3 0.123654 0.554576 0.662709
Si Si4 0.600202 0.380043 0.237715
Si Si5 0.930995 0.750211 0.094944
Si Si6 0.027761 0.254759 0.674887
Si Si7 0.187587 0.227022 0.322437
O O1 0.322748 0.898295 0.842151
O O2 0.228516 0.856854 0.846695
O O3 0.282784 0.818515 0.717242
O O4 0.258455 0.000000 0.750000
O O5 0.593333 0.177193 0.500000
O O6 0.569461 0.167503 0.650422
O O7 0.658716 0.225348 0.602338
O O8 0.625073 0.032009 0.594423
O O9 0.113772 0.500000 0.750000
O O10 0.085930 0.643867 0.638176
O O11 0.607595 0.500000 0.250000
O O12 0.591269 0.346755 0.144287
O O13 0.554145 0.349193 0.293788
O O14 0.649135 0.322741 0.261889
O O15 0.989391 0.761505 0.102619
O O16 0.916756 0.754261 0.000000
O O17 0.000000 0.306134 0.750000
#
# Coordination Sequence:
#
# PCOD8293173 Si02
#       7
#    16  16  16  16  16  16  16
#     4  10  18  33  62  86 107 142 203 236 278 332
#     4  11  21  36  56  85 120 154 185 234 298 352
#     4  11  19  37  59  84 114 152 196 236 287 354
#     4  10  20  38  60  83 110 149 201 239 287 351
#     4  11  22  37  56  87 120 148 189 249 300 342
#     4   9  20  37  58  83 113 153 196 239 284 352
#     4  10  19  35  59  83 111 149 191 241 279 344
#
# _framework density 18.732313000000001
#
# number of rings (size 3 to 8) (size 9 to 14) (size 15 to 20)
#    0.000    1.714    4.286    3.000    0.000    3.143 
#    0.000   10.000    0.000    0.000    0.000    0.000 
#    0.000    0.000    0.000    0.000    0.000    0.000 
#
# Total GULP energy -693808.939490 kJ/mol
# GULP energy per Si atom -12389.445348 kJ/mol
# Density = 1.868968 g / cm^3
# Si number density = 18.732313 Si / 1000 Ang^3
#
#
#
# Elastic Constant Matrix: (Units=GPa)
#
#
# Indices 1 2 3 4 5 6 
#
# 1 90.0311 36.9103 27.7113 0.0000 0.0000 0.0000
# 2 36.9103 111.3633 39.7904 0.0000 0.0000 0.0000
# 3 27.7113 39.7904 91.7712 0.0000 0.0000 0.0000
# 4 0.0000 0.0000 0.0000 16.4029 0.0000 0.0000
# 5 0.0000 0.0000 0.0000 0.0000 17.2327 0.0000
# 6 0.0000 0.0000 0.0000 0.0000 0.0000 25.3178
#
#
#
# Elastic Compliance Matrix: (Units=1/GPa)
#
#
# Indices 1 2 3 4 5 6 
#
# 1 0.013320 -0.003523 -0.002494 0.000000 0.000000 0.000000
# 2 -0.003523 0.011558 -0.003947 0.000000 0.000000 0.000000
# 3 -0.002494 -0.003947 0.013361 0.000000 0.000000 0.000000
# 4 0.000000 0.000000 0.000000 0.060965 0.000000 0.000000
# 5 0.000000 0.000000 0.000000 0.000000 0.058029 0.000000
# 6 0.000000 0.000000 0.000000 0.000000 0.000000 0.039498
#
#
# Mechanical properties :
#
#
# Convention : Reuss Voigt Hill
#
# Bulk Modulus (GPa) = 54.61915 55.77665 55.19790
# Shear Modulus (GPa) = 22.44531 24.37423 23.40977
#
# Velocity S-wave (km/s) = 3.46528 3.61111 3.53894
# Velocity P-wave (km/s) = 6.72546 6.87220 6.79923
#
# Compressibility (1/GPa) = 0.01830860
#
# Stress axis : x y z
#
# Youngs Moduli (GPa) = 75.07778 86.52155 74.84277
#
# Poissons Ratio (x) = 0.30485 0.18668
# Poissons Ratio (y) = 0.26453 0.29543
# Poissons Ratio (z) = 0.18727 0.34153
#
# Static dielectric constant tensor:
#      x y z
#    x 3.796480 0.000000 0.000000 
#    y 0.000000 3.577450 0.000000 
#    z 0.000000 0.000000 3.209890 
# 
# 
# High freq. dielectric constant tensor:
#      x y z
#    x 1.742650 0.000000 0.000000 
#    y 0.000000 1.724630 0.000000 
#    z 0.000000 0.000000 1.695540 
# 
# From -- ./inp_files/25970.got.cif
#   From: 2010.03.12/outbox.cif.g09.slc.cpg/sg72_13_cif.got.tgz:25970.got - 2010.04.16 14:54:00.
