data_PCOD8293344
_publ_section_title
;
Structure prediction by ZEFSAII (Michael W. Deem and Ramdas Pophale) SiO2 
 PCOD8293344
Probable space group: I B A M
;
_chemical_formula_sum "Si O2"
_cell_formula_units_Z 80
_cell_length_a 12.657179
_cell_length_b 23.130633
_cell_length_c 14.400700
_cell_angle_alpha 90.000000
_cell_angle_beta 90.000000
_cell_angle_gamma 90.000000
_cell_volume 4216.072235
_symmetry_space_group_name_H-M "I B A M"
_symmetry_group_IT_number 72
_symmetry_cell_setting 'orthorhombic'
loop_
_space_group_symop_operation_xyz
x,y,z
-x,-y,z
x,-y,1/2-z
-x,y,1/2-z
-x,-y,-z
x,y,-z
-x,y,1/2+z
x,-y,1/2+z
1/2+x,1/2+y,1/2+z
1/2-x,1/2-y,1/2+z
1/2+x,1/2-y,-z
1/2-x,1/2+y,-z
1/2-x,1/2-y,1/2-z
1/2+x,1/2+y,1/2-z
1/2-x,1/2+y,z
1/2+x,1/2-y,z
loop_
_atom_site_type_symbol
_atom_site_label
_atom_site_fract_x
_atom_site_fract_y
_atom_site_fract_z
Si Si1 0.379440 0.618225 0.396083
Si Si2 0.375459 0.181042 0.246998
Si Si3 0.726348 0.734573 0.109102
Si Si4 0.075163 0.051134 0.105779
Si Si5 0.240101 0.563574 0.245799
O O1 0.341698 0.604307 0.500000
O O2 0.359807 0.684836 0.371813
O O3 0.504891 0.609233 0.384425
O O4 0.312983 0.573201 0.335406
O O5 0.500000 0.188872 0.250000
O O6 0.321578 0.207981 0.155049
O O7 0.332884 0.213225 0.339482
O O8 0.348898 0.112859 0.242165
O O9 0.749480 0.745280 0.000000
O O10 0.183557 0.063671 0.157288
O O11 0.104642 0.036469 0.000000
O O12 0.000000 0.000000 0.146370
O O13 0.185766 0.500000 0.250000
#
# Coordination Sequence:
#
# PCOD8293344 Si02
#       5
#    16  16  16  16  16
#     4   9  18  32  53  82 113 146 184 233 291 346
#     4  10  23  40  58  86 117 149 195 244 287 350
#     4   9  20  40  63  84 111 150 193 241 293 346
#     4  10  19  31  51  83 116 145 186 236 287 343
#     4  11  21  33  54  79 113 156 191 231 284 339
#
# _framework density 18.975006
#
# number of rings (size 3 to 8) (size 9 to 14) (size 15 to 20)
#    0.000    2.200    2.000    0.600    0.000    6.800 
#    0.000    2.000    0.000    0.000    0.000    8.400 
#    0.000    0.000    0.000    0.000    0.000    0.000 
#
# Total GULP energy -495824.001239 kJ/mol
# GULP energy per Si atom -12395.600031 kJ/mol
# Density = 1.893182 g / cm^3
# Si number density = 18.975006 Si / 1000 Ang^3
#
#
#
# Elastic Constant Matrix: (Units=GPa)
#
#
# Indices 1 2 3 4 5 6 
#
# 1 105.0387 44.4594 38.9544 0.0000 0.0000 0.0000
# 2 44.4594 112.5192 41.5574 0.0002 0.0000 0.0000
# 3 38.9544 41.5574 107.8008 0.0003 0.0000 0.0000
# 4 0.0000 0.0002 0.0003 24.8468 0.0000 0.0000
# 5 0.0000 0.0000 0.0000 0.0000 18.8449 0.0000
# 6 0.0000 0.0000 0.0000 0.0000 0.0000 19.8500
#
#
#
# Elastic Compliance Matrix: (Units=1/GPa)
#
#
# Indices 1 2 3 4 5 6 
#
# 1 0.012198 -0.003722 -0.002973 0.000000 0.000000 0.000000
# 2 -0.003722 0.011498 -0.003088 0.000000 0.000000 0.000000
# 3 -0.002973 -0.003088 0.011541 0.000000 0.000000 0.000000
# 4 0.000000 0.000000 0.000000 0.040247 0.000000 0.000000
# 5 0.000000 0.000000 0.000000 0.000000 0.053065 0.000000
# 6 0.000000 0.000000 0.000000 0.000000 0.000000 0.050378
#
#
# Mechanical properties :
#
#
# Convention : Reuss Voigt Hill
#
# Bulk Modulus (GPa) = 63.80678 63.92234 63.86456
# Shear Modulus (GPa) = 24.54395 26.06752 25.30573
#
# Velocity S-wave (km/s) = 3.60041 3.71048 3.65586
# Velocity P-wave (km/s) = 7.14029 7.21925 7.17988
#
# Compressibility (1/GPa) = 0.01567231
#
# Stress axis : x y z
#
# Youngs Moduli (GPa) = 81.97929 86.96895 86.64706
#
# Poissons Ratio (x) = 0.32368 0.25761
# Poissons Ratio (y) = 0.30511 0.26755
# Poissons Ratio (z) = 0.24374 0.26854
#
# Static dielectric constant tensor:
#      x y z
#    x 3.178180 0.000000 0.000000 
#    y 0.000000 3.731980 0.000000 
#    z 0.000000 0.000000 3.566940 
# 
# 
# High freq. dielectric constant tensor:
#      x y z
#    x 1.703210 0.000000 0.000000 
#    y 0.000000 1.746250 0.000000 
#    z 0.000000 0.000000 1.745620 
# 
# From -- ./inp_files/20167.got.cif
#   From: 2010.03.12/outbox.cif.g09.slc.cpg/sg72_11_cif.got.tgz:20167.got - 2010.04.16 14:54:00.
