data_PCOD8293174
_publ_section_title
;
Structure prediction by ZEFSAII (Michael W. Deem and Ramdas Pophale) SiO2 
 PCOD8293174
Probable space group: I B A M
;
_chemical_formula_sum "Si O2"
_cell_formula_units_Z 96
_cell_length_a 26.070106
_cell_length_b 25.554382
_cell_length_c 10.088060
_cell_angle_alpha 90.000000
_cell_angle_beta 90.000000
_cell_angle_gamma 90.000000
_cell_volume 6720.720527
_symmetry_space_group_name_H-M "I B A M"
_symmetry_group_IT_number 72
_symmetry_cell_setting 'orthorhombic'
loop_
_space_group_symop_operation_xyz
x,y,z
-x,-y,z
x,-y,1/2-z
-x,y,1/2-z
-x,-y,-z
x,y,-z
-x,y,1/2+z
x,-y,1/2+z
1/2+x,1/2+y,1/2+z
1/2-x,1/2-y,1/2+z
1/2+x,1/2-y,-z
1/2-x,1/2+y,-z
1/2-x,1/2-y,1/2-z
1/2+x,1/2+y,1/2-z
1/2-x,1/2+y,z
1/2+x,1/2-y,z
loop_
_atom_site_type_symbol
_atom_site_label
_atom_site_fract_x
_atom_site_fract_y
_atom_site_fract_z
Si Si1 0.377375 0.743765 0.753518
Si Si2 0.561680 0.723862 0.000000
Si Si3 0.313849 0.351753 0.153564
Si Si4 0.944059 0.221852 0.500000
Si Si5 0.119244 0.060235 0.741288
Si Si6 0.279968 0.788671 0.154556
Si Si7 0.054269 0.098198 0.500000
Si Si8 0.063329 0.098896 0.000000
O O1 0.410230 0.751603 0.622198
O O2 0.344911 0.690214 0.741926
O O3 0.337686 0.791573 0.786132
O O4 0.417837 0.744022 0.870374
O O5 0.502653 0.740584 0.000000
O O6 0.564209 0.660613 0.000000
O O7 0.327971 0.408622 0.210690
O O8 0.252100 0.343153 0.163551
O O9 0.331749 0.346218 0.000000
O O10 0.937603 0.160494 0.500000
O O11 0.078160 0.071893 0.628419
O O12 0.134728 0.000000 0.750000
O O13 0.093486 0.077694 0.875596
O O14 0.250000 0.750000 0.250000
O O15 0.280980 0.769454 0.000000
O O16 0.995350 0.080425 0.500000
#
# Coordination Sequence:
#
# PCOD8293174 Si02
#       8
#    16   8  16   8  16  16   8   8
#     4  11  17  32  46  65  87 108 145 179 210 258
#     4  11  20  31  48  62  86 124 143 170 228 264
#     4  10  18  34  47  62  83 110 140 177 225 274
#     4  11  20  29  46  66  88 112 147 188 214 250
#     4  12  22  33  47  61  79 108 143 188 231 259
#     4   9  19  29  48  66  82 106 135 175 220 257
#     4  11  21  38  44  54  81 119 147 179 229 265
#     4  11  23  32  46  60  79 107 151 195 221 249
#
# _framework density 14.284183000000001
#
# number of rings (size 3 to 8) (size 9 to 14) (size 15 to 20)
#    0.000    1.333    5.833    1.500    1.167    4.667 
#    0.000    0.000    0.000    0.000    0.000    0.000 
#    0.000    0.000    0.000    0.000    0.000    5.000 
#
# Total GULP energy -594829.100916 kJ/mol
# GULP energy per Si atom -12392.272936 kJ/mol
# Density = 1.425167 g / cm^3
# Si number density = 14.284183 Si / 1000 Ang^3
#
#
#
# Elastic Constant Matrix: (Units=GPa)
#
#
# Indices 1 2 3 4 5 6 
#
# 1 125.0422 52.8365 59.9387 0.0000 0.0000 0.0000
# 2 52.8365 46.6104 29.1218 0.0000 0.0000 0.0000
# 3 59.9387 29.1218 121.1011 0.0000 0.0000 0.0000
# 4 0.0000 0.0000 0.0000 26.9289 0.0000 0.0000
# 5 0.0000 0.0000 0.0000 0.0000 29.5479 0.0000
# 6 0.0000 0.0000 0.0000 0.0000 0.0000 20.2375
#
#
#
# Elastic Compliance Matrix: (Units=1/GPa)
#
#
# Indices 1 2 3 4 5 6 
#
# 1 0.017211 -0.016696 -0.004504 0.000000 0.000000 0.000000
# 2 -0.016696 0.041445 -0.001703 0.000000 0.000000 0.000000
# 3 -0.004504 -0.001703 0.010896 0.000000 0.000000 0.000000
# 4 0.000000 0.000000 0.000000 0.037135 0.000000 0.000000
# 5 0.000000 0.000000 0.000000 0.000000 0.033843 0.000000
# 6 0.000000 0.000000 0.000000 0.000000 0.000000 0.049413
#
#
# Mechanical properties :
#
#
# Convention : Reuss Voigt Hill
#
# Bulk Modulus (GPa) = 42.11072 64.06084 53.08578
# Shear Modulus (GPa) = 20.52007 25.39997 22.96002
#
# Velocity S-wave (km/s) = 3.79431 4.22143 4.01356
# Velocity P-wave (km/s) = 6.98143 8.28887 7.66309
#
# Compressibility (1/GPa) = 0.02374692
#
# Stress axis : x y z
#
# Youngs Moduli (GPa) = 58.10214 24.12850 91.77659
#
# Poissons Ratio (x) = 0.40286 0.41332
# Poissons Ratio (y) = 0.97009 0.15626
# Poissons Ratio (z) = 0.26167 0.04108
#
# Static dielectric constant tensor:
#      x y z
#    x 3.179560 0.000000 0.000000 
#    y 0.000000 2.606730 0.000000 
#    z 0.000000 0.000000 2.881770 
# 
# 
# High freq. dielectric constant tensor:
#      x y z
#    x 1.548250 0.000000 0.000000 
#    y 0.000000 1.486790 0.000000 
#    z 0.000000 0.000000 1.570200 
# 
# From -- ./inp_files/8316.got.cif
#   From: 2010.03.12/outbox.cif.g09.slc.cpg/sg72_5_cif.got.tgz:8316.got - 2010.04.16 14:54:00.
