data_PCOD8293216
_publ_section_title
;
Structure prediction by ZEFSAII (Michael W. Deem and Ramdas Pophale) SiO2 
 PCOD8293216
Probable space group: I B A M
;
_chemical_formula_sum "Si O2"
_cell_formula_units_Z 88
_cell_length_a 10.999967
_cell_length_b 27.925942
_cell_length_c 13.815348
_cell_angle_alpha 90.000000
_cell_angle_beta 90.000000
_cell_angle_gamma 90.000000
_cell_volume 4243.859945
_symmetry_space_group_name_H-M "I B A M"
_symmetry_group_IT_number 72
_symmetry_cell_setting 'orthorhombic'
loop_
_space_group_symop_operation_xyz
x,y,z
-x,-y,z
x,-y,1/2-z
-x,y,1/2-z
-x,-y,-z
x,y,-z
-x,y,1/2+z
x,-y,1/2+z
1/2+x,1/2+y,1/2+z
1/2-x,1/2-y,1/2+z
1/2+x,1/2-y,-z
1/2-x,1/2+y,-z
1/2-x,1/2-y,1/2-z
1/2+x,1/2+y,1/2-z
1/2-x,1/2+y,z
1/2+x,1/2-y,z
loop_
_atom_site_type_symbol
_atom_site_label
_atom_site_fract_x
_atom_site_fract_y
_atom_site_fract_z
Si Si1 0.500000 0.196917 0.750000
Si Si2 0.703855 0.943990 0.752167
Si Si3 0.493030 0.943268 0.894424
Si Si4 0.358256 0.357275 0.257204
Si Si5 0.285366 0.215694 0.112080
Si Si6 0.190820 0.680276 0.391903
O O1 0.403882 0.226016 0.818830
O O2 0.576447 0.164041 0.824888
O O3 0.610407 0.927073 0.834966
O O4 0.636777 0.929165 0.652227
O O5 0.825982 0.913546 0.769338
O O6 0.737827 0.000000 0.750000
O O7 0.500000 0.000000 0.898487
O O8 0.498761 0.919480 0.000000
O O9 0.500000 0.349453 0.250000
O O10 0.295566 0.327246 0.343772
O O11 0.312763 0.341586 0.151418
O O12 0.199845 0.262140 0.112993
O O13 0.323818 0.204305 0.000000
O O14 0.170909 0.661536 0.500000
#
# Coordination Sequence:
#
# PCOD8293216 Si02
#       6
#     8  16  16  16  16  16
#     4  10  18  36  60  86 115 142 179 230 286 342
#     4   9  19  35  55  86 119 149 192 238 285 338
#     4   8  15  32  59  84 110 145 183 234 294 342
#     4  11  24  39  58  82 116 159 201 242 282 343
#     4  10  23  39  60  86 113 148 189 238 293 347
#     4  10  23  39  60  86 113 148 189 238 293 347
#
# _framework density 20.735838999999999
#
# number of rings (size 3 to 8) (size 9 to 14) (size 15 to 20)
#    0.000    2.364    0.000    3.818    5.091    8.364 
#    0.000    0.000    0.000    0.000    0.000    7.636 
#    0.000    0.000    0.000    0.000    0.000    0.000 
#
# Total GULP energy -545231.095208 kJ/mol
# GULP energy per Si atom -12391.615800 kJ/mol
# Density = 2.068864 g / cm^3
# Si number density = 20.735839 Si / 1000 Ang^3
#
#
#
# Elastic Constant Matrix: (Units=GPa)
#
#
# Indices 1 2 3 4 5 6 
#
# 1 128.0871 31.3784 58.9608 -0.0001 0.0000 0.0000
# 2 31.3784 76.5383 20.1161 -0.0001 0.0000 0.0000
# 3 58.9608 20.1161 186.6545 0.0000 -0.0002 0.0005
# 4 -0.0001 -0.0001 0.0000 11.8764 0.0000 0.0003
# 5 0.0000 0.0000 -0.0002 0.0000 20.8247 -0.0001
# 6 0.0000 0.0000 0.0005 0.0003 -0.0001 20.0522
#
#
#
# Elastic Compliance Matrix: (Units=1/GPa)
#
#
# Indices 1 2 3 4 5 6 
#
# 1 0.009897 -0.003330 -0.002767 0.000000 0.000000 0.000000
# 2 -0.003330 0.014567 -0.000518 0.000000 0.000000 0.000000
# 3 -0.002767 -0.000518 0.006287 0.000000 0.000000 0.000000
# 4 0.000000 0.000000 0.000000 0.084201 0.000000 -0.000001
# 5 0.000000 0.000000 0.000000 0.000000 0.048020 0.000000
# 6 0.000000 0.000000 0.000000 -0.000001 0.000000 0.049870
#
#
# Mechanical properties :
#
#
# Convention : Reuss Voigt Hill
#
# Bulk Modulus (GPa) = 57.07685 68.02117 62.54901
# Shear Modulus (GPa) = 21.55985 29.27229 25.41607
#
# Velocity S-wave (km/s) = 3.22800 3.76130 3.50481
# Velocity P-wave (km/s) = 6.44040 7.19292 6.82704
#
# Compressibility (1/GPa) = 0.01752024
#
# Stress axis : x y z
#
# Youngs Moduli (GPa) = 101.04243 68.64964 159.04654
#
# Poissons Ratio (x) = 0.22861 0.44014
# Poissons Ratio (y) = 0.33648 0.08238
# Poissons Ratio (z) = 0.27962 0.03556
#
# Static dielectric constant tensor:
#      x y z
#    x 3.580010 0.000000 0.000000 
#    y 0.000000 3.663250 0.000000 
#    z 0.000000 0.000000 4.711390 
# 
# 
# High freq. dielectric constant tensor:
#      x y z
#    x 1.788820 0.000000 0.000000 
#    y 0.000000 1.808990 0.000000 
#    z 0.000000 0.000000 1.822960 
# 
# From -- ./inp_files/20502.got.cif
#   From: 2010.03.12/outbox.cif.g09.slc.cpg/sg72_11_cif.got.tgz:20502.got - 2010.04.16 14:54:00.
