data_PCOD8293010
_publ_section_title
;
Structure prediction by ZEFSAII (Michael W. Deem and Ramdas Pophale) SiO2 
 PCOD8293010
Probable space group: I B A M
;
_chemical_formula_sum "Si O2"
_cell_formula_units_Z 64
_cell_length_a 28.088993
_cell_length_b 14.771829
_cell_length_c 8.596189
_cell_angle_alpha 90.000000
_cell_angle_beta 90.000000
_cell_angle_gamma 90.000000
_cell_volume 3566.780610
_symmetry_space_group_name_H-M "I B A M"
_symmetry_group_IT_number 72
_symmetry_cell_setting 'orthorhombic'
loop_
_space_group_symop_operation_xyz
x,y,z
-x,-y,z
x,-y,1/2-z
-x,y,1/2-z
-x,-y,-z
x,y,-z
-x,y,1/2+z
x,-y,1/2+z
1/2+x,1/2+y,1/2+z
1/2-x,1/2-y,1/2+z
1/2+x,1/2-y,-z
1/2-x,1/2+y,-z
1/2-x,1/2-y,1/2-z
1/2+x,1/2+y,1/2-z
1/2-x,1/2+y,z
1/2+x,1/2-y,z
loop_
_atom_site_type_symbol
_atom_site_label
_atom_site_fract_x
_atom_site_fract_y
_atom_site_fract_z
Si Si1 0.277871 0.595636 0.684747
Si Si2 0.050767 0.098210 0.314711
Si Si3 0.136929 0.781608 0.183592
Si Si4 0.825200 0.594807 0.683402
O O1 0.295610 0.500000 0.750000
O O2 0.274788 0.591368 0.500000
O O3 0.315616 0.669251 0.746535
O O4 0.226316 0.620368 0.750746
O O5 0.048810 0.093330 0.500000
O O6 0.089369 0.170688 0.251379
O O7 0.000000 0.130253 0.250000
O O8 0.064868 0.000000 0.250000
O O9 0.138705 0.675631 0.231832
O O10 0.136611 0.791803 0.000000
O O11 0.844848 0.500000 0.750000
O O12 0.820604 0.585442 0.500000
#
# Coordination Sequence:
#
# PCOD8293010 Si02
#       4
#    16  16  16  16
#     4  10  18  30  46  69  97 128 158 191 230 276
#     4  10  19  34  52  74  99 125 152 188 233 282
#     4   9  19  32  49  69  95 126 159 193 233 277
#     4  10  19  33  48  67  94 127 160 197 234 272
#
# _framework density 17.943351
#
# number of rings (size 3 to 8) (size 9 to 14) (size 15 to 20)
#    0.000    2.250    0.000    6.000    0.000    0.000 
#    0.000   12.500    0.000    0.750    0.000    5.250 
#    0.000    0.000    0.000    0.000    0.000    0.000 
#
# Total GULP energy -396712.028399 kJ/mol
# GULP energy per Si atom -12397.250887 kJ/mol
# Density = 1.790251 g / cm^3
# Si number density = 17.943351 Si / 1000 Ang^3
#
#
#
# Elastic Constant Matrix: (Units=GPa)
#
#
# Indices 1 2 3 4 5 6 
#
# 1 108.5353 93.9133 30.3829 0.0000 0.0000 0.0000
# 2 93.9133 155.9510 39.7230 0.0000 0.0000 0.0000
# 3 30.3829 39.7230 76.4165 0.0000 0.0000 0.0000
# 4 0.0000 0.0000 0.0000 24.5414 0.0000 0.0000
# 5 0.0000 0.0000 0.0000 0.0000 18.8074 0.0000
# 6 0.0000 0.0000 0.0000 0.0000 0.0000 35.0925
#
#
#
# Elastic Compliance Matrix: (Units=1/GPa)
#
#
# Indices 1 2 3 4 5 6 
#
# 1 0.019474 -0.011244 -0.001898 0.000000 0.000000 0.000000
# 2 -0.011244 0.013883 -0.002746 0.000000 0.000000 0.000000
# 3 -0.001898 -0.002746 0.015268 0.000000 0.000000 0.000000
# 4 0.000000 0.000000 0.000000 0.040747 0.000000 0.000000
# 5 0.000000 0.000000 0.000000 0.000000 0.053171 0.000000
# 6 0.000000 0.000000 0.000000 0.000000 0.000000 0.028496
#
#
# Mechanical properties :
#
#
# Convention : Reuss Voigt Hill
#
# Bulk Modulus (GPa) = 59.34975 74.32680 66.83828
# Shear Modulus (GPa) = 23.98880 27.48050 25.73465
#
# Velocity S-wave (km/s) = 3.66036 3.91770 3.79121
# Velocity P-wave (km/s) = 7.14229 7.87258 7.51631
#
# Compressibility (1/GPa) = 0.01684927
#
# Stress axis : x y z
#
# Youngs Moduli (GPa) = 51.35117 72.03260 65.49525
#
# Poissons Ratio (x) = 0.80991 0.12431
# Poissons Ratio (y) = 0.57737 0.17985
# Poissons Ratio (z) = 0.09747 0.19781
#
# Static dielectric constant tensor:
#      x y z
#    x 3.378170 0.000000 0.000000 
#    y 0.000000 3.564060 0.000000 
#    z 0.000000 0.000000 3.235180 
# 
# 
# High freq. dielectric constant tensor:
#      x y z
#    x 1.674410 0.000000 0.000000 
#    y 0.000000 1.699160 0.000000 
#    z 0.000000 0.000000 1.690720 
# 
# From -- ./inp_files/3771.got.cif
#   From: 2010.03.12/outbox.cif.g09.slc.cpg/sg72_2_cif.got.tgz:3771.got - 2010.04.16 14:54:00.
