data_PCOD8293245
_publ_section_title
;
Structure prediction by ZEFSAII (Michael W. Deem and Ramdas Pophale) SiO2 
 PCOD8293245
Probable space group: I B A M
;
_chemical_formula_sum "Si O2"
_cell_formula_units_Z 112
_cell_length_a 21.161635
_cell_length_b 17.530219
_cell_length_c 16.300651
_cell_angle_alpha 90.000000
_cell_angle_beta 90.000000
_cell_angle_gamma 90.000000
_cell_volume 6047.021464
_symmetry_space_group_name_H-M "I B A M"
_symmetry_group_IT_number 72
_symmetry_cell_setting 'orthorhombic'
loop_
_space_group_symop_operation_xyz
x,y,z
-x,-y,z
x,-y,1/2-z
-x,y,1/2-z
-x,-y,-z
x,y,-z
-x,y,1/2+z
x,-y,1/2+z
1/2+x,1/2+y,1/2+z
1/2-x,1/2-y,1/2+z
1/2+x,1/2-y,-z
1/2-x,1/2+y,-z
1/2-x,1/2-y,1/2-z
1/2+x,1/2+y,1/2-z
1/2-x,1/2+y,z
1/2+x,1/2-y,z
loop_
_atom_site_type_symbol
_atom_site_label
_atom_site_fract_x
_atom_site_fract_y
_atom_site_fract_z
Si Si1 0.321900 0.676427 0.595705
Si Si2 0.311851 0.787578 0.837850
Si Si3 0.279661 0.363467 0.406616
Si Si4 0.304601 0.479274 0.158283
Si Si5 0.175236 0.563786 0.591587
Si Si6 0.062280 0.456712 0.403499
Si Si7 0.144178 0.326042 0.657861
O O1 0.301924 0.672764 0.500000
O O2 0.264104 0.700993 0.655788
O O3 0.346326 0.592156 0.623656
O O4 0.371246 0.745345 0.611220
O O5 0.322372 0.698361 0.857587
O O6 0.342426 0.846195 0.903555
O O7 0.343589 0.809661 0.752586
O O8 0.280205 0.337454 0.500000
O O9 0.313333 0.445181 0.396373
O O10 0.206309 0.368213 0.378768
O O11 0.324805 0.500000 0.250000
O O12 0.231653 0.452639 0.155132
O O13 0.197785 0.542251 0.500000
O O14 0.115511 0.516924 0.618312
O O15 0.056062 0.438467 0.500000
O O16 0.081979 0.378927 0.356021
O O17 0.000000 0.500000 0.370158
#
# Coordination Sequence:
#
# PCOD8293245 Si02
#       7
#    16  16  16  16  16  16  16
#     4  10  19  30  44  66  94 128 164 198 243 306
#     4  10  19  29  44  65  91 121 162 200 247 300
#     4  11  18  28  46  68  93 127 166 201 244 306
#     4  11  19  28  44  68  99 126 162 197 246 298
#     4  10  19  32  46  61  89 126 160 203 252 296
#     4  10  21  35  51  69  90 125 173 215 253 301
#     4  11  19  31  47  65  93 126 161 210 260 299
#
# _framework density 18.521515000000001
#
# number of rings (size 3 to 8) (size 9 to 14) (size 15 to 20)
#    0.000    1.571    1.429    9.857    0.000    0.000 
#    0.000    1.429    0.000    0.000    0.000    0.000 
#    0.000    1.143    0.000   12.286    0.000    5.429 
#
# Total GULP energy -693801.712844 kJ/mol
# GULP energy per Si atom -12389.316301 kJ/mol
# Density = 1.847936 g / cm^3
# Si number density = 18.521515 Si / 1000 Ang^3
#
#
#
# Elastic Constant Matrix: (Units=GPa)
#
#
# Indices 1 2 3 4 5 6 
#
# 1 41.6679 36.8426 23.4844 0.0000 0.0000 0.0000
# 2 36.8426 173.8417 32.7404 0.0000 0.0000 0.0000
# 3 23.4844 32.7404 75.9438 0.0000 0.0000 0.0000
# 4 0.0000 0.0000 0.0000 32.7012 0.0000 0.0000
# 5 0.0000 0.0000 0.0000 0.0000 7.4414 0.0000
# 6 0.0000 0.0000 0.0000 0.0000 0.0000 26.8809
#
#
#
# Elastic Compliance Matrix: (Units=1/GPa)
#
#
# Indices 1 2 3 4 5 6 
#
# 1 0.033404 -0.005588 -0.007921 0.000000 0.000000 0.000000
# 2 -0.005588 0.007195 -0.001374 0.000000 0.000000 0.000000
# 3 -0.007921 -0.001374 0.016209 0.000000 0.000000 0.000000
# 4 0.000000 0.000000 0.000000 0.030580 0.000000 0.000000
# 5 0.000000 0.000000 0.000000 0.000000 0.134383 0.000000
# 6 0.000000 0.000000 0.000000 0.000000 0.000000 0.037201
#
#
# Mechanical properties :
#
#
# Convention : Reuss Voigt Hill
#
# Bulk Modulus (GPa) = 36.97707 53.06537 45.02122
# Shear Modulus (GPa) = 16.79247 26.63045 21.71146
#
# Velocity S-wave (km/s) = 3.01432 3.79596 3.42750
# Velocity P-wave (km/s) = 5.66768 6.92281 6.32645
#
# Compressibility (1/GPa) = 0.02704379
#
# Stress axis : x y z
#
# Youngs Moduli (GPa) = 29.93646 138.97845 61.69264
#
# Poissons Ratio (x) = 0.77656 0.48865
# Poissons Ratio (y) = 0.16727 0.08477
# Poissons Ratio (z) = 0.23712 0.19097
#
# Static dielectric constant tensor:
#      x y z
#    x 2.793890 0.000000 0.000000 
#    y 0.000000 4.133340 0.000000 
#    z 0.000000 0.000000 3.368860 
# 
# 
# High freq. dielectric constant tensor:
#      x y z
#    x 1.616320 0.000000 0.000000 
#    y 0.000000 1.753380 0.000000 
#    z 0.000000 0.000000 1.728170 
# 
# From -- ./inp_files/33506.got.cif
#   From: 2010.03.12/outbox.cif.g09.slc.cpg/sg72_17_cif.got.tgz:33506.got - 2010.04.16 14:54:00.
