data_PCOD8293597
_publ_section_title
;
Structure prediction by ZEFSAII (Michael W. Deem and Ramdas Pophale) SiO2 
 PCOD8293597
Probable space group: I B A M
;
_chemical_formula_sum "Si O2"
_cell_formula_units_Z 64
_cell_length_a 26.234140
_cell_length_b 5.138982
_cell_length_c 24.871821
_cell_angle_alpha 90.000000
_cell_angle_beta 90.000000
_cell_angle_gamma 90.000000
_cell_volume 3353.138652
_symmetry_space_group_name_H-M "I B A M"
_symmetry_group_IT_number 72
_symmetry_cell_setting 'orthorhombic'
loop_
_space_group_symop_operation_xyz
x,y,z
-x,-y,z
x,-y,1/2-z
-x,y,1/2-z
-x,-y,-z
x,y,-z
-x,y,1/2+z
x,-y,1/2+z
1/2+x,1/2+y,1/2+z
1/2-x,1/2-y,1/2+z
1/2+x,1/2-y,-z
1/2-x,1/2+y,-z
1/2-x,1/2-y,1/2-z
1/2+x,1/2+y,1/2-z
1/2-x,1/2+y,z
1/2+x,1/2-y,z
loop_
_atom_site_type_symbol
_atom_site_label
_atom_site_fract_x
_atom_site_fract_y
_atom_site_fract_z
Si Si1 0.720936 0.508003 0.436029
Si Si2 0.443287 0.753104 0.274087
Si Si3 0.444947 0.892268 0.397140
Si Si4 0.892954 0.105837 0.438065
O O1 0.722838 0.507683 0.500000
O O2 0.746597 0.248241 0.412706
O O3 0.662599 0.522396 0.416625
O O4 0.414724 0.500000 0.250000
O O5 0.500000 0.751921 0.250000
O O6 0.444799 0.769265 0.337920
O O7 0.413232 0.000000 0.250000
O O8 0.429722 0.645808 0.433748
O O9 0.500000 0.000000 0.414335
O O10 0.408215 0.141218 0.403231
O O11 0.891805 0.195556 0.500000
#
# Coordination Sequence:
#
# PCOD8293597 Si02
#       4
#    16  16  16  16
#     4   9  17  33  56  76 100 140 186 237 282 303
#     4  10  19  34  56  76  96 136 180 246 281 298
#     4  12  23  36  55  79 114 158 187 222 270 327
#     4  11  24  37  52  81 119 153 192 223 256 336
#
# _framework density 19.086594000000002
#
# number of rings (size 3 to 8) (size 9 to 14) (size 15 to 20)
#    0.000    1.500    2.500    4.500    3.500    7.000 
#    0.000    0.000    0.000    0.000    0.000    0.000 
#    0.000   70.000    0.000    0.000    0.000    0.000 
#
# Total GULP energy -396615.710840 kJ/mol
# GULP energy per Si atom -12394.240964 kJ/mol
# Density = 1.904315 g / cm^3
# Si number density = 19.086594 Si / 1000 Ang^3
#
#
#
# Elastic Constant Matrix: (Units=GPa)
#
#
# Indices 1 2 3 4 5 6 
#
# 1 77.3561 31.2683 28.5251 0.0000 0.0000 0.0000
# 2 31.2683 161.1849 22.3114 0.0000 0.0000 0.0000
# 3 28.5251 22.3114 53.6061 0.0000 0.0000 0.0000
# 4 0.0000 0.0000 0.0000 35.9907 0.0000 0.0000
# 5 0.0000 0.0000 0.0000 0.0000 0.2244 0.0000
# 6 0.0000 0.0000 0.0000 0.0000 0.0000 27.7563
#
#
#
# Elastic Compliance Matrix: (Units=1/GPa)
#
#
# Indices 1 2 3 4 5 6 
#
# 1 0.016750 -0.002139 -0.008023 0.000000 0.000000 0.000000
# 2 -0.002139 0.006856 -0.001716 0.000000 0.000000 0.000000
# 3 -0.008023 -0.001716 0.023638 0.000000 0.000000 0.000000
# 4 0.000000 0.000000 0.000000 0.027785 0.000000 0.000000
# 5 0.000000 0.000000 0.000000 0.000000 4.455340 0.000000
# 6 0.000000 0.000000 0.000000 0.000000 0.000000 0.036028
#
#
# Mechanical properties :
#
#
# Convention : Reuss Voigt Hill
#
# Bulk Modulus (GPa) = 42.57185 50.70631 46.63908
# Shear Modulus (GPa) = 1.08743 26.79712 13.94228
#
# Velocity S-wave (km/s) = 0.75563 3.75103 2.70566
# Velocity P-wave (km/s) = 4.80773 6.73680 5.85230
#
# Compressibility (1/GPa) = 0.02348970
#
# Stress axis : x y z
#
# Youngs Moduli (GPa) = 59.70062 145.84822 42.30501
#
# Poissons Ratio (x) = 0.31195 0.33941
# Poissons Ratio (y) = 0.12769 0.07258
# Poissons Ratio (z) = 0.47898 0.25022
#
# Static dielectric constant tensor:
#      x y z
#    x 3.360590 0.000000 0.000000 
#    y 0.000000 2.397910 0.000000 
#    z 0.000000 0.000000 3.198210 
# 
# 
# High freq. dielectric constant tensor:
#      x y z
#    x 1.709970 0.000000 0.000000 
#    y 0.000000 1.779720 0.000000 
#    z 0.000000 0.000000 1.705390 
# 
# From -- ./inp_files/34693.got.cif
#   From: 2010.03.12/outbox.cif.g09.slc.cpg/sg72_18_cif.got.tgz:34693.got - 2010.04.16 14:54:00.
