data_PCOD8293761
_publ_section_title
;
Structure prediction by ZEFSAII (Michael W. Deem and Ramdas Pophale) SiO2 
 PCOD8293761
Probable space group: I B A M
;
_chemical_formula_sum "Si O2"
_cell_formula_units_Z 88
_cell_length_a 19.350813
_cell_length_b 14.395635
_cell_length_c 15.299207
_cell_angle_alpha 90.000000
_cell_angle_beta 90.000000
_cell_angle_gamma 90.000000
_cell_volume 4261.857882
_symmetry_space_group_name_H-M "I B A M"
_symmetry_group_IT_number 72
_symmetry_cell_setting 'orthorhombic'
loop_
_space_group_symop_operation_xyz
x,y,z
-x,-y,z
x,-y,1/2-z
-x,y,1/2-z
-x,-y,-z
x,y,-z
-x,y,1/2+z
x,-y,1/2+z
1/2+x,1/2+y,1/2+z
1/2-x,1/2-y,1/2+z
1/2+x,1/2-y,-z
1/2-x,1/2+y,-z
1/2-x,1/2-y,1/2-z
1/2+x,1/2+y,1/2-z
1/2-x,1/2+y,z
1/2+x,1/2-y,z
loop_
_atom_site_type_symbol
_atom_site_label
_atom_site_fract_x
_atom_site_fract_y
_atom_site_fract_z
Si Si1 0.538377 0.916772 0.841982
Si Si2 0.863846 0.883232 0.901342
Si Si3 0.773992 0.146263 0.239514
Si Si4 0.497066 0.717800 0.146633
Si Si5 0.116628 0.092005 0.403102
Si Si6 0.663068 0.000000 0.750000
O O1 0.500000 0.906201 0.750000
O O2 0.527560 0.817156 0.888354
O O3 0.617617 0.948224 0.824921
O O4 0.500000 0.000000 0.895614
O O5 0.799591 0.882228 0.835606
O O6 0.918111 0.800183 0.882308
O O7 0.898331 0.983660 0.886271
O O8 0.835660 0.871474 0.000000
O O9 0.750000 0.250000 0.250000
O O10 0.833979 0.139028 0.168079
O O11 0.711376 0.079920 0.208429
O O12 0.500000 0.709823 0.250000
O O13 0.542251 0.639234 0.101479
O O14 0.148578 0.106877 0.500000
#
# Coordination Sequence:
#
# PCOD8293761 Si02
#       6
#    16  16  16  16  16   8
#     4   8  18  34  60  93 122 156 210 263 312 369
#     4  11  24  41  62  94 132 166 209 265 320 380
#     4  12  24  39  66  93 127 173 214 258 320 387
#     4  11  20  35  65  95 122 165 212 261 320 374
#     4  11  23  41  61  92 128 164 208 261 319 380
#     4  10  19  38  60  93 126 162 212 260 306 387
#
# _framework density 20.648271000000001
#
# number of rings (size 3 to 8) (size 9 to 14) (size 15 to 20)
#    0.000    1.636    3.636    2.182    5.091    2.909 
#    0.000    0.000    0.000    3.273    0.000    0.000 
#    0.000    0.000    0.000    0.000    0.000    0.000 
#
# Total GULP energy -545371.155595 kJ/mol
# GULP energy per Si atom -12394.798991 kJ/mol
# Density = 2.060127 g / cm^3
# Si number density = 20.648271 Si / 1000 Ang^3
#
#
#
# Elastic Constant Matrix: (Units=GPa)
#
#
# Indices 1 2 3 4 5 6 
#
# 1 93.3270 36.5980 22.0841 0.0000 0.0000 0.0000
# 2 36.5980 150.0442 28.3421 0.0000 0.0000 0.0000
# 3 22.0841 28.3421 102.2513 0.0000 0.0000 0.0000
# 4 0.0000 0.0000 0.0000 7.3575 0.0000 0.0000
# 5 0.0000 0.0000 0.0000 0.0000 2.8827 0.0000
# 6 0.0000 0.0000 0.0000 0.0000 0.0000 44.1802
#
#
#
# Elastic Compliance Matrix: (Units=1/GPa)
#
#
# Indices 1 2 3 4 5 6 
#
# 1 0.012191 -0.002613 -0.001909 0.000000 0.000000 0.000000
# 2 -0.002613 0.007593 -0.001540 0.000000 0.000000 0.000000
# 3 -0.001909 -0.001540 0.010619 0.000000 0.000000 0.000000
# 4 0.000000 0.000000 0.000000 0.135916 0.000000 0.000000
# 5 0.000000 0.000000 0.000000 0.000000 0.346897 0.000000
# 6 0.000000 0.000000 0.000000 0.000000 0.000000 0.022635
#
#
# Mechanical properties :
#
#
# Convention : Reuss Voigt Hill
#
# Bulk Modulus (GPa) = 54.70717 57.74121 56.22419
# Shear Modulus (GPa) = 9.02416 28.12396 18.57406
#
# Velocity S-wave (km/s) = 2.09282 3.69460 3.00250
# Velocity P-wave (km/s) = 5.69141 6.79890 6.26966
#
# Compressibility (1/GPa) = 0.01827914
#
# Stress axis : x y z
#
# Youngs Moduli (GPa) = 82.02487 131.69979 94.17065
#
# Poissons Ratio (x) = 0.34415 0.17975
# Poissons Ratio (y) = 0.21434 0.14505
# Poissons Ratio (z) = 0.15657 0.20285
#
# Static dielectric constant tensor:
#      x y z
#    x 3.741570 0.000000 0.000000 
#    y 0.000000 5.438070 0.000000 
#    z 0.000000 0.000000 3.344790 
# 
# 
# High freq. dielectric constant tensor:
#      x y z
#    x 1.800100 0.000000 0.000000 
#    y 0.000000 1.829930 0.000000 
#    z 0.000000 0.000000 1.779450 
# 
# From -- ./inp_files/24054.got.cif
#   From: 2010.03.12/outbox.cif.g09.slc.cpg/sg72_13_cif.got.tgz:24054.got - 2010.04.16 14:54:00.
