data_PCOD8293332
_publ_section_title
;
Structure prediction by ZEFSAII (Michael W. Deem and Ramdas Pophale) SiO2 
 PCOD8293332
Probable space group: I B A M
;
_chemical_formula_sum "Si O2"
_cell_formula_units_Z 112
_cell_length_a 11.241947
_cell_length_b 23.616387
_cell_length_c 22.813914
_cell_angle_alpha 90.000000
_cell_angle_beta 90.000000
_cell_angle_gamma 90.000000
_cell_volume 6056.961184
_symmetry_space_group_name_H-M "I B A M"
_symmetry_group_IT_number 72
_symmetry_cell_setting 'orthorhombic'
loop_
_space_group_symop_operation_xyz
x,y,z
-x,-y,z
x,-y,1/2-z
-x,y,1/2-z
-x,-y,-z
x,y,-z
-x,y,1/2+z
x,-y,1/2+z
1/2+x,1/2+y,1/2+z
1/2-x,1/2-y,1/2+z
1/2+x,1/2-y,-z
1/2-x,1/2+y,-z
1/2-x,1/2-y,1/2-z
1/2+x,1/2+y,1/2-z
1/2-x,1/2+y,z
1/2+x,1/2-y,z
loop_
_atom_site_type_symbol
_atom_site_label
_atom_site_fract_x
_atom_site_fract_y
_atom_site_fract_z
Si Si1 0.769826 0.978703 0.433219
Si Si2 0.632626 0.066687 0.757100
Si Si3 0.162311 0.173244 0.069632
Si Si4 0.307063 0.085222 0.134565
Si Si5 0.314145 0.197700 0.569235
Si Si6 0.588229 0.371306 0.568984
Si Si7 0.081665 0.593969 0.618808
O O1 0.787881 0.999823 0.500000
O O2 0.876785 0.935916 0.414274
O O3 0.645678 0.944055 0.430681
O O4 0.769533 0.032993 0.390915
O O5 0.500000 0.090685 0.750000
O O6 0.715079 0.092410 0.704855
O O7 0.665638 0.085081 0.823062
O O8 0.637898 0.000000 0.750000
O O9 0.271496 0.142059 0.101083
O O10 0.168494 0.238175 0.089825
O O11 0.040419 0.145638 0.094398
O O12 0.176896 0.167093 0.000000
O O13 0.447141 0.072224 0.125650
O O14 0.329395 0.192561 0.500000
O O15 0.186801 0.173687 0.591070
O O16 0.416634 0.159741 0.599728
O O17 0.581143 0.365243 0.500000
#
# Coordination Sequence:
#
# PCOD8293332 Si02
#       7
#    16  16  16  16  16  16  16
#     4  10  19  31  50  78 109 138 169 214 270 319
#     4   9  17  33  53  74 104 139 174 211 264 321
#     4  10  21  34  51  78 110 144 177 214 259 314
#     4  11  21  31  51  83 106 133 177 221 263 313
#     4   9  19  34  54  77 104 143 179 213 263 313
#     4   8  17  34  50  69 105 148 177 201 255 325
#     4  10  19  33  54  78 104 138 176 221 267 307
#
# _framework density 18.491122000000001
#
# number of rings (size 3 to 8) (size 9 to 14) (size 15 to 20)
#    0.000    2.429    1.429    2.143    2.000    3.429 
#    0.000    2.857    0.000    3.429    0.000    0.000 
#    0.000    0.000    0.000    0.000    0.000    0.000 
#
# Total GULP energy -694058.342598 kJ/mol
# GULP energy per Si atom -12393.898975 kJ/mol
# Density = 1.844903 g / cm^3
# Si number density = 18.491122 Si / 1000 Ang^3
#
#
#
# Elastic Constant Matrix: (Units=GPa)
#
#
# Indices 1 2 3 4 5 6 
#
# 1 44.0409 16.2678 20.4947 0.0000 0.0000 0.0000
# 2 16.2678 113.1962 43.0726 0.0000 0.0000 0.0000
# 3 20.4947 43.0726 70.5436 0.0000 0.0000 0.0000
# 4 0.0000 0.0000 0.0000 20.1674 0.0000 0.0000
# 5 0.0000 0.0000 0.0000 0.0000 16.4873 0.0000
# 6 0.0000 0.0000 0.0000 0.0000 0.0000 24.3977
#
#
#
# Elastic Compliance Matrix: (Units=1/GPa)
#
#
# Indices 1 2 3 4 5 6 
#
# 1 0.026368 -0.001139 -0.006965 0.000000 0.000000 0.000000
# 2 -0.001139 0.011557 -0.006726 0.000000 0.000000 0.000000
# 3 -0.006965 -0.006726 0.020306 0.000000 0.000000 0.000000
# 4 0.000000 0.000000 0.000000 0.049585 0.000000 0.000000
# 5 0.000000 0.000000 0.000000 0.000000 0.060653 0.000000
# 6 0.000000 0.000000 0.000000 0.000000 0.000000 0.040987
#
#
# Mechanical properties :
#
#
# Convention : Reuss Voigt Hill
#
# Bulk Modulus (GPa) = 35.00013 43.05009 39.02511
# Shear Modulus (GPa) = 20.10942 22.07351 21.09146
#
# Velocity S-wave (km/s) = 3.30133 3.45880 3.38098
# Velocity P-wave (km/s) = 5.78799 6.26762 6.03258
#
# Compressibility (1/GPa) = 0.02857132
#
# Stress axis : x y z
#
# Youngs Moduli (GPa) = 37.92449 86.52683 49.24728
#
# Poissons Ratio (x) = 0.09857 0.34301
# Poissons Ratio (y) = 0.04320 0.33122
# Poissons Ratio (z) = 0.26415 0.58194
#
# Static dielectric constant tensor:
#      x y z
#    x 3.370230 0.000000 0.000000 
#    y 0.000000 3.402150 0.000000 
#    z 0.000000 0.000000 3.450720 
# 
# 
# High freq. dielectric constant tensor:
#      x y z
#    x 1.695500 0.000000 0.000000 
#    y 0.000000 1.714670 0.000000 
#    z 0.000000 0.000000 1.696100 
# 
# From -- ./inp_files/43614.got.cif
#   From: 2010.03.12/outbox.cif.g09.slc.cpg/sg72_22_cif.got.tgz:43614.got - 2010.04.16 14:54:00.
