data_PCOD8293871
_publ_section_title
;
Structure prediction by ZEFSAII (Michael W. Deem and Ramdas Pophale) SiO2 
 PCOD8293871
Probable space group: I B A M
;
_chemical_formula_sum "Si O2"
_cell_formula_units_Z 80
_cell_length_a 25.672786
_cell_length_b 19.606420
_cell_length_c 8.652529
_cell_angle_alpha 90.000000
_cell_angle_beta 90.000000
_cell_angle_gamma 90.000000
_cell_volume 4355.262801
_symmetry_space_group_name_H-M "I B A M"
_symmetry_group_IT_number 72
_symmetry_cell_setting 'orthorhombic'
loop_
_space_group_symop_operation_xyz
x,y,z
-x,-y,z
x,-y,1/2-z
-x,y,1/2-z
-x,-y,-z
x,y,-z
-x,y,1/2+z
x,-y,1/2+z
1/2+x,1/2+y,1/2+z
1/2-x,1/2-y,1/2+z
1/2+x,1/2-y,-z
1/2-x,1/2+y,-z
1/2-x,1/2-y,1/2-z
1/2+x,1/2+y,1/2-z
1/2-x,1/2+y,z
1/2+x,1/2-y,z
loop_
_atom_site_type_symbol
_atom_site_label
_atom_site_fract_x
_atom_site_fract_y
_atom_site_fract_z
Si Si1 0.863396 0.575246 0.319481
Si Si2 0.055388 0.823665 0.816625
Si Si3 0.444839 0.177719 0.682410
Si Si4 0.145152 0.924661 0.181996
Si Si5 0.251630 0.573745 0.821646
O O1 0.867214 0.500000 0.250000
O O2 0.878346 0.572711 0.500000
O O3 0.902047 0.622498 0.225401
O O4 0.805218 0.607801 0.298063
O O5 0.071767 0.750039 0.753002
O O6 0.097982 0.877856 0.758909
O O7 0.000000 0.847409 0.750000
O O8 0.051980 0.819563 0.000000
O O9 0.500000 0.153281 0.750000
O O10 0.449738 0.184856 0.500000
O O11 0.199736 0.889320 0.237037
O O12 0.138343 0.000000 0.250000
O O13 0.145044 0.929700 0.000000
O O14 0.246857 0.500000 0.750000
O O15 0.266256 0.567673 0.000000
#
# Coordination Sequence:
#
# PCOD8293871 Si02
#       5
#    16  16  16  16  16
#     4  10  20  35  55  81 109 137 173 215 256 305
#     4  10  21  37  55  76 103 138 175 215 261 310
#     4  11  22  37  57  78 103 138 174 213 261 312
#     4  10  20  33  53  79 107 137 173 215 258 306
#     4   9  17  30  51  76 105 138 170 208 256 305
#
# _framework density 18.368582
#
# number of rings (size 3 to 8) (size 9 to 14) (size 15 to 20)
#    0.000    2.000    0.000    6.600    0.000    6.400 
#    0.000    5.000    0.000    0.000    0.000    0.000 
#    0.000    0.000    0.000    0.000    0.000    0.000 
#
# Total GULP energy -495846.608745 kJ/mol
# GULP energy per Si atom -12396.165219 kJ/mol
# Density = 1.832677 g / cm^3
# Si number density = 18.368582 Si / 1000 Ang^3
#
#
#
# Elastic Constant Matrix: (Units=GPa)
#
#
# Indices 1 2 3 4 5 6 
#
# 1 143.5688 70.2447 42.6184 0.0000 0.0000 0.0000
# 2 70.2447 71.0587 26.2629 0.0000 0.0000 0.0000
# 3 42.6184 26.2629 89.9484 0.0000 0.0000 0.0000
# 4 0.0000 0.0000 0.0000 27.7330 0.0000 0.0000
# 5 0.0000 0.0000 0.0000 0.0000 28.8122 0.0000
# 6 0.0000 0.0000 0.0000 0.0000 0.0000 -3.1548
#
#
#
# Elastic Compliance Matrix: (Units=1/GPa)
#
#
# Indices 1 2 3 4 5 6 
#
# 1 0.014150 -0.012902 -0.002937 0.000000 0.000000 0.000000
# 2 -0.012902 0.027540 -0.001928 0.000000 0.000000 0.000000
# 3 -0.002937 -0.001928 0.013072 0.000000 0.000000 0.000000
# 4 0.000000 0.000000 0.000000 0.036058 0.000000 0.000000
# 5 0.000000 0.000000 0.000000 0.000000 0.034708 0.000000
# 6 0.000000 0.000000 0.000000 0.000000 0.000000 -0.316978
#
#
# Mechanical properties :
#
#
# Convention : Reuss Voigt Hill
#
# Bulk Modulus (GPa) = 52.00945 64.75864 58.38405
# Shear Modulus (GPa) = -33.44339 21.70808 -5.86765
#
# Velocity S-wave (km/s) = -4.27158 3.44147 -1.78923
# Velocity P-wave (km/s) = 2.01180 7.15005 5.25217
#
# Compressibility (1/GPa) = 0.01922728
#
# Stress axis : x y z
#
# Youngs Moduli (GPa) = 70.67135 36.31093 76.49919
#
# Poissons Ratio (x) = 0.46850 0.22469
# Poissons Ratio (y) = 0.91183 0.14748
# Poissons Ratio (z) = 0.20758 0.07000
#
# Static dielectric constant tensor:
#      x y z
#    x 4.051430 0.000000 0.000000 
#    y 0.000000 3.186740 0.000000 
#    z 0.000000 0.000000 3.556570 
# 
# 
# High freq. dielectric constant tensor:
#      x y z
#    x 1.731720 0.000000 0.000000 
#    y 0.000000 1.680180 0.000000 
#    z 0.000000 0.000000 1.733580 
# 
# From -- ./inp_files/4742.got.cif
#   From: 2010.03.12/outbox.cif.g09.slc.cpg/sg72_3_cif.got.tgz:4742.got - 2010.04.16 14:54:00.
