data_PCOD8293937
_publ_section_title
;
Structure prediction by ZEFSAII (Michael W. Deem and Ramdas Pophale) SiO2 
 PCOD8293937
Probable space group: I B A M
;
_chemical_formula_sum "Si O2"
_cell_formula_units_Z 112
_cell_length_a 26.831746
_cell_length_b 13.029040
_cell_length_c 15.406209
_cell_angle_alpha 90.000000
_cell_angle_beta 90.000000
_cell_angle_gamma 90.000000
_cell_volume 5385.885751
_symmetry_space_group_name_H-M "I B A M"
_symmetry_group_IT_number 72
_symmetry_cell_setting 'orthorhombic'
loop_
_space_group_symop_operation_xyz
x,y,z
-x,-y,z
x,-y,1/2-z
-x,y,1/2-z
-x,-y,-z
x,y,-z
-x,y,1/2+z
x,-y,1/2+z
1/2+x,1/2+y,1/2+z
1/2-x,1/2-y,1/2+z
1/2+x,1/2-y,-z
1/2-x,1/2+y,-z
1/2-x,1/2-y,1/2-z
1/2+x,1/2+y,1/2-z
1/2-x,1/2+y,z
1/2+x,1/2-y,z
loop_
_atom_site_type_symbol
_atom_site_label
_atom_site_fract_x
_atom_site_fract_y
_atom_site_fract_z
Si Si1 0.056883 0.320001 0.098635
Si Si2 0.850126 0.662043 0.404190
Si Si3 0.554162 0.470724 0.651099
Si Si4 0.453914 0.246554 0.901397
Si Si5 0.192408 0.256728 0.771136
Si Si6 0.870036 0.134680 0.598580
Si Si7 0.643020 0.950433 0.659833
O O1 0.087113 0.216679 0.114395
O O2 0.088227 0.415143 0.132769
O O3 0.002871 0.303942 0.143731
O O4 0.046607 0.345377 0.000000
O O5 0.832807 0.703565 0.500000
O O6 0.909897 0.664039 0.396711
O O7 0.830896 0.732336 0.325120
O O8 0.834323 0.541368 0.400146
O O9 0.500000 0.500000 0.608742
O O10 0.553613 0.500000 0.750000
O O11 0.563136 0.349484 0.646972
O O12 0.602208 0.525227 0.606971
O O13 0.466524 0.278640 0.000000
O O14 0.250000 0.250000 0.750000
O O15 0.172393 0.157588 0.826867
O O16 0.181739 0.355821 0.832411
O O17 0.847554 0.143109 0.500000
O O18 0.632576 0.000000 0.750000
#
# Coordination Sequence:
#
# PCOD8293937 Si02
#       7
#    16  16  16  16  16  16  16
#     4   9  17  31  54  83 116 154 196 236 282 347
#     4  10  21  39  61  86 122 159 198 245 306 374
#     4  11  21  33  52  83 125 172 212 253 304 368
#     4  10  20  34  54  82 119 162 202 245 293 354
#     4  10  22  42  65  89 117 150 203 271 324 372
#     4  10  20  36  60  90 123 163 209 256 312 381
#     4   9  19  37  57  84 114 152 194 241 302 364
#
# _framework density 20.795093999999999
#
# number of rings (size 3 to 8) (size 9 to 14) (size 15 to 20)
#    0.000    2.143    1.429    1.714    0.000    2.286 
#    0.000   10.714    0.000    1.714    0.000    0.000 
#    0.000    0.000    0.000    0.000    0.000    0.000 
#
# Total GULP energy -693774.218471 kJ/mol
# GULP energy per Si atom -12388.825330 kJ/mol
# Density = 2.074776 g / cm^3
# Si number density = 20.795094 Si / 1000 Ang^3
#
#
#
# Elastic Constant Matrix: (Units=GPa)
#
#
# Indices 1 2 3 4 5 6 
#
# 1 124.0591 29.4474 46.2071 0.0000 0.0000 0.0000
# 2 29.4474 65.2553 20.0576 0.0000 0.0000 0.0000
# 3 46.2071 20.0576 97.0474 0.0000 0.0000 0.0000
# 4 0.0000 0.0000 0.0000 -2.0794 0.0000 0.0000
# 5 0.0000 0.0000 0.0000 0.0000 24.8404 0.0000
# 6 0.0000 0.0000 0.0000 0.0000 0.0000 19.6085
#
#
#
# Elastic Compliance Matrix: (Units=1/GPa)
#
#
# Indices 1 2 3 4 5 6 
#
# 1 0.010462 -0.003407 -0.004277 0.000000 0.000000 0.000000
# 2 -0.003407 0.017473 -0.001989 0.000000 0.000000 0.000000
# 3 -0.004277 -0.001989 0.012752 0.000000 0.000000 0.000000
# 4 0.000000 0.000000 0.000000 -0.480910 0.000000 0.000000
# 5 0.000000 0.000000 0.000000 0.000000 0.040257 0.000000
# 6 0.000000 0.000000 0.000000 0.000000 0.000000 0.050998
#
#
# Mechanical properties :
#
#
# Convention : Reuss Voigt Hill
#
# Bulk Modulus (GPa) = 46.85831 53.08732 49.97282
# Shear Modulus (GPa) = -15.50357 21.18388 2.84016
#
# Velocity S-wave (km/s) = -2.73342 3.19516 1.16993
# Velocity P-wave (km/s) = 3.55249 6.26069 5.09001
#
# Compressibility (1/GPa) = 0.02134093
#
# Stress axis : x y z
#
# Youngs Moduli (GPa) = 95.58000 57.23060 78.41909
#
# Poissons Ratio (x) = 0.19496 0.33543
# Poissons Ratio (y) = 0.32560 0.15600
# Poissons Ratio (z) = 0.40883 0.11385
#
# Static dielectric constant tensor:
#      x y z
#    x 3.639200 0.000000 0.000000 
#    y 0.000000 9.422700 0.000000 
#    z 0.000000 0.000000 3.867670 
# 
# 
# High freq. dielectric constant tensor:
#      x y z
#    x 1.785740 0.000000 0.000000 
#    y 0.000000 1.804690 0.000000 
#    z 0.000000 0.000000 1.820600 
# 
# From -- ./inp_files/26392.got.cif
#   From: 2010.03.12/outbox.cif.g09.slc.cpg/sg72_14_cif.got.tgz:26392.got - 2010.04.16 14:54:00.
