data_PCOD8293421
_publ_section_title
;
Structure prediction by ZEFSAII (Michael W. Deem and Ramdas Pophale) SiO2 
 PCOD8293421
Probable space group: I B A M
;
_chemical_formula_sum "Si O2"
_cell_formula_units_Z 104
_cell_length_a 25.561843
_cell_length_b 9.372803
_cell_length_c 22.929823
_cell_angle_alpha 90.000000
_cell_angle_beta 90.000000
_cell_angle_gamma 90.000000
_cell_volume 5493.667296
_symmetry_space_group_name_H-M "I B A M"
_symmetry_group_IT_number 72
_symmetry_cell_setting 'orthorhombic'
loop_
_space_group_symop_operation_xyz
x,y,z
-x,-y,z
x,-y,1/2-z
-x,y,1/2-z
-x,-y,-z
x,y,-z
-x,y,1/2+z
x,-y,1/2+z
1/2+x,1/2+y,1/2+z
1/2-x,1/2-y,1/2+z
1/2+x,1/2-y,-z
1/2-x,1/2+y,-z
1/2-x,1/2-y,1/2-z
1/2+x,1/2+y,1/2-z
1/2-x,1/2+y,z
1/2+x,1/2-y,z
loop_
_atom_site_type_symbol
_atom_site_label
_atom_site_fract_x
_atom_site_fract_y
_atom_site_fract_z
Si Si1 0.137264 0.836724 0.000000
Si Si2 0.632976 0.214390 0.620656
Si Si3 0.438460 0.009329 0.682733
Si Si4 0.218281 0.480719 0.117942
Si Si5 0.143791 0.176031 0.000000
Si Si6 0.870589 0.263565 0.373228
Si Si7 0.173697 0.011666 0.318473
Si Si8 0.745952 0.158459 0.000000
O O1 0.111200 0.773567 0.941394
O O2 0.196300 0.778641 0.000000
O O3 0.134177 0.007761 0.000000
O O4 0.587007 0.120874 0.647797
O O5 0.686345 0.126671 0.612474
O O6 0.647136 0.340813 0.664114
O O7 0.500000 0.000000 0.675336
O O8 0.421182 0.000000 0.750000
O O9 0.420386 0.160435 0.655914
O O10 0.180907 0.355840 0.141739
O O11 0.266524 0.502735 0.161282
O O12 0.240414 0.443326 0.055204
O O13 0.118952 0.250190 0.942807
O O14 0.205916 0.208695 0.000000
O O15 0.862765 0.108642 0.346546
O O16 0.172722 0.000000 0.250000
#
# Coordination Sequence:
#
# PCOD8293421 Si02
#       8
#     8  16  16  16   8  16  16   8
#     4  12  21  32  59  87 125 156 198 245 290 344
#     4  11  23  37  60  90 119 155 203 252 294 346
#     4  10  23  46  70  87 111 152 202 253 303 360
#     4  10  21  34  53  82 121 163 200 238 284 348
#     4  10  20  36  58  85 124 162 194 241 299 343
#     4  10  21  39  60  86 119 156 198 246 298 353
#     4  12  23  34  52  83 124 164 198 239 294 354
#     4  10  19  32  53  80 117 168 209 234 271 345
#
# _framework density 18.930887999999999
#
# number of rings (size 3 to 8) (size 9 to 14) (size 15 to 20)
#    0.000    1.385    3.077    2.308    4.308    6.769 
#    0.000    2.308    0.000    3.692    0.000    0.000 
#    0.000    0.000    0.000    0.000    0.000    0.000 
#
# Total GULP energy -644941.453199 kJ/mol
# GULP energy per Si atom -12402.720254 kJ/mol
# Density = 1.888780 g / cm^3
# Si number density = 18.930888 Si / 1000 Ang^3
#
#
#
# Elastic Constant Matrix: (Units=GPa)
#
#
# Indices 1 2 3 4 5 6 
#
# 1 69.2616 31.2077 41.5301 0.0000 0.0000 0.0000
# 2 31.2077 118.4201 46.7651 0.0000 0.0000 0.0000
# 3 41.5301 46.7651 154.4294 0.0000 0.0000 0.0000
# 4 0.0000 0.0000 0.0000 32.2463 0.0000 0.0000
# 5 0.0000 0.0000 0.0000 0.0000 31.9316 0.0000
# 6 0.0000 0.0000 0.0000 0.0000 0.0000 15.2284
#
#
#
# Elastic Compliance Matrix: (Units=1/GPa)
#
#
# Indices 1 2 3 4 5 6 
#
# 1 0.018260 -0.003263 -0.003923 0.000000 0.000000 0.000000
# 2 -0.003263 0.010175 -0.002204 0.000000 0.000000 0.000000
# 3 -0.003923 -0.002204 0.008198 0.000000 0.000000 0.000000
# 4 0.000000 0.000000 0.000000 0.031011 0.000000 0.000000
# 5 0.000000 0.000000 0.000000 0.000000 0.031317 0.000000
# 6 0.000000 0.000000 0.000000 0.000000 0.000000 0.065667
#
#
# Mechanical properties :
#
#
# Convention : Reuss Voigt Hill
#
# Bulk Modulus (GPa) = 56.00966 64.56854 60.28910
# Shear Modulus (GPa) = 26.40504 30.72179 28.56342
#
# Velocity S-wave (km/s) = 3.73877 4.03282 3.88858
# Velocity P-wave (km/s) = 6.94899 7.47438 7.21647
#
# Compressibility (1/GPa) = 0.01785406
#
# Stress axis : x y z
#
# Youngs Moduli (GPa) = 54.76357 98.28311 121.98663
#
# Poissons Ratio (x) = 0.32072 0.47849
# Poissons Ratio (y) = 0.17870 0.26881
# Poissons Ratio (z) = 0.21481 0.21658
#
# Static dielectric constant tensor:
#      x y z
#    x 3.132750 0.000000 0.000000 
#    y 0.000000 3.617190 0.000000 
#    z 0.000000 0.000000 3.750890 
# 
# 
# High freq. dielectric constant tensor:
#      x y z
#    x 1.694930 0.000000 0.000000 
#    y 0.000000 1.753810 0.000000 
#    z 0.000000 0.000000 1.753050 
# 
# From -- ./inp_files/36192.got.cif
#   From: 2010.03.12/outbox.cif.g09.slc.cpg/sg72_19_cif.got.tgz:36192.got - 2010.04.16 14:54:00.
