data_PCOD8293627
_publ_section_title
;
Structure prediction by ZEFSAII (Michael W. Deem and Ramdas Pophale) SiO2 
 PCOD8293627
Probable space group: I B A M
;
_chemical_formula_sum "Si O2"
_cell_formula_units_Z 116
_cell_length_a 27.119994
_cell_length_b 22.285231
_cell_length_c 9.452829
_cell_angle_alpha 90.000000
_cell_angle_beta 90.000000
_cell_angle_gamma 90.000000
_cell_volume 5713.056656
_symmetry_space_group_name_H-M "I B A M"
_symmetry_group_IT_number 72
_symmetry_cell_setting 'orthorhombic'
loop_
_space_group_symop_operation_xyz
x,y,z
-x,-y,z
x,-y,1/2-z
-x,y,1/2-z
-x,-y,-z
x,y,-z
-x,y,1/2+z
x,-y,1/2+z
1/2+x,1/2+y,1/2+z
1/2-x,1/2-y,1/2+z
1/2+x,1/2-y,-z
1/2-x,1/2+y,-z
1/2-x,1/2-y,1/2-z
1/2+x,1/2+y,1/2-z
1/2-x,1/2+y,z
1/2+x,1/2-y,z
loop_
_atom_site_type_symbol
_atom_site_label
_atom_site_fract_x
_atom_site_fract_y
_atom_site_fract_z
Si Si1 0.640390 0.842338 0.337538
Si Si2 0.717872 0.055313 0.165555
Si Si3 0.703135 0.269244 0.161756
Si Si4 0.917167 0.910471 0.155606
Si Si5 0.547617 0.312176 0.660989
Si Si6 0.000000 0.000000 0.250000
Si Si7 0.190996 0.907027 0.659632
Si Si8 0.950742 0.673561 0.336257
O O1 0.622847 0.848421 0.500000
O O2 0.685664 0.886122 0.304321
O O3 0.657586 0.774866 0.302437
O O4 0.594774 0.860842 0.236588
O O5 0.772652 0.063752 0.227032
O O6 0.692970 0.000000 0.250000
O O7 0.721570 0.040584 0.000000
O O8 0.750000 0.250000 0.250000
O O9 0.685703 0.336324 0.194965
O O10 0.718879 0.260450 0.000000
O O11 0.913770 0.858774 0.274511
O O12 0.862550 0.939616 0.171317
O O13 0.920759 0.880455 0.000000
O O14 0.962284 0.957968 0.162738
O O15 0.500000 0.327423 0.750000
O O16 0.537499 0.329337 0.500000
O O17 0.562902 0.243447 0.677254
O O18 0.212167 0.915319 0.500000
O O19 0.957081 0.654178 0.500000
O O20 0.000000 0.657738 0.250000
#
# Coordination Sequence:
#
# PCOD8293627 Si02
#       8
#    16  16  16  16  16   4  16  16
#     4  10  21  38  61  90 125 163 200 246 302 361
#     4  11  24  42  63  88 120 160 205 249 297 358
#     4  10  19  34  58  89 124 157 195 247 308 373
#     4  11  24  41  59  79 110 150 199 259 317 366
#     4  10  20  35  56  82 113 150 192 238 291 355
#     4  12  26  40  60  86 110 148 218 272 326 368
#     4  10  22  39  61  88 118 157 200 252 315 374
#     4  10  21  36  59  92 125 158 195 238 291 356
#
# _framework density 20.304366999999999
#
# number of rings (size 3 to 8) (size 9 to 14) (size 15 to 20)
#    0.000    1.655    2.069    2.276    0.966    5.517 
#    0.000    0.000    0.000    0.414    0.000    2.897 
#    0.000    0.000    0.000    0.000    0.000    0.000 
#
# Total GULP energy -718920.966522 kJ/mol
# GULP energy per Si atom -12395.189078 kJ/mol
# Density = 2.025815 g / cm^3
# Si number density = 20.304367 Si / 1000 Ang^3
#
#
#
# Elastic Constant Matrix: (Units=GPa)
#
#
# Indices 1 2 3 4 5 6 
#
# 1 121.5643 18.9217 64.7642 0.0000 0.0000 0.0000
# 2 18.9217 57.7404 24.7154 0.0000 0.0000 0.0000
# 3 64.7642 24.7154 131.9271 0.0000 0.0000 0.0000
# 4 0.0000 0.0000 0.0000 26.3288 0.0000 0.0000
# 5 0.0000 0.0000 0.0000 0.0000 36.2289 0.0000
# 6 0.0000 0.0000 0.0000 0.0000 0.0000 16.5369
#
#
#
# Elastic Compliance Matrix: (Units=1/GPa)
#
#
# Indices 1 2 3 4 5 6 
#
# 1 0.011248 -0.001438 -0.005252 0.000000 0.000000 0.000000
# 2 -0.001438 0.019013 -0.002856 0.000000 0.000000 0.000000
# 3 -0.005252 -0.002856 0.010693 0.000000 0.000000 0.000000
# 4 0.000000 0.000000 0.000000 0.037981 0.000000 0.000000
# 5 0.000000 0.000000 0.000000 0.000000 0.027602 0.000000
# 6 0.000000 0.000000 0.000000 0.000000 0.000000 0.060471
#
#
# Mechanical properties :
#
#
# Convention : Reuss Voigt Hill
#
# Bulk Modulus (GPa) = 45.74216 58.67050 52.20633
# Shear Modulus (GPa) = 25.85470 29.34096 27.59783
#
# Velocity S-wave (km/s) = 3.57228 3.80551 3.69074
# Velocity P-wave (km/s) = 6.29222 6.94748 6.62796
#
# Compressibility (1/GPa) = 0.02186167
#
# Stress axis : x y z
#
# Youngs Moduli (GPa) = 88.90320 52.59684 93.51488
#
# Poissons Ratio (x) = 0.07562 0.49119
# Poissons Ratio (y) = 0.12782 0.26708
# Poissons Ratio (z) = 0.46696 0.15022
#
# Static dielectric constant tensor:
#      x y z
#    x 3.581090 0.000000 0.000000 
#    y 0.000000 3.596720 0.000000 
#    z 0.000000 0.000000 3.910470 
# 
# 
# High freq. dielectric constant tensor:
#      x y z
#    x 1.792550 0.000000 0.000000 
#    y 0.000000 1.772390 0.000000 
#    z 0.000000 0.000000 1.799770 
# 
# From -- ./inp_files/7256.got.cif
#   From: 2010.03.12/outbox.cif.g09.slc.cpg/sg72_4_cif.got.tgz:7256.got - 2010.04.16 14:54:00.
