data_PCOD8293325
_publ_section_title
;
Structure prediction by ZEFSAII (Michael W. Deem and Ramdas Pophale) SiO2 
 PCOD8293325
Probable space group: I B A M
;
_chemical_formula_sum "Si O2"
_cell_formula_units_Z 112
_cell_length_a 22.318107
_cell_length_b 13.831084
_cell_length_c 21.203879
_cell_angle_alpha 90.000000
_cell_angle_beta 90.000000
_cell_angle_gamma 90.000000
_cell_volume 6545.289972
_symmetry_space_group_name_H-M "I B A M"
_symmetry_group_IT_number 72
_symmetry_cell_setting 'orthorhombic'
loop_
_space_group_symop_operation_xyz
x,y,z
-x,-y,z
x,-y,1/2-z
-x,y,1/2-z
-x,-y,-z
x,y,-z
-x,y,1/2+z
x,-y,1/2+z
1/2+x,1/2+y,1/2+z
1/2-x,1/2-y,1/2+z
1/2+x,1/2-y,-z
1/2-x,1/2+y,-z
1/2-x,1/2-y,1/2-z
1/2+x,1/2+y,1/2-z
1/2-x,1/2+y,z
1/2+x,1/2-y,z
loop_
_atom_site_type_symbol
_atom_site_label
_atom_site_fract_x
_atom_site_fract_y
_atom_site_fract_z
Si Si1 0.334939 0.690869 0.138075
Si Si2 0.840787 0.102915 0.770917
Si Si3 0.768830 0.574169 0.575398
Si Si4 0.846507 0.746975 0.569280
Si Si5 0.068672 0.103257 0.374135
Si Si6 0.060131 0.098539 0.073632
Si Si7 0.253028 0.863373 0.878793
O O1 0.348697 0.672844 0.211460
O O2 0.289371 0.612430 0.110826
O O3 0.394338 0.681155 0.095552
O O4 0.311943 0.799861 0.132563
O O5 0.906431 0.088298 0.803279
O O6 0.789927 0.142948 0.817658
O O7 0.815953 0.000000 0.750000
O O8 0.759336 0.577534 0.500000
O O9 0.825419 0.641793 0.595943
O O10 0.778799 0.466478 0.600613
O O11 0.871531 0.731301 0.500000
O O12 0.901205 0.795568 0.605860
O O13 0.788027 0.816942 0.566464
O O14 0.997450 0.112324 0.381035
O O15 0.088429 0.008716 0.415153
O O16 0.043151 0.110497 0.000000
#
# Coordination Sequence:
#
# PCOD8293325 Si02
#       7
#    16  16  16  16  16  16  16
#     4  11  21  34  49  77 104 135 168 209 261 306
#     4  11  19  35  52  74 102 138 170 210 254 302
#     4  10  19  31  50  75 102 134 169 210 258 311
#     4   9  17  30  49  72 100 132 169 210 255 307
#     4  10  20  34  51  72 101 136 171 209 254 307
#     4  11  21  33  52  76 104 135 168 209 258 310
#     4  10  20  32  51  72 105 133 169 211 256 310
#
# _framework density 17.111542
#
# number of rings (size 3 to 8) (size 9 to 14) (size 15 to 20)
#    0.000    1.714    2.857    3.857    0.000    2.286 
#    0.000    0.000    0.000    0.857    0.000    3.000 
#    0.000    0.000    0.000    0.000    0.000    0.000 
#
# Total GULP energy -693999.386161 kJ/mol
# GULP energy per Si atom -12392.846181 kJ/mol
# Density = 1.707260 g / cm^3
# Si number density = 17.111542 Si / 1000 Ang^3
#
#
#
# Elastic Constant Matrix: (Units=GPa)
#
#
# Indices 1 2 3 4 5 6 
#
# 1 83.0207 44.9101 38.1964 0.0000 0.0000 0.0000
# 2 44.9101 113.8708 30.8196 0.0000 0.0000 0.0000
# 3 38.1964 30.8196 87.3547 0.0000 0.0000 0.0000
# 4 0.0000 0.0000 0.0000 20.2990 0.0000 0.0000
# 5 0.0000 0.0000 0.0000 0.0000 21.3954 0.0000
# 6 0.0000 0.0000 0.0000 0.0000 0.0000 28.9120
#
#
#
# Elastic Compliance Matrix: (Units=1/GPa)
#
#
# Indices 1 2 3 4 5 6 
#
# 1 0.017629 -0.005380 -0.005810 0.000000 0.000000 0.000000
# 2 -0.005380 0.011351 -0.001652 0.000000 0.000000 0.000000
# 3 -0.005810 -0.001652 0.014571 0.000000 0.000000 0.000000
# 4 0.000000 0.000000 0.000000 0.049264 0.000000 0.000000
# 5 0.000000 0.000000 0.000000 0.000000 0.046739 0.000000
# 6 0.000000 0.000000 0.000000 0.000000 0.000000 0.034588
#
#
# Mechanical properties :
#
#
# Convention : Reuss Voigt Hill
#
# Bulk Modulus (GPa) = 55.97306 56.89981 56.43644
# Shear Modulus (GPa) = 24.29764 25.47594 24.88679
#
# Velocity S-wave (km/s) = 3.77232 3.86270 3.81778
# Velocity P-wave (km/s) = 7.19413 7.29510 7.24479
#
# Compressibility (1/GPa) = 0.01786574
#
# Stress axis : x y z
#
# Youngs Moduli (GPa) = 56.72572 88.09821 68.62946
#
# Poissons Ratio (x) = 0.47398 0.39874
# Poissons Ratio (y) = 0.30519 0.11339
# Poissons Ratio (z) = 0.32958 0.14556
#
# Static dielectric constant tensor:
#      x y z
#    x 3.047420 0.000000 0.000000 
#    y 0.000000 3.223660 0.000000 
#    z 0.000000 0.000000 3.329500 
# 
# 
# High freq. dielectric constant tensor:
#      x y z
#    x 1.638380 0.000000 0.000000 
#    y 0.000000 1.649370 0.000000 
#    z 0.000000 0.000000 1.667280 
# 
# From -- ./inp_files/37289.got.cif
#   From: 2010.03.12/outbox.cif.g09.slc.cpg/sg72_19_cif.got.tgz:37289.got - 2010.04.16 14:54:00.
