data_PCOD8293056
_publ_section_title
;
Structure prediction by ZEFSAII (Michael W. Deem and Ramdas Pophale) SiO2 
 PCOD8293056
Probable space group: I B A M
;
_chemical_formula_sum "Si O2"
_cell_formula_units_Z 80
_cell_length_a 14.810985
_cell_length_b 17.593339
_cell_length_c 17.036227
_cell_angle_alpha 90.000000
_cell_angle_beta 90.000000
_cell_angle_gamma 90.000000
_cell_volume 4439.209399
_symmetry_space_group_name_H-M "I B A M"
_symmetry_group_IT_number 72
_symmetry_cell_setting 'orthorhombic'
loop_
_space_group_symop_operation_xyz
x,y,z
-x,-y,z
x,-y,1/2-z
-x,y,1/2-z
-x,-y,-z
x,y,-z
-x,y,1/2+z
x,-y,1/2+z
1/2+x,1/2+y,1/2+z
1/2-x,1/2-y,1/2+z
1/2+x,1/2-y,-z
1/2-x,1/2+y,-z
1/2-x,1/2-y,1/2-z
1/2+x,1/2+y,1/2-z
1/2-x,1/2+y,z
1/2+x,1/2-y,z
loop_
_atom_site_type_symbol
_atom_site_label
_atom_site_fract_x
_atom_site_fract_y
_atom_site_fract_z
Si Si1 0.729834 0.674305 0.411128
Si Si2 0.636872 0.278467 0.324075
Si Si3 0.909909 0.642504 0.211252
Si Si4 0.540161 0.251114 0.912350
Si Si5 0.231661 0.084124 0.241556
O O1 0.758631 0.650640 0.500000
O O2 0.788012 0.747954 0.385044
O O3 0.624326 0.692628 0.410026
O O4 0.745962 0.605263 0.350284
O O5 0.625994 0.218497 0.254249
O O6 0.541284 0.291421 0.365998
O O7 0.666031 0.357757 0.285935
O O8 0.934609 0.668562 0.123358
O O9 0.829340 0.581882 0.214752
O O10 0.000000 0.607615 0.250000
O O11 0.507438 0.234710 0.000000
O O12 0.190001 0.000000 0.250000
#
# Coordination Sequence:
#
# PCOD8293056 Si02
#       5
#    16  16  16  16  16
#     4  10  19  35  55  78 107 138 183 241 278 316
#     4  10  18  34  54  78 104 141 189 223 274 329
#     4   9  17  33  57  77 103 135 185 234 270 323
#     4  10  18  30  55  83 102 131 183 241 278 309
#     4  11  21  35  53  80 115 153 184 216 280 357
#
# _framework density 18.021228000000001
#
# number of rings (size 3 to 8) (size 9 to 14) (size 15 to 20)
#    0.000    2.000    4.000    1.800    0.000    0.400 
#    0.000    5.000    0.000    2.400    0.000    8.400 
#    0.000    0.000    0.000    0.000    0.000    0.000 
#
# Total GULP energy -495915.953513 kJ/mol
# GULP energy per Si atom -12397.898838 kJ/mol
# Density = 1.798021 g / cm^3
# Si number density = 18.021228 Si / 1000 Ang^3
#
#
#
# Elastic Constant Matrix: (Units=GPa)
#
#
# Indices 1 2 3 4 5 6 
#
# 1 91.9277 20.6868 24.0301 0.0000 0.0000 0.0000
# 2 20.6868 73.7512 35.6103 0.0000 0.0000 0.0000
# 3 24.0301 35.6103 115.8197 0.0000 0.0000 0.0000
# 4 0.0000 0.0000 0.0000 14.6627 0.0000 0.0000
# 5 0.0000 0.0000 0.0000 0.0000 21.5484 0.0000
# 6 0.0000 0.0000 0.0000 0.0000 0.0000 15.7420
#
#
#
# Elastic Compliance Matrix: (Units=1/GPa)
#
#
# Indices 1 2 3 4 5 6 
#
# 1 0.011887 -0.002517 -0.001692 0.000000 0.000000 0.000000
# 2 -0.002517 0.016456 -0.004537 0.000000 0.000000 0.000000
# 3 -0.001692 -0.004537 0.010380 0.000000 0.000000 0.000000
# 4 0.000000 0.000000 0.000000 0.068200 0.000000 0.000000
# 5 0.000000 0.000000 0.000000 0.000000 0.046407 0.000000
# 6 0.000000 0.000000 0.000000 0.000000 0.000000 0.063524
#
#
# Mechanical properties :
#
#
# Convention : Reuss Voigt Hill
#
# Bulk Modulus (GPa) = 47.10408 49.12812 48.11610
# Shear Modulus (GPa) = 20.71035 23.80203 22.25619
#
# Velocity S-wave (km/s) = 3.39369 3.63819 3.51807
# Velocity P-wave (km/s) = 6.44601 6.70590 6.57724
#
# Compressibility (1/GPa) = 0.02122959
#
# Stress axis : x y z
#
# Youngs Moduli (GPa) = 84.12596 60.76821 96.33620
#
# Poissons Ratio (x) = 0.15296 0.16304
# Poissons Ratio (y) = 0.21175 0.43711
# Poissons Ratio (z) = 0.14237 0.27573
#
# Static dielectric constant tensor:
#      x y z
#    x 3.569680 0.000000 0.000000 
#    y 0.000000 2.816520 0.000000 
#    z 0.000000 0.000000 3.617090 
# 
# 
# High freq. dielectric constant tensor:
#      x y z
#    x 1.717030 0.000000 0.000000 
#    y 0.000000 1.642120 0.000000 
#    z 0.000000 0.000000 1.703370 
# 
# From -- ./inp_files/30423.got.cif
#   From: 2010.03.12/outbox.cif.g09.slc.cpg/sg72_16_cif.got.tgz:30423.got - 2010.04.16 14:54:00.
