data_PCOD8293178
_publ_section_title
;
Structure prediction by ZEFSAII (Michael W. Deem and Ramdas Pophale) SiO2 
 PCOD8293178
Probable space group: I B A M
;
_chemical_formula_sum "Si O2"
_cell_formula_units_Z 64
_cell_length_a 38.335921
_cell_length_b 9.268430
_cell_length_c 9.644331
_cell_angle_alpha 90.000000
_cell_angle_beta 90.000000
_cell_angle_gamma 90.000000
_cell_volume 3426.763899
_symmetry_space_group_name_H-M "I B A M"
_symmetry_group_IT_number 72
_symmetry_cell_setting 'orthorhombic'
loop_
_space_group_symop_operation_xyz
x,y,z
-x,-y,z
x,-y,1/2-z
-x,y,1/2-z
-x,-y,-z
x,y,-z
-x,y,1/2+z
x,-y,1/2+z
1/2+x,1/2+y,1/2+z
1/2-x,1/2-y,1/2+z
1/2+x,1/2-y,-z
1/2-x,1/2+y,-z
1/2-x,1/2-y,1/2-z
1/2+x,1/2+y,1/2-z
1/2-x,1/2+y,z
1/2+x,1/2-y,z
loop_
_atom_site_type_symbol
_atom_site_label
_atom_site_fract_x
_atom_site_fract_y
_atom_site_fract_z
Si Si1 0.792834 0.714102 0.000000
Si Si2 0.904082 0.640062 0.342465
Si Si3 0.329759 0.831586 0.732450
Si Si4 0.778061 0.376508 0.000000
Si Si5 0.532844 0.353211 0.666725
O O1 0.818029 0.746873 0.871827
O O2 0.778553 0.550292 0.000000
O O3 0.761708 0.827786 0.000000
O O4 0.909461 0.500000 0.250000
O O5 0.904915 0.585753 0.500000
O O6 0.867467 0.725933 0.316467
O O7 0.934564 0.750721 0.309895
O O8 0.297735 0.806595 0.629390
O O9 0.336082 0.000000 0.750000
O O10 0.540998 0.500000 0.750000
O O11 0.500000 0.283119 0.750000
O O12 0.525721 0.376783 0.500000
#
# Coordination Sequence:
#
# PCOD8293178 Si02
#       5
#     8  16  16   8  16
#     4  10  20  32  52  76  99 138 173 221 266 325
#     4  10  21  36  58  84 111 143 186 231 273 323
#     4   9  18  33  52  75 103 136 177 216 269 321
#     4  10  18  34  52  72 103 134 175 215 268 321
#     4  10  21  39  59  84 114 150 185 219 270 328
#
# _framework density 18.676511999999999
#
# number of rings (size 3 to 8) (size 9 to 14) (size 15 to 20)
#    0.000    2.250    1.250    2.250    5.250    2.500 
#    0.000    5.000    0.000    0.000    0.000    0.000 
#    0.000    0.000    0.000    0.000    0.000    0.000 
#
# Total GULP energy -396539.063818 kJ/mol
# GULP energy per Si atom -12391.845744 kJ/mol
# Density = 1.863400 g / cm^3
# Si number density = 18.676512 Si / 1000 Ang^3
#
#
#
# Elastic Constant Matrix: (Units=GPa)
#
#
# Indices 1 2 3 4 5 6 
#
# 1 143.2808 44.1006 53.8536 0.0000 0.0000 0.0000
# 2 44.1006 37.6273 32.7990 0.0000 0.0000 0.0000
# 3 53.8536 32.7990 141.5514 0.0000 0.0000 0.0000
# 4 0.0000 0.0000 0.0000 5.7596 0.0000 0.0000
# 5 0.0000 0.0000 0.0000 0.0000 37.8877 0.0000
# 6 0.0000 0.0000 0.0000 0.0000 0.0000 23.5739
#
#
#
# Elastic Compliance Matrix: (Units=1/GPa)
#
#
# Indices 1 2 3 4 5 6 
#
# 1 0.011174 -0.011768 -0.001525 0.000000 0.000000 0.000000
# 2 -0.011768 0.045696 -0.006111 0.000000 0.000000 0.000000
# 3 -0.001525 -0.006111 0.009061 0.000000 0.000000 0.000000
# 4 0.000000 0.000000 0.000000 0.173622 0.000000 0.000000
# 5 0.000000 0.000000 0.000000 0.000000 0.026394 0.000000
# 6 0.000000 0.000000 0.000000 0.000000 0.000000 0.042420
#
#
# Mechanical properties :
#
#
# Convention : Reuss Voigt Hill
#
# Bulk Modulus (GPa) = 36.86814 64.88511 50.87662
# Shear Modulus (GPa) = 14.03648 26.22466 20.13057
#
# Velocity S-wave (km/s) = 2.74443 3.75127 3.28663
# Velocity P-wave (km/s) = 5.46130 7.31981 6.45776
#
# Compressibility (1/GPa) = 0.02712369
#
# Stress axis : x y z
#
# Youngs Moduli (GPa) = 89.49057 21.88389 110.36779
#
# Poissons Ratio (x) = 0.25753 0.16827
# Poissons Ratio (y) = 1.05311 0.67447
# Poissons Ratio (z) = 0.13644 0.13373
#
# Static dielectric constant tensor:
#      x y z
#    x 3.716000 0.000000 0.000000 
#    y 0.000000 2.975470 0.000000 
#    z 0.000000 0.000000 3.936390 
# 
# 
# High freq. dielectric constant tensor:
#      x y z
#    x 1.743280 0.000000 0.000000 
#    y 0.000000 1.681230 0.000000 
#    z 0.000000 0.000000 1.747250 
# 
# From -- ./inp_files/8897.got.cif
#   From: 2010.03.12/outbox.cif.g09.slc.cpg/sg72_5_cif.got.tgz:8897.got - 2010.04.16 14:54:00.
