data_PCOD8293347
_publ_section_title
;
Structure prediction by ZEFSAII (Michael W. Deem and Ramdas Pophale) SiO2 
 PCOD8293347
Probable space group: I B A M
;
_chemical_formula_sum "Si O2"
_cell_formula_units_Z 112
_cell_length_a 28.191366
_cell_length_b 11.609044
_cell_length_c 19.399730
_cell_angle_alpha 90.000000
_cell_angle_beta 90.000000
_cell_angle_gamma 90.000000
_cell_volume 6349.042917
_symmetry_space_group_name_H-M "I B A M"
_symmetry_group_IT_number 72
_symmetry_cell_setting 'orthorhombic'
loop_
_space_group_symop_operation_xyz
x,y,z
-x,-y,z
x,-y,1/2-z
-x,y,1/2-z
-x,-y,-z
x,y,-z
-x,y,1/2+z
x,-y,1/2+z
1/2+x,1/2+y,1/2+z
1/2-x,1/2-y,1/2+z
1/2+x,1/2-y,-z
1/2-x,1/2+y,-z
1/2-x,1/2-y,1/2-z
1/2+x,1/2+y,1/2-z
1/2-x,1/2+y,z
1/2+x,1/2-y,z
loop_
_atom_site_type_symbol
_atom_site_label
_atom_site_fract_x
_atom_site_fract_y
_atom_site_fract_z
Si Si1 0.165836 0.616050 0.579339
Si Si2 0.728604 0.648702 0.920152
Si Si3 0.395033 0.278978 0.666606
Si Si4 0.905540 0.217005 0.825719
Si Si5 0.658624 0.149739 0.421445
Si Si6 0.996103 0.127460 0.668352
Si Si7 0.337790 0.494743 0.171741
O O1 0.153386 0.641800 0.500000
O O2 0.216734 0.668714 0.600405
O O3 0.123679 0.668208 0.625292
O O4 0.171691 0.480988 0.593523
O O5 0.703605 0.769971 0.903665
O O6 0.705438 0.544164 0.876902
O O7 0.724215 0.612558 0.000000
O O8 0.398693 0.245608 0.746684
O O9 0.447738 0.313744 0.641721
O O10 0.357992 0.381142 0.650337
O O11 0.884560 0.316928 0.872640
O O12 0.959462 0.206714 0.852436
O O13 0.881238 0.093378 0.836128
O O14 0.642643 0.169108 0.500000
O O15 0.000000 0.113858 0.750000
O O16 0.000000 0.000000 0.635133
O O17 0.318860 0.500000 0.250000
#
# Coordination Sequence:
#
# PCOD8293347 Si02
#       7
#    16  16  16  16  16  16  16
#     4  10  22  37  52  73 104 140 178 219 263 308
#     4   9  19  35  55  73  96 141 187 215 253 315
#     4  10  19  31  53  83 110 132 168 221 266 307
#     4   9  17  33  55  79 105 136 172 210 260 320
#     4   9  19  37  54  70 100 141 181 214 255 316
#     4   9  15  29  55  82 107 137 169 209 266 322
#     4   9  17  31  50  81 111 130 165 214 265 312
#
# _framework density 17.640453999999998
#
# number of rings (size 3 to 8) (size 9 to 14) (size 15 to 20)
#    0.000    2.714    1.429    0.000    2.000    1.143 
#    2.571    3.571    0.000    5.143    0.000    0.000 
#    0.000    0.000    0.000    0.000    0.000    0.000 
#
# Total GULP energy -694306.276065 kJ/mol
# GULP energy per Si atom -12398.326358 kJ/mol
# Density = 1.760030 g / cm^3
# Si number density = 17.640454 Si / 1000 Ang^3
#
#
#
# Elastic Constant Matrix: (Units=GPa)
#
#
# Indices 1 2 3 4 5 6 
#
# 1 131.5135 52.3384 53.2490 0.0000 0.0000 0.0000
# 2 52.3384 81.7396 42.7328 0.0000 0.0000 0.0000
# 3 53.2490 42.7328 60.3573 0.0000 0.0000 0.0000
# 4 0.0000 0.0000 0.0000 29.2422 0.0000 0.0000
# 5 0.0000 0.0000 0.0000 0.0000 22.1952 0.0000
# 6 0.0000 0.0000 0.0000 0.0000 0.0000 20.1130
#
#
#
# Elastic Compliance Matrix: (Units=1/GPa)
#
#
# Indices 1 2 3 4 5 6 
#
# 1 0.012442 -0.003538 -0.008472 0.000000 0.000000 0.000000
# 2 -0.003538 0.020429 -0.011343 0.000000 0.000000 0.000000
# 3 -0.008472 -0.011343 0.032073 0.000000 0.000000 0.000000
# 4 0.000000 0.000000 0.000000 0.034197 0.000000 0.000000
# 5 0.000000 0.000000 0.000000 0.000000 0.045055 0.000000
# 6 0.000000 0.000000 0.000000 0.000000 0.000000 0.049719
#
#
# Mechanical properties :
#
#
# Convention : Reuss Voigt Hill
#
# Bulk Modulus (GPa) = 54.82709 63.36119 59.09414
# Shear Modulus (GPa) = 20.26762 22.66278 21.46520
#
# Velocity S-wave (km/s) = 3.39326 3.58817 3.49207
# Velocity P-wave (km/s) = 6.81910 7.29127 7.05913
#
# Compressibility (1/GPa) = 0.01823916
#
# Stress axis : x y z
#
# Youngs Moduli (GPa) = 80.37370 48.95013 31.17895
#
# Poissons Ratio (x) = 0.17316 0.26415
# Poissons Ratio (y) = 0.28432 0.35366
# Poissons Ratio (z) = 0.68093 0.55523
#
# Static dielectric constant tensor:
#      x y z
#    x 3.374240 0.000000 0.000000 
#    y 0.000000 3.127470 0.000000 
#    z 0.000000 0.000000 3.147390 
# 
# 
# High freq. dielectric constant tensor:
#      x y z
#    x 1.682290 0.000000 0.000000 
#    y 0.000000 1.673280 0.000000 
#    z 0.000000 0.000000 1.663000 
# 
# From -- ./inp_files/26351.got.cif
#   From: 2010.03.12/outbox.cif.g09.slc.cpg/sg72_14_cif.got.tgz:26351.got - 2010.04.16 14:54:00.
