data_PCOD8293391
_publ_section_title
;
Structure prediction by ZEFSAII (Michael W. Deem and Ramdas Pophale) SiO2 
 PCOD8293391
Probable space group: I B A M
;
_chemical_formula_sum "Si O2"
_cell_formula_units_Z 116
_cell_length_a 23.297088
_cell_length_b 30.243331
_cell_length_c 9.000168
_cell_angle_alpha 90.000000
_cell_angle_beta 90.000000
_cell_angle_gamma 90.000000
_cell_volume 6341.352263
_symmetry_space_group_name_H-M "I B A M"
_symmetry_group_IT_number 72
_symmetry_cell_setting 'orthorhombic'
loop_
_space_group_symop_operation_xyz
x,y,z
-x,-y,z
x,-y,1/2-z
-x,y,1/2-z
-x,-y,-z
x,y,-z
-x,y,1/2+z
x,-y,1/2+z
1/2+x,1/2+y,1/2+z
1/2-x,1/2-y,1/2+z
1/2+x,1/2-y,-z
1/2-x,1/2+y,-z
1/2-x,1/2-y,1/2-z
1/2+x,1/2+y,1/2-z
1/2-x,1/2+y,z
1/2+x,1/2-y,z
loop_
_atom_site_type_symbol
_atom_site_label
_atom_site_fract_x
_atom_site_fract_y
_atom_site_fract_z
Si Si1 0.893075 0.759943 0.833519
Si Si2 0.833536 0.687043 0.676920
Si Si3 0.104546 0.847254 0.830770
Si Si4 0.443672 0.829317 0.167102
Si Si5 0.737670 0.632647 0.172218
Si Si6 0.500000 0.500000 0.250000
Si Si7 0.089033 0.931161 0.663088
Si Si8 0.216033 0.955575 0.675164
O O1 0.841938 0.737747 0.734416
O O2 0.916336 0.804733 0.760360
O O3 0.945296 0.724485 0.840306
O O4 0.869994 0.769645 0.000000
O O5 0.832616 0.685673 0.500000
O O6 0.886401 0.656879 0.740541
O O7 0.774461 0.669338 0.743280
O O8 0.172210 0.852859 0.808554
O O9 0.071990 0.891183 0.772927
O O10 0.086539 0.840439 0.000000
O O11 0.500000 0.847433 0.250000
O O12 0.441268 0.849125 0.000000
O O13 0.748794 0.585617 0.250622
O O14 0.755464 0.629633 0.000000
O O15 0.540306 0.468557 0.151882
O O16 0.097367 0.910432 0.500000
O O17 0.148590 0.952972 0.715085
O O18 0.228083 0.956273 0.500000
O O19 0.240587 0.000000 0.750000
#
# Coordination Sequence:
#
# PCOD8293391 Si02
#       8
#    16  16  16  16  16   4  16  16
#     4   9  19  34  52  73 102 134 171 213 256 310
#     4  10  19  32  51  77 105 137 174 213 257 310
#     4  10  21  36  54  74  99 132 172 215 266 324
#     4   9  18  32  51  73  98 134 171 210 251 296
#     4  10  20  34  51  75 105 135 170 217 263 314
#     4  12  22  40  60  82  98 132 176 234 284 332
#     4  10  22  37  55  75  99 127 165 216 271 326
#     4  10  19  34  54  76 100 133 170 210 263 321
#
# _framework density 18.292628000000001
#
# number of rings (size 3 to 8) (size 9 to 14) (size 15 to 20)
#    0.828    1.379    0.690    3.103    0.000    3.862 
#    1.241    0.000    0.000    0.000    0.000    0.000 
#    0.000    0.552    0.000    5.517    0.000    3.310 
#
# Total GULP energy -718883.992346 kJ/mol
# GULP energy per Si atom -12394.551592 kJ/mol
# Density = 1.825099 g / cm^3
# Si number density = 18.292628 Si / 1000 Ang^3
#
#
#
# Elastic Constant Matrix: (Units=GPa)
#
#
# Indices 1 2 3 4 5 6 
#
# 1 40.2164 8.2897 18.3381 0.0000 0.0000 0.0000
# 2 8.2897 58.6875 25.7031 0.0000 0.0000 0.0000
# 3 18.3381 25.7031 137.8067 0.0000 0.0000 0.0000
# 4 0.0000 0.0000 0.0000 31.8444 0.0000 0.0000
# 5 0.0000 0.0000 0.0000 0.0000 23.8641 0.0000
# 6 0.0000 0.0000 0.0000 0.0000 0.0000 21.6548
#
#
#
# Elastic Compliance Matrix: (Units=1/GPa)
#
#
# Indices 1 2 3 4 5 6 
#
# 1 0.026784 -0.002420 -0.003113 0.000000 0.000000 0.000000
# 2 -0.002420 0.018774 -0.003180 0.000000 0.000000 0.000000
# 3 -0.003113 -0.003180 0.008264 0.000000 0.000000 0.000000
# 4 0.000000 0.000000 0.000000 0.031403 0.000000 0.000000
# 5 0.000000 0.000000 0.000000 0.000000 0.041904 0.000000
# 6 0.000000 0.000000 0.000000 0.000000 0.000000 0.046179
#
#
# Mechanical properties :
#
#
# Convention : Reuss Voigt Hill
#
# Bulk Modulus (GPa) = 27.47505 37.93026 32.70265
# Shear Modulus (GPa) = 24.64707 27.76464 26.20585
#
# Velocity S-wave (km/s) = 3.67465 3.90013 3.78906
# Velocity P-wave (km/s) = 5.74947 6.40793 6.08761
#
# Compressibility (1/GPa) = 0.03639666
#
# Stress axis : x y z
#
# Youngs Moduli (GPa) = 37.33619 53.26585 121.00971
#
# Poissons Ratio (x) = 0.12890 0.37668
# Poissons Ratio (y) = 0.09035 0.38476
# Poissons Ratio (z) = 0.11622 0.16936
#
# Static dielectric constant tensor:
#      x y z
#    x 3.023560 0.000000 0.000000 
#    y 0.000000 3.146810 0.000000 
#    z 0.000000 0.000000 3.429980 
# 
# 
# High freq. dielectric constant tensor:
#      x y z
#    x 1.675500 0.000000 0.000000 
#    y 0.000000 1.681850 0.000000 
#    z 0.000000 0.000000 1.727960 
# 
# From -- ./inp_files/7549.got.cif
#   From: 2010.03.12/outbox.cif.g09.slc.cpg/sg72_4_cif.got.tgz:7549.got - 2010.04.16 14:54:00.
