data_PCOD8293830
_publ_section_title
;
Structure prediction by ZEFSAII (Michael W. Deem and Ramdas Pophale) SiO2 
 PCOD8293830
Probable space group: I B A M
;
_chemical_formula_sum "Si O2"
_cell_formula_units_Z 96
_cell_length_a 24.901479
_cell_length_b 24.958500
_cell_length_c 8.706464
_cell_angle_alpha 90.000000
_cell_angle_beta 90.000000
_cell_angle_gamma 90.000000
_cell_volume 5411.098403
_symmetry_space_group_name_H-M "I B A M"
_symmetry_group_IT_number 72
_symmetry_cell_setting 'orthorhombic'
loop_
_space_group_symop_operation_xyz
x,y,z
-x,-y,z
x,-y,1/2-z
-x,y,1/2-z
-x,-y,-z
x,y,-z
-x,y,1/2+z
x,-y,1/2+z
1/2+x,1/2+y,1/2+z
1/2-x,1/2-y,1/2+z
1/2+x,1/2-y,-z
1/2-x,1/2+y,-z
1/2-x,1/2-y,1/2-z
1/2+x,1/2+y,1/2-z
1/2-x,1/2+y,z
1/2+x,1/2-y,z
loop_
_atom_site_type_symbol
_atom_site_label
_atom_site_fract_x
_atom_site_fract_y
_atom_site_fract_z
Si Si1 0.140358 0.447463 0.180125
Si Si2 0.331883 0.240821 0.680458
Si Si3 0.051163 0.608453 0.831503
Si Si4 0.243693 0.054839 0.180214
Si Si5 0.263921 0.333963 0.179468
Si Si6 0.052846 0.732082 0.830350
O O1 0.110787 0.500000 0.250000
O O2 0.102284 0.397778 0.219531
O O3 0.194616 0.441581 0.273719
O O4 0.152677 0.450631 0.000000
O O5 0.327924 0.252191 0.500000
O O6 0.307301 0.290474 0.771476
O O7 0.296549 0.187442 0.721712
O O8 0.393731 0.236909 0.728433
O O9 0.039496 0.670398 0.853703
O O10 0.000000 0.580824 0.750000
O O11 0.060703 0.582249 0.000000
O O12 0.218653 0.110420 0.239897
O O13 0.217722 0.000000 0.250000
O O14 0.236269 0.051444 0.000000
O O15 0.267591 0.344490 0.000000
O O16 0.000000 0.758837 0.750000
O O17 0.061302 0.758163 0.000000
#
# Coordination Sequence:
#
# PCOD8293830 Si02
#       6
#    16  16  16  16  16  16
#     4  11  21  33  47  63  84 113 151 194 240 286
#     4  10  20  33  51  75 103 134 168 206 249 298
#     4  10  20  33  47  64  85 113 151 194 240 286
#     4  11  21  34  51  71  96 126 161 199 242 291
#     4  10  20  34  52  75 103 134 168 206 250 298
#     4  10  20  33  50  70  95 126 160 199 242 291
#
# _framework density 17.741313999999999
#
# number of rings (size 3 to 8) (size 9 to 14) (size 15 to 20)
#    0.000    1.667    0.000    7.000    0.000    7.000 
#    0.000    1.667    0.000    0.000    0.000    0.000 
#    0.000    0.667    0.000    6.667    0.000    4.000 
#
# Total GULP energy -594898.752324 kJ/mol
# GULP energy per Si atom -12393.724007 kJ/mol
# Density = 1.770093 g / cm^3
# Si number density = 17.741314 Si / 1000 Ang^3
#
#
#
# Elastic Constant Matrix: (Units=GPa)
#
#
# Indices 1 2 3 4 5 6 
#
# 1 58.2825 3.8503 16.3040 0.0000 0.0000 0.0000
# 2 3.8503 72.6478 39.7334 0.0000 0.0000 0.0000
# 3 16.3040 39.7334 116.6612 0.0000 0.0000 0.0000
# 4 0.0000 0.0000 0.0000 28.6616 0.0000 0.0000
# 5 0.0000 0.0000 0.0000 0.0000 26.1156 0.0000
# 6 0.0000 0.0000 0.0000 0.0000 0.0000 13.8610
#
#
#
# Elastic Compliance Matrix: (Units=1/GPa)
#
#
# Indices 1 2 3 4 5 6 
#
# 1 0.017872 0.000515 -0.002673 0.000000 0.000000 0.000000
# 2 0.000515 0.016931 -0.005838 0.000000 0.000000 0.000000
# 3 -0.002673 -0.005838 0.010934 0.000000 0.000000 0.000000
# 4 0.000000 0.000000 0.000000 0.034890 0.000000 0.000000
# 5 0.000000 0.000000 0.000000 0.000000 0.038291 0.000000
# 6 0.000000 0.000000 0.000000 0.000000 0.000000 0.072145
#
#
# Mechanical properties :
#
#
# Convention : Reuss Voigt Hill
#
# Bulk Modulus (GPa) = 33.62121 40.81855 37.21988
# Shear Modulus (GPa) = 23.04463 26.24122 24.64292
#
# Velocity S-wave (km/s) = 3.60797 3.85008 3.73099
# Velocity P-wave (km/s) = 6.02897 6.54383 6.29167
#
# Compressibility (1/GPa) = 0.02974313
#
# Stress axis : x y z
#
# Youngs Moduli (GPa) = 55.95485 59.06333 91.45874
#
# Poissons Ratio (x) = -0.03040 0.24447
# Poissons Ratio (y) = -0.02880 0.53398
# Poissons Ratio (z) = 0.14957 0.34484
#
# Static dielectric constant tensor:
#      x y z
#    x 3.002300 0.000000 0.000000 
#    y 0.000000 3.791000 0.000000 
#    z 0.000000 0.000000 3.599160 
# 
# 
# High freq. dielectric constant tensor:
#      x y z
#    x 1.653120 0.000000 0.000000 
#    y 0.000000 1.661800 0.000000 
#    z 0.000000 0.000000 1.710880 
# 
# From -- ./inp_files/6952.got.cif
#   From: 2010.03.12/outbox.cif.g09.slc.cpg/sg72_4_cif.got.tgz:6952.got - 2010.04.16 14:54:00.
