data_PCOD8293675
_publ_section_title
;
Structure prediction by ZEFSAII (Michael W. Deem and Ramdas Pophale) SiO2 
 PCOD8293675
Probable space group: I B A M
;
_chemical_formula_sum "Si O2"
_cell_formula_units_Z 96
_cell_length_a 12.316896
_cell_length_b 13.832209
_cell_length_c 28.603588
_cell_angle_alpha 90.000000
_cell_angle_beta 90.000000
_cell_angle_gamma 90.000000
_cell_volume 4873.189847
_symmetry_space_group_name_H-M "I B A M"
_symmetry_group_IT_number 72
_symmetry_cell_setting 'orthorhombic'
loop_
_space_group_symop_operation_xyz
x,y,z
-x,-y,z
x,-y,1/2-z
-x,y,1/2-z
-x,-y,-z
x,y,-z
-x,y,1/2+z
x,-y,1/2+z
1/2+x,1/2+y,1/2+z
1/2-x,1/2-y,1/2+z
1/2+x,1/2-y,-z
1/2-x,1/2+y,-z
1/2-x,1/2-y,1/2-z
1/2+x,1/2+y,1/2-z
1/2-x,1/2+y,z
1/2+x,1/2-y,z
loop_
_atom_site_type_symbol
_atom_site_label
_atom_site_fract_x
_atom_site_fract_y
_atom_site_fract_z
Si Si1 0.676463 0.999986 0.301054
Si Si2 0.262223 0.925129 0.603766
Si Si3 0.488654 0.157187 0.699589
Si Si4 0.900137 0.572261 0.051877
Si Si5 0.960841 0.280873 0.896245
Si Si6 0.957037 0.892780 0.053942
O O1 0.754531 0.037392 0.342716
O O2 0.575140 0.071486 0.300053
O O3 0.735872 0.000000 0.250000
O O4 0.629334 0.891805 0.310018
O O5 0.350042 0.839978 0.597919
O O6 0.152406 0.881315 0.583632
O O7 0.296984 0.018944 0.574163
O O8 0.500000 0.210435 0.750000
O O9 0.514152 0.234242 0.658881
O O10 0.000000 0.500000 0.050133
O O11 0.935295 0.663742 0.082289
O O12 0.867501 0.606894 0.000000
O O13 0.953293 0.178496 0.922901
O O14 0.937001 0.864532 0.000000
O O15 0.000000 0.000000 0.058639
#
# Coordination Sequence:
#
# PCOD8293675 Si02
#       6
#    16  16  16  16  16  16
#     4   8  13  25  52  88 118 144 175 222 281 339
#     4  10  19  35  59  84 115 148 184 233 287 338
#     4   8  13  25  52  88 118 141 175 229 284 326
#     4   9  16  27  50  84 112 134 175 234 282 324
#     4  10  19  35  59  83 111 144 192 240 276 330
#     4  11  26  43  56  75 111 155 193 232 287 348
#
# _framework density 19.699622999999999
#
# number of rings (size 3 to 8) (size 9 to 14) (size 15 to 20)
#    0.000    2.667    1.667    2.000    0.000    3.333 
#    0.000    1.667    3.667    3.000    0.000    0.000 
#    0.000    0.000    0.000    0.000    0.000    0.000 
#
# Total GULP energy -594849.620978 kJ/mol
# GULP energy per Si atom -12392.700437 kJ/mol
# Density = 1.965479 g / cm^3
# Si number density = 19.699623 Si / 1000 Ang^3
#
#
#
# Elastic Constant Matrix: (Units=GPa)
#
#
# Indices 1 2 3 4 5 6 
#
# 1 50.5031 16.6968 39.8437 0.0000 0.0000 0.0000
# 2 16.6968 68.4327 49.3945 0.0000 0.0000 0.0000
# 3 39.8437 49.3945 191.9374 0.0000 0.0000 0.0000
# 4 0.0000 0.0000 0.0000 26.3952 0.0000 0.0000
# 5 0.0000 0.0000 0.0000 0.0000 20.2196 0.0000
# 6 0.0000 0.0000 0.0000 0.0000 0.0000 15.4323
#
#
#
# Elastic Compliance Matrix: (Units=1/GPa)
#
#
# Indices 1 2 3 4 5 6 
#
# 1 0.024104 -0.002787 -0.004286 0.000000 0.000000 0.000000
# 2 -0.002787 0.018269 -0.004123 0.000000 0.000000 0.000000
# 3 -0.004286 -0.004123 0.007161 0.000000 0.000000 0.000000
# 4 0.000000 0.000000 0.000000 0.037886 0.000000 0.000000
# 5 0.000000 0.000000 0.000000 0.000000 0.049457 0.000000
# 6 0.000000 0.000000 0.000000 0.000000 0.000000 0.064799
#
#
# Mechanical properties :
#
#
# Convention : Reuss Voigt Hill
#
# Bulk Modulus (GPa) = 36.84499 58.08258 47.46379
# Shear Modulus (GPa) = 21.44864 26.07197 23.76031
#
# Velocity S-wave (km/s) = 3.30325 3.64191 3.47671
# Velocity P-wave (km/s) = 5.76998 6.87261 6.34529
#
# Compressibility (1/GPa) = 0.02714073
#
# Stress axis : x y z
#
# Youngs Moduli (GPa) = 41.48699 54.73817 139.64868
#
# Poissons Ratio (x) = 0.15257 0.59859
# Poissons Ratio (y) = 0.11563 0.57575
# Poissons Ratio (z) = 0.17783 0.22568
#
# Static dielectric constant tensor:
#      x y z
#    x 3.084100 0.000000 0.000000 
#    y 0.000000 3.318460 0.000000 
#    z 0.000000 0.000000 4.351160 
# 
# 
# High freq. dielectric constant tensor:
#      x y z
#    x 1.717360 0.000000 0.000000 
#    y 0.000000 1.735400 0.000000 
#    z 0.000000 0.000000 1.792210 
# 
# From -- ./inp_files/48127.got.cif
#   From: 2010.03.12/outbox.cif.g09.slc.cpg/sg72_25_cif.got.tgz:48127.got - 2010.04.16 14:54:00.
