data_PCOD8293887
_publ_section_title
;
Structure prediction by ZEFSAII (Michael W. Deem and Ramdas Pophale) SiO2 
 PCOD8293887
Probable space group: I B A M
;
_chemical_formula_sum "Si O2"
_cell_formula_units_Z 80
_cell_length_a 12.449634
_cell_length_b 13.723917
_cell_length_c 24.784066
_cell_angle_alpha 90.000000
_cell_angle_beta 90.000000
_cell_angle_gamma 90.000000
_cell_volume 4234.549596
_symmetry_space_group_name_H-M "I B A M"
_symmetry_group_IT_number 72
_symmetry_cell_setting 'orthorhombic'
loop_
_space_group_symop_operation_xyz
x,y,z
-x,-y,z
x,-y,1/2-z
-x,y,1/2-z
-x,-y,-z
x,y,-z
-x,y,1/2+z
x,-y,1/2+z
1/2+x,1/2+y,1/2+z
1/2-x,1/2-y,1/2+z
1/2+x,1/2-y,-z
1/2-x,1/2+y,-z
1/2-x,1/2-y,1/2-z
1/2+x,1/2+y,1/2-z
1/2-x,1/2+y,z
1/2+x,1/2-y,z
loop_
_atom_site_type_symbol
_atom_site_label
_atom_site_fract_x
_atom_site_fract_y
_atom_site_fract_z
Si Si1 0.428753 0.873337 0.355088
Si Si2 0.866881 0.441945 0.694814
Si Si3 0.442891 0.596156 0.560015
Si Si4 0.422593 0.786389 0.939627
Si Si5 0.278558 0.306957 0.135145
O O1 0.519810 0.882419 0.307696
O O2 0.489247 0.857521 0.412045
O O3 0.345849 0.785533 0.342927
O O4 0.366249 0.977095 0.353944
O O5 0.850310 0.500000 0.750000
O O6 0.769930 0.365678 0.686205
O O7 0.500000 0.500000 0.581550
O O8 0.393583 0.580562 0.500000
O O9 0.531556 0.679027 0.557677
O O10 0.351385 0.618725 0.602508
O O11 0.315267 0.774688 0.905059
O O12 0.398553 0.825841 0.000000
#
# Coordination Sequence:
#
# PCOD8293887 Si02
#       5
#    16  16  16  16  16
#     4   9  19  36  56  80 109 146 179 227 275 323
#     4  10  21  39  60  80 107 143 189 236 281 327
#     4   9  18  32  51  77 112 150 178 217 272 323
#     4   9  18  33  52  80 115 147 181 220 264 325
#     4  10  20  33  57  83 109 144 184 227 273 329
#
# _framework density 18.892209999999999
#
# number of rings (size 3 to 8) (size 9 to 14) (size 15 to 20)
#    0.000    2.600    0.000    1.800    2.800    1.600 
#    0.000    9.000    0.000    0.000    0.000    0.000 
#    0.000    0.000    0.000    0.000    0.000    0.000 
#
# Total GULP energy -495685.072643 kJ/mol
# GULP energy per Si atom -12392.126816 kJ/mol
# Density = 1.884921 g / cm^3
# Si number density = 18.892210 Si / 1000 Ang^3
#
#
#
# Elastic Constant Matrix: (Units=GPa)
#
#
# Indices 1 2 3 4 5 6 
#
# 1 103.4775 55.0272 43.9323 0.0000 0.0000 0.0000
# 2 55.0272 101.8548 44.1373 0.0000 0.0000 0.0000
# 3 43.9323 44.1373 97.6445 0.0000 0.0000 0.0000
# 4 0.0000 0.0000 0.0000 30.7611 0.0000 0.0000
# 5 0.0000 0.0000 0.0000 0.0000 17.7477 0.0000
# 6 0.0000 0.0000 0.0000 0.0000 0.0000 34.3244
#
#
#
# Elastic Compliance Matrix: (Units=1/GPa)
#
#
# Indices 1 2 3 4 5 6 
#
# 1 0.014575 -0.006258 -0.003729 0.000000 0.000000 0.000000
# 2 -0.006258 0.014897 -0.003918 0.000000 0.000000 0.000000
# 3 -0.003729 -0.003918 0.013690 0.000000 0.000000 0.000000
# 4 0.000000 0.000000 0.000000 0.032509 0.000000 0.000000
# 5 0.000000 0.000000 0.000000 0.000000 0.056345 0.000000
# 6 0.000000 0.000000 0.000000 0.000000 0.000000 0.029134
#
#
# Mechanical properties :
#
#
# Convention : Reuss Voigt Hill
#
# Bulk Modulus (GPa) = 65.13936 65.46339 65.30137
# Shear Modulus (GPa) = 25.76304 27.22531 26.49418
#
# Velocity S-wave (km/s) = 3.69682 3.80028 3.74891
# Velocity P-wave (km/s) = 7.26473 7.34727 7.30612
#
# Compressibility (1/GPa) = 0.01535170
#
# Stress axis : x y z
#
# Youngs Moduli (GPa) = 68.61013 67.12863 73.04709
#
# Poissons Ratio (x) = 0.42012 0.27237
# Poissons Ratio (y) = 0.42939 0.28619
# Poissons Ratio (z) = 0.25583 0.26300
#
# Static dielectric constant tensor:
#      x y z
#    x 3.502360 0.000000 0.000000 
#    y 0.000000 3.571580 0.000000 
#    z 0.000000 0.000000 3.443360 
# 
# 
# High freq. dielectric constant tensor:
#      x y z
#    x 1.731330 0.000000 0.000000 
#    y 0.000000 1.737850 0.000000 
#    z 0.000000 0.000000 1.718750 
# 
# From -- ./inp_files/43081.got.cif
#   From: 2010.03.12/outbox.cif.g09.slc.cpg/sg72_22_cif.got.tgz:43081.got - 2010.04.16 14:54:00.
