data_PCOD8293311
_publ_section_title
;
Structure prediction by ZEFSAII (Michael W. Deem and Ramdas Pophale) SiO2 
 PCOD8293311
Probable space group: I B A M
;
_chemical_formula_sum "Si O2"
_cell_formula_units_Z 128
_cell_length_a 17.464419
_cell_length_b 20.135946
_cell_length_c 20.430401
_cell_angle_alpha 90.000000
_cell_angle_beta 90.000000
_cell_angle_gamma 90.000000
_cell_volume 7184.607892
_symmetry_space_group_name_H-M "I B A M"
_symmetry_group_IT_number 72
_symmetry_cell_setting 'orthorhombic'
loop_
_space_group_symop_operation_xyz
x,y,z
-x,-y,z
x,-y,1/2-z
-x,y,1/2-z
-x,-y,-z
x,y,-z
-x,y,1/2+z
x,-y,1/2+z
1/2+x,1/2+y,1/2+z
1/2-x,1/2-y,1/2+z
1/2+x,1/2-y,-z
1/2-x,1/2+y,-z
1/2-x,1/2-y,1/2-z
1/2+x,1/2+y,1/2-z
1/2-x,1/2+y,z
1/2+x,1/2-y,z
loop_
_atom_site_type_symbol
_atom_site_label
_atom_site_fract_x
_atom_site_fract_y
_atom_site_fract_z
Si Si1 0.917661 0.875674 0.225621
Si Si2 0.804701 0.679595 0.185281
Si Si3 0.165549 0.115371 0.358537
Si Si4 0.915656 0.235643 0.619235
Si Si5 0.204491 0.689543 0.832583
Si Si6 0.409259 0.738770 0.423054
Si Si7 0.085589 0.979810 0.378498
Si Si8 0.683773 0.634720 0.430299
O O1 0.858836 0.869326 0.284377
O O2 0.896577 0.819934 0.173911
O O3 0.918486 0.949501 0.194742
O O4 0.000000 0.855981 0.250000
O O5 0.758290 0.621988 0.145658
O O6 0.885176 0.693785 0.147778
O O7 0.821035 0.661067 0.261509
O O8 0.751401 0.743849 0.178924
O O9 0.125531 0.166223 0.408691
O O10 0.141605 0.042556 0.380657
O O11 0.861307 0.205739 0.562631
O O12 0.002000 0.241143 0.596346
O O13 0.131684 0.705640 0.878609
O O14 0.254973 0.634137 0.870808
O O15 0.399089 0.754583 0.500000
O O16 0.121629 0.924491 0.425261
O O17 0.000000 0.000000 0.401719
O O18 0.726666 0.625687 0.500000
#
# Coordination Sequence:
#
# PCOD8293311 Si02
#       8
#    16  16  16  16  16  16  16  16
#     4  11  18  29  48  71  97 130 166 209 243 286
#     4   9  18  31  50  71  98 123 158 212 258 298
#     4  11  20  32  48  72 101 133 170 203 245 292
#     4  10  19  31  48  73  95 126 163 205 258 291
#     4   9  18  33  49  71  92 125 166 203 252 295
#     4  11  21  32  49  71  99 131 166 203 242 300
#     4  11  21  30  46  73 100 135 171 202 239 282
#     4  10  20  34  47  64 100 139 169 198 233 287
#
# _framework density 17.815864000000001
#
# number of rings (size 3 to 8) (size 9 to 14) (size 15 to 20)
#    0.000    1.750    2.500    5.625    0.000    0.750 
#    0.000    0.625    0.000    0.000    0.000    0.875 
#    0.000    4.000    0.000    0.000    0.000    0.000 
#
# Total GULP energy -793041.612444 kJ/mol
# GULP energy per Si atom -12391.275194 kJ/mol
# Density = 1.777531 g / cm^3
# Si number density = 17.815864 Si / 1000 Ang^3
#
#
#
# Elastic Constant Matrix: (Units=GPa)
#
#
# Indices 1 2 3 4 5 6 
#
# 1 81.9481 41.3166 36.6585 0.0000 0.0000 0.0000
# 2 41.3166 61.3693 23.7504 0.0000 0.0000 0.0000
# 3 36.6585 23.7504 100.8881 0.0000 0.0000 0.0000
# 4 0.0000 0.0000 0.0000 12.4515 0.0000 0.0000
# 5 0.0000 0.0000 0.0000 0.0000 18.0644 0.0000
# 6 0.0000 0.0000 0.0000 0.0000 0.0000 34.9582
#
#
#
# Elastic Compliance Matrix: (Units=1/GPa)
#
#
# Indices 1 2 3 4 5 6 
#
# 1 0.020213 -0.011845 -0.004556 0.000000 0.000000 0.000000
# 2 -0.011845 0.024870 -0.001551 0.000000 0.000000 0.000000
# 3 -0.004556 -0.001551 0.011932 0.000000 0.000000 0.000000
# 4 0.000000 0.000000 0.000000 0.080312 0.000000 0.000000
# 5 0.000000 0.000000 0.000000 0.000000 0.055357 0.000000
# 6 0.000000 0.000000 0.000000 0.000000 0.000000 0.028606
#
#
# Mechanical properties :
#
#
# Convention : Reuss Voigt Hill
#
# Bulk Modulus (GPa) = 47.36753 49.73961 48.55357
# Shear Modulus (GPa) = 18.92289 22.59350 20.75819
#
# Velocity S-wave (km/s) = 3.26258 3.56500 3.41714
# Velocity P-wave (km/s) = 6.39043 6.70261 6.54838
#
# Compressibility (1/GPa) = 0.02111151
#
# Stress axis : x y z
#
# Youngs Moduli (GPa) = 49.47316 40.20988 83.80481
#
# Poissons Ratio (x) = 0.47629 0.38182
# Poissons Ratio (y) = 0.58601 0.12995
# Poissons Ratio (z) = 0.22540 0.06235
#
# Static dielectric constant tensor:
#      x y z
#    x 3.330110 0.000000 0.000000 
#    y 0.000000 3.098630 0.000000 
#    z 0.000000 0.000000 3.341890 
# 
# 
# High freq. dielectric constant tensor:
#      x y z
#    x 1.678430 0.000000 0.000000 
#    y 0.000000 1.643570 0.000000 
#    z 0.000000 0.000000 1.698590 
# 
# From -- ./inp_files/39358.got.cif
#   From: 2010.03.12/outbox.cif.g09.slc.cpg/sg72_20_cif.got.tgz:39358.got - 2010.04.16 14:54:00.
