data_PCOD8293269
_publ_section_title
;
Structure prediction by ZEFSAII (Michael W. Deem and Ramdas Pophale) SiO2 
 PCOD8293269
Probable space group: I B A M
;
_chemical_formula_sum "Si O2"
_cell_formula_units_Z 112
_cell_length_a 12.065557
_cell_length_b 28.608307
_cell_length_c 17.736627
_cell_angle_alpha 90.000000
_cell_angle_beta 90.000000
_cell_angle_gamma 90.000000
_cell_volume 6122.243041
_symmetry_space_group_name_H-M "I B A M"
_symmetry_group_IT_number 72
_symmetry_cell_setting 'orthorhombic'
loop_
_space_group_symop_operation_xyz
x,y,z
-x,-y,z
x,-y,1/2-z
-x,y,1/2-z
-x,-y,-z
x,y,-z
-x,y,1/2+z
x,-y,1/2+z
1/2+x,1/2+y,1/2+z
1/2-x,1/2-y,1/2+z
1/2+x,1/2-y,-z
1/2-x,1/2+y,-z
1/2-x,1/2-y,1/2-z
1/2+x,1/2+y,1/2-z
1/2-x,1/2+y,z
1/2+x,1/2-y,z
loop_
_atom_site_type_symbol
_atom_site_label
_atom_site_fract_x
_atom_site_fract_y
_atom_site_fract_z
Si Si1 0.809352 0.228735 0.590253
Si Si2 0.625090 0.494433 0.661286
Si Si3 0.315924 0.397681 0.910114
Si Si4 0.875122 0.329229 0.410855
Si Si5 0.878095 0.660951 0.410008
Si Si6 0.777886 0.919422 0.914817
Si Si7 0.971753 0.847221 0.914971
O O1 0.812815 0.226355 0.500000
O O2 0.820649 0.281407 0.621171
O O3 0.693276 0.205911 0.617804
O O4 0.912344 0.197725 0.623114
O O5 0.500000 0.500000 0.628288
O O6 0.621435 0.500000 0.750000
O O7 0.676546 0.445486 0.635530
O O8 0.709612 0.533528 0.632080
O O9 0.199288 0.373673 0.889118
O O10 0.411442 0.362589 0.878528
O O11 0.328234 0.406785 0.000000
O O12 0.883747 0.324200 0.500000
O O13 0.998044 0.335924 0.376486
O O14 0.878454 0.659985 0.500000
O O15 0.820582 0.613012 0.381176
O O16 0.892570 0.891767 0.911100
O O17 0.749543 0.933834 0.000000
O O18 0.998981 0.832765 0.000000
#
# Coordination Sequence:
#
# PCOD8293269 Si02
#       7
#    16  16  16  16  16  16  16
#     4   8  14  23  39  65 101 137 159 190 241 289
#     4  11  22  34  50  73  99 122 161 209 262 302
#     4  10  19  30  47  73 104 133 163 204 247 292
#     4   9  17  26  41  68 104 137 164 199 241 286
#     4   8  15  27  42  66  98 131 168 197 234 290
#     4   9  16  30  51  70  93 128 161 199 244 294
#     4   8  14  24  41  67  96 125 159 190 233 290
#
# _framework density 18.293949000000001
#
# number of rings (size 3 to 8) (size 9 to 14) (size 15 to 20)
#    0.000    3.000    1.429    2.143    2.000    0.571 
#    0.000    0.714    0.000    5.143    0.000    4.000 
#    8.571    0.000    0.000    0.000    0.000    0.000 
#
# Total GULP energy -693941.804135 kJ/mol
# GULP energy per Si atom -12391.817931 kJ/mol
# Density = 1.825231 g / cm^3
# Si number density = 18.293949 Si / 1000 Ang^3
#
#
#
# Elastic Constant Matrix: (Units=GPa)
#
#
# Indices 1 2 3 4 5 6 
#
# 1 147.1580 78.8920 17.7952 0.0000 0.0000 0.0000
# 2 78.8920 147.9691 26.4036 0.0000 0.0000 0.0000
# 3 17.7952 26.4036 22.1584 -0.0003 0.0002 0.0000
# 4 0.0000 0.0000 -0.0003 -0.5909 0.0001 0.0000
# 5 0.0000 0.0000 0.0002 0.0001 9.5859 0.0000
# 6 0.0000 0.0000 0.0000 0.0000 0.0000 25.3438
#
#
#
# Elastic Compliance Matrix: (Units=1/GPa)
#
#
# Indices 1 2 3 4 5 6 
#
# 1 0.009587 -0.004747 -0.002043 0.000002 0.000000 0.000000
# 2 -0.004747 0.010934 -0.009216 0.000003 0.000000 0.000000
# 3 -0.002043 -0.009216 0.057752 -0.000025 -0.000001 0.000000
# 4 0.000002 0.000003 -0.000025 -1.692234 0.000009 0.000000
# 5 0.000000 0.000000 -0.000001 0.000009 0.104320 0.000000
# 6 0.000000 0.000000 0.000000 0.000000 0.000000 0.039457
#
#
# Mechanical properties :
#
#
# Convention : Reuss Voigt Hill
#
# Bulk Modulus (GPa) = 21.61651 62.60743 42.11197
# Shear Modulus (GPa) = -3.51432 19.81405 8.14987
#
# Velocity S-wave (km/s) = -1.38752 3.29461 2.11297
# Velocity P-wave (km/s) = 3.04548 6.98355 5.38725
#
# Compressibility (1/GPa) = 0.04626093
#
# Stress axis : x y z
#
# Youngs Moduli (GPa) = 104.30326 91.46039 17.31540
#
# Poissons Ratio (x) = 0.43418 0.03537
# Poissons Ratio (y) = 0.49514 0.15958
# Poissons Ratio (z) = 0.21308 0.84290
#
# Static dielectric constant tensor:
#      x y z
#    x 3.589420 0.000000 0.000000 
#    y 0.000000 3.435810 0.000000 
#    z 0.000000 0.000000 2.701450 
# 
# 
# High freq. dielectric constant tensor:
#      x y z
#    x 1.708710 0.000000 0.000000 
#    y 0.000000 1.715090 0.000000 
#    z 0.000000 0.000000 1.634170 
# 
# From -- ./inp_files/37438.got.cif
#   From: 2010.03.12/outbox.cif.g09.slc.cpg/sg72_19_cif.got.tgz:37438.got - 2010.04.16 14:54:00.
