data_PCOD8293678
_publ_section_title
;
Structure prediction by ZEFSAII (Michael W. Deem and Ramdas Pophale) SiO2 
 PCOD8293678
Probable space group: I B A M
;
_chemical_formula_sum "Si O2"
_cell_formula_units_Z 72
_cell_length_a 14.590450
_cell_length_b 18.263144
_cell_length_c 13.675531
_cell_angle_alpha 90.000000
_cell_angle_beta 90.000000
_cell_angle_gamma 90.000000
_cell_volume 3644.084411
_symmetry_space_group_name_H-M "I B A M"
_symmetry_group_IT_number 72
_symmetry_cell_setting 'orthorhombic'
loop_
_space_group_symop_operation_xyz
x,y,z
-x,-y,z
x,-y,1/2-z
-x,y,1/2-z
-x,-y,-z
x,y,-z
-x,y,1/2+z
x,-y,1/2+z
1/2+x,1/2+y,1/2+z
1/2-x,1/2-y,1/2+z
1/2+x,1/2-y,-z
1/2-x,1/2+y,-z
1/2-x,1/2-y,1/2-z
1/2+x,1/2+y,1/2-z
1/2-x,1/2+y,z
1/2+x,1/2-y,z
loop_
_atom_site_type_symbol
_atom_site_label
_atom_site_fract_x
_atom_site_fract_y
_atom_site_fract_z
Si Si1 0.878403 0.753169 0.000000
Si Si2 0.269510 0.640539 0.500000
Si Si3 0.091412 0.650609 0.790707
Si Si4 0.910471 0.719850 0.500000
Si Si5 0.841231 0.213422 0.707142
Si Si6 0.726322 0.420946 0.709295
O O1 0.838091 0.797471 0.091328
O O2 0.834307 0.671799 0.000000
O O3 0.987636 0.752239 0.000000
O O4 0.340526 0.710205 0.500000
O O5 0.277582 0.586138 0.592179
O O6 0.101436 0.666386 0.906446
O O7 0.080656 0.729173 0.735666
O O8 0.176446 0.602154 0.755257
O O9 0.000000 0.609234 0.750000
O O10 0.750000 0.250000 0.750000
O O11 0.853799 0.133552 0.753450
O O12 0.700402 0.500000 0.750000
#
# Coordination Sequence:
#
# PCOD8293678 Si02
#       6
#     8   8  16   8  16  16
#     4  12  20  37  65  95 123 151 206 268 306 350
#     4  12  20  40  62  88 122 164 206 250 316 360
#     4  11  20  37  60  92 119 152 206 256 307 361
#     4  12  22  33  69  95 115 159 208 260 314 360
#     4  10  19  35  59  85 113 160 203 246 293 349
#     4  11  24  38  59  88 126 167 199 250 305 379
#
# _framework density 19.758050000000001
#
# number of rings (size 3 to 8) (size 9 to 14) (size 15 to 20)
#    0.000    0.889    8.889    1.333    0.000    2.222 
#    0.000    0.000    0.000   11.333    0.000    0.000 
#    0.000    0.000    0.000    0.000    0.000    0.000 
#
# Total GULP energy -445974.135331 kJ/mol
# GULP energy per Si atom -12388.170426 kJ/mol
# Density = 1.971308 g / cm^3
# Si number density = 19.758050 Si / 1000 Ang^3
#
#
#
# Elastic Constant Matrix: (Units=GPa)
#
#
# Indices 1 2 3 4 5 6 
#
# 1 55.7564 -8.0323 7.3381 0.0000 0.0000 0.0000
# 2 -8.0323 88.2008 31.3123 0.0000 0.0000 0.0000
# 3 7.3381 31.3123 191.9895 0.0000 0.0000 0.0000
# 4 0.0000 0.0000 0.0000 26.7613 0.0000 0.0000
# 5 0.0000 0.0000 0.0000 0.0000 25.2840 0.0000
# 6 0.0000 0.0000 0.0000 0.0000 0.0000 13.7250
#
#
#
# Elastic Compliance Matrix: (Units=1/GPa)
#
#
# Indices 1 2 3 4 5 6 
#
# 1 0.018365 0.002040 -0.001035 0.000000 0.000000 0.000000
# 2 0.002040 0.012261 -0.002078 0.000000 0.000000 0.000000
# 3 -0.001035 -0.002078 0.005587 0.000000 0.000000 0.000000
# 4 0.000000 0.000000 0.000000 0.037367 0.000000 0.000000
# 5 0.000000 0.000000 0.000000 0.000000 0.039551 0.000000
# 6 0.000000 0.000000 0.000000 0.000000 0.000000 0.072860
#
#
# Mechanical properties :
#
#
# Convention : Reuss Voigt Hill
#
# Bulk Modulus (GPa) = 29.35281 44.13144 36.74212
# Shear Modulus (GPa) = 25.06362 33.50931 29.28646
#
# Velocity S-wave (km/s) = 3.56550 4.12270 3.85418
# Velocity P-wave (km/s) = 5.64259 6.71168 6.20022
#
# Compressibility (1/GPa) = 0.03406829
#
# Stress axis : x y z
#
# Youngs Moduli (GPa) = 54.45091 81.55862 178.98638
#
# Poissons Ratio (x) = -0.16636 0.18518
# Poissons Ratio (y) = -0.11107 0.37188
# Poissons Ratio (z) = 0.05634 0.16945
#
# Static dielectric constant tensor:
#      x y z
#    x 3.810040 0.000000 0.000000 
#    y 0.000000 3.603770 0.000000 
#    z 0.000000 0.000000 3.985470 
# 
# 
# High freq. dielectric constant tensor:
#      x y z
#    x 1.768690 0.000000 0.000000 
#    y 0.000000 1.724930 0.000000 
#    z 0.000000 0.000000 1.798210 
# 
# From -- ./inp_files/21491.got.cif
#   From: 2010.03.12/outbox.cif.g09.slc.cpg/sg72_11_cif.got.tgz:21491.got - 2010.04.16 14:54:00.
