data_PCOD8293806
_publ_section_title
;
Structure prediction by ZEFSAII (Michael W. Deem and Ramdas Pophale) SiO2 
 PCOD8293806
Probable space group: I B A M
;
_chemical_formula_sum "Si O2"
_cell_formula_units_Z 68
_cell_length_a 20.343157
_cell_length_b 20.248431
_cell_length_c 8.962218
_cell_angle_alpha 90.000000
_cell_angle_beta 90.000000
_cell_angle_gamma 90.000000
_cell_volume 3691.690049
_symmetry_space_group_name_H-M "I B A M"
_symmetry_group_IT_number 72
_symmetry_cell_setting 'orthorhombic'
loop_
_space_group_symop_operation_xyz
x,y,z
-x,-y,z
x,-y,1/2-z
-x,y,1/2-z
-x,-y,-z
x,y,-z
-x,y,1/2+z
x,-y,1/2+z
1/2+x,1/2+y,1/2+z
1/2-x,1/2-y,1/2+z
1/2+x,1/2-y,-z
1/2-x,1/2+y,-z
1/2-x,1/2-y,1/2-z
1/2+x,1/2+y,1/2-z
1/2-x,1/2+y,z
1/2+x,1/2-y,z
loop_
_atom_site_type_symbol
_atom_site_label
_atom_site_fract_x
_atom_site_fract_y
_atom_site_fract_z
Si Si1 0.304250 0.203478 0.175482
Si Si2 0.601910 0.603167 0.665276
Si Si3 0.566847 0.745670 0.321547
Si Si4 0.000000 0.000000 0.250000
Si Si5 0.240948 0.064657 0.826981
O O1 0.250000 0.250000 0.250000
O O2 0.373337 0.212083 0.257466
O O3 0.286499 0.127351 0.202883
O O4 0.308838 0.220162 0.000000
O O5 0.623927 0.624105 0.500000
O O6 0.575039 0.670250 0.739571
O O7 0.546356 0.546942 0.652070
O O8 0.668288 0.577880 0.745828
O O9 0.500000 0.773952 0.250000
O O10 0.563585 0.751347 0.500000
O O11 0.272082 0.000000 0.750000
O O12 0.234496 0.048166 0.000000
#
# Coordination Sequence:
#
# PCOD8293806 Si02
#       5
#    16  16  16   4  16
#     4  11  22  38  60  87 117 156 201 250 297 351
#     4  10  20  32  48  75 112 152 191 230 272 332
#     4  11  22  39  58  84 117 152 197 246 295 351
#     4  12  18  32  48  74 116 160 190 224 274 332
#     4  10  21  38  56  81 115 150 195 242 290 346
#
# _framework density 18.419747999999998
#
# number of rings (size 3 to 8) (size 9 to 14) (size 15 to 20)
#    0.000    1.412    4.706    1.765    0.000    1.882 
#    0.000    0.000    0.000    0.706    0.000    4.941 
#    0.000    0.000    0.000    0.000    0.000    0.000 
#
# Total GULP energy -421496.222876 kJ/mol
# GULP energy per Si atom -12396.947732 kJ/mol
# Density = 1.837782 g / cm^3
# Si number density = 18.419748 Si / 1000 Ang^3
#
#
#
# Elastic Constant Matrix: (Units=GPa)
#
#
# Indices 1 2 3 4 5 6 
#
# 1 142.8480 63.4073 53.0332 0.0000 0.0000 0.0000
# 2 63.4073 109.0472 50.0725 0.0000 0.0000 0.0000
# 3 53.0332 50.0725 92.7880 0.0000 0.0000 0.0000
# 4 0.0000 0.0000 0.0000 26.0981 0.0000 0.0000
# 5 0.0000 0.0000 0.0000 0.0000 29.8475 0.0000
# 6 0.0000 0.0000 0.0000 0.0000 0.0000 30.0107
#
#
#
# Elastic Compliance Matrix: (Units=1/GPa)
#
#
# Indices 1 2 3 4 5 6 
#
# 1 0.010227 -0.004337 -0.003505 0.000000 0.000000 0.000000
# 2 -0.004337 0.014031 -0.005093 0.000000 0.000000 0.000000
# 3 -0.003505 -0.005093 0.015528 0.000000 0.000000 0.000000
# 4 0.000000 0.000000 0.000000 0.038317 0.000000 0.000000
# 5 0.000000 0.000000 0.000000 0.000000 0.033504 0.000000
# 6 0.000000 0.000000 0.000000 0.000000 0.000000 0.033321
#
#
# Mechanical properties :
#
#
# Convention : Reuss Voigt Hill
#
# Bulk Modulus (GPa) = 71.85406 75.30103 73.57754
# Shear Modulus (GPa) = 28.50043 29.06929 28.78486
#
# Velocity S-wave (km/s) = 3.93781 3.97691 3.95741
# Velocity P-wave (km/s) = 7.73105 7.87764 7.80469
#
# Compressibility (1/GPa) = 0.01391710
#
# Stress axis : x y z
#
# Youngs Moduli (GPa) = 97.78265 71.27189 64.39776
#
# Poissons Ratio (x) = 0.30913 0.22568
# Poissons Ratio (y) = 0.42411 0.32795
# Poissons Ratio (z) = 0.34268 0.36296
#
# Static dielectric constant tensor:
#      x y z
#    x 3.493560 0.000000 0.000000 
#    y 0.000000 3.377120 0.000000 
#    z 0.000000 0.000000 3.240560 
# 
# 
# High freq. dielectric constant tensor:
#      x y z
#    x 1.711220 0.000000 0.000000 
#    y 0.000000 1.706790 0.000000 
#    z 0.000000 0.000000 1.704600 
# 
# From -- ./inp_files/4394.got.cif
#   From: 2010.03.12/outbox.cif.g09.slc.cpg/sg72_3_cif.got.tgz:4394.got - 2010.04.16 14:54:00.
