data_PCOD8293160
_publ_section_title
;
Structure prediction by ZEFSAII (Michael W. Deem and Ramdas Pophale) SiO2 
 PCOD8293160
Probable space group: I B A M
;
_chemical_formula_sum "Si O2"
_cell_formula_units_Z 112
_cell_length_a 18.029058
_cell_length_b 18.944041
_cell_length_c 18.430026
_cell_angle_alpha 90.000000
_cell_angle_beta 90.000000
_cell_angle_gamma 90.000000
_cell_volume 6294.650313
_symmetry_space_group_name_H-M "I B A M"
_symmetry_group_IT_number 72
_symmetry_cell_setting 'orthorhombic'
loop_
_space_group_symop_operation_xyz
x,y,z
-x,-y,z
x,-y,1/2-z
-x,y,1/2-z
-x,-y,-z
x,y,-z
-x,y,1/2+z
x,-y,1/2+z
1/2+x,1/2+y,1/2+z
1/2-x,1/2-y,1/2+z
1/2+x,1/2-y,-z
1/2-x,1/2+y,-z
1/2-x,1/2-y,1/2-z
1/2+x,1/2+y,1/2-z
1/2-x,1/2+y,z
1/2+x,1/2-y,z
loop_
_atom_site_type_symbol
_atom_site_label
_atom_site_fract_x
_atom_site_fract_y
_atom_site_fract_z
Si Si1 0.946772 0.438312 0.083473
Si Si2 0.388478 0.719611 0.583271
Si Si3 0.168622 0.697675 0.681379
Si Si4 0.279551 0.182732 0.836316
Si Si5 0.226966 0.893450 0.916456
Si Si6 0.223829 0.454055 0.417661
Si Si7 0.997936 0.301654 0.335597
O O1 0.863749 0.467293 0.093553
O O2 0.960404 0.369177 0.131245
O O3 0.000000 0.500000 0.112025
O O4 0.964097 0.419206 0.000000
O O5 0.411934 0.729153 0.500000
O O6 0.325991 0.778149 0.601027
O O7 0.354144 0.641436 0.597793
O O8 0.460854 0.731765 0.633309
O O9 0.204929 0.775026 0.681861
O O10 0.167855 0.672957 0.765566
O O11 0.213624 0.642122 0.634871
O O12 0.088403 0.701173 0.643733
O O13 0.250407 0.107576 0.864147
O O14 0.228040 0.976537 0.898205
O O15 0.250529 0.880779 0.000000
O O16 0.240142 0.431110 0.500000
O O17 0.000000 0.302818 0.250000
#
# Coordination Sequence:
#
# PCOD8293160 Si02
#       7
#    16  16  16  16  16  16  16
#     4  10  20  32  49  75 111 147 176 210 263 331
#     4  10  19  35  55  76 106 147 187 222 270 328
#     4  10  21  34  52  77 112 140 179 225 268 325
#     4  10  19  35  54  78 104 143 182 223 270 322
#     4   9  20  35  54  78 107 144 186 228 267 320
#     4  10  18  33  54  77 105 141 183 222 264 316
#     4  12  21  33  52  80 109 144 176 222 276 326
#
# _framework density 17.792885999999999
#
# number of rings (size 3 to 8) (size 9 to 14) (size 15 to 20)
#    0.000    1.857    2.857    1.714    0.000    3.714 
#    0.000    2.857    0.000    0.857    0.000    4.000 
#    0.000    0.000    0.000    0.000    0.000    0.000 
#
# Total GULP energy -694372.117986 kJ/mol
# GULP energy per Si atom -12399.502107 kJ/mol
# Density = 1.775239 g / cm^3
# Si number density = 17.792886 Si / 1000 Ang^3
#
#
#
# Elastic Constant Matrix: (Units=GPa)
#
#
# Indices 1 2 3 4 5 6 
#
# 1 63.0761 40.2052 32.7576 0.0000 0.0000 0.0000
# 2 40.2052 121.5266 55.5747 0.0000 0.0000 0.0000
# 3 32.7576 55.5747 90.4295 0.0000 0.0000 0.0000
# 4 0.0000 0.0000 0.0000 26.3367 0.0000 0.0000
# 5 0.0000 0.0000 0.0000 0.0000 23.8493 0.0000
# 6 0.0000 0.0000 0.0000 0.0000 0.0000 27.0558
#
#
#
# Elastic Compliance Matrix: (Units=1/GPa)
#
#
# Indices 1 2 3 4 5 6 
#
# 1 0.021460 -0.004930 -0.004744 0.000000 0.000000 0.000000
# 2 -0.004930 0.012578 -0.005944 0.000000 0.000000 0.000000
# 3 -0.004744 -0.005944 0.016430 0.000000 0.000000 0.000000
# 4 0.000000 0.000000 0.000000 0.037970 0.000000 0.000000
# 5 0.000000 0.000000 0.000000 0.000000 0.041930 0.000000
# 6 0.000000 0.000000 0.000000 0.000000 0.000000 0.036961
#
#
# Mechanical properties :
#
#
# Convention : Reuss Voigt Hill
#
# Bulk Modulus (GPa) = 51.99790 59.12302 55.56046
# Shear Modulus (GPa) = 24.39320 25.21467 24.80394
#
# Velocity S-wave (km/s) = 3.70665 3.76855 3.73773
# Velocity P-wave (km/s) = 6.89974 7.22749 7.06552
#
# Compressibility (1/GPa) = 0.01923155
#
# Stress axis : x y z
#
# Youngs Moduli (GPa) = 46.59802 79.50382 60.86538
#
# Poissons Ratio (x) = 0.39199 0.28873
# Poissons Ratio (y) = 0.22975 0.36178
# Poissons Ratio (z) = 0.22105 0.47257
#
# Static dielectric constant tensor:
#      x y z
#    x 3.385590 0.000000 0.000000 
#    y 0.000000 3.326820 0.000000 
#    z 0.000000 0.000000 3.375800 
# 
# 
# High freq. dielectric constant tensor:
#      x y z
#    x 1.670600 0.000000 0.000000 
#    y 0.000000 1.676700 0.000000 
#    z 0.000000 0.000000 1.697110 
# 
# From -- ./inp_files/39199.got.cif
#   From: 2010.03.12/outbox.cif.g09.slc.cpg/sg72_20_cif.got.tgz:39199.got - 2010.04.16 14:54:00.
