data_PCOD8293609
_publ_section_title
;
Structure prediction by ZEFSAII (Michael W. Deem and Ramdas Pophale) SiO2 
 PCOD8293609
Probable space group: I B A M
;
_chemical_formula_sum "Si O2"
_cell_formula_units_Z 112
_cell_length_a 18.799398
_cell_length_b 17.902521
_cell_length_c 18.562863
_cell_angle_alpha 90.000000
_cell_angle_beta 90.000000
_cell_angle_gamma 90.000000
_cell_volume 6247.454382
_symmetry_space_group_name_H-M "I B A M"
_symmetry_group_IT_number 72
_symmetry_cell_setting 'orthorhombic'
loop_
_space_group_symop_operation_xyz
x,y,z
-x,-y,z
x,-y,1/2-z
-x,y,1/2-z
-x,-y,-z
x,y,-z
-x,y,1/2+z
x,-y,1/2+z
1/2+x,1/2+y,1/2+z
1/2-x,1/2-y,1/2+z
1/2+x,1/2-y,-z
1/2-x,1/2+y,-z
1/2-x,1/2-y,1/2-z
1/2+x,1/2+y,1/2-z
1/2-x,1/2+y,z
1/2+x,1/2-y,z
loop_
_atom_site_type_symbol
_atom_site_label
_atom_site_fract_x
_atom_site_fract_y
_atom_site_fract_z
Si Si1 0.442563 0.440731 0.082929
Si Si2 0.959649 0.770186 0.417860
Si Si3 0.785663 0.653928 0.809962
Si Si4 0.324057 0.780791 0.336390
Si Si5 0.117962 0.264491 0.082535
Si Si6 0.714894 0.369842 0.917652
Si Si7 0.308046 0.483589 0.829089
O O1 0.500000 0.500000 0.113426
O O2 0.473040 0.358093 0.093070
O O3 0.369060 0.444540 0.125133
O O4 0.426089 0.459892 0.000000
O O5 0.934303 0.755155 0.500000
O O6 0.903816 0.737351 0.361085
O O7 0.034318 0.730317 0.401790
O O8 0.714979 0.704297 0.814805
O O9 0.823639 0.664447 0.732609
O O10 0.843121 0.673162 0.870602
O O11 0.761343 0.568976 0.822252
O O12 0.284724 0.820317 0.403071
O O13 0.146127 0.181071 0.100749
O O14 0.135802 0.282945 0.000000
O O15 0.716131 0.440173 0.865803
O O16 0.714424 0.396893 0.000000
O O17 0.338846 0.500000 0.750000
#
# Coordination Sequence:
#
# PCOD8293609 Si02
#       7
#    16  16  16  16  16  16  16
#     4  10  21  36  54  81 118 153 186 223 276 342
#     4  10  19  34  57  83 111 145 185 232 279 333
#     4  10  21  36  55  78 111 150 188 235 276 328
#     4  10  19  36  55  80 109 145 191 235 274 327
#     4   9  20  36  56  83 113 144 185 232 278 333
#     4  10  20  35  56  81 113 150 185 228 281 334
#     4  12  22  36  54  81 114 149 187 232 280 337
#
# _framework density 17.927302000000001
#
# number of rings (size 3 to 8) (size 9 to 14) (size 15 to 20)
#    0.000    1.857    2.857    1.714    0.000    4.857 
#    0.000    1.429    0.000    0.857    0.000    3.000 
#    0.000    0.000    0.000    0.000    0.000    0.000 
#
# Total GULP energy -694526.842874 kJ/mol
# GULP energy per Si atom -12402.265051 kJ/mol
# Density = 1.788650 g / cm^3
# Si number density = 17.927302 Si / 1000 Ang^3
#
#
#
# Elastic Constant Matrix: (Units=GPa)
#
#
# Indices 1 2 3 4 5 6 
#
# 1 103.6612 29.5415 50.1074 0.0000 0.0000 0.0000
# 2 29.5415 46.5501 33.7522 0.0000 0.0000 0.0000
# 3 50.1074 33.7522 93.9590 0.0000 0.0000 0.0000
# 4 0.0000 0.0000 0.0000 30.3737 0.0000 0.0000
# 5 0.0000 0.0000 0.0000 0.0000 24.6338 0.0000
# 6 0.0000 0.0000 0.0000 0.0000 0.0000 26.5973
#
#
#
# Elastic Compliance Matrix: (Units=1/GPa)
#
#
# Indices 1 2 3 4 5 6 
#
# 1 0.013686 -0.004588 -0.005650 0.000000 0.000000 0.000000
# 2 -0.004588 0.030586 -0.008540 0.000000 0.000000 0.000000
# 3 -0.005650 -0.008540 0.016724 0.000000 0.000000 0.000000
# 4 0.000000 0.000000 0.000000 0.032923 0.000000 0.000000
# 5 0.000000 0.000000 0.000000 0.000000 0.040595 0.000000
# 6 0.000000 0.000000 0.000000 0.000000 0.000000 0.037598
#
#
# Mechanical properties :
#
#
# Convention : Reuss Voigt Hill
#
# Bulk Modulus (GPa) = 42.66532 52.33028 47.49780
# Shear Modulus (GPa) = 22.99039 25.03892 24.01465
#
# Velocity S-wave (km/s) = 3.58498 3.74129 3.66397
# Velocity P-wave (km/s) = 6.40210 6.92218 6.66721
#
# Compressibility (1/GPa) = 0.02343824
#
# Stress axis : x y z
#
# Youngs Moduli (GPa) = 73.06981 32.69419 59.79425
#
# Poissons Ratio (x) = 0.15001 0.33785
# Poissons Ratio (y) = 0.33527 0.51067
# Poissons Ratio (z) = 0.41285 0.27922
#
# Static dielectric constant tensor:
#      x y z
#    x 3.163790 0.000000 0.000000 
#    y 0.000000 3.168270 0.000000 
#    z 0.000000 0.000000 3.427110 
# 
# 
# High freq. dielectric constant tensor:
#      x y z
#    x 1.681660 0.000000 0.000000 
#    y 0.000000 1.678960 0.000000 
#    z 0.000000 0.000000 1.703990 
# 
# From -- ./inp_files/39190.got.cif
#   From: 2010.03.12/outbox.cif.g09.slc.cpg/sg72_20_cif.got.tgz:39190.got - 2010.04.16 14:54:00.
