data_PCOD8293600
_publ_section_title
;
Structure prediction by ZEFSAII (Michael W. Deem and Ramdas Pophale) SiO2 
 PCOD8293600
Probable space group: I B A M
;
_chemical_formula_sum "Si O2"
_cell_formula_units_Z 112
_cell_length_a 10.344328
_cell_length_b 29.583403
_cell_length_c 16.837076
_cell_angle_alpha 90.000000
_cell_angle_beta 90.000000
_cell_angle_gamma 90.000000
_cell_volume 5152.489136
_symmetry_space_group_name_H-M "I B A M"
_symmetry_group_IT_number 72
_symmetry_cell_setting 'orthorhombic'
loop_
_space_group_symop_operation_xyz
x,y,z
-x,-y,z
x,-y,1/2-z
-x,y,1/2-z
-x,-y,-z
x,y,-z
-x,y,1/2+z
x,-y,1/2+z
1/2+x,1/2+y,1/2+z
1/2-x,1/2-y,1/2+z
1/2+x,1/2-y,-z
1/2-x,1/2+y,-z
1/2-x,1/2-y,1/2-z
1/2+x,1/2+y,1/2-z
1/2-x,1/2+y,z
1/2+x,1/2-y,z
loop_
_atom_site_type_symbol
_atom_site_label
_atom_site_fract_x
_atom_site_fract_y
_atom_site_fract_z
Si Si1 0.051688 0.887326 0.407571
Si Si2 0.724525 0.349977 0.586048
Si Si3 0.816405 0.960545 0.191328
Si Si4 0.636888 0.979906 0.585122
Si Si5 0.631401 0.098533 0.205339
Si Si6 0.121922 0.233253 0.347179
Si Si7 0.351566 0.295660 0.671371
O O1 0.097244 0.890457 0.500000
O O2 0.075219 0.934096 0.359270
O O3 0.126004 0.845268 0.365487
O O4 0.898175 0.882876 0.401985
O O5 0.789458 0.359686 0.500000
O O6 0.820975 0.356379 0.660375
O O7 0.674558 0.298602 0.583131
O O8 0.721759 0.983958 0.130300
O O9 0.737697 0.921555 0.236074
O O10 0.872876 0.000000 0.250000
O O11 0.702936 0.967926 0.500000
O O12 0.500000 0.000000 0.566980
O O13 0.608106 0.935857 0.634863
O O14 0.500000 0.110717 0.250000
O O15 0.206427 0.279114 0.352165
O O16 0.143592 0.204213 0.266560
O O17 0.965996 0.239353 0.358234
#
# Coordination Sequence:
#
# PCOD8293600 Si02
#       7
#    16  16  16  16  16  16  16
#     4  10  21  40  63  88 123 165 210 261 319 379
#     4  10  22  40  61  85 122 165 203 253 317 375
#     4  10  21  36  61  87 119 153 206 259 313 370
#     4  10  19  34  56  80 114 152 191 243 312 375
#     4  11  21  37  57  82 113 154 199 250 300 377
#     4   9  18  36  59  89 125 165 211 251 309 371
#     4   9  18  35  61  90 125 168 208 258 308 371
#
# _framework density 21.737068000000001
#
# number of rings (size 3 to 8) (size 9 to 14) (size 15 to 20)
#    0.000    2.143    1.429    1.714    0.000    2.286 
#    7.714    5.000    0.000    7.714    0.000    0.000 
#    0.000    0.000    0.000    0.000    0.000    0.000 
#
# Total GULP energy -693804.722058 kJ/mol
# GULP energy per Si atom -12389.370037 kJ/mol
# Density = 2.168759 g / cm^3
# Si number density = 21.737068 Si / 1000 Ang^3
#
#
#
# Elastic Constant Matrix: (Units=GPa)
#
#
# Indices 1 2 3 4 5 6 
#
# 1 57.3276 24.2239 32.0758 0.0003 -0.0002 -0.0001
# 2 24.2239 60.4468 33.3349 0.0005 -0.0002 0.0000
# 3 32.0758 33.3349 129.0419 0.0026 -0.0007 -0.0002
# 4 0.0003 0.0005 0.0026 30.4766 -0.0003 -0.0001
# 5 -0.0002 -0.0002 -0.0007 -0.0003 23.9353 0.0002
# 6 -0.0001 0.0000 -0.0002 -0.0001 0.0002 28.0225
#
#
#
# Elastic Compliance Matrix: (Units=1/GPa)
#
#
# Indices 1 2 3 4 5 6 
#
# 1 0.022495 -0.006917 -0.003805 0.000000 0.000000 0.000000
# 2 -0.006917 0.021418 -0.003814 0.000000 0.000000 0.000000
# 3 -0.003805 -0.003814 0.009680 -0.000001 0.000000 0.000000
# 4 0.000000 0.000000 -0.000001 0.032812 0.000000 0.000000
# 5 0.000000 0.000000 0.000000 0.000000 0.041779 0.000000
# 6 0.000000 0.000000 0.000000 0.000000 0.000000 0.035686
#
#
# Mechanical properties :
#
#
# Convention : Reuss Voigt Hill
#
# Bulk Modulus (GPa) = 40.77699 47.34286 44.05992
# Shear Modulus (GPa) = 24.86130 26.96564 25.91347
#
# Velocity S-wave (km/s) = 3.38557 3.52595 3.45647
# Velocity P-wave (km/s) = 5.83804 6.19705 6.02022
#
# Compressibility (1/GPa) = 0.02452364
#
# Stress axis : x y z
#
# Youngs Moduli (GPa) = 44.45412 46.68877 103.30182
#
# Poissons Ratio (x) = 0.32293 0.39305
# Poissons Ratio (y) = 0.30747 0.39396
# Poissons Ratio (z) = 0.16914 0.17806
#
# Static dielectric constant tensor:
#      x y z
#    x 3.910190 0.000000 0.000000 
#    y 0.000000 3.640930 0.000000 
#    z 0.000000 0.000000 4.214970 
# 
# 
# High freq. dielectric constant tensor:
#      x y z
#    x 1.842870 0.000000 0.000000 
#    y 0.000000 1.837560 0.000000 
#    z 0.000000 0.000000 1.866180 
# 
# From -- ./inp_files/20666.got.cif
#   From: 2010.03.12/outbox.cif.g09.slc.cpg/sg72_11_cif.got.tgz:20666.got - 2010.04.16 14:54:00.
