data_PCOD8293404
_publ_section_title
;
Structure prediction by ZEFSAII (Michael W. Deem and Ramdas Pophale) SiO2 
 PCOD8293404
Probable space group: I B A M
;
_chemical_formula_sum "Si O2"
_cell_formula_units_Z 116
_cell_length_a 26.987088
_cell_length_b 26.429637
_cell_length_c 9.148786
_cell_angle_alpha 90.000000
_cell_angle_beta 90.000000
_cell_angle_gamma 90.000000
_cell_volume 6525.453400
_symmetry_space_group_name_H-M "I B A M"
_symmetry_group_IT_number 72
_symmetry_cell_setting 'orthorhombic'
loop_
_space_group_symop_operation_xyz
x,y,z
-x,-y,z
x,-y,1/2-z
-x,y,1/2-z
-x,-y,-z
x,y,-z
-x,y,1/2+z
x,-y,1/2+z
1/2+x,1/2+y,1/2+z
1/2-x,1/2-y,1/2+z
1/2+x,1/2-y,-z
1/2-x,1/2+y,-z
1/2-x,1/2-y,1/2-z
1/2+x,1/2+y,1/2-z
1/2-x,1/2+y,z
1/2+x,1/2-y,z
loop_
_atom_site_type_symbol
_atom_site_label
_atom_site_fract_x
_atom_site_fract_y
_atom_site_fract_z
Si Si1 0.866777 0.263630 0.165231
Si Si2 0.822621 0.082743 0.325746
Si Si3 0.000000 0.000000 0.250000
Si Si4 0.723520 0.048435 0.172995
Si Si5 0.183116 0.345111 0.167306
Si Si6 0.450220 0.312523 0.173237
Si Si7 0.081219 0.076170 0.336116
Si Si8 0.792695 0.178421 0.166657
O O1 0.861152 0.317326 0.246665
O O2 0.909190 0.227316 0.230037
O O3 0.814777 0.234204 0.180040
O O4 0.879743 0.277204 0.000000
O O5 0.818352 0.077660 0.500000
O O6 0.777016 0.054930 0.247877
O O7 0.874393 0.057904 0.270921
O O8 0.822271 0.141286 0.275406
O O9 0.964072 0.963649 0.343234
O O10 0.687236 0.095536 0.206726
O O11 0.698185 0.000000 0.250000
O O12 0.730662 0.040879 0.000000
O O13 0.235218 0.319131 0.209069
O O14 0.169960 0.337352 0.000000
O O15 0.500000 0.294647 0.250000
O O16 0.437236 0.369453 0.222951
O O17 0.456125 0.310300 0.000000
O O18 0.102382 0.081901 0.500000
O O19 0.798500 0.157517 0.000000
#
# Coordination Sequence:
#
# PCOD8293404 Si02
#       8
#    16  16   4  16  16  16  16  16
#     4  10  19  32  52  75 102 138 172 209 265 320
#     4  11  22  34  53  77  99 133 178 216 263 321
#     4  12  26  40  60  78  86 128 188 234 292 332
#     4  10  21  38  56  76 106 141 175 212 256 301
#     4   9  19  32  50  77 108 137 168 211 257 304
#     4  10  21  38  57  75  99 135 172 220 277 324
#     4  11  23  41  57  71  99 129 169 231 287 326
#     4   9  17  33  51  72 105 138 168 212 264 309
#
# _framework density 17.776541999999999
#
# number of rings (size 3 to 8) (size 9 to 14) (size 15 to 20)
#    0.000    1.931    2.069    3.103    0.966    5.517 
#    0.000    0.000    0.000    0.000    0.000    0.000 
#    0.000    0.552    0.000    6.069    0.000    4.414 
#
# Total GULP energy -719012.515277 kJ/mol
# GULP energy per Si atom -12396.767505 kJ/mol
# Density = 1.773608 g / cm^3
# Si number density = 17.776542 Si / 1000 Ang^3
#
#
#
# Elastic Constant Matrix: (Units=GPa)
#
#
# Indices 1 2 3 4 5 6 
#
# 1 62.3430 55.1673 29.5496 0.0000 0.0000 0.0000
# 2 55.1673 106.2722 45.8252 0.0000 0.0000 0.0000
# 3 29.5496 45.8252 78.7152 0.0000 0.0000 0.0000
# 4 0.0000 0.0000 0.0000 28.4889 0.0000 0.0000
# 5 0.0000 0.0000 0.0000 0.0000 24.9071 0.0000
# 6 0.0000 0.0000 0.0000 0.0000 0.0000 28.4450
#
#
#
# Elastic Compliance Matrix: (Units=1/GPa)
#
#
# Indices 1 2 3 4 5 6 
#
# 1 0.030173 -0.014392 -0.002949 0.000000 0.000000 0.000000
# 2 -0.014392 0.019428 -0.005908 0.000000 0.000000 0.000000
# 3 -0.002949 -0.005908 0.017250 0.000000 0.000000 0.000000
# 4 0.000000 0.000000 0.000000 0.035101 0.000000 0.000000
# 5 0.000000 0.000000 0.000000 0.000000 0.040149 0.000000
# 6 0.000000 0.000000 0.000000 0.000000 0.000000 0.035156
#
#
# Mechanical properties :
#
#
# Convention : Reuss Voigt Hill
#
# Bulk Modulus (GPa) = 49.12720 56.49050 52.80885
# Shear Modulus (GPa) = 21.68828 24.15409 22.92118
#
# Velocity S-wave (km/s) = 3.49671 3.69014 3.59473
# Velocity P-wave (km/s) = 6.63315 7.07130 6.85572
#
# Compressibility (1/GPa) = 0.02035532
#
# Stress axis : x y z
#
# Youngs Moduli (GPa) = 33.14198 51.47138 57.97033
#
# Poissons Ratio (x) = 0.74077 0.17093
# Poissons Ratio (y) = 0.47698 0.34248
# Poissons Ratio (z) = 0.09772 0.30408
#
# Static dielectric constant tensor:
#      x y z
#    x 3.034210 0.000000 0.000000 
#    y 0.000000 3.313140 0.000000 
#    z 0.000000 0.000000 3.228550 
# 
# 
# High freq. dielectric constant tensor:
#      x y z
#    x 1.650870 0.000000 0.000000 
#    y 0.000000 1.682060 0.000000 
#    z 0.000000 0.000000 1.685200 
# 
# From -- ./inp_files/7261.got.cif
#   From: 2010.03.12/outbox.cif.g09.slc.cpg/sg72_4_cif.got.tgz:7261.got - 2010.04.16 14:54:00.
