data_PCOD8293257
_publ_section_title
;
Structure prediction by ZEFSAII (Michael W. Deem and Ramdas Pophale) SiO2 
 PCOD8293257
Probable space group: I B A M
;
_chemical_formula_sum "Si O2"
_cell_formula_units_Z 80
_cell_length_a 24.603880
_cell_length_b 22.360706
_cell_length_c 9.918117
_cell_angle_alpha 90.000000
_cell_angle_beta 90.000000
_cell_angle_gamma 90.000000
_cell_volume 5456.552510
_symmetry_space_group_name_H-M "I B A M"
_symmetry_group_IT_number 72
_symmetry_cell_setting 'orthorhombic'
loop_
_space_group_symop_operation_xyz
x,y,z
-x,-y,z
x,-y,1/2-z
-x,y,1/2-z
-x,-y,-z
x,y,-z
-x,y,1/2+z
x,-y,1/2+z
1/2+x,1/2+y,1/2+z
1/2-x,1/2-y,1/2+z
1/2+x,1/2-y,-z
1/2-x,1/2+y,-z
1/2-x,1/2-y,1/2-z
1/2+x,1/2+y,1/2-z
1/2-x,1/2+y,z
1/2+x,1/2-y,z
loop_
_atom_site_type_symbol
_atom_site_label
_atom_site_fract_x
_atom_site_fract_y
_atom_site_fract_z
Si Si1 0.763227 0.054549 0.654952
Si Si2 0.709238 0.176193 0.350907
Si Si3 0.375415 0.612555 0.769667
Si Si4 0.426320 0.565187 0.500000
Si Si5 0.949206 0.925353 0.000000
Si Si6 0.326557 0.267241 0.348034
O O1 0.756306 0.034955 0.500000
O O2 0.722272 0.108297 0.692208
O O3 0.825237 0.074047 0.675777
O O4 0.746960 0.000000 0.750000
O O5 0.681921 0.177537 0.500000
O O6 0.669585 0.206228 0.239918
O O7 0.764606 0.213098 0.359754
O O8 0.391665 0.588802 0.624489
O O9 0.360849 0.682667 0.768360
O O10 0.426525 0.604908 0.866485
O O11 0.431861 0.494242 0.500000
O O12 0.487213 0.589882 0.500000
O O13 0.349563 0.256873 0.500000
#
# Coordination Sequence:
#
# PCOD8293257 Si02
#       6
#    16  16  16   8   8  16
#     4  10  19  30  44  63  88 114 140 176 210 246
#     4   8  16  28  42  61  83 105 134 171 207 243
#     4  11  20  32  45  63  80 107 145 185 216 254
#     4  11  24  30  48  61  76 112 145 178 231 265
#     4  11  20  38  44  57  84 106 141 188 225 263
#     4   9  16  29  44  59  81 105 133 174 213 246
#
# _framework density 14.661270999999999
#
# number of rings (size 3 to 8) (size 9 to 14) (size 15 to 20)
#    0.000    2.200    2.000    3.600    2.800    2.400 
#    3.600    0.000    0.000    0.000    0.000    0.000 
#    0.000    0.000    0.000    0.000    0.000    6.000 
#
# Total GULP energy -495871.342774 kJ/mol
# GULP energy per Si atom -12396.783569 kJ/mol
# Density = 1.462790 g / cm^3
# Si number density = 14.661271 Si / 1000 Ang^3
#
#
#
# Elastic Constant Matrix: (Units=GPa)
#
#
# Indices 1 2 3 4 5 6 
#
# 1 23.8773 22.0774 14.0941 0.0000 0.0000 0.0000
# 2 22.0774 91.0514 47.9464 0.0000 0.0000 0.0000
# 3 14.0941 47.9464 93.8404 0.0000 0.0000 0.0000
# 4 0.0000 0.0000 0.0000 29.1824 0.0000 0.0000
# 5 0.0000 0.0000 0.0000 0.0000 -7.7525 0.0000
# 6 0.0000 0.0000 0.0000 0.0000 0.0000 19.0254
#
#
#
# Elastic Compliance Matrix: (Units=1/GPa)
#
#
# Indices 1 2 3 4 5 6 
#
# 1 0.054244 -0.012125 -0.001952 0.000000 0.000000 0.000000
# 2 -0.012125 0.017736 -0.007241 0.000000 0.000000 0.000000
# 3 -0.001952 -0.007241 0.014649 0.000000 0.000000 0.000000
# 4 0.000000 0.000000 0.000000 0.034267 0.000000 0.000000
# 5 0.000000 0.000000 0.000000 0.000000 -0.128990 0.000000
# 6 0.000000 0.000000 0.000000 0.000000 0.000000 0.052561
#
#
# Mechanical properties :
#
#
# Convention : Reuss Voigt Hill
#
# Bulk Modulus (GPa) = 22.73063 41.88943 32.31003
# Shear Modulus (GPa) = 49.13234 16.40113 32.76674
#
# Velocity S-wave (km/s) = 5.79521 3.34828 4.73262
# Velocity P-wave (km/s) = 7.76638 6.60163 7.20757
#
# Compressibility (1/GPa) = 0.04399349
#
# Stress axis : x y z
#
# Youngs Moduli (GPa) = 18.43537 56.38400 68.26355
#
# Poissons Ratio (x) = 0.68363 0.13325
# Poissons Ratio (y) = 0.22352 0.49428
# Poissons Ratio (z) = 0.03599 0.40826
#
# Static dielectric constant tensor:
#      x y z
#    x 2.524220 0.000000 0.000000 
#    y 0.000000 2.884680 0.000000 
#    z 0.000000 0.000000 3.121870 
# 
# 
# High freq. dielectric constant tensor:
#      x y z
#    x 1.506220 0.000000 0.000000 
#    y 0.000000 1.550880 0.000000 
#    z 0.000000 0.000000 1.579860 
# 
# From -- ./inp_files/5907.got.cif
#   From: 2010.03.12/outbox.cif.g09.slc.cpg/sg72_3_cif.got.tgz:5907.got - 2010.04.16 14:54:00.
