data_PCOD8293305
_publ_section_title
;
Structure prediction by ZEFSAII (Michael W. Deem and Ramdas Pophale) SiO2 
 PCOD8293305
Probable space group: I B A M
;
_chemical_formula_sum "Si O2"
_cell_formula_units_Z 80
_cell_length_a 20.423203
_cell_length_b 25.957907
_cell_length_c 8.813267
_cell_angle_alpha 90.000000
_cell_angle_beta 90.000000
_cell_angle_gamma 90.000000
_cell_volume 4672.297131
_symmetry_space_group_name_H-M "I B A M"
_symmetry_group_IT_number 72
_symmetry_cell_setting 'orthorhombic'
loop_
_space_group_symop_operation_xyz
x,y,z
-x,-y,z
x,-y,1/2-z
-x,y,1/2-z
-x,-y,-z
x,y,-z
-x,y,1/2+z
x,-y,1/2+z
1/2+x,1/2+y,1/2+z
1/2-x,1/2-y,1/2+z
1/2+x,1/2-y,-z
1/2-x,1/2+y,-z
1/2-x,1/2-y,1/2-z
1/2+x,1/2+y,1/2-z
1/2-x,1/2+y,z
1/2+x,1/2-y,z
loop_
_atom_site_type_symbol
_atom_site_label
_atom_site_fract_x
_atom_site_fract_y
_atom_site_fract_z
Si Si1 0.568497 0.664858 0.330068
Si Si2 0.674619 0.860963 0.821571
Si Si3 0.661127 0.247015 0.827307
Si Si4 0.803869 0.153893 0.821398
Si Si5 0.568680 0.054007 0.679186
O O1 0.500000 0.656174 0.250000
O O2 0.562904 0.643206 0.500000
O O3 0.589421 0.725193 0.329613
O O4 0.626556 0.633401 0.243450
O O5 0.650466 0.807233 0.752236
O O6 0.743916 0.878501 0.748841
O O7 0.622188 0.903797 0.776703
O O8 0.682967 0.855029 0.000000
O O9 0.708957 0.286172 0.732150
O O10 0.687360 0.240143 0.000000
O O11 0.803985 0.149140 0.000000
O O12 0.500000 0.071940 0.750000
O O13 0.560570 0.047737 0.500000
O O14 0.591573 0.000000 0.750000
#
# Coordination Sequence:
#
# PCOD8293305 Si02
#       5
#    16  16  16  16  16
#     4   9  18  30  44  63  93 130 166 199 235 278
#     4  11  21  33  50  72  96 125 163 205 251 301
#     4   9  19  31  45  66  95 130 165 204 244 289
#     4  10  19  31  48  69  97 131 166 204 245 292
#     4  10  22  39  58  76  98 127 162 209 260 309
#
# _framework density 17.122198000000001
#
# number of rings (size 3 to 8) (size 9 to 14) (size 15 to 20)
#    1.200    1.000    0.000    4.800    0.000    4.000 
#    0.000    4.000    0.000    0.000    0.000    0.000 
#    0.000    0.800    0.000    8.400    0.000    4.600 
#
# Total GULP energy -495737.682669 kJ/mol
# GULP energy per Si atom -12393.442067 kJ/mol
# Density = 1.708323 g / cm^3
# Si number density = 17.122198 Si / 1000 Ang^3
#
#
#
# Elastic Constant Matrix: (Units=GPa)
#
#
# Indices 1 2 3 4 5 6 
#
# 1 131.5153 49.3204 70.1197 0.0000 0.0000 0.0000
# 2 49.3204 58.2832 42.9824 0.0000 0.0000 0.0000
# 3 70.1197 42.9824 149.2709 0.0000 0.0000 0.0000
# 4 0.0000 0.0000 0.0000 17.9625 0.0000 0.0000
# 5 0.0000 0.0000 0.0000 0.0000 33.1889 0.0000
# 6 0.0000 0.0000 0.0000 0.0000 0.0000 24.1821
#
#
#
# Elastic Compliance Matrix: (Units=1/GPa)
#
#
# Indices 1 2 3 4 5 6 
#
# 1 0.012485 -0.007923 -0.003584 0.000000 0.000000 0.000000
# 2 -0.007923 0.026811 -0.003998 0.000000 0.000000 0.000000
# 3 -0.003584 -0.003998 0.009534 0.000000 0.000000 0.000000
# 4 0.000000 0.000000 0.000000 0.055672 0.000000 0.000000
# 5 0.000000 0.000000 0.000000 0.000000 0.030131 0.000000
# 6 0.000000 0.000000 0.000000 0.000000 0.000000 0.041353
#
#
# Mechanical properties :
#
#
# Convention : Reuss Voigt Hill
#
# Bulk Modulus (GPa) = 56.11490 73.76826 64.94158
# Shear Modulus (GPa) = 23.48136 26.84317 25.16227
#
# Velocity S-wave (km/s) = 3.70726 3.96377 3.83766
# Velocity P-wave (km/s) = 7.15328 8.00784 7.59259
#
# Compressibility (1/GPa) = 0.01782058
#
# Stress axis : x y z
#
# Youngs Moduli (GPa) = 80.09293 37.29871 104.88733
#
# Poissons Ratio (x) = 0.29550 0.37589
# Poissons Ratio (y) = 0.63454 0.41939
# Poissons Ratio (z) = 0.28703 0.14914
#
# Static dielectric constant tensor:
#      x y z
#    x 3.260010 0.000000 0.000000 
#    y 0.000000 2.757650 0.000000 
#    z 0.000000 0.000000 3.299630 
# 
# 
# High freq. dielectric constant tensor:
#      x y z
#    x 1.668710 0.000000 0.000000 
#    y 0.000000 1.601680 0.000000 
#    z 0.000000 0.000000 1.684160 
# 
# From -- ./inp_files/5009.got.cif
#   From: 2010.03.12/outbox.cif.g09.slc.cpg/sg72_3_cif.got.tgz:5009.got - 2010.04.16 14:54:00.
