data_PCOD8293534
_publ_section_title
;
Structure prediction by ZEFSAII (Michael W. Deem and Ramdas Pophale) SiO2 
 PCOD8293534
Probable space group: I B A M
;
_chemical_formula_sum "Si O2"
_cell_formula_units_Z 96
_cell_length_a 28.396523
_cell_length_b 19.703772
_cell_length_c 8.962730
_cell_angle_alpha 90.000000
_cell_angle_beta 90.000000
_cell_angle_gamma 90.000000
_cell_volume 5014.814274
_symmetry_space_group_name_H-M "I B A M"
_symmetry_group_IT_number 72
_symmetry_cell_setting 'orthorhombic'
loop_
_space_group_symop_operation_xyz
x,y,z
-x,-y,z
x,-y,1/2-z
-x,y,1/2-z
-x,-y,-z
x,y,-z
-x,y,1/2+z
x,-y,1/2+z
1/2+x,1/2+y,1/2+z
1/2-x,1/2-y,1/2+z
1/2+x,1/2-y,-z
1/2-x,1/2+y,-z
1/2-x,1/2-y,1/2-z
1/2+x,1/2+y,1/2-z
1/2-x,1/2+y,z
1/2+x,1/2-y,z
loop_
_atom_site_type_symbol
_atom_site_label
_atom_site_fract_x
_atom_site_fract_y
_atom_site_fract_z
Si Si1 0.595975 0.706836 0.172502
Si Si2 0.634223 0.072854 0.176820
Si Si3 0.772961 0.649081 0.164519
Si Si4 0.048880 0.330174 0.176853
Si Si5 0.450545 0.566180 0.326374
Si Si6 0.808456 0.799449 0.164205
O O1 0.561798 0.755096 0.267115
O O2 0.582962 0.629332 0.202550
O O3 0.649397 0.713543 0.222665
O O4 0.591099 0.727310 0.000000
O O5 0.682438 0.108533 0.232886
O O6 0.589858 0.118205 0.227434
O O7 0.628954 0.000000 0.250000
O O8 0.634833 0.065577 0.000000
O O9 0.783199 0.728032 0.146409
O O10 0.727480 0.643194 0.272132
O O11 0.760829 0.619543 0.000000
O O12 0.000000 0.354576 0.250000
O O13 0.043034 0.328152 0.000000
O O14 0.427013 0.500000 0.250000
O O15 0.500000 0.581858 0.250000
O O16 0.458582 0.552107 0.500000
O O17 0.825879 0.823599 0.000000
#
# Coordination Sequence:
#
# PCOD8293534 Si02
#       6
#    16  16  16  16  16  16
#     4  11  22  36  57  87 117 151 190 235 287 341
#     4  10  22  40  60  83 116 154 196 243 293 350
#     4   9  18  36  56  81 113 145 183 230 279 335
#     4  11  23  40  59  85 117 151 196 247 296 348
#     4  10  21  36  55  79 108 145 187 227 275 333
#     4  10  19  33  57  86 114 144 182 230 281 335
#
# _framework density 19.143280000000001
#
# number of rings (size 3 to 8) (size 9 to 14) (size 15 to 20)
#    0.000    1.833    1.667    3.000    0.000    7.000 
#    0.000    2.500    0.000    0.000    0.000    0.000 
#    0.000    0.000    0.000    0.000    0.000    0.000 
#
# Total GULP energy -595171.064315 kJ/mol
# GULP energy per Si atom -12399.397173 kJ/mol
# Density = 1.909971 g / cm^3
# Si number density = 19.143280 Si / 1000 Ang^3
#
#
#
# Elastic Constant Matrix: (Units=GPa)
#
#
# Indices 1 2 3 4 5 6 
#
# 1 76.0498 23.8291 28.0910 0.0000 0.0000 0.0000
# 2 23.8291 71.5240 38.5131 0.0000 0.0000 0.0000
# 3 28.0910 38.5131 82.7449 0.0000 0.0000 0.0000
# 4 0.0000 0.0000 0.0000 -26.8479 0.0000 0.0000
# 5 0.0000 0.0000 0.0000 0.0000 30.9813 0.0000
# 6 0.0000 0.0000 0.0000 0.0000 0.0000 18.0260
#
#
#
# Elastic Compliance Matrix: (Units=1/GPa)
#
#
# Indices 1 2 3 4 5 6 
#
# 1 0.015539 -0.003118 -0.003824 0.000000 0.000000 0.000000
# 2 -0.003118 0.019283 -0.007917 0.000000 0.000000 0.000000
# 3 -0.003824 -0.007917 0.017068 0.000000 0.000000 0.000000
# 4 0.000000 0.000000 0.000000 -0.037247 0.000000 0.000000
# 5 0.000000 0.000000 0.000000 0.000000 0.032278 0.000000
# 6 0.000000 0.000000 0.000000 0.000000 0.000000 0.055475
#
#
# Mechanical properties :
#
#
# Convention : Reuss Voigt Hill
#
# Bulk Modulus (GPa) = 45.10007 45.68723 45.39365
# Shear Modulus (GPa) = 35.84132 13.75759 24.79946
#
# Velocity S-wave (km/s) = 4.33166 2.68370 3.60316
# Velocity P-wave (km/s) = 6.97339 5.78971 6.40893
#
# Compressibility (1/GPa) = 0.02217291
#
# Stress axis : x y z
#
# Youngs Moduli (GPa) = 64.35539 51.85956 58.58815
#
# Poissons Ratio (x) = 0.16169 0.22404
# Poissons Ratio (y) = 0.20065 0.46382
# Poissons Ratio (z) = 0.24610 0.41055
#
# Static dielectric constant tensor:
#      x y z
#    x 3.542250 0.000000 0.000000 
#    y 0.000000 3.415240 0.000000 
#    z 0.000000 0.000000 3.805680 
# 
# 
# High freq. dielectric constant tensor:
#      x y z
#    x 1.745190 0.000000 0.000000 
#    y 0.000000 1.726910 0.000000 
#    z 0.000000 0.000000 1.755080 
# 
# From -- ./inp_files/8057.got.cif
#   From: 2010.03.12/outbox.cif.g09.slc.cpg/sg72_5_cif.got.tgz:8057.got - 2010.04.16 14:54:00.
