data_PCOD8293790
_publ_section_title
;
Structure prediction by ZEFSAII (Michael W. Deem and Ramdas Pophale) SiO2 
 PCOD8293790
Probable space group: I B A M
;
_chemical_formula_sum "Si O2"
_cell_formula_units_Z 104
_cell_length_a 8.891646
_cell_length_b 23.484369
_cell_length_c 25.800102
_cell_angle_alpha 90.000000
_cell_angle_beta 90.000000
_cell_angle_gamma 90.000000
_cell_volume 5387.440448
_symmetry_space_group_name_H-M "I B A M"
_symmetry_group_IT_number 72
_symmetry_cell_setting 'orthorhombic'
loop_
_space_group_symop_operation_xyz
x,y,z
-x,-y,z
x,-y,1/2-z
-x,y,1/2-z
-x,-y,-z
x,y,-z
-x,y,1/2+z
x,-y,1/2+z
1/2+x,1/2+y,1/2+z
1/2-x,1/2-y,1/2+z
1/2+x,1/2-y,-z
1/2-x,1/2+y,-z
1/2-x,1/2-y,1/2-z
1/2+x,1/2+y,1/2-z
1/2-x,1/2+y,z
1/2+x,1/2-y,z
loop_
_atom_site_type_symbol
_atom_site_label
_atom_site_fract_x
_atom_site_fract_y
_atom_site_fract_z
Si Si1 0.000000 0.242596 0.250000
Si Si2 0.403019 0.235814 0.000000
Si Si3 0.226324 0.034724 0.439892
Si Si4 0.204058 0.322219 0.604431
Si Si5 0.750170 0.785173 0.321526
Si Si6 0.813872 0.324396 0.500000
Si Si7 0.891068 0.375031 0.392239
Si Si8 0.596617 0.414054 0.059365
O O1 0.906202 0.204316 0.209188
O O2 0.885270 0.282930 0.280654
O O3 0.338802 0.206695 0.949029
O O4 0.358353 0.302567 0.000000
O O5 0.583493 0.233275 0.000000
O O6 0.280865 0.037578 0.500000
O O7 0.348778 0.057638 0.396789
O O8 0.079549 0.074937 0.433731
O O9 0.189787 0.970280 0.424556
O O10 0.243379 0.273877 0.646259
O O11 0.348736 0.362615 0.596504
O O12 0.062289 0.360869 0.623514
O O13 0.724383 0.840007 0.356812
O O14 0.854804 0.361015 0.451319
O O15 0.634724 0.398974 0.000000
#
# Coordination Sequence:
#
# PCOD8293790 Si02
#       8
#     8   8  16  16  16   8  16  16
#     4  10  24  42  56  76 110 138 180 240 286 334
#     4  10  20  30  43  74 117 143 176 206 254 315
#     4   9  19  34  51  76 114 155 189 218 252 307
#     4  11  21  33  52  82 111 149 181 218 262 330
#     4  11  22  39  58  82 108 141 182 229 286 332
#     4  10  20  30  43  74 117 143 176 206 254 315
#     4  11  21  33  52  82 111 149 181 218 262 330
#     4   9  19  34  51  76 114 155 189 218 252 307
#
# _framework density 19.304158000000001
#
# number of rings (size 3 to 8) (size 9 to 14) (size 15 to 20)
#    0.000    1.846    4.615    0.923    2.154    1.846 
#    0.000    1.538    0.000    0.000    0.000    6.462 
#    0.000    0.000    0.000    0.000    0.000    0.000 
#
# Total GULP energy -644357.839104 kJ/mol
# GULP energy per Si atom -12391.496906 kJ/mol
# Density = 1.926022 g / cm^3
# Si number density = 19.304158 Si / 1000 Ang^3
#
#
#
# Elastic Constant Matrix: (Units=GPa)
#
#
# Indices 1 2 3 4 5 6 
#
# 1 47.2402 1.9589 16.3103 0.0000 0.0000 0.0000
# 2 1.9589 46.9415 16.6987 0.0000 0.0000 0.0000
# 3 16.3103 16.6987 72.0971 0.0000 0.0000 0.0000
# 4 0.0000 0.0000 0.0000 31.0382 0.0000 0.0000
# 5 0.0000 0.0000 0.0000 0.0000 27.6822 0.0000
# 6 0.0000 0.0000 0.0000 0.0000 0.0000 30.7745
#
#
#
# Elastic Compliance Matrix: (Units=1/GPa)
#
#
# Indices 1 2 3 4 5 6 
#
# 1 0.023003 0.000971 -0.005429 0.000000 0.000000 0.000000
# 2 0.000971 0.023257 -0.005606 0.000000 0.000000 0.000000
# 3 -0.005429 -0.005606 0.016397 0.000000 0.000000 0.000000
# 4 0.000000 0.000000 0.000000 0.032218 0.000000 0.000000
# 5 0.000000 0.000000 0.000000 0.000000 0.036124 0.000000
# 6 0.000000 0.000000 0.000000 0.000000 0.000000 0.032494
#
#
# Mechanical properties :
#
#
# Convention : Reuss Voigt Hill
#
# Bulk Modulus (GPa) = 23.51358 26.24607 24.87983
# Shear Modulus (GPa) = 25.27840 26.65303 25.96571
#
# Velocity S-wave (km/s) = 3.62260 3.71979 3.67152
# Velocity P-wave (km/s) = 5.45020 5.66346 5.55785
#
# Compressibility (1/GPa) = 0.04252861
#
# Stress axis : x y z
#
# Youngs Moduli (GPa) = 43.47352 42.99791 60.98733
#
# Poissons Ratio (x) = -0.04176 0.33109
# Poissons Ratio (y) = -0.04223 0.34192
# Poissons Ratio (z) = 0.23601 0.24106
#
# Static dielectric constant tensor:
#      x y z
#    x 3.854160 0.000000 0.000000 
#    y 0.000000 3.495890 0.000000 
#    z 0.000000 0.000000 3.527860 
# 
# 
# High freq. dielectric constant tensor:
#      x y z
#    x 1.763270 0.000000 0.000000 
#    y 0.000000 1.735330 0.000000 
#    z 0.000000 0.000000 1.718530 
# 
# From -- ./inp_files/50977.got.cif
#   From: 2010.03.12/outbox.cif.g09.slc.cpg/sg72_26_cif.got.tgz:50977.got - 2010.04.16 14:54:00.
