data_PCOD8293292
_publ_section_title
;
Structure prediction by ZEFSAII (Michael W. Deem and Ramdas Pophale) SiO2 
 PCOD8293292
Probable space group: I B A M
;
_chemical_formula_sum "Si O2"
_cell_formula_units_Z 96
_cell_length_a 25.248059
_cell_length_b 24.726102
_cell_length_c 8.778782
_cell_angle_alpha 90.000000
_cell_angle_beta 90.000000
_cell_angle_gamma 90.000000
_cell_volume 5480.471421
_symmetry_space_group_name_H-M "I B A M"
_symmetry_group_IT_number 72
_symmetry_cell_setting 'orthorhombic'
loop_
_space_group_symop_operation_xyz
x,y,z
-x,-y,z
x,-y,1/2-z
-x,y,1/2-z
-x,-y,-z
x,y,-z
-x,y,1/2+z
x,-y,1/2+z
1/2+x,1/2+y,1/2+z
1/2-x,1/2-y,1/2+z
1/2+x,1/2-y,-z
1/2-x,1/2+y,-z
1/2-x,1/2-y,1/2-z
1/2+x,1/2+y,1/2-z
1/2-x,1/2+y,z
1/2+x,1/2-y,z
loop_
_atom_site_type_symbol
_atom_site_label
_atom_site_fract_x
_atom_site_fract_y
_atom_site_fract_z
Si Si1 0.246119 0.944689 0.180363
Si Si2 0.449824 0.108586 0.667546
Si Si3 0.860918 0.553385 0.320214
Si Si4 0.550921 0.766097 0.334118
Si Si5 0.331215 0.233844 0.321126
Si Si6 0.757664 0.834699 0.822375
O O1 0.306352 0.939922 0.232395
O O2 0.219970 0.889379 0.243069
O O3 0.220621 0.000000 0.250000
O O4 0.240731 0.947489 0.000000
O O5 0.500000 0.080649 0.750000
O O6 0.441135 0.082324 0.500000
O O7 0.398722 0.102819 0.775863
O O8 0.461470 0.171231 0.646888
O O9 0.888993 0.500000 0.250000
O O10 0.851046 0.549961 0.500000
O O11 0.500000 0.739085 0.250000
O O12 0.553740 0.738116 0.500000
O O13 0.608924 0.759372 0.254286
O O14 0.333799 0.219718 0.500000
O O15 0.299466 0.184681 0.241639
O O16 0.301473 0.289724 0.287897
O O17 0.749978 0.846090 0.000000
#
# Coordination Sequence:
#
# PCOD8293292 Si02
#       6
#    16  16  16  16  16  16
#     4  11  21  34  50  68  92 121 154 191 233 280
#     4  10  19  31  45  62  84 112 148 189 232 274
#     4  11  21  33  47  63  82 108 145 187 233 279
#     4   9  18  31  47  66  90 120 152 188 228 271
#     4   9  18  32  49  71 100 131 161 196 239 284
#     4  10  19  31  49  73  99 128 162 197 237 285
#
# _framework density 17.516741
#
# number of rings (size 3 to 8) (size 9 to 14) (size 15 to 20)
#    0.000    2.000    0.000    6.000    0.000    3.667 
#    0.000    1.667    0.000    0.000    0.000    0.000 
#    0.000    0.667    0.000    7.667    0.000    2.333 
#
# Total GULP energy -594862.217320 kJ/mol
# GULP energy per Si atom -12392.962861 kJ/mol
# Density = 1.747687 g / cm^3
# Si number density = 17.516741 Si / 1000 Ang^3
#
#
#
# Elastic Constant Matrix: (Units=GPa)
#
#
# Indices 1 2 3 4 5 6 
#
# 1 74.9582 7.6913 21.7683 0.0000 0.0000 0.0000
# 2 7.6913 70.1837 37.7912 0.0000 0.0000 0.0000
# 3 21.7683 37.7912 104.3688 0.0000 0.0000 0.0000
# 4 0.0000 0.0000 0.0000 24.7475 0.0000 0.0000
# 5 0.0000 0.0000 0.0000 0.0000 23.5046 0.0000
# 6 0.0000 0.0000 0.0000 0.0000 0.0000 16.4480
#
#
#
# Elastic Compliance Matrix: (Units=1/GPa)
#
#
# Indices 1 2 3 4 5 6 
#
# 1 0.014201 0.000048 -0.002979 0.000000 0.000000 0.000000
# 2 0.000048 0.017699 -0.006419 0.000000 0.000000 0.000000
# 3 -0.002979 -0.006419 0.012527 0.000000 0.000000 0.000000
# 4 0.000000 0.000000 0.000000 0.040408 0.000000 0.000000
# 5 0.000000 0.000000 0.000000 0.000000 0.042545 0.000000
# 6 0.000000 0.000000 0.000000 0.000000 0.000000 0.060798
#
#
# Mechanical properties :
#
#
# Convention : Reuss Voigt Hill
#
# Bulk Modulus (GPa) = 38.86948 42.66803 40.76875
# Shear Modulus (GPa) = 23.20681 25.09068 24.14875
#
# Velocity S-wave (km/s) = 3.64378 3.78879 3.71699
# Velocity P-wave (km/s) = 6.31988 6.59933 6.46112
#
# Compressibility (1/GPa) = 0.02572713
#
# Stress axis : x y z
#
# Youngs Moduli (GPa) = 70.41732 56.49929 79.82752
#
# Poissons Ratio (x) = -0.00271 0.23783
# Poissons Ratio (y) = -0.00338 0.51240
# Poissons Ratio (z) = 0.20979 0.36266
#
# Static dielectric constant tensor:
#      x y z
#    x 3.121470 0.000000 0.000000 
#    y 0.000000 3.619310 0.000000 
#    z 0.000000 0.000000 3.509870 
# 
# 
# High freq. dielectric constant tensor:
#      x y z
#    x 1.648410 0.000000 0.000000 
#    y 0.000000 1.652820 0.000000 
#    z 0.000000 0.000000 1.688690 
# 
# From -- ./inp_files/7089.got.cif
#   From: 2010.03.12/outbox.cif.g09.slc.cpg/sg72_4_cif.got.tgz:7089.got - 2010.04.16 14:54:00.
