data_PCOD8293948
_publ_section_title
;
Structure prediction by ZEFSAII (Michael W. Deem and Ramdas Pophale) SiO2 
 PCOD8293948
Probable space group: I B A M
;
_chemical_formula_sum "Si O2"
_cell_formula_units_Z 104
_cell_length_a 21.033652
_cell_length_b 26.422428
_cell_length_c 8.990053
_cell_angle_alpha 90.000000
_cell_angle_beta 90.000000
_cell_angle_gamma 90.000000
_cell_volume 4996.313254
_symmetry_space_group_name_H-M "I B A M"
_symmetry_group_IT_number 72
_symmetry_cell_setting 'orthorhombic'
loop_
_space_group_symop_operation_xyz
x,y,z
-x,-y,z
x,-y,1/2-z
-x,y,1/2-z
-x,-y,-z
x,y,-z
-x,y,1/2+z
x,-y,1/2+z
1/2+x,1/2+y,1/2+z
1/2-x,1/2-y,1/2+z
1/2+x,1/2-y,-z
1/2-x,1/2+y,-z
1/2-x,1/2-y,1/2-z
1/2+x,1/2+y,1/2-z
1/2-x,1/2+y,z
1/2+x,1/2-y,z
loop_
_atom_site_type_symbol
_atom_site_label
_atom_site_fract_x
_atom_site_fract_y
_atom_site_fract_z
Si Si1 0.116314 0.195401 0.335255
Si Si2 0.409714 0.547411 0.164893
Si Si3 0.932282 0.600384 0.825159
Si Si4 0.000000 0.130530 0.750000
Si Si5 0.313795 0.947278 0.678228
Si Si6 0.200217 0.897283 0.176052
Si Si7 0.065868 0.715346 0.329425
O O1 0.129125 0.215796 0.500000
O O2 0.048998 0.165711 0.339244
O O3 0.173323 0.158435 0.285405
O O4 0.117323 0.244168 0.228371
O O5 0.441948 0.500000 0.250000
O O6 0.459193 0.593586 0.144101
O O7 0.348905 0.561354 0.264137
O O8 0.387389 0.531624 0.000000
O O9 0.883890 0.564446 0.739046
O O10 0.910054 0.658414 0.801457
O O11 0.000000 0.591077 0.750000
O O12 0.935182 0.586642 0.000000
O O13 0.313759 0.949942 0.500000
O O14 0.266545 0.903693 0.737321
O O15 0.290998 0.000000 0.750000
O O16 0.209969 0.904486 0.000000
O O17 0.053312 0.726082 0.500000
O O18 0.000000 0.726002 0.250000
#
# Coordination Sequence:
#
# PCOD8293948 Si02
#       7
#    16  16  16   8  16  16  16
#     4  10  20  34  55  83 116 155 202 253 301 350
#     4  11  22  35  51  73 106 149 199 252 307 359
#     4  10  22  42  66  97 130 159 194 240 292 354
#     4  10  21  32  50  76 108 148 197 252 302 352
#     4  12  25  43  68  94 121 158 198 242 297 360
#     4  10  22  40  59  83 116 155 201 252 299 351
#     4  10  20  34  58  88 123 162 200 244 298 355
#
# _framework density 20.815349000000001
#
# number of rings (size 3 to 8) (size 9 to 14) (size 15 to 20)
#    0.000    1.538    0.769    4.385    0.000    7.692 
#    0.000    2.308    0.000    0.000    0.000    0.000 
#    0.000    0.000    0.000    0.000    0.000    0.000 
#
# Total GULP energy -644775.688108 kJ/mol
# GULP energy per Si atom -12399.532464 kJ/mol
# Density = 2.076797 g / cm^3
# Si number density = 20.815349 Si / 1000 Ang^3
#
#
#
# Elastic Constant Matrix: (Units=GPa)
#
#
# Indices 1 2 3 4 5 6 
#
# 1 92.7411 20.8402 41.1902 0.0000 0.0000 0.0000
# 2 20.8402 55.5039 36.8264 0.0000 0.0000 0.0000
# 3 41.1902 36.8264 151.1369 0.0000 0.0000 0.0000
# 4 0.0000 0.0000 0.0000 32.2103 0.0000 0.0000
# 5 0.0000 0.0000 0.0000 0.0000 29.4547 0.0000
# 6 0.0000 0.0000 0.0000 0.0000 0.0000 26.0729
#
#
#
# Elastic Compliance Matrix: (Units=1/GPa)
#
#
# Indices 1 2 3 4 5 6 
#
# 1 0.012657 -0.002939 -0.002733 0.000000 0.000000 0.000000
# 2 -0.002939 0.022174 -0.004602 0.000000 0.000000 0.000000
# 3 -0.002733 -0.004602 0.008483 0.000000 0.000000 0.000000
# 4 0.000000 0.000000 0.000000 0.031046 0.000000 0.000000
# 5 0.000000 0.000000 0.000000 0.000000 0.033950 0.000000
# 6 0.000000 0.000000 0.000000 0.000000 0.000000 0.038354
#
#
# Mechanical properties :
#
#
# Convention : Reuss Voigt Hill
#
# Bulk Modulus (GPa) = 43.92684 55.23283 49.57984
# Shear Modulus (GPa) = 28.60401 30.91592 29.75997
#
# Velocity S-wave (km/s) = 3.71101 3.85807 3.78526
# Velocity P-wave (km/s) = 6.28578 6.81458 6.55552
#
# Compressibility (1/GPa) = 0.02276512
#
# Stress axis : x y z
#
# Youngs Moduli (GPa) = 79.00688 45.09879 117.88565
#
# Poissons Ratio (x) = 0.13254 0.32223
# Poissons Ratio (y) = 0.23218 0.54250
# Poissons Ratio (z) = 0.21596 0.20754
#
# Static dielectric constant tensor:
#      x y z
#    x 3.581910 0.000000 0.000000 
#    y 0.000000 3.797190 0.000000 
#    z 0.000000 0.000000 3.733220 
# 
# 
# High freq. dielectric constant tensor:
#      x y z
#    x 1.796200 0.000000 0.000000 
#    y 0.000000 1.814190 0.000000 
#    z 0.000000 0.000000 1.823620 
# 
# From -- ./inp_files/6139.got.cif
#   From: 2010.03.12/outbox.cif.g09.slc.cpg/sg72_4_cif.got.tgz:6139.got - 2010.04.16 14:54:00.
