data_PCOD8293931
_publ_section_title
;
Structure prediction by ZEFSAII (Michael W. Deem and Ramdas Pophale) SiO2 
 PCOD8293931
Probable space group: I B A M
;
_chemical_formula_sum "Si O2"
_cell_formula_units_Z 84
_cell_length_a 23.873225
_cell_length_b 23.991922
_cell_length_c 8.898576
_cell_angle_alpha 90.000000
_cell_angle_beta 90.000000
_cell_angle_gamma 90.000000
_cell_volume 5096.788897
_symmetry_space_group_name_H-M "I B A M"
_symmetry_group_IT_number 72
_symmetry_cell_setting 'orthorhombic'
loop_
_space_group_symop_operation_xyz
x,y,z
-x,-y,z
x,-y,1/2-z
-x,y,1/2-z
-x,-y,-z
x,y,-z
-x,y,1/2+z
x,-y,1/2+z
1/2+x,1/2+y,1/2+z
1/2-x,1/2-y,1/2+z
1/2+x,1/2-y,-z
1/2-x,1/2+y,-z
1/2-x,1/2-y,1/2-z
1/2+x,1/2+y,1/2-z
1/2-x,1/2+y,z
1/2+x,1/2-y,z
loop_
_atom_site_type_symbol
_atom_site_label
_atom_site_fract_x
_atom_site_fract_y
_atom_site_fract_z
Si Si1 0.837665 0.253581 0.174082
Si Si2 0.751772 0.335561 0.675205
Si Si3 0.942831 0.702266 0.177071
Si Si4 0.789170 0.557330 0.677270
Si Si5 0.414104 0.910183 0.666267
Si Si6 0.000000 0.500000 0.250000
O O1 0.799043 0.302733 0.235038
O O2 0.808427 0.193751 0.199117
O O3 0.895475 0.255527 0.264200
O O4 0.849042 0.265444 0.000000
O O5 0.768199 0.337165 0.500000
O O6 0.749347 0.396711 0.745810
O O7 0.932213 0.637819 0.219346
O O8 0.000000 0.723594 0.250000
O O9 0.947129 0.706415 0.000000
O O10 0.769217 0.500000 0.750000
O O11 0.779092 0.556537 0.500000
O O12 0.854138 0.566951 0.719615
O O13 0.409140 0.883719 0.500000
O O14 0.459253 0.960092 0.654293
#
# Coordination Sequence:
#
# PCOD8293931 Si02
#       6
#    16  16  16  16  16   4
#     4  10  20  35  54  76 102 131 169 214 261 315
#     4  10  20  34  54  77 101 132 170 212 264 316
#     4  12  24  36  53  73 100 133 170 214 260 309
#     4  11  22  35  51  72 102 134 173 219 261 308
#     4  11  23  35  48  68  94 129 175 220 259 298
#     4  12  22  36  52  62  94 136 186 224 258 292
#
# _framework density 16.480965000000001
#
# number of rings (size 3 to 8) (size 9 to 14) (size 15 to 20)
#    0.000    1.143    3.810    3.714    0.000    3.810 
#    0.000    0.000    0.000    0.000    0.000    0.000 
#    0.000    0.762    0.000    8.000    0.000    3.429 
#
# Total GULP energy -520876.132674 kJ/mol
# GULP energy per Si atom -12401.812683 kJ/mol
# Density = 1.644345 g / cm^3
# Si number density = 16.480965 Si / 1000 Ang^3
#
#
#
# Elastic Constant Matrix: (Units=GPa)
#
#
# Indices 1 2 3 4 5 6 
#
# 1 85.8514 52.4136 51.0222 0.0000 0.0000 0.0000
# 2 52.4136 98.5833 45.0823 0.0000 0.0000 0.0000
# 3 51.0222 45.0823 126.1245 0.0000 0.0000 0.0000
# 4 0.0000 0.0000 0.0000 26.6213 0.0000 0.0000
# 5 0.0000 0.0000 0.0000 0.0000 23.3323 0.0000
# 6 0.0000 0.0000 0.0000 0.0000 0.0000 29.2652
#
#
#
# Elastic Compliance Matrix: (Units=1/GPa)
#
#
# Indices 1 2 3 4 5 6 
#
# 1 0.019589 -0.008118 -0.005023 0.000000 0.000000 0.000000
# 2 -0.008118 0.015490 -0.002253 0.000000 0.000000 0.000000
# 3 -0.005023 -0.002253 0.010766 0.000000 0.000000 0.000000
# 4 0.000000 0.000000 0.000000 0.037564 0.000000 0.000000
# 5 0.000000 0.000000 0.000000 0.000000 0.042859 0.000000
# 6 0.000000 0.000000 0.000000 0.000000 0.000000 0.034170
#
#
# Mechanical properties :
#
#
# Convention : Reuss Voigt Hill
#
# Bulk Modulus (GPa) = 66.41059 67.51060 66.96060
# Shear Modulus (GPa) = 25.47831 26.64648 26.06239
#
# Velocity S-wave (km/s) = 3.93609 4.02531 3.98095
# Velocity P-wave (km/s) = 7.81280 7.91555 7.86434
#
# Compressibility (1/GPa) = 0.01505784
#
# Stress axis : x y z
#
# Youngs Moduli (GPa) = 51.04795 64.55776 92.88627
#
# Poissons Ratio (x) = 0.52409 0.46656
# Poissons Ratio (y) = 0.41441 0.20925
# Poissons Ratio (z) = 0.25641 0.14543
#
# Static dielectric constant tensor:
#      x y z
#    x 3.200150 0.000000 0.000000 
#    y 0.000000 3.037090 0.000000 
#    z 0.000000 0.000000 3.742250 
# 
# 
# High freq. dielectric constant tensor:
#      x y z
#    x 1.615060 0.000000 0.000000 
#    y 0.000000 1.613980 0.000000 
#    z 0.000000 0.000000 1.653310 
# 
# From -- ./inp_files/6801.got.cif
#   From: 2010.03.12/outbox.cif.g09.slc.cpg/sg72_4_cif.got.tgz:6801.got - 2010.04.16 14:54:00.
