data_PCOD8293435
_publ_section_title
;
Structure prediction by ZEFSAII (Michael W. Deem and Ramdas Pophale) SiO2 
 PCOD8293435
Probable space group: I B A M
;
_chemical_formula_sum "Si O2"
_cell_formula_units_Z 96
_cell_length_a 9.898035
_cell_length_b 18.112191
_cell_length_c 25.373998
_cell_angle_alpha 90.000000
_cell_angle_beta 90.000000
_cell_angle_gamma 90.000000
_cell_volume 4548.926040
_symmetry_space_group_name_H-M "I B A M"
_symmetry_group_IT_number 72
_symmetry_cell_setting 'orthorhombic'
loop_
_space_group_symop_operation_xyz
x,y,z
-x,-y,z
x,-y,1/2-z
-x,y,1/2-z
-x,-y,-z
x,y,-z
-x,y,1/2+z
x,-y,1/2+z
1/2+x,1/2+y,1/2+z
1/2-x,1/2-y,1/2+z
1/2+x,1/2-y,-z
1/2-x,1/2+y,-z
1/2-x,1/2-y,1/2-z
1/2+x,1/2+y,1/2-z
1/2-x,1/2+y,z
1/2+x,1/2-y,z
loop_
_atom_site_type_symbol
_atom_site_label
_atom_site_fract_x
_atom_site_fract_y
_atom_site_fract_z
Si Si1 0.486365 0.757133 0.599833
Si Si2 0.168845 0.367281 0.757406
Si Si3 0.803761 0.451060 0.641444
Si Si4 0.092879 0.399299 0.349842
Si Si5 0.245257 0.163233 0.440841
Si Si6 0.901607 0.208825 0.703654
O O1 0.385055 0.820040 0.623299
O O2 0.621012 0.789204 0.572917
O O3 0.390097 0.713124 0.560051
O O4 0.529456 0.700983 0.646801
O O5 0.228011 0.427781 0.797689
O O6 0.055904 0.394101 0.714039
O O7 0.138409 0.294901 0.791609
O O8 0.275554 0.345981 0.710262
O O9 0.787922 0.540496 0.638123
O O10 0.716526 0.405930 0.598576
O O11 0.955890 0.430872 0.625931
O O12 0.262161 0.132713 0.500000
O O13 0.000000 0.184892 0.750000
#
# Coordination Sequence:
#
# PCOD8293435 Si02
#       6
#    16  16  16  16  16  16
#     4  11  21  38  59  88 118 148 199 252 303 354
#     4  11  18  30  51  83 119 153 180 220 283 358
#     4  10  20  34  53  82 119 154 190 233 291 350
#     4  10  19  32  54  85 118 152 183 231 291 362
#     4  11  23  40  61  84 112 152 203 259 304 346
#     4  11  19  29  52  84 116 149 183 227 285 354
#
# _framework density 21.103881999999999
#
# number of rings (size 3 to 8) (size 9 to 14) (size 15 to 20)
#    0.000    1.333    5.000    3.500    0.000    1.333 
#    0.000    7.500    0.000   12.000    0.000    5.833 
#    0.000    0.000    0.000    0.000    0.000    0.000 
#
# Total GULP energy -594780.352491 kJ/mol
# GULP energy per Si atom -12391.257344 kJ/mol
# Density = 2.105585 g / cm^3
# Si number density = 21.103882 Si / 1000 Ang^3
#
#
#
# Elastic Constant Matrix: (Units=GPa)
#
#
# Indices 1 2 3 4 5 6 
#
# 1 41.8085 9.3832 13.2791 0.0000 0.0000 0.0000
# 2 9.3832 60.5709 19.4022 0.0000 0.0000 0.0000
# 3 13.2791 19.4022 110.1676 0.0000 0.0000 0.0000
# 4 0.0000 0.0000 0.0000 16.2022 0.0000 0.0000
# 5 0.0000 0.0000 0.0000 0.0000 24.6328 0.0000
# 6 0.0000 0.0000 0.0000 0.0000 0.0000 19.5313
#
#
#
# Elastic Compliance Matrix: (Units=1/GPa)
#
#
# Indices 1 2 3 4 5 6 
#
# 1 0.025420 -0.003133 -0.002512 0.000000 0.000000 0.000000
# 2 -0.003133 0.017883 -0.002772 0.000000 0.000000 0.000000
# 3 -0.002512 -0.002772 0.009868 0.000000 0.000000 0.000000
# 4 0.000000 0.000000 0.000000 0.061720 0.000000 0.000000
# 5 0.000000 0.000000 0.000000 0.000000 0.040596 0.000000
# 6 0.000000 0.000000 0.000000 0.000000 0.000000 0.051200
#
#
# Mechanical properties :
#
#
# Convention : Reuss Voigt Hill
#
# Bulk Modulus (GPa) = 27.52066 32.96400 30.24233
# Shear Modulus (GPa) = 21.21946 23.43878 22.32912
#
# Velocity S-wave (km/s) = 3.17437 3.33624 3.25631
# Velocity P-wave (km/s) = 5.14824 5.52218 5.33848
#
# Compressibility (1/GPa) = 0.03633634
#
# Stress axis : x y z
#
# Youngs Moduli (GPa) = 39.33960 55.91960 101.33729
#
# Poissons Ratio (x) = 0.17520 0.25458
# Poissons Ratio (y) = 0.12326 0.28089
# Poissons Ratio (z) = 0.09883 0.15500
#
# Static dielectric constant tensor:
#      x y z
#    x 3.802160 0.000000 0.000000 
#    y 0.000000 3.973220 0.000000 
#    z 0.000000 0.000000 3.624160 
# 
# 
# High freq. dielectric constant tensor:
#      x y z
#    x 1.808780 0.000000 0.000000 
#    y 0.000000 1.809470 0.000000 
#    z 0.000000 0.000000 1.812550 
# 
# From -- ./inp_files/43330.got.cif
#   From: 2010.03.12/outbox.cif.g09.slc.cpg/sg72_22_cif.got.tgz:43330.got - 2010.04.16 14:54:00.
