data_PCOD8293694
_publ_section_title
;
Structure prediction by ZEFSAII (Michael W. Deem and Ramdas Pophale) SiO2 
 PCOD8293694
Probable space group: I B A M
;
_chemical_formula_sum "Si O2"
_cell_formula_units_Z 112
_cell_length_a 13.690736
_cell_length_b 23.961575
_cell_length_c 14.884117
_cell_angle_alpha 90.000000
_cell_angle_beta 90.000000
_cell_angle_gamma 90.000000
_cell_volume 4882.758359
_symmetry_space_group_name_H-M "I B A M"
_symmetry_group_IT_number 72
_symmetry_cell_setting 'orthorhombic'
loop_
_space_group_symop_operation_xyz
x,y,z
-x,-y,z
x,-y,1/2-z
-x,y,1/2-z
-x,-y,-z
x,y,-z
-x,y,1/2+z
x,-y,1/2+z
1/2+x,1/2+y,1/2+z
1/2-x,1/2-y,1/2+z
1/2+x,1/2-y,-z
1/2-x,1/2+y,-z
1/2-x,1/2-y,1/2-z
1/2+x,1/2+y,1/2-z
1/2-x,1/2+y,z
1/2+x,1/2-y,z
loop_
_atom_site_type_symbol
_atom_site_label
_atom_site_fract_x
_atom_site_fract_y
_atom_site_fract_z
Si Si1 0.125269 0.320177 0.653863
Si Si2 0.915351 0.334222 0.358579
Si Si3 0.215735 0.104645 0.098473
Si Si4 0.921834 0.458091 0.397779
Si Si5 0.207986 0.973486 0.896178
Si Si6 0.791958 0.792604 0.400032
Si Si7 0.888692 0.883686 0.722473
O O1 0.116798 0.338096 0.756355
O O2 0.171289 0.373963 0.602056
O O3 0.199465 0.268465 0.643707
O O4 0.016253 0.300436 0.622077
O O5 0.953540 0.394388 0.391400
O O6 0.822177 0.309895 0.410169
O O7 0.164496 0.131569 0.184296
O O8 0.196231 0.039291 0.108219
O O9 0.173939 0.122837 0.000000
O O10 0.909899 0.478789 0.500000
O O11 0.814384 0.460789 0.354601
O O12 0.000000 0.500000 0.350206
O O13 0.134186 0.942428 0.827812
O O14 0.194316 0.952071 0.000000
O O15 0.835180 0.790504 0.500000
O O16 0.858119 0.835417 0.345486
O O17 0.000000 0.882719 0.750000
#
# Coordination Sequence:
#
# PCOD8293694 Si02
#       7
#    16  16  16  16  16  16  16
#     4  11  25  44  69 105 145 189 238 298 360 437
#     4  11  23  42  73 102 144 192 237 293 367 441
#     4  11  24  43  68 101 144 186 230 299 364 430
#     4  10  19  35  65 105 145 183 228 287 355 437
#     4  10  21  41  68 101 143 183 234 294 364 438
#     4  12  26  46  74 102 141 193 248 306 366 435
#     4  12  27  45  71  98 139 189 250 310 355 427
#
# _framework density 22.937854000000002
#
# number of rings (size 3 to 8) (size 9 to 14) (size 15 to 20)
#    0.000    1.000    2.857    3.000    2.000    5.714 
#    0.000    5.714    0.000    0.000    0.000    0.000 
#    0.000    0.000    0.000    0.000    0.000    0.000 
#
# Total GULP energy -693903.119110 kJ/mol
# GULP energy per Si atom -12391.127127 kJ/mol
# Density = 2.288565 g / cm^3
# Si number density = 22.937854 Si / 1000 Ang^3
#
#
#
# Elastic Constant Matrix: (Units=GPa)
#
#
# Indices 1 2 3 4 5 6 
#
# 1 135.1270 29.6941 35.4691 0.0000 0.0000 0.0000
# 2 29.6941 71.8264 3.7334 -0.0007 0.0003 0.0002
# 3 35.4691 3.7334 101.8728 -0.0006 0.0004 0.0002
# 4 0.0000 -0.0007 -0.0006 31.7096 0.0002 0.0001
# 5 0.0000 0.0003 0.0004 0.0002 4.3034 -0.0001
# 6 0.0000 0.0002 0.0002 0.0001 -0.0001 30.5311
#
#
#
# Elastic Compliance Matrix: (Units=1/GPa)
#
#
# Indices 1 2 3 4 5 6 
#
# 1 0.008966 -0.003551 -0.002992 0.000000 0.000001 0.000000
# 2 -0.003551 0.015356 0.000674 0.000000 -0.000001 0.000000
# 3 -0.002992 0.000674 0.010833 0.000000 -0.000001 0.000000
# 4 0.000000 0.000000 0.000000 0.031536 -0.000002 0.000000
# 5 0.000001 -0.000001 -0.000001 -0.000002 0.232376 0.000001
# 6 0.000000 0.000000 0.000000 0.000000 0.000001 0.032753
#
#
# Mechanical properties :
#
#
# Convention : Reuss Voigt Hill
#
# Bulk Modulus (GPa) = 42.70497 49.62438 46.16467
# Shear Modulus (GPa) = 14.23025 29.30412 21.76718
#
# Velocity S-wave (km/s) = 2.49345 3.57815 3.08387
# Velocity P-wave (km/s) = 5.19113 6.22512 5.73149
#
# Compressibility (1/GPa) = 0.02341648
#
# Stress axis : x y z
#
# Youngs Moduli (GPa) = 111.53145 65.12294 92.31005
#
# Poissons Ratio (x) = 0.23127 0.27615
# Poissons Ratio (y) = 0.39607 -0.06219
# Poissons Ratio (z) = 0.33366 -0.04387
#
# Static dielectric constant tensor:
#      x y z
#    x 4.337370 0.000000 0.000000 
#    y 0.000000 4.104060 0.000000 
#    z 0.000000 0.000000 4.385670 
# 
# 
# High freq. dielectric constant tensor:
#      x y z
#    x 1.899610 0.000000 0.000000 
#    y 0.000000 1.900260 0.000000 
#    z 0.000000 0.000000 1.917720 
# 
# From -- ./inp_files/22124.got.cif
#   From: 2010.03.12/outbox.cif.g09.slc.cpg/sg72_12_cif.got.tgz:22124.got - 2010.04.16 14:54:00.
