data_PCOD8293736
_publ_section_title
;
Structure prediction by ZEFSAII (Michael W. Deem and Ramdas Pophale) SiO2 
 PCOD8293736
Probable space group: I B A M
;
_chemical_formula_sum "Si O2"
_cell_formula_units_Z 116
_cell_length_a 24.478988
_cell_length_b 12.456235
_cell_length_c 18.437086
_cell_angle_alpha 90.000000
_cell_angle_beta 90.000000
_cell_angle_gamma 90.000000
_cell_volume 5621.763014
_symmetry_space_group_name_H-M "I B A M"
_symmetry_group_IT_number 72
_symmetry_cell_setting 'orthorhombic'
loop_
_space_group_symop_operation_xyz
x,y,z
-x,-y,z
x,-y,1/2-z
-x,y,1/2-z
-x,-y,-z
x,y,-z
-x,y,1/2+z
x,-y,1/2+z
1/2+x,1/2+y,1/2+z
1/2-x,1/2-y,1/2+z
1/2+x,1/2-y,-z
1/2-x,1/2+y,-z
1/2-x,1/2-y,1/2-z
1/2+x,1/2+y,1/2-z
1/2-x,1/2+y,z
1/2+x,1/2-y,z
loop_
_atom_site_type_symbol
_atom_site_label
_atom_site_fract_x
_atom_site_fract_y
_atom_site_fract_z
Si Si1 0.478288 0.383142 0.414356
Si Si2 0.500000 0.000000 0.250000
Si Si3 0.489236 0.841564 0.631462
Si Si4 0.145010 0.840472 0.418533
Si Si5 0.379749 0.111520 0.920980
Si Si6 0.831460 0.321968 0.222489
Si Si7 0.789006 0.893305 0.787125
Si Si8 0.115025 0.616946 0.367176
O O1 0.500000 0.500000 0.391687
O O2 0.488125 0.358847 0.500000
O O3 0.507367 0.289647 0.365463
O O4 0.414270 0.384718 0.396023
O O5 0.466465 0.912191 0.299117
O O6 0.445325 0.872786 0.570456
O O7 0.550233 0.883470 0.616778
O O8 0.159805 0.871842 0.500000
O O9 0.192089 0.894099 0.370556
O O10 0.145306 0.712001 0.409363
O O11 0.358788 0.188863 0.856827
O O12 0.361198 0.991609 0.900347
O O13 0.354424 0.140459 0.000000
O O14 0.818657 0.201809 0.245311
O O15 0.776132 0.389759 0.217259
O O16 0.872064 0.376886 0.281098
O O17 0.810771 0.000000 0.750000
#
# Coordination Sequence:
#
# PCOD8293736 Si02
#       8
#    16   4  16  16  16  16  16  16
#     4   9  19  38  59  82 117 158 196 242 297 355
#     4  12  20  36  52  80 112 160 198 238 284 344
#     4  11  22  35  56  85 119 157 201 237 294 353
#     4   9  19  35  60  89 113 149 199 246 292 351
#     4  12  23  34  55  89 125 154 188 241 302 356
#     4  10  23  40  60  84 111 149 196 242 294 352
#     4  10  21  41  63  82 110 150 194 242 296 356
#     4  10  19  37  60  82 116 156 199 238 286 354
#
# _framework density 20.634096
#
# number of rings (size 3 to 8) (size 9 to 14) (size 15 to 20)
#    0.000    1.793    1.379    2.897    0.000    3.862 
#    0.000    2.414    0.000    0.828    0.000    0.000 
#    0.000    0.000    0.000    0.000    0.000    0.000 
#
# Total GULP energy -718669.076678 kJ/mol
# GULP energy per Si atom -12390.846150 kJ/mol
# Density = 2.058713 g / cm^3
# Si number density = 20.634096 Si / 1000 Ang^3
#
#
#
# Elastic Constant Matrix: (Units=GPa)
#
#
# Indices 1 2 3 4 5 6 
#
# 1 61.2214 28.4795 40.3285 0.0000 0.0000 0.0000
# 2 28.4795 117.8754 44.2877 0.0000 0.0000 0.0000
# 3 40.3285 44.2877 131.2282 0.0000 0.0000 0.0000
# 4 0.0000 0.0000 0.0000 26.9445 0.0000 0.0000
# 5 0.0000 0.0000 0.0000 0.0000 21.3105 0.0000
# 6 0.0000 0.0000 0.0000 0.0000 0.0000 13.4232
#
#
#
# Elastic Compliance Matrix: (Units=1/GPa)
#
#
# Indices 1 2 3 4 5 6 
#
# 1 0.021423 -0.003095 -0.005539 0.000000 0.000000 0.000000
# 2 -0.003095 0.010163 -0.002479 0.000000 0.000000 0.000000
# 3 -0.005539 -0.002479 0.010159 0.000000 0.000000 0.000000
# 4 0.000000 0.000000 0.000000 0.037113 0.000000 0.000000
# 5 0.000000 0.000000 0.000000 0.000000 0.046925 0.000000
# 6 0.000000 0.000000 0.000000 0.000000 0.000000 0.074498
#
#
# Mechanical properties :
#
#
# Convention : Reuss Voigt Hill
#
# Bulk Modulus (GPa) = 51.23145 59.61292 55.42219
# Shear Modulus (GPa) = 21.83295 25.48427 23.65861
#
# Velocity S-wave (km/s) = 3.25637 3.51815 3.38979
# Velocity P-wave (km/s) = 6.24669 6.74213 6.49913
#
# Compressibility (1/GPa) = 0.01951926
#
# Stress axis : x y z
#
# Youngs Moduli (GPa) = 46.67983 98.40091 98.43433
#
# Poissons Ratio (x) = 0.30452 0.54523
# Poissons Ratio (y) = 0.14446 0.24398
# Poissons Ratio (z) = 0.25856 0.24390
#
# Static dielectric constant tensor:
#      x y z
#    x 3.643110 0.000000 0.000000 
#    y 0.000000 3.812950 0.000000 
#    z 0.000000 0.000000 3.804010 
# 
# 
# High freq. dielectric constant tensor:
#      x y z
#    x 1.792650 0.000000 0.000000 
#    y 0.000000 1.806910 0.000000 
#    z 0.000000 0.000000 1.800430 
# 
# From -- ./inp_files/33983.got.cif
#   From: 2010.03.12/outbox.cif.g09.slc.cpg/sg72_17_cif.got.tgz:33983.got - 2010.04.16 14:54:00.
