data_PCOD8293215
_publ_section_title
;
Structure prediction by ZEFSAII (Michael W. Deem and Ramdas Pophale) SiO2 
 PCOD8293215
Probable space group: I B A M
;
_chemical_formula_sum "Si O2"
_cell_formula_units_Z 88
_cell_length_a 18.714544
_cell_length_b 12.516283
_cell_length_c 18.784960
_cell_angle_alpha 90.000000
_cell_angle_beta 90.000000
_cell_angle_gamma 90.000000
_cell_volume 4400.123826
_symmetry_space_group_name_H-M "I B A M"
_symmetry_group_IT_number 72
_symmetry_cell_setting 'orthorhombic'
loop_
_space_group_symop_operation_xyz
x,y,z
-x,-y,z
x,-y,1/2-z
-x,y,1/2-z
-x,-y,-z
x,y,-z
-x,y,1/2+z
x,-y,1/2+z
1/2+x,1/2+y,1/2+z
1/2-x,1/2-y,1/2+z
1/2+x,1/2-y,-z
1/2-x,1/2+y,-z
1/2-x,1/2-y,1/2-z
1/2+x,1/2+y,1/2-z
1/2-x,1/2+y,z
1/2+x,1/2-y,z
loop_
_atom_site_type_symbol
_atom_site_label
_atom_site_fract_x
_atom_site_fract_y
_atom_site_fract_z
Si Si1 0.249853 0.157263 0.144710
Si Si2 0.178957 0.500000 0.750000
Si Si3 0.532736 0.697664 0.580892
Si Si4 0.619574 0.698416 0.855239
Si Si5 0.123733 0.712778 0.702731
Si Si6 0.638438 0.516579 0.579053
O O1 0.320357 0.218416 0.116378
O O2 0.203010 0.243659 0.187395
O O3 0.202160 0.104384 0.082862
O O4 0.270793 0.059383 0.194524
O O5 0.127134 0.585936 0.713043
O O6 0.549111 0.735340 0.500000
O O7 0.448442 0.703343 0.593240
O O8 0.570157 0.775052 0.637337
O O9 0.563421 0.577923 0.592793
O O10 0.597179 0.725497 0.774057
O O11 0.648619 0.576940 0.862690
O O12 0.639528 0.466631 0.500000
#
# Coordination Sequence:
#
# PCOD8293215 Si02
#       6
#    16   8  16  16  16  16
#     4  10  20  35  57  85 113 144 187 233 280 336
#     4  10  18  36  59  82 111 144 186 238 284 332
#     4  10  22  39  57  82 115 150 189 234 286 339
#     4  11  20  35  60  86 112 147 192 237 281 335
#     4  10  21  37  60  86 114 148 188 238 287 335
#     4  10  21  36  55  82 119 156 187 230 286 337
#
# _framework density 19.999438000000001
#
# number of rings (size 3 to 8) (size 9 to 14) (size 15 to 20)
#    0.000    1.818    0.000    6.000    0.000    5.091 
#    0.000   15.455    0.000    6.545    0.000    0.000 
#    0.000    0.000    0.000    0.000    0.000    0.000 
#
# Total GULP energy -545447.207357 kJ/mol
# GULP energy per Si atom -12396.527440 kJ/mol
# Density = 1.995392 g / cm^3
# Si number density = 19.999438 Si / 1000 Ang^3
#
#
#
# Elastic Constant Matrix: (Units=GPa)
#
#
# Indices 1 2 3 4 5 6 
#
# 1 119.1180 54.0513 45.8551 0.0000 0.0000 0.0000
# 2 54.0513 141.7532 60.9708 0.0000 0.0000 0.0000
# 3 45.8551 60.9708 97.7203 0.0000 0.0000 0.0000
# 4 0.0000 0.0000 0.0000 22.2988 0.0000 0.0000
# 5 0.0000 0.0000 0.0000 0.0000 25.2369 0.0000
# 6 0.0000 0.0000 0.0000 0.0000 0.0000 -4.6188
#
#
#
# Elastic Compliance Matrix: (Units=1/GPa)
#
#
# Indices 1 2 3 4 5 6 
#
# 1 0.010946 -0.002685 -0.003461 0.000000 0.000000 0.000000
# 2 -0.002685 0.010301 -0.005167 0.000000 0.000000 0.000000
# 3 -0.003461 -0.005167 0.015081 0.000000 0.000000 0.000000
# 4 0.000000 0.000000 0.000000 0.044846 0.000000 0.000000
# 5 0.000000 0.000000 0.000000 0.000000 0.039625 0.000000
# 6 0.000000 0.000000 0.000000 0.000000 0.000000 -0.216504
#
#
# Mechanical properties :
#
#
# Convention : Reuss Voigt Hill
#
# Bulk Modulus (GPa) = 72.98404 75.59397 74.28901
# Shear Modulus (GPa) = -72.97879 21.76431 -25.60724
#
# Velocity S-wave (km/s) = -6.04728 3.30244 -3.58215
# Velocity P-wave (km/s) = 3.49102 7.24027 4.48522
#
# Compressibility (1/GPa) = 0.01370163
#
# Stress axis : x y z
#
# Youngs Moduli (GPa) = 91.35987 97.08011 66.30758
#
# Poissons Ratio (x) = 0.26066 0.22949
# Poissons Ratio (y) = 0.24530 0.34261
# Poissons Ratio (z) = 0.31620 0.50162
#
# Static dielectric constant tensor:
#      x y z
#    x 3.642250 0.000000 0.000000 
#    y 0.000000 3.635640 0.000000 
#    z 0.000000 0.000000 3.501500 
# 
# 
# High freq. dielectric constant tensor:
#      x y z
#    x 1.783940 0.000000 0.000000 
#    y 0.000000 1.775840 0.000000 
#    z 0.000000 0.000000 1.772750 
# 
# From -- ./inp_files/38863.got.cif
#   From: 2010.03.12/outbox.cif.g09.slc.cpg/sg72_20_cif.got.tgz:38863.got - 2010.04.16 14:54:00.
