data_PCOD8293589
_publ_section_title
;
Structure prediction by ZEFSAII (Michael W. Deem and Ramdas Pophale) SiO2 
 PCOD8293589
Probable space group: I B A M
;
_chemical_formula_sum "Si O2"
_cell_formula_units_Z 116
_cell_length_a 15.358336
_cell_length_b 16.063358
_cell_length_c 24.949554
_cell_angle_alpha 90.000000
_cell_angle_beta 90.000000
_cell_angle_gamma 90.000000
_cell_volume 6155.215883
_symmetry_space_group_name_H-M "I B A M"
_symmetry_group_IT_number 72
_symmetry_cell_setting 'orthorhombic'
loop_
_space_group_symop_operation_xyz
x,y,z
-x,-y,z
x,-y,1/2-z
-x,y,1/2-z
-x,-y,-z
x,y,-z
-x,y,1/2+z
x,-y,1/2+z
1/2+x,1/2+y,1/2+z
1/2-x,1/2-y,1/2+z
1/2+x,1/2-y,-z
1/2-x,1/2+y,-z
1/2-x,1/2-y,1/2-z
1/2+x,1/2+y,1/2-z
1/2-x,1/2+y,z
1/2+x,1/2-y,z
loop_
_atom_site_type_symbol
_atom_site_label
_atom_site_fract_x
_atom_site_fract_y
_atom_site_fract_z
Si Si1 0.584898 0.296027 0.224989
Si Si2 0.796562 0.269000 0.871449
Si Si3 0.867787 0.373980 0.222414
Si Si4 0.215426 0.884467 0.205917
Si Si5 0.595787 0.515835 0.867747
Si Si6 0.116148 0.832431 0.605795
Si Si7 0.000000 0.500000 0.250000
Si Si8 0.934598 0.824146 0.561528
O O1 0.500000 0.340140 0.250000
O O2 0.588317 0.204643 0.249461
O O3 0.667357 0.349336 0.241927
O O4 0.578887 0.297197 0.161490
O O5 0.822318 0.346550 0.833231
O O6 0.769330 0.189637 0.836143
O O7 0.710789 0.292383 0.906738
O O8 0.878185 0.247934 0.909579
O O9 0.804934 0.415312 0.267783
O O10 0.941719 0.442499 0.210602
O O11 0.163451 0.960296 0.179025
O O12 0.500000 0.500000 0.842383
O O13 0.629889 0.431846 0.895276
O O14 0.588956 0.587244 0.912436
O O15 0.038897 0.806407 0.564910
O O16 0.906531 0.826413 0.500000
#
# Coordination Sequence:
#
# PCOD8293589 Si02
#       8
#    16  16  16  16  16  16   4  16
#     4  11  18  32  54  79 115 151 186 220 267 333
#     4  10  20  38  61  84 114 152 200 241 281 343
#     4  11  21  37  51  82 120 158 192 223 265 332
#     4  10  19  34  55  79 118 159 182 228 269 329
#     4   9  20  35  53  86 118 144 183 231 296 355
#     4  11  20  34  58  87 111 151 188 238 294 343
#     4  12  28  32  52  84 124 174 184 212 272 332
#     4  10  23  41  60  82 110 145 193 255 309 354
#
# _framework density 18.845804999999999
#
# number of rings (size 3 to 8) (size 9 to 14) (size 15 to 20)
#    0.000    1.655    3.448    4.138    1.931    3.586 
#    0.000    2.759    0.000    0.000    0.000    0.483 
#    0.000    0.000    0.000    0.000    0.000    0.000 
#
# Total GULP energy -718935.076128 kJ/mol
# GULP energy per Si atom -12395.432347 kJ/mol
# Density = 1.880291 g / cm^3
# Si number density = 18.845805 Si / 1000 Ang^3
#
#
#
# Elastic Constant Matrix: (Units=GPa)
#
#
# Indices 1 2 3 4 5 6 
#
# 1 126.8828 49.8287 34.9332 0.0000 0.0000 0.0000
# 2 49.8287 66.3135 19.6214 0.0000 0.0000 0.0000
# 3 34.9332 19.6214 79.0609 0.0000 0.0000 0.0000
# 4 0.0000 0.0000 0.0000 15.6467 0.0000 0.0000
# 5 0.0000 0.0000 0.0000 0.0000 23.4533 0.0000
# 6 0.0000 0.0000 0.0000 0.0000 0.0000 28.1461
#
#
#
# Elastic Compliance Matrix: (Units=1/GPa)
#
#
# Indices 1 2 3 4 5 6 
#
# 1 0.011922 -0.007986 -0.003286 0.000000 0.000000 0.000000
# 2 -0.007986 0.021625 -0.001838 0.000000 0.000000 0.000000
# 3 -0.003286 -0.001838 0.014556 0.000000 0.000000 0.000000
# 4 0.000000 0.000000 0.000000 0.063911 0.000000 0.000000
# 5 0.000000 0.000000 0.000000 0.000000 0.042638 0.000000
# 6 0.000000 0.000000 0.000000 0.000000 0.000000 0.035529
#
#
# Mechanical properties :
#
#
# Convention : Reuss Voigt Hill
#
# Bulk Modulus (GPa) = 45.69737 53.44710 49.57223
# Shear Modulus (GPa) = 22.35171 24.64080 23.49626
#
# Velocity S-wave (km/s) = 3.44762 3.61985 3.53478
# Velocity P-wave (km/s) = 6.33630 6.77443 6.55903
#
# Compressibility (1/GPa) = 0.02188310
#
# Stress axis : x y z
#
# Youngs Moduli (GPa) = 83.87652 46.24333 68.69784
#
# Poissons Ratio (x) = 0.36931 0.22573
# Poissons Ratio (y) = 0.66986 0.12627
# Poissons Ratio (z) = 0.27561 0.08500
#
# Static dielectric constant tensor:
#      x y z
#    x 3.760980 0.000000 0.000000 
#    y 0.000000 3.492810 0.000000 
#    z 0.000000 0.000000 3.054350 
# 
# 
# High freq. dielectric constant tensor:
#      x y z
#    x 1.750090 0.000000 0.000000 
#    y 0.000000 1.726880 0.000000 
#    z 0.000000 0.000000 1.688340 
# 
# From -- ./inp_files/48818.got.cif
#   From: 2010.03.12/outbox.cif.g09.slc.cpg/sg72_25_cif.got.tgz:48818.got - 2010.04.16 14:54:00.
