data_PCOD8293653
_publ_section_title
;
Structure prediction by ZEFSAII (Michael W. Deem and Ramdas Pophale) SiO2 
 PCOD8293653
Probable space group: I B A M
;
_chemical_formula_sum "Si O2"
_cell_formula_units_Z 96
_cell_length_a 10.070230
_cell_length_b 19.587800
_cell_length_c 27.250263
_cell_angle_alpha 90.000000
_cell_angle_beta 90.000000
_cell_angle_gamma 90.000000
_cell_volume 5375.213873
_symmetry_space_group_name_H-M "I B A M"
_symmetry_group_IT_number 72
_symmetry_cell_setting 'orthorhombic'
loop_
_space_group_symop_operation_xyz
x,y,z
-x,-y,z
x,-y,1/2-z
-x,y,1/2-z
-x,-y,-z
x,y,-z
-x,y,1/2+z
x,-y,1/2+z
1/2+x,1/2+y,1/2+z
1/2-x,1/2-y,1/2+z
1/2+x,1/2-y,-z
1/2-x,1/2+y,-z
1/2-x,1/2-y,1/2-z
1/2+x,1/2+y,1/2-z
1/2-x,1/2+y,z
1/2+x,1/2-y,z
loop_
_atom_site_type_symbol
_atom_site_label
_atom_site_fract_x
_atom_site_fract_y
_atom_site_fract_z
Si Si1 0.642421 0.470961 0.362165
Si Si2 0.742522 0.615286 0.350355
Si Si3 0.889440 0.402277 0.945668
Si Si4 0.822457 0.439467 0.446061
Si Si5 0.870096 0.719319 0.718535
Si Si6 0.968917 0.147184 0.192327
O O1 0.500000 0.500000 0.379623
O O2 0.737661 0.532740 0.343862
O O3 0.706302 0.427750 0.406677
O O4 0.626313 0.417370 0.317765
O O5 0.799389 0.634603 0.404321
O O6 0.834588 0.649252 0.308961
O O7 0.595352 0.644497 0.343451
O O8 0.853495 0.481048 0.947721
O O9 0.045561 0.396595 0.931617
O O10 0.863211 0.370048 0.000000
O O11 0.773114 0.415792 0.500000
O O12 0.750000 0.750000 0.750000
O O13 0.901782 0.780170 0.679904
O O14 0.000000 0.701702 0.750000
O O15 0.000000 0.144728 0.250000
#
# Coordination Sequence:
#
# PCOD8293653 Si02
#       6
#    16  16  16  16  16  16
#     4   9  19  31  53  81 109 144 181 228 283 324
#     4  10  19  35  56  82 105 140 189 226 268 330
#     4   8  15  29  52  76 107 143 175 220 277 329
#     4   8  14  28  48  76 110 141 174 218 275 334
#     4  11  21  38  57  81 105 146 193 226 269 337
#     4  10  20  37  55  75 109 147 182 222 282 335
#
# _framework density 17.859753999999999
#
# number of rings (size 3 to 8) (size 9 to 14) (size 15 to 20)
#    0.000    2.667    3.333    1.000    0.000    4.667 
#    0.000    2.500    0.000    2.000    0.000    0.000 
#    0.000    0.000    0.000    0.000    0.000    0.000 
#
# Total GULP energy -594685.015463 kJ/mol
# GULP energy per Si atom -12389.271155 kJ/mol
# Density = 1.781910 g / cm^3
# Si number density = 17.859754 Si / 1000 Ang^3
#
#
#
# Elastic Constant Matrix: (Units=GPa)
#
#
# Indices 1 2 3 4 5 6 
#
# 1 91.1115 42.8414 62.0240 0.0000 0.0000 0.0000
# 2 42.8414 75.6483 45.8326 0.0000 0.0000 0.0000
# 3 62.0240 45.8326 108.0891 0.0000 0.0000 0.0000
# 4 0.0000 0.0000 0.0000 10.6777 0.0000 0.0000
# 5 0.0000 0.0000 0.0000 0.0000 36.7786 0.0000
# 6 0.0000 0.0000 0.0000 0.0000 0.0000 25.0084
#
#
#
# Elastic Compliance Matrix: (Units=1/GPa)
#
#
# Indices 1 2 3 4 5 6 
#
# 1 0.019742 -0.005809 -0.008865 0.000000 0.000000 0.000000
# 2 -0.005809 0.019499 -0.004934 0.000000 0.000000 0.000000
# 3 -0.008865 -0.004934 0.016431 0.000000 0.000000 0.000000
# 4 0.000000 0.000000 0.000000 0.093653 0.000000 0.000000
# 5 0.000000 0.000000 0.000000 0.000000 0.027190 0.000000
# 6 0.000000 0.000000 0.000000 0.000000 0.000000 0.039987
#
#
# Mechanical properties :
#
#
# Convention : Reuss Voigt Hill
#
# Bulk Modulus (GPa) = 60.77584 64.02723 62.40153
# Shear Modulus (GPa) = 19.14215 22.76967 20.95591
#
# Velocity S-wave (km/s) = 3.27739 3.57447 3.42915
# Velocity P-wave (km/s) = 6.95882 7.27761 7.12000
#
# Compressibility (1/GPa) = 0.01645391
#
# Stress axis : x y z
#
# Youngs Moduli (GPa) = 50.65319 51.28569 60.86070
#
# Poissons Ratio (x) = 0.29794 0.53954
# Poissons Ratio (y) = 0.29426 0.30031
# Poissons Ratio (z) = 0.44905 0.25306
#
# Static dielectric constant tensor:
#      x y z
#    x 3.891960 0.000000 0.000000 
#    y 0.000000 3.256110 0.000000 
#    z 0.000000 0.000000 9.051910 
# 
# 
# High freq. dielectric constant tensor:
#      x y z
#    x 1.693910 0.000000 0.000000 
#    y 0.000000 1.659860 0.000000 
#    z 0.000000 0.000000 1.681110 
# 
# From -- ./inp_files/47334.got.cif
#   From: 2010.03.12/outbox.cif.g09.slc.cpg/sg72_24_cif.got.tgz:47334.got - 2010.04.16 14:54:00.
