data_PCOD8293199
_publ_section_title
;
Structure prediction by ZEFSAII (Michael W. Deem and Ramdas Pophale) SiO2 
 PCOD8293199
Probable space group: I B A M
;
_chemical_formula_sum "Si O2"
_cell_formula_units_Z 100
_cell_length_a 18.507169
_cell_length_b 19.809513
_cell_length_c 14.590021
_cell_angle_alpha 90.000000
_cell_angle_beta 90.000000
_cell_angle_gamma 90.000000
_cell_volume 5348.964390
_symmetry_space_group_name_H-M "I B A M"
_symmetry_group_IT_number 72
_symmetry_cell_setting 'orthorhombic'
loop_
_space_group_symop_operation_xyz
x,y,z
-x,-y,z
x,-y,1/2-z
-x,y,1/2-z
-x,-y,-z
x,y,-z
-x,y,1/2+z
x,-y,1/2+z
1/2+x,1/2+y,1/2+z
1/2-x,1/2-y,1/2+z
1/2+x,1/2-y,-z
1/2-x,1/2+y,-z
1/2-x,1/2-y,1/2-z
1/2+x,1/2+y,1/2-z
1/2-x,1/2+y,z
1/2+x,1/2-y,z
loop_
_atom_site_type_symbol
_atom_site_label
_atom_site_fract_x
_atom_site_fract_y
_atom_site_fract_z
Si Si1 0.914589 0.424631 0.247385
Si Si2 0.194036 0.805528 0.391590
Si Si3 0.500000 0.500000 0.750000
Si Si4 0.937814 0.102584 0.605603
Si Si5 0.354978 0.175510 0.893588
Si Si6 0.612582 0.822081 0.398653
Si Si7 0.516777 0.264549 0.644134
O O1 0.882914 0.500000 0.250000
O O2 0.891485 0.388263 0.154380
O O3 0.882905 0.387397 0.335787
O O4 0.000000 0.424941 0.250000
O O5 0.193879 0.798074 0.500000
O O6 0.139389 0.865915 0.364781
O O7 0.274138 0.816984 0.352914
O O8 0.164249 0.734570 0.352611
O O9 0.548556 0.455232 0.818940
O O10 0.936145 0.074851 0.500000
O O11 0.000748 0.159508 0.610254
O O12 0.399968 0.244655 0.875738
O O13 0.351246 0.158321 0.000000
O O14 0.637882 0.844222 0.500000
O O15 0.532671 0.789945 0.407986
O O16 0.500000 0.256817 0.750000
#
# Coordination Sequence:
#
# PCOD8293199 Si02
#       7
#    16  16   4  16  16  16  16
#     4  11  23  36  50  79 115 147 188 227 261 324
#     4   8  19  36  59  85 111 139 179 234 291 331
#     4  12  22  36  64  86 108 156 206 216 268 342
#     4  10  21  39  58  85 119 147 184 237 280 329
#     4  11  20  36  60  85 110 144 184 230 285 335
#     4  10  18  35  57  78 106 145 180 226 285 326
#     4  11  18  34  58  86 112 136 184 241 280 325
#
# _framework density 18.695208000000001
#
# number of rings (size 3 to 8) (size 9 to 14) (size 15 to 20)
#    0.000    1.760    4.000    2.640    0.000    1.280 
#    1.440    1.600    0.000    0.000    0.000    0.000 
#    0.000    0.000    0.000    0.000    0.000    0.000 
#
# Total GULP energy -619862.773424 kJ/mol
# GULP energy per Si atom -12397.255468 kJ/mol
# Density = 1.865266 g / cm^3
# Si number density = 18.695208 Si / 1000 Ang^3
#
#
#
# Elastic Constant Matrix: (Units=GPa)
#
#
# Indices 1 2 3 4 5 6 
#
# 1 124.6274 53.4006 30.4680 0.0000 0.0000 0.0000
# 2 53.4006 127.1733 52.3374 0.0000 0.0000 0.0000
# 3 30.4680 52.3374 106.0413 0.0000 0.0000 0.0000
# 4 0.0000 0.0000 0.0000 -57.7100 0.0000 0.0000
# 5 0.0000 0.0000 0.0000 0.0000 16.2136 0.0000
# 6 0.0000 0.0000 0.0000 0.0000 0.0000 -15.0076
#
#
#
# Elastic Compliance Matrix: (Units=1/GPa)
#
#
# Indices 1 2 3 4 5 6 
#
# 1 0.009867 -0.003735 -0.000991 0.000000 0.000000 0.000000
# 2 -0.003735 0.011281 -0.004495 0.000000 0.000000 0.000000
# 3 -0.000991 -0.004495 0.011934 0.000000 0.000000 0.000000
# 4 0.000000 0.000000 0.000000 -0.017328 0.000000 0.000000
# 5 0.000000 0.000000 0.000000 0.000000 0.061677 0.000000
# 6 0.000000 0.000000 0.000000 0.000000 0.000000 -0.066633
#
#
# Mechanical properties :
#
#
# Convention : Reuss Voigt Hill
#
# Bulk Modulus (GPa) = 68.31052 70.02823 69.16938
# Shear Modulus (GPa) = 146.54137 3.47492 75.00815
#
# Velocity S-wave (km/s) = 8.86310 1.36483 6.34103
# Velocity P-wave (km/s) = 11.88940 6.32636 9.52315
#
# Compressibility (1/GPa) = 0.01463903
#
# Stress axis : x y z
#
# Youngs Moduli (GPa) = 101.35094 88.64079 83.79670
#
# Poissons Ratio (x) = 0.33108 0.08308
# Poissons Ratio (y) = 0.37855 0.37666
# Poissons Ratio (z) = 0.10049 0.39843
#
# Static dielectric constant tensor:
#      x y z
#    x 3.653000 0.000000 0.000000 
#    y 0.000000 3.455750 0.000000 
#    z 0.000000 0.000000 3.497660 
# 
# 
# High freq. dielectric constant tensor:
#      x y z
#    x 1.712930 0.000000 0.000000 
#    y 0.000000 1.706200 0.000000 
#    z 0.000000 0.000000 1.736360 
# 
# From -- ./inp_files/23359.got.cif
#   From: 2010.03.12/outbox.cif.g09.slc.cpg/sg72_12_cif.got.tgz:23359.got - 2010.04.16 14:54:00.
