data_PCOD8293376
_publ_section_title
;
Structure prediction by ZEFSAII (Michael W. Deem and Ramdas Pophale) SiO2 
 PCOD8293376
Probable space group: I B A M
;
_chemical_formula_sum "Si O2"
_cell_formula_units_Z 128
_cell_length_a 17.781278
_cell_length_b 23.665092
_cell_length_c 18.205267
_cell_angle_alpha 90.000000
_cell_angle_beta 90.000000
_cell_angle_gamma 90.000000
_cell_volume 7660.695882
_symmetry_space_group_name_H-M "I B A M"
_symmetry_group_IT_number 72
_symmetry_cell_setting 'orthorhombic'
loop_
_space_group_symop_operation_xyz
x,y,z
-x,-y,z
x,-y,1/2-z
-x,y,1/2-z
-x,-y,-z
x,y,-z
-x,y,1/2+z
x,-y,1/2+z
1/2+x,1/2+y,1/2+z
1/2-x,1/2-y,1/2+z
1/2+x,1/2-y,-z
1/2-x,1/2+y,-z
1/2-x,1/2-y,1/2-z
1/2+x,1/2+y,1/2-z
1/2-x,1/2+y,z
1/2+x,1/2-y,z
loop_
_atom_site_type_symbol
_atom_site_label
_atom_site_fract_x
_atom_site_fract_y
_atom_site_fract_z
Si Si1 0.698991 0.747842 0.823509
Si Si2 0.510770 0.109880 0.336767
Si Si3 0.833570 0.561859 0.665145
Si Si4 0.399470 0.275907 0.415520
Si Si5 0.791789 0.327737 0.414463
Si Si6 0.470938 0.233754 0.171461
Si Si7 0.758773 0.151779 0.587027
Si Si8 0.649059 0.067662 0.835402
O O1 0.750000 0.750000 0.750000
O O2 0.718913 0.693474 0.871505
O O3 0.610777 0.741245 0.810817
O O4 0.705652 0.803775 0.872507
O O5 0.500000 0.109089 0.250000
O O6 0.583846 0.076490 0.365880
O O7 0.522257 0.173153 0.370120
O O8 0.436312 0.077188 0.364085
O O9 0.764345 0.591469 0.621740
O O10 0.822191 0.495615 0.652117
O O11 0.835181 0.582055 0.750018
O O12 0.421941 0.277289 0.500000
O O13 0.358547 0.216616 0.395354
O O14 0.477021 0.279933 0.369973
O O15 0.345299 0.329434 0.396742
O O16 0.774355 0.328112 0.500000
O O17 0.803880 0.390690 0.386358
O O18 0.500000 0.218608 0.250000
O O19 0.743399 0.152490 0.500000
#
# Coordination Sequence:
#
# PCOD8293376 Si02
#       8
#    16  16  16  16  16  16  16  16
#     4  11  21  33  53  74 101 132 169 215 256 308
#     4   9  17  29  46  71 101 133 176 212 245 294
#     4  10  19  32  50  73  98 137 177 214 252 297
#     4   9  19  33  49  69  99 134 169 209 256 305
#     4  10  20  34  49  70 100 135 168 208 256 301
#     4  11  19  30  51  76  98 133 170 207 256 305
#     4  10  20  34  49  71 101 134 171 214 257 303
#     4  10  19  32  51  71 100 135 177 215 251 293
#
# _framework density 16.708663999999999
#
# number of rings (size 3 to 8) (size 9 to 14) (size 15 to 20)
#    0.000    2.000    2.500    3.750    1.750    3.000 
#    0.000    0.625    0.000    1.500    0.000    0.875 
#    0.000    6.000    0.000    0.125    0.000    0.000 
#
# Total GULP energy -792978.069610 kJ/mol
# GULP energy per Si atom -12390.282338 kJ/mol
# Density = 1.667063 g / cm^3
# Si number density = 16.708664 Si / 1000 Ang^3
#
#
#
# Elastic Constant Matrix: (Units=GPa)
#
#
# Indices 1 2 3 4 5 6 
#
# 1 99.9635 47.9493 42.4956 -0.0001 0.0000 0.0000
# 2 47.9493 89.7389 42.5067 -0.0002 0.0000 0.0000
# 3 42.4956 42.5067 72.8614 -0.0006 0.0000 0.0000
# 4 -0.0001 -0.0002 -0.0006 23.8890 0.0000 0.0000
# 5 0.0000 0.0000 0.0000 0.0000 22.7914 0.0000
# 6 0.0000 0.0000 0.0000 0.0000 0.0000 19.1070
#
#
#
# Elastic Compliance Matrix: (Units=1/GPa)
#
#
# Indices 1 2 3 4 5 6 
#
# 1 0.014943 -0.005329 -0.005607 0.000000 0.000000 0.000000
# 2 -0.005329 0.017299 -0.006984 0.000000 0.000000 0.000000
# 3 -0.005607 -0.006984 0.021069 0.000000 0.000000 0.000000
# 4 0.000000 0.000000 0.000000 0.041860 0.000000 0.000000
# 5 0.000000 0.000000 0.000000 0.000000 0.043876 0.000000
# 6 0.000000 0.000000 0.000000 0.000000 0.000000 0.052337
#
#
# Mechanical properties :
#
#
# Convention : Reuss Voigt Hill
#
# Bulk Modulus (GPa) = 57.23381 58.71856 57.97618
# Shear Modulus (GPa) = 21.45486 21.79830 21.62658
#
# Velocity S-wave (km/s) = 3.58726 3.61586 3.60159
# Velocity P-wave (km/s) = 7.17539 7.25613 7.21587
#
# Compressibility (1/GPa) = 0.01747219
#
# Stress axis : x y z
#
# Youngs Moduli (GPa) = 66.92046 57.80747 47.46263
#
# Poissons Ratio (x) = 0.30804 0.26611
# Poissons Ratio (y) = 0.35660 0.33148
# Poissons Ratio (z) = 0.37520 0.40373
#
# Static dielectric constant tensor:
#      x y z
#    x 3.159710 0.000000 0.000000 
#    y 0.000000 3.044800 0.000000 
#    z 0.000000 0.000000 3.076450 
# 
# 
# High freq. dielectric constant tensor:
#      x y z
#    x 1.628290 0.000000 0.000000 
#    y 0.000000 1.622990 0.000000 
#    z 0.000000 0.000000 1.638500 
# 
# From -- ./inp_files/32083.got.cif
#   From: 2010.03.12/outbox.cif.g09.slc.cpg/sg72_17_cif.got.tgz:32083.got - 2010.04.16 14:54:00.
