data_PCOD8293183
_publ_section_title
;
Structure prediction by ZEFSAII (Michael W. Deem and Ramdas Pophale) SiO2 
 PCOD8293183
Probable space group: I B A M
;
_chemical_formula_sum "Si O2"
_cell_formula_units_Z 80
_cell_length_a 18.470143
_cell_length_b 21.842404
_cell_length_c 10.056359
_cell_angle_alpha 90.000000
_cell_angle_beta 90.000000
_cell_angle_gamma 90.000000
_cell_volume 4057.060296
_symmetry_space_group_name_H-M "I B A M"
_symmetry_group_IT_number 72
_symmetry_cell_setting 'orthorhombic'
loop_
_space_group_symop_operation_xyz
x,y,z
-x,-y,z
x,-y,1/2-z
-x,y,1/2-z
-x,-y,-z
x,y,-z
-x,y,1/2+z
x,-y,1/2+z
1/2+x,1/2+y,1/2+z
1/2-x,1/2-y,1/2+z
1/2+x,1/2-y,-z
1/2-x,1/2+y,-z
1/2-x,1/2-y,1/2-z
1/2+x,1/2+y,1/2-z
1/2-x,1/2+y,z
1/2+x,1/2-y,z
loop_
_atom_site_type_symbol
_atom_site_label
_atom_site_fract_x
_atom_site_fract_y
_atom_site_fract_z
Si Si1 0.689033 0.263210 0.500000
Si Si2 0.701471 0.664739 0.500000
Si Si3 0.120354 0.822915 0.762538
Si Si4 0.562664 0.835383 0.000000
Si Si5 0.823375 0.435500 0.000000
Si Si6 0.741131 0.000000 0.750000
Si Si7 0.000000 0.722323 0.250000
Si Si8 0.382556 0.450586 0.151527
O O1 0.768387 0.233908 0.500000
O O2 0.682368 0.303070 0.366570
O O3 0.625882 0.213784 0.500000
O O4 0.653691 0.652677 0.372452
O O5 0.766114 0.618043 0.500000
O O6 0.067702 0.767100 0.728866
O O7 0.082431 0.883202 0.826234
O O8 0.596408 0.904124 0.000000
O O9 0.511567 0.823359 0.126890
O O10 0.811800 0.474460 0.865406
O O11 0.795402 0.051034 0.814874
O O12 0.420723 0.500000 0.250000
O O13 0.395007 0.471820 0.000000
#
# Coordination Sequence:
#
# PCOD8293183 Si02
#       8
#     8   8  16   8   8   8   8  16
#     4   9  20  33  52  80 113 140 188 249 298 349
#     4  11  19  32  52  86 112 146 185 237 308 357
#     4  11  20  34  56  78 114 158 191 240 289 341
#     4   9  21  40  61  81 111 156 198 242 290 344
#     4  11  20  35  61  89 120 146 185 242 304 364
#     4  10  18  34  56  86 122 148 180 232 306 366
#     4  10  22  42  57  81 116 162 208 240 278 340
#     4  10  19  33  54  82 117 155 185 230 291 352
#
# _framework density 19.718710000000002
#
# number of rings (size 3 to 8) (size 9 to 14) (size 15 to 20)
#    0.600    1.200    4.000    1.200    1.400    0.000 
#    0.000    1.500    0.000    3.000    0.000    0.000 
#    0.000    0.000    0.000    0.000    0.000    0.000 
#
# Total GULP energy -495706.098254 kJ/mol
# GULP energy per Si atom -12392.652456 kJ/mol
# Density = 1.967383 g / cm^3
# Si number density = 19.718710 Si / 1000 Ang^3
#
#
#
# Elastic Constant Matrix: (Units=GPa)
#
#
# Indices 1 2 3 4 5 6 
#
# 1 38.9768 13.5766 26.3529 0.0000 0.0000 0.0000
# 2 13.5766 52.0850 27.5663 0.0000 0.0000 0.0000
# 3 26.3529 27.5663 163.0814 0.0000 0.0000 0.0000
# 4 0.0000 0.0000 0.0000 42.6126 0.0000 0.0000
# 5 0.0000 0.0000 0.0000 0.0000 13.2605 0.0000
# 6 0.0000 0.0000 0.0000 0.0000 0.0000 29.8663
#
#
#
# Elastic Compliance Matrix: (Units=1/GPa)
#
#
# Indices 1 2 3 4 5 6 
#
# 1 0.030336 -0.005835 -0.003916 0.000000 0.000000 0.000000
# 2 -0.005835 0.022208 -0.002811 0.000000 0.000000 0.000000
# 3 -0.003916 -0.002811 0.007240 0.000000 0.000000 0.000000
# 4 0.000000 0.000000 0.000000 0.023467 0.000000 0.000000
# 5 0.000000 0.000000 0.000000 0.000000 0.075412 0.000000
# 6 0.000000 0.000000 0.000000 0.000000 0.000000 0.033483
#
#
# Mechanical properties :
#
#
# Convention : Reuss Voigt Hill
#
# Bulk Modulus (GPa) = 28.85130 43.23718 36.04424
# Shear Modulus (GPa) = 21.85091 29.59103 25.72097
#
# Velocity S-wave (km/s) = 3.33247 3.87803 3.61556
# Velocity P-wave (km/s) = 5.42866 6.48281 5.97901
#
# Compressibility (1/GPa) = 0.03466048
#
# Stress axis : x y z
#
# Youngs Moduli (GPa) = 32.96374 45.02855 138.12464
#
# Poissons Ratio (x) = 0.26275 0.54087
# Poissons Ratio (y) = 0.19235 0.38827
# Poissons Ratio (z) = 0.12908 0.12658
#
# Static dielectric constant tensor:
#      x y z
#    x 3.273060 0.000000 0.000000 
#    y 0.000000 3.659870 0.000000 
#    z 0.000000 0.000000 3.740700 
# 
# 
# High freq. dielectric constant tensor:
#      x y z
#    x 1.722140 0.000000 0.000000 
#    y 0.000000 1.759870 0.000000 
#    z 0.000000 0.000000 1.788200 
# 
# From -- ./inp_files/5749.got.cif
#   From: 2010.03.12/outbox.cif.g09.slc.cpg/sg72_3_cif.got.tgz:5749.got - 2010.04.16 14:54:00.
