data_PCOD8293695
_publ_section_title
;
Structure prediction by ZEFSAII (Michael W. Deem and Ramdas Pophale) SiO2 
 PCOD8293695
Probable space group: I B A M
;
_chemical_formula_sum "Si O2"
_cell_formula_units_Z 64
_cell_length_a 9.633960
_cell_length_b 14.288283
_cell_length_c 22.008345
_cell_angle_alpha 90.000000
_cell_angle_beta 90.000000
_cell_angle_gamma 90.000000
_cell_volume 3029.509144
_symmetry_space_group_name_H-M "I B A M"
_symmetry_group_IT_number 72
_symmetry_cell_setting 'orthorhombic'
loop_
_space_group_symop_operation_xyz
x,y,z
-x,-y,z
x,-y,1/2-z
-x,y,1/2-z
-x,-y,-z
x,y,-z
-x,y,1/2+z
x,-y,1/2+z
1/2+x,1/2+y,1/2+z
1/2-x,1/2-y,1/2+z
1/2+x,1/2-y,-z
1/2-x,1/2+y,-z
1/2-x,1/2-y,1/2-z
1/2+x,1/2+y,1/2-z
1/2-x,1/2+y,z
1/2+x,1/2-y,z
loop_
_atom_site_type_symbol
_atom_site_label
_atom_site_fract_x
_atom_site_fract_y
_atom_site_fract_z
Si Si1 0.284329 0.055443 0.368745
Si Si2 0.965526 0.297169 0.000000
Si Si3 0.735893 0.366115 0.500000
Si Si4 0.635190 0.301353 0.710504
Si Si5 0.915315 0.631779 0.373108
O O1 0.239432 0.071267 0.438890
O O2 0.179967 0.100415 0.319812
O O3 0.433326 0.098623 0.353306
O O4 0.296431 0.943986 0.355380
O O5 0.907573 0.357472 0.944847
O O6 0.133693 0.293953 0.000000
O O7 0.907369 0.191748 0.000000
O O8 0.500000 0.322016 0.750000
O O9 0.750000 0.250000 0.750000
O O10 0.607763 0.232521 0.654998
#
# Coordination Sequence:
#
# PCOD8293695 Si02
#       5
#    16   8   8  16  16
#     4  10  21  40  66  96 123 165 216 264 315 385
#     4  10  19  35  67  94 124 162 205 261 329 388
#     4  10  19  35  67  94 126 162 205 261 327 382
#     4  12  24  41  64  89 127 173 216 260 316 375
#     4  10  21  40  66  94 124 164 214 265 323 381
#
# _framework density 21.125533999999998
#
# number of rings (size 3 to 8) (size 9 to 14) (size 15 to 20)
#    0.000    1.500    5.000    0.750    0.000    4.000 
#    0.000    2.500    0.000    1.500    0.000    0.000 
#    0.000    0.000    0.000    0.000    0.000    0.125 
#
# Total GULP energy -396734.836347 kJ/mol
# GULP energy per Si atom -12397.963636 kJ/mol
# Density = 2.107745 g / cm^3
# Si number density = 21.125534 Si / 1000 Ang^3
#
#
#
# Elastic Constant Matrix: (Units=GPa)
#
#
# Indices 1 2 3 4 5 6 
#
# 1 87.1383 33.5585 53.4354 0.0000 0.0000 0.0000
# 2 33.5585 91.9495 35.8281 0.0000 0.0000 0.0000
# 3 53.4354 35.8281 117.4068 0.0000 0.0000 0.0000
# 4 0.0000 0.0000 0.0000 20.5979 0.0000 0.0000
# 5 0.0000 0.0000 0.0000 0.0000 32.4645 0.0000
# 6 0.0000 0.0000 0.0000 0.0000 0.0000 35.0554
#
#
#
# Elastic Compliance Matrix: (Units=1/GPa)
#
#
# Indices 1 2 3 4 5 6 
#
# 1 0.016908 -0.003600 -0.006597 0.000000 0.000000 0.000000
# 2 -0.003600 0.013110 -0.002362 0.000000 0.000000 0.000000
# 3 -0.006597 -0.002362 0.012240 0.000000 0.000000 0.000000
# 4 0.000000 0.000000 0.000000 0.048549 0.000000 0.000000
# 5 0.000000 0.000000 0.000000 0.000000 0.030803 0.000000
# 6 0.000000 0.000000 0.000000 0.000000 0.000000 0.028526
#
#
# Mechanical properties :
#
#
# Convention : Reuss Voigt Hill
#
# Bulk Modulus (GPa) = 58.34215 60.23761 59.28988
# Shear Modulus (GPa) = 27.62931 29.20172 28.41551
#
# Velocity S-wave (km/s) = 3.62036 3.72196 3.67151
# Velocity P-wave (km/s) = 6.71959 6.85906 6.78968
#
# Compressibility (1/GPa) = 0.01714027
#
# Stress axis : x y z
#
# Youngs Moduli (GPa) = 59.14445 76.27815 81.69627
#
# Poissons Ratio (x) = 0.27463 0.53891
# Poissons Ratio (y) = 0.21295 0.19296
# Poissons Ratio (z) = 0.39015 0.18017
#
# Static dielectric constant tensor:
#      x y z
#    x 3.824470 0.000000 0.000000 
#    y 0.000000 3.886260 0.000000 
#    z 0.000000 0.000000 3.881170 
# 
# 
# High freq. dielectric constant tensor:
#      x y z
#    x 1.814270 0.000000 0.000000 
#    y 0.000000 1.819940 0.000000 
#    z 0.000000 0.000000 1.842320 
# 
# From -- ./inp_files/38668.got.cif
#   From: 2010.03.12/outbox.cif.g09.slc.cpg/sg72_20_cif.got.tgz:38668.got - 2010.04.16 14:54:00.
