data_PCOD8293212
_publ_section_title
;
Structure prediction by ZEFSAII (Michael W. Deem and Ramdas Pophale) SiO2 
 PCOD8293212
Probable space group: I B A M
;
_chemical_formula_sum "Si O2"
_cell_formula_units_Z 104
_cell_length_a 11.771857
_cell_length_b 27.447180
_cell_length_c 15.771023
_cell_angle_alpha 90.000000
_cell_angle_beta 90.000000
_cell_angle_gamma 90.000000
_cell_volume 5095.685000
_symmetry_space_group_name_H-M "I B A M"
_symmetry_group_IT_number 72
_symmetry_cell_setting 'orthorhombic'
loop_
_space_group_symop_operation_xyz
x,y,z
-x,-y,z
x,-y,1/2-z
-x,y,1/2-z
-x,-y,-z
x,y,-z
-x,y,1/2+z
x,-y,1/2+z
1/2+x,1/2+y,1/2+z
1/2-x,1/2-y,1/2+z
1/2+x,1/2-y,-z
1/2-x,1/2+y,-z
1/2-x,1/2-y,1/2-z
1/2+x,1/2+y,1/2-z
1/2-x,1/2+y,z
1/2+x,1/2-y,z
loop_
_atom_site_type_symbol
_atom_site_label
_atom_site_fract_x
_atom_site_fract_y
_atom_site_fract_z
Si Si1 0.415111 0.371663 0.825072
Si Si2 0.190811 0.319066 0.595052
Si Si3 0.500000 0.912952 0.250000
Si Si4 0.222160 0.212655 0.598808
Si Si5 0.942591 0.653718 0.905825
Si Si6 0.935840 0.047876 0.402687
Si Si7 0.758532 0.586280 0.704936
O O1 0.500000 0.358632 0.750000
O O2 0.379346 0.320501 0.865382
O O3 0.483019 0.405281 0.891619
O O4 0.304671 0.401757 0.793189
O O5 0.241591 0.327681 0.500000
O O6 0.228078 0.267508 0.636317
O O7 0.229207 0.362625 0.655459
O O8 0.055581 0.314705 0.589355
O O9 0.546731 0.884849 0.331316
O O10 0.616935 0.939894 0.219725
O O11 0.198601 0.217774 0.500000
O O12 0.342016 0.189135 0.620721
O O13 0.919643 0.629960 0.000000
O O14 0.901417 0.042456 0.500000
O O15 0.818697 0.050225 0.350126
O O16 0.000000 0.000000 0.369219
#
# Coordination Sequence:
#
# PCOD8293212 Si02
#       7
#    16  16   8  16  16  16  16
#     4  10  21  35  53  86 118 153 201 254 311 367
#     4   9  19  33  51  78 114 157 204 251 301 359
#     4  10  18  36  56  85 118 154 194 246 299 368
#     4  10  19  34  53  76 112 158 205 254 306 363
#     4   9  18  32  50  74 107 155 202 245 299 361
#     4  10  22  41  66  90 117 158 205 260 317 370
#     4  10  20  35  57  87 119 155 196 245 306 372
#
# _framework density 20.409424000000001
#
# number of rings (size 3 to 8) (size 9 to 14) (size 15 to 20)
#    0.000    2.308    1.538    0.923    0.000    6.462 
#    5.538    4.615    0.000    1.846    0.000    2.154 
#    0.000    0.000    0.000    0.000    0.000    0.000 
#
# Total GULP energy -644361.327811 kJ/mol
# GULP energy per Si atom -12391.563996 kJ/mol
# Density = 2.036297 g / cm^3
# Si number density = 20.409424 Si / 1000 Ang^3
#
#
#
# Elastic Constant Matrix: (Units=GPa)
#
#
# Indices 1 2 3 4 5 6 
#
# 1 134.1969 32.4345 30.3153 0.0003 0.0000 0.0000
# 2 32.4345 66.4558 18.0329 0.0004 -0.0002 -0.0001
# 3 30.3153 18.0329 58.9962 0.0013 -0.0014 -0.0003
# 4 0.0003 0.0004 0.0013 19.7232 -0.0002 -0.0001
# 5 0.0000 -0.0002 -0.0014 -0.0002 23.9849 0.0001
# 6 0.0000 -0.0001 -0.0003 -0.0001 0.0001 28.0842
#
#
#
# Elastic Compliance Matrix: (Units=1/GPa)
#
#
# Indices 1 2 3 4 5 6 
#
# 1 0.009106 -0.003462 -0.003621 0.000000 0.000000 0.000000
# 2 -0.003462 0.017725 -0.003639 0.000000 0.000000 0.000000
# 3 -0.003621 -0.003639 0.019923 -0.000001 0.000001 0.000000
# 4 0.000000 0.000000 -0.000001 0.050702 0.000000 0.000000
# 5 0.000000 0.000000 0.000001 0.000000 0.041693 0.000000
# 6 0.000000 0.000000 0.000000 0.000000 0.000000 0.035607
#
#
# Mechanical properties :
#
#
# Convention : Reuss Voigt Hill
#
# Bulk Modulus (GPa) = 39.50933 46.80158 43.15546
# Shear Modulus (GPa) = 24.43351 26.28287 25.35819
#
# Velocity S-wave (km/s) = 3.46377 3.59246 3.52870
# Velocity P-wave (km/s) = 5.94956 6.33947 6.14761
#
# Compressibility (1/GPa) = 0.02531048
#
# Stress axis : x y z
#
# Youngs Moduli (GPa) = 109.81175 56.41869 50.19254
#
# Poissons Ratio (x) = 0.19532 0.18176
# Poissons Ratio (y) = 0.38016 0.18264
# Poissons Ratio (z) = 0.39765 0.20530
#
# Static dielectric constant tensor:
#      x y z
#    x 4.078640 0.000000 0.000000 
#    y 0.000000 3.391840 0.000000 
#    z 0.000000 0.000000 3.835030 
# 
# 
# High freq. dielectric constant tensor:
#      x y z
#    x 1.813340 0.000000 0.000000 
#    y 0.000000 1.759620 0.000000 
#    z 0.000000 0.000000 1.805070 
# 
# From -- ./inp_files/29657.got.cif
#   From: 2010.03.12/outbox.cif.g09.slc.cpg/sg72_15_cif.got.tgz:29657.got - 2010.04.16 14:54:00.
