data_PCOD8293848
_publ_section_title
;
Structure prediction by ZEFSAII (Michael W. Deem and Ramdas Pophale) SiO2 
 PCOD8293848
Probable space group: I B A M
;
_chemical_formula_sum "Si O2"
_cell_formula_units_Z 80
_cell_length_a 32.136579
_cell_length_b 14.833603
_cell_length_c 8.760856
_cell_angle_alpha 90.000000
_cell_angle_beta 90.000000
_cell_angle_gamma 90.000000
_cell_volume 4176.311047
_symmetry_space_group_name_H-M "I B A M"
_symmetry_group_IT_number 72
_symmetry_cell_setting 'orthorhombic'
loop_
_space_group_symop_operation_xyz
x,y,z
-x,-y,z
x,-y,1/2-z
-x,y,1/2-z
-x,-y,-z
x,y,-z
-x,y,1/2+z
x,-y,1/2+z
1/2+x,1/2+y,1/2+z
1/2-x,1/2-y,1/2+z
1/2+x,1/2-y,-z
1/2-x,1/2+y,-z
1/2-x,1/2-y,1/2-z
1/2+x,1/2+y,1/2-z
1/2-x,1/2+y,z
1/2+x,1/2-y,z
loop_
_atom_site_type_symbol
_atom_site_label
_atom_site_fract_x
_atom_site_fract_y
_atom_site_fract_z
Si Si1 0.638524 0.411716 0.678345
Si Si2 0.197966 0.665364 0.670321
Si Si3 0.614492 0.786132 0.819256
Si Si4 0.544785 0.094506 0.181557
Si Si5 0.222197 0.128485 0.830208
O O1 0.615850 0.500000 0.750000
O O2 0.635389 0.419983 0.500000
O O3 0.617101 0.318707 0.732497
O O4 0.686617 0.415114 0.727076
O O5 0.189104 0.627712 0.500000
O O6 0.155950 0.660822 0.769439
O O7 0.215424 0.765430 0.658911
O O8 0.233268 0.605617 0.753487
O O9 0.575494 0.826132 0.730152
O O10 0.608819 0.796276 0.000000
O O11 0.500000 0.118415 0.250000
O O12 0.561102 0.000000 0.250000
O O13 0.541941 0.087160 0.000000
O O14 0.220830 0.086409 0.000000
#
# Coordination Sequence:
#
# PCOD8293848 Si02
#       5
#    16  16  16  16  16
#     4  10  20  33  51  75 107 146 189 232 270 314
#     4   9  16  27  45  70  99 134 176 220 267 315
#     4  10  20  35  55  81 111 144 181 222 270 322
#     4  11  22  39  63  89 115 141 170 209 260 321
#     4   9  16  27  44  66  96 135 179 224 268 312
#
# _framework density 19.155663000000001
#
# number of rings (size 3 to 8) (size 9 to 14) (size 15 to 20)
#    0.000    2.200    0.000    4.800    0.000    7.200 
#    0.000    1.000    0.000    0.600    0.000    4.200 
#    0.000    0.000    0.000    0.000    0.000    0.000 
#
# Total GULP energy -495941.499805 kJ/mol
# GULP energy per Si atom -12398.537495 kJ/mol
# Density = 1.911206 g / cm^3
# Si number density = 19.155663 Si / 1000 Ang^3
#
#
#
# Elastic Constant Matrix: (Units=GPa)
#
#
# Indices 1 2 3 4 5 6 
#
# 1 96.8304 57.5216 49.5006 0.0000 0.0000 0.0000
# 2 57.5216 89.4917 43.0078 0.0000 0.0000 0.0000
# 3 49.5006 43.0078 119.6518 0.0000 0.0000 0.0000
# 4 0.0000 0.0000 0.0000 27.7422 0.0000 0.0000
# 5 0.0000 0.0000 0.0000 0.0000 32.6992 0.0000
# 6 0.0000 0.0000 0.0000 0.0000 0.0000 7.8663
#
#
#
# Elastic Compliance Matrix: (Units=1/GPa)
#
#
# Indices 1 2 3 4 5 6 
#
# 1 0.018171 -0.009751 -0.004013 0.000000 0.000000 0.000000
# 2 -0.009751 0.018741 -0.002702 0.000000 0.000000 0.000000
# 3 -0.004013 -0.002702 0.010989 0.000000 0.000000 0.000000
# 4 0.000000 0.000000 0.000000 0.036046 0.000000 0.000000
# 5 0.000000 0.000000 0.000000 0.000000 0.030582 0.000000
# 6 0.000000 0.000000 0.000000 0.000000 0.000000 0.127124
#
#
# Mechanical properties :
#
#
# Convention : Reuss Voigt Hill
#
# Bulk Modulus (GPa) = 66.80513 67.33710 67.07112
# Shear Modulus (GPa) = 17.88435 24.05780 20.97108
#
# Velocity S-wave (km/s) = 3.05886 3.54773 3.31232
# Velocity P-wave (km/s) = 6.88666 7.21185 7.05113
#
# Compressibility (1/GPa) = 0.01496891
#
# Stress axis : x y z
#
# Youngs Moduli (GPa) = 55.03159 53.36030 91.00214
#
# Poissons Ratio (x) = 0.52034 0.36515
# Poissons Ratio (y) = 0.53664 0.24588
# Poissons Ratio (z) = 0.22082 0.14417
#
# Static dielectric constant tensor:
#      x y z
#    x 3.309200 0.000000 0.000000 
#    y 0.000000 3.566190 0.000000 
#    z 0.000000 0.000000 3.701150 
# 
# 
# High freq. dielectric constant tensor:
#      x y z
#    x 1.716460 0.000000 0.000000 
#    y 0.000000 1.734140 0.000000 
#    z 0.000000 0.000000 1.764800 
# 
# From -- ./inp_files/9021.got.cif
#   From: 2010.03.12/outbox.cif.g09.slc.cpg/sg72_5_cif.got.tgz:9021.got - 2010.04.16 14:54:00.
