data_PCOD8293770
_publ_section_title
;
Structure prediction by ZEFSAII (Michael W. Deem and Ramdas Pophale) SiO2 
 PCOD8293770
Probable space group: I B A M
;
_chemical_formula_sum "Si O2"
_cell_formula_units_Z 112
_cell_length_a 11.350395
_cell_length_b 29.757085
_cell_length_c 17.633680
_cell_angle_alpha 90.000000
_cell_angle_beta 90.000000
_cell_angle_gamma 90.000000
_cell_volume 5955.857748
_symmetry_space_group_name_H-M "I B A M"
_symmetry_group_IT_number 72
_symmetry_cell_setting 'orthorhombic'
loop_
_space_group_symop_operation_xyz
x,y,z
-x,-y,z
x,-y,1/2-z
-x,y,1/2-z
-x,-y,-z
x,y,-z
-x,y,1/2+z
x,-y,1/2+z
1/2+x,1/2+y,1/2+z
1/2-x,1/2-y,1/2+z
1/2+x,1/2-y,-z
1/2-x,1/2+y,-z
1/2-x,1/2-y,1/2-z
1/2+x,1/2+y,1/2-z
1/2-x,1/2+y,z
1/2+x,1/2-y,z
loop_
_atom_site_type_symbol
_atom_site_label
_atom_site_fract_x
_atom_site_fract_y
_atom_site_fract_z
Si Si1 0.953663 0.326095 0.331303
Si Si2 0.132398 0.391671 0.585776
Si Si3 0.276436 0.623041 0.289741
Si Si4 0.409496 0.663200 0.586486
Si Si5 0.374170 0.051149 0.775797
Si Si6 0.214659 0.736813 0.588636
Si Si7 0.327982 0.331955 0.636039
O O1 0.845978 0.359160 0.320279
O O2 0.907502 0.283732 0.379530
O O3 0.000000 0.308957 0.250000
O O4 0.052648 0.352985 0.377200
O O5 0.093548 0.402750 0.500000
O O6 0.129423 0.438385 0.633692
O O7 0.263563 0.370845 0.587595
O O8 0.370182 0.621908 0.358730
O O9 0.242504 0.573431 0.260832
O O10 0.331225 0.654046 0.223922
O O11 0.390566 0.647923 0.500000
O O12 0.327687 0.705886 0.606594
O O13 0.543396 0.675715 0.601715
O O14 0.500000 0.072163 0.750000
O O15 0.369063 0.000000 0.750000
O O16 0.197262 0.744516 0.500000
O O17 0.239985 0.784494 0.628736
#
# Coordination Sequence:
#
# PCOD8293770 Si02
#       7
#    16  16  16  16  16  16  16
#     4  11  19  36  55  80 114 153 196 231 284 346
#     4  11  21  36  60  87 118 158 193 235 294 350
#     4  10  20  38  58  81 108 152 185 227 289 354
#     4  10  22  37  53  79 113 149 195 243 286 331
#     4  10  19  38  63  88 119 146 179 239 292 358
#     4  10  23  36  52  79 113 151 198 254 290 322
#     4  11  22  37  57  79 112 156 204 241 287 341
#
# _framework density 18.805015000000001
#
# number of rings (size 3 to 8) (size 9 to 14) (size 15 to 20)
#    0.000    1.571    4.286    2.143    2.000    4.000 
#    0.000    2.143    0.000    6.857    0.000    5.000 
#    0.000    0.000    0.000    0.000    0.000    0.000 
#
# Total GULP energy -694175.744270 kJ/mol
# GULP energy per Si atom -12395.995433 kJ/mol
# Density = 1.876221 g / cm^3
# Si number density = 18.805015 Si / 1000 Ang^3
#
#
#
# Elastic Constant Matrix: (Units=GPa)
#
#
# Indices 1 2 3 4 5 6 
#
# 1 81.7900 27.1182 41.6348 0.0000 -0.0001 0.0000
# 2 27.1182 88.7062 55.5150 0.0001 -0.0001 0.0000
# 3 41.6348 55.5150 145.5031 -0.0002 -0.0001 0.0000
# 4 0.0000 0.0001 -0.0002 17.1778 -0.0001 0.0000
# 5 -0.0001 -0.0001 -0.0001 -0.0001 28.4484 0.0000
# 6 0.0000 0.0000 0.0000 0.0000 0.0000 21.6655
#
#
#
# Elastic Compliance Matrix: (Units=1/GPa)
#
#
# Indices 1 2 3 4 5 6 
#
# 1 0.014704 -0.002446 -0.003274 0.000000 0.000000 0.000000
# 2 -0.002446 0.015216 -0.005106 0.000000 0.000000 0.000000
# 3 -0.003274 -0.005106 0.009758 0.000000 0.000000 0.000000
# 4 0.000000 0.000000 0.000000 0.058215 0.000000 0.000000
# 5 0.000000 0.000000 0.000000 0.000000 0.035151 0.000000
# 6 0.000000 0.000000 0.000000 0.000000 0.000000 0.046156
#
#
# Mechanical properties :
#
#
# Convention : Reuss Voigt Hill
#
# Bulk Modulus (GPa) = 55.47511 62.72613 59.10062
# Shear Modulus (GPa) = 24.17083 26.24044 25.20563
#
# Velocity S-wave (km/s) = 3.58905 3.73955 3.66507
# Velocity P-wave (km/s) = 6.83661 7.21624 7.02899
#
# Compressibility (1/GPa) = 0.01802610
#
# Stress axis : x y z
#
# Youngs Moduli (GPa) = 68.00789 65.71935 102.48418
#
# Poissons Ratio (x) = 0.16075 0.33556
# Poissons Ratio (y) = 0.16635 0.52325
# Poissons Ratio (z) = 0.22267 0.33554
#
# Static dielectric constant tensor:
#      x y z
#    x 3.711450 0.000000 0.000000 
#    y 0.000000 3.218900 0.000000 
#    z 0.000000 0.000000 3.704700 
# 
# 
# High freq. dielectric constant tensor:
#      x y z
#    x 1.735630 0.000000 0.000000 
#    y 0.000000 1.693680 0.000000 
#    z 0.000000 0.000000 1.741600 
# 
# From -- ./inp_files/20704.got.cif
#   From: 2010.03.12/outbox.cif.g09.slc.cpg/sg72_11_cif.got.tgz:20704.got - 2010.04.16 14:54:00.
