data_PCOD8293936
_publ_section_title
;
Structure prediction by ZEFSAII (Michael W. Deem and Ramdas Pophale) SiO2 
 PCOD8293936
Probable space group: I B A M
;
_chemical_formula_sum "Si O2"
_cell_formula_units_Z 104
_cell_length_a 20.458005
_cell_length_b 14.748928
_cell_length_c 19.160732
_cell_angle_alpha 90.000000
_cell_angle_beta 90.000000
_cell_angle_gamma 90.000000
_cell_volume 5781.437464
_symmetry_space_group_name_H-M "I B A M"
_symmetry_group_IT_number 72
_symmetry_cell_setting 'orthorhombic'
loop_
_space_group_symop_operation_xyz
x,y,z
-x,-y,z
x,-y,1/2-z
-x,y,1/2-z
-x,-y,-z
x,y,-z
-x,y,1/2+z
x,-y,1/2+z
1/2+x,1/2+y,1/2+z
1/2-x,1/2-y,1/2+z
1/2+x,1/2-y,-z
1/2-x,1/2+y,-z
1/2-x,1/2-y,1/2-z
1/2+x,1/2+y,1/2-z
1/2-x,1/2+y,z
1/2+x,1/2-y,z
loop_
_atom_site_type_symbol
_atom_site_label
_atom_site_fract_x
_atom_site_fract_y
_atom_site_fract_z
Si Si1 0.544135 0.783018 0.078565
Si Si2 0.747850 0.117586 0.309432
Si Si3 0.408879 0.126052 0.419632
Si Si4 0.647687 0.935716 0.078144
Si Si5 0.142663 0.000000 0.250000
Si Si6 0.431910 0.671455 0.289395
Si Si7 0.670288 0.212794 0.799361
O O1 0.482697 0.846069 0.098395
O O2 0.607655 0.844129 0.085101
O O3 0.553217 0.699836 0.131180
O O4 0.536585 0.744007 0.000000
O O5 0.709800 0.071858 0.372516
O O6 0.811275 0.054908 0.302379
O O7 0.701598 0.125211 0.240357
O O8 0.771718 0.220056 0.323478
O O9 0.391973 0.147961 0.500000
O O10 0.361122 0.183498 0.371555
O O11 0.399302 0.019973 0.402502
O O12 0.674758 0.948559 0.000000
O O13 0.097504 0.929735 0.207547
O O14 0.500000 0.670996 0.250000
O O15 0.382121 0.740591 0.252140
#
# Coordination Sequence:
#
# PCOD8293936 Si02
#       7
#    16  16  16  16   8  16  16
#     4  10  20  36  58  84 115 145 179 228 283 336
#     4  10  20  36  54  79 111 144 185 229 274 327
#     4  10  20  34  54  81 112 145 179 224 280 333
#     4  10  20  35  55  81 114 149 180 221 279 338
#     4  10  23  36  58  80 111 148 184 236 280 320
#     4  11  20  38  60  85 108 143 193 231 281 331
#     4  10  20  34  57  81 107 146 187 232 273 330
#
# _framework density 17.988605
#
# number of rings (size 3 to 8) (size 9 to 14) (size 15 to 20)
#    0.000    1.846    3.077    1.615    0.000    2.462 
#    0.000    0.769    0.000    2.769    0.000    0.000 
#    0.000    0.000    0.000    0.000    0.000    0.000 
#
# Total GULP energy -644744.247114 kJ/mol
# GULP energy per Si atom -12398.927829 kJ/mol
# Density = 1.794766 g / cm^3
# Si number density = 17.988605 Si / 1000 Ang^3
#
#
#
# Elastic Constant Matrix: (Units=GPa)
#
#
# Indices 1 2 3 4 5 6 
#
# 1 90.3217 35.4307 48.9831 0.0000 0.0000 0.0000
# 2 35.4307 91.4149 57.0668 0.0000 0.0000 0.0000
# 3 48.9831 57.0668 103.8732 0.0000 0.0000 0.0000
# 4 0.0000 0.0000 0.0000 24.1291 0.0000 0.0000
# 5 0.0000 0.0000 0.0000 0.0000 29.7295 0.0000
# 6 0.0000 0.0000 0.0000 0.0000 0.0000 31.6225
#
#
#
# Elastic Compliance Matrix: (Units=1/GPa)
#
#
# Indices 1 2 3 4 5 6 
#
# 1 0.015148 -0.002149 -0.005963 0.000000 0.000000 0.000000
# 2 -0.002149 0.016954 -0.008301 0.000000 0.000000 0.000000
# 3 -0.005963 -0.008301 0.017000 0.000000 0.000000 0.000000
# 4 0.000000 0.000000 0.000000 0.041444 0.000000 0.000000
# 5 0.000000 0.000000 0.000000 0.000000 0.033637 0.000000
# 6 0.000000 0.000000 0.000000 0.000000 0.000000 0.031623
#
#
# Mechanical properties :
#
#
# Convention : Reuss Voigt Hill
#
# Bulk Modulus (GPa) = 61.43892 63.17458 62.30675
# Shear Modulus (GPa) = 25.76577 26.70484 26.23530
#
# Velocity S-wave (km/s) = 3.78873 3.85716 3.82310
# Velocity P-wave (km/s) = 7.30533 7.41838 7.36207
#
# Compressibility (1/GPa) = 0.01627633
#
# Stress axis : x y z
#
# Youngs Moduli (GPa) = 66.01437 58.98315 58.82520
#
# Poissons Ratio (x) = 0.12674 0.35077
# Poissons Ratio (y) = 0.14185 0.48831
# Poissons Ratio (z) = 0.39364 0.48962
#
# Static dielectric constant tensor:
#      x y z
#    x 3.458910 0.000000 0.000000 
#    y 0.000000 3.362210 0.000000 
#    z 0.000000 0.000000 3.308530 
# 
# 
# High freq. dielectric constant tensor:
#      x y z
#    x 1.707220 0.000000 0.000000 
#    y 0.000000 1.691940 0.000000 
#    z 0.000000 0.000000 1.687840 
# 
# From -- ./inp_files/32659.got.cif
#   From: 2010.03.12/outbox.cif.g09.slc.cpg/sg72_17_cif.got.tgz:32659.got - 2010.04.16 14:54:00.
