data_PCOD8293811
_publ_section_title
;
Structure prediction by ZEFSAII (Michael W. Deem and Ramdas Pophale) SiO2 
 PCOD8293811
Probable space group: I B A M
;
_chemical_formula_sum "Si O2"
_cell_formula_units_Z 112
_cell_length_a 16.584985
_cell_length_b 26.542532
_cell_length_c 14.921653
_cell_angle_alpha 90.000000
_cell_angle_beta 90.000000
_cell_angle_gamma 90.000000
_cell_volume 6568.623490
_symmetry_space_group_name_H-M "I B A M"
_symmetry_group_IT_number 72
_symmetry_cell_setting 'orthorhombic'
loop_
_space_group_symop_operation_xyz
x,y,z
-x,-y,z
x,-y,1/2-z
-x,y,1/2-z
-x,-y,-z
x,y,-z
-x,y,1/2+z
x,-y,1/2+z
1/2+x,1/2+y,1/2+z
1/2-x,1/2-y,1/2+z
1/2+x,1/2-y,-z
1/2-x,1/2+y,-z
1/2-x,1/2-y,1/2-z
1/2+x,1/2+y,1/2-z
1/2-x,1/2+y,z
1/2+x,1/2-y,z
loop_
_atom_site_type_symbol
_atom_site_label
_atom_site_fract_x
_atom_site_fract_y
_atom_site_fract_z
Si Si1 0.595588 0.942898 0.752532
Si Si2 0.976540 0.689067 0.157222
Si Si3 0.166984 0.624576 0.399218
Si Si4 0.582312 0.295642 0.766765
Si Si5 0.872021 0.363617 0.899434
Si Si6 0.299281 0.296833 0.896812
Si Si7 0.284206 0.694181 0.102357
O O1 0.500000 0.941714 0.750000
O O2 0.642626 0.918957 0.668644
O O3 0.617620 0.914337 0.843530
O O4 0.627166 0.000000 0.750000
O O5 0.901560 0.666964 0.104570
O O6 0.953128 0.745721 0.183782
O O7 0.000000 0.659233 0.250000
O O8 0.057262 0.678976 0.099784
O O9 0.169610 0.602497 0.500000
O O10 0.253197 0.650565 0.376279
O O11 0.500000 0.328149 0.750000
O O12 0.627355 0.287321 0.671859
O O13 0.641110 0.323163 0.836211
O O14 0.792797 0.336096 0.862501
O O15 0.859638 0.382449 0.000000
O O16 0.233052 0.253189 0.883270
O O17 0.331577 0.295534 0.000000
O O18 0.305444 0.681631 0.000000
#
# Coordination Sequence:
#
# PCOD8293811 Si02
#       7
#    16  16  16  16  16  16  16
#     4  11  23  36  50  73 105 136 179 226 261 299
#     4  11  19  30  48  72  98 133 177 211 245 293
#     4  11  20  34  55  72  99 137 176 216 256 300
#     4  11  22  31  50  70 102 141 168 211 252 300
#     4  11  21  35  55  74 102 141 179 219 256 301
#     4  10  21  34  50  74 101 134 173 215 254 302
#     4  10  20  32  49  74 101 131 171 213 255 301
#
# _framework density 17.050757000000001
#
# number of rings (size 3 to 8) (size 9 to 14) (size 15 to 20)
#    0.000    1.286    4.286    3.429    0.000    1.714 
#    0.000    3.571    0.000    0.000    0.000    0.000 
#    0.000    9.143    0.000   25.143    0.000    0.000 
#
# Total GULP energy -693803.925023 kJ/mol
# GULP energy per Si atom -12389.355804 kJ/mol
# Density = 1.701195 g / cm^3
# Si number density = 17.050757 Si / 1000 Ang^3
#
#
#
# Elastic Constant Matrix: (Units=GPa)
#
#
# Indices 1 2 3 4 5 6 
#
# 1 112.7328 32.2521 44.1529 0.0000 0.0000 0.0000
# 2 32.2521 78.4905 35.8639 0.0000 0.0000 0.0000
# 3 44.1529 35.8639 87.8894 0.0000 0.0000 0.0001
# 4 0.0000 0.0000 0.0000 -141.3324 0.0000 -0.0001
# 5 0.0000 0.0000 0.0000 0.0000 22.0131 0.0000
# 6 0.0000 0.0000 0.0001 -0.0001 0.0000 -8.0831
#
#
#
# Elastic Compliance Matrix: (Units=1/GPa)
#
#
# Indices 1 2 3 4 5 6 
#
# 1 0.011444 -0.002551 -0.004708 0.000000 0.000000 0.000000
# 2 -0.002551 0.016229 -0.005341 0.000000 0.000000 0.000000
# 3 -0.004708 -0.005341 0.015923 0.000000 0.000000 0.000000
# 4 0.000000 0.000000 0.000000 -0.007076 0.000000 0.000000
# 5 0.000000 0.000000 0.000000 0.000000 0.045427 0.000000
# 6 0.000000 0.000000 0.000000 0.000000 0.000000 -0.123716
#
#
# Mechanical properties :
#
#
# Convention : Reuss Voigt Hill
#
# Bulk Modulus (GPa) = 54.36103 55.96116 55.16109
# Shear Modulus (GPa) = -479.13753 -14.35754 -246.74754
#
# Velocity S-wave (km/s) = -16.78144 -2.90495 -12.04274
# Velocity P-wave (km/s) = 18.53477 4.65187 12.68656
#
# Compressibility (1/GPa) = 0.01839553
#
# Stress axis : x y z
#
# Youngs Moduli (GPa) = 87.37833 61.61812 62.80409
#
# Poissons Ratio (x) = 0.15721 0.29570
# Poissons Ratio (y) = 0.22293 0.33542
# Poissons Ratio (z) = 0.41140 0.32908
#
# Static dielectric constant tensor:
#      x y z
#    x 3.505410 0.000000 0.000000 
#    y 0.000000 2.919480 0.000000 
#    z 0.000000 0.000000 3.349730 
# 
# 
# High freq. dielectric constant tensor:
#      x y z
#    x 1.655920 0.000000 0.000000 
#    y 0.000000 1.602560 0.000000 
#    z 0.000000 0.000000 1.677900 
# 
# From -- ./inp_files/22290.got.cif
#   From: 2010.03.12/outbox.cif.g09.slc.cpg/sg72_12_cif.got.tgz:22290.got - 2010.04.16 14:54:00.
