data_PCOD8293149
_publ_section_title
;
Structure prediction by ZEFSAII (Michael W. Deem and Ramdas Pophale) SiO2 
 PCOD8293149
Probable space group: I B A M
;
_chemical_formula_sum "Si O2"
_cell_formula_units_Z 96
_cell_length_a 14.182154
_cell_length_b 20.529206
_cell_length_c 15.802090
_cell_angle_alpha 90.000000
_cell_angle_beta 90.000000
_cell_angle_gamma 90.000000
_cell_volume 4600.752604
_symmetry_space_group_name_H-M "I B A M"
_symmetry_group_IT_number 72
_symmetry_cell_setting 'orthorhombic'
loop_
_space_group_symop_operation_xyz
x,y,z
-x,-y,z
x,-y,1/2-z
-x,y,1/2-z
-x,-y,-z
x,y,-z
-x,y,1/2+z
x,-y,1/2+z
1/2+x,1/2+y,1/2+z
1/2-x,1/2-y,1/2+z
1/2+x,1/2-y,-z
1/2-x,1/2+y,-z
1/2-x,1/2-y,1/2-z
1/2+x,1/2+y,1/2-z
1/2-x,1/2+y,z
1/2+x,1/2-y,z
loop_
_atom_site_type_symbol
_atom_site_label
_atom_site_fract_x
_atom_site_fract_y
_atom_site_fract_z
Si Si1 0.261100 0.608460 0.899254
Si Si2 0.056064 0.687901 0.398907
Si Si3 0.054296 0.436203 0.399327
Si Si4 0.963789 0.068686 0.655074
Si Si5 0.753068 0.741340 0.100639
Si Si6 0.439620 0.305762 0.096783
O O1 0.164569 0.570517 0.872132
O O2 0.350352 0.574247 0.853218
O O3 0.255426 0.683541 0.868427
O O4 0.276412 0.604169 0.000000
O O5 0.052479 0.685332 0.500000
O O6 0.162235 0.696201 0.365288
O O7 0.005277 0.624212 0.361675
O O8 0.006398 0.752082 0.361211
O O9 0.050347 0.436054 0.500000
O O10 0.000000 0.500000 0.363593
O O11 0.000000 0.077324 0.750000
O O12 0.015722 0.123427 0.601079
O O13 0.000000 0.000000 0.618484
O O14 0.663168 0.702916 0.138548
O O15 0.756476 0.743369 0.000000
O O16 0.426918 0.286296 0.000000
#
# Coordination Sequence:
#
# PCOD8293149 Si02
#       6
#    16  16  16  16  16  16
#     4  10  18  33  58  83 111 149 186 225 285 343
#     4   9  15  26  47  76 111 142 173 215 267 324
#     4   9  17  28  47  81 119 147 174 221 280 336
#     4  11  25  41  54  75 111 152 190 236 288 337
#     4   9  16  27  51  85 112 139 177 227 278 322
#     4  10  18  32  57  83 106 139 186 231 274 334
#
# _framework density 20.866153000000001
#
# number of rings (size 3 to 8) (size 9 to 14) (size 15 to 20)
#    0.000    2.333    3.333    0.500    0.000    2.667 
#    0.000    4.167    0.000    0.000    0.000    7.000 
#    0.000    0.000    0.000    0.000    0.000    0.167 
#
# Total GULP energy -594757.031124 kJ/mol
# GULP energy per Si atom -12390.771482 kJ/mol
# Density = 2.081866 g / cm^3
# Si number density = 20.866153 Si / 1000 Ang^3
#
#
#
# Elastic Constant Matrix: (Units=GPa)
#
#
# Indices 1 2 3 4 5 6 
#
# 1 224.8394 98.1649 14.2737 -0.0001 0.0000 0.0000
# 2 98.1649 161.2689 1.8469 0.0002 -0.0001 0.0000
# 3 14.2737 1.8469 14.5274 0.0006 -0.0002 0.0000
# 4 -0.0001 0.0002 0.0006 -0.2026 -0.0001 0.0000
# 5 0.0000 -0.0001 -0.0002 -0.0001 11.8042 0.0000
# 6 0.0000 0.0000 0.0000 0.0000 0.0000 43.3287
#
#
#
# Elastic Compliance Matrix: (Units=1/GPa)
#
#
# Indices 1 2 3 4 5 6 
#
# 1 0.006529 -0.003906 -0.005918 -0.000024 0.000000 0.000000
# 2 -0.003906 0.008547 0.002752 0.000019 0.000000 0.000000
# 3 -0.005918 0.002752 0.074301 0.000226 0.000001 0.000000
# 4 -0.000024 0.000019 0.000226 -4.934846 -0.000055 0.000005
# 5 0.000000 0.000000 0.000001 -0.000055 0.084716 0.000000
# 6 0.000000 0.000000 0.000000 0.000005 0.000000 0.023079
#
#
# Mechanical properties :
#
#
# Convention : Reuss Voigt Hill
#
# Bulk Modulus (GPa) = 13.29247 69.91184 41.60216
# Shear Modulus (GPa) = -1.06418 30.07605 14.50593
#
# Velocity S-wave (km/s) = -0.71492 3.80067 2.63951
# Velocity P-wave (km/s) = 2.38803 7.26896 5.41020
#
# Compressibility (1/GPa) = 0.07523056
#
# Stress axis : x y z
#
# Youngs Moduli (GPa) = 153.16632 116.99838 13.45883
#
# Poissons Ratio (x) = 0.45704 0.07965
# Poissons Ratio (y) = 0.59832 -0.03703
# Poissons Ratio (z) = 0.90648 -0.32193
#
# Static dielectric constant tensor:
#      x y z
#    x 4.237520 0.000000 0.000000 
#    y 0.000000 3.923410 0.000000 
#    z 0.000000 0.000000 3.073790 
# 
# 
# High freq. dielectric constant tensor:
#      x y z
#    x 1.840100 0.000000 0.000000 
#    y 0.000000 1.814530 0.000000 
#    z 0.000000 0.000000 1.757000 
# 
# From -- ./inp_files/21811.got.cif
#   From: 2010.03.12/outbox.cif.g09.slc.cpg/sg72_11_cif.got.tgz:21811.got - 2010.04.16 14:54:00.
