data_PCOD8293247
_publ_section_title
;
Structure prediction by ZEFSAII (Michael W. Deem and Ramdas Pophale) SiO2 
 PCOD8293247
Probable space group: I B A M
;
_chemical_formula_sum "Si O2"
_cell_formula_units_Z 96
_cell_length_a 22.946856
_cell_length_b 26.906152
_cell_length_c 8.702942
_cell_angle_alpha 90.000000
_cell_angle_beta 90.000000
_cell_angle_gamma 90.000000
_cell_volume 5373.297305
_symmetry_space_group_name_H-M "I B A M"
_symmetry_group_IT_number 72
_symmetry_cell_setting 'orthorhombic'
loop_
_space_group_symop_operation_xyz
x,y,z
-x,-y,z
x,-y,1/2-z
-x,y,1/2-z
-x,-y,-z
x,y,-z
-x,y,1/2+z
x,-y,1/2+z
1/2+x,1/2+y,1/2+z
1/2-x,1/2-y,1/2+z
1/2+x,1/2-y,-z
1/2-x,1/2+y,-z
1/2-x,1/2-y,1/2-z
1/2+x,1/2+y,1/2-z
1/2-x,1/2+y,z
1/2+x,1/2-y,z
loop_
_atom_site_type_symbol
_atom_site_label
_atom_site_fract_x
_atom_site_fract_y
_atom_site_fract_z
Si Si1 0.063268 0.194254 0.682778
Si Si2 0.256836 0.300753 0.331339
Si Si3 0.651882 0.131972 0.667987
Si Si4 0.563371 0.798640 0.681371
Si Si5 0.246684 0.553988 0.818040
Si Si6 0.335222 0.376472 0.822952
O O1 0.060983 0.200116 0.500000
O O2 0.088497 0.246334 0.751091
O O3 0.102256 0.146011 0.729867
O O4 0.000000 0.183087 0.750000
O O5 0.288126 0.297712 0.500000
O O6 0.250000 0.250000 0.250000
O O7 0.193090 0.321458 0.358619
O O8 0.290634 0.332530 0.206475
O O9 0.626165 0.116304 0.500000
O O10 0.600962 0.152020 0.778763
O O11 0.691175 0.086981 0.739506
O O12 0.500000 0.808026 0.750000
O O13 0.559616 0.793123 0.500000
O O14 0.238075 0.500000 0.750000
O O15 0.310228 0.575799 0.769015
O O16 0.246321 0.552825 0.000000
O O17 0.336668 0.391801 0.000000
#
# Coordination Sequence:
#
# PCOD8293247 Si02
#       6
#    16  16  16  16  16  16
#     4  10  20  33  50  73 104 141 176 211 248 293
#     4  10  19  29  44  68  99 133 165 202 249 299
#     4   9  19  34  49  70 100 131 165 205 249 298
#     4  11  21  32  50  74 103 140 176 210 247 293
#     4  10  21  37  58  80 103 131 164 209 261 311
#     4  10  20  33  50  73 101 132 168 209 253 302
#
# _framework density 17.866125
#
# number of rings (size 3 to 8) (size 9 to 14) (size 15 to 20)
#    0.000    2.000    0.000    6.500    0.000   10.667 
#    0.000    0.000    0.000    1.000    0.000    7.000 
#    0.000    0.000    0.000    0.000    0.000    0.000 
#
# Total GULP energy -594647.361108 kJ/mol
# GULP energy per Si atom -12388.486690 kJ/mol
# Density = 1.782546 g / cm^3
# Si number density = 17.866125 Si / 1000 Ang^3
#
#
#
# Elastic Constant Matrix: (Units=GPa)
#
#
# Indices 1 2 3 4 5 6 
#
# 1 77.4124 45.8287 43.1914 0.0000 0.0000 0.0000
# 2 45.8287 123.4192 43.4624 0.0000 0.0000 0.0000
# 3 43.1914 43.4624 91.4583 0.0000 0.0000 0.0000
# 4 0.0000 0.0000 0.0000 26.1187 0.0000 0.0000
# 5 0.0000 0.0000 0.0000 0.0000 28.0879 0.0000
# 6 0.0000 0.0000 0.0000 0.0000 0.0000 52.7909
#
#
#
# Elastic Compliance Matrix: (Units=1/GPa)
#
#
# Indices 1 2 3 4 5 6 
#
# 1 0.019691 -0.004848 -0.006995 0.000000 0.000000 0.000000
# 2 -0.004848 0.010925 -0.002902 0.000000 0.000000 0.000000
# 3 -0.006995 -0.002902 0.015616 0.000000 0.000000 0.000000
# 4 0.000000 0.000000 0.000000 0.038287 0.000000 0.000000
# 5 0.000000 0.000000 0.000000 0.000000 0.035603 0.000000
# 6 0.000000 0.000000 0.000000 0.000000 0.000000 0.018943
#
#
# Mechanical properties :
#
#
# Convention : Reuss Voigt Hill
#
# Bulk Modulus (GPa) = 59.73253 61.91722 60.82488
# Shear Modulus (GPa) = 28.71333 32.05334 30.38334
#
# Velocity S-wave (km/s) = 4.01326 4.24026 4.12832
# Velocity P-wave (km/s) = 7.41492 7.66189 7.53941
#
# Compressibility (1/GPa) = 0.01674130
#
# Stress axis : x y z
#
# Youngs Moduli (GPa) = 50.78474 91.53541 64.03525
#
# Poissons Ratio (x) = 0.44380 0.44793
# Poissons Ratio (y) = 0.24623 0.18583
# Poissons Ratio (z) = 0.35524 0.26563
#
# Static dielectric constant tensor:
#      x y z
#    x 3.291560 0.000000 0.000000 
#    y 0.000000 3.947940 0.000000 
#    z 0.000000 0.000000 3.387380 
# 
# 
# High freq. dielectric constant tensor:
#      x y z
#    x 1.679370 0.000000 0.000000 
#    y 0.000000 1.669160 0.000000 
#    z 0.000000 0.000000 1.705240 
# 
# From -- ./inp_files/5975.got.cif
#   From: 2010.03.12/outbox.cif.g09.slc.cpg/sg72_3_cif.got.tgz:5975.got - 2010.04.16 14:54:00.
