data_PCOD8293791
_publ_section_title
;
Structure prediction by ZEFSAII (Michael W. Deem and Ramdas Pophale) SiO2 
 PCOD8293791
Probable space group: I B A M
;
_chemical_formula_sum "Si O2"
_cell_formula_units_Z 128
_cell_length_a 21.807916
_cell_length_b 22.809633
_cell_length_c 15.509999
_cell_angle_alpha 90.000000
_cell_angle_beta 90.000000
_cell_angle_gamma 90.000000
_cell_volume 7715.147495
_symmetry_space_group_name_H-M "I B A M"
_symmetry_group_IT_number 72
_symmetry_cell_setting 'orthorhombic'
loop_
_space_group_symop_operation_xyz
x,y,z
-x,-y,z
x,-y,1/2-z
-x,y,1/2-z
-x,-y,-z
x,y,-z
-x,y,1/2+z
x,-y,1/2+z
1/2+x,1/2+y,1/2+z
1/2-x,1/2-y,1/2+z
1/2+x,1/2-y,-z
1/2-x,1/2+y,-z
1/2-x,1/2-y,1/2-z
1/2+x,1/2+y,1/2-z
1/2-x,1/2+y,z
1/2+x,1/2-y,z
loop_
_atom_site_type_symbol
_atom_site_label
_atom_site_fract_x
_atom_site_fract_y
_atom_site_fract_z
Si Si1 0.429312 0.761012 0.753184
Si Si2 0.158824 0.042451 0.324643
Si Si3 0.110313 0.132890 0.797643
Si Si4 0.731437 0.358739 0.600413
Si Si5 0.214703 0.180913 0.905104
Si Si6 0.557606 0.533984 0.598536
Si Si7 0.146330 0.303511 0.095817
Si Si8 0.162797 0.256385 0.602472
O O1 0.500000 0.777904 0.750000
O O2 0.422559 0.693460 0.778522
O O3 0.404309 0.802641 0.829678
O O4 0.395873 0.773068 0.661266
O O5 0.114973 0.093080 0.286965
O O6 0.214314 0.075492 0.371516
O O7 0.185020 0.000000 0.250000
O O8 0.119205 0.004322 0.390850
O O9 0.179638 0.139713 0.836712
O O10 0.065732 0.098652 0.862854
O O11 0.723199 0.351060 0.500000
O O12 0.802500 0.350619 0.625193
O O13 0.687641 0.306779 0.638166
O O14 0.179316 0.241584 0.910198
O O15 0.285083 0.194366 0.878868
O O16 0.213069 0.150984 0.000000
O O17 0.500000 0.500000 0.642108
O O18 0.542550 0.544468 0.500000
O O19 0.119072 0.318477 0.000000
O O20 0.145781 0.255324 0.500000
#
# Coordination Sequence:
#
# PCOD8293791 Si02
#       8
#    16  16  16  16  16  16  16  16
#     4  11  22  31  46  71  97 129 160 194 241 290
#     4  10  20  30  44  68  90 119 157 205 240 271
#     4  10  20  30  48  66  89 121 161 202 244 277
#     4   9  16  30  51  69  88 119 158 197 242 287
#     4   8  15  29  48  69  89 112 151 197 242 288
#     4  10  22  36  47  59  87 133 173 207 240 273
#     4   8  17  31  48  70  94 120 153 195 238 290
#     4   9  18  31  48  70  93 121 156 197 239 291
#
# _framework density 16.59074
#
# number of rings (size 3 to 8) (size 9 to 14) (size 15 to 20)
#    0.000    2.625    1.250    2.250    3.500    4.250 
#    0.000    0.000    0.000    0.000    0.000    0.000 
#    0.000    0.500    0.000    2.750    1.000    0.000 
#
# Total GULP energy -793151.196052 kJ/mol
# GULP energy per Si atom -12392.987438 kJ/mol
# Density = 1.655298 g / cm^3
# Si number density = 16.590740 Si / 1000 Ang^3
#
#
#
# Elastic Constant Matrix: (Units=GPa)
#
#
# Indices 1 2 3 4 5 6 
#
# 1 101.4547 22.7675 47.8074 0.0000 0.0000 0.0000
# 2 22.7675 31.1150 1.9132 0.0000 0.0000 0.0000
# 3 47.8074 1.9132 54.1933 0.0000 0.0000 0.0000
# 4 0.0000 0.0000 0.0000 18.2146 0.0000 0.0000
# 5 0.0000 0.0000 0.0000 0.0000 22.9380 0.0000
# 6 0.0000 0.0000 0.0000 0.0000 0.0000 22.9047
#
#
#
# Elastic Compliance Matrix: (Units=1/GPa)
#
#
# Indices 1 2 3 4 5 6 
#
# 1 0.022238 -0.015098 -0.019084 0.000000 0.000000 0.000000
# 2 -0.015098 0.042460 0.011820 0.000000 0.000000 0.000000
# 3 -0.019084 0.011820 0.034871 0.000000 0.000000 0.000000
# 4 0.000000 0.000000 0.000000 0.054901 0.000000 0.000000
# 5 0.000000 0.000000 0.000000 0.000000 0.043596 0.000000
# 6 0.000000 0.000000 0.000000 0.000000 0.000000 0.043659
#
#
# Mechanical properties :
#
#
# Convention : Reuss Voigt Hill
#
# Bulk Modulus (GPa) = 18.23378 36.85991 27.54684
# Shear Modulus (GPa) = 16.40797 20.42979 18.41888
#
# Velocity S-wave (km/s) = 3.14822 3.51293 3.33557
# Velocity P-wave (km/s) = 4.92232 6.22251 5.61021
#
# Compressibility (1/GPa) = 0.05484327
#
# Stress axis : x y z
#
# Youngs Moduli (GPa) = 44.96869 23.55172 28.67746
#
# Poissons Ratio (x) = 0.35559 0.54729
# Poissons Ratio (y) = 0.67895 -0.33897
# Poissons Ratio (z) = 0.85819 -0.27839
#
# Static dielectric constant tensor:
#      x y z
#    x 3.127500 0.000000 0.000000 
#    y 0.000000 4.180890 0.000000 
#    z 0.000000 0.000000 3.339150 
# 
# 
# High freq. dielectric constant tensor:
#      x y z
#    x 1.612620 0.000000 0.000000 
#    y 0.000000 1.602430 0.000000 
#    z 0.000000 0.000000 1.652240 
# 
# From -- ./inp_files/33000.got.cif
#   From: 2010.03.12/outbox.cif.g09.slc.cpg/sg72_17_cif.got.tgz:33000.got - 2010.04.16 14:54:00.
