data_PCOD8293210
_publ_section_title
;
Structure prediction by ZEFSAII (Michael W. Deem and Ramdas Pophale) SiO2 
 PCOD8293210
Probable space group: I B A M
;
_chemical_formula_sum "Si O2"
_cell_formula_units_Z 80
_cell_length_a 17.924620
_cell_length_b 23.740639
_cell_length_c 10.044416
_cell_angle_alpha 90.000000
_cell_angle_beta 90.000000
_cell_angle_gamma 90.000000
_cell_volume 4274.320197
_symmetry_space_group_name_H-M "I B A M"
_symmetry_group_IT_number 72
_symmetry_cell_setting 'orthorhombic'
loop_
_space_group_symop_operation_xyz
x,y,z
-x,-y,z
x,-y,1/2-z
-x,y,1/2-z
-x,-y,-z
x,y,-z
-x,y,1/2+z
x,-y,1/2+z
1/2+x,1/2+y,1/2+z
1/2-x,1/2-y,1/2+z
1/2+x,1/2-y,-z
1/2-x,1/2+y,-z
1/2-x,1/2-y,1/2-z
1/2+x,1/2+y,1/2-z
1/2-x,1/2+y,z
1/2+x,1/2-y,z
loop_
_atom_site_type_symbol
_atom_site_label
_atom_site_fract_x
_atom_site_fract_y
_atom_site_fract_z
Si Si1 0.911704 0.230731 0.740696
Si Si2 0.303270 0.434407 0.000000
Si Si3 0.794780 0.934998 0.000000
Si Si4 0.090226 0.833030 0.000000
Si Si5 0.413259 0.656368 0.000000
Si Si6 0.925836 0.648328 0.838204
Si Si7 0.200428 0.434724 0.756184
O O1 0.881172 0.205446 0.878186
O O2 0.883344 0.188771 0.628173
O O3 0.884036 0.293432 0.702342
O O4 0.000000 0.233106 0.750000
O O5 0.256582 0.418696 0.871809
O O6 0.322135 0.500480 0.000000
O O7 0.376253 0.395649 0.000000
O O8 0.742702 0.917402 0.877559
O O9 0.874531 0.904264 0.000000
O O10 0.002573 0.846582 0.000000
O O11 0.875473 0.597824 0.785323
O O12 0.000000 0.642825 0.750000
O O13 0.940537 0.646040 0.000000
O O14 0.178285 0.500000 0.750000
#
# Coordination Sequence:
#
# PCOD8293210 Si02
#       7
#    16   8   8   8   8  16  16
#     4   9  19  34  56  83 119 152 187 238 298 343
#     4  10  20  40  58  83 117 161 195 237 301 342
#     4  10  22  36  60  83 119 159 197 239 291 350
#     4  10  20  34  61  86 115 157 199 239 286 344
#     4  10  18  36  55  88 117 151 201 245 280 340
#     4  11  23  40  64  89 117 149 193 242 287 352
#     4  10  22  41  60  82 118 158 191 236 296 349
#
# _framework density 18.716426999999999
#
# number of rings (size 3 to 8) (size 9 to 14) (size 15 to 20)
#    0.000    2.000    2.000    1.200    5.600    0.800 
#    0.000    7.000    0.000    7.200    0.000    0.000 
#    0.000    0.000    0.000    0.000    0.000    0.000 
#
# Total GULP energy -495736.481599 kJ/mol
# GULP energy per Si atom -12393.412040 kJ/mol
# Density = 1.867383 g / cm^3
# Si number density = 18.716427 Si / 1000 Ang^3
#
#
#
# Elastic Constant Matrix: (Units=GPa)
#
#
# Indices 1 2 3 4 5 6 
#
# 1 70.8195 61.2763 49.9165 0.0000 0.0000 0.0000
# 2 61.2763 111.7528 61.5571 0.0000 0.0000 0.0000
# 3 49.9165 61.5571 180.3208 0.0000 0.0000 0.0000
# 4 0.0000 0.0000 0.0000 28.1883 0.0000 0.0000
# 5 0.0000 0.0000 0.0000 0.0000 39.8903 0.0000
# 6 0.0000 0.0000 0.0000 0.0000 0.0000 27.4967
#
#
#
# Elastic Compliance Matrix: (Units=1/GPa)
#
#
# Indices 1 2 3 4 5 6 
#
# 1 0.028220 -0.013757 -0.003115 0.000000 0.000000 0.000000
# 2 -0.013757 0.017728 -0.002243 0.000000 0.000000 0.000000
# 3 -0.003115 -0.002243 0.007174 0.000000 0.000000 0.000000
# 4 0.000000 0.000000 0.000000 0.035476 0.000000 0.000000
# 5 0.000000 0.000000 0.000000 0.000000 0.025069 0.000000
# 6 0.000000 0.000000 0.000000 0.000000 0.000000 0.036368
#
#
# Mechanical properties :
#
#
# Convention : Reuss Voigt Hill
#
# Bulk Modulus (GPa) = 67.16444 78.71033 72.93739
# Shear Modulus (GPa) = 25.87602 31.79129 28.83366
#
# Velocity S-wave (km/s) = 3.72227 4.12585 3.92925
# Velocity P-wave (km/s) = 7.37814 8.05247 7.72267
#
# Compressibility (1/GPa) = 0.01488883
#
# Stress axis : x y z
#
# Youngs Moduli (GPa) = 35.43608 56.40935 139.39384
#
# Poissons Ratio (x) = 0.77605 0.43426
# Poissons Ratio (y) = 0.48751 0.31272
# Poissons Ratio (z) = 0.11040 0.12655
#
# Static dielectric constant tensor:
#      x y z
#    x 3.058910 0.000000 0.000000 
#    y 0.000000 3.604130 0.000000 
#    z 0.000000 0.000000 3.912780 
# 
# 
# High freq. dielectric constant tensor:
#      x y z
#    x 1.698010 0.000000 0.000000 
#    y 0.000000 1.734960 0.000000 
#    z 0.000000 0.000000 1.752710 
# 
# From -- ./inp_files/4889.got.cif
#   From: 2010.03.12/outbox.cif.g09.slc.cpg/sg72_3_cif.got.tgz:4889.got - 2010.04.16 14:54:00.
