data_PCOD8293560
_publ_section_title
;
Structure prediction by ZEFSAII (Michael W. Deem and Ramdas Pophale) SiO2 
 PCOD8293560
Probable space group: I B A M
;
_chemical_formula_sum "Si O2"
_cell_formula_units_Z 108
_cell_length_a 27.789631
_cell_length_b 15.109550
_cell_length_c 14.157677
_cell_angle_alpha 90.000000
_cell_angle_beta 90.000000
_cell_angle_gamma 90.000000
_cell_volume 5944.650276
_symmetry_space_group_name_H-M "I B A M"
_symmetry_group_IT_number 72
_symmetry_cell_setting 'orthorhombic'
loop_
_space_group_symop_operation_xyz
x,y,z
-x,-y,z
x,-y,1/2-z
-x,y,1/2-z
-x,-y,-z
x,y,-z
-x,y,1/2+z
x,-y,1/2+z
1/2+x,1/2+y,1/2+z
1/2-x,1/2-y,1/2+z
1/2+x,1/2-y,-z
1/2-x,1/2+y,-z
1/2-x,1/2-y,1/2-z
1/2+x,1/2+y,1/2-z
1/2-x,1/2+y,z
1/2+x,1/2-y,z
loop_
_atom_site_type_symbol
_atom_site_label
_atom_site_fract_x
_atom_site_fract_y
_atom_site_fract_z
Si Si1 0.595075 0.717913 0.607410
Si Si2 0.675686 0.026491 0.108382
Si Si3 0.369694 0.500000 0.250000
Si Si4 0.070320 0.593184 0.390989
Si Si5 0.207711 0.639624 0.218549
Si Si6 0.950359 0.959806 0.891052
Si Si7 0.817005 0.827097 0.226756
Si Si8 0.000000 0.500000 0.750000
O O1 0.603461 0.740751 0.500000
O O2 0.579731 0.809924 0.653794
O O3 0.552309 0.646485 0.623488
O O4 0.647029 0.684470 0.639717
O O5 0.618569 0.035871 0.116348
O O6 0.702428 0.097899 0.175803
O O7 0.686049 0.926164 0.140831
O O8 0.693044 0.041128 0.000000
O O9 0.403793 0.498965 0.340957
O O10 0.336521 0.415742 0.222957
O O11 0.051576 0.594320 0.500000
O O12 0.031028 0.557980 0.320282
O O13 0.181843 0.736103 0.211585
O O14 0.263274 0.654028 0.192025
O O15 0.946124 0.986756 0.000000
O O16 0.000000 0.000000 0.848848
#
# Coordination Sequence:
#
# PCOD8293560 Si02
#       8
#    16  16   8  16  16  16  16   4
#     4   9  18  35  57  78 106 145 184 223 269 331
#     4  10  20  37  59  81 112 148 182 227 279 331
#     4  10  19  34  51  78 106 141 176 217 270 318
#     4  10  21  37  56  83 111 142 188 226 272 341
#     4  10  20  35  55  84 111 143 185 227 268 326
#     4   9  18  34  54  76 102 135 175 219 265 317
#     4  10  20  34  54  79 113 143 181 228 266 322
#     4  12  22  36  58  82 106 146 170 232 284 318
#
# _framework density 18.167594999999999
#
# number of rings (size 3 to 8) (size 9 to 14) (size 15 to 20)
#    0.000    2.222    1.481    2.222    0.000    0.593 
#    5.333    6.667    0.000    0.000    0.000    0.000 
#    0.000    0.000    0.000    0.000    0.000    0.000 
#
# Total GULP energy -669091.436599 kJ/mol
# GULP energy per Si atom -12390.582159 kJ/mol
# Density = 1.812624 g / cm^3
# Si number density = 18.167595 Si / 1000 Ang^3
#
#
#
# Elastic Constant Matrix: (Units=GPa)
#
#
# Indices 1 2 3 4 5 6 
#
# 1 106.6247 63.5765 39.3192 0.0000 0.0000 0.0000
# 2 63.5765 151.7721 41.9292 0.0000 0.0000 0.0000
# 3 39.3192 41.9292 75.6638 0.0000 0.0000 0.0000
# 4 0.0000 0.0000 0.0000 23.3432 0.0000 0.0000
# 5 0.0000 0.0000 0.0000 0.0000 23.5290 0.0000
# 6 0.0000 0.0000 0.0000 0.0000 0.0000 54.5262
#
#
#
# Elastic Compliance Matrix: (Units=1/GPa)
#
#
# Indices 1 2 3 4 5 6 
#
# 1 0.013773 -0.004478 -0.004676 0.000000 0.000000 0.000000
# 2 -0.004478 0.009236 -0.002791 0.000000 0.000000 0.000000
# 3 -0.004676 -0.002791 0.017193 0.000000 0.000000 0.000000
# 4 0.000000 0.000000 0.000000 0.042839 0.000000 0.000000
# 5 0.000000 0.000000 0.000000 0.000000 0.042501 0.000000
# 6 0.000000 0.000000 0.000000 0.000000 0.000000 0.018340
#
#
# Mechanical properties :
#
#
# Convention : Reuss Voigt Hill
#
# Bulk Modulus (GPa) = 61.30393 69.30113 65.30253
# Shear Modulus (GPa) = 28.86718 32.89541 30.88130
#
# Velocity S-wave (km/s) = 3.99047 4.25981 4.12734
# Velocity P-wave (km/s) = 7.41948 7.90081 7.66393
#
# Compressibility (1/GPa) = 0.01631217
#
# Stress axis : x y z
#
# Youngs Moduli (GPa) = 72.60700 108.27749 58.16361
#
# Poissons Ratio (x) = 0.48482 0.27196
# Poissons Ratio (y) = 0.32510 0.16234
# Poissons Ratio (z) = 0.33950 0.30221
#
# Static dielectric constant tensor:
#      x y z
#    x 3.383390 0.000000 0.000000 
#    y 0.000000 3.728470 0.000000 
#    z 0.000000 0.000000 3.261400 
# 
# 
# High freq. dielectric constant tensor:
#      x y z
#    x 1.702770 0.000000 0.000000 
#    y 0.000000 1.720170 0.000000 
#    z 0.000000 0.000000 1.685480 
# 
# From -- ./inp_files/25257.got.cif
#   From: 2010.03.12/outbox.cif.g09.slc.cpg/sg72_13_cif.got.tgz:25257.got - 2010.04.16 14:54:00.
