data_PCOD8293411
_publ_section_title
;
Structure prediction by ZEFSAII (Michael W. Deem and Ramdas Pophale) SiO2 
 PCOD8293411
Probable space group: I B A M
;
_chemical_formula_sum "Si O2"
_cell_formula_units_Z 112
_cell_length_a 14.690124
_cell_length_b 22.121031
_cell_length_c 17.061298
_cell_angle_alpha 90.000000
_cell_angle_beta 90.000000
_cell_angle_gamma 90.000000
_cell_volume 5544.251143
_symmetry_space_group_name_H-M "I B A M"
_symmetry_group_IT_number 72
_symmetry_cell_setting 'orthorhombic'
loop_
_space_group_symop_operation_xyz
x,y,z
-x,-y,z
x,-y,1/2-z
-x,y,1/2-z
-x,-y,-z
x,y,-z
-x,y,1/2+z
x,-y,1/2+z
1/2+x,1/2+y,1/2+z
1/2-x,1/2-y,1/2+z
1/2+x,1/2-y,-z
1/2-x,1/2+y,-z
1/2-x,1/2-y,1/2-z
1/2+x,1/2+y,1/2-z
1/2-x,1/2+y,z
1/2+x,1/2-y,z
loop_
_atom_site_type_symbol
_atom_site_label
_atom_site_fract_x
_atom_site_fract_y
_atom_site_fract_z
Si Si1 0.332375 0.847276 0.159456
Si Si2 0.465590 0.622019 0.089147
Si Si3 0.160459 0.902938 0.092591
Si Si4 0.998364 0.569669 0.843235
Si Si5 0.811262 0.035548 0.590045
Si Si6 0.817124 0.368446 0.842096
Si Si7 0.823807 0.781178 0.907205
O O1 0.236803 0.856005 0.116150
O O2 0.407746 0.895031 0.127794
O O3 0.322057 0.852235 0.251579
O O4 0.354855 0.778787 0.137562
O O5 0.564155 0.617609 0.131076
O O6 0.415666 0.557455 0.094975
O O7 0.399573 0.672434 0.125739
O O8 0.481822 0.641321 0.000000
O O9 0.191205 0.968199 0.124180
O O10 0.148235 0.907821 0.000000
O O11 0.000000 0.500000 0.875885
O O12 0.000000 0.567069 0.750000
O O13 0.083712 0.610016 0.873753
O O14 0.776282 0.041248 0.500000
O O15 0.747522 0.074098 0.646541
O O16 0.776197 0.309386 0.886497
O O17 0.826308 0.770949 0.000000
#
# Coordination Sequence:
#
# PCOD8293411 Si02
#       7
#    16  16  16  16  16  16  16
#     4  11  22  35  54  82 111 142 185 230 269 320
#     4   8  16  32  54  76 102 141 181 218 266 325
#     4  10  19  32  52  80 112 142 173 217 273 324
#     4   9  19  36  57  81 111 147 183 223 276 330
#     4   9  17  32  55  81 107 138 179 221 266 328
#     4  10  20  37  59  80 106 145 185 223 273 325
#     4  10  21  39  58  79 109 143 185 229 272 324
#
# _framework density 20.201104999999998
#
# number of rings (size 3 to 8) (size 9 to 14) (size 15 to 20)
#    0.000    2.429    0.000    3.429    0.000    4.571 
#    0.000    8.571    0.000    8.571    0.000    0.000 
#    0.000    0.000    0.000    0.000    0.000    0.000 
#
# Total GULP energy -694063.855031 kJ/mol
# GULP energy per Si atom -12393.997411 kJ/mol
# Density = 2.015513 g / cm^3
# Si number density = 20.201105 Si / 1000 Ang^3
#
#
#
# Elastic Constant Matrix: (Units=GPa)
#
#
# Indices 1 2 3 4 5 6 
#
# 1 112.9160 25.3327 27.8163 0.0002 -0.0001 0.0000
# 2 25.3327 102.0013 32.8326 0.0009 -0.0001 0.0000
# 3 27.8163 32.8326 42.7044 0.0017 -0.0002 0.0000
# 4 0.0002 0.0009 0.0017 27.9628 -0.0002 0.0000
# 5 -0.0001 -0.0001 -0.0002 -0.0002 18.7292 0.0000
# 6 0.0000 0.0000 0.0000 0.0000 0.0000 27.3865
#
#
#
# Elastic Compliance Matrix: (Units=1/GPa)
#
#
# Indices 1 2 3 4 5 6 
#
# 1 0.010571 -0.000544 -0.006468 0.000000 0.000000 0.000000
# 2 -0.000544 0.013056 -0.009684 0.000000 0.000000 0.000000
# 3 -0.006468 -0.009684 0.035075 -0.000002 0.000000 0.000000
# 4 0.000000 0.000000 -0.000002 0.035762 0.000000 0.000000
# 5 0.000000 0.000000 0.000000 0.000000 0.053392 0.000000
# 6 0.000000 0.000000 0.000000 0.000000 0.000000 0.036514
#
#
# Mechanical properties :
#
#
# Convention : Reuss Voigt Hill
#
# Bulk Modulus (GPa) = 39.50735 47.73165 43.61950
# Shear Modulus (GPa) = 22.10447 26.25837 24.18142
#
# Velocity S-wave (km/s) = 3.31149 3.60925 3.46357
# Velocity P-wave (km/s) = 5.84985 6.40691 6.13471
#
# Compressibility (1/GPa) = 0.02531175
#
# Stress axis : x y z
#
# Youngs Moduli (GPa) = 94.59445 76.59423 28.51036
#
# Poissons Ratio (x) = 0.04163 0.18441
# Poissons Ratio (y) = 0.05142 0.27609
# Poissons Ratio (z) = 0.61184 0.74171
#
# Static dielectric constant tensor:
#      x y z
#    x 3.963830 0.000000 0.000000 
#    y 0.000000 3.807570 0.000000 
#    z 0.000000 0.000000 3.246600 
# 
# 
# High freq. dielectric constant tensor:
#      x y z
#    x 1.796790 0.000000 0.000000 
#    y 0.000000 1.795060 0.000000 
#    z 0.000000 0.000000 1.751690 
# 
# From -- ./inp_files/22109.got.cif
#   From: 2010.03.12/outbox.cif.g09.slc.cpg/sg72_12_cif.got.tgz:22109.got - 2010.04.16 14:54:00.
