data_PCOD8293793
_publ_section_title
;
Structure prediction by ZEFSAII (Michael W. Deem and Ramdas Pophale) SiO2 
 PCOD8293793
Probable space group: I B A M
;
_chemical_formula_sum "Si O2"
_cell_formula_units_Z 96
_cell_length_a 9.343015
_cell_length_b 24.481429
_cell_length_c 21.275334
_cell_angle_alpha 90.000000
_cell_angle_beta 90.000000
_cell_angle_gamma 90.000000
_cell_volume 4866.314770
_symmetry_space_group_name_H-M "I B A M"
_symmetry_group_IT_number 72
_symmetry_cell_setting 'orthorhombic'
loop_
_space_group_symop_operation_xyz
x,y,z
-x,-y,z
x,-y,1/2-z
-x,y,1/2-z
-x,-y,-z
x,y,-z
-x,y,1/2+z
x,-y,1/2+z
1/2+x,1/2+y,1/2+z
1/2-x,1/2-y,1/2+z
1/2+x,1/2-y,-z
1/2-x,1/2+y,-z
1/2-x,1/2-y,1/2-z
1/2+x,1/2+y,1/2-z
1/2-x,1/2+y,z
1/2+x,1/2-y,z
loop_
_atom_site_type_symbol
_atom_site_label
_atom_site_fract_x
_atom_site_fract_y
_atom_site_fract_z
Si Si1 0.486479 0.435632 0.677231
Si Si2 0.652099 0.621120 0.069123
Si Si3 0.932584 0.787099 0.069583
Si Si4 0.342937 0.801791 0.235942
Si Si5 0.265376 0.862096 0.647152
Si Si6 0.932690 0.335548 0.394986
O O1 0.500000 0.500000 0.678213
O O2 0.500000 0.413737 0.750000
O O3 0.609811 0.415853 0.629061
O O4 0.335128 0.415943 0.646232
O O5 0.580908 0.680596 0.078571
O O6 0.824105 0.628972 0.063296
O O7 0.605045 0.596837 0.000000
O O8 0.815853 0.809680 0.118342
O O9 0.970706 0.723789 0.078024
O O10 0.869330 0.796604 0.000000
O O11 0.500000 0.779901 0.250000
O O12 0.250000 0.750000 0.250000
O O13 0.297485 0.851324 0.280364
O O14 0.336883 0.826600 0.167083
O O15 0.419057 0.869624 0.612638
#
# Coordination Sequence:
#
# PCOD8293793 Si02
#       6
#    16  16  16  16  16  16
#     4  10  22  43  68  86 106 145 196 253 308 353
#     4  10  22  37  57  86 119 156 198 242 291 352
#     4  10  20  33  51  77 114 159 195 223 266 338
#     4  10  20  30  48  78 113 152 189 227 278 336
#     4  10  21  36  54  82 114 147 193 238 282 343
#     4  11  20  32  52  81 120 156 190 229 282 343
#
# _framework density 19.727454999999999
#
# number of rings (size 3 to 8) (size 9 to 14) (size 15 to 20)
#    0.000    1.833    1.667    2.500    2.333    3.667 
#    0.000    0.833    0.000    3.000    0.000    0.000 
#    0.000    0.000    0.000    0.000    0.000    0.000 
#
# Total GULP energy -594757.794072 kJ/mol
# GULP energy per Si atom -12390.787377 kJ/mol
# Density = 1.968255 g / cm^3
# Si number density = 19.727455 Si / 1000 Ang^3
#
#
#
# Elastic Constant Matrix: (Units=GPa)
#
#
# Indices 1 2 3 4 5 6 
#
# 1 119.3760 38.3711 28.6013 0.0000 0.0000 0.0000
# 2 38.3711 68.7384 27.4115 0.0000 0.0000 0.0000
# 3 28.6013 27.4115 108.5829 0.0000 0.0000 0.0000
# 4 0.0000 0.0000 0.0000 24.5715 0.0000 0.0000
# 5 0.0000 0.0000 0.0000 0.0000 25.0481 0.0000
# 6 0.0000 0.0000 0.0000 0.0000 0.0000 17.0699
#
#
#
# Elastic Compliance Matrix: (Units=1/GPa)
#
#
# Indices 1 2 3 4 5 6 
#
# 1 0.010401 -0.005241 -0.001417 0.000000 0.000000 0.000000
# 2 -0.005241 0.018817 -0.003370 0.000000 0.000000 0.000000
# 3 -0.001417 -0.003370 0.010433 0.000000 0.000000 0.000000
# 4 0.000000 0.000000 0.000000 0.040698 0.000000 0.000000
# 5 0.000000 0.000000 0.000000 0.000000 0.039923 0.000000
# 6 0.000000 0.000000 0.000000 0.000000 0.000000 0.058583
#
#
# Mechanical properties :
#
#
# Convention : Reuss Voigt Hill
#
# Bulk Modulus (GPa) = 51.02904 53.94056 52.48480
# Shear Modulus (GPa) = 24.33771 26.82546 25.58159
#
# Velocity S-wave (km/s) = 3.51621 3.69155 3.60495
# Velocity P-wave (km/s) = 6.51216 6.75073 6.63251
#
# Compressibility (1/GPa) = 0.01959669
#
# Stress axis : x y z
#
# Youngs Moduli (GPa) = 96.14524 53.14226 95.84602
#
# Poissons Ratio (x) = 0.27852 0.13577
# Poissons Ratio (y) = 0.50391 0.32299
# Poissons Ratio (z) = 0.13620 0.17908
#
# Static dielectric constant tensor:
#      x y z
#    x 2.454360 0.000000 0.000000 
#    y 0.000000 3.150810 0.000000 
#    z 0.000000 0.000000 4.064210 
# 
# 
# High freq. dielectric constant tensor:
#      x y z
#    x 1.776170 0.000000 0.000000 
#    y 0.000000 1.715290 0.000000 
#    z 0.000000 0.000000 1.790560 
# 
# From -- ./inp_files/36063.got.cif
#   From: 2010.03.12/outbox.cif.g09.slc.cpg/sg72_19_cif.got.tgz:36063.got - 2010.04.16 14:54:00.
