data_PCOD8293829
_publ_section_title
;
Structure prediction by ZEFSAII (Michael W. Deem and Ramdas Pophale) SiO2 
 PCOD8293829
Probable space group: I B A M
;
_chemical_formula_sum "Si O2"
_cell_formula_units_Z 112
_cell_length_a 17.398705
_cell_length_b 26.481279
_cell_length_c 14.418956
_cell_angle_alpha 90.000000
_cell_angle_beta 90.000000
_cell_angle_gamma 90.000000
_cell_volume 6643.389230
_symmetry_space_group_name_H-M "I B A M"
_symmetry_group_IT_number 72
_symmetry_cell_setting 'orthorhombic'
loop_
_space_group_symop_operation_xyz
x,y,z
-x,-y,z
x,-y,1/2-z
-x,y,1/2-z
-x,-y,-z
x,y,-z
-x,y,1/2+z
x,-y,1/2+z
1/2+x,1/2+y,1/2+z
1/2-x,1/2-y,1/2+z
1/2+x,1/2-y,-z
1/2-x,1/2+y,-z
1/2-x,1/2-y,1/2-z
1/2+x,1/2+y,1/2-z
1/2-x,1/2+y,z
1/2+x,1/2-y,z
loop_
_atom_site_type_symbol
_atom_site_label
_atom_site_fract_x
_atom_site_fract_y
_atom_site_fract_z
Si Si1 0.914458 0.088491 0.894669
Si Si2 0.085542 0.088491 0.894669
Si Si3 0.203447 0.055112 0.250000
Si Si4 0.411578 0.226824 0.750000
Si Si5 0.348549 0.303359 0.392894
Si Si6 0.728585 0.161094 0.250000
Si Si7 0.348549 0.696641 0.392894
O O1 0.851035 0.057905 0.839098
O O2 0.903186 0.148311 0.883344
O O3 1.000000 0.075625 0.858411
O O4 0.904778 0.071400 0.000000
O O5 0.148965 0.057905 0.839098
O O6 0.096814 0.148311 0.883344
O O7 0.095222 0.071401 0.000000
O O8 0.265928 0.100037 0.250000
O O9 0.244555 0.000000 0.250000
O O10 0.500000 0.210176 0.750000
O O11 0.392886 0.257974 0.657006
O O12 0.360737 0.175796 0.750000
O O13 0.392886 0.257974 0.842994
O O14 0.331772 0.289535 0.500000
O O15 0.268097 0.314910 0.341389
O O16 0.768097 0.185090 0.158611
O O17 0.331772 0.710465 0.500000
#
# Coordination Sequence:
#
# PCOD8293829 Si02
#       7
#    16  16  16  16  16  16  16
#     4   9  17  28  43  67  97 122 145 176 213 258
#     4   9  17  28  43  67  97 122 145 176 213 258
#     4  10  20  33  47  60  80 116 158 195 231 267
#     4  11  21  30  45  71  98 121 149 186 226 268
#     4   9  17  31  50  70  96 129 155 173 207 266
#     4   9  20  34  47  67  92 119 153 193 228 262
#     4   9  17  31  50  70  96 129 155 173 207 266
#
# _framework density 16.858865999999999
#
# number of rings (size 3 to 8) (size 9 to 14) (size 15 to 20)
#    0.000    2.571    0.000    3.857    0.000    5.714 
#    0.000    1.429    0.000    0.429    0.000    0.000 
#    0.000    0.000    0.000   16.857    0.000    0.000 
#
# Total GULP energy -694280.234263 kJ/mol
# GULP energy per Si atom -12397.861326 kJ/mol
# Density = 1.682049 g / cm^3
# Si number density = 16.858866 Si / 1000 Ang^3
#
#
#
# Elastic Constant Matrix: (Units=GPa)
#
#
# Indices 1 2 3 4 5 6 
#
# 1 99.1469 54.3477 31.9294 -0.0002 0.0000 0.0000
# 2 54.3477 97.0323 33.8065 -0.0002 0.0000 0.0000
# 3 31.9294 33.8065 114.4372 -0.0004 0.0001 0.0000
# 4 -0.0002 -0.0002 -0.0004 9.2452 0.0001 0.0000
# 5 0.0000 0.0000 0.0001 0.0001 10.3555 0.0000
# 6 0.0000 0.0000 0.0000 0.0000 0.0000 9.1786
#
#
#
# Elastic Compliance Matrix: (Units=1/GPa)
#
#
# Indices 1 2 3 4 5 6 
#
# 1 0.014912 -0.007694 -0.001887 0.000000 0.000000 0.000000
# 2 -0.007694 0.015459 -0.002420 0.000000 0.000000 0.000000
# 3 -0.001887 -0.002420 0.009980 0.000000 0.000000 0.000000
# 4 0.000000 0.000000 0.000000 0.108164 -0.000001 0.000000
# 5 0.000000 0.000000 0.000000 -0.000001 0.096567 0.000000
# 6 0.000000 0.000000 0.000000 0.000000 0.000000 0.108949
#
#
# Mechanical properties :
#
#
# Convention : Reuss Voigt Hill
#
# Bulk Modulus (GPa) = 61.17473 61.19817 61.18645
# Shear Modulus (GPa) = 13.03838 18.45804 15.74821
#
# Velocity S-wave (km/s) = 2.78400 3.31245 3.05965
# Velocity P-wave (km/s) = 6.83369 7.14205 6.98957
#
# Compressibility (1/GPa) = 0.01634662
#
# Stress axis : x y z
#
# Youngs Moduli (GPa) = 67.06201 64.68918 100.20123
#
# Poissons Ratio (x) = 0.49774 0.18913
# Poissons Ratio (y) = 0.51600 0.24247
# Poissons Ratio (z) = 0.12658 0.15654
#
# Static dielectric constant tensor:
#      x y z
#    x 2.905770 0.000000 0.000000 
#    y 0.000000 3.010480 0.000000 
#    z 0.000000 0.000000 3.469870 
# 
# 
# High freq. dielectric constant tensor:
#      x y z
#    x 1.611910 0.000000 0.000000 
#    y 0.000000 1.631050 0.000000 
#    z 0.000000 0.000000 1.664720 
# 
# From -- ./inp_files/22274.got.cif
#   From: 2010.03.12/outbox.cif.g09.slc.cpg/sg72_12_cif.got.tgz:22274.got - 2010.04.16 14:54:00.
