data_PCOD8293503
_publ_section_title
;
Structure prediction by ZEFSAII (Michael W. Deem and Ramdas Pophale) SiO2 
 PCOD8293503
Probable space group: I B A M
;
_chemical_formula_sum "Si O2"
_cell_formula_units_Z 88
_cell_length_a 12.793806
_cell_length_b 24.223863
_cell_length_c 14.213263
_cell_angle_alpha 90.000000
_cell_angle_beta 90.000000
_cell_angle_gamma 90.000000
_cell_volume 4404.909142
_symmetry_space_group_name_H-M "I B A M"
_symmetry_group_IT_number 72
_symmetry_cell_setting 'orthorhombic'
loop_
_space_group_symop_operation_xyz
x,y,z
-x,-y,z
x,-y,1/2-z
-x,y,1/2-z
-x,-y,-z
x,y,-z
-x,y,1/2+z
x,-y,1/2+z
1/2+x,1/2+y,1/2+z
1/2-x,1/2-y,1/2+z
1/2+x,1/2-y,-z
1/2-x,1/2+y,-z
1/2-x,1/2-y,1/2-z
1/2+x,1/2+y,1/2-z
1/2-x,1/2+y,z
1/2+x,1/2-y,z
loop_
_atom_site_type_symbol
_atom_site_label
_atom_site_fract_x
_atom_site_fract_y
_atom_site_fract_z
Si Si1 0.831259 0.285170 0.346447
Si Si2 0.050381 0.926943 0.659295
Si Si3 0.606656 0.598143 0.000000
Si Si4 0.795009 0.167819 0.312105
Si Si5 0.995493 0.309015 0.500000
Si Si6 0.677953 0.518652 0.500000
Si Si7 0.830820 0.780487 0.500000
Si Si8 0.806846 0.375707 0.000000
O O1 0.861926 0.225017 0.304917
O O2 0.797056 0.329375 0.266876
O O3 0.924312 0.311726 0.406848
O O4 0.731741 0.265098 0.406843
O O5 0.124087 0.880962 0.707071
O O6 0.112597 0.970616 0.595264
O O7 0.000000 0.957222 0.750000
O O8 0.964449 0.899654 0.592482
O O9 0.692087 0.547567 0.000000
O O10 0.670248 0.653646 0.000000
O O11 0.743151 0.155081 0.412153
O O12 0.059078 0.251389 0.500000
O O13 0.068979 0.363484 0.500000
O O14 0.781520 0.557909 0.500000
#
# Coordination Sequence:
#
# PCOD8293503 Si02
#       8
#    16  16   8  16   8   8   8   8
#     4  10  21  33  52  80 112 146 195 236 290 349
#     4  10  19  33  54  79 111 148 184 225 282 346
#     4  11  21  33  53  83 109 148 194 227 280 345
#     4  10  19  35  50  77 115 149 183 241 292 343
#     4  11  20  35  58  79 108 160 191 238 289 356
#     4   9  22  36  53  77 114 148 185 239 278 342
#     4  11  20  36  53  81 116 145 188 241 291 330
#     4  10  19  38  55  71 109 154 191 233 299 339
#
# _framework density 19.977710999999999
#
# number of rings (size 3 to 8) (size 9 to 14) (size 15 to 20)
#    0.000    1.818    1.818    4.364    0.000    2.182 
#    0.000    0.000    0.000    2.182    0.000    0.000 
#    0.000   11.636    0.000    0.000    0.000    0.727 
#
# Total GULP energy -545198.113350 kJ/mol
# GULP energy per Si atom -12390.866213 kJ/mol
# Density = 1.993224 g / cm^3
# Si number density = 19.977711 Si / 1000 Ang^3
#
#
#
# Elastic Constant Matrix: (Units=GPa)
#
#
# Indices 1 2 3 4 5 6 
#
# 1 89.7415 42.9299 39.9075 0.0000 0.0000 0.0000
# 2 42.9299 117.1520 18.8197 -0.0001 0.0000 0.0000
# 3 39.9075 18.8197 127.8388 0.0002 0.0002 0.0000
# 4 0.0000 -0.0001 0.0002 -6.3463 0.0000 0.0000
# 5 0.0000 0.0000 0.0002 0.0000 31.4555 0.0000
# 6 0.0000 0.0000 0.0000 0.0000 0.0000 17.2930
#
#
#
# Elastic Compliance Matrix: (Units=1/GPa)
#
#
# Indices 1 2 3 4 5 6 
#
# 1 0.015319 -0.004963 -0.004051 0.000000 0.000000 0.000000
# 2 -0.004963 0.010350 0.000025 0.000000 0.000000 0.000000
# 3 -0.004051 0.000025 0.009083 0.000000 0.000000 0.000000
# 4 0.000000 0.000000 0.000000 -0.157572 0.000000 0.000000
# 5 0.000000 0.000000 0.000000 0.000000 0.031791 0.000000
# 6 0.000000 0.000000 0.000000 0.000000 0.000000 0.057827
#
#
# Mechanical properties :
#
#
# Convention : Reuss Voigt Hill
#
# Bulk Modulus (GPa) = 59.61200 59.78295 59.69748
# Shear Modulus (GPa) = -519.09568 24.01878 -247.53845
#
# Velocity S-wave (km/s) = -16.13696 3.47115 -11.14344
# Velocity P-wave (km/s) = 17.81286 6.78638 11.64566
#
# Compressibility (1/GPa) = 0.01677515
#
# Stress axis : x y z
#
# Youngs Moduli (GPa) = 65.27934 96.61486 110.09148
#
# Poissons Ratio (x) = 0.47947 0.44603
# Poissons Ratio (y) = 0.32396 -0.00280
# Poissons Ratio (z) = 0.26448 -0.00246
#
# Static dielectric constant tensor:
#      x y z
#    x 3.530890 0.000000 0.000000 
#    y 0.000000 3.518050 0.000000 
#    z 0.000000 0.000000 3.731760 
# 
# 
# High freq. dielectric constant tensor:
#      x y z
#    x 1.747240 0.000000 0.000000 
#    y 0.000000 1.771030 0.000000 
#    z 0.000000 0.000000 1.800660 
# 
# From -- ./inp_files/20570.got.cif
#   From: 2010.03.12/outbox.cif.g09.slc.cpg/sg72_11_cif.got.tgz:20570.got - 2010.04.16 14:54:00.
