data_PCOD8293106
_publ_section_title
;
Structure prediction by ZEFSAII (Michael W. Deem and Ramdas Pophale) SiO2 
 PCOD8293106
Probable space group: I B A M
;
_chemical_formula_sum "Si O2"
_cell_formula_units_Z 128
_cell_length_a 21.522831
_cell_length_b 17.568139
_cell_length_c 17.831379
_cell_angle_alpha 90.000000
_cell_angle_beta 90.000000
_cell_angle_gamma 90.000000
_cell_volume 6742.331248
_symmetry_space_group_name_H-M "I B A M"
_symmetry_group_IT_number 72
_symmetry_cell_setting 'orthorhombic'
loop_
_space_group_symop_operation_xyz
x,y,z
-x,-y,z
x,-y,1/2-z
-x,y,1/2-z
-x,-y,-z
x,y,-z
-x,y,1/2+z
x,-y,1/2+z
1/2+x,1/2+y,1/2+z
1/2-x,1/2-y,1/2+z
1/2+x,1/2-y,-z
1/2-x,1/2+y,-z
1/2-x,1/2-y,1/2-z
1/2+x,1/2+y,1/2-z
1/2-x,1/2+y,z
1/2+x,1/2-y,z
loop_
_atom_site_type_symbol
_atom_site_label
_atom_site_fract_x
_atom_site_fract_y
_atom_site_fract_z
Si Si1 0.714177 0.258918 0.582465
Si Si2 0.304374 0.833422 0.189874
Si Si3 0.413313 0.118835 0.585725
Si Si4 0.973586 0.334111 0.826630
Si Si5 0.395864 0.049490 0.915780
Si Si6 0.762935 0.413208 0.081826
Si Si7 0.692249 0.415441 0.769789
Si Si8 0.373927 0.280019 0.204438
O O1 0.720569 0.296074 0.500000
O O2 0.774949 0.274636 0.631499
O O3 0.705976 0.169305 0.576859
O O4 0.653584 0.295525 0.621713
O O5 0.357304 0.875644 0.143890
O O6 0.253209 0.892225 0.221723
O O7 0.332110 0.786372 0.258801
O O8 0.395668 0.141924 0.500000
O O9 0.470810 0.171795 0.612617
O O10 0.433068 0.030241 0.589663
O O11 0.920465 0.390071 0.855989
O O12 0.944432 0.250519 0.806093
O O13 0.000000 0.369745 0.750000
O O14 0.322433 0.033201 0.899389
O O15 0.404304 0.082622 0.000000
O O16 0.708115 0.417322 0.142101
O O17 0.734486 0.435110 0.000000
O O18 0.669896 0.500000 0.750000
O O19 0.634509 0.357356 0.753507
#
# Coordination Sequence:
#
# PCOD8293106 Si02
#       8
#    16  16  16  16  16  16  16  16
#     4  10  18  31  56  81 107 147 184 225 276 332
#     4  11  19  36  54  83 118 144 184 232 280 346
#     4  11  24  37  53  81 115 151 190 239 286 335
#     4  12  23  37  54  74 104 152 195 236 273 329
#     4  10  21  37  53  77 116 152 189 230 275 340
#     4  10  18  32  56  83 114 153 189 222 281 353
#     4  11  21  36  59  87 118 153 186 238 299 352
#     4  11  21  38  54  80 114 146 196 238 274 340
#
# _framework density 18.984532000000002
#
# number of rings (size 3 to 8) (size 9 to 14) (size 15 to 20)
#    0.000    1.250    5.000    2.625    0.000    2.500 
#    0.000    2.500    0.000    0.375    0.000    0.000 
#    0.000    1.000    0.000    0.000    0.000    0.000 
#
# Total GULP energy -793283.953406 kJ/mol
# GULP energy per Si atom -12395.061772 kJ/mol
# Density = 1.894132 g / cm^3
# Si number density = 18.984532 Si / 1000 Ang^3
#
#
#
# Elastic Constant Matrix: (Units=GPa)
#
#
# Indices 1 2 3 4 5 6 
#
# 1 68.6400 35.3898 38.0244 0.0000 0.0000 0.0000
# 2 35.3898 83.3357 28.8469 0.0000 0.0000 0.0000
# 3 38.0244 28.8469 123.8451 0.0000 0.0000 0.0000
# 4 0.0000 0.0000 0.0000 19.0419 0.0000 0.0000
# 5 0.0000 0.0000 0.0000 0.0000 8.9142 0.0000
# 6 0.0000 0.0000 0.0000 0.0000 0.0000 24.2158
#
#
#
# Elastic Compliance Matrix: (Units=1/GPa)
#
#
# Indices 1 2 3 4 5 6 
#
# 1 0.020931 -0.007248 -0.004738 0.000000 0.000000 0.000000
# 2 -0.007248 0.015562 -0.001399 0.000000 0.000000 0.000000
# 3 -0.004738 -0.001399 0.009855 0.000000 0.000000 0.000000
# 4 0.000000 0.000000 0.000000 0.052516 0.000000 0.000000
# 5 0.000000 0.000000 0.000000 0.000000 0.112180 0.000000
# 6 0.000000 0.000000 0.000000 0.000000 0.000000 0.041295
#
#
# Mechanical properties :
#
#
# Convention : Reuss Voigt Hill
#
# Bulk Modulus (GPa) = 51.08165 53.37144 52.22655
# Shear Modulus (GPa) = 17.50476 22.00503 19.75489
#
# Velocity S-wave (km/s) = 3.03983 3.40825 3.22930
# Velocity P-wave (km/s) = 6.26787 6.60775 6.44005
#
# Compressibility (1/GPa) = 0.01957650
#
# Stress axis : x y z
#
# Youngs Moduli (GPa) = 47.77676 64.25815 101.46854
#
# Poissons Ratio (x) = 0.46577 0.48076
# Poissons Ratio (y) = 0.34631 0.14199
# Poissons Ratio (z) = 0.22637 0.08992
#
# Static dielectric constant tensor:
#      x y z
#    x 3.313180 0.000000 0.000000 
#    y 0.000000 3.316460 0.000000 
#    z 0.000000 0.000000 3.796510 
# 
# 
# High freq. dielectric constant tensor:
#      x y z
#    x 1.705370 0.000000 0.000000 
#    y 0.000000 1.706050 0.000000 
#    z 0.000000 0.000000 1.759730 
# 
# From -- ./inp_files/33535.got.cif
#   From: 2010.03.12/outbox.cif.g09.slc.cpg/sg72_17_cif.got.tgz:33535.got - 2010.04.16 14:54:00.
