data_PCOD8293506
_publ_section_title
;
Structure prediction by ZEFSAII (Michael W. Deem and Ramdas Pophale) SiO2 
 PCOD8293506
Probable space group: I B A M
;
_chemical_formula_sum "Si O2"
_cell_formula_units_Z 112
_cell_length_a 14.144301
_cell_length_b 18.113471
_cell_length_c 22.741476
_cell_angle_alpha 90.000000
_cell_angle_beta 90.000000
_cell_angle_gamma 90.000000
_cell_volume 5826.420412
_symmetry_space_group_name_H-M "I B A M"
_symmetry_group_IT_number 72
_symmetry_cell_setting 'orthorhombic'
loop_
_space_group_symop_operation_xyz
x,y,z
-x,-y,z
x,-y,1/2-z
-x,y,1/2-z
-x,-y,-z
x,y,-z
-x,y,1/2+z
x,-y,1/2+z
1/2+x,1/2+y,1/2+z
1/2-x,1/2-y,1/2+z
1/2+x,1/2-y,-z
1/2-x,1/2+y,-z
1/2-x,1/2-y,1/2-z
1/2+x,1/2+y,1/2-z
1/2-x,1/2+y,z
1/2+x,1/2-y,z
loop_
_atom_site_type_symbol
_atom_site_label
_atom_site_fract_x
_atom_site_fract_y
_atom_site_fract_z
Si Si1 0.277623 0.080482 0.068333
Si Si2 0.353565 0.824822 0.870326
Si Si3 0.219887 0.078844 0.433509
Si Si4 0.641332 0.653986 0.652651
Si Si5 0.572643 0.336351 0.631134
Si Si6 0.721663 0.328536 0.728042
Si Si7 0.547569 0.817317 0.070024
O O1 0.184170 0.109559 0.099088
O O2 0.370752 0.125063 0.088531
O O3 0.280947 0.993613 0.084736
O O4 0.262652 0.093822 0.000000
O O5 0.288226 0.850949 0.924280
O O6 0.337786 0.739010 0.860297
O O7 0.309599 0.863838 0.810375
O O8 0.460819 0.843413 0.888099
O O9 0.187593 0.072573 0.500000
O O10 0.122927 0.091926 0.397608
O O11 0.530044 0.638915 0.652668
O O12 0.689769 0.625590 0.713875
O O13 0.629724 0.313935 0.688736
O O14 0.572895 0.267160 0.585696
O O15 0.750000 0.250000 0.750000
O O16 0.524294 0.822272 0.000000
#
# Coordination Sequence:
#
# PCOD8293506 Si02
#       7
#    16  16  16  16  16  16  16
#     4  10  22  36  52  75 108 146 181 220 272 325
#     4   9  19  33  54  80 104 135 177 222 269 317
#     4  10  20  35  52  75 108 144 178 219 269 324
#     4  10  20  35  55  78 107 140 178 224 269 320
#     4  10  20  33  54  82 107 138 180 223 268 319
#     4   9  17  33  55  80 107 136 173 222 273 321
#     4  10  19  33  54  82 110 141 180 224 269 318
#
# _framework density 19.22278
#
# number of rings (size 3 to 8) (size 9 to 14) (size 15 to 20)
#    0.000    2.286    0.000    3.857    0.000    5.714 
#    0.000    8.571    0.000    3.429    0.000   16.000 
#    0.000    0.000    0.000    0.000    0.000    0.000 
#
# Total GULP energy -693784.872410 kJ/mol
# GULP energy per Si atom -12389.015579 kJ/mol
# Density = 1.917903 g / cm^3
# Si number density = 19.222780 Si / 1000 Ang^3
#
#
#
# Elastic Constant Matrix: (Units=GPa)
#
#
# Indices 1 2 3 4 5 6 
#
# 1 130.6824 36.8083 66.3805 0.0000 0.0000 0.0000
# 2 36.8083 40.1367 37.4422 0.0000 0.0000 0.0000
# 3 66.3805 37.4422 83.6730 0.0000 0.0000 0.0000
# 4 0.0000 0.0000 0.0000 18.8968 0.0000 0.0000
# 5 0.0000 0.0000 0.0000 0.0000 34.8132 0.0000
# 6 0.0000 0.0000 0.0000 0.0000 0.0000 20.0216
#
#
#
# Elastic Compliance Matrix: (Units=1/GPa)
#
#
# Indices 1 2 3 4 5 6 
#
# 1 0.013182 -0.004005 -0.008665 0.000000 0.000000 0.000000
# 2 -0.004005 0.043985 -0.016505 0.000000 0.000000 0.000000
# 3 -0.008665 -0.016505 0.026212 0.000000 0.000000 0.000000
# 4 0.000000 0.000000 0.000000 0.052919 0.000000 0.000000
# 5 0.000000 0.000000 0.000000 0.000000 0.028725 0.000000
# 6 0.000000 0.000000 0.000000 0.000000 0.000000 0.049946
#
#
# Mechanical properties :
#
#
# Convention : Reuss Voigt Hill
#
# Bulk Modulus (GPa) = 39.95657 59.52824 49.74240
# Shear Modulus (GPa) = 17.75181 22.33707 20.04444
#
# Velocity S-wave (km/s) = 3.04217 3.41253 3.23266
# Velocity P-wave (km/s) = 5.75942 6.82363 6.31399
#
# Compressibility (1/GPa) = 0.02502717
#
# Stress axis : x y z
#
# Youngs Moduli (GPa) = 75.86201 22.73508 38.15113
#
# Poissons Ratio (x) = 0.09106 0.33059
# Poissons Ratio (y) = 0.30383 0.62969
# Poissons Ratio (z) = 0.65737 0.37524
#
# Static dielectric constant tensor:
#      x y z
#    x 3.562660 0.000000 0.000000 
#    y 0.000000 3.332920 0.000000 
#    z 0.000000 0.000000 3.924710 
# 
# 
# High freq. dielectric constant tensor:
#      x y z
#    x 1.754880 0.000000 0.000000 
#    y 0.000000 1.718600 0.000000 
#    z 0.000000 0.000000 1.755760 
# 
# From -- ./inp_files/44355.got.cif
#   From: 2010.03.12/outbox.cif.g09.slc.cpg/sg72_23_cif.got.tgz:44355.got - 2010.04.16 14:54:00.
