data_PCOD8293260
_publ_section_title
;
Structure prediction by ZEFSAII (Michael W. Deem and Ramdas Pophale) SiO2 
 PCOD8293260
Probable space group: I B A M
;
_chemical_formula_sum "Si O2"
_cell_formula_units_Z 80
_cell_length_a 27.175578
_cell_length_b 19.235675
_cell_length_c 8.605116
_cell_angle_alpha 90.000000
_cell_angle_beta 90.000000
_cell_angle_gamma 90.000000
_cell_volume 4498.243383
_symmetry_space_group_name_H-M "I B A M"
_symmetry_group_IT_number 72
_symmetry_cell_setting 'orthorhombic'
loop_
_space_group_symop_operation_xyz
x,y,z
-x,-y,z
x,-y,1/2-z
-x,y,1/2-z
-x,-y,-z
x,y,-z
-x,y,1/2+z
x,-y,1/2+z
1/2+x,1/2+y,1/2+z
1/2-x,1/2-y,1/2+z
1/2+x,1/2-y,-z
1/2-x,1/2+y,-z
1/2-x,1/2-y,1/2-z
1/2+x,1/2+y,1/2-z
1/2-x,1/2+y,z
1/2+x,1/2-y,z
loop_
_atom_site_type_symbol
_atom_site_label
_atom_site_fract_x
_atom_site_fract_y
_atom_site_fract_z
Si Si1 0.365165 0.673843 0.180720
Si Si2 0.947300 0.074978 0.816300
Si Si3 0.807040 0.065779 0.169772
Si Si4 0.699662 0.216808 0.682788
Si Si5 0.693978 0.068493 0.171150
O O1 0.409664 0.635902 0.268657
O O2 0.315368 0.630202 0.214910
O O3 0.350450 0.748881 0.248612
O O4 0.377346 0.679423 0.000000
O O5 0.000000 0.097175 0.750000
O O6 0.930877 0.000000 0.750000
O O7 0.950856 0.069425 0.000000
O O8 0.750489 0.050208 0.144657
O O9 0.833401 0.000000 0.250000
O O10 0.831876 0.078919 0.000000
O O11 0.701929 0.228684 0.500000
O O12 0.750000 0.250000 0.750000
O O13 0.691283 0.136003 0.720841
O O14 0.668915 0.000000 0.250000
O O15 0.670103 0.081648 0.000000
#
# Coordination Sequence:
#
# PCOD8293260 Si02
#       5
#    16  16  16  16  16
#     4  12  23  35  52  74 102 137 177 221 269 320
#     4  11  22  39  59  81 109 142 182 227 276 327
#     4  10  19  30  45  66  95 129 171 215 258 305
#     4  12  23  36  52  74 104 139 177 223 271 320
#     4  10  20  34  51  70  97 134 174 215 259 309
#
# _framework density 17.784721999999999
#
# number of rings (size 3 to 8) (size 9 to 14) (size 15 to 20)
#    0.000    1.000    2.000    7.800    0.000    1.600 
#    0.000    0.000    0.000    0.000    0.000    0.000 
#    0.000    0.800    0.000    8.000    0.000    4.800 
#
# Total GULP energy -495684.844689 kJ/mol
# GULP energy per Si atom -12392.121117 kJ/mol
# Density = 1.774424 g / cm^3
# Si number density = 17.784722 Si / 1000 Ang^3
#
#
#
# Elastic Constant Matrix: (Units=GPa)
#
#
# Indices 1 2 3 4 5 6 
#
# 1 59.1178 31.3159 32.9196 0.0000 0.0000 0.0000
# 2 31.3159 117.2960 42.6806 0.0000 0.0000 0.0000
# 3 32.9196 42.6806 160.2112 0.0000 0.0000 0.0000
# 4 0.0000 0.0000 0.0000 31.3334 0.0000 0.0000
# 5 0.0000 0.0000 0.0000 0.0000 21.1715 0.0000
# 6 0.0000 0.0000 0.0000 0.0000 0.0000 25.4855
#
#
#
# Elastic Compliance Matrix: (Units=1/GPa)
#
#
# Indices 1 2 3 4 5 6 
#
# 1 0.021028 -0.004476 -0.003128 0.000000 0.000000 0.000000
# 2 -0.004476 0.010393 -0.001849 0.000000 0.000000 0.000000
# 3 -0.003128 -0.001849 0.007377 0.000000 0.000000 0.000000
# 4 0.000000 0.000000 0.000000 0.031915 0.000000 0.000000
# 5 0.000000 0.000000 0.000000 0.000000 0.047233 0.000000
# 6 0.000000 0.000000 0.000000 0.000000 0.000000 0.039238
#
#
# Mechanical properties :
#
#
# Convention : Reuss Voigt Hill
#
# Bulk Modulus (GPa) = 50.27144 61.16192 55.71668
# Shear Modulus (GPa) = 27.36391 30.91202 29.13797
#
# Velocity S-wave (km/s) = 3.92678 4.17360 4.05207
# Velocity P-wave (km/s) = 6.99196 7.59540 7.29992
#
# Compressibility (1/GPa) = 0.01989201
#
# Stress axis : x y z
#
# Youngs Moduli (GPa) = 47.55472 96.21630 135.55296
#
# Poissons Ratio (x) = 0.43065 0.42407
# Poissons Ratio (y) = 0.21285 0.25065
# Poissons Ratio (z) = 0.14877 0.17791
#
# Static dielectric constant tensor:
#      x y z
#    x 2.984870 0.000000 0.000000 
#    y 0.000000 3.425950 0.000000 
#    z 0.000000 0.000000 3.781660 
# 
# 
# High freq. dielectric constant tensor:
#      x y z
#    x 1.632490 0.000000 0.000000 
#    y 0.000000 1.685760 0.000000 
#    z 0.000000 0.000000 1.715880 
# 
# From -- ./inp_files/4796.got.cif
#   From: 2010.03.12/outbox.cif.g09.slc.cpg/sg72_3_cif.got.tgz:4796.got - 2010.04.16 14:54:00.
