data_PCOD8293754
_publ_section_title
;
Structure prediction by ZEFSAII (Michael W. Deem and Ramdas Pophale) SiO2 
 PCOD8293754
Probable space group: I B A M
;
_chemical_formula_sum "Si O2"
_cell_formula_units_Z 72
_cell_length_a 9.426072
_cell_length_b 26.832431
_cell_length_c 14.208161
_cell_angle_alpha 90.000000
_cell_angle_beta 90.000000
_cell_angle_gamma 90.000000
_cell_volume 3593.590973
_symmetry_space_group_name_H-M "I B A M"
_symmetry_group_IT_number 72
_symmetry_cell_setting 'orthorhombic'
loop_
_space_group_symop_operation_xyz
x,y,z
-x,-y,z
x,-y,1/2-z
-x,y,1/2-z
-x,-y,-z
x,y,-z
-x,y,1/2+z
x,-y,1/2+z
1/2+x,1/2+y,1/2+z
1/2-x,1/2-y,1/2+z
1/2+x,1/2-y,-z
1/2-x,1/2+y,-z
1/2-x,1/2-y,1/2-z
1/2+x,1/2+y,1/2-z
1/2-x,1/2+y,z
1/2+x,1/2-y,z
loop_
_atom_site_type_symbol
_atom_site_label
_atom_site_fract_x
_atom_site_fract_y
_atom_site_fract_z
Si Si1 0.232179 0.680835 0.500000
Si Si2 0.031738 0.871517 0.500000
Si Si3 0.495018 0.845441 0.637687
Si Si4 0.615190 0.537247 0.604566
Si Si5 0.711428 0.203125 0.500000
Si Si6 0.074174 0.546442 0.150352
O O1 0.375783 0.650102 0.500000
O O2 0.257817 0.739091 0.500000
O O3 0.148284 0.666888 0.404970
O O4 0.053685 0.906356 0.406820
O O5 0.141274 0.826255 0.500000
O O6 0.500000 0.839429 0.750000
O O7 0.377803 0.808676 0.594234
O O8 0.451851 0.900706 0.600482
O O9 0.500000 0.500000 0.652003
O O10 0.654203 0.516274 0.500000
O O11 0.758271 0.537328 0.665321
O O12 0.000000 0.500000 0.094981
O O13 0.000000 0.550160 0.250000
#
# Coordination Sequence:
#
# PCOD8293754 Si02
#       6
#     8   8  16  16   8  16
#     4  11  25  38  66  95 118 168 210 274 316 373
#     4  10  19  38  57  88 126 153 202 264 320 351
#     4  10  22  42  66  93 125 166 215 255 316 386
#     4   9  19  34  58  89 114 156 201 252 300 369
#     4  11  21  44  64  90 128 163 211 272 319 361
#     4  10  21  37  60  88 127 165 202 250 306 375
#
# _framework density 20.035668999999999
#
# number of rings (size 3 to 8) (size 9 to 14) (size 15 to 20)
#    0.667    1.333    2.222    1.333    4.667    1.333 
#    0.000    3.333    0.000    0.000    0.000    0.000 
#    0.000    0.000    0.000    0.000    0.000    0.000 
#
# Total GULP energy -446129.162357 kJ/mol
# GULP energy per Si atom -12392.476732 kJ/mol
# Density = 1.999007 g / cm^3
# Si number density = 20.035669 Si / 1000 Ang^3
#
#
#
# Elastic Constant Matrix: (Units=GPa)
#
#
# Indices 1 2 3 4 5 6 
#
# 1 209.3788 93.2384 51.9071 0.0000 0.0000 0.0000
# 2 93.2384 161.4791 24.6738 -0.0001 0.0000 0.0000
# 3 51.9071 24.6738 96.4853 -0.0003 -0.0003 -0.0001
# 4 0.0000 -0.0001 -0.0003 2.0675 0.0000 0.0000
# 5 0.0000 0.0000 -0.0003 0.0000 31.1210 0.0001
# 6 0.0000 0.0000 -0.0001 0.0000 0.0001 37.5797
#
#
#
# Elastic Compliance Matrix: (Units=1/GPa)
#
#
# Indices 1 2 3 4 5 6 
#
# 1 0.007130 -0.003675 -0.002896 0.000000 0.000000 0.000000
# 2 -0.003675 0.008338 -0.000155 0.000000 0.000000 0.000000
# 3 -0.002896 -0.000155 0.011962 0.000002 0.000000 0.000000
# 4 0.000000 0.000000 0.000002 0.483671 -0.000001 0.000000
# 5 0.000000 0.000000 0.000000 -0.000001 0.032133 0.000000
# 6 0.000000 0.000000 0.000000 0.000000 0.000000 0.026610
#
#
# Mechanical properties :
#
#
# Convention : Reuss Voigt Hill
#
# Bulk Modulus (GPa) = 71.54046 89.66466 80.60256
# Shear Modulus (GPa) = 8.50403 33.98857 21.24630
#
# Velocity S-wave (km/s) = 2.06244 4.12321 3.25995
# Velocity P-wave (km/s) = 6.43860 8.21690 7.38150
#
# Compressibility (1/GPa) = 0.01397810
#
# Stress axis : x y z
#
# Youngs Moduli (GPa) = 140.24536 119.93012 83.59676
#
# Poissons Ratio (x) = 0.44069 0.24212
# Poissons Ratio (y) = 0.51534 0.01300
# Poissons Ratio (z) = 0.40619 0.01865
#
# Static dielectric constant tensor:
#      x y z
#    x 3.672130 0.000000 0.000000 
#    y 0.000000 4.626000 0.000000 
#    z 0.000000 0.000000 3.275810 
# 
# 
# High freq. dielectric constant tensor:
#      x y z
#    x 1.793040 0.000000 0.000000 
#    y 0.000000 1.792590 0.000000 
#    z 0.000000 0.000000 1.755060 
# 
# From -- ./inp_files/19018.got.cif
#   From: 2010.03.12/outbox.cif.g09.slc.cpg/sg72_10_cif.got.tgz:19018.got - 2010.04.16 14:54:00.
