data_PCOD8293430
_publ_section_title
;
Structure prediction by ZEFSAII (Michael W. Deem and Ramdas Pophale) SiO2 
 PCOD8293430
Probable space group: I B A M
;
_chemical_formula_sum "Si O2"
_cell_formula_units_Z 104
_cell_length_a 17.582463
_cell_length_b 20.914299
_cell_length_c 14.777617
_cell_angle_alpha 90.000000
_cell_angle_beta 90.000000
_cell_angle_gamma 90.000000
_cell_volume 5434.097561
_symmetry_space_group_name_H-M "I B A M"
_symmetry_group_IT_number 72
_symmetry_cell_setting 'orthorhombic'
loop_
_space_group_symop_operation_xyz
x,y,z
-x,-y,z
x,-y,1/2-z
-x,y,1/2-z
-x,-y,-z
x,y,-z
-x,y,1/2+z
x,-y,1/2+z
1/2+x,1/2+y,1/2+z
1/2-x,1/2-y,1/2+z
1/2+x,1/2-y,-z
1/2-x,1/2+y,-z
1/2-x,1/2-y,1/2-z
1/2+x,1/2+y,1/2-z
1/2-x,1/2+y,z
1/2+x,1/2-y,z
loop_
_atom_site_type_symbol
_atom_site_label
_atom_site_fract_x
_atom_site_fract_y
_atom_site_fract_z
Si Si1 0.362958 0.281112 0.397643
Si Si2 0.197579 0.500000 0.750000
Si Si3 0.144860 0.304487 0.598245
Si Si4 0.520373 0.175504 0.148126
Si Si5 0.075413 0.539698 0.603056
Si Si6 0.766087 0.127027 0.713167
Si Si7 0.724621 0.683800 0.901088
O O1 0.380449 0.303349 0.500000
O O2 0.435133 0.242908 0.358163
O O3 0.340224 0.344154 0.338298
O O4 0.293108 0.233428 0.392891
O O5 0.144845 0.524880 0.669042
O O6 0.253702 0.551555 0.797147
O O7 0.181246 0.323383 0.500000
O O8 0.188498 0.339894 0.678946
O O9 0.149771 0.227790 0.611348
O O10 0.057199 0.321823 0.592952
O O11 0.500000 0.159631 0.250000
O O12 0.566267 0.116349 0.106447
O O13 0.096573 0.520401 0.500000
O O14 0.000000 0.500000 0.633272
O O15 0.773253 0.133295 0.821397
O O16 0.725706 0.649458 0.000000
#
# Coordination Sequence:
#
# PCOD8293430 Si02
#       7
#    16   8  16  16  16  16  16
#     4  10  20  34  53  77 107 141 178 224 276 325
#     4  12  25  36  52  74 101 144 200 234 264 324
#     4  10  19  32  54  81 108 136 168 209 262 326
#     4  12  21  33  55  83 114 145 180 220 268 328
#     4  11  23  37  52  75 114 156 188 223 268 325
#     4  11  21  36  52  73 105 143 182 227 275 319
#     4   9  18  33  52  75 102 133 170 216 272 325
#
# _framework density 19.138413
#
# number of rings (size 3 to 8) (size 9 to 14) (size 15 to 20)
#    0.000    1.385    0.000   10.385    0.000    4.308 
#    0.000    0.000    0.000    0.000    0.000    4.846 
#    0.000    7.385    0.000    0.000    0.000    0.000 
#
# Total GULP energy -644501.446854 kJ/mol
# GULP energy per Si atom -12394.258593 kJ/mol
# Density = 1.909485 g / cm^3
# Si number density = 19.138413 Si / 1000 Ang^3
#
#
#
# Elastic Constant Matrix: (Units=GPa)
#
#
# Indices 1 2 3 4 5 6 
#
# 1 38.8433 44.3209 27.3564 0.0000 0.0000 0.0000
# 2 44.3209 86.8157 32.5823 0.0000 0.0000 0.0000
# 3 27.3564 32.5823 113.7536 0.0000 0.0000 0.0000
# 4 0.0000 0.0000 0.0000 -3.2378 0.0000 0.0000
# 5 0.0000 0.0000 0.0000 0.0000 17.2892 0.0000
# 6 0.0000 0.0000 0.0000 0.0000 0.0000 29.8019
#
#
#
# Elastic Compliance Matrix: (Units=1/GPa)
#
#
# Indices 1 2 3 4 5 6 
#
# 1 0.066294 -0.031217 -0.007002 0.000000 0.000000 0.000000
# 2 -0.031217 0.027605 -0.000400 0.000000 0.000000 0.000000
# 3 -0.007002 -0.000400 0.010589 0.000000 0.000000 0.000000
# 4 0.000000 0.000000 0.000000 -0.308853 0.000000 0.000000
# 5 0.000000 0.000000 0.000000 0.000000 0.057840 0.000000
# 6 0.000000 0.000000 0.000000 0.000000 0.000000 0.033555
#
#
# Mechanical properties :
#
#
# Convention : Reuss Voigt Hill
#
# Bulk Modulus (GPa) = 36.69342 49.77019 43.23180
# Shear Modulus (GPa) = -187.61982 17.78086 -84.91948
#
# Velocity S-wave (km/s) = -9.91191 3.05137 -6.66840
# Velocity P-wave (km/s) = 10.57262 6.20293 6.05409
#
# Compressibility (1/GPa) = 0.02725285
#
# Stress axis : x y z
#
# Youngs Moduli (GPa) = 15.08424 36.22495 94.43552
#
# Poissons Ratio (x) = 1.13082 0.66121
# Poissons Ratio (y) = 0.47088 0.03775
# Poissons Ratio (z) = 0.10561 0.01448
#
# Static dielectric constant tensor:
#      x y z
#    x 3.530320 0.000000 0.000000 
#    y 0.000000 3.469630 0.000000 
#    z 0.000000 0.000000 3.796820 
# 
# 
# High freq. dielectric constant tensor:
#      x y z
#    x 1.715330 0.000000 0.000000 
#    y 0.000000 1.711090 0.000000 
#    z 0.000000 0.000000 1.771310 
# 
# From -- ./inp_files/23395.got.cif
#   From: 2010.03.12/outbox.cif.g09.slc.cpg/sg72_12_cif.got.tgz:23395.got - 2010.04.16 14:54:00.
