data_PCOD8293281
_publ_section_title
;
Structure prediction by ZEFSAII (Michael W. Deem and Ramdas Pophale) SiO2 
 PCOD8293281
Probable space group: I B A M
;
_chemical_formula_sum "Si O2"
_cell_formula_units_Z 116
_cell_length_a 17.635411
_cell_length_b 13.627888
_cell_length_c 25.223378
_cell_angle_alpha 90.000000
_cell_angle_beta 90.000000
_cell_angle_gamma 90.000000
_cell_volume 6062.020344
_symmetry_space_group_name_H-M "I B A M"
_symmetry_group_IT_number 72
_symmetry_cell_setting 'orthorhombic'
loop_
_space_group_symop_operation_xyz
x,y,z
-x,-y,z
x,-y,1/2-z
-x,y,1/2-z
-x,-y,-z
x,y,-z
-x,y,1/2+z
x,-y,1/2+z
1/2+x,1/2+y,1/2+z
1/2-x,1/2-y,1/2+z
1/2+x,1/2-y,-z
1/2-x,1/2+y,-z
1/2-x,1/2-y,1/2-z
1/2+x,1/2+y,1/2-z
1/2-x,1/2+y,z
1/2+x,1/2-y,z
loop_
_atom_site_type_symbol
_atom_site_label
_atom_site_fract_x
_atom_site_fract_y
_atom_site_fract_z
Si Si1 0.000000 0.500000 0.250000
Si Si2 0.127967 0.231279 0.332138
Si Si3 0.955527 0.402561 0.056086
Si Si4 0.974312 0.242806 0.376932
Si Si5 0.797972 0.595248 0.395744
Si Si6 0.730573 0.883097 0.353245
Si Si7 0.329131 0.727577 0.937828
Si Si8 0.897810 0.327260 0.280514
O O1 0.053239 0.572472 0.283723
O O2 0.174034 0.323119 0.354883
O O3 0.183597 0.138964 0.335404
O O4 0.101599 0.268837 0.274619
O O5 0.055607 0.190777 0.366331
O O6 0.867907 0.428257 0.066206
O O7 0.000000 0.500000 0.047257
O O8 0.999140 0.349051 0.103004
O O9 0.958334 0.342736 0.000000
O O10 0.914868 0.196300 0.419111
O O11 0.932312 0.249803 0.321246
O O12 0.773138 0.498008 0.364965
O O13 0.726176 0.635321 0.428866
O O14 0.700069 0.821789 0.404190
O O15 0.685172 0.856921 0.299876
O O16 0.330518 0.755467 0.000000
#
# Coordination Sequence:
#
# PCOD8293281 Si02
#       8
#     4  16  16  16  16  16  16  16
#     4  12  20  28  56  88 122 150 186 236 296 356
#     4  10  20  38  54  81 114 150 192 234 290 350
#     4  10  19  30  50  78 109 141 181 237 298 357
#     4  10  20  33  52  76 110 146 189 234 284 341
#     4  10  21  36  54  81 111 147 192 243 294 352
#     4  10  22  36  58  81 115 154 192 238 294 358
#     4  10  21  37  57  80 111 150 193 244 299 354
#     4  11  20  32  54  84 118 152 183 233 289 351
#
# _framework density 19.135534
#
# number of rings (size 3 to 8) (size 9 to 14) (size 15 to 20)
#    0.000    1.793    1.379    3.724    2.897    2.207 
#    0.000    1.379    0.000    0.828    0.000    5.793 
#    0.000    0.000    0.000    0.000    0.000    0.000 
#
# Total GULP energy -718538.342216 kJ/mol
# GULP energy per Si atom -12388.592107 kJ/mol
# Density = 1.909198 g / cm^3
# Si number density = 19.135534 Si / 1000 Ang^3
#
#
#
# Elastic Constant Matrix: (Units=GPa)
#
#
# Indices 1 2 3 4 5 6 
#
# 1 154.3703 37.2292 36.8990 0.0000 0.0000 0.0000
# 2 37.2292 41.8006 4.9938 0.0000 0.0000 0.0000
# 3 36.8990 4.9938 89.1081 0.0000 0.0000 0.0000
# 4 0.0000 0.0000 0.0000 21.2310 0.0000 0.0000
# 5 0.0000 0.0000 0.0000 0.0000 27.4595 0.0000
# 6 0.0000 0.0000 0.0000 0.0000 0.0000 30.9322
#
#
#
# Elastic Compliance Matrix: (Units=1/GPa)
#
#
# Indices 1 2 3 4 5 6 
#
# 1 0.009148 -0.007747 -0.003354 0.000000 0.000000 0.000000
# 2 -0.007747 0.030645 0.001490 0.000000 0.000000 0.000000
# 3 -0.003354 0.001490 0.012528 0.000000 0.000000 0.000000
# 4 0.000000 0.000000 0.000000 0.047101 0.000000 0.000000
# 5 0.000000 0.000000 0.000000 0.000000 0.036417 0.000000
# 6 0.000000 0.000000 0.000000 0.000000 0.000000 0.032329
#
#
# Mechanical properties :
#
#
# Convention : Reuss Voigt Hill
#
# Bulk Modulus (GPa) = 30.21174 49.28034 39.74604
# Shear Modulus (GPa) = 25.19897 29.66833 27.43365
#
# Velocity S-wave (km/s) = 3.63280 3.94182 3.79046
# Velocity P-wave (km/s) = 5.78091 6.82104 6.32240
#
# Compressibility (1/GPa) = 0.03309972
#
# Stress axis : x y z
#
# Youngs Moduli (GPa) = 109.31472 32.63212 79.82354
#
# Poissons Ratio (x) = 0.25279 0.26772
# Poissons Ratio (y) = 0.84684 -0.11898
# Poissons Ratio (z) = 0.36663 -0.04864
#
# Static dielectric constant tensor:
#      x y z
#    x 3.911820 0.000000 0.000000 
#    y 0.000000 3.101100 0.000000 
#    z 0.000000 0.000000 3.745630 
# 
# 
# High freq. dielectric constant tensor:
#      x y z
#    x 1.767180 0.000000 0.000000 
#    y 0.000000 1.696210 0.000000 
#    z 0.000000 0.000000 1.752510 
# 
# From -- ./inp_files/48809.got.cif
#   From: 2010.03.12/outbox.cif.g09.slc.cpg/sg72_25_cif.got.tgz:48809.got - 2010.04.16 14:54:00.
