data_PCOD8293243
_publ_section_title
;
Structure prediction by ZEFSAII (Michael W. Deem and Ramdas Pophale) SiO2 
 PCOD8293243
Probable space group: I B A M
;
_chemical_formula_sum "Si O2"
_cell_formula_units_Z 76
_cell_length_a 20.171986
_cell_length_b 22.409991
_cell_length_c 10.120011
_cell_angle_alpha 90.000000
_cell_angle_beta 90.000000
_cell_angle_gamma 90.000000
_cell_volume 4574.791703
_symmetry_space_group_name_H-M "I B A M"
_symmetry_group_IT_number 72
_symmetry_cell_setting 'orthorhombic'
loop_
_space_group_symop_operation_xyz
x,y,z
-x,-y,z
x,-y,1/2-z
-x,y,1/2-z
-x,-y,-z
x,y,-z
-x,y,1/2+z
x,-y,1/2+z
1/2+x,1/2+y,1/2+z
1/2-x,1/2-y,1/2+z
1/2+x,1/2-y,-z
1/2-x,1/2+y,-z
1/2-x,1/2-y,1/2-z
1/2+x,1/2+y,1/2-z
1/2-x,1/2+y,z
1/2+x,1/2-y,z
loop_
_atom_site_type_symbol
_atom_site_label
_atom_site_fract_x
_atom_site_fract_y
_atom_site_fract_z
Si Si1 0.656985 0.389485 0.000000
Si Si2 0.922146 0.766367 0.000000
Si Si3 0.000000 0.000000 0.250000
Si Si4 0.355710 0.228869 0.249538
Si Si5 0.176454 0.882297 0.000000
Si Si6 0.576347 0.276088 0.500000
Si Si7 0.233132 0.844193 0.735048
Si Si8 0.585442 0.514423 0.000000
O O1 0.705904 0.390707 0.873645
O O2 0.604997 0.444474 0.000000
O O3 0.614068 0.329769 0.000000
O O4 0.903590 0.724611 0.875901
O O5 0.998436 0.784792 0.000000
O O6 0.046574 0.966650 0.138497
O O7 0.402521 0.238291 0.125690
O O8 0.311631 0.169757 0.221731
O O9 0.306512 0.283048 0.278569
O O10 0.223545 0.872713 0.123102
O O11 0.153380 0.950254 0.000000
O O12 0.111467 0.840492 0.000000
#
# Coordination Sequence:
#
# PCOD8293243 Si02
#       8
#     8   8   4  16   8   8  16   8
#     4  10  20  32  48  66  89 122 163 196 232 262
#     4  10  19  29  43  68  94 126 153 186 222 277
#     4  10  24  34  48  58  88 134 164 194 238 262
#     4   9  17  30  46  65  90 115 152 190 234 277
#     4  10  20  32  48  66  89 122 163 196 232 262
#     4  10  19  29  43  68  94 126 153 186 222 277
#     4   9  17  31  49  66  83 116 155 196 235 282
#     4  11  22  38  46  68  90 130 163 208 232 260
#
# _framework density 16.612777999999999
#
# number of rings (size 3 to 8) (size 9 to 14) (size 15 to 20)
#    0.000    2.316    0.000    3.158    2.947    5.053 
#    0.000    0.000    0.000    0.000    0.000    0.000 
#    0.000    0.000    0.000   66.316    0.000    0.000 
#
# Total GULP energy -470750.135684 kJ/mol
# GULP energy per Si atom -12388.161465 kJ/mol
# Density = 1.657497 g / cm^3
# Si number density = 16.612778 Si / 1000 Ang^3
#
#
#
# Elastic Constant Matrix: (Units=GPa)
#
#
# Indices 1 2 3 4 5 6 
#
# 1 61.3881 27.4563 37.2219 0.0000 0.0000 0.0000
# 2 27.4563 38.2306 21.1663 0.0000 0.0000 0.0000
# 3 37.2219 21.1663 149.3687 0.0000 0.0000 0.0000
# 4 0.0000 0.0000 0.0000 35.5902 0.0000 0.0000
# 5 0.0000 0.0000 0.0000 0.0000 940.7382 0.0000
# 6 0.0000 0.0000 0.0000 0.0000 0.0000 13.0874
#
#
#
# Elastic Compliance Matrix: (Units=1/GPa)
#
#
# Indices 1 2 3 4 5 6 
#
# 1 0.026214 -0.016505 -0.004194 0.000000 0.000000 0.000000
# 2 -0.016505 0.038775 -0.001382 0.000000 0.000000 0.000000
# 3 -0.004194 -0.001382 0.007936 0.000000 0.000000 0.000000
# 4 0.000000 0.000000 0.000000 0.028098 0.000000 0.000000
# 5 0.000000 0.000000 0.000000 0.000000 0.001063 0.000000
# 6 0.000000 0.000000 0.000000 0.000000 0.000000 0.076409
#
#
# Mechanical properties :
#
#
# Convention : Reuss Voigt Hill
#
# Bulk Modulus (GPa) = 34.76434 46.74182 40.75308
# Shear Modulus (GPa) = 21.52902 208.75937 115.14420
#
# Velocity S-wave (km/s) = 3.60381 11.22206 8.33433
# Velocity P-wave (km/s) = 6.18775 14.00393 10.82586
#
# Compressibility (1/GPa) = 0.02876511
#
# Stress axis : x y z
#
# Youngs Moduli (GPa) = 38.14685 25.78950 126.01300
#
# Poissons Ratio (x) = 0.42565 0.52846
# Poissons Ratio (y) = 0.62961 0.17412
# Poissons Ratio (z) = 0.15998 0.03563
#
# Static dielectric constant tensor:
#      x y z
#    x 3.098530 0.000000 0.000000 
#    y 0.000000 2.686320 0.000000 
#    z 0.000000 0.000000 3.465070 
# 
# 
# High freq. dielectric constant tensor:
#      x y z
#    x 1.629710 0.000000 0.000000 
#    y 0.000000 1.578720 0.000000 
#    z 0.000000 0.000000 1.667620 
# 
# From -- ./inp_files/4900.got.cif
#   From: 2010.03.12/outbox.cif.g09.slc.cpg/sg72_3_cif.got.tgz:4900.got - 2010.04.16 14:54:00.
