data_PCOD8293552
_publ_section_title
;
Structure prediction by ZEFSAII (Michael W. Deem and Ramdas Pophale) SiO2 
 PCOD8293552
Probable space group: I B A M
;
_chemical_formula_sum "Si O2"
_cell_formula_units_Z 64
_cell_length_a 20.057798
_cell_length_b 11.114225
_cell_length_c 13.110468
_cell_angle_alpha 90.000000
_cell_angle_beta 90.000000
_cell_angle_gamma 90.000000
_cell_volume 2922.675726
_symmetry_space_group_name_H-M "I B A M"
_symmetry_group_IT_number 72
_symmetry_cell_setting 'orthorhombic'
loop_
_space_group_symop_operation_xyz
x,y,z
-x,-y,z
x,-y,1/2-z
-x,y,1/2-z
-x,-y,-z
x,y,-z
-x,y,1/2+z
x,-y,1/2+z
1/2+x,1/2+y,1/2+z
1/2-x,1/2-y,1/2+z
1/2+x,1/2-y,-z
1/2-x,1/2+y,-z
1/2-x,1/2-y,1/2-z
1/2+x,1/2+y,1/2-z
1/2-x,1/2+y,z
1/2+x,1/2-y,z
loop_
_atom_site_type_symbol
_atom_site_label
_atom_site_fract_x
_atom_site_fract_y
_atom_site_fract_z
Si Si1 0.000000 0.288281 0.250000
Si Si2 0.114705 0.650357 0.882480
Si Si3 0.174470 0.089788 0.615760
Si Si4 0.285020 0.000000 0.250000
Si Si5 0.059263 0.089757 0.117784
O O1 0.955544 0.371352 0.175278
O O2 0.947920 0.209744 0.316139
O O3 0.130720 0.791116 0.872626
O O4 0.171884 0.572036 0.831319
O O5 0.107642 0.610910 0.000000
O O6 0.199740 0.077446 0.500000
O O7 0.239015 0.093541 0.687746
O O8 0.128983 0.974411 0.644619
O O9 0.055471 0.127241 0.000000
O O10 0.000000 0.000000 0.146232
#
# Coordination Sequence:
#
# PCOD8293552 Si02
#       5
#     8  16  16   8  16
#     4  12  21  37  64  94 122 169 202 249 306 368
#     4  11  25  43  64  91 122 156 205 260 305 366
#     4  10  21  38  63  94 125 157 201 256 307 360
#     4  12  24  43  61  86 122 176 206 242 300 372
#     4  10  19  33  59  97 132 157 194 255 312 356
#
# _framework density 21.897742000000001
#
# number of rings (size 3 to 8) (size 9 to 14) (size 15 to 20)
#    0.000    1.250    2.500    4.125    0.000    0.500 
#    0.000    8.750    0.000    0.000    0.000    0.000 
#    0.000    0.000    0.000    0.000    0.000    0.000 
#
# Total GULP energy -396935.317168 kJ/mol
# GULP energy per Si atom -12404.228661 kJ/mol
# Density = 2.184790 g / cm^3
# Si number density = 21.897742 Si / 1000 Ang^3
#
#
#
# Elastic Constant Matrix: (Units=GPa)
#
#
# Indices 1 2 3 4 5 6 
#
# 1 120.4115 22.1886 81.9707 0.0000 0.0000 0.0000
# 2 22.1886 14.5542 17.9419 0.0000 0.0000 0.0000
# 3 81.9707 17.9419 151.6279 0.0000 0.0000 0.0000
# 4 0.0000 0.0000 0.0000 24.5904 0.0000 0.0000
# 5 0.0000 0.0000 0.0000 0.0000 47.9112 0.0000
# 6 0.0000 0.0000 0.0000 0.0000 0.0000 30.9043
#
#
#
# Elastic Compliance Matrix: (Units=1/GPa)
#
#
# Indices 1 2 3 4 5 6 
#
# 1 0.015736 -0.015809 -0.006636 0.000000 0.000000 0.000000
# 2 -0.015809 0.096325 -0.002852 0.000000 0.000000 0.000000
# 3 -0.006636 -0.002852 0.010520 0.000000 0.000000 0.000000
# 4 0.000000 0.000000 0.000000 0.040666 0.000000 0.000000
# 5 0.000000 0.000000 0.000000 0.000000 0.020872 0.000000
# 6 0.000000 0.000000 0.000000 0.000000 0.000000 0.032358
#
#
# Mechanical properties :
#
#
# Convention : Reuss Voigt Hill
#
# Bulk Modulus (GPa) = 13.89128 58.97734 36.43431
# Shear Modulus (GPa) = 17.17823 31.64734 24.41279
#
# Velocity S-wave (km/s) = 2.80389 3.80575 3.34257
# Velocity P-wave (km/s) = 4.10364 6.80464 5.61885
#
# Compressibility (1/GPa) = 0.07198763
#
# Stress axis : x y z
#
# Youngs Moduli (GPa) = 63.55040 10.38148 95.05693
#
# Poissons Ratio (x) = 0.16412 0.63080
# Poissons Ratio (y) = 1.00466 0.27107
# Poissons Ratio (z) = 0.42172 0.02960
#
# Static dielectric constant tensor:
#      x y z
#    x 3.834190 0.000000 0.000000 
#    y 0.000000 3.267660 0.000000 
#    z 0.000000 0.000000 4.334430 
# 
# 
# High freq. dielectric constant tensor:
#      x y z
#    x 1.856880 0.000000 0.000000 
#    y 0.000000 1.822840 0.000000 
#    z 0.000000 0.000000 1.893980 
# 
# From -- ./inp_files/22829.got.cif
#   From: 2010.03.12/outbox.cif.g09.slc.cpg/sg72_12_cif.got.tgz:22829.got - 2010.04.16 14:54:00.
