data_PCOD8293676
_publ_section_title
;
Structure prediction by ZEFSAII (Michael W. Deem and Ramdas Pophale) SiO2 
 PCOD8293676
Probable space group: I B A M
;
_chemical_formula_sum "Si O2"
_cell_formula_units_Z 100
_cell_length_a 18.670253
_cell_length_b 20.211134
_cell_length_c 14.013528
_cell_angle_alpha 90.000000
_cell_angle_beta 90.000000
_cell_angle_gamma 90.000000
_cell_volume 5287.962543
_symmetry_space_group_name_H-M "I B A M"
_symmetry_group_IT_number 72
_symmetry_cell_setting 'orthorhombic'
loop_
_space_group_symop_operation_xyz
x,y,z
-x,-y,z
x,-y,1/2-z
-x,y,1/2-z
-x,-y,-z
x,y,-z
-x,y,1/2+z
x,-y,1/2+z
1/2+x,1/2+y,1/2+z
1/2-x,1/2-y,1/2+z
1/2+x,1/2-y,-z
1/2-x,1/2+y,-z
1/2-x,1/2-y,1/2-z
1/2+x,1/2+y,1/2-z
1/2-x,1/2+y,z
1/2+x,1/2-y,z
loop_
_atom_site_type_symbol
_atom_site_label
_atom_site_fract_x
_atom_site_fract_y
_atom_site_fract_z
Si Si1 0.915056 0.425864 0.245604
Si Si2 0.190648 0.806608 0.388302
Si Si3 0.500000 0.500000 0.750000
Si Si4 0.944445 0.108434 0.613897
Si Si5 0.348221 0.174394 0.887090
Si Si6 0.603460 0.817850 0.389001
Si Si7 0.528429 0.265949 0.612373
O O1 0.884211 0.500000 0.250000
O O2 0.887674 0.391551 0.148836
O O3 0.882467 0.386247 0.335135
O O4 0.000000 0.426832 0.250000
O O5 0.197355 0.816395 0.500000
O O6 0.130046 0.857814 0.353501
O O7 0.268587 0.820524 0.342304
O O8 0.169265 0.731080 0.366262
O O9 0.548783 0.456626 0.821375
O O10 0.945536 0.091779 0.500000
O O11 0.010412 0.158351 0.641594
O O12 0.393280 0.240210 0.854451
O O13 0.346809 0.169851 0.000000
O O14 0.596684 0.834174 0.500000
O O15 0.531839 0.783572 0.346083
O O16 0.519474 0.261603 0.500000
#
# Coordination Sequence:
#
# PCOD8293676 Si02
#       7
#    16  16   4  16  16  16  16
#     4  11  23  34  48  77 112 147 182 214 254 312
#     4   8  17  35  60  82 105 135 175 227 281 316
#     4  12  22  32  56  82 104 156 194 200 256 330
#     4   9  19  36  54  81 113 138 176 228 266 314
#     4  10  19  35  59  84 105 136 179 225 273 321
#     4   9  17  34  56  77 102 138 175 219 271 315
#     4   8  15  30  55  80 101 128 172 226 271 305
#
# _framework density 18.910875000000001
#
# number of rings (size 3 to 8) (size 9 to 14) (size 15 to 20)
#    0.000    2.720    1.600    2.160    0.000    3.840 
#    1.440    1.600    0.000    0.000    0.000    0.000 
#    0.000    0.000    0.000    0.000    0.000    0.000 
#
# Total GULP energy -619640.321877 kJ/mol
# GULP energy per Si atom -12392.806438 kJ/mol
# Density = 1.886783 g / cm^3
# Si number density = 18.910875 Si / 1000 Ang^3
#
#
#
# Elastic Constant Matrix: (Units=GPa)
#
#
# Indices 1 2 3 4 5 6 
#
# 1 125.5969 56.3134 26.0823 0.0000 0.0000 0.0000
# 2 56.3134 139.3673 43.2348 0.0000 0.0000 0.0000
# 3 26.0823 43.2348 54.1463 0.0000 0.0000 0.0000
# 4 0.0000 0.0000 0.0000 32.4039 0.0000 0.0000
# 5 0.0000 0.0000 0.0000 0.0000 16.4601 0.0000
# 6 0.0000 0.0000 0.0000 0.0000 0.0000 9.7758
#
#
#
# Elastic Compliance Matrix: (Units=1/GPa)
#
#
# Indices 1 2 3 4 5 6 
#
# 1 0.009899 -0.003350 -0.002093 0.000000 0.000000 0.000000
# 2 -0.003350 0.010672 -0.006907 0.000000 0.000000 0.000000
# 3 -0.002093 -0.006907 0.024992 0.000000 0.000000 0.000000
# 4 0.000000 0.000000 0.000000 0.030860 0.000000 0.000000
# 5 0.000000 0.000000 0.000000 0.000000 0.060753 0.000000
# 6 0.000000 0.000000 0.000000 0.000000 0.000000 0.102293
#
#
# Mechanical properties :
#
#
# Convention : Reuss Voigt Hill
#
# Bulk Modulus (GPa) = 47.93598 63.37460 55.65529
# Shear Modulus (GPa) = 18.44168 24.62663 21.53416
#
# Velocity S-wave (km/s) = 3.12619 3.61258 3.37815
# Velocity P-wave (km/s) = 6.19953 7.14045 6.68656
#
# Compressibility (1/GPa) = 0.02086116
#
# Stress axis : x y z
#
# Youngs Moduli (GPa) = 101.02167 93.70385 40.01261
#
# Poissons Ratio (x) = 0.31395 0.08375
# Poissons Ratio (y) = 0.33847 0.27638
# Poissons Ratio (z) = 0.21144 0.64725
#
# Static dielectric constant tensor:
#      x y z
#    x 3.913550 0.000000 0.000000 
#    y 0.000000 3.457660 0.000000 
#    z 0.000000 0.000000 3.347950 
# 
# 
# High freq. dielectric constant tensor:
#      x y z
#    x 1.722330 0.000000 0.000000 
#    y 0.000000 1.717230 0.000000 
#    z 0.000000 0.000000 1.736570 
# 
# From -- ./inp_files/23358.got.cif
#   From: 2010.03.12/outbox.cif.g09.slc.cpg/sg72_12_cif.got.tgz:23358.got - 2010.04.16 14:54:00.
