data_PCOD8293828
_publ_section_title
;
Structure prediction by ZEFSAII (Michael W. Deem and Ramdas Pophale) SiO2 
 PCOD8293828
Probable space group: I B A M
;
_chemical_formula_sum "Si O2"
_cell_formula_units_Z 88
_cell_length_a 5.260733
_cell_length_b 36.441506
_cell_length_c 24.646125
_cell_angle_alpha 90.000000
_cell_angle_beta 90.000000
_cell_angle_gamma 90.000000
_cell_volume 4724.884795
_symmetry_space_group_name_H-M "I B A M"
_symmetry_group_IT_number 72
_symmetry_cell_setting 'orthorhombic'
loop_
_space_group_symop_operation_xyz
x,y,z
-x,-y,z
x,-y,1/2-z
-x,y,1/2-z
-x,-y,-z
x,y,-z
-x,y,1/2+z
x,-y,1/2+z
1/2+x,1/2+y,1/2+z
1/2-x,1/2-y,1/2+z
1/2+x,1/2-y,-z
1/2-x,1/2+y,-z
1/2-x,1/2-y,1/2-z
1/2+x,1/2+y,1/2-z
1/2-x,1/2+y,z
1/2+x,1/2-y,z
loop_
_atom_site_type_symbol
_atom_site_label
_atom_site_fract_x
_atom_site_fract_y
_atom_site_fract_z
Si Si1 0.249645 0.458384 0.726763
Si Si2 0.803350 0.352703 0.936894
Si Si3 0.679000 0.229312 0.435236
Si Si4 0.791340 0.896261 0.563978
Si Si5 0.413060 0.458460 0.391705
Si Si6 0.745329 0.975846 0.000000
O O1 0.250074 0.500000 0.750000
O O2 0.500000 0.438362 0.750000
O O3 0.246517 0.453467 0.662086
O O4 0.000000 0.438273 0.750000
O O5 0.816874 0.312009 0.911410
O O6 0.032116 0.377999 0.913619
O O7 0.526640 0.368966 0.924925
O O8 0.859046 0.349084 0.000000
O O9 0.684698 0.228783 0.500000
O O10 0.926700 0.250652 0.413352
O O11 0.775500 0.907213 0.500000
O O12 0.842341 0.932091 0.601666
O O13 0.500000 0.500000 0.391160
O O14 0.239363 0.450687 0.445630
O O15 0.500000 0.000000 0.000000
O O16 0.000000 0.000000 0.000000
#
# Coordination Sequence:
#
# PCOD8293828 Si02
#       6
#    16  16  16  16  16   8
#     4  10  21  37  55  73  92 120 158 219 266 312
#     4   9  18  31  44  63  98 129 163 204 247 301
#     4   9  15  24  42  65  86 120 167 207 233 269
#     4  10  20  33  46  67  96 134 164 204 263 305
#     4  11  22  39  55  75  99 129 177 224 262 307
#     4  10  24  34  50  74  96 122 154 218 268 292
#
# _framework density 18.624793
#
# number of rings (size 3 to 8) (size 9 to 14) (size 15 to 20)
#    0.000    2.182    2.727    1.091    2.545    8.727 
#    0.000    0.000    0.000    0.000    0.000    0.000 
#    0.000    0.000    0.000    0.000    0.000   63.636 
#
# Total GULP energy -545271.928233 kJ/mol
# GULP energy per Si atom -12392.543823 kJ/mol
# Density = 1.858240 g / cm^3
# Si number density = 18.624793 Si / 1000 Ang^3
#
#
#
# Elastic Constant Matrix: (Units=GPa)
#
#
# Indices 1 2 3 4 5 6 
#
# 1 102.9930 1.5643 20.6495 0.0000 0.0000 0.0000
# 2 1.5643 74.5638 -1.0654 0.0000 0.0000 0.0000
# 3 20.6495 -1.0654 101.7627 0.0000 0.0000 0.0000
# 4 0.0000 0.0000 0.0000 0.3276 0.0000 0.0000
# 5 0.0000 0.0000 0.0000 0.0000 14.5969 0.0000
# 6 0.0000 0.0000 0.0000 0.0000 0.0000 20.9105
#
#
#
# Elastic Compliance Matrix: (Units=1/GPa)
#
#
# Indices 1 2 3 4 5 6 
#
# 1 0.010126 -0.000242 -0.002057 0.000000 0.000000 0.000000
# 2 -0.000242 0.013419 0.000190 0.000000 0.000000 0.000000
# 3 -0.002057 0.000190 0.010246 0.000000 0.000000 0.000000
# 4 0.000000 0.000000 0.000000 3.052197 0.000000 0.000000
# 5 0.000000 0.000000 0.000000 0.000000 0.068508 0.000000
# 6 0.000000 0.000000 0.000000 0.000000 0.000000 0.047823
#
#
# Mechanical properties :
#
#
# Convention : Reuss Voigt Hill
#
# Bulk Modulus (GPa) = 33.81585 35.73517 34.77551
# Shear Modulus (GPa) = 1.55454 24.37840 12.96647
#
# Velocity S-wave (km/s) = 0.91459 3.62183 2.64141
# Velocity P-wave (km/s) = 4.39444 6.05960 5.29291
#
# Compressibility (1/GPa) = 0.02957193
#
# Stress axis : x y z
#
# Youngs Moduli (GPa) = 98.76031 74.52057 97.59710
#
# Poissons Ratio (x) = 0.01802 0.20078
# Poissons Ratio (y) = 0.02388 -0.01850
# Poissons Ratio (z) = 0.20317 -0.01413
#
# Static dielectric constant tensor:
#      x y z
#    x 4.231990 0.000000 0.000000 
#    y 0.000000 3.409270 0.000000 
#    z 0.000000 0.000000 13.106210 
# 
# 
# High freq. dielectric constant tensor:
#      x y z
#    x 1.747240 0.000000 0.000000 
#    y 0.000000 1.699490 0.000000 
#    z 0.000000 0.000000 1.657220 
# 
# From -- ./inp_files/46779.got.cif
#   From: 2010.03.12/outbox.cif.g09.slc.cpg/sg72_24_cif.got.tgz:46779.got - 2010.04.16 14:54:00.
