data_PCOD8293740
_publ_section_title
;
Structure prediction by ZEFSAII (Michael W. Deem and Ramdas Pophale) SiO2 
 PCOD8293740
Probable space group: I B A M
;
_chemical_formula_sum "Si O2"
_cell_formula_units_Z 112
_cell_length_a 31.516490
_cell_length_b 11.881430
_cell_length_c 15.143812
_cell_angle_alpha 90.000000
_cell_angle_beta 90.000000
_cell_angle_gamma 90.000000
_cell_volume 5670.766528
_symmetry_space_group_name_H-M "I B A M"
_symmetry_group_IT_number 72
_symmetry_cell_setting 'orthorhombic'
loop_
_space_group_symop_operation_xyz
x,y,z
-x,-y,z
x,-y,1/2-z
-x,y,1/2-z
-x,-y,-z
x,y,-z
-x,y,1/2+z
x,-y,1/2+z
1/2+x,1/2+y,1/2+z
1/2-x,1/2-y,1/2+z
1/2+x,1/2-y,-z
1/2-x,1/2+y,-z
1/2-x,1/2-y,1/2-z
1/2+x,1/2+y,1/2-z
1/2-x,1/2+y,z
1/2+x,1/2-y,z
loop_
_atom_site_type_symbol
_atom_site_label
_atom_site_fract_x
_atom_site_fract_y
_atom_site_fract_z
Si Si1 0.330226 0.376302 0.146771
Si Si2 0.049560 0.631072 0.745874
Si Si3 0.828796 0.531842 0.600629
Si Si4 0.400039 0.216060 0.902663
Si Si5 0.236344 0.702734 0.156065
Si Si6 0.324831 0.629349 0.142822
Si Si7 0.883251 0.675569 0.899443
O O1 0.375482 0.332133 0.114252
O O2 0.292358 0.297390 0.106963
O O3 0.326728 0.501455 0.109078
O O4 0.327351 0.368565 0.251843
O O5 0.059923 0.500000 0.750000
O O6 0.063839 0.700465 0.831027
O O7 0.073934 0.675314 0.658703
O O8 0.000000 0.655175 0.750000
O O9 0.812240 0.521373 0.500000
O O10 0.868715 0.612370 0.607262
O O11 0.790641 0.584583 0.660106
O O12 0.846509 0.411079 0.635940
O O13 0.420807 0.218733 0.000000
O O14 0.250000 0.750000 0.250000
O O15 0.280443 0.679490 0.105657
O O16 0.363667 0.699680 0.103133
O O17 0.895773 0.643535 0.000000
#
# Coordination Sequence:
#
# PCOD8293740 Si02
#       7
#    16  16  16  16  16  16  16
#     4   9  19  36  53  86 117 158 208 255 296 355
#     4  11  23  39  64  95 124 153 189 245 313 379
#     4   9  19  35  55  80 115 158 201 242 293 355
#     4  10  19  37  62  85 113 155 198 239 296 363
#     4   9  19  33  53  83 117 158 206 255 298 345
#     4  10  20  34  57  83 121 162 212 254 299 351
#     4  11  23  39  60  89 125 166 202 249 311 372
#
# _framework density 19.750416000000001
#
# number of rings (size 3 to 8) (size 9 to 14) (size 15 to 20)
#    0.000    2.143    2.857    0.000    2.000    1.714 
#    2.571    1.429    0.000    1.714    0.000    2.000 
#    0.000    0.000    0.000    0.000    0.000    0.000 
#
# Total GULP energy -694039.939534 kJ/mol
# GULP energy per Si atom -12393.570349 kJ/mol
# Density = 1.970546 g / cm^3
# Si number density = 19.750416 Si / 1000 Ang^3
#
#
#
# Elastic Constant Matrix: (Units=GPa)
#
#
# Indices 1 2 3 4 5 6 
#
# 1 122.7222 58.4810 53.1196 0.0000 0.0000 0.0000
# 2 58.4810 121.8828 27.4878 0.0000 0.0000 0.0000
# 3 53.1196 27.4878 87.9430 0.0000 0.0000 0.0000
# 4 0.0000 0.0000 0.0000 18.8788 0.0000 0.0000
# 5 0.0000 0.0000 0.0000 0.0000 -15.2461 0.0000
# 6 0.0000 0.0000 0.0000 0.0000 0.0000 22.8460
#
#
#
# Elastic Compliance Matrix: (Units=1/GPa)
#
#
# Indices 1 2 3 4 5 6 
#
# 1 0.013306 -0.004918 -0.006500 0.000000 0.000000 0.000000
# 2 -0.004918 0.010645 -0.000356 0.000000 0.000000 0.000000
# 3 -0.006500 -0.000356 0.015408 0.000000 0.000000 0.000000
# 4 0.000000 0.000000 0.000000 0.052970 0.000000 0.000000
# 5 0.000000 0.000000 0.000000 0.000000 -0.065591 0.000000
# 6 0.000000 0.000000 0.000000 0.000000 0.000000 0.043771
#
#
# Mechanical properties :
#
#
# Convention : Reuss Voigt Hill
#
# Bulk Modulus (GPa) = 63.25082 67.85832 65.55457
# Shear Modulus (GPa) = 50.33859 18.19306 34.26582
#
# Velocity S-wave (km/s) = 5.05398 3.03833 4.16978
# Velocity P-wave (km/s) = 8.13336 6.83675 7.51308
#
# Compressibility (1/GPa) = 0.01581007
#
# Stress axis : x y z
#
# Youngs Moduli (GPa) = 75.15674 93.94197 64.90016
#
# Poissons Ratio (x) = 0.46204 0.42182
# Poissons Ratio (y) = 0.36965 0.02313
# Poissons Ratio (z) = 0.48848 0.03348
#
# Static dielectric constant tensor:
#      x y z
#    x 3.461270 0.000000 0.000000 
#    y 0.000000 3.775280 0.000000 
#    z 0.000000 0.000000 3.546160 
# 
# 
# High freq. dielectric constant tensor:
#      x y z
#    x 1.744540 0.000000 0.000000 
#    y 0.000000 1.768490 0.000000 
#    z 0.000000 0.000000 1.762340 
# 
# From -- ./inp_files/26365.got.cif
#   From: 2010.03.12/outbox.cif.g09.slc.cpg/sg72_14_cif.got.tgz:26365.got - 2010.04.16 14:54:00.
