data_PCOD8293969
_publ_section_title
;
Structure prediction by ZEFSAII (Michael W. Deem and Ramdas Pophale) SiO2 
 PCOD8293969
Probable space group: I B A M
;
_chemical_formula_sum "Si O2"
_cell_formula_units_Z 120
_cell_length_a 7.973878
_cell_length_b 28.168572
_cell_length_c 25.407747
_cell_angle_alpha 90.000000
_cell_angle_beta 90.000000
_cell_angle_gamma 90.000000
_cell_volume 5706.904092
_symmetry_space_group_name_H-M "I B A M"
_symmetry_group_IT_number 72
_symmetry_cell_setting 'orthorhombic'
loop_
_space_group_symop_operation_xyz
x,y,z
-x,-y,z
x,-y,1/2-z
-x,y,1/2-z
-x,-y,-z
x,y,-z
-x,y,1/2+z
x,-y,1/2+z
1/2+x,1/2+y,1/2+z
1/2-x,1/2-y,1/2+z
1/2+x,1/2-y,-z
1/2-x,1/2+y,-z
1/2-x,1/2-y,1/2-z
1/2+x,1/2+y,1/2-z
1/2-x,1/2+y,z
1/2+x,1/2-y,z
loop_
_atom_site_type_symbol
_atom_site_label
_atom_site_fract_x
_atom_site_fract_y
_atom_site_fract_z
Si Si1 0.039738 0.125673 0.630010
Si Si2 0.683026 0.009827 0.358207
Si Si3 0.630650 0.457996 0.441877
Si Si4 0.662895 0.559320 0.214543
Si Si5 0.000000 0.401866 0.750000
Si Si6 0.667713 0.880336 0.852995
Si Si7 0.972986 0.792031 0.440869
Si Si8 0.365132 0.810734 0.558635
O O1 0.857620 0.138366 0.655404
O O2 0.115365 0.172859 0.601735
O O3 0.033211 0.085576 0.584957
O O4 0.156688 0.105547 0.676519
O O5 0.707071 0.977547 0.410446
O O6 0.823144 0.990919 0.316512
O O7 0.500000 0.000000 0.334789
O O8 0.697421 0.065171 0.369057
O O9 0.500000 0.500000 0.444491
O O10 0.689960 0.442515 0.500000
O O11 0.500000 0.557060 0.250000
O O12 0.834110 0.565396 0.246990
O O13 0.955777 0.371557 0.802648
O O14 0.580912 0.852435 0.901378
O O15 0.895427 0.797886 0.500000
O O16 0.166580 0.805237 0.442194
O O17 0.949143 0.738149 0.421753
O O18 0.429954 0.823829 0.500000
#
# Coordination Sequence:
#
# PCOD8293969 Si02
#       8
#    16  16  16  16   8  16  16  16
#     4  10  20  38  61  88 124 163 209 263 314 385
#     4  11  23  40  57  86 125 167 212 263 317 383
#     4  10  20  34  56  86 122 165 205 245 307 382
#     4  11  24  41  62  90 125 167 217 265 318 374
#     4  12  24  43  62  90 128 168 214 266 317 380
#     4  11  22  39  60  89 124 165 212 262 327 385
#     4   9  18  36  64  94 123 158 206 261 320 383
#     4   9  20  38  64  93 123 161 208 267 328 389
#
# _framework density 21.027162000000001
#
# number of rings (size 3 to 8) (size 9 to 14) (size 15 to 20)
#    0.000    1.733    4.000    0.400    0.000    3.467 
#    2.400    0.000    1.467    2.400    0.000    0.000 
#    0.000    0.000    0.000    0.000    0.000    0.000 
#
# Total GULP energy -743597.237577 kJ/mol
# GULP energy per Si atom -12393.287293 kJ/mol
# Density = 2.097930 g / cm^3
# Si number density = 21.027162 Si / 1000 Ang^3
#
#
#
# Elastic Constant Matrix: (Units=GPa)
#
#
# Indices 1 2 3 4 5 6 
#
# 1 77.4965 25.8875 48.3462 0.0000 0.0000 0.0000
# 2 25.8875 130.5903 76.7421 0.0000 0.0000 0.0000
# 3 48.3462 76.7421 134.7407 0.0000 0.0000 0.0000
# 4 0.0000 0.0000 0.0000 16.3165 0.0000 0.0000
# 5 0.0000 0.0000 0.0000 0.0000 22.4586 0.0000
# 6 0.0000 0.0000 0.0000 0.0000 0.0000 26.1776
#
#
#
# Elastic Compliance Matrix: (Units=1/GPa)
#
#
# Indices 1 2 3 4 5 6 
#
# 1 0.016634 0.000316 -0.006148 0.000000 0.000000 0.000000
# 2 0.000316 0.011516 -0.006672 0.000000 0.000000 0.000000
# 3 -0.006148 -0.006672 0.013428 0.000000 0.000000 0.000000
# 4 0.000000 0.000000 0.000000 0.061288 0.000000 0.000000
# 5 0.000000 0.000000 0.000000 0.000000 0.044526 0.000000
# 6 0.000000 0.000000 0.000000 0.000000 0.000000 0.038201
#
#
# Mechanical properties :
#
#
# Convention : Reuss Voigt Hill
#
# Bulk Modulus (GPa) = 60.35664 71.64211 65.99937
# Shear Modulus (GPa) = 23.13481 25.78065 24.45773
#
# Velocity S-wave (km/s) = 3.32058 3.50532 3.41420
# Velocity P-wave (km/s) = 6.59303 7.10832 6.85552
#
# Compressibility (1/GPa) = 0.01656819
#
# Stress axis : x y z
#
# Youngs Moduli (GPa) = 60.11824 86.83635 74.47229
#
# Poissons Ratio (x) = -0.02740 0.45786
# Poissons Ratio (y) = -0.01897 0.49689
# Poissons Ratio (z) = 0.36961 0.57939
#
# Static dielectric constant tensor:
#      x y z
#    x 3.790770 0.000000 0.000000 
#    y 0.000000 3.871220 0.000000 
#    z 0.000000 0.000000 4.290630 
# 
# 
# High freq. dielectric constant tensor:
#      x y z
#    x 1.816550 0.000000 0.000000 
#    y 0.000000 1.804050 0.000000 
#    z 0.000000 0.000000 1.828020 
# 
# From -- ./inp_files/47679.got.cif
#   From: 2010.03.12/outbox.cif.g09.slc.cpg/sg72_24_cif.got.tgz:47679.got - 2010.04.16 14:54:00.
