data_PCOD8293370
_publ_section_title
;
Structure prediction by ZEFSAII (Michael W. Deem and Ramdas Pophale) SiO2 
 PCOD8293370
Probable space group: I B A M
;
_chemical_formula_sum "Si O2"
_cell_formula_units_Z 112
_cell_length_a 32.006422
_cell_length_b 10.872609
_cell_length_c 16.903823
_cell_angle_alpha 90.000000
_cell_angle_beta 90.000000
_cell_angle_gamma 90.000000
_cell_volume 5882.417349
_symmetry_space_group_name_H-M "I B A M"
_symmetry_group_IT_number 72
_symmetry_cell_setting 'orthorhombic'
loop_
_space_group_symop_operation_xyz
x,y,z
-x,-y,z
x,-y,1/2-z
-x,y,1/2-z
-x,-y,-z
x,y,-z
-x,y,1/2+z
x,-y,1/2+z
1/2+x,1/2+y,1/2+z
1/2-x,1/2-y,1/2+z
1/2+x,1/2-y,-z
1/2-x,1/2+y,-z
1/2-x,1/2-y,1/2-z
1/2+x,1/2+y,1/2-z
1/2-x,1/2+y,z
1/2+x,1/2-y,z
loop_
_atom_site_type_symbol
_atom_site_label
_atom_site_fract_x
_atom_site_fract_y
_atom_site_fract_z
Si Si1 0.634761 0.667127 0.909799
Si Si2 0.624079 0.948167 0.909576
Si Si3 0.958847 0.434951 0.593528
Si Si4 0.986795 0.827329 0.090675
Si Si5 0.059413 0.044692 0.661423
Si Si6 0.216407 0.522252 0.094736
Si Si7 0.728090 0.703682 0.906029
O O1 0.616526 0.803458 0.903122
O O2 0.607300 0.578588 0.854773
O O3 0.682053 0.663062 0.878132
O O4 0.632365 0.620292 0.000000
O O5 0.668917 0.985755 0.871627
O O6 0.584346 0.013983 0.867893
O O7 0.626107 0.991122 0.000000
O O8 0.957485 0.459762 0.500000
O O9 0.961456 0.292724 0.616338
O O10 0.000000 0.500000 0.629508
O O11 0.028229 0.840951 0.144877
O O12 0.954682 0.938974 0.100885
O O13 0.001689 0.817950 0.000000
O O14 0.053666 0.000000 0.750000
O O15 0.240464 0.401123 0.128135
O O16 0.236931 0.654445 0.122575
O O17 0.216195 0.522711 0.000000
O O18 0.730129 0.702590 0.000000
#
# Coordination Sequence:
#
# PCOD8293370 Si02
#       7
#    16  16  16  16  16  16  16
#     4   9  16  29  49  70  93 124 164 199 238 292
#     4   8  14  25  43  67  96 127 159 198 246 292
#     4   9  16  26  43  69  96 121 152 190 233 285
#     4  10  19  32  50  70  95 122 156 194 238 286
#     4  11  21  33  48  66  93 128 160 199 238 282
#     4   8  13  23  37  60  96 130 157 195 249 296
#     4   8  14  24  40  64  94 126 159 197 246 299
#
# _framework density 19.03979
#
# number of rings (size 3 to 8) (size 9 to 14) (size 15 to 20)
#    0.000    3.000    0.000    5.143    0.000    2.286 
#    2.571    0.000    0.000    6.000    0.000    4.000 
#    0.000    0.000    0.000    0.000    0.000    0.000 
#
# Total GULP energy -693893.091160 kJ/mol
# GULP energy per Si atom -12390.948056 kJ/mol
# Density = 1.899645 g / cm^3
# Si number density = 19.039790 Si / 1000 Ang^3
#
#
#
# Elastic Constant Matrix: (Units=GPa)
#
#
# Indices 1 2 3 4 5 6 
#
# 1 139.2482 78.9001 15.0103 0.0000 0.0000 0.0000
# 2 78.9001 104.5924 11.8994 0.0000 0.0000 0.0000
# 3 15.0103 11.8994 34.7777 0.0000 0.0000 0.0000
# 4 0.0000 0.0000 0.0000 2.9744 0.0000 0.0000
# 5 0.0000 0.0000 0.0000 0.0000 10.1500 0.0000
# 6 0.0000 0.0000 0.0000 0.0000 0.0000 43.8257
#
#
#
# Elastic Compliance Matrix: (Units=1/GPa)
#
#
# Indices 1 2 3 4 5 6 
#
# 1 0.012716 -0.009331 -0.002296 0.000000 0.000000 0.000000
# 2 -0.009331 0.016796 -0.001719 0.000000 0.000000 0.000000
# 3 -0.002296 -0.001719 0.030333 0.000000 0.000000 0.000000
# 4 0.000000 0.000000 0.000000 0.336206 0.000000 0.000000
# 5 0.000000 0.000000 0.000000 0.000000 0.098522 0.000000
# 6 0.000000 0.000000 0.000000 0.000000 0.000000 0.022818
#
#
# Mechanical properties :
#
#
# Convention : Reuss Voigt Hill
#
# Bulk Modulus (GPa) = 30.16361 54.47087 42.31724
# Shear Modulus (GPa) = 9.00683 22.91057 15.95870
#
# Velocity S-wave (km/s) = 2.17734 3.47262 2.89827
# Velocity P-wave (km/s) = 4.71146 6.68954 5.78566
#
# Compressibility (1/GPa) = 0.03315253
#
# Stress axis : x y z
#
# Youngs Moduli (GPa) = 78.64003 59.53897 32.96726
#
# Poissons Ratio (x) = 0.55558 0.07568
# Poissons Ratio (y) = 0.73382 0.05668
# Poissons Ratio (z) = 0.18053 0.10236
#
# Static dielectric constant tensor:
#      x y z
#    x 3.732690 0.000000 0.000000 
#    y 0.000000 3.658150 0.000000 
#    z 0.000000 0.000000 2.821330 
# 
# 
# High freq. dielectric constant tensor:
#      x y z
#    x 1.744160 0.000000 0.000000 
#    y 0.000000 1.742090 0.000000 
#    z 0.000000 0.000000 1.672080 
# 
# From -- ./inp_files/26394.got.cif
#   From: 2010.03.12/outbox.cif.g09.slc.cpg/sg72_14_cif.got.tgz:26394.got - 2010.04.16 14:54:00.
