data_PCOD8293346
_publ_section_title
;
Structure prediction by ZEFSAII (Michael W. Deem and Ramdas Pophale) SiO2 
 PCOD8293346
Probable space group: I B A M
;
_chemical_formula_sum "Si O2"
_cell_formula_units_Z 96
_cell_length_a 9.521871
_cell_length_b 37.925618
_cell_length_c 15.096893
_cell_angle_alpha 90.000000
_cell_angle_beta 90.000000
_cell_angle_gamma 90.000000
_cell_volume 5451.832908
_symmetry_space_group_name_H-M "I B A M"
_symmetry_group_IT_number 72
_symmetry_cell_setting 'orthorhombic'
loop_
_space_group_symop_operation_xyz
x,y,z
-x,-y,z
x,-y,1/2-z
-x,y,1/2-z
-x,-y,-z
x,y,-z
-x,y,1/2+z
x,-y,1/2+z
1/2+x,1/2+y,1/2+z
1/2-x,1/2-y,1/2+z
1/2+x,1/2-y,-z
1/2-x,1/2+y,-z
1/2-x,1/2-y,1/2-z
1/2+x,1/2+y,1/2-z
1/2-x,1/2+y,z
1/2+x,1/2-y,z
loop_
_atom_site_type_symbol
_atom_site_label
_atom_site_fract_x
_atom_site_fract_y
_atom_site_fract_z
Si Si1 0.163288 0.785425 0.500000
Si Si2 0.663278 0.714576 0.000000
Si Si3 0.838395 0.159971 0.851156
Si Si4 0.336932 0.908269 0.399228
Si Si5 0.163072 0.591731 0.600772
Si Si6 0.833658 0.460853 0.249999
Si Si7 0.338391 0.340030 0.351154
O O1 0.250008 0.750001 0.500000
O O2 0.204974 0.807376 0.587345
O O3 0.000006 0.775613 0.500000
O O4 0.704967 0.692625 0.087345
O O5 0.745965 0.126761 0.876465
O O6 0.811375 0.171295 0.750001
O O7 0.000002 0.149538 0.867793
O O8 0.310066 0.919924 0.500000
O O9 0.500002 0.900246 0.381115
O O10 0.282547 0.940030 0.337328
O O11 0.254038 0.873240 0.376457
O O12 0.189934 0.580074 0.500000
O O13 0.217459 0.559972 0.662679
O O14 0.766157 0.500000 0.250000
O O15 0.000000 0.464165 0.250000
#
# Coordination Sequence:
#
# PCOD8293346 Si02
#       7
#     8   8  16  16  16  16  16
#     4  10  22  38  54  78 109 138 171 213 262 313
#     4  10  22  38  54  78 109 138 171 213 262 313
#     4  10  20  35  56  79 104 138 176 213 259 312
#     4  10  19  31  52  80 105 135 178 219 258 308
#     4  10  19  31  52  80 105 135 178 219 258 308
#     4   9  18  32  49  75 112 143 170 215 268 311
#     4  10  20  35  56  79 104 138 176 213 259 312
#
# _framework density 17.608757000000001
#
# number of rings (size 3 to 8) (size 9 to 14) (size 15 to 20)
#    0.000    2.167    3.333    0.000    0.000    2.667 
#    0.000    3.333    0.000    2.000    0.000    2.333 
#    0.000    0.000    0.000    0.000    0.000    0.000 
#
# Total GULP energy -595254.672411 kJ/mol
# GULP energy per Si atom -12401.139009 kJ/mol
# Density = 1.756868 g / cm^3
# Si number density = 17.608757 Si / 1000 Ang^3
#
#
#
# Elastic Constant Matrix: (Units=GPa)
#
#
# Indices 1 2 3 4 5 6 
#
# 1 46.9669 62.0155 46.2165 -0.0007 -0.0002 -0.0002
# 2 62.0155 177.6957 95.0193 0.0011 -0.0003 -0.0001
# 3 46.2165 95.0193 173.1049 0.0019 -0.0006 -0.0004
# 4 -0.0007 0.0011 0.0019 34.3214 -0.0005 -0.0001
# 5 -0.0002 -0.0003 -0.0006 -0.0005 21.7053 0.0000
# 6 -0.0002 -0.0001 -0.0004 -0.0001 0.0000 22.0375
#
#
#
# Elastic Compliance Matrix: (Units=1/GPa)
#
#
# Indices 1 2 3 4 5 6 
#
# 1 0.041789 -0.012199 -0.004461 0.000001 0.000000 0.000000
# 2 -0.012199 0.011527 -0.003070 0.000000 0.000000 0.000000
# 3 -0.004461 -0.003070 0.008653 0.000000 0.000000 0.000000
# 4 0.000001 0.000000 0.000000 0.029136 0.000001 0.000000
# 5 0.000000 0.000000 0.000000 0.000001 0.046072 0.000000
# 6 0.000000 0.000000 0.000000 0.000000 0.000000 0.045377
#
#
# Mechanical properties :
#
#
# Convention : Reuss Voigt Hill
#
# Bulk Modulus (GPa) = 44.42749 89.36333 66.89541
# Shear Modulus (GPa) = 21.78495 28.58059 25.18277
#
# Velocity S-wave (km/s) = 3.52115 4.03313 3.78581
# Velocity P-wave (km/s) = 6.46656 8.51749 7.56188
#
# Compressibility (1/GPa) = 0.02250859
#
# Stress axis : x y z
#
# Youngs Moduli (GPa) = 23.93000 86.75505 115.56502
#
# Poissons Ratio (x) = 1.05830 0.51552
# Poissons Ratio (y) = 0.29192 0.35481
# Poissons Ratio (z) = 0.10675 0.26636
#
# Static dielectric constant tensor:
#      x y z
#    x 3.130660 0.000000 0.000000 
#    y 0.000000 3.286620 0.000000 
#    z 0.000000 0.000000 4.362250 
# 
# 
# High freq. dielectric constant tensor:
#      x y z
#    x 1.659580 0.000000 0.000000 
#    y 0.000000 1.673640 0.000000 
#    z 0.000000 0.000000 1.704210 
# 
# From -- ./inp_files/20645.got.cif
#   From: 2010.03.12/outbox.cif.g09.slc.cpg/sg72_11_cif.got.tgz:20645.got - 2010.04.16 14:54:00.
