data_PCOD8293644
_publ_section_title
;
Structure prediction by ZEFSAII (Michael W. Deem and Ramdas Pophale) SiO2 
 PCOD8293644
Probable space group: I B A M
;
_chemical_formula_sum "Si O2"
_cell_formula_units_Z 116
_cell_length_a 26.505235
_cell_length_b 27.587993
_cell_length_c 9.426116
_cell_angle_alpha 90.000000
_cell_angle_beta 90.000000
_cell_angle_gamma 90.000000
_cell_volume 6892.623338
_symmetry_space_group_name_H-M "I B A M"
_symmetry_group_IT_number 72
_symmetry_cell_setting 'orthorhombic'
loop_
_space_group_symop_operation_xyz
x,y,z
-x,-y,z
x,-y,1/2-z
-x,y,1/2-z
-x,-y,-z
x,y,-z
-x,y,1/2+z
x,-y,1/2+z
1/2+x,1/2+y,1/2+z
1/2-x,1/2-y,1/2+z
1/2+x,1/2-y,-z
1/2-x,1/2+y,-z
1/2-x,1/2-y,1/2-z
1/2+x,1/2+y,1/2-z
1/2-x,1/2+y,z
1/2+x,1/2-y,z
loop_
_atom_site_type_symbol
_atom_site_label
_atom_site_fract_x
_atom_site_fract_y
_atom_site_fract_z
Si Si1 0.684122 0.217313 0.159548
Si Si2 0.345225 0.692816 0.335615
Si Si3 0.046473 0.776739 0.832185
Si Si4 0.188159 0.452462 0.830287
Si Si5 0.427120 0.816785 0.161184
Si Si6 0.254533 0.634984 0.334084
Si Si7 0.578845 0.922595 0.339936
Si Si8 0.500000 0.000000 0.250000
O O1 0.682524 0.264560 0.254531
O O2 0.632870 0.186789 0.161576
O O3 0.726347 0.182302 0.226701
O O4 0.697152 0.233907 0.000000
O O5 0.340642 0.705853 0.500000
O O6 0.404316 0.690774 0.293786
O O7 0.314832 0.642450 0.301886
O O8 0.050268 0.722284 0.770091
O O9 0.000000 0.802416 0.750000
O O10 0.036729 0.774395 0.000000
O O11 0.206164 0.500000 0.750000
O O12 0.229750 0.413793 0.773622
O O13 0.131873 0.439471 0.771308
O O14 0.188791 0.460052 0.000000
O O15 0.440687 0.870863 0.222377
O O16 0.447865 0.807731 0.000000
O O17 0.243450 0.633655 0.500000
O O18 0.592498 0.909854 0.500000
O O19 0.536332 0.964567 0.338910
#
# Coordination Sequence:
#
# PCOD8293644 Si02
#       8
#    16  16  16  16  16  16  16   4
#     4   9  15  26  46  68  90 121 152 182 226 283
#     4   9  18  30  45  69  96 120 152 191 225 271
#     4  10  20  33  47  67  94 123 155 188 226 270
#     4  10  19  35  53  69  91 122 157 193 239 290
#     4   9  17  31  48  65  87 119 158 192 230 279
#     4   9  16  29  50  69  91 124 154 184 232 286
#     4  10  20  34  48  62  85 117 155 200 245 284
#     4  12  22  32  44  66  88 112 162 212 248 268
#
# _framework density 16.829587
#
# number of rings (size 3 to 8) (size 9 to 14) (size 15 to 20)
#    0.000    2.483    2.069    1.034    0.966    0.552 
#    0.000    2.759    0.000    0.000    0.000    0.000 
#    0.000    0.552    0.000    6.897    0.000    0.000 
#
# Total GULP energy -718534.045576 kJ/mol
# GULP energy per Si atom -12388.518027 kJ/mol
# Density = 1.679128 g / cm^3
# Si number density = 16.829587 Si / 1000 Ang^3
#
#
#
# Elastic Constant Matrix: (Units=GPa)
#
#
# Indices 1 2 3 4 5 6 
#
# 1 120.6047 60.2797 32.2772 0.0000 0.0000 0.0000
# 2 60.2797 73.1346 21.2826 0.0000 0.0000 0.0000
# 3 32.2772 21.2826 44.4998 0.0000 0.0000 0.0000
# 4 0.0000 0.0000 0.0000 17.2647 0.0000 0.0000
# 5 0.0000 0.0000 0.0000 0.0000 16.6798 0.0000
# 6 0.0000 0.0000 0.0000 0.0000 0.0000 25.1765
#
#
#
# Elastic Compliance Matrix: (Units=1/GPa)
#
#
# Indices 1 2 3 4 5 6 
#
# 1 0.015325 -0.010916 -0.005895 0.000000 0.000000 0.000000
# 2 -0.010916 0.023659 -0.003398 0.000000 0.000000 0.000000
# 3 -0.005895 -0.003398 0.028373 0.000000 0.000000 0.000000
# 4 0.000000 0.000000 0.000000 0.057922 0.000000 0.000000
# 5 0.000000 0.000000 0.000000 0.000000 0.059953 0.000000
# 6 0.000000 0.000000 0.000000 0.000000 0.000000 0.039720
#
#
# Mechanical properties :
#
#
# Convention : Reuss Voigt Hill
#
# Bulk Modulus (GPa) = 37.11969 51.76867 44.44418
# Shear Modulus (GPa) = 18.22493 20.11750 19.17121
#
# Velocity S-wave (km/s) = 3.29433 3.46116 3.37877
# Velocity P-wave (km/s) = 6.04766 6.84106 6.45656
#
# Compressibility (1/GPa) = 0.02693988
#
# Stress axis : x y z
#
# Youngs Moduli (GPa) = 65.25207 42.26645 35.24484
#
# Poissons Ratio (x) = 0.46138 0.20777
# Poissons Ratio (y) = 0.71229 0.11975
# Poissons Ratio (z) = 0.38467 0.14361
#
# Static dielectric constant tensor:
#      x y z
#    x 3.417070 0.000000 0.000000 
#    y 0.000000 3.029470 0.000000 
#    z 0.000000 0.000000 2.971950 
# 
# 
# High freq. dielectric constant tensor:
#      x y z
#    x 1.653980 0.000000 0.000000 
#    y 0.000000 1.616210 0.000000 
#    z 0.000000 0.000000 1.627470 
# 
# From -- ./inp_files/8683.got.cif
#   From: 2010.03.12/outbox.cif.g09.slc.cpg/sg72_5_cif.got.tgz:8683.got - 2010.04.16 14:54:00.
