data_PCOD8293222
_publ_section_title
;
Structure prediction by ZEFSAII (Michael W. Deem and Ramdas Pophale) SiO2 
 PCOD8293222
Probable space group: I B A M
;
_chemical_formula_sum "Si O2"
_cell_formula_units_Z 108
_cell_length_a 31.560431
_cell_length_b 5.159125
_cell_length_c 30.813186
_cell_angle_alpha 90.000000
_cell_angle_beta 90.000000
_cell_angle_gamma 90.000000
_cell_volume 5017.132624
_symmetry_space_group_name_H-M "I B A M"
_symmetry_group_IT_number 72
_symmetry_cell_setting 'orthorhombic'
loop_
_space_group_symop_operation_xyz
x,y,z
-x,-y,z
x,-y,1/2-z
-x,y,1/2-z
-x,-y,-z
x,y,-z
-x,y,1/2+z
x,-y,1/2+z
1/2+x,1/2+y,1/2+z
1/2-x,1/2-y,1/2+z
1/2+x,1/2-y,-z
1/2-x,1/2+y,-z
1/2-x,1/2-y,1/2-z
1/2+x,1/2+y,1/2-z
1/2-x,1/2+y,z
1/2+x,1/2-y,z
loop_
_atom_site_type_symbol
_atom_site_label
_atom_site_fract_x
_atom_site_fract_y
_atom_site_fract_z
Si Si1 0.086827 0.750278 0.549634
Si Si2 0.500000 0.500000 0.750000
Si Si3 0.775439 0.208005 0.898792
Si Si4 0.859484 0.254767 0.950764
Si Si5 0.223601 0.816086 0.202646
Si Si6 0.528070 0.751153 0.628002
Si Si7 0.147686 0.000000 0.250000
Si Si8 0.074830 0.293888 0.788571
O O1 0.069819 0.748292 0.500000
O O2 0.106497 0.472657 0.562541
O O3 0.048581 0.818000 0.581748
O O4 0.122084 0.969730 0.555639
O O5 0.470415 0.333717 0.719474
O O6 0.741126 0.425296 0.912479
O O7 0.818716 0.282574 0.921213
O O8 0.784572 0.213736 0.847869
O O9 0.844961 0.302418 0.000000
O O10 0.256971 0.595989 0.216712
O O11 0.177580 0.789756 0.225701
O O12 0.500000 0.500000 0.642769
O O13 0.566128 0.853366 0.660881
O O14 0.500000 0.000000 0.620825
O O15 0.116862 0.118534 0.213218
O O16 0.081412 0.500000 0.750000
#
# Coordination Sequence:
#
# PCOD8293222 Si02
#       8
#    16   4  16  16  16  16   8  16
#     4  10  23  42  66  97 130 169 213 268 326 383
#     4  10  18  44  60  78 130 164 194 268 318 382
#     4  10  21  37  59  91 124 166 210 259 315 376
#     4  10  21  39  63  92 131 169 208 264 324 378
#     4  10  23  42  63  87 128 167 209 265 320 371
#     4  12  26  45  69  97 129 171 217 263 332 392
#     4  11  26  39  64  94 118 168 220 259 318 385
#     4  11  25  40  64  94 127 168 219 266 326 386
#
# _framework density 21.526237999999999
#
# number of rings (size 3 to 8) (size 9 to 14) (size 15 to 20)
#    0.000    1.481    0.741    3.333    6.222    2.370 
#    0.000    0.000    0.000    0.000    0.000    0.000 
#    0.000    0.000    0.000    0.000    0.000    0.000 
#
# Total GULP energy -669269.836176 kJ/mol
# GULP energy per Si atom -12393.885855 kJ/mol
# Density = 2.147724 g / cm^3
# Si number density = 21.526238 Si / 1000 Ang^3
#
#
#
# Elastic Constant Matrix: (Units=GPa)
#
#
# Indices 1 2 3 4 5 6 
#
# 1 121.3558 21.1855 59.8698 0.0000 0.0000 0.0000
# 2 21.1855 86.1322 29.1458 0.0000 0.0000 0.0000
# 3 59.8698 29.1458 105.4829 0.0000 0.0000 0.0000
# 4 0.0000 0.0000 0.0000 29.1644 0.0000 0.0000
# 5 0.0000 0.0000 0.0000 0.0000 210.2740 0.0000
# 6 0.0000 0.0000 0.0000 0.0000 0.0000 25.3404
#
#
#
# Elastic Compliance Matrix: (Units=1/GPa)
#
#
# Indices 1 2 3 4 5 6 
#
# 1 0.011481 -0.000683 -0.006328 0.000000 0.000000 0.000000
# 2 -0.000683 0.012848 -0.003163 0.000000 0.000000 0.000000
# 3 -0.006328 -0.003163 0.013946 0.000000 0.000000 0.000000
# 4 0.000000 0.000000 0.000000 0.034288 0.000000 0.000000
# 5 0.000000 0.000000 0.000000 0.000000 0.004756 0.000000
# 6 0.000000 0.000000 0.000000 0.000000 0.000000 0.039463
#
#
# Mechanical properties :
#
#
# Convention : Reuss Voigt Hill
#
# Bulk Modulus (GPa) = 55.77647 59.26368 57.52007
# Shear Modulus (GPa) = 34.93960 66.47377 50.70668
#
# Velocity S-wave (km/s) = 4.03316 5.56304 4.85869
# Velocity P-wave (km/s) = 6.90331 8.29782 7.63248
#
# Compressibility (1/GPa) = 0.01792871
#
# Stress axis : x y z
#
# Youngs Moduli (GPa) = 87.09887 77.83230 71.70727
#
# Poissons Ratio (x) = 0.05314 0.45375
# Poissons Ratio (y) = 0.05946 0.22678
# Poissons Ratio (z) = 0.55115 0.24615
#
# Static dielectric constant tensor:
#      x y z
#    x 3.650170 0.000000 0.000000 
#    y 0.000000 4.142500 0.000000 
#    z 0.000000 0.000000 4.109790 
# 
# 
# High freq. dielectric constant tensor:
#      x y z
#    x 1.844190 0.000000 0.000000 
#    y 0.000000 1.848330 0.000000 
#    z 0.000000 0.000000 1.858960 
# 
# From -- ./inp_files/52601.got.cif
#   From: 2010.03.12/outbox.cif.g09.slc.cpg/sg72_27_cif.got.tgz:52601.got - 2010.04.16 14:54:00.
