data_PCOD8293559
_publ_section_title
;
Structure prediction by ZEFSAII (Michael W. Deem and Ramdas Pophale) SiO2 
 PCOD8293559
Probable space group: I B A M
;
_chemical_formula_sum "Si O2"
_cell_formula_units_Z 80
_cell_length_a 19.660759
_cell_length_b 25.833278
_cell_length_c 8.577521
_cell_angle_alpha 90.000000
_cell_angle_beta 90.000000
_cell_angle_gamma 90.000000
_cell_volume 4356.538810
_symmetry_space_group_name_H-M "I B A M"
_symmetry_group_IT_number 72
_symmetry_cell_setting 'orthorhombic'
loop_
_space_group_symop_operation_xyz
x,y,z
-x,-y,z
x,-y,1/2-z
-x,y,1/2-z
-x,-y,-z
x,y,-z
-x,y,1/2+z
x,-y,1/2+z
1/2+x,1/2+y,1/2+z
1/2-x,1/2-y,1/2+z
1/2+x,1/2-y,-z
1/2-x,1/2+y,-z
1/2-x,1/2-y,1/2-z
1/2+x,1/2+y,1/2-z
1/2-x,1/2+y,z
1/2+x,1/2-y,z
loop_
_atom_site_type_symbol
_atom_site_label
_atom_site_fract_x
_atom_site_fract_y
_atom_site_fract_z
Si Si1 0.426149 0.555200 0.685874
Si Si2 0.670452 0.140171 0.816260
Si Si3 0.825304 0.857815 0.317045
Si Si4 0.427681 0.944454 0.316614
Si Si5 0.175462 0.255072 0.683147
O O1 0.401426 0.500000 0.750000
O O2 0.500000 0.569641 0.750000
O O3 0.428597 0.553767 0.500000
O O4 0.373828 0.597927 0.753127
O O5 0.748187 0.136786 0.753407
O O6 0.629504 0.096210 0.728416
O O7 0.639245 0.196649 0.769630
O O8 0.663966 0.132245 0.000000
O O9 0.820312 0.865570 0.500000
O O10 0.858378 0.801120 0.280153
O O11 0.500000 0.925936 0.250000
O O12 0.434084 0.948983 0.500000
O O13 0.406188 0.000000 0.250000
O O14 0.176967 0.266309 0.500000
O O15 0.250000 0.250000 0.750000
#
# Coordination Sequence:
#
# PCOD8293559 Si02
#       5
#    16  16  16  16  16
#     4  10  19  34  51  71  97 131 167 206 252 301
#     4  10  19  34  54  79 106 135 170 213 257 306
#     4   8  17  32  52  74 102 134 170 213 256 299
#     4  11  22  38  57  78 104 138 173 211 256 308
#     4   9  16  30  50  74 102 136 171 211 260 310
#
# _framework density 18.363201
#
# number of rings (size 3 to 8) (size 9 to 14) (size 15 to 20)
#    0.000    2.400    0.000    6.000    0.000    0.800 
#    0.000   15.000    0.000    2.400    0.000    0.000 
#    0.000    0.000    0.000    0.000    0.000    0.000 
#
# Total GULP energy -495763.835221 kJ/mol
# GULP energy per Si atom -12394.095881 kJ/mol
# Density = 1.832141 g / cm^3
# Si number density = 18.363201 Si / 1000 Ang^3
#
#
#
# Elastic Constant Matrix: (Units=GPa)
#
#
# Indices 1 2 3 4 5 6 
#
# 1 77.6573 80.3226 27.5726 0.0000 0.0000 0.0000
# 2 80.3226 162.0617 43.2962 0.0000 0.0000 0.0000
# 3 27.5726 43.2962 95.2844 0.0000 0.0000 0.0000
# 4 0.0000 0.0000 0.0000 32.7115 0.0000 0.0000
# 5 0.0000 0.0000 0.0000 0.0000 22.3048 0.0000
# 6 0.0000 0.0000 0.0000 0.0000 0.0000 8.4327
#
#
#
# Elastic Compliance Matrix: (Units=1/GPa)
#
#
# Indices 1 2 3 4 5 6 
#
# 1 0.026738 -0.012730 -0.001953 0.000000 0.000000 0.000000
# 2 -0.012730 0.013084 -0.002262 0.000000 0.000000 0.000000
# 3 -0.001953 -0.002262 0.012088 0.000000 0.000000 0.000000
# 4 0.000000 0.000000 0.000000 0.030570 0.000000 0.000000
# 5 0.000000 0.000000 0.000000 0.000000 0.044833 0.000000
# 6 0.000000 0.000000 0.000000 0.000000 0.000000 0.118586
#
#
# Mechanical properties :
#
#
# Convention : Reuss Voigt Hill
#
# Bulk Modulus (GPa) = 55.49244 70.82071 63.15657
# Shear Modulus (GPa) = 17.49507 24.94393 21.21950
#
# Velocity S-wave (km/s) = 3.08997 3.68960 3.40302
# Velocity P-wave (km/s) = 6.55862 7.53666 7.06459
#
# Compressibility (1/GPa) = 0.01802047
#
# Stress axis : x y z
#
# Youngs Moduli (GPa) = 37.40060 76.42820 82.72985
#
# Poissons Ratio (x) = 0.97295 0.16154
# Poissons Ratio (y) = 0.47612 0.18710
# Poissons Ratio (z) = 0.07303 0.17284
#
# Static dielectric constant tensor:
#      x y z
#    x 3.308180 0.000000 0.000000 
#    y 0.000000 4.023380 0.000000 
#    z 0.000000 0.000000 3.403540 
# 
# 
# High freq. dielectric constant tensor:
#      x y z
#    x 1.680840 0.000000 0.000000 
#    y 0.000000 1.731890 0.000000 
#    z 0.000000 0.000000 1.713050 
# 
# From -- ./inp_files/4816.got.cif
#   From: 2010.03.12/outbox.cif.g09.slc.cpg/sg72_3_cif.got.tgz:4816.got - 2010.04.16 14:54:00.
