data_PCOD8293497
_publ_section_title
;
Structure prediction by ZEFSAII (Michael W. Deem and Ramdas Pophale) SiO2 
 PCOD8293497
Probable space group: I B A M
;
_chemical_formula_sum "Si O2"
_cell_formula_units_Z 96
_cell_length_a 9.031837
_cell_length_b 30.523566
_cell_length_c 14.031588
_cell_angle_alpha 90.000000
_cell_angle_beta 90.000000
_cell_angle_gamma 90.000000
_cell_volume 3868.282521
_symmetry_space_group_name_H-M "I B A M"
_symmetry_group_IT_number 72
_symmetry_cell_setting 'orthorhombic'
loop_
_space_group_symop_operation_xyz
x,y,z
-x,-y,z
x,-y,1/2-z
-x,y,1/2-z
-x,-y,-z
x,y,-z
-x,y,1/2+z
x,-y,1/2+z
1/2+x,1/2+y,1/2+z
1/2-x,1/2-y,1/2+z
1/2+x,1/2-y,-z
1/2-x,1/2+y,-z
1/2-x,1/2-y,1/2-z
1/2+x,1/2+y,1/2-z
1/2-x,1/2+y,z
1/2+x,1/2-y,z
loop_
_atom_site_type_symbol
_atom_site_label
_atom_site_fract_x
_atom_site_fract_y
_atom_site_fract_z
Si Si1 0.388506 0.626071 0.386645
Si Si2 0.950049 0.384627 0.613516
Si Si3 0.443526 0.710863 0.886359
Si Si4 0.060444 0.956337 0.392309
Si Si5 0.611749 0.030555 0.344198
Si Si6 0.110129 0.296263 0.613249
O O1 0.397897 0.627816 0.500000
O O2 0.220493 0.618846 0.353518
O O3 0.455373 0.671266 0.346212
O O4 0.489890 0.586652 0.343632
O O5 0.964605 0.392155 0.500000
O O6 0.025193 0.423906 0.672238
O O7 0.032496 0.340727 0.647190
O O8 0.277022 0.705972 0.846516
O O9 0.514546 0.755640 0.846781
O O10 0.441172 0.710652 0.000000
O O11 0.000744 0.956374 0.500000
O O12 0.237207 0.956625 0.394687
O O13 0.000000 0.000000 0.339835
O O14 0.500000 0.000000 0.408016
O O15 0.640453 0.000000 0.250000
O O16 0.112866 0.294052 0.500000
#
# Coordination Sequence:
#
# PCOD8293497 Si02
#       6
#    16  16  16  16  16  16
#     4   9  17  29  48  76 110 147 187 232 280 330
#     4  10  19  33  54  78 106 145 190 234 281 332
#     4   9  15  24  39  67 110 151 185 224 273 326
#     4  10  20  35  56  81 108 141 183 230 278 331
#     4  11  24  39  54  75 106 140 182 229 282 338
#     4   9  16  25  42  70 107 150 188 226 274 326
#
# _framework density 24.817215000000001
#
# number of rings (size 3 to 8) (size 9 to 14) (size 15 to 20)
#    0.000    2.333    0.000    3.500    0.000    9.667 
#    0.000    0.833    0.000    0.000    0.000    0.000 
#    0.000   65.333    0.000    0.000    0.000    1.833 
#
# Total GULP energy -594856.262616 kJ/mol
# GULP energy per Si atom -12392.838804 kJ/mol
# Density = 2.476073 g / cm^3
# Si number density = 24.817215 Si / 1000 Ang^3
#
#
#
# Elastic Constant Matrix: (Units=GPa)
#
#
# Indices 1 2 3 4 5 6 
#
# 1 229.0265 120.4166 6.5805 0.0001 0.0000 0.0000
# 2 120.4166 269.4416 2.5388 -0.0001 0.0001 0.0001
# 3 6.5805 2.5388 39.8188 -0.0006 0.0004 0.0002
# 4 0.0001 -0.0001 -0.0006 -21.6192 0.0002 0.0002
# 5 0.0000 0.0001 0.0004 0.0002 11.5699 0.0000
# 6 0.0000 0.0001 0.0002 0.0002 0.0000 62.0702
#
#
#
# Elastic Compliance Matrix: (Units=1/GPa)
#
#
# Indices 1 2 3 4 5 6 
#
# 1 0.005732 -0.002554 -0.000784 0.000000 0.000000 0.000000
# 2 -0.002554 0.004852 0.000113 0.000000 0.000000 0.000000
# 3 -0.000784 0.000113 0.025236 -0.000001 -0.000001 0.000000
# 4 0.000000 0.000000 -0.000001 -0.046255 0.000001 0.000000
# 5 0.000000 0.000000 -0.000001 0.000001 0.086431 0.000000
# 6 0.000000 0.000000 0.000000 0.000000 0.000000 0.016111
#
#
# Mechanical properties :
#
#
# Convention : Reuss Voigt Hill
#
# Bulk Modulus (GPa) = 34.05049 88.59540 61.32295
# Shear Modulus (GPa) = 46.14780 37.65425 41.90102
#
# Velocity S-wave (km/s) = 4.31688 3.89943 4.11345
# Velocity P-wave (km/s) = 6.21269 7.48671 6.87926
#
# Compressibility (1/GPa) = 0.02936815
#
# Stress axis : x y z
#
# Youngs Moduli (GPa) = 174.46564 206.10800 39.62561
#
# Poissons Ratio (x) = 0.52644 0.03108
# Poissons Ratio (y) = 0.44562 -0.00447
# Poissons Ratio (z) = 0.13685 -0.02324
#
# Static dielectric constant tensor:
#      x y z
#    x 4.581270 0.000000 0.000000 
#    y 0.000000 4.811400 0.000000 
#    z 0.000000 0.000000 3.768200 
# 
# 
# High freq. dielectric constant tensor:
#      x y z
#    x 1.995920 0.000000 0.000000 
#    y 0.000000 2.004520 0.000000 
#    z 0.000000 0.000000 1.960300 
# 
# From -- ./inp_files/36026.got.cif
#   From: 2010.03.12/outbox.cif.g09.slc.cpg/sg72_19_cif.got.tgz:36026.got - 2010.04.16 14:54:00.
