data_PCOD8293400
_publ_section_title
;
Structure prediction by ZEFSAII (Michael W. Deem and Ramdas Pophale) SiO2 
 PCOD8293400
Probable space group: I B A M
;
_chemical_formula_sum "Si O2"
_cell_formula_units_Z 112
_cell_length_a 20.137490
_cell_length_b 16.894723
_cell_length_c 17.584673
_cell_angle_alpha 90.000000
_cell_angle_beta 90.000000
_cell_angle_gamma 90.000000
_cell_volume 5982.610241
_symmetry_space_group_name_H-M "I B A M"
_symmetry_group_IT_number 72
_symmetry_cell_setting 'orthorhombic'
loop_
_space_group_symop_operation_xyz
x,y,z
-x,-y,z
x,-y,1/2-z
-x,y,1/2-z
-x,-y,-z
x,y,-z
-x,y,1/2+z
x,-y,1/2+z
1/2+x,1/2+y,1/2+z
1/2-x,1/2-y,1/2+z
1/2+x,1/2-y,-z
1/2-x,1/2+y,-z
1/2-x,1/2-y,1/2-z
1/2+x,1/2+y,1/2-z
1/2-x,1/2+y,z
1/2+x,1/2-y,z
loop_
_atom_site_type_symbol
_atom_site_label
_atom_site_fract_x
_atom_site_fract_y
_atom_site_fract_z
Si Si1 0.906630 0.322692 0.852049
Si Si2 0.201220 0.773478 0.415694
Si Si3 0.263872 0.556291 0.318291
Si Si4 0.136753 0.655515 0.687778
Si Si5 0.471888 0.085597 0.410834
Si Si6 0.714544 0.082978 0.410645
Si Si7 0.334772 0.325024 0.914952
O O1 0.906557 0.321367 0.760779
O O2 0.855567 0.389851 0.877960
O O3 0.889571 0.235996 0.884265
O O4 0.978559 0.345537 0.883605
O O5 0.169268 0.780797 0.500000
O O6 0.148190 0.737665 0.357403
O O7 0.225640 0.858591 0.384843
O O8 0.263949 0.716150 0.420209
O O9 0.289007 0.500000 0.250000
O O10 0.206873 0.615878 0.287146
O O11 0.230766 0.505030 0.384873
O O12 0.326678 0.602251 0.355357
O O13 0.097032 0.595070 0.634005
O O14 0.457640 0.093295 0.500000
O O15 0.500000 0.000000 0.389292
O O16 0.706689 0.085792 0.500000
O O17 0.355450 0.354087 0.000000
#
# Coordination Sequence:
#
# PCOD8293400 Si02
#       7
#    16  16  16  16  16  16  16
#     4  11  21  35  53  76 104 144 185 226 270 320
#     4   8  17  32  50  72 100 138 177 214 262 322
#     4  11  21  32  51  82 111 141 172 222 275 323
#     4  11  22  33  51  75 108 141 175 225 269 316
#     4  11  24  38  54  74 104 146 190 225 264 321
#     4  10  19  32  52  74 105 140 176 216 265 326
#     4   9  19  34  53  74 106 143 181 219 267 332
#
# _framework density 18.720925999999999
#
# number of rings (size 3 to 8) (size 9 to 14) (size 15 to 20)
#    0.000    1.857    1.429    4.286    2.000    5.143 
#    0.000    0.000    0.000    0.000    0.000    1.000 
#    0.000    4.571    0.000    0.000    0.000    0.000 
#
# Total GULP energy -694453.777803 kJ/mol
# GULP energy per Si atom -12400.960318 kJ/mol
# Density = 1.867832 g / cm^3
# Si number density = 18.720926 Si / 1000 Ang^3
#
#
#
# Elastic Constant Matrix: (Units=GPa)
#
#
# Indices 1 2 3 4 5 6 
#
# 1 35.7426 20.5536 23.4406 0.0000 0.0000 0.0000
# 2 20.5536 60.7529 22.9566 0.0000 0.0000 0.0000
# 3 23.4406 22.9566 96.8407 0.0000 0.0000 0.0000
# 4 0.0000 0.0000 0.0000 30.1951 0.0000 0.0000
# 5 0.0000 0.0000 0.0000 0.0000 25.9193 0.0000
# 6 0.0000 0.0000 0.0000 0.0000 0.0000 26.7780
#
#
#
# Elastic Compliance Matrix: (Units=1/GPa)
#
#
# Indices 1 2 3 4 5 6 
#
# 1 0.038458 -0.010427 -0.006837 0.000000 0.000000 0.000000
# 2 -0.010427 0.020907 -0.002432 0.000000 0.000000 0.000000
# 3 -0.006837 -0.002432 0.012558 0.000000 0.000000 0.000000
# 4 0.000000 0.000000 0.000000 0.033118 0.000000 0.000000
# 5 0.000000 0.000000 0.000000 0.000000 0.038581 0.000000
# 6 0.000000 0.000000 0.000000 0.000000 0.000000 0.037344
#
#
# Mechanical properties :
#
#
# Convention : Reuss Voigt Hill
#
# Bulk Modulus (GPa) = 30.74133 36.35976 33.55054
# Shear Modulus (GPa) = 21.62612 25.00417 23.31514
#
# Velocity S-wave (km/s) = 3.40249 3.65859 3.53286
# Velocity P-wave (km/s) = 5.64733 6.10829 5.88233
#
# Compressibility (1/GPa) = 0.03252950
#
# Stress axis : x y z
#
# Youngs Moduli (GPa) = 26.00246 47.83117 79.63246
#
# Poissons Ratio (x) = 0.49875 0.54445
# Poissons Ratio (y) = 0.27114 0.19367
# Poissons Ratio (z) = 0.17778 0.11633
#
# Static dielectric constant tensor:
#      x y z
#    x 3.115860 0.000000 0.000000 
#    y 0.000000 3.656940 0.000000 
#    z 0.000000 0.000000 3.633480 
# 
# 
# High freq. dielectric constant tensor:
#      x y z
#    x 1.677260 0.000000 0.000000 
#    y 0.000000 1.716870 0.000000 
#    z 0.000000 0.000000 1.748910 
# 
# From -- ./inp_files/32752.got.cif
#   From: 2010.03.12/outbox.cif.g09.slc.cpg/sg72_17_cif.got.tgz:32752.got - 2010.04.16 14:54:00.
