data_PCOD8293094
_publ_section_title
;
Structure prediction by ZEFSAII (Michael W. Deem and Ramdas Pophale) SiO2 
 PCOD8293094
Probable space group: I B A M
;
_chemical_formula_sum "Si O2"
_cell_formula_units_Z 104
_cell_length_a 22.822160
_cell_length_b 14.832891
_cell_length_c 15.091422
_cell_angle_alpha 90.000000
_cell_angle_beta 90.000000
_cell_angle_gamma 90.000000
_cell_volume 5108.727223
_symmetry_space_group_name_H-M "I B A M"
_symmetry_group_IT_number 72
_symmetry_cell_setting 'orthorhombic'
loop_
_space_group_symop_operation_xyz
x,y,z
-x,-y,z
x,-y,1/2-z
-x,y,1/2-z
-x,-y,-z
x,y,-z
-x,y,1/2+z
x,-y,1/2+z
1/2+x,1/2+y,1/2+z
1/2-x,1/2-y,1/2+z
1/2+x,1/2-y,-z
1/2-x,1/2+y,-z
1/2-x,1/2-y,1/2-z
1/2+x,1/2+y,1/2-z
1/2-x,1/2+y,z
1/2+x,1/2-y,z
loop_
_atom_site_type_symbol
_atom_site_label
_atom_site_fract_x
_atom_site_fract_y
_atom_site_fract_z
Si Si1 0.388901 0.388527 0.173210
Si Si2 0.192752 0.630496 0.394775
Si Si3 0.279276 0.062642 0.099496
Si Si4 0.145606 0.923081 0.636515
Si Si5 0.199479 0.754662 0.103436
Si Si6 0.500000 0.699610 0.250000
Si Si7 0.081441 0.255382 0.901050
O O1 0.388552 0.482288 0.118970
O O2 0.348551 0.401532 0.259573
O O3 0.361398 0.306625 0.117655
O O4 0.454872 0.365419 0.200063
O O5 0.200773 0.625558 0.500000
O O6 0.198745 0.529554 0.352934
O O7 0.245464 0.691189 0.354981
O O8 0.130562 0.673576 0.369230
O O9 0.209194 0.067920 0.094865
O O10 0.303902 0.153852 0.146794
O O11 0.303873 0.059125 0.000000
O O12 0.109118 0.843997 0.590075
O O13 0.211229 0.741379 0.000000
O O14 0.531028 0.760424 0.325877
O O15 0.057445 0.280156 0.000000
#
# Coordination Sequence:
#
# PCOD8293094 Si02
#       7
#    16  16  16  16  16   8  16
#     4  10  22  36  51  76 112 152 188 237 285 325
#     4   9  17  31  55  85 115 144 179 224 283 350
#     4  10  18  31  53  85 120 143 172 224 285 352
#     4  10  19  32  53  81 113 151 181 224 284 353
#     4  10  19  32  55  84 113 144 184 232 287 349
#     4  10  24  43  56  79 114 156 200 251 270 327
#     4  10  20  37  60  83 112 155 195 232 286 341
#
# _framework density 20.357320999999999
#
# number of rings (size 3 to 8) (size 9 to 14) (size 15 to 20)
#    0.000    2.154    3.077    0.462    0.000    6.769 
#    0.000    0.769    0.000    1.846    0.000    4.308 
#    0.000    0.000    0.000    0.000    0.000    0.000 
#
# Total GULP energy -644525.179269 kJ/mol
# GULP energy per Si atom -12394.714986 kJ/mol
# Density = 2.031099 g / cm^3
# Si number density = 20.357321 Si / 1000 Ang^3
#
#
#
# Elastic Constant Matrix: (Units=GPa)
#
#
# Indices 1 2 3 4 5 6 
#
# 1 103.9587 63.8977 27.0790 0.0000 0.0000 0.0000
# 2 63.8977 182.2328 24.5129 0.0000 0.0000 0.0000
# 3 27.0790 24.5129 38.0649 0.0000 0.0000 0.0000
# 4 0.0000 0.0000 0.0000 15.9571 0.0000 0.0000
# 5 0.0000 0.0000 0.0000 0.0000 34.9969 0.0000
# 6 0.0000 0.0000 0.0000 0.0000 0.0000 20.2888
#
#
#
# Elastic Compliance Matrix: (Units=1/GPa)
#
#
# Indices 1 2 3 4 5 6 
#
# 1 0.013942 -0.003891 -0.007412 0.000000 0.000000 0.000000
# 2 -0.003891 0.007094 -0.001800 0.000000 0.000000 0.000000
# 3 -0.007412 -0.001800 0.032703 0.000000 0.000000 0.000000
# 4 0.000000 0.000000 0.000000 0.062668 0.000000 0.000000
# 5 0.000000 0.000000 0.000000 0.000000 0.028574 0.000000
# 6 0.000000 0.000000 0.000000 0.000000 0.000000 0.049288
#
#
# Mechanical properties :
#
#
# Convention : Reuss Voigt Hill
#
# Bulk Modulus (GPa) = 36.32174 61.69284 49.00729
# Shear Modulus (GPa) = 21.77192 28.16633 24.96913
#
# Velocity S-wave (km/s) = 3.27385 3.72371 3.50600
# Velocity P-wave (km/s) = 5.67200 6.98991 6.36516
#
# Compressibility (1/GPa) = 0.02753172
#
# Stress axis : x y z
#
# Youngs Moduli (GPa) = 71.72695 140.96166 30.57824
#
# Poissons Ratio (x) = 0.54855 0.22665
# Poissons Ratio (y) = 0.27912 0.05504
# Poissons Ratio (z) = 0.53164 0.25374
#
# Static dielectric constant tensor:
#      x y z
#    x 3.343720 0.000000 0.000000 
#    y 0.000000 4.118760 0.000000 
#    z 0.000000 0.000000 3.539070 
# 
# 
# High freq. dielectric constant tensor:
#      x y z
#    x 1.759440 0.000000 0.000000 
#    y 0.000000 1.802400 0.000000 
#    z 0.000000 0.000000 1.780920 
# 
# From -- ./inp_files/32680.got.cif
#   From: 2010.03.12/outbox.cif.g09.slc.cpg/sg72_17_cif.got.tgz:32680.got - 2010.04.16 14:54:00.
