data_PCOD8293550
_publ_section_title
;
Structure prediction by ZEFSAII (Michael W. Deem and Ramdas Pophale) SiO2 
 PCOD8293550
Probable space group: I B A M
;
_chemical_formula_sum "Si O2"
_cell_formula_units_Z 88
_cell_length_a 19.248496
_cell_length_b 9.845419
_cell_length_c 20.978858
_cell_angle_alpha 90.000000
_cell_angle_beta 90.000000
_cell_angle_gamma 90.000000
_cell_volume 3975.693063
_symmetry_space_group_name_H-M "I B A M"
_symmetry_group_IT_number 72
_symmetry_cell_setting 'orthorhombic'
loop_
_space_group_symop_operation_xyz
x,y,z
-x,-y,z
x,-y,1/2-z
-x,y,1/2-z
-x,-y,-z
x,y,-z
-x,y,1/2+z
x,-y,1/2+z
1/2+x,1/2+y,1/2+z
1/2-x,1/2-y,1/2+z
1/2+x,1/2-y,-z
1/2-x,1/2+y,-z
1/2-x,1/2-y,1/2-z
1/2+x,1/2+y,1/2-z
1/2-x,1/2+y,z
1/2+x,1/2-y,z
loop_
_atom_site_type_symbol
_atom_site_label
_atom_site_fract_x
_atom_site_fract_y
_atom_site_fract_z
Si Si1 0.150308 0.556321 0.685052
Si Si2 0.342789 0.688525 0.888353
Si Si3 0.107510 0.915122 0.926520
Si Si4 0.489098 0.765062 0.070009
Si Si5 0.691523 0.144430 0.571894
Si Si6 0.000000 0.500000 0.658277
O O1 0.186744 0.500000 0.750000
O O2 0.167590 0.717383 0.675058
O O3 0.176743 0.474234 0.623074
O O4 0.067562 0.542581 0.698081
O O5 0.367711 0.532377 0.877152
O O6 0.405874 0.759553 0.926495
O O7 0.272385 0.685378 0.928003
O O8 0.149797 0.779331 0.910340
O O9 0.025761 0.880444 0.915682
O O10 0.120573 0.963386 0.000000
O O11 0.524249 0.874288 0.115541
O O12 0.511366 0.812039 0.000000
O O13 0.673456 0.093881 0.500000
#
# Coordination Sequence:
#
# PCOD8293550 Si02
#       6
#    16  16  16  16  16   8
#     4  11  25  44  66  93 128 175 225 269 322 390
#     4  11  23  37  61  92 127 168 211 265 330 394
#     4  10  20  36  58  92 134 165 204 269 334 389
#     4  10  19  33  59  94 128 164 210 267 329 392
#     4  11  23  41  65  96 132 169 213 271 334 397
#     4  10  20  38  64  88 123 170 225 266 317 380
#
# _framework density 22.134505000000001
#
# number of rings (size 3 to 8) (size 9 to 14) (size 15 to 20)
#    0.000    1.455    1.818    3.818    0.000    8.000 
#    0.000    0.909    0.000    0.000    0.000    0.000 
#    0.000    0.000    0.000    0.000    0.000    0.000 
#
# Total GULP energy -545115.998945 kJ/mol
# GULP energy per Si atom -12388.999976 kJ/mol
# Density = 2.208413 g / cm^3
# Si number density = 22.134505 Si / 1000 Ang^3
#
#
#
# Elastic Constant Matrix: (Units=GPa)
#
#
# Indices 1 2 3 4 5 6 
#
# 1 73.1577 11.4457 15.4478 0.0000 0.0000 0.0000
# 2 11.4457 132.8668 67.4793 0.0000 0.0000 0.0000
# 3 15.4478 67.4793 114.0142 0.0000 0.0000 0.0000
# 4 0.0000 0.0000 0.0000 36.6757 0.0000 0.0000
# 5 0.0000 0.0000 0.0000 0.0000 -3.2386 0.0000
# 6 0.0000 0.0000 0.0000 0.0000 0.0000 22.2516
#
#
#
# Elastic Compliance Matrix: (Units=1/GPa)
#
#
# Indices 1 2 3 4 5 6 
#
# 1 0.014083 -0.000349 -0.001702 0.000000 0.000000 0.000000
# 2 -0.000349 0.010770 -0.006327 0.000000 0.000000 0.000000
# 3 -0.001702 -0.006327 0.012746 0.000000 0.000000 0.000000
# 4 0.000000 0.000000 0.000000 0.027266 0.000000 0.000000
# 5 0.000000 0.000000 0.000000 0.000000 -0.308775 0.000000
# 6 0.000000 0.000000 0.000000 0.000000 0.000000 0.044941
#
#
# Mechanical properties :
#
#
# Convention : Reuss Voigt Hill
#
# Bulk Modulus (GPa) = 47.97563 56.53160 52.25361
# Shear Modulus (GPa) = -28.52784 26.18213 -1.17285
#
# Velocity S-wave (km/s) = -3.59394 3.44301 -0.72871
# Velocity P-wave (km/s) = 2.12127 6.43438 4.79067
#
# Compressibility (1/GPa) = 0.02084392
#
# Stress axis : x y z
#
# Youngs Moduli (GPa) = 71.00757 92.85459 78.45709
#
# Poissons Ratio (x) = 0.03241 0.13350
# Poissons Ratio (y) = 0.02478 0.49637
# Poissons Ratio (z) = 0.12082 0.58746
#
# Static dielectric constant tensor:
#      x y z
#    x 4.331750 0.000000 0.000000 
#    y 0.000000 4.151440 0.000000 
#    z 0.000000 0.000000 3.569170 
# 
# 
# High freq. dielectric constant tensor:
#      x y z
#    x 1.889350 0.000000 0.000000 
#    y 0.000000 1.878230 0.000000 
#    z 0.000000 0.000000 1.822240 
# 
# From -- ./inp_files/45247.got.cif
#   From: 2010.03.12/outbox.cif.g09.slc.cpg/sg72_23_cif.got.tgz:45247.got - 2010.04.16 14:54:00.
