data_PCOD8293042
_publ_section_title
;
Structure prediction by ZEFSAII (Michael W. Deem and Ramdas Pophale) SiO2 
 PCOD8293042
Probable space group: I B A M
;
_chemical_formula_sum "Si O2"
_cell_formula_units_Z 64
_cell_length_a 18.873132
_cell_length_b 23.358908
_cell_length_c 8.827844
_cell_angle_alpha 90.000000
_cell_angle_beta 90.000000
_cell_angle_gamma 90.000000
_cell_volume 3891.805823
_symmetry_space_group_name_H-M "I B A M"
_symmetry_group_IT_number 72
_symmetry_cell_setting 'orthorhombic'
loop_
_space_group_symop_operation_xyz
x,y,z
-x,-y,z
x,-y,1/2-z
-x,y,1/2-z
-x,-y,-z
x,y,-z
-x,y,1/2+z
x,-y,1/2+z
1/2+x,1/2+y,1/2+z
1/2-x,1/2-y,1/2+z
1/2+x,1/2-y,-z
1/2-x,1/2+y,-z
1/2-x,1/2-y,1/2-z
1/2+x,1/2+y,1/2-z
1/2-x,1/2+y,z
1/2+x,1/2-y,z
loop_
_atom_site_type_symbol
_atom_site_label
_atom_site_fract_x
_atom_site_fract_y
_atom_site_fract_z
Si Si1 0.424451 0.259192 0.320308
Si Si2 0.319682 0.838903 0.171029
Si Si3 0.665027 0.352636 0.328910
Si Si4 0.243500 0.439013 0.321536
O O1 0.500000 0.245317 0.250000
O O2 0.429070 0.261909 0.500000
O O3 0.371870 0.209169 0.263271
O O4 0.396386 0.319869 0.260367
O O5 0.238234 0.815452 0.171056
O O6 0.321506 0.896341 0.274886
O O7 0.342315 0.855445 0.000000
O O8 0.638890 0.364508 0.500000
O O9 0.682659 0.413225 0.246191
O O10 0.227480 0.500000 0.250000
O O11 0.249473 0.444494 0.500000
#
# Coordination Sequence:
#
# PCOD8293042 Si02
#       4
#    16  16  16  16
#     4  11  21  33  49  73 104 136 166 201 246 295
#     4   8  18  33  50  72 100 130 165 204 245 292
#     4   9  18  33  51  73 100 129 165 206 246 291
#     4  10  18  30  51  76 100 126 162 206 249 290
#
# _framework density 16.444807999999998
#
# number of rings (size 3 to 8) (size 9 to 14) (size 15 to 20)
#    1.500    1.000    0.000    3.750    0.000    2.000 
#    0.000    0.000    0.000    1.500    0.000   10.500 
#    0.000    0.000    0.000    0.000    0.000    0.000 
#
# Total GULP energy -396455.222431 kJ/mol
# GULP energy per Si atom -12389.225701 kJ/mol
# Density = 1.640738 g / cm^3
# Si number density = 16.444808 Si / 1000 Ang^3
#
#
#
# Elastic Constant Matrix: (Units=GPa)
#
#
# Indices 1 2 3 4 5 6 
#
# 1 50.8220 11.5486 20.5198 0.0000 0.0000 0.0000
# 2 11.5486 43.4481 26.8706 0.0000 0.0000 0.0000
# 3 20.5198 26.8706 111.7680 0.0000 0.0000 0.0000
# 4 0.0000 0.0000 0.0000 26.1170 0.0000 0.0000
# 5 0.0000 0.0000 0.0000 0.0000 25.4120 0.0000
# 6 0.0000 0.0000 0.0000 0.0000 0.0000 7.8276
#
#
#
# Elastic Compliance Matrix: (Units=1/GPa)
#
#
# Indices 1 2 3 4 5 6 
#
# 1 0.021800 -0.003899 -0.003065 0.000000 0.000000 0.000000
# 2 -0.003899 0.027733 -0.005952 0.000000 0.000000 0.000000
# 3 -0.003065 -0.005952 0.010941 0.000000 0.000000 0.000000
# 4 0.000000 0.000000 0.000000 0.038289 0.000000 0.000000
# 5 0.000000 0.000000 0.000000 0.000000 0.039351 0.000000
# 6 0.000000 0.000000 0.000000 0.000000 0.000000 0.127753
#
#
# Mechanical properties :
#
#
# Convention : Reuss Voigt Hill
#
# Bulk Modulus (GPa) = 28.86610 35.99067 32.42839
# Shear Modulus (GPa) = 16.48826 21.67792 19.08309
#
# Velocity S-wave (km/s) = 3.16989 3.63467 3.41021
# Velocity P-wave (km/s) = 5.56678 6.28870 5.93872
#
# Compressibility (1/GPa) = 0.03464271
#
# Stress axis : x y z
#
# Youngs Moduli (GPa) = 45.87157 36.05795 91.40214
#
# Poissons Ratio (x) = 0.14059 0.28014
# Poissons Ratio (y) = 0.17885 0.54399
# Poissons Ratio (z) = 0.14059 0.21460
#
# Static dielectric constant tensor:
#      x y z
#    x 2.829990 0.000000 0.000000 
#    y 0.000000 2.943260 0.000000 
#    z 0.000000 0.000000 3.111260 
# 
# 
# High freq. dielectric constant tensor:
#      x y z
#    x 1.596200 0.000000 0.000000 
#    y 0.000000 1.617620 0.000000 
#    z 0.000000 0.000000 1.648020 
# 
# From -- ./inp_files/3447.got.cif
#   From: 2010.03.12/outbox.cif.g09.slc.cpg/sg72_2_cif.got.tgz:3447.got - 2010.04.16 14:54:00.
