data_PCOD8293747
_publ_section_title
;
Structure prediction by ZEFSAII (Michael W. Deem and Ramdas Pophale) SiO2 
 PCOD8293747
Probable space group: I B A M
;
_chemical_formula_sum "Si O2"
_cell_formula_units_Z 116
_cell_length_a 16.358885
_cell_length_b 18.630827
_cell_length_c 18.958336
_cell_angle_alpha 90.000000
_cell_angle_beta 90.000000
_cell_angle_gamma 90.000000
_cell_volume 5778.113235
_symmetry_space_group_name_H-M "I B A M"
_symmetry_group_IT_number 72
_symmetry_cell_setting 'orthorhombic'
loop_
_space_group_symop_operation_xyz
x,y,z
-x,-y,z
x,-y,1/2-z
-x,y,1/2-z
-x,-y,-z
x,y,-z
-x,y,1/2+z
x,-y,1/2+z
1/2+x,1/2+y,1/2+z
1/2-x,1/2-y,1/2+z
1/2+x,1/2-y,-z
1/2-x,1/2+y,-z
1/2-x,1/2-y,1/2-z
1/2+x,1/2+y,1/2-z
1/2-x,1/2+y,z
1/2+x,1/2-y,z
loop_
_atom_site_type_symbol
_atom_site_label
_atom_site_fract_x
_atom_site_fract_y
_atom_site_fract_z
Si Si1 0.691070 0.950300 0.852061
Si Si2 0.485532 0.327373 0.582820
Si Si3 0.500000 0.500000 0.250000
Si Si4 0.469071 0.079621 0.920473
Si Si5 0.617629 0.589284 0.848926
Si Si6 0.297504 0.897336 0.802667
Si Si7 0.050846 0.694329 0.322436
Si Si8 0.854373 0.945913 0.920505
O O1 0.627769 0.917111 0.907314
O O2 0.675928 0.923527 0.773886
O O3 0.780404 0.920918 0.871424
O O4 0.683679 0.037129 0.856387
O O5 0.487534 0.306835 0.500000
O O6 0.576299 0.342610 0.612496
O O7 0.447222 0.263816 0.628337
O O8 0.434186 0.399629 0.597799
O O9 0.440653 0.446690 0.208581
O O10 0.510217 0.129281 0.863225
O O11 0.500000 0.000000 0.906847
O O12 0.487712 0.105772 0.000000
O O13 0.700614 0.618907 0.811967
O O14 0.630537 0.530168 0.909541
O O15 0.353377 0.826914 0.814255
O O16 0.000000 0.708082 0.250000
O O17 0.827320 0.932788 0.000000
#
# Coordination Sequence:
#
# PCOD8293747 Si02
#       8
#    16  16   4  16  16  16  16  16
#     4  10  19  37  63  96 125 156 209 265 325 373
#     4  11  25  45  64  91 133 173 216 264 325 393
#     4  12  20  36  70 108 134 156 212 272 316 388
#     4  11  22  38  63  91 124 168 218 268 318 381
#     4  11  22  39  68  99 128 165 211 267 326 385
#     4  10  22  38  63  96 130 161 205 271 322 382
#     4  12  25  43  64  90 126 179 220 267 322 380
#     4  10  20  39  66  94 124 161 206 261 324 389
#
# _framework density 20.075758
#
# number of rings (size 3 to 8) (size 9 to 14) (size 15 to 20)
#    0.000    1.241    4.138    2.897    0.966    1.379 
#    2.483    3.448    0.000    0.000    0.000    0.000 
#    0.000    0.000    0.000    0.000    0.000    0.000 
#
# Total GULP energy -719012.830517 kJ/mol
# GULP energy per Si atom -12396.772940 kJ/mol
# Density = 2.003006 g / cm^3
# Si number density = 20.075758 Si / 1000 Ang^3
#
#
#
# Elastic Constant Matrix: (Units=GPa)
#
#
# Indices 1 2 3 4 5 6 
#
# 1 127.4083 37.8337 36.9276 0.0000 0.0000 0.0000
# 2 37.8337 74.8043 37.1483 0.0000 0.0000 0.0000
# 3 36.9276 37.1483 96.4265 0.0000 0.0000 0.0000
# 4 0.0000 0.0000 0.0000 -17.3261 0.0000 0.0000
# 5 0.0000 0.0000 0.0000 0.0000 -40.6224 0.0000
# 6 0.0000 0.0000 0.0000 0.0000 0.0000 26.2228
#
#
#
# Elastic Compliance Matrix: (Units=1/GPa)
#
#
# Indices 1 2 3 4 5 6 
#
# 1 0.009610 -0.003750 -0.002236 0.000000 0.000000 0.000000
# 2 -0.003750 0.017994 -0.005496 0.000000 0.000000 0.000000
# 3 -0.002236 -0.005496 0.013344 0.000000 0.000000 0.000000
# 4 0.000000 0.000000 0.000000 -0.057716 0.000000 0.000000
# 5 0.000000 0.000000 0.000000 0.000000 -0.024617 0.000000
# 6 0.000000 0.000000 0.000000 0.000000 0.000000 0.038135
#
#
# Mechanical properties :
#
#
# Convention : Reuss Voigt Hill
#
# Bulk Modulus (GPa) = 55.60258 58.05094 56.82676
# Shear Modulus (GPa) = 194.47909 6.10348 100.29129
#
# Velocity S-wave (km/s) = 9.85307 1.74552 7.07565
# Velocity P-wave (km/s) = 12.53796 5.74814 9.75299
#
# Compressibility (1/GPa) = 0.01798478
#
# Stress axis : x y z
#
# Youngs Moduli (GPa) = 104.05364 55.57256 74.93955
#
# Poissons Ratio (x) = 0.20842 0.16753
# Poissons Ratio (y) = 0.39025 0.41187
# Poissons Ratio (z) = 0.23262 0.30543
#
# Static dielectric constant tensor:
#      x y z
#    x 3.969030 0.000000 0.000000 
#    y 0.000000 3.510840 0.000000 
#    z 0.000000 0.000000 3.686140 
# 
# 
# High freq. dielectric constant tensor:
#      x y z
#    x 1.793500 0.000000 0.000000 
#    y 0.000000 1.760220 0.000000 
#    z 0.000000 0.000000 1.792600 
# 
# From -- ./inp_files/31762.got.cif
#   From: 2010.03.12/outbox.cif.g09.slc.cpg/sg72_16_cif.got.tgz:31762.got - 2010.04.16 14:54:00.
