data_PCOD8293390
_publ_section_title
;
Structure prediction by ZEFSAII (Michael W. Deem and Ramdas Pophale) SiO2 
 PCOD8293390
Probable space group: I B A M
;
_chemical_formula_sum "Si O2"
_cell_formula_units_Z 104
_cell_length_a 21.362785
_cell_length_b 26.741999
_cell_length_c 9.444701
_cell_angle_alpha 90.000000
_cell_angle_beta 90.000000
_cell_angle_gamma 90.000000
_cell_volume 5395.602553
_symmetry_space_group_name_H-M "I B A M"
_symmetry_group_IT_number 72
_symmetry_cell_setting 'orthorhombic'
loop_
_space_group_symop_operation_xyz
x,y,z
-x,-y,z
x,-y,1/2-z
-x,y,1/2-z
-x,-y,-z
x,y,-z
-x,y,1/2+z
x,-y,1/2+z
1/2+x,1/2+y,1/2+z
1/2-x,1/2-y,1/2+z
1/2+x,1/2-y,-z
1/2-x,1/2+y,-z
1/2-x,1/2-y,1/2-z
1/2+x,1/2+y,1/2-z
1/2-x,1/2+y,z
1/2+x,1/2-y,z
loop_
_atom_site_type_symbol
_atom_site_label
_atom_site_fract_x
_atom_site_fract_y
_atom_site_fract_z
Si Si1 0.113022 0.191009 0.342025
Si Si2 0.412136 0.544916 0.158492
Si Si3 0.938165 0.612109 0.836186
Si Si4 0.000000 0.126913 0.750000
Si Si5 0.319163 0.949872 0.835973
Si Si6 0.189259 0.903209 0.162574
Si Si7 0.062844 0.726281 0.335102
O O1 0.121165 0.212889 0.500000
O O2 0.047375 0.160954 0.339248
O O3 0.170595 0.154177 0.303603
O O4 0.115068 0.236547 0.229580
O O5 0.442341 0.500000 0.250000
O O6 0.459684 0.591413 0.146924
O O7 0.347490 0.559634 0.234552
O O8 0.397254 0.526396 0.000000
O O9 0.882437 0.576752 0.782607
O O10 0.916542 0.669206 0.810820
O O11 0.000000 0.598109 0.750000
O O12 0.953728 0.603224 0.000000
O O13 0.262842 0.910838 0.810485
O O14 0.307238 0.000000 0.750000
O O15 0.324590 0.964287 0.000000
O O16 0.171019 0.915570 0.000000
O O17 0.052587 0.738489 0.500000
O O18 0.000000 0.737816 0.250000
#
# Coordination Sequence:
#
# PCOD8293390 Si02
#       7
#    16  16  16   8  16  16  16
#     4  10  19  32  51  76 106 140 181 226 272 317
#     4  11  22  34  49  70 100 139 183 231 279 323
#     4   9  20  38  59  85 115 144 175 217 269 327
#     4  10  21  32  48  70 100 136 179 226 274 318
#     4  10  21  39  61  83 110 144 181 221 270 328
#     4   9  20  37  55  76 105 142 183 225 269 321
#     4  10  19  32  53  79 109 145 182 221 270 324
#
# _framework density 19.274954999999999
#
# number of rings (size 3 to 8) (size 9 to 14) (size 15 to 20)
#    0.000    2.154    0.769    2.077    0.000    8.308 
#    0.000    2.308    0.000    0.000    0.000    0.000 
#    0.000    0.000    0.000    0.000    0.000    0.000 
#
# Total GULP energy -644768.100060 kJ/mol
# GULP energy per Si atom -12399.386540 kJ/mol
# Density = 1.923108 g / cm^3
# Si number density = 19.274955 Si / 1000 Ang^3
#
#
#
# Elastic Constant Matrix: (Units=GPa)
#
#
# Indices 1 2 3 4 5 6 
#
# 1 109.4796 42.2260 37.1271 0.0000 0.0000 0.0000
# 2 42.2260 70.7325 36.9126 0.0000 0.0000 0.0000
# 3 37.1271 36.9126 103.6917 0.0000 0.0000 0.0000
# 4 0.0000 0.0000 0.0000 26.3552 0.0000 0.0000
# 5 0.0000 0.0000 0.0000 0.0000 21.6025 0.0000
# 6 0.0000 0.0000 0.0000 0.0000 0.0000 27.6249
#
#
#
# Elastic Compliance Matrix: (Units=1/GPa)
#
#
# Indices 1 2 3 4 5 6 
#
# 1 0.012259 -0.006175 -0.002191 0.000000 0.000000 0.000000
# 2 -0.006175 0.020474 -0.005077 0.000000 0.000000 0.000000
# 3 -0.002191 -0.005077 0.012236 0.000000 0.000000 0.000000
# 4 0.000000 0.000000 0.000000 0.037943 0.000000 0.000000
# 5 0.000000 0.000000 0.000000 0.000000 0.046291 0.000000
# 6 0.000000 0.000000 0.000000 0.000000 0.000000 0.036199
#
#
# Mechanical properties :
#
#
# Convention : Reuss Voigt Hill
#
# Bulk Modulus (GPa) = 55.30432 57.38169 56.34300
# Shear Modulus (GPa) = 25.21230 26.29240 25.75235
#
# Velocity S-wave (km/s) = 3.62060 3.69734 3.65917
# Velocity P-wave (km/s) = 6.79948 6.93266 6.86639
#
# Compressibility (1/GPa) = 0.01808177
#
# Stress axis : x y z
#
# Youngs Moduli (GPa) = 81.57405 48.84303 81.72596
#
# Poissons Ratio (x) = 0.30160 0.17907
# Poissons Ratio (y) = 0.50370 0.41496
# Poissons Ratio (z) = 0.17874 0.24800
#
# Static dielectric constant tensor:
#      x y z
#    x 3.373020 0.000000 0.000000 
#    y 0.000000 3.580850 0.000000 
#    z 0.000000 0.000000 3.457660 
# 
# 
# High freq. dielectric constant tensor:
#      x y z
#    x 1.728610 0.000000 0.000000 
#    y 0.000000 1.748350 0.000000 
#    z 0.000000 0.000000 1.748960 
# 
# From -- ./inp_files/6138.got.cif
#   From: 2010.03.12/outbox.cif.g09.slc.cpg/sg72_4_cif.got.tgz:6138.got - 2010.04.16 14:54:00.
