data_PCOD8293683
_publ_section_title
;
Structure prediction by ZEFSAII (Michael W. Deem and Ramdas Pophale) SiO2 
 PCOD8293683
Probable space group: I B A M
;
_chemical_formula_sum "Si O2"
_cell_formula_units_Z 80
_cell_length_a 15.455580
_cell_length_b 28.651892
_cell_length_c 8.725746
_cell_angle_alpha 90.000000
_cell_angle_beta 90.000000
_cell_angle_gamma 90.000000
_cell_volume 3864.036141
_symmetry_space_group_name_H-M "I B A M"
_symmetry_group_IT_number 72
_symmetry_cell_setting 'orthorhombic'
loop_
_space_group_symop_operation_xyz
x,y,z
-x,-y,z
x,-y,1/2-z
-x,y,1/2-z
-x,-y,-z
x,y,-z
-x,y,1/2+z
x,-y,1/2+z
1/2+x,1/2+y,1/2+z
1/2-x,1/2-y,1/2+z
1/2+x,1/2-y,-z
1/2-x,1/2+y,-z
1/2-x,1/2-y,1/2-z
1/2+x,1/2+y,1/2-z
1/2-x,1/2+y,z
1/2+x,1/2-y,z
loop_
_atom_site_type_symbol
_atom_site_label
_atom_site_fract_x
_atom_site_fract_y
_atom_site_fract_z
Si Si1 0.911233 0.111113 0.319790
Si Si2 0.855364 0.797356 0.323837
Si Si3 0.240322 0.050442 0.318181
Si Si4 0.347511 0.797727 0.822684
Si Si5 0.089528 0.602553 0.318896
O O1 0.909240 0.102416 0.500000
O O2 0.905891 0.166059 0.281919
O O3 0.831930 0.085494 0.240351
O O4 0.000000 0.090661 0.250000
O O5 0.880460 0.806171 0.500000
O O6 0.754009 0.804323 0.295021
O O7 0.884102 0.745302 0.275912
O O8 0.235650 0.048559 0.500000
O O9 0.333536 0.069039 0.261087
O O10 0.222647 0.000000 0.250000
O O11 0.393881 0.844519 0.762681
O O12 0.366938 0.787802 0.000000
O O13 0.084554 0.601254 0.500000
O O14 0.000000 0.583635 0.250000
#
# Coordination Sequence:
#
# PCOD8293683 Si02
#       5
#    16  16  16  16  16
#     4  12  25  42  66  95 126 165 208 256 311 374
#     4  10  19  35  59  89 126 167 210 258 305 363
#     4  11  24  46  69  94 125 160 203 259 316 373
#     4   9  18  35  57  86 125 170 211 254 305 362
#     4  10  22  40  63  91 128 165 207 257 307 366
#
# _framework density 20.70374
#
# number of rings (size 3 to 8) (size 9 to 14) (size 15 to 20)
#    0.000    1.600    2.000    3.000    0.000    4.800 
#    0.000    6.000    0.000    0.000    0.000    0.000 
#    0.000    0.000    0.000    0.000    0.000    0.000 
#
# Total GULP energy -496193.532075 kJ/mol
# GULP energy per Si atom -12404.838302 kJ/mol
# Density = 2.065662 g / cm^3
# Si number density = 20.703740 Si / 1000 Ang^3
#
#
#
# Elastic Constant Matrix: (Units=GPa)
#
#
# Indices 1 2 3 4 5 6 
#
# 1 96.5249 24.0542 38.1353 -0.0016 0.0006 0.0002
# 2 24.0542 84.2114 28.3886 0.0008 0.0008 0.0004
# 3 38.1353 28.3886 78.4201 -0.0021 0.0018 0.0015
# 4 -0.0016 0.0008 -0.0021 27.4232 0.0012 0.0003
# 5 0.0006 0.0008 0.0018 0.0012 33.5284 -0.0009
# 6 0.0002 0.0004 0.0015 0.0003 -0.0009 5.9580
#
#
#
# Elastic Compliance Matrix: (Units=1/GPa)
#
#
# Indices 1 2 3 4 5 6 
#
# 1 0.013062 -0.001811 -0.005696 0.000000 0.000000 0.000001
# 2 -0.001811 0.013776 -0.004107 -0.000001 0.000000 0.000000
# 3 -0.005696 -0.004107 0.017009 0.000001 -0.000001 -0.000004
# 4 0.000000 -0.000001 0.000001 0.036466 -0.000001 -0.000002
# 5 0.000000 0.000000 -0.000001 -0.000001 0.029825 0.000004
# 6 0.000001 0.000000 -0.000004 -0.000002 0.000004 0.167841
#
#
# Mechanical properties :
#
#
# Convention : Reuss Voigt Hill
#
# Bulk Modulus (GPa) = 48.49800 48.92363 48.71082
# Shear Modulus (GPa) = 16.22958 24.62047 20.42502
#
# Velocity S-wave (km/s) = 2.80285 3.45219 3.14433
# Velocity P-wave (km/s) = 5.82668 6.29061 6.06309
#
# Compressibility (1/GPa) = 0.02061941
#
# Stress axis : x y z
#
# Youngs Moduli (GPa) = 76.55918 72.58751 58.79379
#
# Poissons Ratio (x) = 0.13143 0.33491
# Poissons Ratio (y) = 0.13862 0.24145
# Poissons Ratio (z) = 0.43611 0.29809
#
# Static dielectric constant tensor:
#      x y z
#    x 3.886200 0.000000 0.000000 
#    y 0.000000 3.805870 -0.000020 
#    z 0.000000 -0.000020 3.648410 
# 
# 
# High freq. dielectric constant tensor:
#      x y z
#    x 1.814390 0.000000 0.000000 
#    y 0.000000 1.809600 0.000000 
#    z 0.000000 0.000000 1.807700 
# 
# From -- ./inp_files/4812.got.cif
#   From: 2010.03.12/outbox.cif.g09.slc.cpg/sg72_3_cif.got.tgz:4812.got - 2010.04.16 14:54:00.
