data_PCOD8293069
_publ_section_title
;
Structure prediction by ZEFSAII (Michael W. Deem and Ramdas Pophale) SiO2 
 PCOD8293069
Probable space group: I B A M
;
_chemical_formula_sum "Si O2"
_cell_formula_units_Z 96
_cell_length_a 16.719204
_cell_length_b 18.236729
_cell_length_c 17.701124
_cell_angle_alpha 90.000000
_cell_angle_beta 90.000000
_cell_angle_gamma 90.000000
_cell_volume 5397.136298
_symmetry_space_group_name_H-M "I B A M"
_symmetry_group_IT_number 72
_symmetry_cell_setting 'orthorhombic'
loop_
_space_group_symop_operation_xyz
x,y,z
-x,-y,z
x,-y,1/2-z
-x,y,1/2-z
-x,-y,-z
x,y,-z
-x,y,1/2+z
x,-y,1/2+z
1/2+x,1/2+y,1/2+z
1/2-x,1/2-y,1/2+z
1/2+x,1/2-y,-z
1/2-x,1/2+y,-z
1/2-x,1/2-y,1/2-z
1/2+x,1/2+y,1/2-z
1/2-x,1/2+y,z
1/2+x,1/2-y,z
loop_
_atom_site_type_symbol
_atom_site_label
_atom_site_fract_x
_atom_site_fract_y
_atom_site_fract_z
Si Si1 0.993653 0.415908 0.161007
Si Si2 0.756330 0.950426 0.410727
Si Si3 0.168879 0.168199 0.910813
Si Si4 0.861339 0.329397 0.589979
Si Si5 0.913919 0.977402 0.909734
Si Si6 0.830628 0.594997 0.588778
O O1 0.909265 0.382430 0.134587
O O2 0.000000 0.500000 0.133469
O O3 0.000000 0.409244 0.250000
O O4 0.061423 0.367913 0.122756
O O5 0.760674 0.955814 0.500000
O O6 0.719157 0.873070 0.384056
O O7 0.846833 0.964131 0.380488
O O8 0.697455 0.014874 0.382923
O O9 0.144102 0.247016 0.876973
O O10 0.110739 0.103711 0.879969
O O11 0.261103 0.152589 0.890021
O O12 0.160025 0.170203 0.000000
O O13 0.867814 0.329990 0.500000
O O14 0.917311 0.977389 0.000000
O O15 0.000000 0.000000 0.875578
O O16 0.849907 0.595878 0.500000
#
# Coordination Sequence:
#
# PCOD8293069 Si02
#       6
#    16  16  16  16  16  16
#     4  11  22  33  48  73 101 129 169 207 240 291
#     4   8  14  24  43  65  90 125 157 185 229 290
#     4   8  16  29  46  71  98 124 158 201 241 289
#     4  10  18  31  49  72 101 127 160 202 246 290
#     4   8  13  24  41  64  96 126 152 190 242 289
#     4   9  16  31  51  70  95 130 163 191 240 294
#
# _framework density 17.787210999999999
#
# number of rings (size 3 to 8) (size 9 to 14) (size 15 to 20)
#    0.000    3.000    1.667    2.500    0.000    0.667 
#    3.000    0.833    0.000    0.000    0.000    0.000 
#    0.000    0.000    0.000    0.000    0.000    0.000 
#
# Total GULP energy -594856.682589 kJ/mol
# GULP energy per Si atom -12392.847554 kJ/mol
# Density = 1.774673 g / cm^3
# Si number density = 17.787211 Si / 1000 Ang^3
#
#
#
# Elastic Constant Matrix: (Units=GPa)
#
#
# Indices 1 2 3 4 5 6 
#
# 1 176.6893 87.1062 28.1699 0.0000 0.0000 0.0000
# 2 87.1062 142.8670 19.6568 0.0000 0.0000 0.0000
# 3 28.1699 19.6568 22.3175 0.0000 0.0000 0.0000
# 4 0.0000 0.0000 0.0000 11.1080 0.0000 0.0000
# 5 0.0000 0.0000 0.0000 0.0000 1.0642 0.0000
# 6 0.0000 0.0000 0.0000 0.0000 0.0000 21.2299
#
#
#
# Elastic Compliance Matrix: (Units=1/GPa)
#
#
# Indices 1 2 3 4 5 6 
#
# 1 0.009072 -0.004501 -0.007487 0.000000 0.000000 0.000000
# 2 -0.004501 0.010198 -0.003301 0.000000 0.000000 0.000000
# 3 -0.007487 -0.003301 0.057165 0.000000 0.000000 0.000000
# 4 0.000000 0.000000 0.000000 0.090025 0.000000 0.000000
# 5 0.000000 0.000000 0.000000 0.000000 0.939690 0.000000
# 6 0.000000 0.000000 0.000000 0.000000 0.000000 0.047103
#
#
# Mechanical properties :
#
#
# Convention : Reuss Voigt Hill
#
# Bulk Modulus (GPa) = 21.80637 67.97108 44.88873
# Shear Modulus (GPa) = 4.16973 20.47648 12.32311
#
# Velocity S-wave (km/s) = 1.53275 3.39660 2.63498
# Velocity P-wave (km/s) = 3.92666 7.32659 5.87782
#
# Compressibility (1/GPa) = 0.04585816
#
# Stress axis : x y z
#
# Youngs Moduli (GPa) = 110.22413 98.05730 17.49322
#
# Poissons Ratio (x) = 0.44139 0.13097
# Poissons Ratio (y) = 0.49616 0.05774
# Poissons Ratio (z) = 0.82523 0.32364
#
# Static dielectric constant tensor:
#      x y z
#    x 3.559070 0.000000 0.000000 
#    y 0.000000 3.707100 0.000000 
#    z 0.000000 0.000000 2.739670 
# 
# 
# High freq. dielectric constant tensor:
#      x y z
#    x 1.699030 0.000000 0.000000 
#    y 0.000000 1.681390 0.000000 
#    z 0.000000 0.000000 1.628450 
# 
# From -- ./inp_files/31630.got.cif
#   From: 2010.03.12/outbox.cif.g09.slc.cpg/sg72_16_cif.got.tgz:31630.got - 2010.04.16 14:54:00.
