data_PCOD8293335
_publ_section_title
;
Structure prediction by ZEFSAII (Michael W. Deem and Ramdas Pophale) SiO2 
 PCOD8293335
Probable space group: I B A M
;
_chemical_formula_sum "Si O2"
_cell_formula_units_Z 112
_cell_length_a 19.586177
_cell_length_b 19.170381
_cell_length_c 17.388508
_cell_angle_alpha 90.000000
_cell_angle_beta 90.000000
_cell_angle_gamma 90.000000
_cell_volume 6528.940920
_symmetry_space_group_name_H-M "I B A M"
_symmetry_group_IT_number 72
_symmetry_cell_setting 'orthorhombic'
loop_
_space_group_symop_operation_xyz
x,y,z
-x,-y,z
x,-y,1/2-z
-x,y,1/2-z
-x,-y,-z
x,y,-z
-x,y,1/2+z
x,-y,1/2+z
1/2+x,1/2+y,1/2+z
1/2-x,1/2-y,1/2+z
1/2+x,1/2-y,-z
1/2-x,1/2+y,-z
1/2-x,1/2-y,1/2-z
1/2+x,1/2+y,1/2-z
1/2-x,1/2+y,z
1/2+x,1/2-y,z
loop_
_atom_site_type_symbol
_atom_site_label
_atom_site_fract_x
_atom_site_fract_y
_atom_site_fract_z
Si Si1 0.441650 0.055528 0.410234
Si Si2 0.871325 0.257339 0.908618
Si Si3 0.736586 0.646742 0.089788
Si Si4 0.266343 0.129742 0.908757
Si Si5 0.201508 0.516041 0.660943
Si Si6 0.342759 0.733376 0.090065
Si Si7 0.519198 0.209554 0.091682
O O1 0.421944 0.056642 0.500000
O O2 0.374650 0.035202 0.363631
O O3 0.469774 0.129935 0.381918
O O4 0.500000 0.000000 0.392201
O O5 0.833374 0.185673 0.884417
O O6 0.830099 0.324694 0.877234
O O7 0.948015 0.260606 0.874464
O O8 0.872898 0.261386 0.000000
O O9 0.745842 0.577868 0.140813
O O10 0.800251 0.696843 0.107109
O O11 0.734393 0.626262 0.000000
O O12 0.196461 0.165599 0.876220
O O13 0.271267 0.051048 0.883277
O O14 0.266094 0.133686 0.000000
O O15 0.203335 0.500000 0.750000
O O16 0.418786 0.743031 0.125156
O O17 0.350170 0.723355 0.000000
O O18 0.517671 0.212045 0.000000
#
# Coordination Sequence:
#
# PCOD8293335 Si02
#       7
#    16  16  16  16  16  16  16
#     4  10  19  31  51  74 100 133 162 191 241 308
#     4   8  15  27  49  77  98 118 157 211 254 291
#     4   9  16  31  51  70  95 130 168 203 244 295
#     4   9  17  31  49  70  95 125 163 202 242 292
#     4  12  23  32  45  71 102 139 166 201 240 282
#     4   8  14  26  48  72  94 121 157 205 251 292
#     4   9  14  24  46  76  99 116 150 203 254 295
#
# _framework density 17.154389999999999
#
# number of rings (size 3 to 8) (size 9 to 14) (size 15 to 20)
#    0.000    2.714    1.429    3.857    0.000    2.571 
#    0.000    2.857    0.000    0.857    0.000    6.000 
#    0.000    0.000    0.000    0.000    0.000    0.000 
#
# Total GULP energy -694037.074001 kJ/mol
# GULP energy per Si atom -12393.519179 kJ/mol
# Density = 1.711535 g / cm^3
# Si number density = 17.154390 Si / 1000 Ang^3
#
#
#
# Elastic Constant Matrix: (Units=GPa)
#
#
# Indices 1 2 3 4 5 6 
#
# 1 150.9601 74.0347 16.7370 0.0000 0.0000 0.0000
# 2 74.0347 94.1562 14.6462 0.0000 0.0000 0.0000
# 3 16.7370 14.6462 23.3225 0.0000 0.0000 0.0000
# 4 0.0000 0.0000 0.0000 3.8738 0.0000 0.0000
# 5 0.0000 0.0000 0.0000 0.0000 9.4620 0.0000
# 6 0.0000 0.0000 0.0000 0.0000 0.0000 29.5895
#
#
#
# Elastic Compliance Matrix: (Units=1/GPa)
#
#
# Indices 1 2 3 4 5 6 
#
# 1 0.010935 -0.008176 -0.002713 0.000000 0.000000 0.000000
# 2 -0.008176 0.017884 -0.005363 0.000000 0.000000 0.000000
# 3 -0.002713 -0.005363 0.048192 0.000000 0.000000 0.000000
# 4 0.000000 0.000000 0.000000 0.258142 0.000000 0.000000
# 5 0.000000 0.000000 0.000000 0.000000 0.105685 0.000000
# 6 0.000000 0.000000 0.000000 0.000000 0.000000 0.033796
#
#
# Mechanical properties :
#
#
# Convention : Reuss Voigt Hill
#
# Bulk Modulus (GPa) = 22.46877 53.25274 37.86076
# Shear Modulus (GPa) = 9.57904 19.45313 14.51608
#
# Velocity S-wave (km/s) = 2.36562 3.37115 2.91211
# Velocity P-wave (km/s) = 4.53739 6.80173 5.78150
#
# Compressibility (1/GPa) = 0.04450622
#
# Stress axis : x y z
#
# Youngs Moduli (GPa) = 91.45168 55.91699 20.75037
#
# Poissons Ratio (x) = 0.45718 0.05629
# Poissons Ratio (y) = 0.74771 0.11129
# Poissons Ratio (z) = 0.24809 0.29990
#
# Static dielectric constant tensor:
#      x y z
#    x 3.794100 0.000000 0.000000 
#    y 0.000000 2.398900 0.000000 
#    z 0.000000 0.000000 3.431760 
# 
# 
# High freq. dielectric constant tensor:
#      x y z
#    x 1.664550 0.000000 0.000000 
#    y 0.000000 1.657470 0.000000 
#    z 0.000000 0.000000 1.612230 
# 
# From -- ./inp_files/31923.got.cif
#   From: 2010.03.12/outbox.cif.g09.slc.cpg/sg72_16_cif.got.tgz:31923.got - 2010.04.16 14:54:00.
