data_PCOD8293667
_publ_section_title
;
Structure prediction by ZEFSAII (Michael W. Deem and Ramdas Pophale) SiO2 
 PCOD8293667
Probable space group: I B A M
;
_chemical_formula_sum "Si O2"
_cell_formula_units_Z 116
_cell_length_a 9.098798
_cell_length_b 25.151895
_cell_length_c 26.023242
_cell_angle_alpha 90.000000
_cell_angle_beta 90.000000
_cell_angle_gamma 90.000000
_cell_volume 5955.471288
_symmetry_space_group_name_H-M "I B A M"
_symmetry_group_IT_number 72
_symmetry_cell_setting 'orthorhombic'
loop_
_space_group_symop_operation_xyz
x,y,z
-x,-y,z
x,-y,1/2-z
-x,y,1/2-z
-x,-y,-z
x,y,-z
-x,y,1/2+z
x,-y,1/2+z
1/2+x,1/2+y,1/2+z
1/2-x,1/2-y,1/2+z
1/2+x,1/2-y,-z
1/2-x,1/2+y,-z
1/2-x,1/2-y,1/2-z
1/2+x,1/2+y,1/2-z
1/2-x,1/2+y,z
1/2+x,1/2-y,z
loop_
_atom_site_type_symbol
_atom_site_label
_atom_site_fract_x
_atom_site_fract_y
_atom_site_fract_z
Si Si1 0.877606 0.775223 0.443768
Si Si2 0.226004 0.584701 0.283824
Si Si3 0.862155 0.232707 0.623191
Si Si4 0.736979 0.112264 0.943161
Si Si5 0.458586 0.148921 0.642395
Si Si6 0.712430 0.369975 0.827093
Si Si7 0.500000 0.000000 0.250000
Si Si8 0.959748 0.939706 0.632435
O O1 0.895277 0.747753 0.500000
O O2 0.798448 0.736828 0.402645
O O3 0.782731 0.827329 0.449942
O O4 0.035716 0.791074 0.421684
O O5 0.144667 0.633973 0.309804
O O6 0.285277 0.605192 0.229391
O O7 0.108321 0.536621 0.283516
O O8 0.367870 0.565942 0.315101
O O9 0.933676 0.287993 0.640577
O O10 0.851339 0.190722 0.670571
O O11 0.591533 0.115357 0.907855
O O12 0.865371 0.078707 0.916465
O O13 0.702668 0.088255 0.000000
O O14 0.624323 0.130794 0.650504
O O15 0.609713 0.406185 0.863072
O O16 0.000000 0.000000 0.622554
#
# Coordination Sequence:
#
# PCOD8293667 Si02
#       8
#    16  16  16  16  16  16   4  16
#     4  10  19  35  57  85 118 158 204 253 309 364
#     4  11  24  40  62  90 121 166 207 262 315 366
#     4  11  21  36  59  87 123 162 203 259 306 381
#     4   9  20  40  62  87 125 163 199 255 317 374
#     4  10  22  40  60  88 123 164 213 251 312 376
#     4  12  22  41  61  90 130 162 213 261 308 380
#     4  12  20  40  70  88 118 160 218 260 306 368
#     4  11  24  41  65  94 124 160 207 268 320 375
#
# _framework density 19.477886999999999
#
# number of rings (size 3 to 8) (size 9 to 14) (size 15 to 20)
#    0.000    1.379    4.138    1.655    0.000    1.931 
#    0.000    2.069    0.000    0.828    0.000    0.000 
#    0.000    0.000    0.000    0.000    0.000    0.000 
#
# Total GULP energy -718934.409894 kJ/mol
# GULP energy per Si atom -12395.420860 kJ/mol
# Density = 1.943355 g / cm^3
# Si number density = 19.477887 Si / 1000 Ang^3
#
#
#
# Elastic Constant Matrix: (Units=GPa)
#
#
# Indices 1 2 3 4 5 6 
#
# 1 69.7908 5.4465 12.3889 0.0000 0.0000 0.0000
# 2 5.4465 57.2639 22.0875 0.0000 0.0000 0.0000
# 3 12.3889 22.0875 94.4654 0.0000 0.0000 0.0000
# 4 0.0000 0.0000 0.0000 19.0795 0.0000 0.0000
# 5 0.0000 0.0000 0.0000 0.0000 17.9721 0.0000
# 6 0.0000 0.0000 0.0000 0.0000 0.0000 22.9235
#
#
#
# Elastic Compliance Matrix: (Units=1/GPa)
#
#
# Indices 1 2 3 4 5 6 
#
# 1 0.014697 -0.000719 -0.001759 0.000000 0.000000 0.000000
# 2 -0.000719 0.019229 -0.004402 0.000000 0.000000 0.000000
# 3 -0.001759 -0.004402 0.011846 0.000000 0.000000 0.000000
# 4 0.000000 0.000000 0.000000 0.052412 0.000000 0.000000
# 5 0.000000 0.000000 0.000000 0.000000 0.055642 0.000000
# 6 0.000000 0.000000 0.000000 0.000000 0.000000 0.043623
#
#
# Mechanical properties :
#
#
# Convention : Reuss Voigt Hill
#
# Bulk Modulus (GPa) = 31.23893 33.48511 32.36202
# Shear Modulus (GPa) = 22.53465 24.10150 23.31807
#
# Velocity S-wave (km/s) = 3.40506 3.52145 3.46375
# Velocity P-wave (km/s) = 5.61536 5.81058 5.71380
#
# Compressibility (1/GPa) = 0.03201134
#
# Stress axis : x y z
#
# Youngs Moduli (GPa) = 68.04124 52.00413 84.41795
#
# Poissons Ratio (x) = 0.03741 0.14852
# Poissons Ratio (y) = 0.04894 0.37159
# Poissons Ratio (z) = 0.11970 0.22891
#
# Static dielectric constant tensor:
#      x y z
#    x 3.754400 0.000000 0.000000 
#    y 0.000000 3.519170 0.000000 
#    z 0.000000 0.000000 4.028170 
# 
# 
# High freq. dielectric constant tensor:
#      x y z
#    x 1.775090 0.000000 0.000000 
#    y 0.000000 1.749220 0.000000 
#    z 0.000000 0.000000 1.751190 
# 
# From -- ./inp_files/47614.got.cif
#   From: 2010.03.12/outbox.cif.g09.slc.cpg/sg72_24_cif.got.tgz:47614.got - 2010.04.16 14:54:00.
