data_PCOD8293640
_publ_section_title
;
Structure prediction by ZEFSAII (Michael W. Deem and Ramdas Pophale) SiO2 
 PCOD8293640
Probable space group: I B A M
;
_chemical_formula_sum "Si O2"
_cell_formula_units_Z 68
_cell_length_a 13.125791
_cell_length_b 12.819660
_cell_length_c 17.019629
_cell_angle_alpha 90.000000
_cell_angle_beta 90.000000
_cell_angle_gamma 90.000000
_cell_volume 2863.861960
_symmetry_space_group_name_H-M "I B A M"
_symmetry_group_IT_number 72
_symmetry_cell_setting 'orthorhombic'
loop_
_space_group_symop_operation_xyz
x,y,z
-x,-y,z
x,-y,1/2-z
-x,y,1/2-z
-x,-y,-z
x,y,-z
-x,y,1/2+z
x,-y,1/2+z
1/2+x,1/2+y,1/2+z
1/2-x,1/2-y,1/2+z
1/2+x,1/2-y,-z
1/2-x,1/2+y,-z
1/2-x,1/2-y,1/2-z
1/2+x,1/2+y,1/2-z
1/2-x,1/2+y,z
1/2+x,1/2-y,z
loop_
_atom_site_type_symbol
_atom_site_label
_atom_site_fract_x
_atom_site_fract_y
_atom_site_fract_z
Si Si1 0.844263 0.883022 0.130365
Si Si2 0.868984 0.327351 0.170036
Si Si3 0.500000 0.341684 0.750000
Si Si4 0.916268 0.359114 0.000000
Si Si5 0.633725 0.212471 0.000000
Si Si6 0.244728 0.981211 0.000000
Si Si7 0.500000 0.000000 0.250000
O O1 0.749495 0.852529 0.186633
O O2 0.943715 0.910990 0.183311
O O3 0.870840 0.783179 0.077167
O O4 0.818086 0.983950 0.077374
O O5 0.879835 0.298443 0.077872
O O6 0.907624 0.229254 0.218852
O O7 0.932385 0.430475 0.191877
O O8 0.038244 0.366688 0.000000
O O9 0.857695 0.469163 0.000000
O O10 0.737013 0.142972 0.000000
#
# Coordination Sequence:
#
# PCOD8293640 Si02
#       7
#    16  16   8   8   8   8   4
#     4  10  22  38  62  98 126 177 220 265 341 401
#     4  10  22  37  61  95 124 163 215 268 340 382
#     4  11  20  37  58  84 134 172 208 263 318 417
#     4  10  19  34  62  96 122 156 216 276 335 379
#     4  11  20  39  66  95 134 166 220 290 325 388
#     4   9  22  35  62  98 128 164 225 280 327 391
#     4  10  24  38  64 100 132 156 208 298 332 394
#
# _framework density 23.744161999999999
#
# number of rings (size 3 to 8) (size 9 to 14) (size 15 to 20)
#    0.000    1.882    2.353    1.765    6.588    0.000 
#    0.000    0.000    0.000    9.176    0.000    0.000 
#    0.000    0.000    0.000    0.000    0.000    0.000 
#
# Total GULP energy -421458.336663 kJ/mol
# GULP energy per Si atom -12395.833431 kJ/mol
# Density = 2.369012 g / cm^3
# Si number density = 23.744162 Si / 1000 Ang^3
#
#
#
# Elastic Constant Matrix: (Units=GPa)
#
#
# Indices 1 2 3 4 5 6 
#
# 1 144.2167 32.3363 59.2127 0.0000 0.0000 0.0000
# 2 32.3363 48.5158 30.8501 0.0000 0.0000 0.0000
# 3 59.2127 30.8501 116.6039 0.0000 0.0000 0.0000
# 4 0.0000 0.0000 0.0000 2.6451 0.0000 0.0000
# 5 0.0000 0.0000 0.0000 0.0000 49.5656 0.0000
# 6 0.0000 0.0000 0.0000 0.0000 0.0000 15.1336
#
#
#
# Elastic Compliance Matrix: (Units=1/GPa)
#
#
# Indices 1 2 3 4 5 6 
#
# 1 0.009323 -0.003851 -0.003715 0.000000 0.000000 0.000000
# 2 -0.003851 0.026372 -0.005021 0.000000 0.000000 0.000000
# 3 -0.003715 -0.005021 0.011791 0.000000 0.000000 0.000000
# 4 0.000000 0.000000 0.000000 0.378055 0.000000 0.000000
# 5 0.000000 0.000000 0.000000 0.000000 0.020175 0.000000
# 6 0.000000 0.000000 0.000000 0.000000 0.000000 0.066078
#
#
# Mechanical properties :
#
#
# Convention : Reuss Voigt Hill
#
# Bulk Modulus (GPa) = 44.82350 61.57052 53.19701
# Shear Modulus (GPa) = 9.18430 25.93135 17.55782
#
# Velocity S-wave (km/s) = 1.96886 3.30830 2.72225
# Velocity P-wave (km/s) = 4.90787 6.37026 5.68628
#
# Compressibility (1/GPa) = 0.02230973
#
# Stress axis : x y z
#
# Youngs Moduli (GPa) = 107.26124 37.91919 84.80834
#
# Poissons Ratio (x) = 0.14604 0.31509
# Poissons Ratio (y) = 0.41310 0.42586
# Poissons Ratio (z) = 0.39852 0.19041
#
# Static dielectric constant tensor:
#      x y z
#    x 4.400030 0.000000 0.000000 
#    y 0.000000 3.718140 0.000000 
#    z 0.000000 0.000000 4.331570 
# 
# 
# High freq. dielectric constant tensor:
#      x y z
#    x 1.952570 0.000000 0.000000 
#    y 0.000000 1.911010 0.000000 
#    z 0.000000 0.000000 1.944130 
# 
# From -- ./inp_files/36713.got.cif
#   From: 2010.03.12/outbox.cif.g09.slc.cpg/sg72_19_cif.got.tgz:36713.got - 2010.04.16 14:54:00.
