data_PCOD8293698
_publ_section_title
;
Structure prediction by ZEFSAII (Michael W. Deem and Ramdas Pophale) SiO2 
 PCOD8293698
Probable space group: I B A M
;
_chemical_formula_sum "Si O2"
_cell_formula_units_Z 128
_cell_length_a 22.026364
_cell_length_b 18.367349
_cell_length_c 18.182805
_cell_angle_alpha 90.000000
_cell_angle_beta 90.000000
_cell_angle_gamma 90.000000
_cell_volume 7356.143138
_symmetry_space_group_name_H-M "I B A M"
_symmetry_group_IT_number 72
_symmetry_cell_setting 'orthorhombic'
loop_
_space_group_symop_operation_xyz
x,y,z
-x,-y,z
x,-y,1/2-z
-x,y,1/2-z
-x,-y,-z
x,y,-z
-x,y,1/2+z
x,-y,1/2+z
1/2+x,1/2+y,1/2+z
1/2-x,1/2-y,1/2+z
1/2+x,1/2-y,-z
1/2-x,1/2+y,-z
1/2-x,1/2-y,1/2-z
1/2+x,1/2+y,1/2-z
1/2-x,1/2+y,z
1/2+x,1/2-y,z
loop_
_atom_site_type_symbol
_atom_site_label
_atom_site_fract_x
_atom_site_fract_y
_atom_site_fract_z
Si Si1 0.067301 0.382945 0.336137
Si Si2 0.712657 0.377401 0.916522
Si Si3 0.929872 0.358315 0.328032
Si Si4 0.164062 0.295752 0.582370
Si Si5 0.374351 0.016195 0.587041
Si Si6 0.834807 0.760021 0.184789
Si Si7 0.746913 0.511743 0.164897
Si Si8 0.785300 0.826703 0.673529
O O1 0.077833 0.399389 0.250036
O O2 0.111735 0.318804 0.361735
O O3 0.078670 0.456891 0.380950
O O4 0.000093 0.351914 0.349979
O O5 0.783215 0.355564 0.911594
O O6 0.672281 0.310923 0.886487
O O7 0.702398 0.448973 0.866292
O O8 0.692641 0.393237 0.000000
O O9 0.896554 0.403612 0.391434
O O10 0.900451 0.277980 0.321544
O O11 0.138036 0.292341 0.500000
O O12 0.189230 0.216497 0.603391
O O13 0.372482 0.007600 0.500000
O O14 0.307614 0.005120 0.617939
O O15 0.828369 0.810595 0.256711
O O16 0.783926 0.696758 0.190401
O O17 0.762608 0.500000 0.250000
O O18 0.713332 0.588427 0.153778
#
# Coordination Sequence:
#
# PCOD8293698 Si02
#       8
#    16  16  16  16  16  16  16  16
#     4  11  22  38  57  79 106 152 193 234 274 328
#     4  10  21  35  54  80 114 147 178 223 285 339
#     4  11  23  38  58  77 108 147 199 238 270 328
#     4  10  20  35  55  78 110 146 181 226 276 333
#     4  12  25  36  50  78 118 153 192 233 270 327
#     4  10  19  36  54  80 107 143 183 237 281 326
#     4  12  21  34  57  83 109 150 186 227 280 343
#     4  10  20  33  56  79 106 141 186 229 280 337
#
# _framework density 17.400424000000001
#
# number of rings (size 3 to 8) (size 9 to 14) (size 15 to 20)
#    0.000    1.250    5.000    2.250    0.000    4.000 
#    0.000    0.000    0.000    0.000    0.000    0.875 
#    0.000    2.000    0.000    0.000    0.000    0.000 
#
# Total GULP energy -793799.784077 kJ/mol
# GULP energy per Si atom -12403.121626 kJ/mol
# Density = 1.736082 g / cm^3
# Si number density = 17.400424 Si / 1000 Ang^3
#
#
#
# Elastic Constant Matrix: (Units=GPa)
#
#
# Indices 1 2 3 4 5 6 
#
# 1 55.4805 38.2921 22.1911 0.0000 0.0000 0.0000
# 2 38.2921 115.9048 42.5675 0.0000 0.0000 0.0000
# 3 22.1911 42.5675 111.6823 0.0000 0.0000 0.0000
# 4 0.0000 0.0000 0.0000 22.8365 0.0000 0.0000
# 5 0.0000 0.0000 0.0000 0.0000 15.8400 0.0000
# 6 0.0000 0.0000 0.0000 0.0000 0.0000 26.9434
#
#
#
# Elastic Compliance Matrix: (Units=1/GPa)
#
#
# Indices 1 2 3 4 5 6 
#
# 1 0.023729 -0.007102 -0.002008 0.000000 0.000000 0.000000
# 2 -0.007102 0.012158 -0.003223 0.000000 0.000000 0.000000
# 3 -0.002008 -0.003223 0.010581 0.000000 0.000000 0.000000
# 4 0.000000 0.000000 0.000000 0.043790 0.000000 0.000000
# 5 0.000000 0.000000 0.000000 0.000000 0.063131 0.000000
# 6 0.000000 0.000000 0.000000 0.000000 0.000000 0.037115
#
#
# Mechanical properties :
#
#
# Convention : Reuss Voigt Hill
#
# Bulk Modulus (GPa) = 45.86602 54.35210 50.10906
# Shear Modulus (GPa) = 22.47825 25.12511 23.80168
#
# Velocity S-wave (km/s) = 3.59809 3.80404 3.70250
# Velocity P-wave (km/s) = 6.60894 7.11324 6.86572
#
# Compressibility (1/GPa) = 0.02180263
#
# Stress axis : x y z
#
# Youngs Moduli (GPa) = 42.14198 82.25235 94.50646
#
# Poissons Ratio (x) = 0.58416 0.18977
# Poissons Ratio (y) = 0.29930 0.30457
# Poissons Ratio (z) = 0.08462 0.26508
#
# Static dielectric constant tensor:
#      x y z
#    x 2.965420 0.000000 0.000000 
#    y 0.000000 3.244930 0.000000 
#    z 0.000000 0.000000 3.358170 
# 
# 
# High freq. dielectric constant tensor:
#      x y z
#    x 1.632900 0.000000 0.000000 
#    y 0.000000 1.668510 0.000000 
#    z 0.000000 0.000000 1.685250 
# 
# From -- ./inp_files/33549.got.cif
#   From: 2010.03.12/outbox.cif.g09.slc.cpg/sg72_17_cif.got.tgz:33549.got - 2010.04.16 14:54:00.
