data_PCOD8293195
_publ_section_title
;
Structure prediction by ZEFSAII (Michael W. Deem and Ramdas Pophale) SiO2 
 PCOD8293195
Probable space group: I B A M
;
_chemical_formula_sum "Si O2"
_cell_formula_units_Z 120
_cell_length_a 30.776550
_cell_length_b 9.135695
_cell_length_c 22.560745
_cell_angle_alpha 90.000000
_cell_angle_beta 90.000000
_cell_angle_gamma 90.000000
_cell_volume 6343.295792
_symmetry_space_group_name_H-M "I B A M"
_symmetry_group_IT_number 72
_symmetry_cell_setting 'orthorhombic'
loop_
_space_group_symop_operation_xyz
x,y,z
-x,-y,z
x,-y,1/2-z
-x,y,1/2-z
-x,-y,-z
x,y,-z
-x,y,1/2+z
x,-y,1/2+z
1/2+x,1/2+y,1/2+z
1/2-x,1/2-y,1/2+z
1/2+x,1/2-y,-z
1/2-x,1/2+y,-z
1/2-x,1/2-y,1/2-z
1/2+x,1/2+y,1/2-z
1/2-x,1/2+y,z
1/2+x,1/2-y,z
loop_
_atom_site_type_symbol
_atom_site_label
_atom_site_fract_x
_atom_site_fract_y
_atom_site_fract_z
Si Si1 0.550745 0.824014 0.375527
Si Si2 0.208287 0.367274 0.569807
Si Si3 0.705375 0.204816 0.929617
Si Si4 0.629120 0.383037 0.876052
Si Si5 0.547649 0.146644 0.620468
Si Si6 0.952377 0.256753 0.755682
Si Si7 0.108897 0.000000 0.250000
Si Si8 0.126713 0.190599 0.430811
O O1 0.583320 0.694282 0.395246
O O2 0.500805 0.792144 0.394604
O O3 0.559470 0.835960 0.305241
O O4 0.559856 0.984695 0.404396
O O5 0.206711 0.349025 0.500000
O O6 0.251411 0.286539 0.592725
O O7 0.209785 0.535774 0.588549
O O8 0.165682 0.288326 0.597095
O O9 0.666159 0.267041 0.890983
O O10 0.697088 0.224752 0.000000
O O11 0.634693 0.434259 0.807014
O O12 0.635686 0.521417 0.918256
O O13 0.549413 0.125944 0.691520
O O14 0.580814 0.265209 0.596536
O O15 0.000000 0.185108 0.750000
O O16 0.920230 0.128836 0.776075
O O17 0.124154 0.217888 0.500000
#
# Coordination Sequence:
#
# PCOD8293195 Si02
#       8
#    16  16  16  16  16  16   8  16
#     4   9  20  32  53  77 107 142 185 225 276 324
#     4   9  19  35  59  87 110 138 179 227 276 323
#     4  10  19  35  59  85 109 136 179 232 277 327
#     4  11  21  35  53  79 112 145 185 226 277 328
#     4  10  18  35  52  78 107 140 183 232 273 325
#     4   9  16  29  52  77 103 136 180 233 275 312
#     4  10  19  32  48  80 106 144 176 230 268 327
#     4  11  22  36  55  79 110 146 181 220 275 333
#
# _framework density 18.917611000000001
#
# number of rings (size 3 to 8) (size 9 to 14) (size 15 to 20)
#    0.000    2.133    1.333    2.600    0.000    4.267 
#    0.000    4.000    0.000    3.200    0.000    0.000 
#    0.000    0.000    0.000    0.000    0.000    0.000 
#
# Total GULP energy -743510.281726 kJ/mol
# GULP energy per Si atom -12391.838029 kJ/mol
# Density = 1.887455 g / cm^3
# Si number density = 18.917611 Si / 1000 Ang^3
#
#
#
# Elastic Constant Matrix: (Units=GPa)
#
#
# Indices 1 2 3 4 5 6 
#
# 1 128.2510 67.4826 30.7589 0.0000 0.0000 0.0000
# 2 67.4826 122.8328 17.7159 0.0000 0.0000 0.0000
# 3 30.7589 17.7159 42.1135 0.0000 0.0000 0.0000
# 4 0.0000 0.0000 0.0000 22.5802 0.0000 0.0000
# 5 0.0000 0.0000 0.0000 0.0000 22.8924 0.0000
# 6 0.0000 0.0000 0.0000 0.0000 0.0000 39.3940
#
#
#
# Elastic Compliance Matrix: (Units=1/GPa)
#
#
# Indices 1 2 3 4 5 6 
#
# 1 0.012500 -0.005909 -0.006644 0.000000 0.000000 0.000000
# 2 -0.005909 0.011460 -0.000505 0.000000 0.000000 0.000000
# 3 -0.006644 -0.000505 0.028810 0.000000 0.000000 0.000000
# 4 0.000000 0.000000 0.000000 0.044287 0.000000 0.000000
# 5 0.000000 0.000000 0.000000 0.000000 0.043683 0.000000
# 6 0.000000 0.000000 0.000000 0.000000 0.000000 0.025385
#
#
# Mechanical properties :
#
#
# Convention : Reuss Voigt Hill
#
# Bulk Modulus (GPa) = 37.51725 58.34578 47.93152
# Shear Modulus (GPa) = 24.86013 28.78932 26.82473
#
# Velocity S-wave (km/s) = 3.62902 3.90529 3.76969
# Velocity P-wave (km/s) = 6.11839 7.15850 6.65878
#
# Compressibility (1/GPa) = 0.02665440
#
# Stress axis : x y z
#
# Youngs Moduli (GPa) = 80.00140 87.25760 34.70969
#
# Poissons Ratio (x) = 0.51560 0.23061
# Poissons Ratio (y) = 0.47273 0.01754
# Poissons Ratio (z) = 0.53152 0.04408
#
# Static dielectric constant tensor:
#      x y z
#    x 3.564450 0.000000 0.000000 
#    y 0.000000 3.581560 0.000000 
#    z 0.000000 0.000000 3.154560 
# 
# 
# High freq. dielectric constant tensor:
#      x y z
#    x 1.731950 0.000000 0.000000 
#    y 0.000000 1.748450 0.000000 
#    z 0.000000 0.000000 1.700310 
# 
# From -- ./inp_files/49881.got.cif
#   From: 2010.03.12/outbox.cif.g09.slc.cpg/sg72_25_cif.got.tgz:49881.got - 2010.04.16 14:54:00.
