data_PCOD8293096
_publ_section_title
;
Structure prediction by ZEFSAII (Michael W. Deem and Ramdas Pophale) SiO2 
 PCOD8293096
Probable space group: I B A M
;
_chemical_formula_sum "Si O2"
_cell_formula_units_Z 116
_cell_length_a 24.113719
_cell_length_b 15.367922
_cell_length_c 17.569702
_cell_angle_alpha 90.000000
_cell_angle_beta 90.000000
_cell_angle_gamma 90.000000
_cell_volume 6510.940683
_symmetry_space_group_name_H-M "I B A M"
_symmetry_group_IT_number 72
_symmetry_cell_setting 'orthorhombic'
loop_
_space_group_symop_operation_xyz
x,y,z
-x,-y,z
x,-y,1/2-z
-x,y,1/2-z
-x,-y,-z
x,y,-z
-x,y,1/2+z
x,-y,1/2+z
1/2+x,1/2+y,1/2+z
1/2-x,1/2-y,1/2+z
1/2+x,1/2-y,-z
1/2-x,1/2+y,-z
1/2-x,1/2-y,1/2-z
1/2+x,1/2+y,1/2-z
1/2-x,1/2+y,z
1/2+x,1/2-y,z
loop_
_atom_site_type_symbol
_atom_site_label
_atom_site_fract_x
_atom_site_fract_y
_atom_site_fract_z
Si Si1 0.743207 0.912244 0.795050
Si Si2 0.000000 0.000000 0.250000
Si Si3 0.169317 0.149301 0.306997
Si Si4 0.046781 0.715907 0.689601
Si Si5 0.408824 0.396575 0.675364
Si Si6 0.180541 0.009860 0.088666
Si Si7 0.124192 0.661081 0.814813
Si Si8 0.976374 0.593975 0.589927
O O1 0.774678 0.837541 0.744661
O O2 0.771863 0.927147 0.876884
O O3 0.678893 0.895722 0.807067
O O4 0.752891 0.000000 0.750000
O O5 0.966349 0.942195 0.191117
O O6 0.126321 0.097922 0.253364
O O7 0.143108 0.240345 0.335746
O O8 0.181558 0.088975 0.379741
O O9 0.078441 0.797174 0.652422
O O10 0.091858 0.657919 0.734639
O O11 0.000000 0.746659 0.750000
O O12 0.020746 0.662748 0.620667
O O13 0.378245 0.444368 0.605994
O O14 0.191225 0.003562 0.000000
O O15 0.084808 0.616534 0.878018
O O16 0.972772 0.601543 0.500000
O O17 0.000000 0.500000 0.615471
#
# Coordination Sequence:
#
# PCOD8293096 Si02
#       8
#    16   4  16  16  16  16  16  16
#     4   9  19  34  57  82 106 133 176 230 279 320
#     4  12  16  28  58  72 110 136 170 212 258 316
#     4   9  18  36  53  80 110 137 172 229 275 315
#     4   9  19  33  54  80 104 134 183 232 266 307
#     4  10  18  31  54  79 103 142 176 215 267 312
#     4  10  20  35  52  76 113 146 169 210 271 333
#     4  10  20  33  61  84  98 137 191 229 268 321
#     4  10  23  39  52  74 116 153 177 221 280 323
#
# _framework density 17.816165999999999
#
# number of rings (size 3 to 8) (size 9 to 14) (size 15 to 20)
#    0.000    2.345    2.069    1.241    1.931    3.586 
#    0.000    0.345    0.000    0.000    0.000    0.000 
#    0.000    0.000    0.000    0.000    0.000    0.000 
#
# Total GULP energy -718992.777469 kJ/mol
# GULP energy per Si atom -12396.427198 kJ/mol
# Density = 1.777562 g / cm^3
# Si number density = 17.816166 Si / 1000 Ang^3
#
#
#
# Elastic Constant Matrix: (Units=GPa)
#
#
# Indices 1 2 3 4 5 6 
#
# 1 129.5250 36.6941 46.1620 0.0000 0.0000 0.0000
# 2 36.6941 62.6765 37.9507 0.0000 0.0000 0.0000
# 3 46.1620 37.9507 96.8036 0.0000 0.0000 0.0000
# 4 0.0000 0.0000 0.0000 20.4919 0.0000 0.0000
# 5 0.0000 0.0000 0.0000 0.0000 17.6436 0.0000
# 6 0.0000 0.0000 0.0000 0.0000 0.0000 34.4304
#
#
#
# Elastic Compliance Matrix: (Units=1/GPa)
#
#
# Indices 1 2 3 4 5 6 
#
# 1 0.009972 -0.003880 -0.003234 0.000000 0.000000 0.000000
# 2 -0.003880 0.022431 -0.006944 0.000000 0.000000 0.000000
# 3 -0.003234 -0.006944 0.014595 0.000000 0.000000 0.000000
# 4 0.000000 0.000000 0.000000 0.048800 0.000000 0.000000
# 5 0.000000 0.000000 0.000000 0.000000 0.056678 0.000000
# 6 0.000000 0.000000 0.000000 0.000000 0.000000 0.029044
#
#
# Mechanical properties :
#
#
# Convention : Reuss Voigt Hill
#
# Bulk Modulus (GPa) = 52.96002 58.95762 55.95882
# Shear Modulus (GPa) = 23.15573 25.72640 24.44107
#
# Velocity S-wave (km/s) = 3.60905 3.80411 3.70786
# Velocity P-wave (km/s) = 6.86712 7.24286 7.05749
#
# Compressibility (1/GPa) = 0.01888217
#
# Stress axis : x y z
#
# Youngs Moduli (GPa) = 100.27662 44.58165 68.51812
#
# Poissons Ratio (x) = 0.17297 0.22161
# Poissons Ratio (y) = 0.38907 0.47576
# Poissons Ratio (z) = 0.32433 0.30955
#
# Static dielectric constant tensor:
#      x y z
#    x 3.445840 0.000000 0.000000 
#    y 0.000000 3.291520 0.000000 
#    z 0.000000 0.000000 2.961510 
# 
# 
# High freq. dielectric constant tensor:
#      x y z
#    x 1.701140 0.000000 0.000000 
#    y 0.000000 1.693160 0.000000 
#    z 0.000000 0.000000 1.657760 
# 
# From -- ./inp_files/34026.got.cif
#   From: 2010.03.12/outbox.cif.g09.slc.cpg/sg72_18_cif.got.tgz:34026.got - 2010.04.16 14:54:00.
