data_PCOD8293930
_publ_section_title
;
Structure prediction by ZEFSAII (Michael W. Deem and Ramdas Pophale) SiO2 
 PCOD8293930
Probable space group: I B A M
;
_chemical_formula_sum "Si O2"
_cell_formula_units_Z 112
_cell_length_a 13.626566
_cell_length_b 32.374535
_cell_length_c 14.454194
_cell_angle_alpha 90.000000
_cell_angle_beta 90.000000
_cell_angle_gamma 90.000000
_cell_volume 6376.521711
_symmetry_space_group_name_H-M "I B A M"
_symmetry_group_IT_number 72
_symmetry_cell_setting 'orthorhombic'
loop_
_space_group_symop_operation_xyz
x,y,z
-x,-y,z
x,-y,1/2-z
-x,y,1/2-z
-x,-y,-z
x,y,-z
-x,y,1/2+z
x,-y,1/2+z
1/2+x,1/2+y,1/2+z
1/2-x,1/2-y,1/2+z
1/2+x,1/2-y,-z
1/2-x,1/2+y,-z
1/2-x,1/2-y,1/2-z
1/2+x,1/2+y,1/2-z
1/2-x,1/2+y,z
1/2+x,1/2-y,z
loop_
_atom_site_type_symbol
_atom_site_label
_atom_site_fract_x
_atom_site_fract_y
_atom_site_fract_z
Si Si1 0.108712 0.911547 0.104414
Si Si2 0.111834 0.218051 0.249993
Si Si3 0.391695 0.500001 0.642135
Si Si4 0.270866 0.334145 0.611031
Si Si5 0.108729 0.911550 0.604413
Si Si6 0.729123 0.334142 0.388969
Si Si7 0.111660 0.684053 0.250009
O O1 0.159864 0.957129 0.111011
O O2 0.180785 0.877249 0.146160
O O3 0.999992 0.911894 0.153049
O O4 0.093362 0.898284 0.000000
O O5 0.163904 0.202138 0.156215
O O6 0.163915 0.202144 0.343771
O O7 0.119290 0.266881 0.249982
O O8 0.000000 0.202670 0.250000
O O9 0.500000 0.500000 0.596105
O O10 0.398159 0.500000 0.750000
O O11 0.340128 0.457133 0.611007
O O12 0.264094 0.328830 0.500000
O O13 0.319193 0.377254 0.646159
O O14 0.162902 0.332986 0.656501
O O15 0.093377 0.898285 0.500000
O O16 0.735882 0.328826 0.500000
O O17 0.837096 0.332991 0.343512
O O18 0.000000 0.668472 0.250000
#
# Coordination Sequence:
#
# PCOD8293930 Si02
#       7
#    16  16  16  16  16  16  16
#     4   9  17  29  45  69 102 134 161 192 234 288
#     4  10  21  35  52  75 106 134 160 201 250 304
#     4   9  17  25  39  67 101 136 163 184 224 286
#     4  10  20  34  54  77 100 132 171 208 247 294
#     4   9  17  29  45  69 102 134 161 192 234 288
#     4  10  20  34  54  77 100 132 171 208 247 294
#     4  10  23  39  52  71  97 130 169 215 265 300
#
# _framework density 17.564433999999999
#
# number of rings (size 3 to 8) (size 9 to 14) (size 15 to 20)
#    0.000    2.429    0.000    3.000    4.000    6.286 
#    0.000    2.857    0.000    0.000    0.000    2.000 
#    0.000    4.571    0.000    0.000    0.000    0.000 
#
# Total GULP energy -693777.675412 kJ/mol
# GULP energy per Si atom -12388.887061 kJ/mol
# Density = 1.752446 g / cm^3
# Si number density = 17.564434 Si / 1000 Ang^3
#
#
#
# Elastic Constant Matrix: (Units=GPa)
#
#
# Indices 1 2 3 4 5 6 
#
# 1 122.7808 49.9617 43.6394 -0.0118 -0.0002 0.0000
# 2 49.9617 99.9701 22.9498 -0.0054 -0.0001 0.0000
# 3 43.6394 22.9498 109.9083 -0.1018 0.0009 0.0004
# 4 -0.0118 -0.0054 -0.1018 55.8547 0.0131 0.0061
# 5 -0.0002 -0.0001 0.0009 0.0131 13.2945 -0.0001
# 6 0.0000 0.0000 0.0004 0.0061 -0.0001 29.0664
#
#
#
# Elastic Compliance Matrix: (Units=1/GPa)
#
#
# Indices 1 2 3 4 5 6 
#
# 1 0.011374 -0.004882 -0.003497 -0.000004 0.000000 0.000000
# 2 -0.004882 0.012602 -0.000693 -0.000001 0.000000 0.000000
# 3 -0.003497 -0.000693 0.010632 0.000019 -0.000001 0.000000
# 4 -0.000004 -0.000001 0.000019 0.017904 -0.000018 -0.000004
# 5 0.000000 0.000000 -0.000001 -0.000018 0.075219 0.000000
# 6 0.000000 0.000000 0.000000 -0.000004 0.000000 0.034404
#
#
# Mechanical properties :
#
#
# Convention : Reuss Voigt Hill
#
# Bulk Modulus (GPa) = 60.73693 62.86234 61.79964
# Shear Modulus (GPa) = 26.91581 34.05036 30.48308
#
# Velocity S-wave (km/s) = 3.91884 4.40773 4.17045
# Velocity P-wave (km/s) = 7.42502 7.85947 7.64534
#
# Compressibility (1/GPa) = 0.01646445
#
# Stress axis : x y z
#
# Youngs Moduli (GPa) = 87.92146 79.35414 94.05908
#
# Poissons Ratio (x) = 0.38737 0.32890
# Poissons Ratio (y) = 0.42919 0.06520
# Poissons Ratio (z) = 0.30743 0.05500
#
# Static dielectric constant tensor:
#      x y z
#    x 3.290100 0.000000 0.000000 
#    y 0.000000 3.549680 0.000000 
#    z 0.000000 0.000000 3.200320 
# 
# 
# High freq. dielectric constant tensor:
#      x y z
#    x 1.633460 0.000000 0.000000 
#    y 0.000000 1.689090 0.000000 
#    z 0.000000 0.000000 1.686630 
# 
# From -- ./inp_files/22444.got.cif
#   From: 2010.03.12/outbox.cif.g09.slc.cpg/sg72_12_cif.got.tgz:22444.got - 2010.04.16 14:54:00.
