data_PCOD8293362
_publ_section_title
;
Structure prediction by ZEFSAII (Michael W. Deem and Ramdas Pophale) SiO2 
 PCOD8293362
Probable space group: I B A M
;
_chemical_formula_sum "Si O2"
_cell_formula_units_Z 72
_cell_length_a 14.892845
_cell_length_b 14.084301
_cell_length_c 18.746474
_cell_angle_alpha 90.000000
_cell_angle_beta 90.000000
_cell_angle_gamma 90.000000
_cell_volume 3932.172498
_symmetry_space_group_name_H-M "I B A M"
_symmetry_group_IT_number 72
_symmetry_cell_setting 'orthorhombic'
loop_
_space_group_symop_operation_xyz
x,y,z
-x,-y,z
x,-y,1/2-z
-x,y,1/2-z
-x,-y,-z
x,y,-z
-x,y,1/2+z
x,-y,1/2+z
1/2+x,1/2+y,1/2+z
1/2-x,1/2-y,1/2+z
1/2+x,1/2-y,-z
1/2-x,1/2+y,-z
1/2-x,1/2-y,1/2-z
1/2+x,1/2+y,1/2-z
1/2-x,1/2+y,z
1/2+x,1/2-y,z
loop_
_atom_site_type_symbol
_atom_site_label
_atom_site_fract_x
_atom_site_fract_y
_atom_site_fract_z
Si Si1 0.426927 0.226752 0.419123
Si Si2 0.902599 0.475347 0.370236
Si Si3 0.731388 0.000000 0.750000
Si Si4 0.782186 0.189818 0.683680
Si Si5 0.374512 0.179374 0.079349
O O1 0.409864 0.266689 0.500000
O O2 0.401039 0.115969 0.420998
O O3 0.374852 0.283809 0.356690
O O4 0.532350 0.230652 0.398439
O O5 0.833169 0.450533 0.307544
O O6 0.875955 0.565285 0.417705
O O7 0.000000 0.500000 0.336420
O O8 0.790726 0.919838 0.790107
O O9 0.750000 0.250000 0.750000
O O10 0.703678 0.215346 0.629232
O O11 0.349456 0.210537 0.000000
#
# Coordination Sequence:
#
# PCOD8293362 Si02
#       5
#    16  16   8  16  16
#     4  10  19  33  54  80 109 143 181 223 274 327
#     4   9  16  28  50  79 109 138 171 217 277 329
#     4  10  19  32  48  77 112 140 182 218 267 323
#     4  11  21  34  54  79 109 144 183 222 272 325
#     4   9  19  33  52  79 110 140 178 224 271 324
#
# _framework density 18.310489
#
# number of rings (size 3 to 8) (size 9 to 14) (size 15 to 20)
#    0.000    2.222    2.222    1.667    0.000    3.556 
#    0.000    0.000    0.000    2.667    0.000    3.111 
#    0.000    0.000    0.000    0.000    0.000    0.000 
#
# Total GULP energy -446033.639828 kJ/mol
# GULP energy per Si atom -12389.823329 kJ/mol
# Density = 1.826881 g / cm^3
# Si number density = 18.310489 Si / 1000 Ang^3
#
#
#
# Elastic Constant Matrix: (Units=GPa)
#
#
# Indices 1 2 3 4 5 6 
#
# 1 86.7381 38.4308 55.7156 0.0000 0.0000 0.0000
# 2 38.4308 57.4915 34.1460 0.0000 0.0000 0.0000
# 3 55.7156 34.1460 109.0743 0.0000 0.0000 0.0000
# 4 0.0000 0.0000 0.0000 25.7625 0.0000 0.0000
# 5 0.0000 0.0000 0.0000 0.0000 31.0274 0.0000
# 6 0.0000 0.0000 0.0000 0.0000 0.0000 29.1770
#
#
#
# Elastic Compliance Matrix: (Units=1/GPa)
#
#
# Indices 1 2 3 4 5 6 
#
# 1 0.020464 -0.009177 -0.007580 0.000000 0.000000 0.000000
# 2 -0.009177 0.025482 -0.003289 0.000000 0.000000 0.000000
# 3 -0.007580 -0.003289 0.014070 0.000000 0.000000 0.000000
# 4 0.000000 0.000000 0.000000 0.038816 0.000000 0.000000
# 5 0.000000 0.000000 0.000000 0.000000 0.032230 0.000000
# 6 0.000000 0.000000 0.000000 0.000000 0.000000 0.034274
#
#
# Mechanical properties :
#
#
# Convention : Reuss Voigt Hill
#
# Bulk Modulus (GPa) = 50.19508 56.65427 53.42468
# Shear Modulus (GPa) = 23.57704 25.52747 24.55226
#
# Velocity S-wave (km/s) = 3.59224 3.73788 3.66578
# Velocity P-wave (km/s) = 6.68419 7.04535 6.86715
#
# Compressibility (1/GPa) = 0.01992227
#
# Stress axis : x y z
#
# Youngs Moduli (GPa) = 48.86567 39.24288 71.07406
#
# Poissons Ratio (x) = 0.36015 0.53876
# Poissons Ratio (y) = 0.44846 0.23379
# Poissons Ratio (z) = 0.37041 0.12909
#
# Static dielectric constant tensor:
#      x y z
#    x 3.358180 0.000000 0.000000 
#    y 0.000000 3.203100 0.000000 
#    z 0.000000 0.000000 6.598480 
# 
# 
# High freq. dielectric constant tensor:
#      x y z
#    x 1.696210 0.000000 0.000000 
#    y 0.000000 1.684090 0.000000 
#    z 0.000000 0.000000 1.722120 
# 
# From -- ./inp_files/30276.got.cif
#   From: 2010.03.12/outbox.cif.g09.slc.cpg/sg72_16_cif.got.tgz:30276.got - 2010.04.16 14:54:00.
