data_PCOD8293542
_publ_section_title
;
Structure prediction by ZEFSAII (Michael W. Deem and Ramdas Pophale) SiO2 
 PCOD8293542
Probable space group: I B A M
;
_chemical_formula_sum "Si O2"
_cell_formula_units_Z 112
_cell_length_a 15.249643
_cell_length_b 16.603616
_cell_length_c 23.908261
_cell_angle_alpha 90.000000
_cell_angle_beta 90.000000
_cell_angle_gamma 90.000000
_cell_volume 6053.552953
_symmetry_space_group_name_H-M "I B A M"
_symmetry_group_IT_number 72
_symmetry_cell_setting 'orthorhombic'
loop_
_space_group_symop_operation_xyz
x,y,z
-x,-y,z
x,-y,1/2-z
-x,y,1/2-z
-x,-y,-z
x,y,-z
-x,y,1/2+z
x,-y,1/2+z
1/2+x,1/2+y,1/2+z
1/2-x,1/2-y,1/2+z
1/2+x,1/2-y,-z
1/2-x,1/2+y,-z
1/2-x,1/2-y,1/2-z
1/2+x,1/2+y,1/2-z
1/2-x,1/2+y,z
1/2+x,1/2-y,z
loop_
_atom_site_type_symbol
_atom_site_label
_atom_site_fract_x
_atom_site_fract_y
_atom_site_fract_z
Si Si1 0.251314 0.417007 0.228828
Si Si2 0.307143 0.099680 0.938215
Si Si3 0.218427 0.931955 0.063549
Si Si4 0.842584 0.333245 0.369099
Si Si5 0.303212 0.343033 0.660184
Si Si6 0.993521 0.590500 0.936851
Si Si7 0.602340 0.507653 0.844539
O O1 0.208520 0.500000 0.250000
O O2 0.181309 0.386107 0.184632
O O3 0.260160 0.350797 0.278123
O O4 0.347257 0.440158 0.202915
O O5 0.267255 0.153215 0.889366
O O6 0.408461 0.123929 0.937664
O O7 0.288994 0.004400 0.927328
O O8 0.268058 0.120954 0.000000
O O9 0.265467 0.850671 0.085716
O O10 0.128077 0.951424 0.096315
O O11 0.190685 0.918856 0.000000
O O12 0.850607 0.241821 0.348388
O O13 0.936323 0.356199 0.394773
O O14 0.370957 0.414848 0.653781
O O15 0.000000 0.500000 0.914197
O O16 0.952949 0.592467 0.000000
O O17 0.500000 0.500000 0.833011
#
# Coordination Sequence:
#
# PCOD8293542 Si02
#       7
#    16  16  16  16  16  16  16
#     4   9  20  37  59  76 102 149 188 222 274 335
#     4   9  18  35  56  78 107 147 182 215 266 329
#     4   9  17  32  56  81 107 147 185 215 265 332
#     4  11  20  34  55  82 113 141 182 231 278 321
#     4  10  21  36  57  80 111 140 181 236 282 325
#     4  10  19  33  58  83 110 148 187 221 260 330
#     4   9  19  37  60  81 103 142 190 232 271 331
#
# _framework density 18.501531
#
# number of rings (size 3 to 8) (size 9 to 14) (size 15 to 20)
#    0.000    2.429    1.429    1.714    0.000    4.000 
#    5.143    0.714    3.143    0.000    0.000    0.000 
#    0.000    0.000    0.000    0.000    0.000    0.000 
#
# Total GULP energy -694036.843313 kJ/mol
# GULP energy per Si atom -12393.515059 kJ/mol
# Density = 1.845942 g / cm^3
# Si number density = 18.501531 Si / 1000 Ang^3
#
#
#
# Elastic Constant Matrix: (Units=GPa)
#
#
# Indices 1 2 3 4 5 6 
#
# 1 77.6724 25.4463 39.0846 0.0000 0.0000 0.0000
# 2 25.4463 88.1666 44.1324 0.0000 0.0000 0.0000
# 3 39.0846 44.1324 136.2574 0.0000 0.0000 0.0000
# 4 0.0000 0.0000 0.0000 23.4389 0.0000 0.0000
# 5 0.0000 0.0000 0.0000 0.0000 21.8475 0.0000
# 6 0.0000 0.0000 0.0000 0.0000 0.0000 13.9589
#
#
#
# Elastic Compliance Matrix: (Units=1/GPa)
#
#
# Indices 1 2 3 4 5 6 
#
# 1 0.015565 -0.002694 -0.003592 0.000000 0.000000 0.000000
# 2 -0.002694 0.014003 -0.003763 0.000000 0.000000 0.000000
# 3 -0.003592 -0.003763 0.009588 0.000000 0.000000 0.000000
# 4 0.000000 0.000000 0.000000 0.042664 0.000000 0.000000
# 5 0.000000 0.000000 0.000000 0.000000 0.045772 0.000000
# 6 0.000000 0.000000 0.000000 0.000000 0.000000 0.071639
#
#
# Mechanical properties :
#
#
# Convention : Reuss Voigt Hill
#
# Bulk Modulus (GPa) = 52.47086 57.71365 55.09226
# Shear Modulus (GPa) = 22.15515 24.74462 23.44988
#
# Velocity S-wave (km/s) = 3.46421 3.66107 3.56400
# Velocity P-wave (km/s) = 6.66505 7.00949 6.83944
#
# Compressibility (1/GPa) = 0.01905820
#
# Stress axis : x y z
#
# Youngs Moduli (GPa) = 64.24783 71.41237 104.29604
#
# Poissons Ratio (x) = 0.19240 0.37463
# Poissons Ratio (y) = 0.17310 0.39243
# Poissons Ratio (z) = 0.23078 0.26870
#
# Static dielectric constant tensor:
#      x y z
#    x 3.115570 0.000000 0.000000 
#    y 0.000000 3.293130 0.000000 
#    z 0.000000 0.000000 3.722640 
# 
# 
# High freq. dielectric constant tensor:
#      x y z
#    x 1.690900 0.000000 0.000000 
#    y 0.000000 1.700130 0.000000 
#    z 0.000000 0.000000 1.734890 
# 
# From -- ./inp_files/44324.got.cif
#   From: 2010.03.12/outbox.cif.g09.slc.cpg/sg72_23_cif.got.tgz:44324.got - 2010.04.16 14:54:00.
