data_PCOD8293330
_publ_section_title
;
Structure prediction by ZEFSAII (Michael W. Deem and Ramdas Pophale) SiO2 
 PCOD8293330
Probable space group: I B A M
;
_chemical_formula_sum "Si O2"
_cell_formula_units_Z 96
_cell_length_a 24.817640
_cell_length_b 22.843937
_cell_length_c 9.588717
_cell_angle_alpha 90.000000
_cell_angle_beta 90.000000
_cell_angle_gamma 90.000000
_cell_volume 5436.156304
_symmetry_space_group_name_H-M "I B A M"
_symmetry_group_IT_number 72
_symmetry_cell_setting 'orthorhombic'
loop_
_space_group_symop_operation_xyz
x,y,z
-x,-y,z
x,-y,1/2-z
-x,y,1/2-z
-x,-y,-z
x,y,-z
-x,y,1/2+z
x,-y,1/2+z
1/2+x,1/2+y,1/2+z
1/2-x,1/2-y,1/2+z
1/2+x,1/2-y,-z
1/2-x,1/2+y,-z
1/2-x,1/2-y,1/2-z
1/2+x,1/2+y,1/2-z
1/2-x,1/2+y,z
1/2+x,1/2-y,z
loop_
_atom_site_type_symbol
_atom_site_label
_atom_site_fract_x
_atom_site_fract_y
_atom_site_fract_z
Si Si1 0.644861 0.145224 0.345661
Si Si2 0.946339 0.308825 0.335233
Si Si3 0.662304 0.636176 0.656773
Si Si4 0.260442 0.943033 0.339545
Si Si5 0.048610 0.825794 0.654705
Si Si6 0.798346 0.234384 0.847196
O O1 0.624352 0.124125 0.500000
O O2 0.598404 0.146630 0.228243
O O3 0.695385 0.105658 0.295705
O O4 0.662806 0.211353 0.362772
O O5 0.952920 0.322343 0.500000
O O6 0.931275 0.240416 0.309421
O O7 0.000000 0.323711 0.250000
O O8 0.677667 0.659406 0.500000
O O9 0.699297 0.579701 0.688252
O O10 0.597607 0.626907 0.663810
O O11 0.670394 0.681733 0.778497
O O12 0.267518 0.960202 0.500000
O O13 0.271411 0.000000 0.250000
O O14 0.024425 0.824901 0.500000
O O15 0.000000 0.847708 0.750000
O O16 0.750000 0.250000 0.750000
O O17 0.777455 0.215033 0.000000
#
# Coordination Sequence:
#
# PCOD8293330 Si02
#       6
#    16  16  16  16  16  16
#     4  10  20  34  52  75 107 141 171 214 262 310
#     4  10  19  31  50  77 110 144 175 208 250 311
#     4  10  19  35  53  75 107 141 174 215 263 310
#     4  10  22  39  56  75 103 136 177 225 270 313
#     4   9  18  30  48  74 108 142 172 207 251 305
#     4  11  20  30  48  76 108 139 170 208 260 320
#
# _framework density 17.659535000000002
#
# number of rings (size 3 to 8) (size 9 to 14) (size 15 to 20)
#    0.000    2.000    3.333    1.000    0.000    3.333 
#    0.000    0.000    0.000    1.000    0.000    7.000 
#    0.000    0.000    0.000    0.000    0.000    0.000 
#
# Total GULP energy -594739.741828 kJ/mol
# GULP energy per Si atom -12390.411288 kJ/mol
# Density = 1.761934 g / cm^3
# Si number density = 17.659535 Si / 1000 Ang^3
#
#
#
# Elastic Constant Matrix: (Units=GPa)
#
#
# Indices 1 2 3 4 5 6 
#
# 1 100.8875 19.2612 55.8408 0.0000 0.0000 0.0000
# 2 19.2612 49.5885 32.2054 0.0000 0.0000 0.0000
# 3 55.8408 32.2054 114.9046 0.0000 0.0000 0.0000
# 4 0.0000 0.0000 0.0000 18.8958 0.0000 0.0000
# 5 0.0000 0.0000 0.0000 0.0000 33.6377 0.0000
# 6 0.0000 0.0000 0.0000 0.0000 0.0000 11.6477
#
#
#
# Elastic Compliance Matrix: (Units=1/GPa)
#
#
# Indices 1 2 3 4 5 6 
#
# 1 0.013619 -0.001212 -0.006279 0.000000 0.000000 0.000000
# 2 -0.001212 0.024762 -0.006351 0.000000 0.000000 0.000000
# 3 -0.006279 -0.006351 0.013534 0.000000 0.000000 0.000000
# 4 0.000000 0.000000 0.000000 0.052922 0.000000 0.000000
# 5 0.000000 0.000000 0.000000 0.000000 0.029729 0.000000
# 6 0.000000 0.000000 0.000000 0.000000 0.000000 0.085854
#
#
# Mechanical properties :
#
#
# Convention : Reuss Voigt Hill
#
# Bulk Modulus (GPa) = 41.26984 53.33282 47.30133
# Shear Modulus (GPa) = 19.51759 23.37445 21.44602
#
# Velocity S-wave (km/s) = 3.32808 3.64210 3.48863
# Velocity P-wave (km/s) = 6.17970 6.92479 6.56282
#
# Compressibility (1/GPa) = 0.02423077
#
# Stress axis : x y z
#
# Youngs Moduli (GPa) = 73.42891 40.38522 73.88699
#
# Poissons Ratio (x) = 0.04895 0.46391
# Poissons Ratio (y) = 0.08900 0.46926
# Poissons Ratio (z) = 0.46103 0.25649
#
# Static dielectric constant tensor:
#      x y z
#    x 3.325810 0.000000 0.000000 
#    y 0.000000 2.893680 0.000000 
#    z 0.000000 0.000000 3.510950 
# 
# 
# High freq. dielectric constant tensor:
#      x y z
#    x 1.684370 0.000000 0.000000 
#    y 0.000000 1.626850 0.000000 
#    z 0.000000 0.000000 1.699310 
# 
# From -- ./inp_files/5978.got.cif
#   From: 2010.03.12/outbox.cif.g09.slc.cpg/sg72_3_cif.got.tgz:5978.got - 2010.04.16 14:54:00.
