data_PCOD8293333
_publ_section_title
;
Structure prediction by ZEFSAII (Michael W. Deem and Ramdas Pophale) SiO2 
 PCOD8293333
Probable space group: I B A M
;
_chemical_formula_sum "Si O2"
_cell_formula_units_Z 112
_cell_length_a 22.593828
_cell_length_b 14.345606
_cell_length_c 15.584815
_cell_angle_alpha 90.000000
_cell_angle_beta 90.000000
_cell_angle_gamma 90.000000
_cell_volume 5051.383816
_symmetry_space_group_name_H-M "I B A M"
_symmetry_group_IT_number 72
_symmetry_cell_setting 'orthorhombic'
loop_
_space_group_symop_operation_xyz
x,y,z
-x,-y,z
x,-y,1/2-z
-x,y,1/2-z
-x,-y,-z
x,y,-z
-x,y,1/2+z
x,-y,1/2+z
1/2+x,1/2+y,1/2+z
1/2-x,1/2-y,1/2+z
1/2+x,1/2-y,-z
1/2-x,1/2+y,-z
1/2-x,1/2-y,1/2-z
1/2+x,1/2+y,1/2-z
1/2-x,1/2+y,z
1/2+x,1/2-y,z
loop_
_atom_site_type_symbol
_atom_site_label
_atom_site_fract_x
_atom_site_fract_y
_atom_site_fract_z
Si Si1 0.451226 0.773948 0.600775
Si Si2 0.455543 0.917529 0.092667
Si Si3 0.336168 0.781878 0.711083
Si Si4 0.857885 0.905345 0.201374
Si Si5 0.757269 0.590789 0.597266
Si Si6 0.974783 0.098736 0.400625
Si Si7 0.665612 0.058755 0.168662
O O1 0.436228 0.795468 0.500000
O O2 0.508912 0.831009 0.632528
O O3 0.397351 0.803850 0.661599
O O4 0.469400 0.666910 0.614211
O O5 0.403046 0.955941 0.150050
O O6 0.500000 0.000000 0.078911
O O7 0.429100 0.886659 0.000000
O O8 0.333214 0.671995 0.731087
O O9 0.285439 0.821861 0.649097
O O10 0.327746 0.832615 0.804636
O O11 0.808577 0.927219 0.130623
O O12 0.918066 0.870686 0.155506
O O13 0.872210 0.000000 0.250000
O O14 0.754218 0.624712 0.500000
O O15 0.792338 0.490151 0.598035
O O16 0.955150 0.098158 0.500000
O O17 0.000000 0.000000 0.370475
O O18 0.684840 0.000000 0.250000
#
# Coordination Sequence:
#
# PCOD8293333 Si02
#       7
#    16  16  16  16  16  16  16
#     4  10  21  37  59  89 125 164 205 247 298 366
#     4  10  19  31  50  80 118 157 195 235 288 356
#     4  11  23  40  64  93 126 161 204 256 311 369
#     4  12  25  42  65  93 126 163 210 265 316 365
#     4  11  24  45  67  89 122 163 208 255 313 379
#     4  10  22  41  63  89 124 166 212 259 309 365
#     4  10  21  36  58  86 119 156 199 252 305 361
#
# _framework density 22.172142000000001
#
# number of rings (size 3 to 8) (size 9 to 14) (size 15 to 20)
#    0.000    1.429    0.000    6.429    0.000    6.286 
#    0.000    5.714    0.000    0.000    0.000    0.000 
#    0.000    0.000    0.000    0.000    0.000    0.000 
#
# Total GULP energy -694030.792494 kJ/mol
# GULP energy per Si atom -12393.407009 kJ/mol
# Density = 2.212168 g / cm^3
# Si number density = 22.172142 Si / 1000 Ang^3
#
#
#
# Elastic Constant Matrix: (Units=GPa)
#
#
# Indices 1 2 3 4 5 6 
#
# 1 84.8907 1.2796 27.1304 0.0000 0.0000 0.0000
# 2 1.2796 96.9146 15.9095 0.0000 0.0000 0.0000
# 3 27.1304 15.9095 77.3201 0.0000 0.0000 0.0000
# 4 0.0000 0.0000 0.0000 23.8212 0.0000 0.0000
# 5 0.0000 0.0000 0.0000 0.0000 32.0684 0.0000
# 6 0.0000 0.0000 0.0000 0.0000 0.0000 25.3400
#
#
#
# Elastic Compliance Matrix: (Units=1/GPa)
#
#
# Indices 1 2 3 4 5 6 
#
# 1 0.013303 0.000611 -0.004793 0.000000 0.000000 0.000000
# 2 0.000611 0.010707 -0.002418 0.000000 0.000000 0.000000
# 3 -0.004793 -0.002418 0.015113 0.000000 0.000000 0.000000
# 4 0.000000 0.000000 0.000000 0.041979 0.000000 0.000000
# 5 0.000000 0.000000 0.000000 0.000000 0.031183 0.000000
# 6 0.000000 0.000000 0.000000 0.000000 0.000000 0.039463
#
#
# Mechanical properties :
#
#
# Convention : Reuss Voigt Hill
#
# Bulk Modulus (GPa) = 38.57605 38.64048 38.60827
# Shear Modulus (GPa) = 28.80369 30.56632 29.68500
#
# Velocity S-wave (km/s) = 3.60820 3.71697 3.66299
# Velocity P-wave (km/s) = 5.89873 5.99053 5.94481
#
# Compressibility (1/GPa) = 0.02592282
#
# Stress axis : x y z
#
# Youngs Moduli (GPa) = 75.17337 93.39544 66.16980
#
# Poissons Ratio (x) = -0.05709 0.31718
# Poissons Ratio (y) = -0.04595 0.15997
# Poissons Ratio (z) = 0.36034 0.22579
#
# Static dielectric constant tensor:
#      x y z
#    x 3.873060 0.000000 0.000000 
#    y 0.000000 3.759690 0.000000 
#    z 0.000000 0.000000 4.197500 
# 
# 
# High freq. dielectric constant tensor:
#      x y z
#    x 1.871250 0.000000 0.000000 
#    y 0.000000 1.875910 0.000000 
#    z 0.000000 0.000000 1.866830 
# 
# From -- ./inp_files/22114.got.cif
#   From: 2010.03.12/outbox.cif.g09.slc.cpg/sg72_12_cif.got.tgz:22114.got - 2010.04.16 14:54:00.
