data_PCOD8293960
_publ_section_title
;
Structure prediction by ZEFSAII (Michael W. Deem and Ramdas Pophale) SiO2 
 PCOD8293960
Probable space group: I B A M
;
_chemical_formula_sum "Si O2"
_cell_formula_units_Z 116
_cell_length_a 21.315780
_cell_length_b 31.957835
_cell_length_c 8.951555
_cell_angle_alpha 90.000000
_cell_angle_beta 90.000000
_cell_angle_gamma 90.000000
_cell_volume 6097.854588
_symmetry_space_group_name_H-M "I B A M"
_symmetry_group_IT_number 72
_symmetry_cell_setting 'orthorhombic'
loop_
_space_group_symop_operation_xyz
x,y,z
-x,-y,z
x,-y,1/2-z
-x,y,1/2-z
-x,-y,-z
x,y,-z
-x,y,1/2+z
x,-y,1/2+z
1/2+x,1/2+y,1/2+z
1/2-x,1/2-y,1/2+z
1/2+x,1/2-y,-z
1/2-x,1/2+y,-z
1/2-x,1/2-y,1/2-z
1/2+x,1/2+y,1/2-z
1/2-x,1/2+y,z
1/2+x,1/2-y,z
loop_
_atom_site_type_symbol
_atom_site_label
_atom_site_fract_x
_atom_site_fract_y
_atom_site_fract_z
Si Si1 0.713380 0.894397 0.823196
Si Si2 0.159139 0.230421 0.667309
Si Si3 0.796733 0.693523 0.167407
Si Si4 0.063846 0.171312 0.172631
Si Si5 0.378431 0.961990 0.662516
Si Si6 0.565208 0.573419 0.324899
Si Si7 0.000000 0.500000 0.750000
Si Si8 0.189604 0.043182 0.679351
O O1 0.707229 0.847912 0.764845
O O2 0.646939 0.917310 0.780274
O O3 0.769325 0.918258 0.739905
O O4 0.727110 0.893161 0.000000
O O5 0.132187 0.236117 0.500000
O O6 0.154714 0.274769 0.753071
O O7 0.229888 0.215159 0.659568
O O8 0.121091 0.195614 0.755228
O O9 0.820762 0.683344 0.000000
O O10 0.076449 0.122572 0.198281
O O11 0.000000 0.186000 0.250000
O O12 0.059275 0.182925 0.000000
O O13 0.350598 0.967519 0.500000
O O14 0.454576 0.967940 0.659751
O O15 0.346002 0.000000 0.750000
O O16 0.500000 0.559599 0.250000
O O17 0.565579 0.561448 0.500000
O O18 0.618816 0.548923 0.236578
O O19 0.191754 0.042019 0.500000
O O20 0.215513 0.000000 0.750000
#
# Coordination Sequence:
#
# PCOD8293960 Si02
#       8
#    16  16  16  16  16  16   4  16
#     4  11  22  37  56  83 115 147 183 229 283 334
#     4  10  20  35  56  81 111 144 182 228 275 327
#     4  10  21  36  56  83 111 145 184 224 277 334
#     4  10  20  34  56  83 112 145 183 227 275 327
#     4   9  19  33  55  81 108 140 178 222 268 320
#     4  10  21  38  59  84 113 149 191 236 281 332
#     4   8  18  36  58  84 110 140 184 220 266 316
#     4  12  25  40  57  81 112 149 190 234 285 338
#
# _framework density 19.023083
#
# number of rings (size 3 to 8) (size 9 to 14) (size 15 to 20)
#    0.414    1.379    0.000    4.759    0.000    8.000 
#    0.000    1.379    1.517    0.000    0.000    0.000 
#    0.000    0.000    0.000    0.000    0.000    0.000 
#
# Total GULP energy -718903.404327 kJ/mol
# GULP energy per Si atom -12394.886282 kJ/mol
# Density = 1.897979 g / cm^3
# Si number density = 19.023083 Si / 1000 Ang^3
#
#
#
# Elastic Constant Matrix: (Units=GPa)
#
#
# Indices 1 2 3 4 5 6 
#
# 1 56.9832 13.8398 26.5645 0.0000 -0.0001 0.0000
# 2 13.8398 77.7019 41.9006 0.0000 0.0000 0.0000
# 3 26.5645 41.9006 143.1786 -0.0001 -0.0007 0.0001
# 4 0.0000 0.0000 -0.0001 27.3272 -0.0001 0.0000
# 5 -0.0001 0.0000 -0.0007 -0.0001 12.3583 0.0000
# 6 0.0000 0.0000 0.0001 0.0000 0.0000 30.0052
#
#
#
# Elastic Compliance Matrix: (Units=1/GPa)
#
#
# Indices 1 2 3 4 5 6 
#
# 1 0.019420 -0.001800 -0.003076 0.000000 0.000000 0.000000
# 2 -0.001800 0.015448 -0.004187 0.000000 0.000000 0.000000
# 3 -0.003076 -0.004187 0.008780 0.000000 0.000000 0.000000
# 4 0.000000 0.000000 0.000000 0.036594 0.000000 0.000000
# 5 0.000000 0.000000 0.000000 0.000000 0.080918 0.000000
# 6 0.000000 0.000000 0.000000 0.000000 0.000000 0.033328
#
#
# Mechanical properties :
#
#
# Convention : Reuss Voigt Hill
#
# Bulk Modulus (GPa) = 39.18164 49.16372 44.17268
# Shear Modulus (GPa) = 22.61200 26.97538 24.79369
#
# Velocity S-wave (km/s) = 3.45144 3.76976 3.61411
# Velocity P-wave (km/s) = 6.04358 6.69690 6.37861
#
# Compressibility (1/GPa) = 0.02552216
#
# Stress axis : x y z
#
# Youngs Moduli (GPa) = 51.49233 64.73311 113.89134
#
# Poissons Ratio (x) = 0.11653 0.35037
# Poissons Ratio (y) = 0.09269 0.47684
# Poissons Ratio (z) = 0.15841 0.27103
#
# Static dielectric constant tensor:
#      x y z
#    x 3.385690 0.000000 0.000000 
#    y 0.000000 3.496260 0.000000 
#    z 0.000000 0.000000 3.713470 
# 
# 
# High freq. dielectric constant tensor:
#      x y z
#    x 1.726410 0.000000 0.000000 
#    y 0.000000 1.736250 0.000000 
#    z 0.000000 0.000000 1.757180 
# 
# From -- ./inp_files/7363.got.cif
#   From: 2010.03.12/outbox.cif.g09.slc.cpg/sg72_4_cif.got.tgz:7363.got - 2010.04.16 14:54:00.
