data_PCOD8293175
_publ_section_title
;
Structure prediction by ZEFSAII (Michael W. Deem and Ramdas Pophale) SiO2 
 PCOD8293175
Probable space group: I B A M
;
_chemical_formula_sum "Si O2"
_cell_formula_units_Z 128
_cell_length_a 22.361178
_cell_length_b 18.020230
_cell_length_c 18.419033
_cell_angle_alpha 90.000000
_cell_angle_beta 90.000000
_cell_angle_gamma 90.000000
_cell_volume 7422.015115
_symmetry_space_group_name_H-M "I B A M"
_symmetry_group_IT_number 72
_symmetry_cell_setting 'orthorhombic'
loop_
_space_group_symop_operation_xyz
x,y,z
-x,-y,z
x,-y,1/2-z
-x,y,1/2-z
-x,-y,-z
x,y,-z
-x,y,1/2+z
x,-y,1/2+z
1/2+x,1/2+y,1/2+z
1/2-x,1/2-y,1/2+z
1/2+x,1/2-y,-z
1/2-x,1/2+y,-z
1/2-x,1/2-y,1/2-z
1/2+x,1/2+y,1/2-z
1/2-x,1/2+y,z
1/2+x,1/2-y,z
loop_
_atom_site_type_symbol
_atom_site_label
_atom_site_fract_x
_atom_site_fract_y
_atom_site_fract_z
Si Si1 0.878012 0.899659 0.663048
Si Si2 0.496816 0.585275 0.584132
Si Si3 0.187045 0.785440 0.922146
Si Si4 0.733931 0.503193 0.333416
Si Si5 0.439723 0.331959 0.290687
Si Si6 0.661661 0.783309 0.699599
Si Si7 0.802122 0.615542 0.079677
Si Si8 0.734811 0.167735 0.668782
O O1 0.928153 0.897606 0.601129
O O2 0.845969 0.821171 0.647111
O O3 0.832828 0.969117 0.655301
O O4 0.904724 0.895728 0.744410
O O5 0.500000 0.500000 0.606351
O O6 0.511440 0.600373 0.500000
O O7 0.544464 0.633359 0.630680
O O8 0.245925 0.832745 0.932665
O O9 0.201976 0.700727 0.901984
O O10 0.152373 0.785767 0.000000
O O11 0.753095 0.500000 0.250000
O O12 0.782175 0.461091 0.382670
O O13 0.736892 0.589335 0.354532
O O14 0.500000 0.309840 0.250000
O O15 0.402584 0.255798 0.293037
O O16 0.652953 0.838874 0.631391
O O17 0.685563 0.834336 0.766348
O O18 0.709435 0.718376 0.689730
O O19 0.830967 0.598770 0.000000
#
# Coordination Sequence:
#
# PCOD8293175 Si02
#       8
#    16  16  16  16  16  16  16  16
#     4  10  20  33  55  74 103 144 182 220 269 325
#     4  10  23  38  48  71 109 145 183 228 271 313
#     4   9  17  32  50  72 103 139 172 213 269 323
#     4  11  20  30  52  80 105 140 178 217 271 331
#     4  10  21  35  56  80 101 139 191 233 258 315
#     4  10  18  34  51  74 107 137 176 227 271 318
#     4   9  19  33  49  73 106 140 171 210 269 330
#     4  10  19  30  51  79 104 136 175 222 272 326
#
# _framework density 17.245991
#
# number of rings (size 3 to 8) (size 9 to 14) (size 15 to 20)
#    0.000    2.125    2.500    1.125    3.500    3.250 
#    0.000    0.000    0.000    0.000    0.000    1.750 
#    0.000    1.000    0.000    0.000    0.000    0.000 
#
# Total GULP energy -792964.432158 kJ/mol
# GULP energy per Si atom -12390.069252 kJ/mol
# Density = 1.720674 g / cm^3
# Si number density = 17.245991 Si / 1000 Ang^3
#
#
#
# Elastic Constant Matrix: (Units=GPa)
#
#
# Indices 1 2 3 4 5 6 
#
# 1 65.7634 40.2108 30.7112 0.0000 0.0000 0.0000
# 2 40.2108 98.4112 39.5835 0.0000 0.0000 0.0000
# 3 30.7112 39.5835 110.6770 0.0000 0.0000 0.0000
# 4 0.0000 0.0000 0.0000 44.4994 0.0000 0.0000
# 5 0.0000 0.0000 0.0000 0.0000 18.8898 0.0000
# 6 0.0000 0.0000 0.0000 0.0000 0.0000 22.0758
#
#
#
# Elastic Compliance Matrix: (Units=1/GPa)
#
#
# Indices 1 2 3 4 5 6 
#
# 1 0.021230 -0.007365 -0.003257 0.000000 0.000000 0.000000
# 2 -0.007365 0.014424 -0.003115 0.000000 0.000000 0.000000
# 3 -0.003257 -0.003115 0.011053 0.000000 0.000000 0.000000
# 4 0.000000 0.000000 0.000000 0.022472 0.000000 0.000000
# 5 0.000000 0.000000 0.000000 0.000000 0.052938 0.000000
# 6 0.000000 0.000000 0.000000 0.000000 0.000000 0.045298
#
#
# Mechanical properties :
#
#
# Convention : Reuss Voigt Hill
#
# Bulk Modulus (GPa) = 51.99261 55.09584 53.54422
# Shear Modulus (GPa) = 24.83851 28.04943 26.44397
#
# Velocity S-wave (km/s) = 3.79918 4.03728 3.92004
# Velocity P-wave (km/s) = 7.03264 7.33139 7.18357
#
# Compressibility (1/GPa) = 0.01923350
#
# Stress axis : x y z
#
# Youngs Moduli (GPa) = 47.10294 69.33122 90.47177
#
# Poissons Ratio (x) = 0.51059 0.29468
# Poissons Ratio (y) = 0.34689 0.28182
# Poissons Ratio (z) = 0.15342 0.21597
#
# Static dielectric constant tensor:
#      x y z
#    x 3.195740 0.000000 0.000000 
#    y 0.000000 3.464470 0.000000 
#    z 0.000000 0.000000 3.572210 
# 
# 
# High freq. dielectric constant tensor:
#      x y z
#    x 1.630870 0.000000 0.000000 
#    y 0.000000 1.652060 0.000000 
#    z 0.000000 0.000000 1.677910 
# 
# From -- ./inp_files/33538.got.cif
#   From: 2010.03.12/outbox.cif.g09.slc.cpg/sg72_17_cif.got.tgz:33538.got - 2010.04.16 14:54:00.
