data_PCOD8293932
_publ_section_title
;
Structure prediction by ZEFSAII (Michael W. Deem and Ramdas Pophale) SiO2 
 PCOD8293932
Probable space group: I B A M
;
_chemical_formula_sum "Si O2"
_cell_formula_units_Z 64
_cell_length_a 10.978414
_cell_length_b 28.603083
_cell_length_c 8.624054
_cell_angle_alpha 90.000000
_cell_angle_beta 90.000000
_cell_angle_gamma 90.000000
_cell_volume 2708.095139
_symmetry_space_group_name_H-M "I B A M"
_symmetry_group_IT_number 72
_symmetry_cell_setting 'orthorhombic'
loop_
_space_group_symop_operation_xyz
x,y,z
-x,-y,z
x,-y,1/2-z
-x,y,1/2-z
-x,-y,-z
x,y,-z
-x,y,1/2+z
x,-y,1/2+z
1/2+x,1/2+y,1/2+z
1/2-x,1/2-y,1/2+z
1/2+x,1/2-y,-z
1/2-x,1/2+y,-z
1/2-x,1/2-y,1/2-z
1/2+x,1/2+y,1/2-z
1/2-x,1/2+y,z
1/2+x,1/2-y,z
loop_
_atom_site_type_symbol
_atom_site_label
_atom_site_fract_x
_atom_site_fract_y
_atom_site_fract_z
Si Si1 0.623292 0.906967 0.820981
Si Si2 0.613009 0.288637 0.172169
Si Si3 0.129369 0.051643 0.684843
Si Si4 0.648671 0.185552 0.168944
O O1 0.500000 0.931310 0.750000
O O2 0.750770 0.919572 0.737461
O O3 0.603886 0.850919 0.799965
O O4 0.632230 0.920784 0.000000
O O5 0.500000 0.315697 0.250000
O O6 0.574629 0.233834 0.162865
O O7 0.716189 0.298050 0.295067
O O8 0.643031 0.308269 0.000000
O O9 0.122969 0.051000 0.500000
O O10 0.000000 0.072127 0.750000
O O11 0.147867 0.000000 0.750000
O O12 0.644914 0.160502 0.000000
#
# Coordination Sequence:
#
# PCOD8293932 Si02
#       4
#    16  16  16  16
#     4  12  25  42  64  94 129 167 210 258 312 371
#     4  10  20  34  54  79 110 151 200 253 307 365
#     4  11  23  44  71 100 131 166 206 251 306 368
#     4  10  21  37  56  81 114 154 200 251 307 365
#
# _framework density 23.632849
#
# number of rings (size 3 to 8) (size 9 to 14) (size 15 to 20)
#    0.000    1.250    0.000    7.500    0.000    6.500 
#    0.000    7.500    0.000    0.000    0.000    0.000 
#    0.000    0.000    0.000    0.000    0.000    0.000 
#
# Total GULP energy -396426.154672 kJ/mol
# GULP energy per Si atom -12388.317333 kJ/mol
# Density = 2.357906 g / cm^3
# Si number density = 23.632849 Si / 1000 Ang^3
#
#
#
# Elastic Constant Matrix: (Units=GPa)
#
#
# Indices 1 2 3 4 5 6 
#
# 1 162.5199 11.4732 67.7889 -0.0011 -0.0018 -0.0002
# 2 11.4732 37.8206 12.0340 -0.0022 -0.0002 -0.0006
# 3 67.7889 12.0340 195.6014 -0.0020 0.0111 0.0090
# 4 -0.0011 -0.0022 -0.0020 33.2844 0.0002 0.0027
# 5 -0.0018 -0.0002 0.0111 0.0002 37.7651 -0.0030
# 6 -0.0002 -0.0006 0.0090 0.0027 -0.0030 -41.0909
#
#
#
# Elastic Compliance Matrix: (Units=1/GPa)
#
#
# Indices 1 2 3 4 5 6 
#
# 1 0.007268 -0.001431 -0.002431 0.000000 0.000001 -0.000001
# 2 -0.001431 0.027250 -0.001180 0.000002 0.000000 -0.000001
# 3 -0.002431 -0.001180 0.006027 0.000000 -0.000002 0.000001
# 4 0.000000 0.000002 0.000000 0.030044 0.000000 0.000002
# 5 0.000001 0.000000 -0.000002 0.000000 0.026479 -0.000002
# 6 -0.000001 -0.000001 0.000001 0.000002 -0.000002 -0.024336
#
#
# Mechanical properties :
#
#
# Convention : Reuss Voigt Hill
#
# Bulk Modulus (GPa) = 32.82920 64.28158 48.55539
# Shear Modulus (GPa) = 53.77956 26.30144 40.04050
#
# Velocity S-wave (km/s) = 4.77553 3.33966 4.12062
# Velocity P-wave (km/s) = 6.65801 6.49078 6.57493
#
# Compressibility (1/GPa) = 0.03046069
#
# Stress axis : x y z
#
# Youngs Moduli (GPa) = 137.58826 36.69668 165.90632
#
# Poissons Ratio (x) = 0.05253 0.40329
# Poissons Ratio (y) = 0.19694 0.19584
# Poissons Ratio (z) = 0.33445 0.04332
#
# Static dielectric constant tensor:
#      x y z
#    x 4.617750 0.000000 0.000010 
#    y 0.000000 4.019920 0.000000 
#    z 0.000010 0.000000 4.443880 
# 
# 
# High freq. dielectric constant tensor:
#      x y z
#    x 1.966030 0.000000 0.000000 
#    y 0.000000 1.896950 0.000000 
#    z 0.000000 0.000000 1.949130 
# 
# From -- ./inp_files/2643.got.cif
#   From: 2010.03.12/outbox.cif.g09.slc.cpg/sg72_2_cif.got.tgz:2643.got - 2010.04.16 14:54:00.
