data_PCOD8293955
_publ_section_title
;
Structure prediction by ZEFSAII (Michael W. Deem and Ramdas Pophale) SiO2 
 PCOD8293955
Probable space group: I B A M
;
_chemical_formula_sum "Si O2"
_cell_formula_units_Z 96
_cell_length_a 22.931402
_cell_length_b 11.665748
_cell_length_c 19.366562
_cell_angle_alpha 90.000000
_cell_angle_beta 90.000000
_cell_angle_gamma 90.000000
_cell_volume 5180.786901
_symmetry_space_group_name_H-M "I B A M"
_symmetry_group_IT_number 72
_symmetry_cell_setting 'orthorhombic'
loop_
_space_group_symop_operation_xyz
x,y,z
-x,-y,z
x,-y,1/2-z
-x,y,1/2-z
-x,-y,-z
x,y,-z
-x,y,1/2+z
x,-y,1/2+z
1/2+x,1/2+y,1/2+z
1/2-x,1/2-y,1/2+z
1/2+x,1/2-y,-z
1/2-x,1/2+y,-z
1/2-x,1/2-y,1/2-z
1/2+x,1/2+y,1/2-z
1/2-x,1/2+y,z
1/2+x,1/2-y,z
loop_
_atom_site_type_symbol
_atom_site_label
_atom_site_fract_x
_atom_site_fract_y
_atom_site_fract_z
Si Si1 0.641068 0.002269 0.670687
Si Si2 0.424663 0.773741 0.170891
Si Si3 0.146876 0.109683 0.920078
Si Si4 0.941274 0.288576 0.828448
Si Si5 0.277407 0.854906 0.419937
Si Si6 0.861976 0.846676 0.420565
O O1 0.587700 0.088735 0.658149
O O2 0.695726 0.039870 0.623844
O O3 0.661705 0.000000 0.750000
O O4 0.617670 0.877693 0.649065
O O5 0.402977 0.663850 0.128031
O O6 0.423947 0.746109 0.252062
O O7 0.491112 0.805161 0.154064
O O8 0.209634 0.164116 0.902603
O O9 0.153588 0.976161 0.902161
O O10 0.129597 0.129178 0.000000
O O11 0.918935 0.190219 0.879065
O O12 0.285906 0.887821 0.500000
O O13 0.307851 0.735003 0.400051
O O14 0.877817 0.831758 0.500000
#
# Coordination Sequence:
#
# PCOD8293955 Si02
#       6
#    16  16  16  16  16  16
#     4   9  18  35  56  84 108 140 178 223 275 319
#     4  10  20  34  56  82 109 141 180 224 268 321
#     4  10  22  36  53  80 108 142 182 222 267 320
#     4   9  19  37  56  78 109 143 179 222 272 319
#     4   9  19  36  56  76 107 146 181 221 270 321
#     4   9  19  37  55  73 105 144 179 220 273 322
#
# _framework density 18.530003000000001
#
# number of rings (size 3 to 8) (size 9 to 14) (size 15 to 20)
#    0.000    2.667    0.000    0.500    2.333    4.667 
#    3.000    5.833    0.000    5.000    0.000    0.000 
#    0.000    0.000    0.000    0.000    0.000    0.000 
#
# Total GULP energy -595207.536783 kJ/mol
# GULP energy per Si atom -12400.157016 kJ/mol
# Density = 1.848783 g / cm^3
# Si number density = 18.530003 Si / 1000 Ang^3
#
#
#
# Elastic Constant Matrix: (Units=GPa)
#
#
# Indices 1 2 3 4 5 6 
#
# 1 66.0153 25.2845 37.0446 0.0000 0.0000 0.0000
# 2 25.2845 85.0098 43.0687 0.0000 0.0000 0.0000
# 3 37.0446 43.0687 58.0953 0.0000 0.0000 0.0000
# 4 0.0000 0.0000 0.0000 33.5985 0.0000 0.0000
# 5 0.0000 0.0000 0.0000 0.0000 32.4832 0.0000
# 6 0.0000 0.0000 0.0000 0.0000 0.0000 24.3940
#
#
#
# Elastic Compliance Matrix: (Units=1/GPa)
#
#
# Indices 1 2 3 4 5 6 
#
# 1 0.023638 0.000970 -0.015792 0.000000 0.000000 0.000000
# 2 0.000970 0.018879 -0.014614 0.000000 0.000000 0.000000
# 3 -0.015792 -0.014614 0.038117 0.000000 0.000000 0.000000
# 4 0.000000 0.000000 0.000000 0.029763 0.000000 0.000000
# 5 0.000000 0.000000 0.000000 0.000000 0.030785 0.000000
# 6 0.000000 0.000000 0.000000 0.000000 0.000000 0.040994
#
#
# Mechanical properties :
#
#
# Convention : Reuss Voigt Hill
#
# Bulk Modulus (GPa) = 45.95255 46.65733 46.30494
# Shear Modulus (GPa) = 20.13666 25.00999 22.57332
#
# Velocity S-wave (km/s) = 3.30010 3.67781 3.49406
# Velocity P-wave (km/s) = 6.27485 6.57793 6.42817
#
# Compressibility (1/GPa) = 0.02176158
#
# Stress axis : x y z
#
# Youngs Moduli (GPa) = 42.30436 52.96903 26.23480
#
# Poissons Ratio (x) = -0.05138 0.41430
# Poissons Ratio (y) = -0.04104 0.38341
# Poissons Ratio (z) = 0.66808 0.77411
#
# Static dielectric constant tensor:
#      x y z
#    x 3.363630 0.000000 0.000000 
#    y 0.000000 3.401900 0.000000 
#    z 0.000000 0.000000 3.404030 
# 
# 
# High freq. dielectric constant tensor:
#      x y z
#    x 1.716820 0.000000 0.000000 
#    y 0.000000 1.717980 0.000000 
#    z 0.000000 0.000000 1.714540 
# 
# From -- ./inp_files/29450.got.cif
#   From: 2010.03.12/outbox.cif.g09.slc.cpg/sg72_15_cif.got.tgz:29450.got - 2010.04.16 14:54:00.
