data_PCOD8293083
_publ_section_title
;
Structure prediction by ZEFSAII (Michael W. Deem and Ramdas Pophale) SiO2 
 PCOD8293083
Probable space group: I B A M
;
_chemical_formula_sum "Si O2"
_cell_formula_units_Z 116
_cell_length_a 26.408478
_cell_length_b 26.362923
_cell_length_c 9.090182
_cell_angle_alpha 90.000000
_cell_angle_beta 90.000000
_cell_angle_gamma 90.000000
_cell_volume 6328.627178
_symmetry_space_group_name_H-M "I B A M"
_symmetry_group_IT_number 72
_symmetry_cell_setting 'orthorhombic'
loop_
_space_group_symop_operation_xyz
x,y,z
-x,-y,z
x,-y,1/2-z
-x,y,1/2-z
-x,-y,-z
x,y,-z
-x,y,1/2+z
x,-y,1/2+z
1/2+x,1/2+y,1/2+z
1/2-x,1/2-y,1/2+z
1/2+x,1/2-y,-z
1/2-x,1/2+y,-z
1/2-x,1/2-y,1/2-z
1/2+x,1/2+y,1/2-z
1/2-x,1/2+y,z
1/2+x,1/2-y,z
loop_
_atom_site_type_symbol
_atom_site_label
_atom_site_fract_x
_atom_site_fract_y
_atom_site_fract_z
Si Si1 0.449858 0.788936 0.170833
Si Si2 0.687465 0.551815 0.174236
Si Si3 0.086061 0.822500 0.672156
Si Si4 0.854541 0.318388 0.166173
Si Si5 0.924768 0.916993 0.336590
Si Si6 0.315975 0.292648 0.829611
Si Si7 0.000000 0.000000 0.250000
Si Si8 0.247858 0.636792 0.828270
O O1 0.500000 0.809069 0.250000
O O2 0.443440 0.729376 0.208475
O O3 0.402292 0.822338 0.225635
O O4 0.455939 0.798704 0.000000
O O5 0.704139 0.500000 0.250000
O O6 0.629895 0.564153 0.220758
O O7 0.727061 0.592981 0.232911
O O8 0.693080 0.547019 0.000000
O O9 0.098120 0.826288 0.500000
O O10 0.055151 0.872230 0.727150
O O11 0.137202 0.825041 0.766577
O O12 0.825047 0.266280 0.194925
O O13 0.813428 0.362974 0.193196
O O14 0.875552 0.319960 0.000000
O O15 0.920245 0.894125 0.500000
O O16 0.963826 0.963760 0.345428
O O17 0.267664 0.309231 0.733676
O O18 0.308223 0.307111 0.000000
O O19 0.261718 0.631273 0.000000
#
# Coordination Sequence:
#
# PCOD8293083 Si02
#       8
#    16  16  16  16  16  16   4  16
#     4  10  21  36  54  78 107 144 181 218 262 313
#     4  11  23  40  59  79 103 136 177 225 281 337
#     4  10  21  35  53  75 100 133 175 220 269 326
#     4   9  20  35  52  77 110 143 178 220 262 316
#     4  11  24  40  57  74  96 128 173 230 287 334
#     4  10  18  31  51  76 106 140 175 215 264 319
#     4  12  26  44  56  74  94 128 184 238 296 332
#     4  11  21  34  54  80 108 140 176 218 271 327
#
# _framework density 18.329409999999999
#
# number of rings (size 3 to 8) (size 9 to 14) (size 15 to 20)
#    0.000    1.655    2.069    2.690    0.966    4.966 
#    0.000    0.000    0.000    0.000    0.000    0.000 
#    0.000    0.552    0.000    5.793    0.000    2.483 
#
# Total GULP energy -719137.707372 kJ/mol
# GULP energy per Si atom -12398.925989 kJ/mol
# Density = 1.828769 g / cm^3
# Si number density = 18.329410 Si / 1000 Ang^3
#
#
#
# Elastic Constant Matrix: (Units=GPa)
#
#
# Indices 1 2 3 4 5 6 
#
# 1 109.0154 34.7932 49.6289 0.0000 0.0000 0.0000
# 2 34.7932 47.8450 24.1597 0.0000 0.0000 0.0000
# 3 49.6289 24.1597 88.4137 0.0000 0.0000 0.0000
# 4 0.0000 0.0000 0.0000 23.8615 0.0000 0.0000
# 5 0.0000 0.0000 0.0000 0.0000 24.2333 0.0000
# 6 0.0000 0.0000 0.0000 0.0000 0.0000 24.5919
#
#
#
# Elastic Compliance Matrix: (Units=1/GPa)
#
#
# Indices 1 2 3 4 5 6 
#
# 1 0.014239 -0.007330 -0.005990 0.000000 0.000000 0.000000
# 2 -0.007330 0.028020 -0.003542 0.000000 0.000000 0.000000
# 3 -0.005990 -0.003542 0.015641 0.000000 0.000000 0.000000
# 4 0.000000 0.000000 0.000000 0.041908 0.000000 0.000000
# 5 0.000000 0.000000 0.000000 0.000000 0.041265 0.000000
# 6 0.000000 0.000000 0.000000 0.000000 0.000000 0.040664
#
#
# Mechanical properties :
#
#
# Convention : Reuss Voigt Hill
#
# Bulk Modulus (GPa) = 41.36390 51.38196 46.37293
# Shear Modulus (GPa) = 22.36928 23.65017 23.00973
#
# Velocity S-wave (km/s) = 3.49722 3.59595 3.54693
# Velocity P-wave (km/s) = 6.23886 6.73309 6.49068
#
# Compressibility (1/GPa) = 0.02417567
#
# Stress axis : x y z
#
# Youngs Moduli (GPa) = 70.22745 35.68872 63.93618
#
# Poissons Ratio (x) = 0.26161 0.38297
# Poissons Ratio (y) = 0.51479 0.22646
# Poissons Ratio (z) = 0.42065 0.12641
#
# Static dielectric constant tensor:
#      x y z
#    x 3.347130 0.000000 0.000000 
#    y 0.000000 3.149830 0.000000 
#    z 0.000000 0.000000 3.391450 
# 
# 
# High freq. dielectric constant tensor:
#      x y z
#    x 1.702820 0.000000 0.000000 
#    y 0.000000 1.672490 0.000000 
#    z 0.000000 0.000000 1.722470 
# 
# From -- ./inp_files/7519.got.cif
#   From: 2010.03.12/outbox.cif.g09.slc.cpg/sg72_4_cif.got.tgz:7519.got - 2010.04.16 14:54:00.
