data_PCOD8293261
_publ_section_title
;
Structure prediction by ZEFSAII (Michael W. Deem and Ramdas Pophale) SiO2 
 PCOD8293261
Probable space group: I B A M
;
_chemical_formula_sum "Si O2"
_cell_formula_units_Z 96
_cell_length_a 26.200786
_cell_length_b 22.725889
_cell_length_c 8.786983
_cell_angle_alpha 90.000000
_cell_angle_beta 90.000000
_cell_angle_gamma 90.000000
_cell_volume 5232.087366
_symmetry_space_group_name_H-M "I B A M"
_symmetry_group_IT_number 72
_symmetry_cell_setting 'orthorhombic'
loop_
_space_group_symop_operation_xyz
x,y,z
-x,-y,z
x,-y,1/2-z
-x,y,1/2-z
-x,-y,-z
x,y,-z
-x,y,1/2+z
x,-y,1/2+z
1/2+x,1/2+y,1/2+z
1/2-x,1/2-y,1/2+z
1/2+x,1/2-y,-z
1/2-x,1/2+y,-z
1/2-x,1/2-y,1/2-z
1/2+x,1/2+y,1/2-z
1/2-x,1/2+y,z
1/2+x,1/2-y,z
loop_
_atom_site_type_symbol
_atom_site_label
_atom_site_fract_x
_atom_site_fract_y
_atom_site_fract_z
Si Si1 0.354758 0.645842 0.664685
Si Si2 0.886184 0.671142 0.821239
Si Si3 0.224352 0.062068 0.177414
Si Si4 0.340466 0.936733 0.679906
Si Si5 0.945411 0.778185 0.318514
Si Si6 0.800141 0.733826 0.333998
O O1 0.360285 0.613237 0.500000
O O2 0.319315 0.608456 0.776136
O O3 0.410050 0.665647 0.732709
O O4 0.330320 0.708038 0.630629
O O5 0.884440 0.605622 0.749959
O O6 0.927203 0.714595 0.744661
O O7 0.829485 0.692989 0.784051
O O8 0.896828 0.668521 0.000000
O O9 0.281832 0.082695 0.223316
O O10 0.210432 0.000000 0.250000
O O11 0.220641 0.053181 0.000000
O O12 0.347560 0.939176 0.500000
O O13 0.351403 0.000000 0.750000
O O14 0.947295 0.773397 0.500000
O O15 0.000000 0.792857 0.250000
O O16 0.791099 0.702124 0.500000
O O17 0.750000 0.750000 0.250000
#
# Coordination Sequence:
#
# PCOD8293261 Si02
#       6
#    16  16  16  16  16  16
#     4   9  19  33  49  71 101 132 166 208 255 305
#     4  11  21  33  51  75 103 137 173 212 258 309
#     4  10  20  32  50  74 104 141 178 212 250 298
#     4  10  20  34  51  75 107 143 181 218 254 301
#     4  10  21  38  58  80 104 132 168 216 268 318
#     4  10  19  30  45  69 101 135 168 208 255 307
#
# _framework density 18.348317999999999
#
# number of rings (size 3 to 8) (size 9 to 14) (size 15 to 20)
#    0.000    2.000    0.000    5.500    0.000    8.667 
#    0.000    0.000    0.000    1.000    0.000    7.000 
#    0.000    0.000    0.000    0.000    0.000    0.000 
#
# Total GULP energy -594681.703090 kJ/mol
# GULP energy per Si atom -12389.202148 kJ/mol
# Density = 1.830656 g / cm^3
# Si number density = 18.348318 Si / 1000 Ang^3
#
#
#
# Elastic Constant Matrix: (Units=GPa)
#
#
# Indices 1 2 3 4 5 6 
#
# 1 31.7839 -9.7758 10.0443 0.0000 0.0000 0.0000
# 2 -9.7758 50.9629 21.4620 0.0000 0.0000 0.0000
# 3 10.0443 21.4620 96.3843 0.0000 0.0000 0.0000
# 4 0.0000 0.0000 0.0000 29.5411 0.0000 0.0000
# 5 0.0000 0.0000 0.0000 0.0000 21.2040 0.0000
# 6 0.0000 0.0000 0.0000 0.0000 0.0000 23.0876
#
#
#
# Elastic Compliance Matrix: (Units=1/GPa)
#
#
# Indices 1 2 3 4 5 6 
#
# 1 0.036215 0.009419 -0.005871 0.000000 0.000000 0.000000
# 2 0.009419 0.024103 -0.006349 0.000000 0.000000 0.000000
# 3 -0.005871 -0.006349 0.012401 0.000000 0.000000 0.000000
# 4 0.000000 0.000000 0.000000 0.033851 0.000000 0.000000
# 5 0.000000 0.000000 0.000000 0.000000 0.047161 0.000000
# 6 0.000000 0.000000 0.000000 0.000000 0.000000 0.043313
#
#
# Mechanical properties :
#
#
# Convention : Reuss Voigt Hill
#
# Bulk Modulus (GPa) = 14.89929 24.73245 19.81587
# Shear Modulus (GPa) = 22.22052 25.25991 23.74021
#
# Velocity S-wave (km/s) = 3.48377 3.71440 3.60093
# Velocity P-wave (km/s) = 4.93154 5.64839 5.30210
#
# Compressibility (1/GPa) = 0.06711729
#
# Stress axis : x y z
#
# Youngs Moduli (GPa) = 27.61274 41.48942 80.64101
#
# Poissons Ratio (x) = -0.39081 0.47348
# Poissons Ratio (y) = -0.26010 0.51195
# Poissons Ratio (z) = 0.16213 0.26340
#
# Static dielectric constant tensor:
#      x y z
#    x 2.929530 0.000000 0.000000 
#    y 0.000000 3.405880 0.000000 
#    z 0.000000 0.000000 3.490130 
# 
# 
# High freq. dielectric constant tensor:
#      x y z
#    x 1.687810 0.000000 0.000000 
#    y 0.000000 1.702580 0.000000 
#    z 0.000000 0.000000 1.725970 
# 
# From -- ./inp_files/5927.got.cif
#   From: 2010.03.12/outbox.cif.g09.slc.cpg/sg72_3_cif.got.tgz:5927.got - 2010.04.16 14:54:00.
