data_PCOD8293920
_publ_section_title
;
Structure prediction by ZEFSAII (Michael W. Deem and Ramdas Pophale) SiO2 
 PCOD8293920
Probable space group: I B A M
;
_chemical_formula_sum "Si O2"
_cell_formula_units_Z 80
_cell_length_a 17.783277
_cell_length_b 27.474071
_cell_length_c 9.085680
_cell_angle_alpha 90.000000
_cell_angle_beta 90.000000
_cell_angle_gamma 90.000000
_cell_volume 4439.072584
_symmetry_space_group_name_H-M "I B A M"
_symmetry_group_IT_number 72
_symmetry_cell_setting 'orthorhombic'
loop_
_space_group_symop_operation_xyz
x,y,z
-x,-y,z
x,-y,1/2-z
-x,y,1/2-z
-x,-y,-z
x,y,-z
-x,y,1/2+z
x,-y,1/2+z
1/2+x,1/2+y,1/2+z
1/2-x,1/2-y,1/2+z
1/2+x,1/2-y,-z
1/2-x,1/2+y,-z
1/2-x,1/2-y,1/2-z
1/2+x,1/2+y,1/2-z
1/2-x,1/2+y,z
1/2+x,1/2-y,z
loop_
_atom_site_type_symbol
_atom_site_label
_atom_site_fract_x
_atom_site_fract_y
_atom_site_fract_z
Si Si1 0.576357 0.709852 0.330820
Si Si2 0.149609 0.690825 0.327621
Si Si3 0.784481 0.856706 0.829008
Si Si4 0.732574 0.049664 0.174947
Si Si5 0.425655 0.091025 0.331267
O O1 0.500000 0.696281 0.250000
O O2 0.556732 0.718342 0.500000
O O3 0.612670 0.759597 0.268522
O O4 0.632892 0.665218 0.307954
O O5 0.171464 0.693366 0.500000
O O6 0.225043 0.681832 0.235305
O O7 0.090527 0.647594 0.297854
O O8 0.783274 0.907026 0.739392
O O9 0.765843 0.866111 0.000000
O O10 0.645940 0.059357 0.219428
O O11 0.759772 0.000000 0.250000
O O12 0.743583 0.047611 0.000000
O O13 0.500000 0.072839 0.250000
O O14 0.442072 0.082002 0.500000
#
# Coordination Sequence:
#
# PCOD8293920 Si02
#       5
#    16  16  16  16  16
#     4  10  21  34  51  77 108 139 173 210 252 302
#     4   9  18  33  50  73 105 141 178 211 244 290
#     4  10  20  34  53  78 104 134 172 212 253 303
#     4  10  21  37  55  75  98 129 169 214 261 310
#     4   9  18  30  46  70 102 136 169 204 244 289
#
# _framework density 18.021782000000002
#
# number of rings (size 3 to 8) (size 9 to 14) (size 15 to 20)
#    0.000    2.400    0.000    3.600    0.000    6.800 
#    0.000    2.000    0.000    0.600    0.000    4.200 
#    0.000    0.000    0.000    0.000    0.000    0.000 
#
# Total GULP energy -496087.094840 kJ/mol
# GULP energy per Si atom -12402.177371 kJ/mol
# Density = 1.798076 g / cm^3
# Si number density = 18.021782 Si / 1000 Ang^3
#
#
#
# Elastic Constant Matrix: (Units=GPa)
#
#
# Indices 1 2 3 4 5 6 
#
# 1 86.6792 42.3948 46.4191 0.0000 0.0000 0.0000
# 2 42.3948 106.9141 46.4835 0.0000 0.0000 0.0000
# 3 46.4191 46.4835 78.5159 0.0002 0.0002 0.0001
# 4 0.0000 0.0000 0.0002 26.5616 0.0000 0.0000
# 5 0.0000 0.0000 0.0002 0.0000 31.8896 0.0000
# 6 0.0000 0.0000 0.0001 0.0000 0.0000 11.7728
#
#
#
# Elastic Compliance Matrix: (Units=1/GPa)
#
#
# Indices 1 2 3 4 5 6 
#
# 1 0.017720 -0.003328 -0.008505 0.000000 0.000000 0.000000
# 2 -0.003328 0.013221 -0.005859 0.000000 0.000000 0.000000
# 3 -0.008505 -0.005859 0.021233 0.000000 0.000000 0.000000
# 4 0.000000 0.000000 0.000000 0.037648 0.000000 0.000000
# 5 0.000000 0.000000 0.000000 0.000000 0.031358 0.000000
# 6 0.000000 0.000000 0.000000 0.000000 0.000000 0.084941
#
#
# Mechanical properties :
#
#
# Convention : Reuss Voigt Hill
#
# Bulk Modulus (GPa) = 59.56748 60.30043 59.93396
# Shear Modulus (GPa) = 20.23445 23.16559 21.70002
#
# Velocity S-wave (km/s) = 3.35442 3.58917 3.47378
# Velocity P-wave (km/s) = 6.93741 7.12099 7.02980
#
# Compressibility (1/GPa) = 0.01678768
#
# Stress axis : x y z
#
# Youngs Moduli (GPa) = 56.43460 75.63997 47.09546
#
# Poissons Ratio (x) = 0.25176 0.40057
# Poissons Ratio (y) = 0.18784 0.27594
# Poissons Ratio (z) = 0.48000 0.44318
#
# Static dielectric constant tensor:
#      x y z
#    x 3.104500 0.000000 0.000000 
#    y 0.000000 3.317900 0.000000 
#    z 0.000000 0.000000 3.320260 
# 
# 
# High freq. dielectric constant tensor:
#      x y z
#    x 1.678370 0.000000 0.000000 
#    y 0.000000 1.695780 0.000000 
#    z 0.000000 0.000000 1.701600 
# 
# From -- ./inp_files/4747.got.cif
#   From: 2010.03.12/outbox.cif.g09.slc.cpg/sg72_3_cif.got.tgz:4747.got - 2010.04.16 14:54:00.
