data_PCOD8293599
_publ_section_title
;
Structure prediction by ZEFSAII (Michael W. Deem and Ramdas Pophale) SiO2 
 PCOD8293599
Probable space group: I B A M
;
_chemical_formula_sum "Si O2"
_cell_formula_units_Z 104
_cell_length_a 20.801464
_cell_length_b 28.006380
_cell_length_c 9.212012
_cell_angle_alpha 90.000000
_cell_angle_beta 90.000000
_cell_angle_gamma 90.000000
_cell_volume 5366.675964
_symmetry_space_group_name_H-M "I B A M"
_symmetry_group_IT_number 72
_symmetry_cell_setting 'orthorhombic'
loop_
_space_group_symop_operation_xyz
x,y,z
-x,-y,z
x,-y,1/2-z
-x,y,1/2-z
-x,-y,-z
x,y,-z
-x,y,1/2+z
x,-y,1/2+z
1/2+x,1/2+y,1/2+z
1/2-x,1/2-y,1/2+z
1/2+x,1/2-y,-z
1/2-x,1/2+y,-z
1/2-x,1/2-y,1/2-z
1/2+x,1/2+y,1/2-z
1/2-x,1/2+y,z
1/2+x,1/2-y,z
loop_
_atom_site_type_symbol
_atom_site_label
_atom_site_fract_x
_atom_site_fract_y
_atom_site_fract_z
Si Si1 0.562484 0.789945 0.667550
Si Si2 0.895286 0.046802 0.839959
Si Si3 0.800769 0.874695 0.329822
Si Si4 0.652321 0.122623 0.167827
Si Si5 0.434935 0.050417 0.824355
Si Si6 0.000000 0.883711 0.250000
Si Si7 0.395180 0.312314 0.662367
O O1 0.500000 0.809749 0.750000
O O2 0.543463 0.786117 0.500000
O O3 0.621599 0.825635 0.692649
O O4 0.581739 0.738018 0.729881
O O5 0.833935 0.075804 0.775708
O O6 0.956424 0.082140 0.849787
O O7 0.911313 0.000000 0.750000
O O8 0.879059 0.028497 0.000000
O O9 0.812443 0.869083 0.500000
O O10 0.726527 0.874531 0.288207
O O11 0.834939 0.829827 0.255620
O O12 0.622105 0.085547 0.280736
O O13 0.643472 0.105947 0.000000
O O14 0.500000 0.070565 0.750000
O O15 0.419321 0.000000 0.750000
O O16 0.441464 0.046346 0.000000
O O17 0.953623 0.850050 0.155614
O O18 0.369916 0.303872 0.500000
#
# Coordination Sequence:
#
# PCOD8293599 Si02
#       7
#    16  16  16  16  16   8  16
#     4  10  21  36  57  85 114 146 185 234 286 337
#     4  10  21  35  53  78 107 142 184 229 280 332
#     4   9  21  39  56  77 110 152 189 229 284 341
#     4  10  21  39  59  82 116 152 189 234 285 340
#     4  11  22  38  61  88 116 148 188 233 285 342
#     4  10  19  34  56  78 110 146 183 230 282 338
#     4  10  20  35  56  82 110 144 189 234 278 338
#
# _framework density 19.378848000000001
#
# number of rings (size 3 to 8) (size 9 to 14) (size 15 to 20)
#    0.000    2.000    0.769    3.000    0.000    8.615 
#    0.000    1.538    0.000    0.000    0.000    0.000 
#    0.000    0.000    0.000    0.000    0.000    0.000 
#
# Total GULP energy -644749.661099 kJ/mol
# GULP energy per Si atom -12399.031944 kJ/mol
# Density = 1.933474 g / cm^3
# Si number density = 19.378848 Si / 1000 Ang^3
#
#
#
# Elastic Constant Matrix: (Units=GPa)
#
#
# Indices 1 2 3 4 5 6 
#
# 1 146.7918 65.4257 44.9416 0.0000 0.0000 0.0000
# 2 65.4257 101.0428 39.4157 0.0000 0.0000 0.0000
# 3 44.9416 39.4157 84.1706 0.0000 0.0000 0.0000
# 4 0.0000 0.0000 0.0000 27.7292 0.0000 0.0000
# 5 0.0000 0.0000 0.0000 0.0000 28.9763 0.0000
# 6 0.0000 0.0000 0.0000 0.0000 0.0000 26.0594
#
#
#
# Elastic Compliance Matrix: (Units=1/GPa)
#
#
# Indices 1 2 3 4 5 6 
#
# 1 0.010106 -0.005431 -0.002853 0.000000 0.000000 0.000000
# 2 -0.005431 0.015027 -0.004137 0.000000 0.000000 0.000000
# 3 -0.002853 -0.004137 0.015341 0.000000 0.000000 0.000000
# 4 0.000000 0.000000 0.000000 0.036063 0.000000 0.000000
# 5 0.000000 0.000000 0.000000 0.000000 0.034511 0.000000
# 6 0.000000 0.000000 0.000000 0.000000 0.000000 0.038374
#
#
# Mechanical properties :
#
#
# Convention : Reuss Voigt Hill
#
# Bulk Modulus (GPa) = 63.96856 70.17459 67.07158
# Shear Modulus (GPa) = 27.85883 28.70112 28.27997
#
# Velocity S-wave (km/s) = 3.79567 3.85262 3.82425
# Velocity P-wave (km/s) = 7.23122 7.48871 7.36109
#
# Compressibility (1/GPa) = 0.01563268
#
# Stress axis : x y z
#
# Youngs Moduli (GPa) = 98.94643 66.54532 65.18364
#
# Poissons Ratio (x) = 0.36142 0.18596
# Poissons Ratio (y) = 0.53739 0.26968
# Poissons Ratio (z) = 0.28228 0.27531
#
# Static dielectric constant tensor:
#      x y z
#    x 3.562130 0.000000 0.000000 
#    y 0.000000 3.583010 0.000000 
#    z 0.000000 0.000000 3.404500 
# 
# 
# High freq. dielectric constant tensor:
#      x y z
#    x 1.752640 0.000000 0.000000 
#    y 0.000000 1.759850 0.000000 
#    z 0.000000 0.000000 1.746230 
# 
# From -- ./inp_files/6137.got.cif
#   From: 2010.03.12/outbox.cif.g09.slc.cpg/sg72_4_cif.got.tgz:6137.got - 2010.04.16 14:54:00.
