data_PCOD8293797
_publ_section_title
;
Structure prediction by ZEFSAII (Michael W. Deem and Ramdas Pophale) SiO2 
 PCOD8293797
Probable space group: I B A M
;
_chemical_formula_sum "Si O2"
_cell_formula_units_Z 112
_cell_length_a 12.003824
_cell_length_b 21.817541
_cell_length_c 22.385906
_cell_angle_alpha 90.000000
_cell_angle_beta 90.000000
_cell_angle_gamma 90.000000
_cell_volume 5862.732726
_symmetry_space_group_name_H-M "I B A M"
_symmetry_group_IT_number 72
_symmetry_cell_setting 'orthorhombic'
loop_
_space_group_symop_operation_xyz
x,y,z
-x,-y,z
x,-y,1/2-z
-x,y,1/2-z
-x,-y,-z
x,y,-z
-x,y,1/2+z
x,-y,1/2+z
1/2+x,1/2+y,1/2+z
1/2-x,1/2-y,1/2+z
1/2+x,1/2-y,-z
1/2-x,1/2+y,-z
1/2-x,1/2-y,1/2-z
1/2+x,1/2+y,1/2-z
1/2-x,1/2+y,z
1/2+x,1/2-y,z
loop_
_atom_site_type_symbol
_atom_site_label
_atom_site_fract_x
_atom_site_fract_y
_atom_site_fract_z
Si Si1 0.200834 0.758167 0.429918
Si Si2 0.805323 0.370135 0.865792
Si Si3 0.623168 0.309711 0.641991
Si Si4 0.980781 0.698348 0.149397
Si Si5 0.813724 0.972420 0.067470
Si Si6 0.286993 0.819313 0.762457
Si Si7 0.053665 0.086409 0.433005
O O1 0.187407 0.765693 0.500000
O O2 0.223603 0.825057 0.402185
O O3 0.302311 0.714295 0.413005
O O4 0.088894 0.727117 0.404787
O O5 0.773540 0.439046 0.887459
O O6 0.783201 0.362287 0.795236
O O7 0.937590 0.355734 0.875721
O O8 0.561361 0.252535 0.673687
O O9 0.696430 0.345149 0.691139
O O10 0.539963 0.358256 0.613431
O O11 0.907402 0.676431 0.205405
O O12 0.936890 0.946392 0.071565
O O13 0.837907 0.043855 0.083631
O O14 0.766221 0.965877 0.000000
O O15 0.250000 0.750000 0.750000
O O16 0.071791 0.111166 0.500000
#
# Coordination Sequence:
#
# PCOD8293797 Si02
#       7
#    16  16  16  16  16  16  16
#     4  10  20  31  45  74 107 132 169 217 268 328
#     4  11  20  32  53  73 104 141 180 219 268 330
#     4  10  20  32  53  74 102 139 175 213 267 325
#     4  10  20  32  50  76 108 139 176 219 272 333
#     4   9  19  35  54  79 106 137 179 223 272 324
#     4  11  20  35  49  75 106 143 177 217 269 325
#     4   9  18  35  56  76 105 140 176 221 271 326
#
# _framework density 19.103719999999999
#
# number of rings (size 3 to 8) (size 9 to 14) (size 15 to 20)
#    0.000    2.000    4.286    3.000    0.000    4.571 
#    0.000    0.714    0.000    5.143    0.000   13.000 
#    0.000    0.000    0.000    0.000    0.000    0.000 
#
# Total GULP energy -693913.442170 kJ/mol
# GULP energy per Si atom -12391.311467 kJ/mol
# Density = 1.906024 g / cm^3
# Si number density = 19.103720 Si / 1000 Ang^3
#
#
#
# Elastic Constant Matrix: (Units=GPa)
#
#
# Indices 1 2 3 4 5 6 
#
# 1 71.4535 2.3397 29.7308 0.0000 0.0000 0.0000
# 2 2.3397 28.1854 11.1466 0.0000 0.0000 0.0000
# 3 29.7308 11.1466 107.3788 0.0000 0.0000 0.0000
# 4 0.0000 0.0000 0.0000 23.2546 0.0000 0.0000
# 5 0.0000 0.0000 0.0000 0.0000 27.3947 0.0000
# 6 0.0000 0.0000 0.0000 0.0000 0.0000 29.6131
#
#
#
# Elastic Compliance Matrix: (Units=1/GPa)
#
#
# Indices 1 2 3 4 5 6 
#
# 1 0.015823 0.000437 -0.004426 0.000000 0.000000 0.000000
# 2 0.000437 0.037010 -0.003963 0.000000 0.000000 0.000000
# 3 -0.004426 -0.003963 0.010950 0.000000 0.000000 0.000000
# 4 0.000000 0.000000 0.000000 0.043002 0.000000 0.000000
# 5 0.000000 0.000000 0.000000 0.000000 0.036503 0.000000
# 6 0.000000 0.000000 0.000000 0.000000 0.000000 0.033769
#
#
# Mechanical properties :
#
#
# Convention : Reuss Voigt Hill
#
# Bulk Modulus (GPa) = 20.88630 32.60578 26.74604
# Shear Modulus (GPa) = 23.93252 26.97253 25.45252
#
# Velocity S-wave (km/s) = 3.54329 3.76160 3.65407
# Velocity P-wave (km/s) = 5.26276 5.99758 5.64215
#
# Compressibility (1/GPa) = 0.04787827
#
# Stress axis : x y z
#
# Youngs Moduli (GPa) = 63.20110 27.01949 91.32641
#
# Poissons Ratio (x) = -0.01181 0.40424
# Poissons Ratio (y) = -0.02762 0.36192
# Poissons Ratio (z) = 0.27975 0.10708
#
# Static dielectric constant tensor:
#      x y z
#    x 3.777050 0.000000 0.000000 
#    y 0.000000 3.468230 0.000000 
#    z 0.000000 0.000000 3.599720 
# 
# 
# High freq. dielectric constant tensor:
#      x y z
#    x 1.744100 0.000000 0.000000 
#    y 0.000000 1.705140 0.000000 
#    z 0.000000 0.000000 1.742910 
# 
# From -- ./inp_files/43625.got.cif
#   From: 2010.03.12/outbox.cif.g09.slc.cpg/sg72_22_cif.got.tgz:43625.got - 2010.04.16 14:54:00.
