data_PCOD8293907
_publ_section_title
;
Structure prediction by ZEFSAII (Michael W. Deem and Ramdas Pophale) SiO2 
 PCOD8293907
Probable space group: I B A M
;
_chemical_formula_sum "Si O2"
_cell_formula_units_Z 96
_cell_length_a 28.497432
_cell_length_b 16.841965
_cell_length_c 9.179076
_cell_angle_alpha 90.000000
_cell_angle_beta 90.000000
_cell_angle_gamma 90.000000
_cell_volume 4405.522790
_symmetry_space_group_name_H-M "I B A M"
_symmetry_group_IT_number 72
_symmetry_cell_setting 'orthorhombic'
loop_
_space_group_symop_operation_xyz
x,y,z
-x,-y,z
x,-y,1/2-z
-x,y,1/2-z
-x,-y,-z
x,y,-z
-x,y,1/2+z
x,-y,1/2+z
1/2+x,1/2+y,1/2+z
1/2-x,1/2-y,1/2+z
1/2+x,1/2-y,-z
1/2-x,1/2+y,-z
1/2-x,1/2-y,1/2-z
1/2+x,1/2+y,1/2-z
1/2-x,1/2+y,z
1/2+x,1/2-y,z
loop_
_atom_site_type_symbol
_atom_site_label
_atom_site_fract_x
_atom_site_fract_y
_atom_site_fract_z
Si Si1 0.544077 0.344391 0.338272
Si Si2 0.731132 0.580640 0.666283
Si Si3 0.639490 0.668921 0.333700
Si Si4 0.699986 0.182393 0.164096
Si Si5 0.042271 0.339610 0.660230
Si Si6 0.884681 0.420762 0.337033
O O1 0.500000 0.383384 0.250000
O O2 0.547266 0.383429 0.500000
O O3 0.593942 0.355457 0.258306
O O4 0.532431 0.252656 0.357624
O O5 0.744090 0.500000 0.750000
O O6 0.748229 0.571522 0.500000
O O7 0.675328 0.594880 0.674338
O O8 0.755934 0.660074 0.733600
O O9 0.623576 0.686036 0.500000
O O10 0.667571 0.746320 0.273387
O O11 0.669863 0.101312 0.160412
O O12 0.717160 0.204282 0.000000
O O13 0.046523 0.379011 0.500000
O O14 0.089192 0.349733 0.753744
O O15 0.000000 0.380755 0.750000
O O16 0.894390 0.500000 0.250000
O O17 0.904619 0.429762 0.500000
#
# Coordination Sequence:
#
# PCOD8293907 Si02
#       6
#    16  16  16  16  16  16
#     4  10  20  34  58  89 120 154 190 238 291 348
#     4  11  24  40  61  87 121 159 196 241 294 351
#     4  10  21  39  62  90 120 154 196 244 293 346
#     4  10  21  38  60  85 115 151 195 244 291 341
#     4  10  20  34  52  75 104 141 186 233 286 342
#     4  11  22  35  52  74 106 147 189 238 288 339
#
# _framework density 21.79083
#
# number of rings (size 3 to 8) (size 9 to 14) (size 15 to 20)
#    0.000    1.667    1.667    3.000    0.000    6.333 
#    0.000    1.667    0.000    0.500    0.000    3.500 
#    0.000    0.000    0.000    0.000    0.000    0.000 
#
# Total GULP energy -595061.923430 kJ/mol
# GULP energy per Si atom -12397.123405 kJ/mol
# Density = 2.174123 g / cm^3
# Si number density = 21.790830 Si / 1000 Ang^3
#
#
#
# Elastic Constant Matrix: (Units=GPa)
#
#
# Indices 1 2 3 4 5 6 
#
# 1 113.2397 -3.7676 56.7681 0.0000 0.0000 0.0000
# 2 -3.7676 21.3179 3.6321 0.0000 0.0000 0.0000
# 3 56.7681 3.6321 153.4202 0.0000 0.0000 0.0000
# 4 0.0000 0.0000 0.0000 18.7316 0.0000 0.0000
# 5 0.0000 0.0000 0.0000 0.0000 40.4227 0.0000
# 6 0.0000 0.0000 0.0000 0.0000 0.0000 17.2038
#
#
#
# Elastic Compliance Matrix: (Units=1/GPa)
#
#
# Indices 1 2 3 4 5 6 
#
# 1 0.010989 0.002645 -0.004129 0.000000 0.000000 0.000000
# 2 0.002645 0.047736 -0.002109 0.000000 0.000000 0.000000
# 3 -0.004129 -0.002109 0.008096 0.000000 0.000000 0.000000
# 4 0.000000 0.000000 0.000000 0.053386 0.000000 0.000000
# 5 0.000000 0.000000 0.000000 0.000000 0.024739 0.000000
# 6 0.000000 0.000000 0.000000 0.000000 0.000000 0.058127
#
#
# Mechanical properties :
#
#
# Convention : Reuss Voigt Hill
#
# Bulk Modulus (GPa) = 16.76844 44.58255 30.67549
# Shear Modulus (GPa) = 21.72649 30.69462 26.21055
#
# Velocity S-wave (km/s) = 3.16103 3.75721 3.47194
# Velocity P-wave (km/s) = 4.58636 6.27103 5.49366
#
# Compressibility (1/GPa) = 0.05963585
#
# Stress axis : x y z
#
# Youngs Moduli (GPa) = 91.00394 20.94862 123.52359
#
# Poissons Ratio (x) = -0.05542 0.50998
# Poissons Ratio (y) = -0.24075 0.26051
# Poissons Ratio (z) = 0.37572 0.04418
#
# Static dielectric constant tensor:
#      x y z
#    x 3.835250 0.000000 0.000000 
#    y 0.000000 3.453430 0.000000 
#    z 0.000000 0.000000 4.171480 
# 
# 
# High freq. dielectric constant tensor:
#      x y z
#    x 1.858120 0.000000 0.000000 
#    y 0.000000 1.822110 0.000000 
#    z 0.000000 0.000000 1.863900 
# 
# From -- ./inp_files/5981.got.cif
#   From: 2010.03.12/outbox.cif.g09.slc.cpg/sg72_3_cif.got.tgz:5981.got - 2010.04.16 14:54:00.
