data_PCOD8293773
_publ_section_title
;
Structure prediction by ZEFSAII (Michael W. Deem and Ramdas Pophale) SiO2 
 PCOD8293773
Probable space group: I B A M
;
_chemical_formula_sum "Si O2"
_cell_formula_units_Z 112
_cell_length_a 14.370537
_cell_length_b 13.323394
_cell_length_c 27.801246
_cell_angle_alpha 90.000000
_cell_angle_beta 90.000000
_cell_angle_gamma 90.000000
_cell_volume 5322.946840
_symmetry_space_group_name_H-M "I B A M"
_symmetry_group_IT_number 72
_symmetry_cell_setting 'orthorhombic'
loop_
_space_group_symop_operation_xyz
x,y,z
-x,-y,z
x,-y,1/2-z
-x,y,1/2-z
-x,-y,-z
x,y,-z
-x,y,1/2+z
x,-y,1/2+z
1/2+x,1/2+y,1/2+z
1/2-x,1/2-y,1/2+z
1/2+x,1/2-y,-z
1/2-x,1/2+y,-z
1/2-x,1/2-y,1/2-z
1/2+x,1/2+y,1/2-z
1/2-x,1/2+y,z
1/2+x,1/2-y,z
loop_
_atom_site_type_symbol
_atom_site_label
_atom_site_fract_x
_atom_site_fract_y
_atom_site_fract_z
Si Si1 0.851133 0.529507 0.000000
Si Si2 0.854176 0.241355 0.266128
Si Si3 0.790382 0.522492 0.400211
Si Si4 0.374563 0.571413 0.161828
Si Si5 0.427045 0.795986 0.600686
Si Si6 0.019378 0.334083 0.500000
Si Si7 0.930543 0.409907 0.666567
Si Si8 0.078065 0.140518 0.674055
O O1 0.786987 0.531618 0.047828
O O2 0.912514 0.630328 0.000000
O O3 0.917325 0.433054 0.000000
O O4 0.750000 0.250000 0.250000
O O5 0.833308 0.153850 0.303605
O O6 0.896044 0.344080 0.287950
O O7 0.923424 0.208165 0.222424
O O8 0.686510 0.557983 0.386347
O O9 0.849611 0.621711 0.405293
O O10 0.838788 0.452182 0.359950
O O11 0.478642 0.608464 0.152293
O O12 0.368358 0.461458 0.186932
O O13 0.461495 0.766198 0.547215
O O14 0.515474 0.836776 0.630374
O O15 0.379402 0.703409 0.629431
O O16 0.000000 0.500000 0.683403
#
# Coordination Sequence:
#
# PCOD8293773 Si02
#       8
#     8  16  16  16  16   8  16  16
#     4   9  16  32  62  95 132 164 208 266 338 399
#     4  12  24  42  67  93 127 171 223 281 330 398
#     4  10  20  37  63  99 130 164 209 274 334 394
#     4  11  24  42  63  85 123 174 225 259 317 398
#     4  10  19  38  64  95 127 164 208 270 333 393
#     4   9  16  32  64  97 126 166 207 259 344 410
#     4  10  21  38  65  95 131 162 207 274 340 388
#     4  11  24  43  63  85 123 177 223 263 318 396
#
# _framework density 21.040977000000002
#
# number of rings (size 3 to 8) (size 9 to 14) (size 15 to 20)
#    0.000    1.571    2.857    2.571    0.000    1.143 
#    0.000   10.714    0.000    5.143    0.000    0.000 
#    0.000    0.000    0.000    0.000    0.000    0.000 
#
# Total GULP energy -693837.135220 kJ/mol
# GULP energy per Si atom -12389.948843 kJ/mol
# Density = 2.099309 g / cm^3
# Si number density = 21.040977 Si / 1000 Ang^3
#
#
#
# Elastic Constant Matrix: (Units=GPa)
#
#
# Indices 1 2 3 4 5 6 
#
# 1 78.4667 13.5987 45.1292 0.0000 0.0000 0.0000
# 2 13.5987 107.6841 61.5235 0.0000 0.0000 0.0000
# 3 45.1292 61.5235 144.8505 0.0000 0.0000 0.0000
# 4 0.0000 0.0000 0.0000 18.2449 0.0000 0.0000
# 5 0.0000 0.0000 0.0000 0.0000 29.1329 0.0000
# 6 0.0000 0.0000 0.0000 0.0000 0.0000 15.2181
#
#
#
# Elastic Compliance Matrix: (Units=1/GPa)
#
#
# Indices 1 2 3 4 5 6 
#
# 1 0.015619 0.001067 -0.005319 0.000000 0.000000 0.000000
# 2 0.001067 0.012335 -0.005571 0.000000 0.000000 0.000000
# 3 -0.005319 -0.005571 0.010927 0.000000 0.000000 0.000000
# 4 0.000000 0.000000 0.000000 0.054810 0.000000 0.000000
# 5 0.000000 0.000000 0.000000 0.000000 0.034325 0.000000
# 6 0.000000 0.000000 0.000000 0.000000 0.000000 0.065711
#
#
# Mechanical properties :
#
#
# Convention : Reuss Voigt Hill
#
# Bulk Modulus (GPa) = 51.99409 63.50046 57.74728
# Shear Modulus (GPa) = 22.74939 26.56917 24.65928
#
# Velocity S-wave (km/s) = 3.29172 3.55735 3.42711
# Velocity P-wave (km/s) = 6.26193 6.86425 6.57000
#
# Compressibility (1/GPa) = 0.01923295
#
# Stress axis : x y z
#
# Youngs Moduli (GPa) = 64.02603 81.07110 91.51416
#
# Poissons Ratio (x) = -0.08647 0.48678
# Poissons Ratio (y) = -0.06829 0.50986
# Poissons Ratio (z) = 0.34056 0.45168
#
# Static dielectric constant tensor:
#      x y z
#    x 0.000000 0.000000 0.000000 
#    y 0.000000 0.000000 0.000000 
#    z 0.000000 0.000000 0.000000 
# 
# 
# High freq. dielectric constant tensor:
#      x y z
#    x 1.815170 0.000000 0.000000 
#    y 0.000000 1.821330 0.000000 
#    z 0.000000 0.000000 1.818500 
# 
# From -- ./inp_files/48752.got.cif
#   From: 2010.03.12/outbox.cif.g09.slc.cpg/sg72_25_cif.got.tgz:48752.got - 2010.04.16 14:54:00.
