data_PCOD8293361
_publ_section_title
;
Structure prediction by ZEFSAII (Michael W. Deem and Ramdas Pophale) SiO2 
 PCOD8293361
Probable space group: I B A M
;
_chemical_formula_sum "Si O2"
_cell_formula_units_Z 80
_cell_length_a 29.046823
_cell_length_b 9.123414
_cell_length_c 15.602851
_cell_angle_alpha 90.000000
_cell_angle_beta 90.000000
_cell_angle_gamma 90.000000
_cell_volume 4134.852122
_symmetry_space_group_name_H-M "I B A M"
_symmetry_group_IT_number 72
_symmetry_cell_setting 'orthorhombic'
loop_
_space_group_symop_operation_xyz
x,y,z
-x,-y,z
x,-y,1/2-z
-x,y,1/2-z
-x,-y,-z
x,y,-z
-x,y,1/2+z
x,-y,1/2+z
1/2+x,1/2+y,1/2+z
1/2-x,1/2-y,1/2+z
1/2+x,1/2-y,-z
1/2-x,1/2+y,-z
1/2-x,1/2-y,1/2-z
1/2+x,1/2+y,1/2-z
1/2-x,1/2+y,z
1/2+x,1/2-y,z
loop_
_atom_site_type_symbol
_atom_site_label
_atom_site_fract_x
_atom_site_fract_y
_atom_site_fract_z
Si Si1 0.711445 0.572416 0.340856
Si Si2 0.616365 0.354867 0.904040
Si Si3 0.447826 0.325204 0.746577
Si Si4 0.891168 0.797685 0.405309
Si Si5 0.287586 0.736030 0.594923
O O1 0.699827 0.500000 0.250000
O O2 0.668273 0.672714 0.370219
O O3 0.721391 0.438254 0.404682
O O4 0.756056 0.677352 0.337091
O O5 0.579189 0.278122 0.840406
O O6 0.609559 0.527813 0.906306
O O7 0.610066 0.288920 0.000000
O O8 0.445882 0.500000 0.750000
O O9 0.500000 0.267917 0.750000
O O10 0.424958 0.247754 0.829521
O O11 0.907542 0.742906 0.500000
O O12 0.840943 0.732653 0.383815
O O13 0.274978 0.792165 0.500000
#
# Coordination Sequence:
#
# PCOD8293361 Si02
#       5
#    16  16  16  16  16
#     4  11  20  31  48  70  96 128 162 197 236 282
#     4   9  16  27  41  59  86 120 152 186 231 280
#     4   9  16  25  38  58  84 114 151 192 231 276
#     4   8  15  27  42  59  85 119 151 184 230 281
#     4  10  19  32  48  68  95 128 160 192 233 284
#
# _framework density 19.347728
#
# number of rings (size 3 to 8) (size 9 to 14) (size 15 to 20)
#    0.000    2.600    0.000    6.600    0.000    0.800 
#    0.000    4.000    0.000    0.000    0.000    0.000 
#    0.000    7.200    0.000   21.800    0.000   27.400 
#
# Total GULP energy -495721.069528 kJ/mol
# GULP energy per Si atom -12393.026738 kJ/mol
# Density = 1.930369 g / cm^3
# Si number density = 19.347728 Si / 1000 Ang^3
#
#
#
# Elastic Constant Matrix: (Units=GPa)
#
#
# Indices 1 2 3 4 5 6 
#
# 1 157.2070 23.8834 94.1077 0.0000 0.0000 0.0000
# 2 23.8834 14.9542 8.8140 0.0000 0.0000 0.0000
# 3 94.1077 8.8140 164.9518 0.0000 0.0000 0.0000
# 4 0.0000 0.0000 0.0000 5.9039 0.0000 0.0000
# 5 0.0000 0.0000 0.0000 0.0000 29.9245 0.0000
# 6 0.0000 0.0000 0.0000 0.0000 0.0000 15.7886
#
#
#
# Elastic Compliance Matrix: (Units=1/GPa)
#
#
# Indices 1 2 3 4 5 6 
#
# 1 0.012663 -0.016485 -0.006344 0.000000 0.000000 0.000000
# 2 -0.016485 0.090506 0.004569 0.000000 0.000000 0.000000
# 3 -0.006344 0.004569 0.009437 0.000000 0.000000 0.000000
# 4 0.000000 0.000000 0.000000 0.169379 0.000000 0.000000
# 5 0.000000 0.000000 0.000000 0.000000 0.033417 0.000000
# 6 0.000000 0.000000 0.000000 0.000000 0.000000 0.063337
#
#
# Mechanical properties :
#
#
# Convention : Reuss Voigt Hill
#
# Bulk Modulus (GPa) = 13.14285 65.63594 39.38939
# Shear Modulus (GPa) = 11.34761 24.34392 17.84576
#
# Velocity S-wave (km/s) = 2.42442 3.55100 3.04035
# Velocity P-wave (km/s) = 3.82685 7.12817 5.72082
#
# Compressibility (1/GPa) = 0.07608700
#
# Stress axis : x y z
#
# Youngs Moduli (GPa) = 78.97088 11.04897 105.96223
#
# Poissons Ratio (x) = 0.18214 0.67217
# Poissons Ratio (y) = 1.30184 -0.48413
# Poissons Ratio (z) = 0.50095 -0.05048
#
# Static dielectric constant tensor:
#      x y z
#    x 3.602300 0.000000 0.000000 
#    y 0.000000 2.787880 0.000000 
#    z 0.000000 0.000000 3.928060 
# 
# 
# High freq. dielectric constant tensor:
#      x y z
#    x 1.749760 0.000000 0.000000 
#    y 0.000000 1.668570 0.000000 
#    z 0.000000 0.000000 1.773990 
# 
# From -- ./inp_files/20182.got.cif
#   From: 2010.03.12/outbox.cif.g09.slc.cpg/sg72_11_cif.got.tgz:20182.got - 2010.04.16 14:54:00.
