data_PCOD8293647
_publ_section_title
;
Structure prediction by ZEFSAII (Michael W. Deem and Ramdas Pophale) SiO2 
 PCOD8293647
Probable space group: I B A M
;
_chemical_formula_sum "Si O2"
_cell_formula_units_Z 116
_cell_length_a 22.883132
_cell_length_b 27.566903
_cell_length_c 8.629148
_cell_angle_alpha 90.000000
_cell_angle_beta 90.000000
_cell_angle_gamma 90.000000
_cell_volume 5443.413946
_symmetry_space_group_name_H-M "I B A M"
_symmetry_group_IT_number 72
_symmetry_cell_setting 'orthorhombic'
loop_
_space_group_symop_operation_xyz
x,y,z
-x,-y,z
x,-y,1/2-z
-x,y,1/2-z
-x,-y,-z
x,y,-z
-x,y,1/2+z
x,-y,1/2+z
1/2+x,1/2+y,1/2+z
1/2-x,1/2-y,1/2+z
1/2+x,1/2-y,-z
1/2-x,1/2+y,-z
1/2-x,1/2-y,1/2-z
1/2+x,1/2+y,1/2-z
1/2-x,1/2+y,z
1/2+x,1/2-y,z
loop_
_atom_site_type_symbol
_atom_site_label
_atom_site_fract_x
_atom_site_fract_y
_atom_site_fract_z
Si Si1 0.118994 0.650262 0.680666
Si Si2 0.000000 0.000000 0.750000
Si Si3 0.935953 0.449647 0.683220
Si Si4 0.632400 0.675550 0.679674
Si Si5 0.749866 0.646423 0.821412
Si Si6 0.439329 0.240838 0.820263
Si Si7 0.274161 0.451370 0.322191
Si Si8 0.407624 0.430520 0.320639
O O1 0.106106 0.655127 0.500000
O O2 0.105384 0.595214 0.734702
O O3 0.185601 0.666093 0.718257
O O4 0.076413 0.686985 0.766637
O O5 0.951216 0.040852 0.801583
O O6 0.909676 0.500000 0.750000
O O7 0.940174 0.454271 0.500000
O O8 0.000000 0.439938 0.750000
O O9 0.624663 0.686968 0.500000
O O10 0.701441 0.671336 0.713639
O O11 0.609832 0.720482 0.776933
O O12 0.597037 0.626400 0.723583
O O13 0.752272 0.589613 0.786663
O O14 0.733394 0.655208 0.000000
O O15 0.500000 0.258617 0.750000
O O16 0.447528 0.239625 0.000000
O O17 0.247725 0.500000 0.250000
O O18 0.254625 0.443934 0.500000
O O19 0.343928 0.453087 0.309282
O O20 0.431321 0.437732 0.500000
#
# Coordination Sequence:
#
# PCOD8293647 Si02
#       8
#    16   4  16  16  16  16  16  16
#     4  10  23  42  64  93 128 162 205 258 306 369
#     4  12  18  32  52  86 116 152 206 248 306 356
#     4  10  20  36  59  89 125 165 204 248 304 364
#     4  10  22  43  64  88 124 163 209 260 311 371
#     4  10  21  39  62  90 121 159 205 254 315 377
#     4  12  26  44  68  96 124 162 206 251 312 370
#     4  10  19  35  54  78 114 157 204 254 310 368
#     4   9  20  34  51  79 115 154 196 249 306 359
#
# _framework density 21.310155999999999
#
# number of rings (size 3 to 8) (size 9 to 14) (size 15 to 20)
#    0.000    1.793    0.690    4.759    0.966    4.414 
#    0.000    2.759    0.000    0.000    0.000    0.000 
#    0.000    0.000    0.000    0.000    0.000    0.000 
#
# Total GULP energy -718506.780019 kJ/mol
# GULP energy per Si atom -12388.047931 kJ/mol
# Density = 2.126165 g / cm^3
# Si number density = 21.310156 Si / 1000 Ang^3
#
#
#
# Elastic Constant Matrix: (Units=GPa)
#
#
# Indices 1 2 3 4 5 6 
#
# 1 70.9157 31.6498 35.8223 0.0000 0.0000 0.0000
# 2 31.6498 116.1011 36.3256 0.0000 0.0000 0.0000
# 3 35.8223 36.3256 49.2904 0.0000 0.0000 0.0000
# 4 0.0000 0.0000 0.0000 27.3522 0.0000 0.0000
# 5 0.0000 0.0000 0.0000 0.0000 22.6235 0.0000
# 6 0.0000 0.0000 0.0000 0.0000 0.0000 26.3108
#
#
#
# Elastic Compliance Matrix: (Units=1/GPa)
#
#
# Indices 1 2 3 4 5 6 
#
# 1 0.022435 -0.001318 -0.015333 0.000000 0.000000 0.000000
# 2 -0.001318 0.011272 -0.007349 0.000000 0.000000 0.000000
# 3 -0.015333 -0.007349 0.036847 0.000000 0.000000 0.000000
# 4 0.000000 0.000000 0.000000 0.036560 0.000000 0.000000
# 5 0.000000 0.000000 0.000000 0.000000 0.044202 0.000000
# 6 0.000000 0.000000 0.000000 0.000000 0.000000 0.038007
#
#
# Mechanical properties :
#
#
# Convention : Reuss Voigt Hill
#
# Bulk Modulus (GPa) = 44.33950 49.32252 46.83101
# Shear Modulus (GPa) = 20.42128 24.09128 22.25628
#
# Velocity S-wave (km/s) = 3.09898 3.36595 3.23522
# Velocity P-wave (km/s) = 5.80145 6.18882 5.99826
#
# Compressibility (1/GPa) = 0.02255325
#
# Stress axis : x y z
#
# Youngs Moduli (GPa) = 44.57296 88.71614 27.13890
#
# Poissons Ratio (x) = 0.11697 0.41613
# Poissons Ratio (y) = 0.05877 0.19944
# Poissons Ratio (z) = 0.68345 0.65196
#
# Static dielectric constant tensor:
#      x y z
#    x 3.925660 0.000000 0.000000 
#    y 0.000000 4.039410 0.000000 
#    z 0.000000 0.000000 3.764100 
# 
# 
# High freq. dielectric constant tensor:
#      x y z
#    x 1.836610 0.000000 0.000000 
#    y 0.000000 1.844780 0.000000 
#    z 0.000000 0.000000 1.822450 
# 
# From -- ./inp_files/7358.got.cif
#   From: 2010.03.12/outbox.cif.g09.slc.cpg/sg72_4_cif.got.tgz:7358.got - 2010.04.16 14:54:00.
