data_PCOD8293878
_publ_section_title
;
Structure prediction by ZEFSAII (Michael W. Deem and Ramdas Pophale) SiO2 
 PCOD8293878
Probable space group: I B A M
;
_chemical_formula_sum "Si O2"
_cell_formula_units_Z 88
_cell_length_a 21.602030
_cell_length_b 21.600459
_cell_length_c 9.684915
_cell_angle_alpha 90.000000
_cell_angle_beta 90.000000
_cell_angle_gamma 90.000000
_cell_volume 4519.114636
_symmetry_space_group_name_H-M "I B A M"
_symmetry_group_IT_number 72
_symmetry_cell_setting 'orthorhombic'
loop_
_space_group_symop_operation_xyz
x,y,z
-x,-y,z
x,-y,1/2-z
-x,y,1/2-z
-x,-y,-z
x,y,-z
-x,y,1/2+z
x,-y,1/2+z
1/2+x,1/2+y,1/2+z
1/2-x,1/2-y,1/2+z
1/2+x,1/2-y,-z
1/2-x,1/2+y,-z
1/2-x,1/2-y,1/2-z
1/2+x,1/2+y,1/2-z
1/2-x,1/2+y,z
1/2+x,1/2-y,z
loop_
_atom_site_type_symbol
_atom_site_label
_atom_site_fract_x
_atom_site_fract_y
_atom_site_fract_z
Si Si1 0.532332 0.567743 0.500000
Si Si2 0.553814 0.842061 0.500000
Si Si3 0.733329 0.061032 0.342987
Si Si4 0.385614 0.127479 0.213274
Si Si5 0.367149 0.572187 0.771961
Si Si6 0.090762 0.137257 0.500000
Si Si7 0.063790 0.278794 0.500000
Si Si8 0.046120 0.556899 0.000000
O O1 0.500000 0.500000 0.500000
O O2 0.573424 0.582129 0.633056
O O3 0.480170 0.618574 0.500000
O O4 0.594793 0.859571 0.369432
O O5 0.513585 0.777341 0.500000
O O6 0.493004 0.882091 0.500000
O O7 0.717186 0.042295 0.500000
O O8 0.687830 0.115508 0.289467
O O9 0.801748 0.091602 0.338815
O O10 0.726406 0.000000 0.250000
O O11 0.406524 0.188744 0.133949
O O12 0.413989 0.064137 0.141824
O O13 0.362220 0.500000 0.750000
O O14 0.374201 0.610139 0.632001
O O15 0.091871 0.210690 0.500000
O O16 0.000000 0.500000 0.000000
#
# Coordination Sequence:
#
# PCOD8293878 Si02
#       8
#     8   8  16  16  16   8   8   8
#     4  12  22  38  63  95 133 161 192 254 328 399
#     4  10  22  35  60  92 119 166 219 265 318 363
#     4  11  24  41  64  94 132 172 214 265 326 384
#     4  10  22  40  63  85 129 175 211 274 315 367
#     4  11  23  41  63  96 135 159 202 263 323 383
#     4  12  26  39  71 101 123 169 213 250 319 405
#     4  10  22  47  61  87 135 172 212 260 322 372
#     4  10  20  33  53  83 128 168 207 269 324 379
#
# _framework density 19.472840999999999
#
# number of rings (size 3 to 8) (size 9 to 14) (size 15 to 20)
#    0.000    1.455    4.545    2.727    7.636    3.636 
#    0.000    0.909    0.000    0.000    0.000    0.000 
#    0.000    0.000    0.000    0.000    0.000    0.000 
#
# Total GULP energy -545140.411855 kJ/mol
# GULP energy per Si atom -12389.554815 kJ/mol
# Density = 1.942852 g / cm^3
# Si number density = 19.472841 Si / 1000 Ang^3
#
#
#
# Elastic Constant Matrix: (Units=GPa)
#
#
# Indices 1 2 3 4 5 6 
#
# 1 123.4287 40.9169 50.2916 0.0000 0.0000 0.0000
# 2 40.9169 93.2396 42.9169 0.0000 0.0000 0.0000
# 3 50.2916 42.9169 163.2930 0.0000 0.0000 0.0000
# 4 0.0000 0.0000 0.0000 18.0486 0.0000 0.0000
# 5 0.0000 0.0000 0.0000 0.0000 46.9198 0.0000
# 6 0.0000 0.0000 0.0000 0.0000 0.0000 31.3118
#
#
#
# Elastic Compliance Matrix: (Units=1/GPa)
#
#
# Indices 1 2 3 4 5 6 
#
# 1 0.010144 -0.003428 -0.002223 0.000000 0.000000 0.000000
# 2 -0.003428 0.013360 -0.002455 0.000000 0.000000 0.000000
# 3 -0.002223 -0.002455 0.007454 0.000000 0.000000 0.000000
# 4 0.000000 0.000000 0.000000 0.055406 0.000000 0.000000
# 5 0.000000 0.000000 0.000000 0.000000 0.021313 0.000000
# 6 0.000000 0.000000 0.000000 0.000000 0.000000 0.031937
#
#
# Mechanical properties :
#
#
# Convention : Reuss Voigt Hill
#
# Bulk Modulus (GPa) = 67.82365 72.02356 69.92360
# Shear Modulus (GPa) = 31.10574 35.64510 33.37542
#
# Velocity S-wave (km/s) = 4.00107 4.28308 4.14448
# Velocity P-wave (km/s) = 7.50002 7.84389 7.67388
#
# Compressibility (1/GPa) = 0.01474412
#
# Stress axis : x y z
#
# Youngs Moduli (GPa) = 98.57848 74.85203 134.15629
#
# Poissons Ratio (x) = 0.25662 0.29826
# Poissons Ratio (y) = 0.33796 0.32940
# Poissons Ratio (z) = 0.21916 0.18379
#
# Static dielectric constant tensor:
#      x y z
#    x 4.397830 0.000000 0.000000 
#    y 0.000000 23.328780 0.000000 
#    z 0.000000 0.000000 3.674660 
# 
# 
# High freq. dielectric constant tensor:
#      x y z
#    x 1.773530 0.000000 0.000000 
#    y 0.000000 1.722360 0.000000 
#    z 0.000000 0.000000 1.772770 
# 
# From -- ./inp_files/5822.got.cif
#   From: 2010.03.12/outbox.cif.g09.slc.cpg/sg72_3_cif.got.tgz:5822.got - 2010.04.16 14:54:00.
