data_PCOD8293741
_publ_section_title
;
Structure prediction by ZEFSAII (Michael W. Deem and Ramdas Pophale) SiO2 
 PCOD8293741
Probable space group: I B A M
;
_chemical_formula_sum "Si O2"
_cell_formula_units_Z 96
_cell_length_a 27.466651
_cell_length_b 10.022922
_cell_length_c 17.627885
_cell_angle_alpha 90.000000
_cell_angle_beta 90.000000
_cell_angle_gamma 90.000000
_cell_volume 4852.888002
_symmetry_space_group_name_H-M "I B A M"
_symmetry_group_IT_number 72
_symmetry_cell_setting 'orthorhombic'
loop_
_space_group_symop_operation_xyz
x,y,z
-x,-y,z
x,-y,1/2-z
-x,y,1/2-z
-x,-y,-z
x,y,-z
-x,y,1/2+z
x,-y,1/2+z
1/2+x,1/2+y,1/2+z
1/2-x,1/2-y,1/2+z
1/2+x,1/2-y,-z
1/2-x,1/2+y,-z
1/2-x,1/2-y,1/2-z
1/2+x,1/2+y,1/2-z
1/2-x,1/2+y,z
1/2+x,1/2-y,z
loop_
_atom_site_type_symbol
_atom_site_label
_atom_site_fract_x
_atom_site_fract_y
_atom_site_fract_z
Si Si1 0.605229 0.497657 0.339491
Si Si2 0.570495 0.241591 0.089577
Si Si3 0.795504 0.913282 0.589158
Si Si4 0.214045 0.611856 0.088781
Si Si5 0.391909 0.042718 0.090333
Si Si6 0.040806 0.782765 0.089617
O O1 0.604090 0.500000 0.250000
O O2 0.603604 0.647711 0.370636
O O3 0.653982 0.426682 0.367646
O O4 0.558676 0.417428 0.370410
O O5 0.514572 0.257755 0.113372
O O6 0.589009 0.099156 0.119984
O O7 0.577529 0.254284 0.000000
O O8 0.805569 0.933379 0.500000
O O9 0.757066 0.020100 0.622661
O O10 0.774224 0.766140 0.605774
O O11 0.161965 0.569524 0.123788
O O12 0.211808 0.583154 0.000000
O O13 0.427901 0.157852 0.119900
O O14 0.391752 0.045773 0.000000
O O15 0.046479 0.802098 0.000000
#
# Coordination Sequence:
#
# PCOD8293741 Si02
#       6
#    16  16  16  16  16  16
#     4  12  25  39  55  80 118 162 198 231 283 340
#     4  10  21  35  60  91 114 144 191 243 289 340
#     4  10  20  37  61  87 112 145 190 241 290 342
#     4   9  18  32  59  90 114 142 181 234 290 337
#     4   9  17  33  59  91 118 141 179 237 296 347
#     4  10  19  37  62  86 114 149 189 239 294 341
#
# _framework density 19.782035
#
# number of rings (size 3 to 8) (size 9 to 14) (size 15 to 20)
#    0.000    2.000    1.667    2.500    2.333    4.667 
#    0.000    1.667    0.000    2.000    0.000    0.000 
#    0.000    0.000    0.000    0.000    0.000    0.000 
#
# Total GULP energy -595343.953367 kJ/mol
# GULP energy per Si atom -12402.999028 kJ/mol
# Density = 1.973701 g / cm^3
# Si number density = 19.782035 Si / 1000 Ang^3
#
#
#
# Elastic Constant Matrix: (Units=GPa)
#
#
# Indices 1 2 3 4 5 6 
#
# 1 90.7322 32.4583 21.5596 0.0000 0.0000 0.0000
# 2 32.4583 123.2037 23.3648 0.0000 0.0000 0.0000
# 3 21.5596 23.3648 37.0095 0.0000 0.0000 0.0000
# 4 0.0000 0.0000 0.0000 1.7726 0.0000 0.0000
# 5 0.0000 0.0000 0.0000 0.0000 16.1853 0.0000
# 6 0.0000 0.0000 0.0000 0.0000 0.0000 47.5054
#
#
#
# Elastic Compliance Matrix: (Units=1/GPa)
#
#
# Indices 1 2 3 4 5 6 
#
# 1 0.013352 -0.002320 -0.006313 0.000000 0.000000 0.000000
# 2 -0.002320 0.009624 -0.004724 0.000000 0.000000 0.000000
# 3 -0.006313 -0.004724 0.033680 0.000000 0.000000 0.000000
# 4 0.000000 0.000000 0.000000 0.564150 0.000000 0.000000
# 5 0.000000 0.000000 0.000000 0.000000 0.061784 0.000000
# 6 0.000000 0.000000 0.000000 0.000000 0.000000 0.021050
#
#
# Mechanical properties :
#
#
# Convention : Reuss Voigt Hill
#
# Bulk Modulus (GPa) = 33.39924 45.07896 39.23910
# Shear Modulus (GPa) = 6.75370 24.66351 15.70861
#
# Velocity S-wave (km/s) = 1.84972 3.53478 2.82101
# Velocity P-wave (km/s) = 4.63489 6.28466 5.52174
#
# Compressibility (1/GPa) = 0.02994081
#
# Stress axis : x y z
#
# Youngs Moduli (GPa) = 74.89742 103.90905 29.69113
#
# Poissons Ratio (x) = 0.24110 0.18744
# Poissons Ratio (y) = 0.17378 0.14026
# Poissons Ratio (z) = 0.47283 0.49087
#
# Static dielectric constant tensor:
#      x y z
#    x 3.778840 0.000000 0.000000 
#    y 0.000000 3.835000 0.000000 
#    z 0.000000 0.000000 3.056560 
# 
# 
# High freq. dielectric constant tensor:
#      x y z
#    x 1.782260 0.000000 0.000000 
#    y 0.000000 1.790680 0.000000 
#    z 0.000000 0.000000 1.712990 
# 
# From -- ./inp_files/36033.got.cif
#   From: 2010.03.12/outbox.cif.g09.slc.cpg/sg72_19_cif.got.tgz:36033.got - 2010.04.16 14:54:00.
