data_PCOD8293717
_publ_section_title
;
Structure prediction by ZEFSAII (Michael W. Deem and Ramdas Pophale) SiO2 
 PCOD8293717
Probable space group: I B A M
;
_chemical_formula_sum "Si O2"
_cell_formula_units_Z 96
_cell_length_a 21.091491
_cell_length_b 14.169840
_cell_length_c 14.259573
_cell_angle_alpha 90.000000
_cell_angle_beta 90.000000
_cell_angle_gamma 90.000000
_cell_volume 4261.659519
_symmetry_space_group_name_H-M "I B A M"
_symmetry_group_IT_number 72
_symmetry_cell_setting 'orthorhombic'
loop_
_space_group_symop_operation_xyz
x,y,z
-x,-y,z
x,-y,1/2-z
-x,y,1/2-z
-x,-y,-z
x,y,-z
-x,y,1/2+z
x,-y,1/2+z
1/2+x,1/2+y,1/2+z
1/2-x,1/2-y,1/2+z
1/2+x,1/2-y,-z
1/2-x,1/2+y,-z
1/2-x,1/2-y,1/2-z
1/2+x,1/2+y,1/2-z
1/2-x,1/2+y,z
1/2+x,1/2-y,z
loop_
_atom_site_type_symbol
_atom_site_label
_atom_site_fract_x
_atom_site_fract_y
_atom_site_fract_z
Si Si1 0.425585 0.392561 0.248215
Si Si2 0.332747 0.650480 0.101805
Si Si3 0.657639 0.865381 0.602084
Si Si4 0.487122 0.897017 0.890658
Si Si5 0.719723 0.152690 0.283202
Si Si6 0.101426 0.731867 0.112019
O O1 0.401973 0.500000 0.250000
O O2 0.500000 0.384651 0.250000
O O3 0.399497 0.351011 0.345091
O O4 0.397331 0.335862 0.159174
O O5 0.316762 0.760156 0.088353
O O6 0.275490 0.599286 0.159383
O O7 0.339392 0.601329 0.000000
O O8 0.667037 0.918060 0.500000
O O9 0.583980 0.864581 0.631563
O O10 0.697098 0.908028 0.690768
O O11 0.537776 0.821214 0.851308
O O12 0.500000 0.000000 0.845349
O O13 0.500498 0.903134 0.000000
O O14 0.750000 0.250000 0.250000
O O15 0.660792 0.170546 0.352639
O O16 0.104699 0.744104 0.000000
#
# Coordination Sequence:
#
# PCOD8293717 Si02
#       6
#    16  16  16  16  16  16
#     4  11  24  41  63  92 123 154 206 270 322 384
#     4  10  20  39  64  86 119 162 201 251 318 382
#     4   9  17  32  59  87 120 164 202 249 310 366
#     4   9  19  36  59  93 131 167 208 252 305 374
#     4  10  19  36  60  88 120 163 215 257 301 379
#     4  11  22  38  64  92 125 168 212 257 314 380
#
# _framework density 22.526437000000001
#
# number of rings (size 3 to 8) (size 9 to 14) (size 15 to 20)
#    0.000    2.000    3.333    1.500    0.000    3.333 
#    0.000    5.000    0.000    2.000    0.000    0.000 
#    0.000    0.000    0.000    0.000    0.000    0.000 
#
# Total GULP energy -594717.284315 kJ/mol
# GULP energy per Si atom -12389.943423 kJ/mol
# Density = 2.247517 g / cm^3
# Si number density = 22.526437 Si / 1000 Ang^3
#
#
#
# Elastic Constant Matrix: (Units=GPa)
#
#
# Indices 1 2 3 4 5 6 
#
# 1 132.7020 12.4162 78.2458 0.0000 0.0000 0.0000
# 2 12.4162 53.4088 27.4426 0.0000 0.0000 0.0000
# 3 78.2458 27.4426 185.5428 0.0000 0.0000 0.0000
# 4 0.0000 0.0000 0.0000 9.1507 0.0000 0.0000
# 5 0.0000 0.0000 0.0000 0.0000 36.6010 0.0000
# 6 0.0000 0.0000 0.0000 0.0000 0.0000 7.5777
#
#
#
# Elastic Compliance Matrix: (Units=1/GPa)
#
#
# Indices 1 2 3 4 5 6 
#
# 1 0.010031 -0.000171 -0.004205 0.000000 0.000000 0.000000
# 2 -0.000171 0.020266 -0.002925 0.000000 0.000000 0.000000
# 3 -0.004205 -0.002925 0.007595 0.000000 0.000000 0.000000
# 4 0.000000 0.000000 0.000000 0.109281 0.000000 0.000000
# 5 0.000000 0.000000 0.000000 0.000000 0.027322 0.000000
# 6 0.000000 0.000000 0.000000 0.000000 0.000000 0.131966
#
#
# Mechanical properties :
#
#
# Convention : Reuss Voigt Hill
#
# Bulk Modulus (GPa) = 42.93693 67.54029 55.23861
# Shear Modulus (GPa) = 15.20551 27.56914 21.38732
#
# Velocity S-wave (km/s) = 2.60091 3.50216 3.08463
# Velocity P-wave (km/s) = 5.30299 6.81185 6.10422
#
# Compressibility (1/GPa) = 0.02328997
#
# Stress axis : x y z
#
# Youngs Moduli (GPa) = 99.69030 49.34279 131.65704
#
# Poissons Ratio (x) = 0.00846 0.55360
# Poissons Ratio (y) = 0.01709 0.38512
# Poissons Ratio (z) = 0.41919 0.14434
#
# Static dielectric constant tensor:
#      x y z
#    x 4.220320 0.000000 0.000000 
#    y 0.000000 3.811440 0.000000 
#    z 0.000000 0.000000 5.051680 
# 
# 
# High freq. dielectric constant tensor:
#      x y z
#    x 1.896720 0.000000 0.000000 
#    y 0.000000 1.845910 0.000000 
#    z 0.000000 0.000000 1.903280 
# 
# From -- ./inp_files/24129.got.cif
#   From: 2010.03.12/outbox.cif.g09.slc.cpg/sg72_13_cif.got.tgz:24129.got - 2010.04.16 14:54:00.
