data_PCOD8293079
_publ_section_title
;
Structure prediction by ZEFSAII (Michael W. Deem and Ramdas Pophale) SiO2 
 PCOD8293079
Probable space group: I B A M
;
_chemical_formula_sum "Si O2"
_cell_formula_units_Z 96
_cell_length_a 20.225665
_cell_length_b 14.982894
_cell_length_c 17.162116
_cell_angle_alpha 90.000000
_cell_angle_beta 90.000000
_cell_angle_gamma 90.000000
_cell_volume 5200.790381
_symmetry_space_group_name_H-M "I B A M"
_symmetry_group_IT_number 72
_symmetry_cell_setting 'orthorhombic'
loop_
_space_group_symop_operation_xyz
x,y,z
-x,-y,z
x,-y,1/2-z
-x,y,1/2-z
-x,-y,-z
x,y,-z
-x,y,1/2+z
x,-y,1/2+z
1/2+x,1/2+y,1/2+z
1/2-x,1/2-y,1/2+z
1/2+x,1/2-y,-z
1/2-x,1/2+y,-z
1/2-x,1/2-y,1/2-z
1/2+x,1/2+y,1/2-z
1/2-x,1/2+y,z
1/2+x,1/2-y,z
loop_
_atom_site_type_symbol
_atom_site_label
_atom_site_fract_x
_atom_site_fract_y
_atom_site_fract_z
Si Si1 0.694272 0.997466 0.592052
Si Si2 0.314260 0.389312 0.591328
Si Si3 0.845582 0.305235 0.408917
Si Si4 0.513784 0.772265 0.340484
Si Si5 0.461507 0.587174 0.092447
Si Si6 0.444456 0.066534 0.907932
O O1 0.695304 0.011455 0.500000
O O2 0.756507 0.050377 0.630187
O O3 0.626772 0.038554 0.626783
O O4 0.698234 0.891904 0.612601
O O5 0.312553 0.406014 0.500000
O O6 0.303458 0.284002 0.610251
O O7 0.385961 0.419814 0.622794
O O8 0.866276 0.306589 0.500000
O O9 0.912876 0.307052 0.359929
O O10 0.500000 0.779082 0.250000
O O11 0.502632 0.671549 0.369160
O O12 0.459784 0.832488 0.384171
O O13 0.500000 0.500000 0.120750
O O14 0.463870 0.599493 0.000000
O O15 0.500000 0.000000 0.872972
O O16 0.442963 0.057307 0.000000
#
# Coordination Sequence:
#
# PCOD8293079 Si02
#       6
#    16  16  16  16  16  16
#     4   9  16  28  48  74 101 133 168 209 257 305
#     4   8  15  28  48  76 103 126 162 209 259 311
#     4   9  16  31  52  72 104 141 170 209 269 312
#     4  11  21  32  50  77 104 139 173 213 258 312
#     4   9  18  35  57  79 102 131 169 217 265 303
#     4  10  18  31  51  75 102 133 171 213 261 306
#
# _framework density 18.458734
#
# number of rings (size 3 to 8) (size 9 to 14) (size 15 to 20)
#    0.000    2.667    1.667    2.500    0.000    0.667 
#    3.000    0.000    0.000    4.000    8.667    0.000 
#    0.000    0.000    0.000    0.000    0.000    0.000 
#
# Total GULP energy -595014.641761 kJ/mol
# GULP energy per Si atom -12396.138370 kJ/mol
# Density = 1.841672 g / cm^3
# Si number density = 18.458734 Si / 1000 Ang^3
#
#
#
# Elastic Constant Matrix: (Units=GPa)
#
#
# Indices 1 2 3 4 5 6 
#
# 1 123.0396 98.0207 20.3661 0.0000 0.0000 0.0000
# 2 98.0207 169.6117 14.2399 0.0000 0.0000 0.0000
# 3 20.3661 14.2399 23.3708 0.0000 0.0000 0.0000
# 4 0.0000 0.0000 0.0000 6.8171 0.0000 0.0000
# 5 0.0000 0.0000 0.0000 0.0000 8.5781 0.0000
# 6 0.0000 0.0000 0.0000 0.0000 0.0000 40.1798
#
#
#
# Elastic Compliance Matrix: (Units=1/GPa)
#
#
# Indices 1 2 3 4 5 6 
#
# 1 0.016736 -0.008903 -0.009160 0.000000 0.000000 0.000000
# 2 -0.008903 0.010950 0.001087 0.000000 0.000000 0.000000
# 3 -0.009160 0.001087 0.050109 0.000000 0.000000 0.000000
# 4 0.000000 0.000000 0.000000 0.146690 0.000000 0.000000
# 5 0.000000 0.000000 0.000000 0.000000 0.116576 0.000000
# 6 0.000000 0.000000 0.000000 0.000000 0.000000 0.024888
#
#
# Mechanical properties :
#
#
# Convention : Reuss Voigt Hill
#
# Bulk Modulus (GPa) = 22.80913 64.58617 43.69765
# Shear Modulus (GPa) = 12.06228 23.34137 17.70182
#
# Velocity S-wave (km/s) = 2.55908 3.55986 3.10012
# Velocity P-wave (km/s) = 4.59516 7.20849 6.04474
#
# Compressibility (1/GPa) = 0.04384209
#
# Stress axis : x y z
#
# Youngs Moduli (GPa) = 59.74973 91.32552 19.95665
#
# Poissons Ratio (x) = 0.81309 0.18280
# Poissons Ratio (y) = 0.53196 -0.02169
# Poissons Ratio (z) = 0.54731 -0.09925
#
# Static dielectric constant tensor:
#      x y z
#    x 3.615600 0.000000 0.000000 
#    y 0.000000 3.653720 0.000000 
#    z 0.000000 0.000000 2.864950 
# 
# 
# High freq. dielectric constant tensor:
#      x y z
#    x 1.705900 0.000000 0.000000 
#    y 0.000000 1.731320 0.000000 
#    z 0.000000 0.000000 1.664030 
# 
# From -- ./inp_files/21859.got.cif
#   From: 2010.03.12/outbox.cif.g09.slc.cpg/sg72_11_cif.got.tgz:21859.got - 2010.04.16 14:54:00.
