data_PCOD8293218
_publ_section_title
;
Structure prediction by ZEFSAII (Michael W. Deem and Ramdas Pophale) SiO2 
 PCOD8293218
Probable space group: I B A M
;
_chemical_formula_sum "Si O2"
_cell_formula_units_Z 88
_cell_length_a 20.710635
_cell_length_b 9.221583
_cell_length_c 22.583023
_cell_angle_alpha 90.000000
_cell_angle_beta 90.000000
_cell_angle_gamma 90.000000
_cell_volume 4313.015026
_symmetry_space_group_name_H-M "I B A M"
_symmetry_group_IT_number 72
_symmetry_cell_setting 'orthorhombic'
loop_
_space_group_symop_operation_xyz
x,y,z
-x,-y,z
x,-y,1/2-z
-x,y,1/2-z
-x,-y,-z
x,y,-z
-x,y,1/2+z
x,-y,1/2+z
1/2+x,1/2+y,1/2+z
1/2-x,1/2-y,1/2+z
1/2+x,1/2-y,-z
1/2-x,1/2+y,-z
1/2-x,1/2-y,1/2-z
1/2+x,1/2+y,1/2-z
1/2-x,1/2+y,z
1/2+x,1/2-y,z
loop_
_atom_site_type_symbol
_atom_site_label
_atom_site_fract_x
_atom_site_fract_y
_atom_site_fract_z
Si Si1 0.560975 0.841346 0.278598
Si Si2 0.493539 0.159263 0.595314
Si Si3 0.140299 0.306530 0.597336
Si Si4 0.322990 0.024801 0.500000
Si Si5 0.325173 0.579010 0.500000
Si Si6 0.810811 0.336730 0.228543
Si Si7 0.408575 0.703497 0.000000
O O1 0.500000 0.756092 0.250000
O O2 0.551763 0.860183 0.347867
O O3 0.627836 0.762735 0.262068
O O4 0.565585 0.000000 0.250000
O O5 0.564557 0.220032 0.610835
O O6 0.455967 0.273845 0.555342
O O7 0.500000 0.000000 0.564857
O O8 0.148687 0.451790 0.559026
O O9 0.180257 0.324000 0.657852
O O10 0.167528 0.172290 0.559655
O O11 0.245831 0.010696 0.500000
O O12 0.347092 0.189856 0.500000
O O13 0.380488 0.457462 0.500000
O O14 0.800910 0.500000 0.250000
O O15 0.750000 0.250000 0.250000
#
# Coordination Sequence:
#
# PCOD8293218 Si02
#       7
#    16  16  16   8   8  16   8
#     4  10  18  36  65  95 126 169 216 274 331 377
#     4  12  20  38  69  99 131 162 233 287 328 391
#     4  11  24  44  68  96 132 174 219 286 328 391
#     4  11  24  43  69  95 126 176 228 273 328 396
#     4  11  28  46  61  94 147 180 214 269 351 414
#     4  11  25  43  69 100 135 174 220 272 336 404
#     4  12  25  38  70 103 125 178 227 279 337 396
#
# _framework density 20.403359999999999
#
# number of rings (size 3 to 8) (size 9 to 14) (size 15 to 20)
#    0.000    0.909    5.455    3.545    2.545    2.909 
#    0.000    0.000    0.000    0.545    0.000    0.000 
#    0.000    0.000    0.000    0.000    0.000    0.000 
#
# Total GULP energy -545538.754388 kJ/mol
# GULP energy per Si atom -12398.608054 kJ/mol
# Density = 2.035692 g / cm^3
# Si number density = 20.403360 Si / 1000 Ang^3
#
#
#
# Elastic Constant Matrix: (Units=GPa)
#
#
# Indices 1 2 3 4 5 6 
#
# 1 165.6243 37.8205 63.1517 0.0000 0.0000 0.0000
# 2 37.8205 80.8957 47.2318 0.0000 0.0000 0.0000
# 3 63.1517 47.2318 170.1048 0.0000 0.0000 0.0000
# 4 0.0000 0.0000 0.0000 3.5636 0.0000 0.0000
# 5 0.0000 0.0000 0.0000 0.0000 37.3005 0.0000
# 6 0.0000 0.0000 0.0000 0.0000 0.0000 34.7463
#
#
#
# Elastic Compliance Matrix: (Units=1/GPa)
#
#
# Indices 1 2 3 4 5 6 
#
# 1 0.007347 -0.002199 -0.002117 0.000000 0.000000 0.000000
# 2 -0.002199 0.015411 -0.003463 0.000000 0.000000 0.000000
# 3 -0.002117 -0.003463 0.007626 0.000000 0.000000 0.000000
# 4 0.000000 0.000000 0.000000 0.280619 0.000000 0.000000
# 5 0.000000 0.000000 0.000000 0.000000 0.026809 0.000000
# 6 0.000000 0.000000 0.000000 0.000000 0.000000 0.028780
#
#
# Mechanical properties :
#
#
# Convention : Reuss Voigt Hill
#
# Bulk Modulus (GPa) = 67.44380 79.22587 73.33484
# Shear Modulus (GPa) = 12.91679 33.01680 22.96680
#
# Velocity S-wave (km/s) = 2.51882 4.02705 3.35869
# Velocity P-wave (km/s) = 6.44874 7.78055 7.14574
#
# Compressibility (1/GPa) = 0.01482716
#
# Stress axis : x y z
#
# Youngs Moduli (GPa) = 136.10807 64.88691 131.12674
#
# Poissons Ratio (x) = 0.14268 0.27761
# Poissons Ratio (y) = 0.29928 0.45407
# Poissons Ratio (z) = 0.28815 0.22469
#
# Static dielectric constant tensor:
#      x y z
#    x 5.232910 0.000000 0.000000 
#    y 0.000000 2.982430 0.000000 
#    z 0.000000 0.000000 3.450260 
# 
# 
# High freq. dielectric constant tensor:
#      x y z
#    x 1.822630 0.000000 0.000000 
#    y 0.000000 1.756380 0.000000 
#    z 0.000000 0.000000 1.809490 
# 
# From -- ./inp_files/45293.got.cif
#   From: 2010.03.12/outbox.cif.g09.slc.cpg/sg72_23_cif.got.tgz:45293.got - 2010.04.16 14:54:00.
