data_PCOD8293663
_publ_section_title
;
Structure prediction by ZEFSAII (Michael W. Deem and Ramdas Pophale) SiO2 
 PCOD8293663
Probable space group: I B A M
;
_chemical_formula_sum "Si O2"
_cell_formula_units_Z 112
_cell_length_a 28.571616
_cell_length_b 13.926288
_cell_length_c 15.574347
_cell_angle_alpha 90.000000
_cell_angle_beta 90.000000
_cell_angle_gamma 90.000000
_cell_volume 6196.978987
_symmetry_space_group_name_H-M "I B A M"
_symmetry_group_IT_number 72
_symmetry_cell_setting 'orthorhombic'
loop_
_space_group_symop_operation_xyz
x,y,z
-x,-y,z
x,-y,1/2-z
-x,y,1/2-z
-x,-y,-z
x,y,-z
-x,y,1/2+z
x,-y,1/2+z
1/2+x,1/2+y,1/2+z
1/2-x,1/2-y,1/2+z
1/2+x,1/2-y,-z
1/2-x,1/2+y,-z
1/2-x,1/2-y,1/2-z
1/2+x,1/2+y,1/2-z
1/2-x,1/2+y,z
1/2+x,1/2-y,z
loop_
_atom_site_type_symbol
_atom_site_label
_atom_site_fract_x
_atom_site_fract_y
_atom_site_fract_z
Si Si1 0.045125 0.552533 0.903716
Si Si2 0.805825 0.923945 0.599060
Si Si3 0.615133 0.391995 0.262360
Si Si4 0.292018 0.159377 0.402143
Si Si5 0.828351 0.862744 0.903699
Si Si6 0.446591 0.216901 0.773906
Si Si7 0.884675 0.575939 0.825488
O O1 0.057509 0.651699 0.857958
O O2 0.089083 0.479549 0.902456
O O3 0.000000 0.500000 0.859784
O O4 0.032302 0.580430 0.000000
O O5 0.817481 0.894510 0.500000
O O6 0.845507 0.887105 0.663723
O O7 0.757853 0.876706 0.632214
O O8 0.799631 0.038663 0.606941
O O9 0.595940 0.500000 0.250000
O O10 0.632533 0.355266 0.169490
O O11 0.573740 0.322607 0.293224
O O12 0.298402 0.126779 0.500000
O O13 0.292549 0.274565 0.392390
O O14 0.333303 0.110697 0.349080
O O15 0.851289 0.858213 0.000000
O O16 0.500000 0.230844 0.750000
O O17 0.416556 0.167207 0.698755
O O18 0.880175 0.500000 0.750000
#
# Coordination Sequence:
#
# PCOD8293663 Si02
#       7
#    16  16  16  16  16  16  16
#     4  10  20  35  56  82 112 150 184 222 283 351
#     4   9  20  37  56  79 114 149 182 232 284 334
#     4  10  21  38  59  82 107 151 194 234 287 339
#     4  10  19  35  57  82 109 143 186 229 275 333
#     4   9  18  35  56  79 106 142 186 229 275 335
#     4  11  21  37  56  81 113 146 185 234 283 329
#     4  10  20  33  54  82 114 145 180 230 280 335
#
# _framework density 18.073322000000001
#
# number of rings (size 3 to 8) (size 9 to 14) (size 15 to 20)
#    0.000    2.143    2.857    0.429    0.000    3.143 
#    5.143    0.714    0.000    0.000    0.000    5.000 
#    0.000    0.000    0.000    0.000    0.000    0.000 
#
# Total GULP energy -694226.446718 kJ/mol
# GULP energy per Si atom -12396.900834 kJ/mol
# Density = 1.803219 g / cm^3
# Si number density = 18.073322 Si / 1000 Ang^3
#
#
#
# Elastic Constant Matrix: (Units=GPa)
#
#
# Indices 1 2 3 4 5 6 
#
# 1 103.9629 66.5509 37.8983 0.0000 0.0000 0.0000
# 2 66.5509 122.8002 39.5733 0.0000 0.0000 0.0000
# 3 37.8983 39.5733 73.8438 0.0000 0.0000 0.0000
# 4 0.0000 0.0000 0.0000 15.6131 0.0000 0.0000
# 5 0.0000 0.0000 0.0000 0.0000 22.6865 0.0000
# 6 0.0000 0.0000 0.0000 0.0000 0.0000 33.5639
#
#
#
# Elastic Compliance Matrix: (Units=1/GPa)
#
#
# Indices 1 2 3 4 5 6 
#
# 1 0.015757 -0.007172 -0.004243 0.000000 0.000000 0.000000
# 2 -0.007172 0.013108 -0.003344 0.000000 0.000000 0.000000
# 3 -0.004243 -0.003344 0.017512 0.000000 0.000000 0.000000
# 4 0.000000 0.000000 0.000000 0.064049 0.000000 0.000000
# 5 0.000000 0.000000 0.000000 0.000000 0.044079 0.000000
# 6 0.000000 0.000000 0.000000 0.000000 0.000000 0.029794
#
#
# Mechanical properties :
#
#
# Convention : Reuss Voigt Hill
#
# Bulk Modulus (GPa) = 59.31746 65.40578 62.36162
# Shear Modulus (GPa) = 22.78587 24.81168 23.79877
#
# Velocity S-wave (km/s) = 3.55455 3.70920 3.63270
# Velocity P-wave (km/s) = 7.05253 7.38999 7.22323
#
# Compressibility (1/GPa) = 0.01685844
#
# Stress axis : x y z
#
# Youngs Moduli (GPa) = 63.46560 76.29196 57.10462
#
# Poissons Ratio (x) = 0.54715 0.24231
# Poissons Ratio (y) = 0.45516 0.19094
# Poissons Ratio (z) = 0.26930 0.25510
#
# Static dielectric constant tensor:
#      x y z
#    x 3.173180 0.000000 0.000000 
#    y 0.000000 3.460280 0.000000 
#    z 0.000000 0.000000 3.373150 
# 
# 
# High freq. dielectric constant tensor:
#      x y z
#    x 1.680580 0.000000 0.000000 
#    y 0.000000 1.708500 0.000000 
#    z 0.000000 0.000000 1.701570 
# 
# From -- ./inp_files/22132.got.cif
#   From: 2010.03.12/outbox.cif.g09.slc.cpg/sg72_12_cif.got.tgz:22132.got - 2010.04.16 14:54:00.
