data_PCOD8293696
_publ_section_title
;
Structure prediction by ZEFSAII (Michael W. Deem and Ramdas Pophale) SiO2 
 PCOD8293696
Probable space group: I B A M
;
_chemical_formula_sum "Si O2"
_cell_formula_units_Z 104
_cell_length_a 9.039775
_cell_length_b 21.543556
_cell_length_c 26.999752
_cell_angle_alpha 90.000000
_cell_angle_beta 90.000000
_cell_angle_gamma 90.000000
_cell_volume 5258.171974
_symmetry_space_group_name_H-M "I B A M"
_symmetry_group_IT_number 72
_symmetry_cell_setting 'orthorhombic'
loop_
_space_group_symop_operation_xyz
x,y,z
-x,-y,z
x,-y,1/2-z
-x,y,1/2-z
-x,-y,-z
x,y,-z
-x,y,1/2+z
x,-y,1/2+z
1/2+x,1/2+y,1/2+z
1/2-x,1/2-y,1/2+z
1/2+x,1/2-y,-z
1/2-x,1/2+y,-z
1/2-x,1/2-y,1/2-z
1/2+x,1/2+y,1/2-z
1/2-x,1/2+y,z
1/2+x,1/2-y,z
loop_
_atom_site_type_symbol
_atom_site_label
_atom_site_fract_x
_atom_site_fract_y
_atom_site_fract_z
Si Si1 0.052438 0.562813 0.618336
Si Si2 0.347706 0.821445 0.942587
Si Si3 0.500329 0.349787 0.304338
Si Si4 0.409960 0.737932 0.606352
Si Si5 0.500000 0.146628 0.750000
Si Si6 0.753809 0.443550 0.711828
Si Si7 0.176813 0.652403 0.837130
O O1 0.127033 0.610841 0.580672
O O2 0.166901 0.538950 0.660253
O O3 0.000000 0.500000 0.589996
O O4 0.905993 0.592404 0.642163
O O5 0.444014 0.767633 0.917029
O O6 0.176440 0.803060 0.934318
O O7 0.386544 0.825115 0.000000
O O8 0.500000 0.316845 0.250000
O O9 0.560699 0.304043 0.345865
O O10 0.595925 0.412782 0.301075
O O11 0.333495 0.370408 0.316753
O O12 0.301002 0.794333 0.622015
O O13 0.643373 0.106270 0.761785
O O14 0.562201 0.184970 0.703096
O O15 0.732456 0.500000 0.750000
#
# Coordination Sequence:
#
# PCOD8293696 Si02
#       7
#    16  16  16  16   8  16  16
#     4  10  22  41  63  89 126 169 211 274 317 383
#     4  11  23  43  71  96 121 164 217 277 344 388
#     4  12  24  37  56  94 131 173 212 252 308 386
#     4  11  23  42  62  94 132 161 209 277 327 387
#     4  10  19  36  52  82 112 168 215 250 286 362
#     4  11  21  37  56  84 127 174 217 249 304 370
#     4  10  22  38  58  86 129 169 210 257 313 372
#
# _framework density 19.778737
#
# number of rings (size 3 to 8) (size 9 to 14) (size 15 to 20)
#    0.000    1.231    4.615    2.538    1.077    1.231 
#    0.000    0.000    0.000    0.000    0.000    1.077 
#    0.000    0.000    0.000    0.000    0.000    0.000 
#
# Total GULP energy -644402.734433 kJ/mol
# GULP energy per Si atom -12392.360278 kJ/mol
# Density = 1.973372 g / cm^3
# Si number density = 19.778737 Si / 1000 Ang^3
#
#
#
# Elastic Constant Matrix: (Units=GPa)
#
#
# Indices 1 2 3 4 5 6 
#
# 1 103.4041 43.1848 27.0739 0.0000 0.0000 0.0000
# 2 43.1848 98.4648 54.0261 0.0000 0.0000 0.0000
# 3 27.0739 54.0261 104.4864 0.0000 0.0000 0.0000
# 4 0.0000 0.0000 0.0000 22.9873 0.0000 0.0000
# 5 0.0000 0.0000 0.0000 0.0000 23.3893 0.0000
# 6 0.0000 0.0000 0.0000 0.0000 0.0000 153.9619
#
#
#
# Elastic Compliance Matrix: (Units=1/GPa)
#
#
# Indices 1 2 3 4 5 6 
#
# 1 0.011861 -0.004908 -0.000536 0.000000 0.000000 0.000000
# 2 -0.004908 0.016209 -0.007110 0.000000 0.000000 0.000000
# 3 -0.000536 -0.007110 0.013385 0.000000 0.000000 0.000000
# 4 0.000000 0.000000 0.000000 0.043502 0.000000 0.000000
# 5 0.000000 0.000000 0.000000 0.000000 0.042755 0.000000
# 6 0.000000 0.000000 0.000000 0.000000 0.000000 0.006495
#
#
# Mechanical properties :
#
#
# Convention : Reuss Voigt Hill
#
# Bulk Modulus (GPa) = 61.16437 61.65832 61.41134
# Shear Modulus (GPa) = 30.34651 52.20574 41.27613
#
# Velocity S-wave (km/s) = 3.92126 5.14317 4.57321
# Velocity P-wave (km/s) = 7.17587 8.15545 7.68129
#
# Compressibility (1/GPa) = 0.01634939
#
# Stress axis : x y z
#
# Youngs Moduli (GPa) = 84.31151 61.69261 74.70791
#
# Poissons Ratio (x) = 0.30279 0.04001
# Poissons Ratio (y) = 0.41381 0.53114
# Poissons Ratio (z) = 0.04515 0.43861
#
# Static dielectric constant tensor:
#      x y z
#    x 3.756970 0.000000 0.000000 
#    y 0.000000 3.439610 0.000000 
#    z 0.000000 0.000000 3.501620 
# 
# 
# High freq. dielectric constant tensor:
#      x y z
#    x 1.780930 0.000000 0.000000 
#    y 0.000000 1.764660 0.000000 
#    z 0.000000 0.000000 1.752970 
# 
# From -- ./inp_files/47399.got.cif
#   From: 2010.03.12/outbox.cif.g09.slc.cpg/sg72_24_cif.got.tgz:47399.got - 2010.04.16 14:54:00.
