data_PCOD8293124
_publ_section_title
;
Structure prediction by ZEFSAII (Michael W. Deem and Ramdas Pophale) SiO2 
 PCOD8293124
Probable space group: I B A M
;
_chemical_formula_sum "Si O2"
_cell_formula_units_Z 104
_cell_length_a 26.519227
_cell_length_b 16.161443
_cell_length_c 13.981976
_cell_angle_alpha 90.000000
_cell_angle_beta 90.000000
_cell_angle_gamma 90.000000
_cell_volume 5992.520770
_symmetry_space_group_name_H-M "I B A M"
_symmetry_group_IT_number 72
_symmetry_cell_setting 'orthorhombic'
loop_
_space_group_symop_operation_xyz
x,y,z
-x,-y,z
x,-y,1/2-z
-x,y,1/2-z
-x,-y,-z
x,y,-z
-x,y,1/2+z
x,-y,1/2+z
1/2+x,1/2+y,1/2+z
1/2-x,1/2-y,1/2+z
1/2+x,1/2-y,-z
1/2-x,1/2+y,-z
1/2-x,1/2-y,1/2-z
1/2+x,1/2+y,1/2-z
1/2-x,1/2+y,z
1/2+x,1/2-y,z
loop_
_atom_site_type_symbol
_atom_site_label
_atom_site_fract_x
_atom_site_fract_y
_atom_site_fract_z
Si Si1 0.297238 0.547470 0.110548
Si Si2 0.718518 0.262265 0.606255
Si Si3 0.371174 0.691505 0.110689
Si Si4 0.943135 0.098635 0.742582
Si Si5 0.685357 0.826451 0.290365
Si Si6 0.364887 0.599167 0.394860
Si Si7 0.211061 0.500000 0.250000
O O1 0.319173 0.639825 0.125006
O O2 0.339334 0.483221 0.149614
O O3 0.245776 0.539963 0.168040
O O4 0.286288 0.527189 0.000000
O O5 0.725443 0.222001 0.500000
O O6 0.700348 0.194288 0.681532
O O7 0.770034 0.306035 0.636492
O O8 0.677031 0.332048 0.601074
O O9 0.418502 0.636656 0.146544
O O10 0.363922 0.776120 0.172146
O O11 0.381036 0.712374 0.000000
O O12 0.910754 0.132351 0.831306
O O13 0.000000 0.132330 0.750000
O O14 0.942560 0.000000 0.750000
O O15 0.676135 0.925908 0.291886
O O16 0.386723 0.579665 0.500000
#
# Coordination Sequence:
#
# PCOD8293124 Si02
#       7
#    16  16  16  16  16  16   8
#     4  10  19  31  49  72 104 143 179 209 248 303
#     4  10  19  33  52  74 101 140 182 217 253 304
#     4  11  22  37  54  75 107 145 178 212 259 312
#     4  11  22  35  54  80 109 138 175 219 261 305
#     4  11  22  33  49  74 105 138 176 222 259 316
#     4  10  18  32  53  74 105 143 179 212 254 304
#     4  12  22  32  48  72 106 140 176 218 264 298
#
# _framework density 17.354968
#
# number of rings (size 3 to 8) (size 9 to 14) (size 15 to 20)
#    0.000    1.385    4.615    3.231    0.000    3.077 
#    0.000    1.538    0.000    0.000    0.000    0.538 
#    0.000    1.231    0.000    0.000    0.000    0.000 
#
# Total GULP energy -644715.155421 kJ/mol
# GULP energy per Si atom -12398.368373 kJ/mol
# Density = 1.731547 g / cm^3
# Si number density = 17.354968 Si / 1000 Ang^3
#
#
#
# Elastic Constant Matrix: (Units=GPa)
#
#
# Indices 1 2 3 4 5 6 
#
# 1 58.2162 27.1629 29.5988 0.0000 0.0000 0.0000
# 2 27.1629 94.6372 33.3848 0.0000 0.0000 0.0000
# 3 29.5988 33.3848 102.7650 0.0000 0.0000 0.0000
# 4 0.0000 0.0000 0.0000 -2.5199 0.0000 0.0000
# 5 0.0000 0.0000 0.0000 0.0000 22.4391 0.0000
# 6 0.0000 0.0000 0.0000 0.0000 0.0000 15.1902
#
#
#
# Elastic Compliance Matrix: (Units=1/GPa)
#
#
# Indices 1 2 3 4 5 6 
#
# 1 0.021731 -0.004551 -0.004781 0.000000 0.000000 0.000000
# 2 -0.004551 0.012887 -0.002876 0.000000 0.000000 0.000000
# 3 -0.004781 -0.002876 0.012042 0.000000 0.000000 0.000000
# 4 0.000000 0.000000 0.000000 -0.396843 0.000000 0.000000
# 5 0.000000 0.000000 0.000000 0.000000 0.044565 0.000000
# 6 0.000000 0.000000 0.000000 0.000000 0.000000 0.065832
#
#
# Mechanical properties :
#
#
# Convention : Reuss Voigt Hill
#
# Bulk Modulus (GPa) = 44.95207 48.43459 46.69333
# Shear Modulus (GPa) = -24.04371 18.05336 -2.99518
#
# Velocity S-wave (km/s) = -3.72615 3.22878 -1.31513
# Velocity P-wave (km/s) = 2.72866 6.47061 4.96560
#
# Compressibility (1/GPa) = 0.02224592
#
# Stress axis : x y z
#
# Youngs Moduli (GPa) = 46.01641 77.59527 83.04138
#
# Poissons Ratio (x) = 0.35313 0.39700
# Poissons Ratio (y) = 0.20942 0.23882
# Poissons Ratio (z) = 0.21999 0.22316
#
# Static dielectric constant tensor:
#      x y z
#    x 2.969990 0.000000 0.000000 
#    y 0.000000 3.243680 0.000000 
#    z 0.000000 0.000000 3.736960 
# 
# 
# High freq. dielectric constant tensor:
#      x y z
#    x 1.618700 0.000000 0.000000 
#    y 0.000000 1.658680 0.000000 
#    z 0.000000 0.000000 1.689790 
# 
# From -- ./inp_files/23590.got.cif
#   From: 2010.03.12/outbox.cif.g09.slc.cpg/sg72_12_cif.got.tgz:23590.got - 2010.04.16 14:54:00.
