data_PCOD8293767
_publ_section_title
;
Structure prediction by ZEFSAII (Michael W. Deem and Ramdas Pophale) SiO2 
 PCOD8293767
Probable space group: I B A M
;
_chemical_formula_sum "Si O2"
_cell_formula_units_Z 96
_cell_length_a 14.504952
_cell_length_b 19.375207
_cell_length_c 17.050462
_cell_angle_alpha 90.000000
_cell_angle_beta 90.000000
_cell_angle_gamma 90.000000
_cell_volume 4791.801269
_symmetry_space_group_name_H-M "I B A M"
_symmetry_group_IT_number 72
_symmetry_cell_setting 'orthorhombic'
loop_
_space_group_symop_operation_xyz
x,y,z
-x,-y,z
x,-y,1/2-z
-x,y,1/2-z
-x,-y,-z
x,y,-z
-x,y,1/2+z
x,-y,1/2+z
1/2+x,1/2+y,1/2+z
1/2-x,1/2-y,1/2+z
1/2+x,1/2-y,-z
1/2-x,1/2+y,-z
1/2-x,1/2-y,1/2-z
1/2+x,1/2+y,1/2-z
1/2-x,1/2+y,z
1/2+x,1/2-y,z
loop_
_atom_site_type_symbol
_atom_site_label
_atom_site_fract_x
_atom_site_fract_y
_atom_site_fract_z
Si Si1 0.818590 0.585519 0.087441
Si Si2 0.312447 0.045580 0.171108
Si Si3 0.696859 0.298956 0.343293
Si Si4 0.190973 0.824590 0.667011
Si Si5 0.500078 0.725938 0.156667
Si Si6 0.522617 0.123374 0.409169
O O1 0.784950 0.507826 0.102978
O O2 0.766254 0.638201 0.143732
O O3 0.927827 0.581839 0.102187
O O4 0.793594 0.608486 0.000000
O O5 0.225582 0.097152 0.173955
O O6 0.402930 0.089784 0.149420
O O7 0.327120 0.000000 0.250000
O O8 0.738134 0.226881 0.379049
O O9 0.682436 0.289792 0.251306
O O10 0.593182 0.311717 0.375748
O O11 0.088345 0.819743 0.629070
O O12 0.500000 0.736251 0.250000
O O13 0.497446 0.799573 0.115107
O O14 0.555992 0.119662 0.500000
#
# Coordination Sequence:
#
# PCOD8293767 Si02
#       6
#    16  16  16  16  16  16
#     4  11  24  41  59  88 132 171 201 258 331 389
#     4  12  24  40  64  91 129 170 216 262 316 389
#     4  10  19  38  62  89 121 156 211 259 306 378
#     4  10  20  38  62  95 119 154 213 264 306 365
#     4  10  21  37  67  93 123 159 210 265 311 369
#     4  11  24  40  59  95 133 162 203 264 328 386
#
# _framework density 20.034220999999999
#
# number of rings (size 3 to 8) (size 9 to 14) (size 15 to 20)
#    0.000    1.333    5.000    1.000    2.333    2.667 
#    0.000    2.500    0.000    1.000    0.000    0.000 
#    0.000    0.000    0.000    0.000    0.000    0.000 
#
# Total GULP energy -594809.524990 kJ/mol
# GULP energy per Si atom -12391.865104 kJ/mol
# Density = 1.998862 g / cm^3
# Si number density = 20.034221 Si / 1000 Ang^3
#
#
#
# Elastic Constant Matrix: (Units=GPa)
#
#
# Indices 1 2 3 4 5 6 
#
# 1 150.0123 57.3479 40.4824 0.0000 0.0000 0.0000
# 2 57.3479 115.8238 18.4560 0.0000 0.0000 0.0000
# 3 40.4824 18.4560 34.5124 0.0000 0.0000 0.0000
# 4 0.0000 0.0000 0.0000 19.5055 0.0000 0.0000
# 5 0.0000 0.0000 0.0000 0.0000 15.5267 0.0000
# 6 0.0000 0.0000 0.0000 0.0000 0.0000 37.3275
#
#
#
# Elastic Compliance Matrix: (Units=1/GPa)
#
#
# Indices 1 2 3 4 5 6 
#
# 1 0.011050 -0.003723 -0.010970 0.000000 0.000000 0.000000
# 2 -0.003723 0.010692 -0.001351 0.000000 0.000000 0.000000
# 3 -0.010970 -0.001351 0.042565 0.000000 0.000000 0.000000
# 4 0.000000 0.000000 0.000000 0.051267 0.000000 0.000000
# 5 0.000000 0.000000 0.000000 0.000000 0.064405 0.000000
# 6 0.000000 0.000000 0.000000 0.000000 0.000000 0.026790
#
#
# Mechanical properties :
#
#
# Convention : Reuss Voigt Hill
#
# Bulk Modulus (GPa) = 31.03729 59.21345 45.12537
# Shear Modulus (GPa) = 20.03216 26.74276 23.38746
#
# Velocity S-wave (km/s) = 3.16555 3.65753 3.42039
# Velocity P-wave (km/s) = 5.37463 6.88890 6.17834
#
# Compressibility (1/GPa) = 0.03221931
#
# Stress axis : x y z
#
# Youngs Moduli (GPa) = 90.49903 93.52391 23.49321
#
# Poissons Ratio (x) = 0.34819 0.25773
# Poissons Ratio (y) = 0.33693 0.03174
# Poissons Ratio (z) = 0.99280 0.12634
#
# Static dielectric constant tensor:
#      x y z
#    x 4.044730 0.000000 0.000000 
#    y 0.000000 3.495500 0.000000 
#    z 0.000000 0.000000 3.464260 
# 
# 
# High freq. dielectric constant tensor:
#      x y z
#    x 1.789290 0.000000 0.000000 
#    y 0.000000 1.775740 0.000000 
#    z 0.000000 0.000000 1.758820 
# 
# From -- ./inp_files/21774.got.cif
#   From: 2010.03.12/outbox.cif.g09.slc.cpg/sg72_11_cif.got.tgz:21774.got - 2010.04.16 14:54:00.
