data_PCOD8293398
_publ_section_title
;
Structure prediction by ZEFSAII (Michael W. Deem and Ramdas Pophale) SiO2 
 PCOD8293398
Probable space group: I B A M
;
_chemical_formula_sum "Si O2"
_cell_formula_units_Z 112
_cell_length_a 29.008500
_cell_length_b 12.987067
_cell_length_c 18.299140
_cell_angle_alpha 90.000000
_cell_angle_beta 90.000000
_cell_angle_gamma 90.000000
_cell_volume 6893.932603
_symmetry_space_group_name_H-M "I B A M"
_symmetry_group_IT_number 72
_symmetry_cell_setting 'orthorhombic'
loop_
_space_group_symop_operation_xyz
x,y,z
-x,-y,z
x,-y,1/2-z
-x,y,1/2-z
-x,-y,-z
x,y,-z
-x,y,1/2+z
x,-y,1/2+z
1/2+x,1/2+y,1/2+z
1/2-x,1/2-y,1/2+z
1/2+x,1/2-y,-z
1/2-x,1/2+y,-z
1/2-x,1/2-y,1/2-z
1/2+x,1/2+y,1/2-z
1/2-x,1/2+y,z
1/2+x,1/2-y,z
loop_
_atom_site_type_symbol
_atom_site_label
_atom_site_fract_x
_atom_site_fract_y
_atom_site_fract_z
Si Si1 0.091762 0.398857 0.841180
Si Si2 0.223701 0.046756 0.671934
Si Si3 0.416003 0.133370 0.827118
Si Si4 0.176633 0.746136 0.171434
Si Si5 0.756271 0.852880 0.914658
Si Si6 0.002033 0.622148 0.582471
Si Si7 0.309658 0.185324 0.665422
O O1 0.076129 0.374575 0.759019
O O2 0.097061 0.520393 0.856770
O O3 0.140634 0.350964 0.861236
O O4 0.053055 0.345029 0.891625
O O5 0.187674 0.136409 0.648213
O O6 0.275807 0.088832 0.675014
O O7 0.209633 0.000000 0.750000
O O8 0.221077 0.960295 0.609686
O O9 0.375924 0.215307 0.845729
O O10 0.462648 0.172609 0.866419
O O11 0.208719 0.665830 0.128406
O O12 0.187976 0.742064 0.257095
O O13 0.791860 0.762013 0.896636
O O14 0.745739 0.855213 0.000000
O O15 0.993838 0.659914 0.500000
O O16 0.000000 0.500000 0.590245
#
# Coordination Sequence:
#
# PCOD8293398 Si02
#       7
#    16  16  16  16  16  16  16
#     4   9  17  28  48  70  95 122 162 195 239 282
#     4  11  18  32  53  69  97 133 167 199 248 292
#     4   9  17  29  47  71  95 122 160 201 232 287
#     4  10  19  33  52  72  93 131 167 201 243 295
#     4  11  22  33  46  71 102 128 162 205 243 285
#     4   9  17  29  43  64  96 131 155 188 241 291
#     4  10  19  32  52  71  93 129 166 201 238 295
#
# _framework density 16.246168999999998
#
# number of rings (size 3 to 8) (size 9 to 14) (size 15 to 20)
#    0.000    2.143    2.857    2.143    2.000    5.143 
#    0.000    2.857    0.000    0.000    0.000    1.000 
#    0.000    2.286    0.000    0.000    0.000    0.000 
#
# Total GULP energy -694379.704440 kJ/mol
# GULP energy per Si atom -12399.637579 kJ/mol
# Density = 1.620919 g / cm^3
# Si number density = 16.246169 Si / 1000 Ang^3
#
#
#
# Elastic Constant Matrix: (Units=GPa)
#
#
# Indices 1 2 3 4 5 6 
#
# 1 116.2618 30.1453 32.8424 0.0000 0.0000 0.0000
# 2 30.1453 67.2386 19.2786 0.0000 0.0000 0.0000
# 3 32.8424 19.2786 50.0420 0.0000 0.0000 0.0000
# 4 0.0000 0.0000 0.0000 17.5611 0.0000 0.0000
# 5 0.0000 0.0000 0.0000 0.0000 12.8330 0.0000
# 6 0.0000 0.0000 0.0000 0.0000 0.0000 18.7015
#
#
#
# Elastic Compliance Matrix: (Units=1/GPa)
#
#
# Indices 1 2 3 4 5 6 
#
# 1 0.011162 -0.003264 -0.006068 0.000000 0.000000 0.000000
# 2 -0.003264 0.017674 -0.004666 0.000000 0.000000 0.000000
# 3 -0.006068 -0.004666 0.025763 0.000000 0.000000 0.000000
# 4 0.000000 0.000000 0.000000 0.056944 0.000000 0.000000
# 5 0.000000 0.000000 0.000000 0.000000 0.077924 0.000000
# 6 0.000000 0.000000 0.000000 0.000000 0.000000 0.053472
#
#
# Mechanical properties :
#
#
# Convention : Reuss Voigt Hill
#
# Bulk Modulus (GPa) = 37.59175 44.23056 40.91115
# Shear Modulus (GPa) = 17.86970 19.90419 18.88694
#
# Velocity S-wave (km/s) = 3.32012 3.50403 3.41331
# Velocity P-wave (km/s) = 6.15522 6.60721 6.38522
#
# Compressibility (1/GPa) = 0.02660158
#
# Stress axis : x y z
#
# Youngs Moduli (GPa) = 89.59142 56.58053 38.81505
#
# Poissons Ratio (x) = 0.18470 0.23552
# Poissons Ratio (y) = 0.29247 0.18113
# Poissons Ratio (z) = 0.54362 0.26403
#
# Static dielectric constant tensor:
#      x y z
#    x 3.102780 0.000000 0.000000 
#    y 0.000000 2.881630 0.000000 
#    z 0.000000 0.000000 2.966320 
# 
# 
# High freq. dielectric constant tensor:
#      x y z
#    x 1.621440 0.000000 0.000000 
#    y 0.000000 1.595430 0.000000 
#    z 0.000000 0.000000 1.619760 
# 
# From -- ./inp_files/40870.got.cif
#   From: 2010.03.12/outbox.cif.g09.slc.cpg/sg72_21_cif.got.tgz:40870.got - 2010.04.16 14:54:00.
