data_PCOD8293904
_publ_section_title
;
Structure prediction by ZEFSAII (Michael W. Deem and Ramdas Pophale) SiO2 
 PCOD8293904
Probable space group: I B A M
;
_chemical_formula_sum "Si O2"
_cell_formula_units_Z 96
_cell_length_a 13.083845
_cell_length_b 26.621923
_cell_length_c 15.548241
_cell_angle_alpha 90.000000
_cell_angle_beta 90.000000
_cell_angle_gamma 90.000000
_cell_volume 5415.718435
_symmetry_space_group_name_H-M "I B A M"
_symmetry_group_IT_number 72
_symmetry_cell_setting 'orthorhombic'
loop_
_space_group_symop_operation_xyz
x,y,z
-x,-y,z
x,-y,1/2-z
-x,y,1/2-z
-x,-y,-z
x,y,-z
-x,y,1/2+z
x,-y,1/2+z
1/2+x,1/2+y,1/2+z
1/2-x,1/2-y,1/2+z
1/2+x,1/2-y,-z
1/2-x,1/2+y,-z
1/2-x,1/2-y,1/2-z
1/2+x,1/2+y,1/2-z
1/2-x,1/2+y,z
1/2+x,1/2-y,z
loop_
_atom_site_type_symbol
_atom_site_label
_atom_site_fract_x
_atom_site_fract_y
_atom_site_fract_z
Si Si1 0.747678 0.310246 0.899807
Si Si2 0.426360 0.126139 0.831503
Si Si3 0.726079 0.693802 0.902173
Si Si4 0.380656 0.644084 0.750908
Si Si5 0.374288 0.893896 0.907077
Si Si6 0.725922 0.057707 0.757762
O O1 0.857437 0.326776 0.860733
O O2 0.739580 0.250769 0.891691
O O3 0.656491 0.332702 0.841752
O O4 0.736073 0.327322 0.000000
O O5 0.500000 0.139384 0.750000
O O6 0.502984 0.111318 0.907643
O O7 0.350417 0.079109 0.815315
O O8 0.642151 0.680233 0.830484
O O9 0.825145 0.659803 0.881203
O O10 0.685073 0.684343 0.000000
O O11 0.500000 0.634920 0.750000
O O12 0.329458 0.589668 0.738632
O O13 0.336314 0.937926 0.846026
O O14 0.336952 0.910654 0.000000
O O15 0.756182 0.000000 0.750000
#
# Coordination Sequence:
#
# PCOD8293904 Si02
#       6
#    16  16  16  16  16  16
#     4  10  20  34  51  77 110 141 170 206 250 300
#     4   9  18  31  50  75 104 134 163 202 249 301
#     4   9  19  34  52  74 104 138 172 206 245 294
#     4  10  21  35  53  75 100 134 174 215 254 295
#     4   9  17  31  50  73  98 127 162 201 245 300
#     4   9  19  36  52  69  96 127 162 208 258 304
#
# _framework density 17.726178999999998
#
# number of rings (size 3 to 8) (size 9 to 14) (size 15 to 20)
#    0.000    2.667    0.000    2.000    0.000    6.000 
#    0.000    8.333    0.000    0.000    0.000    9.333 
#    0.000    0.000    0.000    0.000    0.000    0.000 
#
# Total GULP energy -594874.176293 kJ/mol
# GULP energy per Si atom -12393.212006 kJ/mol
# Density = 1.768583 g / cm^3
# Si number density = 17.726179 Si / 1000 Ang^3
#
#
#
# Elastic Constant Matrix: (Units=GPa)
#
#
# Indices 1 2 3 4 5 6 
#
# 1 118.3004 27.3143 35.4688 0.0000 0.0000 0.0000
# 2 27.3143 93.1779 35.9999 0.0004 -0.0001 0.0000
# 3 35.4688 35.9999 89.8348 0.0005 -0.0001 -0.0001
# 4 0.0000 0.0004 0.0005 14.8404 0.0000 0.0000
# 5 0.0000 -0.0001 -0.0001 0.0000 14.9605 0.0000
# 6 0.0000 0.0000 -0.0001 0.0000 0.0000 10.6460
#
#
#
# Elastic Compliance Matrix: (Units=1/GPa)
#
#
# Indices 1 2 3 4 5 6 
#
# 1 0.009793 -0.001629 -0.003214 0.000000 0.000000 0.000000
# 2 -0.001629 0.012969 -0.004554 0.000000 0.000000 0.000000
# 3 -0.003214 -0.004554 0.014225 0.000000 0.000000 0.000000
# 4 0.000000 0.000000 0.000000 0.067384 0.000000 0.000000
# 5 0.000000 0.000000 0.000000 0.000000 0.066843 0.000000
# 6 0.000000 0.000000 0.000000 0.000000 0.000000 0.093932
#
#
# Mechanical properties :
#
#
# Convention : Reuss Voigt Hill
#
# Bulk Modulus (GPa) = 54.96348 55.43098 55.19723
# Shear Modulus (GPa) = 17.24119 21.59139 19.41629
#
# Velocity S-wave (km/s) = 3.12210 3.49385 3.31319
# Velocity P-wave (km/s) = 6.63860 6.90033 6.77073
#
# Compressibility (1/GPa) = 0.01819390
#
# Stress axis : x y z
#
# Youngs Moduli (GPa) = 102.11716 77.10590 70.29749
#
# Poissons Ratio (x) = 0.12561 0.22590
# Poissons Ratio (y) = 0.16636 0.32013
# Poissons Ratio (z) = 0.32816 0.35114
#
# Static dielectric constant tensor:
#      x y z
#    x 3.230070 0.000000 0.000000 
#    y 0.000000 3.034820 0.000000 
#    z 0.000000 0.000000 3.620640 
# 
# 
# High freq. dielectric constant tensor:
#      x y z
#    x 1.675900 0.000000 0.000000 
#    y 0.000000 1.667140 0.000000 
#    z 0.000000 0.000000 1.698880 
# 
# From -- ./inp_files/29466.got.cif
#   From: 2010.03.12/outbox.cif.g09.slc.cpg/sg72_15_cif.got.tgz:29466.got - 2010.04.16 14:54:00.
