data_PCOD8293746
_publ_section_title
;
Structure prediction by ZEFSAII (Michael W. Deem and Ramdas Pophale) SiO2 
 PCOD8293746
Probable space group: I B A M
;
_chemical_formula_sum "Si O2"
_cell_formula_units_Z 112
_cell_length_a 11.958795
_cell_length_b 31.077305
_cell_length_c 15.613006
_cell_angle_alpha 90.000000
_cell_angle_beta 90.000000
_cell_angle_gamma 90.000000
_cell_volume 5802.528709
_symmetry_space_group_name_H-M "I B A M"
_symmetry_group_IT_number 72
_symmetry_cell_setting 'orthorhombic'
loop_
_space_group_symop_operation_xyz
x,y,z
-x,-y,z
x,-y,1/2-z
-x,y,1/2-z
-x,-y,-z
x,y,-z
-x,y,1/2+z
x,-y,1/2+z
1/2+x,1/2+y,1/2+z
1/2-x,1/2-y,1/2+z
1/2+x,1/2-y,-z
1/2-x,1/2+y,-z
1/2-x,1/2-y,1/2-z
1/2+x,1/2+y,1/2-z
1/2-x,1/2+y,z
1/2+x,1/2-y,z
loop_
_atom_site_type_symbol
_atom_site_label
_atom_site_fract_x
_atom_site_fract_y
_atom_site_fract_z
Si Si1 0.686150 0.382895 0.900300
Si Si2 0.622151 0.822653 0.901570
Si Si3 0.973616 0.839988 0.343410
Si Si4 0.120316 0.669768 0.597670
Si Si5 0.195263 0.233949 0.663571
Si Si6 0.787252 0.901211 0.596084
Si Si7 0.868370 0.049562 0.744845
O O1 0.795165 0.358655 0.861954
O O2 0.589395 0.346013 0.894490
O O3 0.669485 0.425481 0.841730
O O4 0.696332 0.397339 0.000000
O O5 0.500479 0.826163 0.855286
O O6 0.671187 0.774926 0.894650
O O7 0.614057 0.835076 0.000000
O O8 0.923381 0.791913 0.329103
O O9 0.883505 0.865780 0.397595
O O10 0.000000 0.860538 0.250000
O O11 0.096162 0.679975 0.500000
O O12 0.208647 0.704722 0.625898
O O13 0.167998 0.621794 0.611003
O O14 0.250000 0.250000 0.750000
O O15 0.792540 0.921620 0.500000
O O16 0.804850 0.935332 0.670035
O O17 0.000000 0.055809 0.750000
O O18 0.834470 0.000000 0.750000
#
# Coordination Sequence:
#
# PCOD8293746 Si02
#       7
#    16  16  16  16  16  16  16
#     4  11  22  39  62  87 120 164 198 241 303 362
#     4  10  23  39  57  81 114 156 203 249 294 344
#     4  11  20  35  55  81 119 155 199 243 291 351
#     4   9  21  40  57  79 111 152 202 249 291 348
#     4  11  24  34  54  83 115 156 201 250 297 343
#     4  10  19  37  63  84 112 155 194 235 296 356
#     4  11  23  39  61  93 128 150 185 246 301 370
#
# _framework density 19.301929999999999
#
# number of rings (size 3 to 8) (size 9 to 14) (size 15 to 20)
#    0.000    1.571    2.857    1.714    6.000    2.286 
#    0.000    1.429    0.000    1.714    0.000    4.000 
#    0.000    0.000    0.000    0.000    0.000    0.000 
#
# Total GULP energy -693762.169881 kJ/mol
# GULP energy per Si atom -12388.610176 kJ/mol
# Density = 1.925800 g / cm^3
# Si number density = 19.301930 Si / 1000 Ang^3
#
#
#
# Elastic Constant Matrix: (Units=GPa)
#
#
# Indices 1 2 3 4 5 6 
#
# 1 127.7507 58.1702 36.0673 0.0000 0.0001 0.0000
# 2 58.1702 122.0606 56.9672 0.0002 0.0001 0.0000
# 3 36.0673 56.9672 94.1240 0.0011 0.0005 0.0000
# 4 0.0000 0.0002 0.0011 6.6498 0.0000 -0.0002
# 5 0.0001 0.0001 0.0005 0.0000 14.4941 -0.0001
# 6 0.0000 0.0000 0.0000 -0.0002 -0.0001 16.6731
#
#
#
# Elastic Compliance Matrix: (Units=1/GPa)
#
#
# Indices 1 2 3 4 5 6 
#
# 1 0.010116 -0.004198 -0.001336 0.000000 0.000000 0.000000
# 2 -0.004198 0.013160 -0.006356 0.000001 0.000000 0.000000
# 3 -0.001336 -0.006356 0.014983 -0.000002 0.000000 0.000000
# 4 0.000000 0.000001 -0.000002 0.150381 0.000000 0.000002
# 5 0.000000 0.000000 0.000000 0.000000 0.068993 0.000000
# 6 0.000000 0.000000 0.000000 0.000002 0.000000 0.059977
#
#
# Mechanical properties :
#
#
# Convention : Reuss Voigt Hill
#
# Bulk Modulus (GPa) = 69.06243 71.81609 70.43926
# Shear Modulus (GPa) = 14.44183 20.41209 17.42696
#
# Velocity S-wave (km/s) = 2.73830 3.25547 3.00802
# Velocity P-wave (km/s) = 6.77167 7.17065 6.97401
#
# Compressibility (1/GPa) = 0.01447965
#
# Stress axis : x y z
#
# Youngs Moduli (GPa) = 98.85085 75.99007 66.74144
#
# Poissons Ratio (x) = 0.31898 0.08916
# Poissons Ratio (y) = 0.41494 0.42422
# Poissons Ratio (z) = 0.13205 0.48301
#
# Static dielectric constant tensor:
#      x y z
#    x 3.834920 0.000000 0.000000 
#    y 0.000000 3.386500 0.000000 
#    z 0.000000 0.000000 3.418030 
# 
# 
# High freq. dielectric constant tensor:
#      x y z
#    x 1.757930 0.000000 0.000000 
#    y 0.000000 1.726900 0.000000 
#    z 0.000000 0.000000 1.755530 
# 
# From -- ./inp_files/20662.got.cif
#   From: 2010.03.12/outbox.cif.g09.slc.cpg/sg72_11_cif.got.tgz:20662.got - 2010.04.16 14:54:00.
