data_PCOD8293724
_publ_section_title
;
Structure prediction by ZEFSAII (Michael W. Deem and Ramdas Pophale) SiO2 
 PCOD8293724
Probable space group: I B A M
;
_chemical_formula_sum "Si O2"
_cell_formula_units_Z 80
_cell_length_a 15.609619
_cell_length_b 9.292484
_cell_length_c 25.324697
_cell_angle_alpha 90.000000
_cell_angle_beta 90.000000
_cell_angle_gamma 90.000000
_cell_volume 3673.401363
_symmetry_space_group_name_H-M "I B A M"
_symmetry_group_IT_number 72
_symmetry_cell_setting 'orthorhombic'
loop_
_space_group_symop_operation_xyz
x,y,z
-x,-y,z
x,-y,1/2-z
-x,y,1/2-z
-x,-y,-z
x,y,-z
-x,y,1/2+z
x,-y,1/2+z
1/2+x,1/2+y,1/2+z
1/2-x,1/2-y,1/2+z
1/2+x,1/2-y,-z
1/2-x,1/2+y,-z
1/2-x,1/2-y,1/2-z
1/2+x,1/2+y,1/2-z
1/2-x,1/2+y,z
1/2+x,1/2-y,z
loop_
_atom_site_type_symbol
_atom_site_label
_atom_site_fract_x
_atom_site_fract_y
_atom_site_fract_z
Si Si1 0.266364 0.942519 0.803856
Si Si2 0.729109 0.206785 0.377346
Si Si3 0.911313 0.851050 0.559737
Si Si4 0.916226 0.837804 0.898011
Si Si5 0.045124 0.353860 0.802961
O O1 0.272675 0.048379 0.853775
O O2 0.220632 0.000000 0.750000
O O3 0.213013 0.808922 0.826769
O O4 0.359038 0.890360 0.786352
O O5 0.654336 0.228803 0.420220
O O6 0.822333 0.234760 0.405572
O O7 0.886568 0.893659 0.500000
O O8 0.010037 0.793037 0.559710
O O9 0.904328 0.989334 0.598483
O O10 0.956059 0.780857 0.842917
O O11 0.000000 0.500000 0.825733
O O12 0.000000 0.299834 0.750000
#
# Coordination Sequence:
#
# PCOD8293724 Si02
#       5
#    16  16  16  16  16
#     4  11  21  38  64  93 134 172 211 255 326 394
#     4  11  23  42  65 101 132 173 217 275 325 397
#     4  11  24  44  69  92 128 174 224 286 339 386
#     4  10  22  42  66  95 132 172 224 274 334 403
#     4  10  19  36  63  93 131 176 207 265 329 396
#
# _framework density 21.778179999999999
#
# number of rings (size 3 to 8) (size 9 to 14) (size 15 to 20)
#    0.000    1.400    4.000    3.000    0.000    1.600 
#    0.000    2.000    0.000    7.200    0.000    0.000 
#    0.000    0.000    0.000    0.000    0.000    0.000 
#
# Total GULP energy -495574.060097 kJ/mol
# GULP energy per Si atom -12389.351502 kJ/mol
# Density = 2.172861 g / cm^3
# Si number density = 21.778180 Si / 1000 Ang^3
#
#
#
# Elastic Constant Matrix: (Units=GPa)
#
#
# Indices 1 2 3 4 5 6 
#
# 1 112.7473 4.2923 31.7037 0.0000 0.0000 0.0000
# 2 4.2923 54.2919 32.3548 0.0000 0.0000 0.0000
# 3 31.7037 32.3548 90.7418 0.0000 0.0000 0.0000
# 4 0.0000 0.0000 0.0000 24.2921 0.0000 0.0000
# 5 0.0000 0.0000 0.0000 0.0000 26.3801 0.0000
# 6 0.0000 0.0000 0.0000 0.0000 0.0000 23.5431
#
#
#
# Elastic Compliance Matrix: (Units=1/GPa)
#
#
# Indices 1 2 3 4 5 6 
#
# 1 0.009948 0.001632 -0.004057 0.000000 0.000000 0.000000
# 2 0.001632 0.023656 -0.009005 0.000000 0.000000 0.000000
# 3 -0.004057 -0.009005 0.015649 0.000000 0.000000 0.000000
# 4 0.000000 0.000000 0.000000 0.041166 0.000000 0.000000
# 5 0.000000 0.000000 0.000000 0.000000 0.037907 0.000000
# 6 0.000000 0.000000 0.000000 0.000000 0.000000 0.042475
#
#
# Mechanical properties :
#
#
# Convention : Reuss Voigt Hill
#
# Bulk Modulus (GPa) = 37.89097 43.83141 40.86119
# Shear Modulus (GPa) = 24.69618 27.47174 26.08396
#
# Velocity S-wave (km/s) = 3.37113 3.55552 3.46455
# Velocity P-wave (km/s) = 5.70868 6.08487 5.89977
#
# Compressibility (1/GPa) = 0.02639151
#
# Stress axis : x y z
#
# Youngs Moduli (GPa) = 100.52054 42.27189 63.90310
#
# Poissons Ratio (x) = -0.06897 0.25929
# Poissons Ratio (y) = -0.16400 0.57544
# Poissons Ratio (z) = 0.40786 0.38066
#
# Static dielectric constant tensor:
#      x y z
#    x 4.263840 0.000000 0.000000 
#    y 0.000000 3.812080 0.000000 
#    z 0.000000 0.000000 3.787680 
# 
# 
# High freq. dielectric constant tensor:
#      x y z
#    x 1.866650 0.000000 0.000000 
#    y 0.000000 1.841110 0.000000 
#    z 0.000000 0.000000 1.834250 
# 
# From -- ./inp_files/48943.got.cif
#   From: 2010.03.12/outbox.cif.g09.slc.cpg/sg72_25_cif.got.tgz:48943.got - 2010.04.16 14:54:00.
