data_PCOD8293682
_publ_section_title
;
Structure prediction by ZEFSAII (Michael W. Deem and Ramdas Pophale) SiO2 
 PCOD8293682
Probable space group: I B A M
;
_chemical_formula_sum "Si O2"
_cell_formula_units_Z 96
_cell_length_a 10.508632
_cell_length_b 25.974065
_cell_length_c 17.021884
_cell_angle_alpha 90.000000
_cell_angle_beta 90.000000
_cell_angle_gamma 90.000000
_cell_volume 4646.155420
_symmetry_space_group_name_H-M "I B A M"
_symmetry_group_IT_number 72
_symmetry_cell_setting 'orthorhombic'
loop_
_space_group_symop_operation_xyz
x,y,z
-x,-y,z
x,-y,1/2-z
-x,y,1/2-z
-x,-y,-z
x,y,-z
-x,y,1/2+z
x,-y,1/2+z
1/2+x,1/2+y,1/2+z
1/2-x,1/2-y,1/2+z
1/2+x,1/2-y,-z
1/2-x,1/2+y,-z
1/2-x,1/2-y,1/2-z
1/2+x,1/2+y,1/2-z
1/2-x,1/2+y,z
1/2+x,1/2-y,z
loop_
_atom_site_type_symbol
_atom_site_label
_atom_site_fract_x
_atom_site_fract_y
_atom_site_fract_z
Si Si1 0.227878 0.224858 0.667603
Si Si2 0.634641 0.615484 0.783913
Si Si3 0.710341 0.546686 0.911151
Si Si4 0.999727 0.293420 0.344836
Si Si5 0.700459 0.041478 0.316960
Si Si6 0.512918 0.094184 0.909998
O O1 0.250000 0.250000 0.750000
O O2 0.200184 0.164876 0.678485
O O3 0.112247 0.255166 0.625118
O O4 0.364350 0.229400 0.623569
O O5 0.500000 0.632946 0.750000
O O6 0.609601 0.574231 0.853491
O O7 0.722115 0.590594 0.715671
O O8 0.721346 0.486932 0.886510
O O9 0.841282 0.578211 0.898474
O O10 0.661160 0.549857 0.000000
O O11 0.018081 0.347782 0.386094
O O12 0.000000 0.299199 0.250000
O O13 0.566498 0.058102 0.352432
O O14 0.672909 0.000000 0.250000
O O15 0.471031 0.085333 0.000000
#
# Coordination Sequence:
#
# PCOD8293682 Si02
#       6
#    16  16  16  16  16  16
#     4  10  19  35  59  89 117 151 201 256 309 356
#     4  11  22  39  61  88 119 159 206 256 300 365
#     4  10  22  39  58  84 122 163 196 247 312 364
#     4  10  20  35  61  86 118 159 201 254 307 368
#     4  10  22  35  60  90 119 158 211 252 301 357
#     4  11  22  38  58  89 125 157 195 252 317 369
#
# _framework density 20.662244000000001
#
# number of rings (size 3 to 8) (size 9 to 14) (size 15 to 20)
#    0.000    1.667    1.667    4.500    2.333    6.333 
#    0.000    4.167    0.000    0.000    0.000    0.000 
#    0.000    0.000    0.000    0.000    0.000    0.000 
#
# Total GULP energy -595023.597820 kJ/mol
# GULP energy per Si atom -12396.324955 kJ/mol
# Density = 2.061522 g / cm^3
# Si number density = 20.662244 Si / 1000 Ang^3
#
#
#
# Elastic Constant Matrix: (Units=GPa)
#
#
# Indices 1 2 3 4 5 6 
#
# 1 101.3631 21.5730 14.3172 0.0000 0.0000 0.0000
# 2 21.5730 89.3914 -0.5898 0.0000 0.0000 0.0000
# 3 14.3172 -0.5898 65.2091 -0.0002 0.0002 0.0000
# 4 0.0000 0.0000 -0.0002 18.1135 0.0001 0.0000
# 5 0.0000 0.0000 0.0002 0.0001 14.0298 0.0000
# 6 0.0000 0.0000 0.0000 0.0000 0.0000 34.1877
#
#
#
# Elastic Compliance Matrix: (Units=1/GPa)
#
#
# Indices 1 2 3 4 5 6 
#
# 1 0.010758 -0.002612 -0.002386 0.000000 0.000000 0.000000
# 2 -0.002612 0.011822 0.000680 0.000000 0.000000 0.000000
# 3 -0.002386 0.000680 0.015865 0.000000 0.000000 0.000000
# 4 0.000000 0.000000 0.000000 0.055208 0.000000 0.000000
# 5 0.000000 0.000000 0.000000 0.000000 0.071277 0.000000
# 6 0.000000 0.000000 0.000000 0.000000 0.000000 0.029250
#
#
# Mechanical properties :
#
#
# Convention : Reuss Voigt Hill
#
# Bulk Modulus (GPa) = 33.54520 36.28493 34.91507
# Shear Modulus (GPa) = 23.50158 27.97707 25.73933
#
# Velocity S-wave (km/s) = 3.37622 3.68369 3.53330
# Velocity P-wave (km/s) = 5.60970 5.97427 5.79485
#
# Compressibility (1/GPa) = 0.02981052
#
# Stress axis : x y z
#
# Youngs Moduli (GPa) = 92.95038 84.59066 63.03092
#
# Poissons Ratio (x) = 0.22096 0.15037
# Poissons Ratio (y) = 0.24280 -0.04289
# Poissons Ratio (z) = 0.22175 -0.05756
#
# Static dielectric constant tensor:
#      x y z
#    x 4.269040 0.000000 0.000000 
#    y 0.000000 3.899570 0.000000 
#    z 0.000000 0.000000 3.709190 
# 
# 
# High freq. dielectric constant tensor:
#      x y z
#    x 1.803770 0.000000 0.000000 
#    y 0.000000 1.819680 0.000000 
#    z 0.000000 0.000000 1.783160 
# 
# From -- ./inp_files/29453.got.cif
#   From: 2010.03.12/outbox.cif.g09.slc.cpg/sg72_15_cif.got.tgz:29453.got - 2010.04.16 14:54:00.
