data_PCOD8293220
_publ_section_title
;
Structure prediction by ZEFSAII (Michael W. Deem and Ramdas Pophale) SiO2 
 PCOD8293220
Probable space group: I B A M
;
_chemical_formula_sum "Si O2"
_cell_formula_units_Z 88
_cell_length_a 14.317126
_cell_length_b 12.527660
_cell_length_c 20.987172
_cell_angle_alpha 90.000000
_cell_angle_beta 90.000000
_cell_angle_gamma 90.000000
_cell_volume 3764.260990
_symmetry_space_group_name_H-M "I B A M"
_symmetry_group_IT_number 72
_symmetry_cell_setting 'orthorhombic'
loop_
_space_group_symop_operation_xyz
x,y,z
-x,-y,z
x,-y,1/2-z
-x,y,1/2-z
-x,-y,-z
x,y,-z
-x,y,1/2+z
x,-y,1/2+z
1/2+x,1/2+y,1/2+z
1/2-x,1/2-y,1/2+z
1/2+x,1/2-y,-z
1/2-x,1/2+y,-z
1/2-x,1/2-y,1/2-z
1/2+x,1/2+y,1/2-z
1/2-x,1/2+y,z
1/2+x,1/2-y,z
loop_
_atom_site_type_symbol
_atom_site_label
_atom_site_fract_x
_atom_site_fract_y
_atom_site_fract_z
Si Si1 0.190355 0.494839 0.144867
Si Si2 0.430687 0.176935 0.305318
Si Si3 0.836656 0.138469 0.931918
Si Si4 0.000000 0.000000 0.898446
Si Si5 0.562417 0.151879 0.575594
Si Si6 0.360373 0.592287 0.801652
O O1 0.142463 0.419763 0.197022
O O2 0.266239 0.415024 0.115689
O O3 0.113520 0.541056 0.095406
O O4 0.251398 0.587985 0.177716
O O5 0.500000 0.143359 0.250000
O O6 0.475870 0.177737 0.376881
O O7 0.382159 0.286574 0.281105
O O8 0.858990 0.259142 0.911717
O O9 0.935475 0.077436 0.939958
O O10 0.786123 0.138433 0.000000
O O11 0.931835 0.924984 0.858578
O O12 0.532350 0.147215 0.500000
O O13 0.382307 0.500000 0.750000
#
# Coordination Sequence:
#
# PCOD8293220 Si02
#       6
#    16  16  16   8  16  16
#     4  11  26  43  70 105 144 188 239 311 368 439
#     4  12  27  47  74 105 145 192 246 299 371 455
#     4  10  21  40  68 101 139 185 246 299 359 438
#     4  10  18  38  64 100 132 186 238 292 358 424
#     4  11  25  47  72 104 149 198 247 305 378 451
#     4  11  24  42  71 102 143 189 241 300 366 440
#
# _framework density 23.377763000000002
#
# number of rings (size 3 to 8) (size 9 to 14) (size 15 to 20)
#    0.000    1.091    1.818    3.818    5.091    3.636 
#    0.000    0.909    0.000    0.000    0.000    0.000 
#    0.000    0.000    0.000    0.000    0.000    0.000 
#
# Total GULP energy -545243.126240 kJ/mol
# GULP energy per Si atom -12391.889233 kJ/mol
# Density = 2.332455 g / cm^3
# Si number density = 23.377763 Si / 1000 Ang^3
#
#
#
# Elastic Constant Matrix: (Units=GPa)
#
#
# Indices 1 2 3 4 5 6 
#
# 1 99.9942 39.4749 38.2702 0.0000 0.0000 0.0000
# 2 39.4749 123.6199 32.0744 0.0000 0.0000 0.0000
# 3 38.2702 32.0744 92.4088 0.0000 0.0000 0.0000
# 4 0.0000 0.0000 0.0000 28.3637 0.0000 0.0000
# 5 0.0000 0.0000 0.0000 0.0000 21.5234 0.0000
# 6 0.0000 0.0000 0.0000 0.0000 0.0000 31.7355
#
#
#
# Elastic Compliance Matrix: (Units=1/GPa)
#
#
# Indices 1 2 3 4 5 6 
#
# 1 0.012813 -0.002983 -0.004271 0.000000 0.000000 0.000000
# 2 -0.002983 0.009585 -0.002091 0.000000 0.000000 0.000000
# 3 -0.004271 -0.002091 0.013316 0.000000 0.000000 0.000000
# 4 0.000000 0.000000 0.000000 0.035256 0.000000 0.000000
# 5 0.000000 0.000000 0.000000 0.000000 0.046461 0.000000
# 6 0.000000 0.000000 0.000000 0.000000 0.000000 0.031510
#
#
# Mechanical properties :
#
#
# Convention : Reuss Voigt Hill
#
# Bulk Modulus (GPa) = 58.74508 59.51799 59.13154
# Shear Modulus (GPa) = 28.85065 30.07141 29.46103
#
# Velocity S-wave (km/s) = 3.51680 3.59043 3.55380
# Velocity P-wave (km/s) = 6.45551 6.53473 6.49524
#
# Compressibility (1/GPa) = 0.01702270
#
# Stress axis : x y z
#
# Youngs Moduli (GPa) = 78.04653 104.33453 75.09737
#
# Poissons Ratio (x) = 0.31127 0.32073
# Poissons Ratio (y) = 0.23284 0.15704
# Poissons Ratio (z) = 0.33332 0.21818
#
# Static dielectric constant tensor:
#      x y z
#    x 4.365390 0.000000 0.000000 
#    y 0.000000 4.348000 0.000000 
#    z 0.000000 0.000000 4.090440 
# 
# 
# High freq. dielectric constant tensor:
#      x y z
#    x 1.926480 0.000000 0.000000 
#    y 0.000000 1.937390 0.000000 
#    z 0.000000 0.000000 1.921200 
# 
# From -- ./inp_files/44140.got.cif
#   From: 2010.03.12/outbox.cif.g09.slc.cpg/sg72_23_cif.got.tgz:44140.got - 2010.04.16 14:54:00.
