data_PCOD8293284
_publ_section_title
;
Structure prediction by ZEFSAII (Michael W. Deem and Ramdas Pophale) SiO2 
 PCOD8293284
Probable space group: I B A M
;
_chemical_formula_sum "Si O2"
_cell_formula_units_Z 112
_cell_length_a 23.477989
_cell_length_b 11.970902
_cell_length_c 22.942923
_cell_angle_alpha 90.000000
_cell_angle_beta 90.000000
_cell_angle_gamma 90.000000
_cell_volume 6448.170581
_symmetry_space_group_name_H-M "I B A M"
_symmetry_group_IT_number 72
_symmetry_cell_setting 'orthorhombic'
loop_
_space_group_symop_operation_xyz
x,y,z
-x,-y,z
x,-y,1/2-z
-x,y,1/2-z
-x,-y,-z
x,y,-z
-x,y,1/2+z
x,-y,1/2+z
1/2+x,1/2+y,1/2+z
1/2-x,1/2-y,1/2+z
1/2+x,1/2-y,-z
1/2-x,1/2+y,-z
1/2-x,1/2-y,1/2-z
1/2+x,1/2+y,1/2-z
1/2-x,1/2+y,z
1/2+x,1/2-y,z
loop_
_atom_site_type_symbol
_atom_site_label
_atom_site_fract_x
_atom_site_fract_y
_atom_site_fract_z
Si Si1 0.155896 0.617579 0.569156
Si Si2 0.781085 0.831141 0.568791
Si Si3 0.362110 0.137883 0.068434
Si Si4 0.419465 0.707681 0.132025
Si Si5 0.567190 0.624627 0.245828
Si Si6 0.880429 0.011106 0.932328
Si Si7 0.553737 0.296207 0.621077
O O1 0.148127 0.637762 0.500000
O O2 0.217225 0.658123 0.593173
O O3 0.149979 0.488409 0.585946
O O4 0.107886 0.681947 0.605075
O O5 0.777057 0.833517 0.500000
O O6 0.809153 0.714694 0.589827
O O7 0.820274 0.935595 0.588431
O O8 0.420182 0.179706 0.098651
O O9 0.370719 0.152066 0.000000
O O10 0.408686 0.700965 0.201579
O O11 0.390933 0.600134 0.103448
O O12 0.486280 0.712876 0.119733
O O13 0.593880 0.500000 0.250000
O O14 0.500000 0.613284 0.250000
O O15 0.581728 0.681146 0.184373
O O16 0.930046 0.101533 0.921406
O O17 0.879333 0.979008 0.000000
#
# Coordination Sequence:
#
# PCOD8293284 Si02
#       7
#    16  16  16  16  16  16  16
#     4  10  21  34  51  78 109 141 174 216 262 311
#     4   8  17  33  52  73 101 138 179 213 252 311
#     4   9  19  35  53  74 105 145 174 203 264 325
#     4  11  21  31  51  83 106 132 178 220 262 311
#     4   9  17  33  53  74 102 137 175 215 260 309
#     4  10  19  30  50  80 107 135 168 214 268 312
#     4  10  19  34  53  75 106 140 175 215 262 315
#
# _framework density 17.369268000000002
#
# number of rings (size 3 to 8) (size 9 to 14) (size 15 to 20)
#    0.000    2.429    1.429    2.143    2.000    3.429 
#    0.000    2.143    0.000    6.000    7.429    0.000 
#    0.000    0.000    0.000    0.000    0.000    0.000 
#
# Total GULP energy -694257.087185 kJ/mol
# GULP energy per Si atom -12397.447985 kJ/mol
# Density = 1.732973 g / cm^3
# Si number density = 17.369268 Si / 1000 Ang^3
#
#
#
# Elastic Constant Matrix: (Units=GPa)
#
#
# Indices 1 2 3 4 5 6 
#
# 1 59.4539 38.4480 25.8056 0.0000 0.0000 0.0000
# 2 38.4480 112.4190 38.3858 0.0000 0.0000 0.0000
# 3 25.8056 38.3858 61.6444 0.0000 0.0000 0.0000
# 4 0.0000 0.0000 0.0000 20.5786 0.0000 0.0000
# 5 0.0000 0.0000 0.0000 0.0000 9.3794 0.0000
# 6 0.0000 0.0000 0.0000 0.0000 0.0000 20.2445
#
#
#
# Elastic Compliance Matrix: (Units=1/GPa)
#
#
# Indices 1 2 3 4 5 6 
#
# 1 0.023259 -0.005881 -0.006075 0.000000 0.000000 0.000000
# 2 -0.005881 0.012784 -0.005499 0.000000 0.000000 0.000000
# 3 -0.006075 -0.005499 0.022189 0.000000 0.000000 0.000000
# 4 0.000000 0.000000 0.000000 0.048594 0.000000 0.000000
# 5 0.000000 0.000000 0.000000 0.000000 0.106616 0.000000
# 6 0.000000 0.000000 0.000000 0.000000 0.000000 0.049396
#
#
# Mechanical properties :
#
#
# Convention : Reuss Voigt Hill
#
# Bulk Modulus (GPa) = 42.87452 48.75513 45.81483
# Shear Modulus (GPa) = 16.36536 18.76570 17.56553
#
# Velocity S-wave (km/s) = 3.07286 3.29050 3.18354
# Velocity P-wave (km/s) = 6.10964 6.52436 6.32040
#
# Compressibility (1/GPa) = 0.02332387
#
# Stress axis : x y z
#
# Youngs Moduli (GPa) = 42.99330 78.22227 45.06651
#
# Poissons Ratio (x) = 0.45999 0.27378
# Poissons Ratio (y) = 0.25282 0.24782
# Poissons Ratio (z) = 0.26119 0.43014
#
# Static dielectric constant tensor:
#      x y z
#    x 3.302740 0.000000 0.000000 
#    y 0.000000 3.253010 0.000000 
#    z 0.000000 0.000000 3.259420 
# 
# 
# High freq. dielectric constant tensor:
#      x y z
#    x 1.662320 0.000000 0.000000 
#    y 0.000000 1.668450 0.000000 
#    z 0.000000 0.000000 1.652390 
# 
# From -- ./inp_files/43516.got.cif
#   From: 2010.03.12/outbox.cif.g09.slc.cpg/sg72_22_cif.got.tgz:43516.got - 2010.04.16 14:54:00.
