data_PCOD8293339
_publ_section_title
;
Structure prediction by ZEFSAII (Michael W. Deem and Ramdas Pophale) SiO2 
 PCOD8293339
Probable space group: I B A M
;
_chemical_formula_sum "Si O2"
_cell_formula_units_Z 112
_cell_length_a 14.122424
_cell_length_b 27.531402
_cell_length_c 15.204614
_cell_angle_alpha 90.000000
_cell_angle_beta 90.000000
_cell_angle_gamma 90.000000
_cell_volume 5911.707982
_symmetry_space_group_name_H-M "I B A M"
_symmetry_group_IT_number 72
_symmetry_cell_setting 'orthorhombic'
loop_
_space_group_symop_operation_xyz
x,y,z
-x,-y,z
x,-y,1/2-z
-x,y,1/2-z
-x,-y,-z
x,y,-z
-x,y,1/2+z
x,-y,1/2+z
1/2+x,1/2+y,1/2+z
1/2-x,1/2-y,1/2+z
1/2+x,1/2-y,-z
1/2-x,1/2+y,-z
1/2-x,1/2-y,1/2-z
1/2+x,1/2+y,1/2-z
1/2-x,1/2+y,z
1/2+x,1/2-y,z
loop_
_atom_site_type_symbol
_atom_site_label
_atom_site_fract_x
_atom_site_fract_y
_atom_site_fract_z
Si Si1 0.566169 0.286947 0.850952
Si Si2 0.731295 0.777656 0.903632
Si Si3 0.630054 0.873369 0.897681
Si Si4 0.952471 0.314024 0.598349
Si Si5 0.887147 0.556020 0.247860
Si Si6 0.630182 0.684754 0.162899
Si Si7 0.714347 0.882545 0.399338
O O1 0.655416 0.283209 0.915692
O O2 0.533936 0.230702 0.834222
O O3 0.471013 0.312839 0.889521
O O4 0.601555 0.314832 0.764749
O O5 0.692553 0.828024 0.863954
O O6 0.698008 0.731553 0.847978
O O7 0.686723 0.770669 0.000000
O O8 0.521239 0.858925 0.879243
O O9 0.655184 0.918858 0.835727
O O10 0.648853 0.887093 0.000000
O O11 0.976487 0.295190 0.500000
O O12 0.845998 0.333311 0.603043
O O13 0.858831 0.500000 0.250000
O O14 0.835561 0.577200 0.161300
O O15 0.000000 0.562903 0.250000
O O16 0.682449 0.634731 0.135841
O O17 0.722093 0.902301 0.500000
#
# Coordination Sequence:
#
# PCOD8293339 Si02
#       7
#    16  16  16  16  16  16  16
#     4  11  22  33  50  79 117 158 196 239 269 316
#     4  11  21  32  50  77 111 151 191 229 268 325
#     4  10  21  36  55  81 116 157 196 236 287 346
#     4  10  19  31  51  79 114 156 194 229 273 328
#     4  11  24  39  60  86 111 143 189 247 305 356
#     4  11  23  34  52  80 114 156 198 233 277 331
#     4  11  23  39  58  83 118 160 198 233 285 352
#
# _framework density 18.945456
#
# number of rings (size 3 to 8) (size 9 to 14) (size 15 to 20)
#    0.000    1.286    4.286    2.143    2.000    2.286 
#    0.000    1.429    0.000    0.000    0.000    8.000 
#    0.000   12.571    0.000    0.000    0.000    0.000 
#
# Total GULP energy -693855.508244 kJ/mol
# GULP energy per Si atom -12390.276933 kJ/mol
# Density = 1.890233 g / cm^3
# Si number density = 18.945456 Si / 1000 Ang^3
#
#
#
# Elastic Constant Matrix: (Units=GPa)
#
#
# Indices 1 2 3 4 5 6 
#
# 1 116.9122 38.5830 26.4223 0.0000 0.0000 0.0000
# 2 38.5830 98.8919 52.1218 -0.0001 0.0000 0.0000
# 3 26.4223 52.1218 93.7004 -0.0004 0.0000 0.0000
# 4 0.0000 -0.0001 -0.0004 19.3804 0.0000 0.0000
# 5 0.0000 0.0000 0.0000 0.0000 22.8467 0.0000
# 6 0.0000 0.0000 0.0000 0.0000 0.0000 22.3979
#
#
#
# Elastic Compliance Matrix: (Units=1/GPa)
#
#
# Indices 1 2 3 4 5 6 
#
# 1 0.009872 -0.003373 -0.000907 0.000000 0.000000 0.000000
# 2 -0.003373 0.015459 -0.007648 0.000000 0.000000 0.000000
# 3 -0.000907 -0.007648 0.015182 0.000000 0.000000 0.000000
# 4 0.000000 0.000000 0.000000 0.051598 0.000000 0.000000
# 5 0.000000 0.000000 0.000000 0.000000 0.043770 0.000000
# 6 0.000000 0.000000 0.000000 0.000000 0.000000 0.044647
#
#
# Mechanical properties :
#
#
# Convention : Reuss Voigt Hill
#
# Bulk Modulus (GPa) = 60.03825 60.41762 60.22794
# Shear Modulus (GPa) = 23.81654 25.75016 24.78335
#
# Velocity S-wave (km/s) = 3.54942 3.69070 3.62075
# Velocity P-wave (km/s) = 6.96827 7.07963 7.02417
#
# Compressibility (1/GPa) = 0.01665605
#
# Stress axis : x y z
#
# Youngs Moduli (GPa) = 101.29956 64.68662 65.86538
#
# Poissons Ratio (x) = 0.21821 0.05976
# Poissons Ratio (y) = 0.34171 0.50374
# Poissons Ratio (z) = 0.09190 0.49473
#
# Static dielectric constant tensor:
#      x y z
#    x 3.781850 0.000000 0.000000 
#    y 0.000000 3.067760 0.000000 
#    z 0.000000 0.000000 3.466350 
# 
# 
# High freq. dielectric constant tensor:
#      x y z
#    x 1.742120 0.000000 0.000000 
#    y 0.000000 1.683980 0.000000 
#    z 0.000000 0.000000 1.740280 
# 
# From -- ./inp_files/22306.got.cif
#   From: 2010.03.12/outbox.cif.g09.slc.cpg/sg72_12_cif.got.tgz:22306.got - 2010.04.16 14:54:00.
