data_PCOD8293745
_publ_section_title
;
Structure prediction by ZEFSAII (Michael W. Deem and Ramdas Pophale) SiO2 
 PCOD8293745
Probable space group: I B A M
;
_chemical_formula_sum "Si O2"
_cell_formula_units_Z 96
_cell_length_a 9.657500
_cell_length_b 18.042195
_cell_length_c 27.361713
_cell_angle_alpha 90.000000
_cell_angle_beta 90.000000
_cell_angle_gamma 90.000000
_cell_volume 4767.573228
_symmetry_space_group_name_H-M "I B A M"
_symmetry_group_IT_number 72
_symmetry_cell_setting 'orthorhombic'
loop_
_space_group_symop_operation_xyz
x,y,z
-x,-y,z
x,-y,1/2-z
-x,y,1/2-z
-x,-y,-z
x,y,-z
-x,y,1/2+z
x,-y,1/2+z
1/2+x,1/2+y,1/2+z
1/2-x,1/2-y,1/2+z
1/2+x,1/2-y,-z
1/2-x,1/2+y,-z
1/2-x,1/2-y,1/2-z
1/2+x,1/2+y,1/2-z
1/2-x,1/2+y,z
1/2+x,1/2-y,z
loop_
_atom_site_type_symbol
_atom_site_label
_atom_site_fract_x
_atom_site_fract_y
_atom_site_fract_z
Si Si1 0.156724 0.487538 0.806828
Si Si2 0.400393 0.568950 0.851334
Si Si3 0.797290 0.209234 0.054708
Si Si4 0.012234 0.216796 0.693208
Si Si5 0.399893 0.658895 0.945681
Si Si6 0.703624 0.172958 0.154544
O O1 0.181036 0.500000 0.750000
O O2 0.245594 0.546741 0.836888
O O3 0.200953 0.404415 0.818157
O O4 0.000000 0.500000 0.823026
O O5 0.500000 0.500000 0.841763
O O6 0.448929 0.636342 0.817474
O O7 0.402083 0.591048 0.908185
O O8 0.736987 0.291747 0.062876
O O9 0.729662 0.157461 0.096649
O O10 0.963377 0.210182 0.061362
O O11 0.756958 0.180721 0.000000
O O12 0.935020 0.280169 0.662334
O O13 0.000000 0.235873 0.750000
O O14 0.171159 0.221363 0.676745
O O15 0.398435 0.624276 0.000000
#
# Coordination Sequence:
#
# PCOD8293745 Si02
#       6
#    16  16  16  16  16  16
#     4  11  27  44  65  89 131 174 212 263 328 388
#     4  12  23  42  63  92 131 169 213 262 325 390
#     4  10  19  37  62  94 127 164 214 269 319 378
#     4  12  26  39  66  95 129 168 217 268 314 388
#     4  10  21  38  64  95 127 166 211 267 326 380
#     4  12  23  44  63  98 126 168 217 264 323 378
#
# _framework density 20.136030999999999
#
# number of rings (size 3 to 8) (size 9 to 14) (size 15 to 20)
#    0.000    0.833    5.000    1.500    4.667    1.667 
#    0.000    0.833    0.000    1.000    0.000    0.000 
#    0.000    0.000    0.000    0.000    0.000    0.000 
#
# Total GULP energy -595337.867136 kJ/mol
# GULP energy per Si atom -12402.872232 kJ/mol
# Density = 2.009020 g / cm^3
# Si number density = 20.136031 Si / 1000 Ang^3
#
#
#
# Elastic Constant Matrix: (Units=GPa)
#
#
# Indices 1 2 3 4 5 6 
#
# 1 98.5905 20.5305 40.4332 0.0000 0.0000 0.0000
# 2 20.5305 66.4253 20.8564 0.0000 0.0000 0.0000
# 3 40.4332 20.8564 131.6810 0.0000 0.0000 0.0000
# 4 0.0000 0.0000 0.0000 36.3058 0.0000 0.0000
# 5 0.0000 0.0000 0.0000 0.0000 31.4197 0.0000
# 6 0.0000 0.0000 0.0000 0.0000 0.0000 30.3560
#
#
#
# Elastic Compliance Matrix: (Units=1/GPa)
#
#
# Indices 1 2 3 4 5 6 
#
# 1 0.012046 -0.002696 -0.003272 0.000000 0.000000 0.000000
# 2 -0.002696 0.016446 -0.001777 0.000000 0.000000 0.000000
# 3 -0.003272 -0.001777 0.008880 0.000000 0.000000 0.000000
# 4 0.000000 0.000000 0.000000 0.027544 0.000000 0.000000
# 5 0.000000 0.000000 0.000000 0.000000 0.031827 0.000000
# 6 0.000000 0.000000 0.000000 0.000000 0.000000 0.032942
#
#
# Mechanical properties :
#
#
# Convention : Reuss Voigt Hill
#
# Bulk Modulus (GPa) = 45.69833 51.14855 48.42344
# Shear Modulus (GPa) = 32.79355 33.94143 33.36749
#
# Velocity S-wave (km/s) = 4.03997 4.11007 4.07517
# Velocity P-wave (km/s) = 6.67127 6.92677 6.80022
#
# Compressibility (1/GPa) = 0.02188264
#
# Stress axis : x y z
#
# Youngs Moduli (GPa) = 83.01394 60.80627 112.61026
#
# Poissons Ratio (x) = 0.16393 0.36844
# Poissons Ratio (y) = 0.22380 0.20011
# Poissons Ratio (z) = 0.27161 0.10805
#
# Static dielectric constant tensor:
#      x y z
#    x 3.925390 0.000000 0.000000 
#    y 0.000000 3.413570 0.000000 
#    z 0.000000 0.000000 3.971220 
# 
# 
# High freq. dielectric constant tensor:
#      x y z
#    x 1.799490 0.000000 0.000000 
#    y 0.000000 1.762080 0.000000 
#    z 0.000000 0.000000 1.805290 
# 
# From -- ./inp_files/47355.got.cif
#   From: 2010.03.12/outbox.cif.g09.slc.cpg/sg72_24_cif.got.tgz:47355.got - 2010.04.16 14:54:00.
