data_PCOD8293086
_publ_section_title
;
Structure prediction by ZEFSAII (Michael W. Deem and Ramdas Pophale) SiO2 
 PCOD8293086
Probable space group: I B A M
;
_chemical_formula_sum "Si O2"
_cell_formula_units_Z 116
_cell_length_a 27.167063
_cell_length_b 26.519544
_cell_length_c 8.907534
_cell_angle_alpha 90.000000
_cell_angle_beta 90.000000
_cell_angle_gamma 90.000000
_cell_volume 6417.505222
_symmetry_space_group_name_H-M "I B A M"
_symmetry_group_IT_number 72
_symmetry_cell_setting 'orthorhombic'
loop_
_space_group_symop_operation_xyz
x,y,z
-x,-y,z
x,-y,1/2-z
-x,y,1/2-z
-x,-y,-z
x,y,-z
-x,y,1/2+z
x,-y,1/2+z
1/2+x,1/2+y,1/2+z
1/2-x,1/2-y,1/2+z
1/2+x,1/2-y,-z
1/2-x,1/2+y,-z
1/2-x,1/2-y,1/2-z
1/2+x,1/2+y,1/2-z
1/2-x,1/2+y,z
1/2+x,1/2-y,z
loop_
_atom_site_type_symbol
_atom_site_label
_atom_site_fract_x
_atom_site_fract_y
_atom_site_fract_z
Si Si1 0.215887 0.314611 0.169390
Si Si2 0.000000 0.500000 0.750000
Si Si3 0.214233 0.050958 0.821856
Si Si4 0.050021 0.313319 0.822302
Si Si5 0.685132 0.925023 0.329186
Si Si6 0.579137 0.921480 0.332333
Si Si7 0.136958 0.239467 0.178527
Si Si8 0.319020 0.350054 0.179429
O O1 0.182704 0.364564 0.176133
O O2 0.184823 0.269391 0.243456
O O3 0.268843 0.324427 0.244412
O O4 0.226396 0.298798 0.000000
O O5 0.963730 0.536425 0.842272
O O6 0.271942 0.054827 0.777973
O O7 0.179897 0.094682 0.752201
O O8 0.192780 0.000000 0.750000
O O9 0.209079 0.050844 0.000000
O O10 0.061679 0.369394 0.753828
O O11 0.089970 0.271990 0.773238
O O12 0.000000 0.293658 0.750000
O O13 0.044098 0.316279 0.000000
O O14 0.696148 0.943766 0.500000
O O15 0.631163 0.942541 0.264975
O O16 0.593986 0.906147 0.500000
O O17 0.136265 0.184791 0.260134
O O18 0.138503 0.232324 0.000000
O O19 0.320050 0.355563 0.000000
#
# Coordination Sequence:
#
# PCOD8293086 Si02
#       8
#    16   4  16  16  16  16  16  16
#     4   8  14  27  48  70  96 130 166 203 256 315
#     4  12  22  32  48  74  96 128 186 236 296 328
#     4  11  22  37  54  76 104 138 175 211 253 305
#     4  10  20  36  55  73  99 136 175 221 277 328
#     4   9  17  33  52  70  96 133 174 219 269 318
#     4  10  20  35  51  67  95 131 172 228 286 331
#     4  10  18  31  52  74 100 137 174 212 264 321
#     4  10  20  33  51  77 108 137 168 211 257 310
#
# _framework density 18.075559999999999
#
# number of rings (size 3 to 8) (size 9 to 14) (size 15 to 20)
#    0.000    2.207    2.069    3.103    0.966    0.552 
#    0.000    4.138    0.000    0.000    0.000    0.000 
#    0.000    0.552    0.000    5.793    0.000    3.172 
#
# Total GULP energy -718643.050842 kJ/mol
# GULP energy per Si atom -12390.397428 kJ/mol
# Density = 1.803442 g / cm^3
# Si number density = 18.075560 Si / 1000 Ang^3
#
#
#
# Elastic Constant Matrix: (Units=GPa)
#
#
# Indices 1 2 3 4 5 6 
#
# 1 56.4908 52.3307 21.0600 0.0000 0.0000 0.0000
# 2 52.3307 134.7396 42.7338 0.0000 0.0000 0.0000
# 3 21.0600 42.7338 69.9398 0.0000 0.0000 0.0000
# 4 0.0000 0.0000 0.0000 25.2922 0.0000 0.0000
# 5 0.0000 0.0000 0.0000 0.0000 21.7117 0.0000
# 6 0.0000 0.0000 0.0000 0.0000 0.0000 28.1981
#
#
#
# Elastic Compliance Matrix: (Units=1/GPa)
#
#
# Indices 1 2 3 4 5 6 
#
# 1 0.027923 -0.010144 -0.002210 0.000000 0.000000 0.000000
# 2 -0.010144 0.012891 -0.004822 0.000000 0.000000 0.000000
# 3 -0.002210 -0.004822 0.017910 0.000000 0.000000 0.000000
# 4 0.000000 0.000000 0.000000 0.039538 0.000000 0.000000
# 5 0.000000 0.000000 0.000000 0.000000 0.046058 0.000000
# 6 0.000000 0.000000 0.000000 0.000000 0.000000 0.035463
#
#
# Mechanical properties :
#
#
# Convention : Reuss Voigt Hill
#
# Bulk Modulus (GPa) = 41.03122 54.82435 47.92778
# Shear Modulus (GPa) = 22.49641 24.71012 23.60326
#
# Velocity S-wave (km/s) = 3.53168 3.70137 3.61752
# Velocity P-wave (km/s) = 6.27531 6.97591 6.63486
#
# Compressibility (1/GPa) = 0.02437169
#
# Stress axis : x y z
#
# Youngs Moduli (GPa) = 35.81316 77.57527 55.83572
#
# Poissons Ratio (x) = 0.78691 0.12340
# Poissons Ratio (y) = 0.36328 0.26923
# Poissons Ratio (z) = 0.07915 0.37406
#
# Static dielectric constant tensor:
#      x y z
#    x 3.186310 0.000000 0.000000 
#    y 0.000000 3.430660 0.000000 
#    z 0.000000 0.000000 3.011650 
# 
# 
# High freq. dielectric constant tensor:
#      x y z
#    x 1.667920 0.000000 0.000000 
#    y 0.000000 1.701610 0.000000 
#    z 0.000000 0.000000 1.675550 
# 
# From -- ./inp_files/8720.got.cif
#   From: 2010.03.12/outbox.cif.g09.slc.cpg/sg72_5_cif.got.tgz:8720.got - 2010.04.16 14:54:00.
