data_PCOD8293611
_publ_section_title
;
Structure prediction by ZEFSAII (Michael W. Deem and Ramdas Pophale) SiO2 
 PCOD8293611
Probable space group: I B A M
;
_chemical_formula_sum "Si O2"
_cell_formula_units_Z 80
_cell_length_a 8.679410
_cell_length_b 25.324778
_cell_length_c 15.852960
_cell_angle_alpha 90.000000
_cell_angle_beta 90.000000
_cell_angle_gamma 90.000000
_cell_volume 3484.546103
_symmetry_space_group_name_H-M "I B A M"
_symmetry_group_IT_number 72
_symmetry_cell_setting 'orthorhombic'
loop_
_space_group_symop_operation_xyz
x,y,z
-x,-y,z
x,-y,1/2-z
-x,y,1/2-z
-x,-y,-z
x,y,-z
-x,y,1/2+z
x,-y,1/2+z
1/2+x,1/2+y,1/2+z
1/2-x,1/2-y,1/2+z
1/2+x,1/2-y,-z
1/2-x,1/2+y,-z
1/2-x,1/2-y,1/2-z
1/2+x,1/2+y,1/2-z
1/2-x,1/2+y,z
1/2+x,1/2-y,z
loop_
_atom_site_type_symbol
_atom_site_label
_atom_site_fract_x
_atom_site_fract_y
_atom_site_fract_z
Si Si1 0.296064 0.396670 0.097258
Si Si2 0.640709 0.391806 0.100402
Si Si3 0.166838 0.510444 0.097100
Si Si4 0.787376 0.283350 0.094963
Si Si5 0.595597 0.805857 0.663866
O O1 0.466646 0.388908 0.135312
O O2 0.267340 0.458438 0.106735
O O3 0.169783 0.363360 0.148955
O O4 0.286216 0.378151 0.000000
O O5 0.738662 0.440922 0.139315
O O6 0.720899 0.338264 0.130273
O O7 0.634468 0.398008 0.000000
O O8 0.000000 0.500000 0.140426
O O9 0.137382 0.525812 0.000000
O O10 0.733020 0.237018 0.158028
O O11 0.972104 0.288952 0.092955
O O12 0.731341 0.271441 0.000000
O O13 0.500000 0.805150 0.750000
#
# Coordination Sequence:
#
# PCOD8293611 Si02
#       5
#    16  16  16  16  16
#     4  10  19  34  57  84 118 158 202 251 307 375
#     4   9  18  32  55  88 118 148 194 255 312 364
#     4   9  16  28  51  86 121 150 190 249 311 365
#     4  11  22  39  62  85 114 154 204 255 308 375
#     4  12  25  40  58  87 122 161 205 258 319 379
#
# _framework density 22.958514999999998
#
# number of rings (size 3 to 8) (size 9 to 14) (size 15 to 20)
#    0.000    1.800    0.000    5.400    0.000    7.200 
#    0.000    0.000    0.000    5.400    0.000    5.600 
#    0.000    0.000    0.000    0.000    0.000    1.200 
#
# Total GULP energy -495955.072815 kJ/mol
# GULP energy per Si atom -12398.876820 kJ/mol
# Density = 2.290626 g / cm^3
# Si number density = 22.958515 Si / 1000 Ang^3
#
#
#
# Elastic Constant Matrix: (Units=GPa)
#
#
# Indices 1 2 3 4 5 6 
#
# 1 115.7563 17.5493 6.3538 0.0000 0.0000 0.0000
# 2 17.5493 100.3502 20.0905 0.0000 0.0000 0.0000
# 3 6.3538 20.0905 45.6005 0.0000 0.0000 0.0000
# 4 0.0000 0.0000 0.0000 10.8004 0.0000 0.0000
# 5 0.0000 0.0000 0.0000 0.0000 22.8176 0.0000
# 6 0.0000 0.0000 0.0000 0.0000 0.0000 53.0859
#
#
#
# Elastic Compliance Matrix: (Units=1/GPa)
#
#
# Indices 1 2 3 4 5 6 
#
# 1 0.008889 -0.001433 -0.000607 0.000000 0.000000 0.000000
# 2 -0.001433 0.011160 -0.004717 0.000000 0.000000 0.000000
# 3 -0.000607 -0.004717 0.024093 0.000000 0.000000 0.000000
# 4 0.000000 0.000000 0.000000 0.092589 0.000000 0.000000
# 5 0.000000 0.000000 0.000000 0.000000 0.043826 0.000000
# 6 0.000000 0.000000 0.000000 0.000000 0.000000 0.018837
#
#
# Mechanical properties :
#
#
# Convention : Reuss Voigt Hill
#
# Bulk Modulus (GPa) = 32.65089 38.85493 35.75291
# Shear Modulus (GPa) = 22.40960 31.85499 27.13230
#
# Velocity S-wave (km/s) = 3.12763 3.72896 3.44146
# Velocity P-wave (km/s) = 5.22450 5.95826 5.60340
#
# Compressibility (1/GPa) = 0.03062704
#
# Stress axis : x y z
#
# Youngs Moduli (GPa) = 112.49320 89.60483 41.50667
#
# Poissons Ratio (x) = 0.12840 0.02521
# Poissons Ratio (y) = 0.16120 0.19580
# Poissons Ratio (z) = 0.06831 0.42269
#
# Static dielectric constant tensor:
#      x y z
#    x 4.466150 0.000000 0.000000 
#    y 0.000000 4.102390 0.000000 
#    z 0.000000 0.000000 3.581920 
# 
# 
# High freq. dielectric constant tensor:
#      x y z
#    x 1.926710 0.000000 0.000000 
#    y 0.000000 1.915730 0.000000 
#    z 0.000000 0.000000 1.856300 
# 
# From -- ./inp_files/28154.got.cif
#   From: 2010.03.12/outbox.cif.g09.slc.cpg/sg72_15_cif.got.tgz:28154.got - 2010.04.16 14:54:00.
