data_PCOD8293236
_publ_section_title
;
Structure prediction by ZEFSAII (Michael W. Deem and Ramdas Pophale) SiO2 
 PCOD8293236
Probable space group: I B A M
;
_chemical_formula_sum "Si O2"
_cell_formula_units_Z 112
_cell_length_a 18.572516
_cell_length_b 18.522153
_cell_length_c 18.774566
_cell_angle_alpha 90.000000
_cell_angle_beta 90.000000
_cell_angle_gamma 90.000000
_cell_volume 6458.506708
_symmetry_space_group_name_H-M "I B A M"
_symmetry_group_IT_number 72
_symmetry_cell_setting 'orthorhombic'
loop_
_space_group_symop_operation_xyz
x,y,z
-x,-y,z
x,-y,1/2-z
-x,y,1/2-z
-x,-y,-z
x,y,-z
-x,y,1/2+z
x,-y,1/2+z
1/2+x,1/2+y,1/2+z
1/2-x,1/2-y,1/2+z
1/2+x,1/2-y,-z
1/2-x,1/2+y,-z
1/2-x,1/2-y,1/2-z
1/2+x,1/2+y,1/2-z
1/2-x,1/2+y,z
1/2+x,1/2-y,z
loop_
_atom_site_type_symbol
_atom_site_label
_atom_site_fract_x
_atom_site_fract_y
_atom_site_fract_z
Si Si1 0.381994 0.774274 0.083535
Si Si2 0.706702 0.330025 0.178956
Si Si3 0.723967 0.020214 0.332145
Si Si4 0.332339 0.279107 0.172341
Si Si5 0.243061 0.380941 0.917790
Si Si6 0.065402 0.459782 0.674660
Si Si7 0.522886 0.795028 0.173369
O O1 0.344098 0.705183 0.119192
O O2 0.335136 0.846216 0.098980
O O3 0.460329 0.787897 0.115528
O O4 0.388421 0.758531 0.000000
O O5 0.723081 0.412126 0.156512
O O6 0.666524 0.326477 0.255222
O O7 0.783510 0.291025 0.186399
O O8 0.643285 0.034682 0.363014
O O9 0.720077 0.000000 0.250000
O O10 0.756318 0.954280 0.375768
O O11 0.303693 0.324807 0.106166
O O12 0.410914 0.253877 0.148060
O O13 0.253332 0.397450 0.000000
O O14 0.070674 0.500000 0.750000
O O15 0.047062 0.376723 0.683929
O O16 0.000000 0.500000 0.631261
O O17 0.500000 0.764533 0.250000
#
# Coordination Sequence:
#
# PCOD8293236 Si02
#       7
#    16  16  16  16  16  16  16
#     4  10  23  39  56  81 121 156 186 236 297 349
#     4  10  19  34  57  85 114 145 197 243 282 329
#     4  11  20  32  57  88 115 147 192 238 281 336
#     4  10  20  34  56  86 112 147 196 243 278 333
#     4  10  22  39  57  81 119 156 183 230 299 351
#     4  10  19  28  48  86 123 150 181 225 276 340
#     4  12  20  33  57  89 113 150 195 235 283 337
#
# _framework density 17.341470000000001
#
# number of rings (size 3 to 8) (size 9 to 14) (size 15 to 20)
#    0.000    1.571    5.714    0.857    2.000    1.143 
#    0.000    0.714    0.000    3.429    0.000    2.000 
#    0.000    0.000    0.000    0.000    0.000    0.000 
#
# Total GULP energy -694338.433468 kJ/mol
# GULP energy per Si atom -12398.900598 kJ/mol
# Density = 1.730200 g / cm^3
# Si number density = 17.341470 Si / 1000 Ang^3
#
#
#
# Elastic Constant Matrix: (Units=GPa)
#
#
# Indices 1 2 3 4 5 6 
#
# 1 98.3849 55.8558 36.6394 0.0000 0.0000 0.0000
# 2 55.8558 107.4402 38.3903 0.0000 0.0000 0.0000
# 3 36.6394 38.3903 87.6168 0.0000 0.0000 0.0000
# 4 0.0000 0.0000 0.0000 22.5740 0.0000 0.0000
# 5 0.0000 0.0000 0.0000 0.0000 14.2971 0.0000
# 6 0.0000 0.0000 0.0000 0.0000 0.0000 16.7220
#
#
#
# Elastic Compliance Matrix: (Units=1/GPa)
#
#
# Indices 1 2 3 4 5 6 
#
# 1 0.015248 -0.006697 -0.003442 0.000000 0.000000 0.000000
# 2 -0.006697 0.013977 -0.003323 0.000000 0.000000 0.000000
# 3 -0.003442 -0.003323 0.014309 0.000000 0.000000 0.000000
# 4 0.000000 0.000000 0.000000 0.044299 0.000000 0.000000
# 5 0.000000 0.000000 0.000000 0.000000 0.069944 0.000000
# 6 0.000000 0.000000 0.000000 0.000000 0.000000 0.059801
#
#
# Mechanical properties :
#
#
# Convention : Reuss Voigt Hill
#
# Bulk Modulus (GPa) = 60.21018 61.69034 60.95026
# Shear Modulus (GPa) = 19.99681 21.55572 20.77627
#
# Velocity S-wave (km/s) = 3.39945 3.52947 3.46507
# Velocity P-wave (km/s) = 7.08548 7.22915 7.15768
#
# Compressibility (1/GPa) = 0.01660849
#
# Stress axis : x y z
#
# Youngs Moduli (GPa) = 65.58132 71.54692 69.88669
#
# Poissons Ratio (x) = 0.47918 0.24055
# Poissons Ratio (y) = 0.43922 0.23226
# Poissons Ratio (z) = 0.22573 0.23778
#
# Static dielectric constant tensor:
#      x y z
#    x 3.404430 0.000000 0.000000 
#    y 0.000000 3.163530 0.000000 
#    z 0.000000 0.000000 0.292780 
# 
# 
# High freq. dielectric constant tensor:
#      x y z
#    x 1.665620 0.000000 0.000000 
#    y 0.000000 1.665500 0.000000 
#    z 0.000000 0.000000 1.650630 
# 
# From -- ./inp_files/39204.got.cif
#   From: 2010.03.12/outbox.cif.g09.slc.cpg/sg72_20_cif.got.tgz:39204.got - 2010.04.16 14:54:00.
