data_PCOD8293104
_publ_section_title
;
Structure prediction by ZEFSAII (Michael W. Deem and Ramdas Pophale) SiO2 
 PCOD8293104
Probable space group: I B A M
;
_chemical_formula_sum "Si O2"
_cell_formula_units_Z 84
_cell_length_a 8.810036
_cell_length_b 24.655444
_cell_length_c 18.193830
_cell_angle_alpha 90.000000
_cell_angle_beta 90.000000
_cell_angle_gamma 90.000000
_cell_volume 3951.979137
_symmetry_space_group_name_H-M "I B A M"
_symmetry_group_IT_number 72
_symmetry_cell_setting 'orthorhombic'
loop_
_space_group_symop_operation_xyz
x,y,z
-x,-y,z
x,-y,1/2-z
-x,y,1/2-z
-x,-y,-z
x,y,-z
-x,y,1/2+z
x,-y,1/2+z
1/2+x,1/2+y,1/2+z
1/2-x,1/2-y,1/2+z
1/2+x,1/2-y,-z
1/2-x,1/2+y,-z
1/2-x,1/2-y,1/2-z
1/2+x,1/2+y,1/2-z
1/2-x,1/2+y,z
1/2+x,1/2-y,z
loop_
_atom_site_type_symbol
_atom_site_label
_atom_site_fract_x
_atom_site_fract_y
_atom_site_fract_z
Si Si1 0.670535 0.116520 0.913465
Si Si2 0.692729 0.321707 0.912021
Si Si3 0.000000 0.500000 0.750000
Si Si4 0.158393 0.015602 0.582374
Si Si5 0.850560 0.576638 0.633587
Si Si6 0.859247 0.784642 0.586765
O O1 0.495108 0.108130 0.897172
O O2 0.736381 0.172500 0.880433
O O3 0.765180 0.066934 0.877013
O O4 0.692328 0.115711 0.000000
O O5 0.726761 0.374756 0.861630
O O6 0.814707 0.275850 0.888562
O O7 0.527865 0.300036 0.887767
O O8 0.699708 0.334709 0.000000
O O9 0.109893 0.458720 0.705733
O O10 0.116299 0.033419 0.500000
O O11 0.279322 0.966842 0.577890
O O12 0.000000 0.000000 0.623241
O O13 0.848596 0.787105 0.500000
#
# Coordination Sequence:
#
# PCOD8293104 Si02
#       6
#    16  16   4  16  16  16
#     4  10  18  31  55  84 116 147 179 229 297 367
#     4  10  19  33  58  90 124 153 183 232 300 370
#     4  12  28  44  56  76 108 160 226 270 278 332
#     4  10  19  32  55  88 116 141 179 234 303 372
#     4  12  22  39  57  77 113 159 202 252 296 334
#     4   9  18  32  55  96 131 152 178 221 297 383
#
# _framework density 21.255172999999999
#
# number of rings (size 3 to 8) (size 9 to 14) (size 15 to 20)
#    0.000    1.714    1.905    4.000    0.000    7.619 
#    0.000    0.476    0.000    4.571    0.000    0.000 
#    0.000    0.000    0.000    0.000    0.000    0.000 
#
# Total GULP energy -520323.025966 kJ/mol
# GULP energy per Si atom -12388.643475 kJ/mol
# Density = 2.120679 g / cm^3
# Si number density = 21.255173 Si / 1000 Ang^3
#
#
#
# Elastic Constant Matrix: (Units=GPa)
#
#
# Indices 1 2 3 4 5 6 
#
# 1 97.7105 36.2477 20.5382 0.0001 0.0000 0.0000
# 2 36.2477 147.3660 32.0800 0.0001 0.0000 0.0000
# 3 20.5382 32.0800 25.6477 0.0005 0.0001 0.0000
# 4 0.0001 0.0001 0.0005 10.1641 0.0000 0.0000
# 5 0.0000 0.0000 0.0001 0.0000 3.3319 0.0000
# 6 0.0000 0.0000 0.0000 0.0000 0.0000 51.6897
#
#
#
# Elastic Compliance Matrix: (Units=1/GPa)
#
#
# Indices 1 2 3 4 5 6 
#
# 1 0.012465 -0.001227 -0.008447 0.000000 0.000000 0.000000
# 2 -0.001227 0.009446 -0.010832 0.000000 0.000000 0.000000
# 3 -0.008447 -0.010832 0.059302 -0.000003 -0.000001 0.000000
# 4 0.000000 0.000000 -0.000003 0.098386 -0.000001 0.000000
# 5 0.000000 0.000000 -0.000001 -0.000001 0.300127 0.000000
# 6 0.000000 0.000000 0.000000 0.000000 0.000000 0.019346
#
#
# Mechanical properties :
#
#
# Convention : Reuss Voigt Hill
#
# Bulk Modulus (GPa) = 24.87485 49.82846 37.35165
# Shear Modulus (GPa) = 9.03370 25.16103 17.09737
#
# Velocity S-wave (km/s) = 2.06382 3.44431 2.83925
# Velocity P-wave (km/s) = 4.17223 6.26990 5.32537
#
# Compressibility (1/GPa) = 0.04020125
#
# Stress axis : x y z
#
# Youngs Moduli (GPa) = 80.22432 105.86858 16.86281
#
# Poissons Ratio (x) = 0.12993 0.14244
# Poissons Ratio (y) = 0.09846 0.18265
# Poissons Ratio (z) = 0.67763 1.14675
#
# Static dielectric constant tensor:
#      x y z
#    x 4.147080 0.000000 0.000000 
#    y 0.000000 4.363310 0.000000 
#    z 0.000000 0.000000 3.101890 
# 
# 
# High freq. dielectric constant tensor:
#      x y z
#    x 1.852160 0.000000 0.000000 
#    y 0.000000 1.859750 0.000000 
#    z 0.000000 0.000000 1.743230 
# 
# From -- ./inp_files/42356.got.cif
#   From: 2010.03.12/outbox.cif.g09.slc.cpg/sg72_22_cif.got.tgz:42356.got - 2010.04.16 14:54:00.
