data_PCOD8293384
_publ_section_title
;
Structure prediction by ZEFSAII (Michael W. Deem and Ramdas Pophale) SiO2 
 PCOD8293384
Probable space group: I B A M
;
_chemical_formula_sum "Si O2"
_cell_formula_units_Z 112
_cell_length_a 12.076476
_cell_length_b 28.790667
_cell_length_c 17.279378
_cell_angle_alpha 90.000000
_cell_angle_beta 90.000000
_cell_angle_gamma 90.000000
_cell_volume 6007.863465
_symmetry_space_group_name_H-M "I B A M"
_symmetry_group_IT_number 72
_symmetry_cell_setting 'orthorhombic'
loop_
_space_group_symop_operation_xyz
x,y,z
-x,-y,z
x,-y,1/2-z
-x,y,1/2-z
-x,-y,-z
x,y,-z
-x,y,1/2+z
x,-y,1/2+z
1/2+x,1/2+y,1/2+z
1/2-x,1/2-y,1/2+z
1/2+x,1/2-y,-z
1/2-x,1/2+y,-z
1/2-x,1/2-y,1/2-z
1/2+x,1/2+y,1/2-z
1/2-x,1/2+y,z
1/2+x,1/2-y,z
loop_
_atom_site_type_symbol
_atom_site_label
_atom_site_fract_x
_atom_site_fract_y
_atom_site_fract_z
Si Si1 0.865225 0.662538 0.590840
Si Si2 0.304792 0.587444 0.090091
Si Si3 0.610107 0.171472 0.092063
Si Si4 0.694513 0.609439 0.908208
Si Si5 0.121599 0.989229 0.090806
Si Si6 0.983250 0.151889 0.340513
Si Si7 0.669663 0.726648 0.591770
O O1 0.878975 0.668486 0.500000
O O2 0.810986 0.612433 0.611125
O O3 0.784947 0.703748 0.621545
O O4 0.987175 0.665641 0.628912
O O5 0.296729 0.532542 0.108601
O O6 0.403998 0.608734 0.139716
O O7 0.334407 0.595880 0.000000
O O8 0.688056 0.129596 0.122427
O O9 0.663783 0.220150 0.119080
O O10 0.603213 0.170286 0.000000
O O11 0.674084 0.557734 0.872945
O O12 0.600453 0.644806 0.881490
O O13 0.695533 0.607916 0.000000
O O14 0.107904 0.980990 0.000000
O O15 0.000000 0.000000 0.126219
O O16 0.933796 0.200021 0.371170
O O17 0.000000 0.154876 0.250000
O O18 0.659583 0.721239 0.500000
#
# Coordination Sequence:
#
# PCOD8293384 Si02
#       7
#    16  16  16  16  16  16  16
#     4   8  15  28  46  72  99 123 163 206 240 288
#     4   9  16  31  53  71  95 136 168 199 248 306
#     4   9  18  30  50  77  99 125 167 213 246 286
#     4  10  19  32  51  75 103 129 160 207 254 297
#     4   9  15  26  48  76 100 125 162 202 251 305
#     4  11  21  32  48  74 106 130 166 209 251 297
#     4   9  18  32  53  73  95 133 173 205 246 297
#
# _framework density 18.642233999999998
#
# number of rings (size 3 to 8) (size 9 to 14) (size 15 to 20)
#    0.000    2.714    1.429    2.143    2.000    0.000 
#    0.000    2.857    0.000    4.286    0.000    0.000 
#    0.000    4.571    0.000    0.000    0.000    0.000 
#
# Total GULP energy -694112.104319 kJ/mol
# GULP energy per Si atom -12394.859006 kJ/mol
# Density = 1.859980 g / cm^3
# Si number density = 18.642234 Si / 1000 Ang^3
#
#
#
# Elastic Constant Matrix: (Units=GPa)
#
#
# Indices 1 2 3 4 5 6 
#
# 1 161.2150 91.3343 12.9282 0.0000 0.0000 0.0000
# 2 91.3343 158.6303 19.2999 0.0000 0.0000 0.0000
# 3 12.9282 19.2999 21.3346 0.0006 -0.0002 0.0000
# 4 0.0000 0.0000 0.0006 8.8161 0.0000 -0.0001
# 5 0.0000 0.0000 -0.0002 0.0000 3.3578 0.0000
# 6 0.0000 0.0000 0.0000 -0.0001 0.0000 29.3027
#
#
#
# Elastic Compliance Matrix: (Units=1/GPa)
#
#
# Indices 1 2 3 4 5 6 
#
# 1 0.009221 -0.005202 -0.000882 0.000000 0.000000 0.000000
# 2 -0.005202 0.010018 -0.005911 0.000000 0.000000 0.000000
# 3 -0.000882 -0.005911 0.052753 -0.000003 0.000003 0.000000
# 4 0.000000 0.000000 -0.000003 0.113428 0.000000 0.000000
# 5 0.000000 0.000000 0.000003 0.000000 0.297815 0.000000
# 6 0.000000 0.000000 0.000000 0.000000 0.000000 0.034127
#
#
# Mechanical properties :
#
#
# Convention : Reuss Voigt Hill
#
# Bulk Modulus (GPa) = 20.83161 65.36720 43.09941
# Shear Modulus (GPa) = 8.97100 22.80315 15.88707
#
# Velocity S-wave (km/s) = 2.19605 3.50122 2.92243
# Velocity P-wave (km/s) = 4.19867 7.17530 5.87851
#
# Compressibility (1/GPa) = 0.04800396
#
# Stress axis : x y z
#
# Youngs Moduli (GPa) = 108.45391 99.82038 18.95609
#
# Poissons Ratio (x) = 0.51922 0.01672
# Poissons Ratio (y) = 0.56413 0.11204
# Poissons Ratio (z) = 0.09564 0.59000
#
# Static dielectric constant tensor:
#      x y z
#    x 3.675050 0.000000 0.000000 
#    y 0.000000 3.683010 0.000000 
#    z 0.000000 0.000000 2.856590 
# 
# 
# High freq. dielectric constant tensor:
#      x y z
#    x 1.718390 0.000000 0.000000 
#    y 0.000000 1.730560 0.000000 
#    z 0.000000 0.000000 1.665490 
# 
# From -- ./inp_files/20682.got.cif
#   From: 2010.03.12/outbox.cif.g09.slc.cpg/sg72_11_cif.got.tgz:20682.got - 2010.04.16 14:54:00.
