data_PCOD8293263
_publ_section_title
;
Structure prediction by ZEFSAII (Michael W. Deem and Ramdas Pophale) SiO2 
 PCOD8293263
Probable space group: I B A M
;
_chemical_formula_sum "Si O2"
_cell_formula_units_Z 120
_cell_length_a 12.636169
_cell_length_b 28.315110
_cell_length_c 19.726048
_cell_angle_alpha 90.000000
_cell_angle_beta 90.000000
_cell_angle_gamma 90.000000
_cell_volume 7057.871781
_symmetry_space_group_name_H-M "I B A M"
_symmetry_group_IT_number 72
_symmetry_cell_setting 'orthorhombic'
loop_
_space_group_symop_operation_xyz
x,y,z
-x,-y,z
x,-y,1/2-z
-x,y,1/2-z
-x,-y,-z
x,y,-z
-x,y,1/2+z
x,-y,1/2+z
1/2+x,1/2+y,1/2+z
1/2-x,1/2-y,1/2+z
1/2+x,1/2-y,-z
1/2-x,1/2+y,-z
1/2-x,1/2-y,1/2-z
1/2+x,1/2+y,1/2-z
1/2-x,1/2+y,z
1/2+x,1/2-y,z
loop_
_atom_site_type_symbol
_atom_site_label
_atom_site_fract_x
_atom_site_fract_y
_atom_site_fract_z
Si Si1 0.764182 0.677161 0.421276
Si Si2 0.874548 0.503731 0.172490
Si Si3 0.646260 0.736403 0.841248
Si Si4 0.640699 0.812244 0.634806
Si Si5 0.887349 0.588310 0.922860
Si Si6 0.636779 0.919951 0.077375
Si Si7 0.500000 0.788248 0.250000
Si Si8 0.548684 0.280865 0.076297
O O1 0.789066 0.684468 0.500000
O O2 0.830389 0.716898 0.383817
O O3 0.801495 0.626050 0.396621
O O4 0.639350 0.681168 0.405656
O O5 0.830476 0.500000 0.250000
O O6 0.841198 0.551844 0.133233
O O7 0.826913 0.461343 0.127774
O O8 0.000000 0.500000 0.173869
O O9 0.747204 0.702749 0.831439
O O10 0.598307 0.754111 0.770094
O O11 0.552319 0.707689 0.877915
O O12 0.658939 0.860006 0.593202
O O13 0.549568 0.821104 0.691513
O O14 0.598502 0.771273 0.585788
O O15 0.013030 0.590098 0.917756
O O16 0.853945 0.574039 0.000000
O O17 0.667614 0.933334 0.000000
O O18 0.510125 0.286031 0.000000
#
# Coordination Sequence:
#
# PCOD8293263 Si02
#       8
#    16  16  16  16  16  16   8  16
#     4   9  17  28  45  68  89 116 154 189 228 277
#     4   9  18  30  44  64  91 121 153 190 233 282
#     4  10  19  31  45  64  93 126 155 191 233 274
#     4  10  20  31  46  66  93 126 157 191 233 275
#     4  10  19  30  46  70  96 121 152 190 236 287
#     4   9  16  28  45  64  91 124 155 191 232 275
#     4  10  20  32  44  62  91 126 167 196 222 272
#     4   9  17  29  45  67  93 120 153 190 226 273
#
# _framework density 17.002293000000002
#
# number of rings (size 3 to 8) (size 9 to 14) (size 15 to 20)
#    0.000    2.533    0.000    3.200    0.000    7.467 
#    0.000    0.000    0.000    0.000    0.000    0.933 
#    0.000    5.333    0.000    0.000    0.000    0.000 
#
# Total GULP energy -743744.691895 kJ/mol
# GULP energy per Si atom -12395.744865 kJ/mol
# Density = 1.696360 g / cm^3
# Si number density = 17.002293 Si / 1000 Ang^3
#
#
#
# Elastic Constant Matrix: (Units=GPa)
#
#
# Indices 1 2 3 4 5 6 
#
# 1 52.1664 21.7255 21.0036 0.0000 0.0000 0.0000
# 2 21.7255 97.6405 38.9224 0.0000 0.0000 0.0000
# 3 21.0036 38.9224 85.2139 -0.0003 0.0001 0.0000
# 4 0.0000 0.0000 -0.0003 23.1878 0.0000 0.0000
# 5 0.0000 0.0000 0.0001 0.0000 21.4771 0.0000
# 6 0.0000 0.0000 0.0000 0.0000 0.0000 20.0028
#
#
#
# Elastic Compliance Matrix: (Units=1/GPa)
#
#
# Indices 1 2 3 4 5 6 
#
# 1 0.022150 -0.003365 -0.003923 0.000000 0.000000 0.000000
# 2 -0.003365 0.013033 -0.005123 0.000000 0.000000 0.000000
# 3 -0.003923 -0.005123 0.015042 0.000000 0.000000 0.000000
# 4 0.000000 0.000000 0.000000 0.043126 0.000000 0.000000
# 5 0.000000 0.000000 0.000000 0.000000 0.046561 0.000000
# 6 0.000000 0.000000 0.000000 0.000000 0.000000 0.049993
#
#
# Mechanical properties :
#
#
# Convention : Reuss Voigt Hill
#
# Bulk Modulus (GPa) = 39.36519 44.25820 41.81169
# Shear Modulus (GPa) = 22.40191 23.15814 22.78003
#
# Velocity S-wave (km/s) = 3.63379 3.69461 3.66433
# Velocity P-wave (km/s) = 6.38819 6.65488 6.52290
#
# Compressibility (1/GPa) = 0.02540316
#
# Stress axis : x y z
#
# Youngs Moduli (GPa) = 45.14650 76.72997 66.47945
#
# Poissons Ratio (x) = 0.25818 0.26078
# Poissons Ratio (y) = 0.15191 0.34061
# Poissons Ratio (z) = 0.17709 0.39312
#
# Static dielectric constant tensor:
#      x y z
#    x 3.030720 0.000000 0.000000 
#    y 0.000000 3.073510 0.000000 
#    z 0.000000 0.000000 3.359350 
# 
# 
# High freq. dielectric constant tensor:
#      x y z
#    x 1.624320 0.000000 0.000000 
#    y 0.000000 1.633680 0.000000 
#    z 0.000000 0.000000 1.666960 
# 
# From -- ./inp_files/37365.got.cif
#   From: 2010.03.12/outbox.cif.g09.slc.cpg/sg72_19_cif.got.tgz:37365.got - 2010.04.16 14:54:00.
