data_PCOD8293225
_publ_section_title
;
Structure prediction by ZEFSAII (Michael W. Deem and Ramdas Pophale) SiO2 
 PCOD8293225
Probable space group: I B A M
;
_chemical_formula_sum "Si O2"
_cell_formula_units_Z 80
_cell_length_a 23.267708
_cell_length_b 28.442686
_cell_length_c 8.890919
_cell_angle_alpha 90.000000
_cell_angle_beta 90.000000
_cell_angle_gamma 90.000000
_cell_volume 5883.975631
_symmetry_space_group_name_H-M "I B A M"
_symmetry_group_IT_number 72
_symmetry_cell_setting 'orthorhombic'
loop_
_space_group_symop_operation_xyz
x,y,z
-x,-y,z
x,-y,1/2-z
-x,y,1/2-z
-x,-y,-z
x,y,-z
-x,y,1/2+z
x,-y,1/2+z
1/2+x,1/2+y,1/2+z
1/2-x,1/2-y,1/2+z
1/2+x,1/2-y,-z
1/2-x,1/2+y,-z
1/2-x,1/2-y,1/2-z
1/2+x,1/2+y,1/2-z
1/2-x,1/2+y,z
1/2+x,1/2-y,z
loop_
_atom_site_type_symbol
_atom_site_label
_atom_site_fract_x
_atom_site_fract_y
_atom_site_fract_z
Si Si1 0.376175 0.130015 0.671243
Si Si2 0.939511 0.548953 0.678056
Si Si3 0.560920 0.227251 0.825953
Si Si4 0.661054 0.269640 0.329107
Si Si5 0.773590 0.689206 0.828100
O O1 0.390311 0.115029 0.500000
O O2 0.392784 0.088530 0.784213
O O3 0.411583 0.176884 0.714726
O O4 0.307649 0.139851 0.691765
O O5 0.918788 0.500000 0.750000
O O6 0.946195 0.543356 0.500000
O O7 0.000000 0.564515 0.750000
O O8 0.500000 0.232999 0.750000
O O9 0.603772 0.269102 0.772115
O O10 0.551140 0.233530 0.000000
O O11 0.639911 0.267118 0.500000
O O12 0.704086 0.314713 0.302859
O O13 0.700698 0.224884 0.293004
O O14 0.785577 0.707281 0.000000
#
# Coordination Sequence:
#
# PCOD8293225 Si02
#       5
#    16  16  16  16  16
#     4   9  17  29  42  56  73  92 119 154 188 221
#     4  11  21  32  44  56  71  93 120 151 189 228
#     4  10  19  28  38  53  74  99 125 155 188 220
#     4   9  15  24  38  54  72  94 120 149 181 216
#     4   8  15  26  39  54  72  94 118 147 182 217
#
# _framework density 13.596249
#
# number of rings (size 3 to 8) (size 9 to 14) (size 15 to 20)
#    0.000    2.600    0.000    5.400    0.000    6.400 
#    0.000    0.000    0.000    0.000    0.000    0.000 
#    0.000    0.000    0.000    0.000    0.000    1.000 
#
# Total GULP energy -495608.180566 kJ/mol
# GULP energy per Si atom -12390.204514 kJ/mol
# Density = 1.356530 g / cm^3
# Si number density = 13.596249 Si / 1000 Ang^3
#
#
#
# Elastic Constant Matrix: (Units=GPa)
#
#
# Indices 1 2 3 4 5 6 
#
# 1 101.3786 44.9684 47.0142 0.0000 0.0000 0.0000
# 2 44.9684 46.2575 30.2827 0.0000 0.0000 0.0000
# 3 47.0142 30.2827 77.5846 0.0000 0.0000 0.0000
# 4 0.0000 0.0000 0.0000 15.3975 0.0000 0.0000
# 5 0.0000 0.0000 0.0000 0.0000 22.3509 0.0000
# 6 0.0000 0.0000 0.0000 0.0000 0.0000 20.6204
#
#
#
# Elastic Compliance Matrix: (Units=1/GPa)
#
#
# Indices 1 2 3 4 5 6 
#
# 1 0.019115 -0.014774 -0.005816 0.000000 0.000000 0.000000
# 2 -0.014774 0.040458 -0.006838 0.000000 0.000000 0.000000
# 3 -0.005816 -0.006838 0.019083 0.000000 0.000000 0.000000
# 4 0.000000 0.000000 0.000000 0.064946 0.000000 0.000000
# 5 0.000000 0.000000 0.000000 0.000000 0.044741 0.000000
# 6 0.000000 0.000000 0.000000 0.000000 0.000000 0.048496
#
#
# Mechanical properties :
#
#
# Convention : Reuss Voigt Hill
#
# Bulk Modulus (GPa) = 42.02231 52.19458 47.10844
# Shear Modulus (GPa) = 16.68736 18.53747 17.61241
#
# Velocity S-wave (km/s) = 3.50716 3.69646 3.60305
# Velocity P-wave (km/s) = 6.88292 7.52933 7.21337
#
# Compressibility (1/GPa) = 0.02379688
#
# Stress axis : x y z
#
# Youngs Moduli (GPa) = 52.31548 24.71724 52.40299
#
# Poissons Ratio (x) = 0.36518 0.30479
# Poissons Ratio (y) = 0.77293 0.35836
# Poissons Ratio (z) = 0.30428 0.16903
#
# Static dielectric constant tensor:
#      x y z
#    x 2.920730 0.000000 0.000000 
#    y 0.000000 2.434110 0.000000 
#    z 0.000000 0.000000 2.809790 
# 
# 
# High freq. dielectric constant tensor:
#      x y z
#    x 1.514190 0.000000 0.000000 
#    y 0.000000 1.460490 0.000000 
#    z 0.000000 0.000000 1.534750 
# 
# From -- ./inp_files/6236.got.cif
#   From: 2010.03.12/outbox.cif.g09.slc.cpg/sg72_4_cif.got.tgz:6236.got - 2010.04.16 14:54:00.
