data_PCOD8293482
_publ_section_title
;
Structure prediction by ZEFSAII (Michael W. Deem and Ramdas Pophale) SiO2 
 PCOD8293482
Probable space group: I B A M
;
_chemical_formula_sum "Si O2"
_cell_formula_units_Z 116
_cell_length_a 27.758145
_cell_length_b 22.532026
_cell_length_c 9.489336
_cell_angle_alpha 90.000000
_cell_angle_beta 90.000000
_cell_angle_gamma 90.000000
_cell_volume 5935.079057
_symmetry_space_group_name_H-M "I B A M"
_symmetry_group_IT_number 72
_symmetry_cell_setting 'orthorhombic'
loop_
_space_group_symop_operation_xyz
x,y,z
-x,-y,z
x,-y,1/2-z
-x,y,1/2-z
-x,-y,-z
x,y,-z
-x,y,1/2+z
x,-y,1/2+z
1/2+x,1/2+y,1/2+z
1/2-x,1/2-y,1/2+z
1/2+x,1/2-y,-z
1/2-x,1/2+y,-z
1/2-x,1/2-y,1/2-z
1/2+x,1/2+y,1/2-z
1/2-x,1/2+y,z
1/2+x,1/2-y,z
loop_
_atom_site_type_symbol
_atom_site_label
_atom_site_fract_x
_atom_site_fract_y
_atom_site_fract_z
Si Si1 0.649716 0.833870 0.162785
Si Si2 0.716261 0.054638 0.336074
Si Si3 0.700684 0.264199 0.169434
Si Si4 0.919278 0.910509 0.843749
Si Si5 0.545702 0.313954 0.663195
Si Si6 0.000000 0.000000 0.250000
Si Si7 0.185585 0.897756 0.660748
Si Si8 0.955556 0.677605 0.340640
O O1 0.684191 0.888165 0.195293
O O2 0.660714 0.780810 0.270388
O O3 0.594472 0.856280 0.188393
O O4 0.654876 0.811840 0.000000
O O5 0.715791 0.037858 0.500000
O O6 0.769623 0.067098 0.270259
O O7 0.693847 0.000000 0.250000
O O8 0.750000 0.250000 0.250000
O O9 0.682784 0.329725 0.214970
O O10 0.706363 0.256578 0.000000
O O11 0.915610 0.859379 0.725363
O O12 0.962454 0.958856 0.836113
O O13 0.864493 0.935315 0.823903
O O14 0.923056 0.882070 0.000000
O O15 0.500000 0.335929 0.750000
O O16 0.537881 0.326946 0.500000
O O17 0.557018 0.245958 0.695749
O O18 0.201697 0.892027 0.500000
O O19 0.973248 0.671280 0.500000
O O20 0.000000 0.652593 0.250000
#
# Coordination Sequence:
#
# PCOD8293482 Si02
#       8
#    16  16  16  16  16   4  16  16
#     4  10  20  37  59  84 119 154 186 233 289 337
#     4  10  21  39  59  80 112 149 190 233 280 336
#     4  11  20  34  58  88 119 151 189 233 293 356
#     4  11  23  39  56  73 101 138 185 236 285 333
#     4  10  19  33  53  77 106 138 175 216 268 329
#     4  12  26  36  56  78 102 140 194 248 294 324
#     4   9  20  38  58  80 110 149 183 230 293 345
#     4   9  19  34  56  86 117 148 179 220 273 335
#
# _framework density 19.544812
#
# number of rings (size 3 to 8) (size 9 to 14) (size 15 to 20)
#    0.000    1.931    2.069    1.862    0.966    2.207 
#    0.000    1.379    0.000    0.414    0.000    2.897 
#    0.000    0.000    0.000    0.000    0.000    0.000 
#
# Total GULP energy -718524.638253 kJ/mol
# GULP energy per Si atom -12388.355832 kJ/mol
# Density = 1.950033 g / cm^3
# Si number density = 19.544812 Si / 1000 Ang^3
#
#
#
# Elastic Constant Matrix: (Units=GPa)
#
#
# Indices 1 2 3 4 5 6 
#
# 1 130.8644 27.1812 38.2409 0.0000 0.0000 0.0000
# 2 27.1812 58.8696 28.9307 0.0000 0.0000 0.0000
# 3 38.2409 28.9307 82.6532 0.0000 0.0000 0.0000
# 4 0.0000 0.0000 0.0000 22.5932 0.0000 0.0000
# 5 0.0000 0.0000 0.0000 0.0000 26.9789 0.0000
# 6 0.0000 0.0000 0.0000 0.0000 0.0000 17.1331
#
#
#
# Elastic Compliance Matrix: (Units=1/GPa)
#
#
# Indices 1 2 3 4 5 6 
#
# 1 0.009152 -0.002590 -0.003328 0.000000 0.000000 0.000000
# 2 -0.002590 0.021249 -0.006239 0.000000 0.000000 0.000000
# 3 -0.003328 -0.006239 0.015822 0.000000 0.000000 0.000000
# 4 0.000000 0.000000 0.000000 0.044261 0.000000 0.000000
# 5 0.000000 0.000000 0.000000 0.000000 0.037066 0.000000
# 6 0.000000 0.000000 0.000000 0.000000 0.000000 0.058367
#
#
# Mechanical properties :
#
#
# Convention : Reuss Voigt Hill
#
# Bulk Modulus (GPa) = 45.64385 51.23253 48.43819
# Shear Modulus (GPa) = 22.98495 25.21001 24.09748
#
# Velocity S-wave (km/s) = 3.43302 3.59535 3.51513
# Velocity P-wave (km/s) = 6.25447 6.59585 6.42742
#
# Compressibility (1/GPa) = 0.02190876
#
# Stress axis : x y z
#
# Youngs Moduli (GPa) = 109.26691 47.06143 63.20238
#
# Poissons Ratio (x) = 0.12190 0.21031
# Poissons Ratio (y) = 0.28303 0.39433
# Poissons Ratio (z) = 0.36360 0.29362
#
# Static dielectric constant tensor:
#      x y z
#    x 3.774820 0.000000 0.000000 
#    y 0.000000 3.315480 0.000000 
#    z 0.000000 0.000000 3.540370 
# 
# 
# High freq. dielectric constant tensor:
#      x y z
#    x 1.775680 0.000000 0.000000 
#    y 0.000000 1.730930 0.000000 
#    z 0.000000 0.000000 1.750600 
# 
# From -- ./inp_files/8422.got.cif
#   From: 2010.03.12/outbox.cif.g09.slc.cpg/sg72_5_cif.got.tgz:8422.got - 2010.04.16 14:54:00.
