data_PCOD8293098
_publ_section_title
;
Structure prediction by ZEFSAII (Michael W. Deem and Ramdas Pophale) SiO2 
 PCOD8293098
Probable space group: I B A M
;
_chemical_formula_sum "Si O2"
_cell_formula_units_Z 112
_cell_length_a 25.946207
_cell_length_b 12.498630
_cell_length_c 15.240867
_cell_angle_alpha 90.000000
_cell_angle_beta 90.000000
_cell_angle_gamma 90.000000
_cell_volume 4942.491869
_symmetry_space_group_name_H-M "I B A M"
_symmetry_group_IT_number 72
_symmetry_cell_setting 'orthorhombic'
loop_
_space_group_symop_operation_xyz
x,y,z
-x,-y,z
x,-y,1/2-z
-x,y,1/2-z
-x,-y,-z
x,y,-z
-x,y,1/2+z
x,-y,1/2+z
1/2+x,1/2+y,1/2+z
1/2-x,1/2-y,1/2+z
1/2+x,1/2-y,-z
1/2-x,1/2+y,-z
1/2-x,1/2-y,1/2-z
1/2+x,1/2+y,1/2-z
1/2-x,1/2+y,z
1/2+x,1/2-y,z
loop_
_atom_site_type_symbol
_atom_site_label
_atom_site_fract_x
_atom_site_fract_y
_atom_site_fract_z
Si Si1 0.890143 0.083832 0.897129
Si Si2 0.602122 0.345585 0.895340
Si Si3 0.803399 0.755463 0.604435
Si Si4 0.308102 0.195654 0.401544
Si Si5 0.011924 0.218218 0.396623
Si Si6 0.454329 0.058955 0.156256
Si Si7 0.657458 0.027669 0.351385
O O1 0.847142 0.164417 0.856337
O O2 0.948298 0.122173 0.877252
O O3 0.884187 0.963785 0.858364
O O4 0.880462 0.078606 0.000000
O O5 0.644722 0.261944 0.856567
O O6 0.545043 0.312909 0.862982
O O7 0.601506 0.344805 0.000000
O O8 0.804892 0.761889 0.500000
O O9 0.747351 0.786291 0.643835
O O10 0.810708 0.634825 0.635718
O O11 0.304191 0.239426 0.500000
O O12 0.317758 0.069341 0.404053
O O13 0.012537 0.248045 0.500000
O O14 0.031723 0.316520 0.337894
O O15 0.399629 0.045522 0.108742
O O16 0.500000 0.000000 0.101454
O O17 0.451246 0.000000 0.250000
O O18 0.656048 0.000000 0.250000
#
# Coordination Sequence:
#
# PCOD8293098 Si02
#       7
#    16  16  16  16  16  16  16
#     4   9  17  31  53  83 114 147 185 232 289 344
#     4   9  18  32  53  85 119 147 185 239 297 347
#     4  10  21  37  60  86 114 151 196 243 289 349
#     4  10  22  37  59  87 116 150 191 243 293 349
#     4  10  18  31  54  86 117 146 189 243 292 345
#     4  10  21  36  54  80 112 160 194 228 282 340
#     4  11  23  39  59  84 116 156 196 240 291 345
#
# _framework density 22.660634999999999
#
# number of rings (size 3 to 8) (size 9 to 14) (size 15 to 20)
#    0.000    2.143    1.429    1.714    2.000    3.143 
#    0.000    0.000    0.000    0.000    0.000    4.000 
#    0.000    0.000    0.000    0.000    0.000    0.571 
#
# Total GULP energy -694101.110307 kJ/mol
# GULP energy per Si atom -12394.662684 kJ/mol
# Density = 2.260906 g / cm^3
# Si number density = 22.660635 Si / 1000 Ang^3
#
#
#
# Elastic Constant Matrix: (Units=GPa)
#
#
# Indices 1 2 3 4 5 6 
#
# 1 226.1215 99.5621 4.0582 0.0000 0.0000 0.0000
# 2 99.5621 199.6570 3.8510 0.0000 0.0000 0.0000
# 3 4.0582 3.8510 19.1147 0.0000 0.0000 0.0000
# 4 0.0000 0.0000 0.0000 14.5708 0.0000 0.0000
# 5 0.0000 0.0000 0.0000 0.0000 4.1452 0.0000
# 6 0.0000 0.0000 0.0000 0.0000 0.0000 35.4332
#
#
#
# Elastic Compliance Matrix: (Units=1/GPa)
#
#
# Indices 1 2 3 4 5 6 
#
# 1 0.005674 -0.002817 -0.000637 0.000000 0.000000 0.000000
# 2 -0.002817 0.006427 -0.000697 0.000000 0.000000 0.000000
# 3 -0.000637 -0.000697 0.052591 0.000000 0.000000 0.000000
# 4 0.000000 0.000000 0.000000 0.068630 0.000000 0.000000
# 5 0.000000 0.000000 0.000000 0.000000 0.241240 0.000000
# 6 0.000000 0.000000 0.000000 0.000000 0.000000 0.028222
#
#
# Mechanical properties :
#
#
# Convention : Reuss Voigt Hill
#
# Bulk Modulus (GPa) = 17.73354 73.31509 45.52431
# Shear Modulus (GPa) = 11.63104 33.32465 22.47785
#
# Velocity S-wave (km/s) = 2.26801 3.83900 3.15291
# Velocity P-wave (km/s) = 3.83421 7.21625 5.77821
#
# Compressibility (1/GPa) = 0.05639033
#
# Stress axis : x y z
#
# Youngs Moduli (GPa) = 176.23323 155.59566 19.01456
#
# Poissons Ratio (x) = 0.43836 0.01211
# Poissons Ratio (y) = 0.49650 0.01325
# Poissons Ratio (z) = 0.11228 0.10840
#
# Static dielectric constant tensor:
#      x y z
#    x 4.833380 0.000000 0.000000 
#    y 0.000000 3.601510 0.000000 
#    z 0.000000 0.000000 3.474780 
# 
# 
# High freq. dielectric constant tensor:
#      x y z
#    x 1.912130 0.000000 0.000000 
#    y 0.000000 1.902450 0.000000 
#    z 0.000000 0.000000 1.846620 
# 
# From -- ./inp_files/40344.got.cif
#   From: 2010.03.12/outbox.cif.g09.slc.cpg/sg72_21_cif.got.tgz:40344.got - 2010.04.16 14:54:00.
