data_PCOD8293367
_publ_section_title
;
Structure prediction by ZEFSAII (Michael W. Deem and Ramdas Pophale) SiO2 
 PCOD8293367
Probable space group: I B A M
;
_chemical_formula_sum "Si O2"
_cell_formula_units_Z 128
_cell_length_a 22.350504
_cell_length_b 20.973112
_cell_length_c 17.375572
_cell_angle_alpha 90.000000
_cell_angle_beta 90.000000
_cell_angle_gamma 90.000000
_cell_volume 8144.966591
_symmetry_space_group_name_H-M "I B A M"
_symmetry_group_IT_number 72
_symmetry_cell_setting 'orthorhombic'
loop_
_space_group_symop_operation_xyz
x,y,z
-x,-y,z
x,-y,1/2-z
-x,y,1/2-z
-x,-y,-z
x,y,-z
-x,y,1/2+z
x,-y,1/2+z
1/2+x,1/2+y,1/2+z
1/2-x,1/2-y,1/2+z
1/2+x,1/2-y,-z
1/2-x,1/2+y,-z
1/2-x,1/2-y,1/2-z
1/2+x,1/2+y,1/2-z
1/2-x,1/2+y,z
1/2+x,1/2-y,z
loop_
_atom_site_type_symbol
_atom_site_label
_atom_site_fract_x
_atom_site_fract_y
_atom_site_fract_z
Si Si1 0.827109 0.768139 0.912911
Si Si2 0.646262 0.266814 0.589666
Si Si3 0.428547 0.359755 0.411953
Si Si4 0.611922 0.430007 0.231107
Si Si5 0.240712 0.355547 0.914045
Si Si6 0.749941 0.069133 0.227735
Si Si7 0.231592 0.693667 0.808972
Si Si8 0.539063 0.675726 0.179885
O O1 0.895913 0.790037 0.903458
O O2 0.811002 0.695388 0.887915
O O3 0.789677 0.817698 0.861870
O O4 0.804277 0.775479 0.000000
O O5 0.632739 0.250113 0.500000
O O6 0.693193 0.325040 0.594367
O O7 0.675741 0.208606 0.635864
O O8 0.585176 0.278178 0.636771
O O9 0.425365 0.383723 0.500000
O O10 0.397193 0.413353 0.359010
O O11 0.496670 0.350526 0.387289
O O12 0.586823 0.500000 0.250000
O O13 0.680902 0.426093 0.252161
O O14 0.574693 0.382253 0.283286
O O15 0.238823 0.419169 0.862825
O O16 0.228373 0.378897 0.000000
O O17 0.715335 0.126987 0.269130
O O18 0.723310 0.000000 0.250000
O O19 0.250000 0.750000 0.750000
O O20 0.500000 0.708180 0.250000
#
# Coordination Sequence:
#
# PCOD8293367 Si02
#       8
#    16  16  16  16  16  16  16  16
#     4   9  17  29  47  71  92 116 155 197 244 290
#     4  10  19  32  49  72  95 124 165 203 246 299
#     4  10  20  32  47  68  93 118 153 208 247 278
#     4  10  20  35  46  59  87 129 169 202 237 281
#     4   9  17  31  50  69  92 125 158 196 243 302
#     4  11  20  31  48  74  99 125 162 208 246 284
#     4  11  17  29  53  70  92 124 164 199 241 298
#     4  10  20  31  49  67  94 126 161 203 249 282
#
# _framework density 15.715227000000001
#
# number of rings (size 3 to 8) (size 9 to 14) (size 15 to 20)
#    0.000    2.000    5.000    1.500    1.750    2.250 
#    0.000    5.625    0.000    0.000    0.000    0.000 
#    0.000    4.500    0.000    9.250    0.000    0.000 
#
# Total GULP energy -792963.057157 kJ/mol
# GULP energy per Si atom -12390.047768 kJ/mol
# Density = 1.567946 g / cm^3
# Si number density = 15.715227 Si / 1000 Ang^3
#
#
#
# Elastic Constant Matrix: (Units=GPa)
#
#
# Indices 1 2 3 4 5 6 
#
# 1 41.0138 22.1962 36.2580 0.0000 0.0000 0.0000
# 2 22.1962 86.9579 57.9213 0.0000 0.0000 0.0000
# 3 36.2580 57.9213 120.1570 0.0000 0.0000 0.0000
# 4 0.0000 0.0000 0.0000 21.3974 0.0000 0.0000
# 5 0.0000 0.0000 0.0000 0.0000 24.2789 0.0000
# 6 0.0000 0.0000 0.0000 0.0000 0.0000 13.4442
#
#
#
# Elastic Compliance Matrix: (Units=1/GPa)
#
#
# Indices 1 2 3 4 5 6 
#
# 1 0.033675 -0.002691 -0.008864 0.000000 0.000000 0.000000
# 2 -0.002691 0.017154 -0.007457 0.000000 0.000000 0.000000
# 3 -0.008864 -0.007457 0.014592 0.000000 0.000000 0.000000
# 4 0.000000 0.000000 0.000000 0.046735 0.000000 0.000000
# 5 0.000000 0.000000 0.000000 0.000000 0.041188 0.000000
# 6 0.000000 0.000000 0.000000 0.000000 0.000000 0.074382
#
#
# Mechanical properties :
#
#
# Convention : Reuss Voigt Hill
#
# Bulk Modulus (GPa) = 36.50193 53.43106 44.96650
# Shear Modulus (GPa) = 18.18968 20.60763 19.39866
#
# Velocity S-wave (km/s) = 3.40583 3.62514 3.51719
# Velocity P-wave (km/s) = 6.22445 7.18300 6.72084
#
# Compressibility (1/GPa) = 0.02739581
#
# Stress axis : x y z
#
# Youngs Moduli (GPa) = 29.69563 58.29685 68.53160
#
# Poissons Ratio (x) = 0.15689 0.60749
# Poissons Ratio (y) = 0.07992 0.51102
# Poissons Ratio (z) = 0.26323 0.43470
#
# Static dielectric constant tensor:
#      x y z
#    x 2.986320 0.000000 0.000000 
#    y 0.000000 2.898630 0.000000 
#    z 0.000000 0.000000 3.344790 
# 
# 
# High freq. dielectric constant tensor:
#      x y z
#    x 1.583440 0.000000 0.000000 
#    y 0.000000 1.563300 0.000000 
#    z 0.000000 0.000000 1.628410 
# 
# From -- ./inp_files/32935.got.cif
#   From: 2010.03.12/outbox.cif.g09.slc.cpg/sg72_17_cif.got.tgz:32935.got - 2010.04.16 14:54:00.
