data_PCOD8293939
_publ_section_title
;
Structure prediction by ZEFSAII (Michael W. Deem and Ramdas Pophale) SiO2 
 PCOD8293939
Probable space group: I B A M
;
_chemical_formula_sum "Si O2"
_cell_formula_units_Z 96
_cell_length_a 31.511721
_cell_length_b 8.728635
_cell_length_c 17.391729
_cell_angle_alpha 90.000000
_cell_angle_beta 90.000000
_cell_angle_gamma 90.000000
_cell_volume 4783.670034
_symmetry_space_group_name_H-M "I B A M"
_symmetry_group_IT_number 72
_symmetry_cell_setting 'orthorhombic'
loop_
_space_group_symop_operation_xyz
x,y,z
-x,-y,z
x,-y,1/2-z
-x,y,1/2-z
-x,-y,-z
x,y,-z
-x,y,1/2+z
x,-y,1/2+z
1/2+x,1/2+y,1/2+z
1/2-x,1/2-y,1/2+z
1/2+x,1/2-y,-z
1/2-x,1/2+y,-z
1/2-x,1/2-y,1/2-z
1/2+x,1/2+y,1/2-z
1/2-x,1/2+y,z
1/2+x,1/2-y,z
loop_
_atom_site_type_symbol
_atom_site_label
_atom_site_fract_x
_atom_site_fract_y
_atom_site_fract_z
Si Si1 0.707384 0.068598 0.665926
Si Si2 0.460574 0.612416 0.089946
Si Si3 0.292789 0.431967 0.166141
Si Si4 0.621309 0.079437 0.409643
Si Si5 0.121404 0.920897 0.909939
Si Si6 0.458016 0.930394 0.163941
O O1 0.711258 0.250369 0.669351
O O2 0.667085 0.016434 0.615964
O O3 0.701114 0.000000 0.750000
O O4 0.750127 0.000339 0.627034
O O5 0.500000 0.500000 0.102242
O O6 0.417619 0.526252 0.114057
O O7 0.464059 0.748317 0.152456
O O8 0.459141 0.667263 0.000000
O O9 0.296881 0.500000 0.250000
O O10 0.334318 0.488528 0.120774
O O11 0.619070 0.076305 0.500000
O O12 0.613702 0.250292 0.376310
O O13 0.584940 0.969869 0.379068
O O14 0.125775 0.908331 0.000000
O O15 0.500000 0.000000 0.123570
O O16 0.455533 0.000000 0.250000
#
# Coordination Sequence:
#
# PCOD8293939 Si02
#       6
#    16  16  16  16  16  16
#     4  10  20  35  55  79 110 145 186 233 281 338
#     4  10  21  39  64  90 117 153 197 244 293 348
#     4  10  20  34  55  79 108 148 185 227 282 340
#     4  10  21  38  59  83 113 151 191 235 289 343
#     4   9  20  37  56  82 113 145 188 238 285 337
#     4  11  24  40  58  86 120 153 191 236 287 345
#
# _framework density 20.068275
#
# number of rings (size 3 to 8) (size 9 to 14) (size 15 to 20)
#    0.000    2.000    0.000    4.000    0.000    8.667 
#    0.000    5.000    0.000    0.000    0.000    0.000 
#    0.000    0.000    0.000    0.000    0.000    0.000 
#
# Total GULP energy -595000.849775 kJ/mol
# GULP energy per Si atom -12395.851037 kJ/mol
# Density = 2.002260 g / cm^3
# Si number density = 20.068275 Si / 1000 Ang^3
#
#
#
# Elastic Constant Matrix: (Units=GPa)
#
#
# Indices 1 2 3 4 5 6 
#
# 1 193.5534 81.0285 39.5993 0.0000 0.0000 0.0000
# 2 81.0285 113.6695 41.3027 0.0000 0.0000 0.0000
# 3 39.5993 41.3027 42.8756 0.0000 0.0000 0.0000
# 4 0.0000 0.0000 0.0000 24.2794 0.0000 0.0000
# 5 0.0000 0.0000 0.0000 0.0000 29.5010 0.0000
# 6 0.0000 0.0000 0.0000 0.0000 0.0000 39.5520
#
#
#
# Elastic Compliance Matrix: (Units=1/GPa)
#
#
# Indices 1 2 3 4 5 6 
#
# 1 0.007571 -0.004394 -0.002759 0.000000 0.000000 0.000000
# 2 -0.004394 0.016085 -0.011437 0.000000 0.000000 0.000000
# 3 -0.002759 -0.011437 0.036889 0.000000 0.000000 0.000000
# 4 0.000000 0.000000 0.000000 0.041187 0.000000 0.000000
# 5 0.000000 0.000000 0.000000 0.000000 0.033897 0.000000
# 6 0.000000 0.000000 0.000000 0.000000 0.000000 0.025283
#
#
# Mechanical properties :
#
#
# Convention : Reuss Voigt Hill
#
# Bulk Modulus (GPa) = 42.80001 74.88439 58.84220
# Shear Modulus (GPa) = 24.28583 31.21101 27.74842
#
# Velocity S-wave (km/s) = 3.48251 3.94793 3.72250
# Velocity P-wave (km/s) = 6.12732 7.62741 6.91814
#
# Compressibility (1/GPa) = 0.02336448
#
# Stress axis : x y z
#
# Youngs Moduli (GPa) = 132.09093 62.16810 27.10827
#
# Poissons Ratio (x) = 0.27317 0.07480
# Poissons Ratio (y) = 0.58041 0.31004
# Poissons Ratio (z) = 0.36447 0.71102
#
# Static dielectric constant tensor:
#      x y z
#    x 4.298710 0.000000 0.000000 
#    y 0.000000 3.790260 0.000000 
#    z 0.000000 0.000000 3.475990 
# 
# 
# High freq. dielectric constant tensor:
#      x y z
#    x 1.811370 0.000000 0.000000 
#    y 0.000000 1.785620 0.000000 
#    z 0.000000 0.000000 1.762280 
# 
# From -- ./inp_files/40706.got.cif
#   From: 2010.03.12/outbox.cif.g09.slc.cpg/sg72_21_cif.got.tgz:40706.got - 2010.04.16 14:54:00.
