data_PCOD8293472
_publ_section_title
;
Structure prediction by ZEFSAII (Michael W. Deem and Ramdas Pophale) SiO2 
 PCOD8293472
Probable space group: I B A M
;
_chemical_formula_sum "Si O2"
_cell_formula_units_Z 80
_cell_length_a 27.612366
_cell_length_b 18.089119
_cell_length_c 8.477990
_cell_angle_alpha 90.000000
_cell_angle_beta 90.000000
_cell_angle_gamma 90.000000
_cell_volume 4234.615054
_symmetry_space_group_name_H-M "I B A M"
_symmetry_group_IT_number 72
_symmetry_cell_setting 'orthorhombic'
loop_
_space_group_symop_operation_xyz
x,y,z
-x,-y,z
x,-y,1/2-z
-x,y,1/2-z
-x,-y,-z
x,y,-z
-x,y,1/2+z
x,-y,1/2+z
1/2+x,1/2+y,1/2+z
1/2-x,1/2-y,1/2+z
1/2+x,1/2-y,-z
1/2-x,1/2+y,-z
1/2-x,1/2-y,1/2-z
1/2+x,1/2+y,1/2-z
1/2-x,1/2+y,z
1/2+x,1/2-y,z
loop_
_atom_site_type_symbol
_atom_site_label
_atom_site_fract_x
_atom_site_fract_y
_atom_site_fract_z
Si Si1 0.790468 0.919988 0.314280
Si Si2 0.050224 0.279598 0.815004
Si Si3 0.189360 0.356273 0.813718
Si Si4 0.904946 0.423484 0.185787
Si Si5 0.356250 0.713352 0.685015
O O1 0.786658 0.924220 0.500000
O O2 0.739063 0.891212 0.248009
O O3 0.832839 0.864059 0.261909
O O4 0.803946 0.000000 0.250000
O O5 0.058715 0.357604 0.728605
O O6 0.093207 0.222401 0.776792
O O7 0.000000 0.246057 0.750000
O O8 0.047669 0.293118 0.000000
O O9 0.146432 0.412336 0.771648
O O10 0.181192 0.278337 0.727403
O O11 0.190792 0.342228 0.000000
O O12 0.927367 0.500000 0.250000
O O13 0.897060 0.426176 0.000000
O O14 0.366986 0.716182 0.500000
#
# Coordination Sequence:
#
# PCOD8293472 Si02
#       5
#    16  16  16  16  16
#     4  10  22  35  52  78 110 143 179 217 261 310
#     4  11  22  38  58  80 102 133 173 217 266 318
#     4  10  19  33  52  78 108 145 184 217 254 305
#     4  11  21  34  51  76 109 145 180 219 259 305
#     4  10  20  36  55  79 107 139 176 219 262 310
#
# _framework density 18.891918
#
# number of rings (size 3 to 8) (size 9 to 14) (size 15 to 20)
#    0.000    1.600    0.000    8.400    0.000    5.200 
#    0.000    2.000    0.000    0.600    0.000    4.200 
#    0.000    0.000    0.000    0.000    0.000    0.000 
#
# Total GULP energy -496149.633952 kJ/mol
# GULP energy per Si atom -12403.740849 kJ/mol
# Density = 1.884892 g / cm^3
# Si number density = 18.891918 Si / 1000 Ang^3
#
#
#
# Elastic Constant Matrix: (Units=GPa)
#
#
# Indices 1 2 3 4 5 6 
#
# 1 113.2839 54.2214 20.7764 0.0000 0.0000 0.0000
# 2 54.2214 109.5735 17.4304 0.0000 0.0000 0.0000
# 3 20.7764 17.4304 55.5391 0.0000 0.0000 0.0000
# 4 0.0000 0.0000 0.0000 31.0089 0.0000 0.0000
# 5 0.0000 0.0000 0.0000 0.0000 29.0587 0.0000
# 6 0.0000 0.0000 0.0000 0.0000 0.0000 6.0206
#
#
#
# Elastic Compliance Matrix: (Units=1/GPa)
#
#
# Indices 1 2 3 4 5 6 
#
# 1 0.011954 -0.005477 -0.002753 0.000000 0.000000 0.000000
# 2 -0.005477 0.012116 -0.001753 0.000000 0.000000 0.000000
# 3 -0.002753 -0.001753 0.019585 0.000000 0.000000 0.000000
# 4 0.000000 0.000000 0.000000 0.032249 0.000000 0.000000
# 5 0.000000 0.000000 0.000000 0.000000 0.034413 0.000000
# 6 0.000000 0.000000 0.000000 0.000000 0.000000 0.166098
#
#
# Mechanical properties :
#
#
# Convention : Reuss Voigt Hill
#
# Bulk Modulus (GPa) = 42.21561 51.47253 46.84407
# Shear Modulus (GPa) = 16.43238 25.61553 21.02396
#
# Velocity S-wave (km/s) = 2.95245 3.68625 3.33957
# Velocity P-wave (km/s) = 5.83241 6.73965 6.30237
#
# Compressibility (1/GPa) = 0.02368792
#
# Stress axis : x y z
#
# Youngs Moduli (GPa) = 83.65483 82.53801 51.05846
#
# Poissons Ratio (x) = 0.45209 0.14055
# Poissons Ratio (y) = 0.45821 0.08952
# Poissons Ratio (z) = 0.23028 0.14472
#
# Static dielectric constant tensor:
#      x y z
#    x 3.573500 0.000000 0.000000 
#    y 0.000000 4.422280 0.000000 
#    z 0.000000 0.000000 3.496380 
# 
# 
# High freq. dielectric constant tensor:
#      x y z
#    x 1.728870 0.000000 0.000000 
#    y 0.000000 1.718450 0.000000 
#    z 0.000000 0.000000 1.746230 
# 
# From -- ./inp_files/4777.got.cif
#   From: 2010.03.12/outbox.cif.g09.slc.cpg/sg72_3_cif.got.tgz:4777.got - 2010.04.16 14:54:00.
