data_PCOD8293095
_publ_section_title
;
Structure prediction by ZEFSAII (Michael W. Deem and Ramdas Pophale) SiO2 
 PCOD8293095
Probable space group: I B A M
;
_chemical_formula_sum "Si O2"
_cell_formula_units_Z 88
_cell_length_a 18.293166
_cell_length_b 13.192473
_cell_length_c 20.856271
_cell_angle_alpha 90.000000
_cell_angle_beta 90.000000
_cell_angle_gamma 90.000000
_cell_volume 5033.287648
_symmetry_space_group_name_H-M "I B A M"
_symmetry_group_IT_number 72
_symmetry_cell_setting 'orthorhombic'
loop_
_space_group_symop_operation_xyz
x,y,z
-x,-y,z
x,-y,1/2-z
-x,y,1/2-z
-x,-y,-z
x,y,-z
-x,y,1/2+z
x,-y,1/2+z
1/2+x,1/2+y,1/2+z
1/2-x,1/2-y,1/2+z
1/2+x,1/2-y,-z
1/2-x,1/2+y,-z
1/2-x,1/2-y,1/2-z
1/2+x,1/2+y,1/2-z
1/2-x,1/2+y,z
1/2+x,1/2-y,z
loop_
_atom_site_type_symbol
_atom_site_label
_atom_site_fract_x
_atom_site_fract_y
_atom_site_fract_z
Si Si1 0.000000 0.739132 0.750000
Si Si2 0.612727 0.332913 0.573490
Si Si3 0.673484 0.885239 0.074829
Si Si4 0.527784 0.611410 0.647888
Si Si5 0.666386 0.546684 0.425498
Si Si6 0.574570 0.056706 0.311680
O O1 0.047958 0.815602 0.706801
O O2 0.056565 0.671973 0.791266
O O3 0.590333 0.342637 0.500000
O O4 0.660030 0.233153 0.586431
O O5 0.536245 0.331405 0.609955
O O6 0.662995 0.428211 0.594067
O O7 0.756103 0.908222 0.095441
O O8 0.623493 0.948586 0.124330
O O9 0.657966 0.916012 0.000000
O O10 0.500000 0.500000 0.669067
O O11 0.601390 0.607862 0.607342
O O12 0.654213 0.562477 0.500000
O O13 0.500000 0.000000 0.329650
O O14 0.611591 0.000000 0.250000
#
# Coordination Sequence:
#
# PCOD8293095 Si02
#       6
#     8  16  16  16  16  16
#     4  10  18  34  52  76 106 138 184 222 258 312
#     4   9  17  32  54  77 103 138 175 215 265 314
#     4  10  19  36  58  81 109 138 177 224 268 317
#     4  10  18  31  54  78 104 138 180 216 260 317
#     4   9  19  34  52  80 113 140 170 221 275 317
#     4   9  20  38  57  75 106 145 178 218 270 320
#
# _framework density 17.483602999999999
#
# number of rings (size 3 to 8) (size 9 to 14) (size 15 to 20)
#    0.000    2.727    1.818    0.818    0.000    2.545 
#    6.545    4.545    0.000    0.000    0.000    0.000 
#    0.000    0.000    0.000    0.000    0.000    0.000 
#
# Total GULP energy -545335.469532 kJ/mol
# GULP energy per Si atom -12393.987944 kJ/mol
# Density = 1.744381 g / cm^3
# Si number density = 17.483603 Si / 1000 Ang^3
#
#
#
# Elastic Constant Matrix: (Units=GPa)
#
#
# Indices 1 2 3 4 5 6 
#
# 1 127.0183 61.5433 67.4429 0.0000 0.0000 0.0000
# 2 61.5433 90.7269 50.5205 0.0000 0.0000 0.0000
# 3 67.4429 50.5205 83.6816 0.0000 0.0000 0.0000
# 4 0.0000 0.0000 0.0000 25.8423 0.0000 0.0000
# 5 0.0000 0.0000 0.0000 0.0000 22.6678 0.0000
# 6 0.0000 0.0000 0.0000 0.0000 0.0000 25.2648
#
#
#
# Elastic Compliance Matrix: (Units=1/GPa)
#
#
# Indices 1 2 3 4 5 6 
#
# 1 0.015276 -0.005283 -0.009123 0.000000 0.000000 0.000000
# 2 -0.005283 0.018431 -0.006870 0.000000 0.000000 0.000000
# 3 -0.009123 -0.006870 0.023450 0.000000 0.000000 0.000000
# 4 0.000000 0.000000 0.000000 0.038696 0.000000 0.000000
# 5 0.000000 0.000000 0.000000 0.000000 0.044115 0.000000
# 6 0.000000 0.000000 0.000000 0.000000 0.000000 0.039581
#
#
# Mechanical properties :
#
#
# Convention : Reuss Voigt Hill
#
# Bulk Modulus (GPa) = 68.45966 73.38224 70.92095
# Shear Modulus (GPa) = 22.02958 22.88300 22.45629
#
# Velocity S-wave (km/s) = 3.55352 3.62170 3.58777
# Velocity P-wave (km/s) = 7.48854 7.71700 7.60362
#
# Compressibility (1/GPa) = 0.01460714
#
# Stress axis : x y z
#
# Youngs Moduli (GPa) = 65.46115 54.25734 42.64449
#
# Poissons Ratio (x) = 0.28662 0.38903
# Poissons Ratio (y) = 0.34580 0.29295
# Poissons Ratio (z) = 0.59718 0.37272
#
# Static dielectric constant tensor:
#      x y z
#    x 3.096640 0.000000 0.000000 
#    y 0.000000 3.379850 0.000000 
#    z 0.000000 0.000000 3.305770 
# 
# 
# High freq. dielectric constant tensor:
#      x y z
#    x 1.655220 0.000000 0.000000 
#    y 0.000000 1.682150 0.000000 
#    z 0.000000 0.000000 1.677240 
# 
# From -- ./inp_files/36882.got.cif
#   From: 2010.03.12/outbox.cif.g09.slc.cpg/sg72_19_cif.got.tgz:36882.got - 2010.04.16 14:54:00.
