data_PCOD8293726
_publ_section_title
;
Structure prediction by ZEFSAII (Michael W. Deem and Ramdas Pophale) SiO2 
 PCOD8293726
Probable space group: I B A M
;
_chemical_formula_sum "Si O2"
_cell_formula_units_Z 112
_cell_length_a 31.755462
_cell_length_b 11.957849
_cell_length_c 14.092261
_cell_angle_alpha 90.000000
_cell_angle_beta 90.000000
_cell_angle_gamma 90.000000
_cell_volume 5351.212268
_symmetry_space_group_name_H-M "I B A M"
_symmetry_group_IT_number 72
_symmetry_cell_setting 'orthorhombic'
loop_
_space_group_symop_operation_xyz
x,y,z
-x,-y,z
x,-y,1/2-z
-x,y,1/2-z
-x,-y,-z
x,y,-z
-x,y,1/2+z
x,-y,1/2+z
1/2+x,1/2+y,1/2+z
1/2-x,1/2-y,1/2+z
1/2+x,1/2-y,-z
1/2-x,1/2+y,-z
1/2-x,1/2-y,1/2-z
1/2+x,1/2+y,1/2-z
1/2-x,1/2+y,z
1/2+x,1/2-y,z
loop_
_atom_site_type_symbol
_atom_site_label
_atom_site_fract_x
_atom_site_fract_y
_atom_site_fract_z
Si Si1 0.230034 0.168408 0.890195
Si Si2 0.443621 0.275143 0.610980
Si Si3 0.191727 0.273752 0.282171
Si Si4 0.040171 0.241137 0.389193
Si Si5 0.676648 0.445415 0.607946
Si Si6 0.581939 0.484217 0.388364
Si Si7 0.899458 0.631618 0.740375
O O1 0.205538 0.263427 0.828508
O O2 0.276154 0.150444 0.843656
O O3 0.206098 0.051986 0.883226
O O4 0.232851 0.208593 0.000000
O O5 0.433453 0.269761 0.500000
O O6 0.491324 0.241147 0.634377
O O7 0.436264 0.399790 0.652507
O O8 0.412121 0.188392 0.660322
O O9 0.194856 0.149870 0.325400
O O10 0.145971 0.326156 0.293012
O O11 0.049315 0.250429 0.500000
O O12 0.066217 0.338689 0.339066
O O13 0.055513 0.121039 0.348883
O O14 0.674720 0.401306 0.500000
O O15 0.630109 0.476251 0.644084
O O16 0.576697 0.487261 0.500000
O O17 0.898129 0.500000 0.750000
#
# Coordination Sequence:
#
# PCOD8293726 Si02
#       7
#    16  16  16  16  16  16  16
#     4  10  23  40  63  95 124 158 207 265 326 391
#     4  10  22  40  63  93 128 165 208 267 326 378
#     4  11  23  41  64  87 125 168 210 259 321 384
#     4  10  21  40  65  93 127 166 211 262 321 383
#     4  10  19  36  64  94 126 162 203 257 324 392
#     4   9  17  34  64  98 128 159 201 257 326 390
#     4  12  27  43  61  88 125 173 224 266 306 377
#
# _framework density 20.929836999999999
#
# number of rings (size 3 to 8) (size 9 to 14) (size 15 to 20)
#    0.000    1.714    1.429    2.571    0.000    8.571 
#    0.000    2.857    0.000    0.000    0.000    0.000 
#    0.000    0.000    0.000    0.000    0.000    0.000 
#
# Total GULP energy -694495.343384 kJ/mol
# GULP energy per Si atom -12401.702560 kJ/mol
# Density = 2.088220 g / cm^3
# Si number density = 20.929837 Si / 1000 Ang^3
#
#
#
# Elastic Constant Matrix: (Units=GPa)
#
#
# Indices 1 2 3 4 5 6 
#
# 1 100.9240 14.1174 14.9161 0.0000 0.0000 0.0000
# 2 14.1174 76.8196 16.9322 0.0000 0.0000 0.0000
# 3 14.9161 16.9322 84.1151 0.0000 0.0000 0.0000
# 4 0.0000 0.0000 0.0000 35.8937 0.0000 0.0000
# 5 0.0000 0.0000 0.0000 0.0000 25.8532 0.0000
# 6 0.0000 0.0000 0.0000 0.0000 0.0000 12.8780
#
#
#
# Elastic Compliance Matrix: (Units=1/GPa)
#
#
# Indices 1 2 3 4 5 6 
#
# 1 0.010352 -0.001567 -0.001520 0.000000 0.000000 0.000000
# 2 -0.001567 0.013859 -0.002512 0.000000 0.000000 0.000000
# 3 -0.001520 -0.002512 0.012664 0.000000 0.000000 0.000000
# 4 0.000000 0.000000 0.000000 0.027860 0.000000 0.000000
# 5 0.000000 0.000000 0.000000 0.000000 0.038680 0.000000
# 6 0.000000 0.000000 0.000000 0.000000 0.000000 0.077652
#
#
# Mechanical properties :
#
#
# Convention : Reuss Voigt Hill
#
# Bulk Modulus (GPa) = 38.94658 39.30999 39.12828
# Shear Modulus (GPa) = 24.89732 29.31785 27.10758
#
# Velocity S-wave (km/s) = 3.45274 3.74674 3.60274
# Velocity P-wave (km/s) = 5.87740 6.12699 6.00349
#
# Compressibility (1/GPa) = 0.02567620
#
# Stress axis : x y z
#
# Youngs Moduli (GPa) = 96.59609 72.15412 78.96589
#
# Poissons Ratio (x) = 0.11309 0.12005
# Poissons Ratio (y) = 0.15140 0.19835
# Poissons Ratio (z) = 0.14685 0.18124
#
# Static dielectric constant tensor:
#      x y z
#    x 3.922530 0.000000 0.000000 
#    y 0.000000 3.613110 0.000000 
#    z 0.000000 0.000000 3.990500 
# 
# 
# High freq. dielectric constant tensor:
#      x y z
#    x 1.832380 0.000000 0.000000 
#    y 0.000000 1.798730 0.000000 
#    z 0.000000 0.000000 1.833740 
# 
# From -- ./inp_files/26425.got.cif
#   From: 2010.03.12/outbox.cif.g09.slc.cpg/sg72_14_cif.got.tgz:26425.got - 2010.04.16 14:54:00.
