data_PCOD8293880
_publ_section_title
;
Structure prediction by ZEFSAII (Michael W. Deem and Ramdas Pophale) SiO2 
 PCOD8293880
Probable space group: I B A M
;
_chemical_formula_sum "Si O2"
_cell_formula_units_Z 116
_cell_length_a 25.687736
_cell_length_b 24.737195
_cell_length_c 9.337358
_cell_angle_alpha 90.000000
_cell_angle_beta 90.000000
_cell_angle_gamma 90.000000
_cell_volume 5933.354433
_symmetry_space_group_name_H-M "I B A M"
_symmetry_group_IT_number 72
_symmetry_cell_setting 'orthorhombic'
loop_
_space_group_symop_operation_xyz
x,y,z
-x,-y,z
x,-y,1/2-z
-x,y,1/2-z
-x,-y,-z
x,y,-z
-x,y,1/2+z
x,-y,1/2+z
1/2+x,1/2+y,1/2+z
1/2-x,1/2-y,1/2+z
1/2+x,1/2-y,-z
1/2-x,1/2+y,-z
1/2-x,1/2-y,1/2-z
1/2+x,1/2+y,1/2-z
1/2-x,1/2+y,z
1/2+x,1/2-y,z
loop_
_atom_site_type_symbol
_atom_site_label
_atom_site_fract_x
_atom_site_fract_y
_atom_site_fract_z
Si Si1 0.727920 0.151206 0.166029
Si Si2 0.547869 0.841423 0.667809
Si Si3 0.150917 0.840789 0.166685
Si Si4 0.500000 0.500000 0.250000
Si Si5 0.308108 0.950298 0.659624
Si Si6 0.930628 0.550254 0.661707
Si Si7 0.144019 0.264292 0.163071
Si Si8 0.398725 0.451160 0.839737
O O1 0.788422 0.154661 0.202367
O O2 0.703879 0.105463 0.263593
O O3 0.699303 0.207890 0.203629
O O4 0.717762 0.136567 0.000000
O O5 0.500000 0.811675 0.750000
O O6 0.535696 0.848984 0.500000
O O7 0.554320 0.898384 0.745096
O O8 0.599801 0.807920 0.691920
O O9 0.129949 0.787557 0.243076
O O10 0.119211 0.893346 0.224737
O O11 0.140157 0.833414 0.000000
O O12 0.538111 0.540129 0.159759
O O13 0.283538 0.950708 0.500000
O O14 0.369304 0.956692 0.648590
O O15 0.283775 0.000000 0.750000
O O16 0.954197 0.500000 0.750000
O O17 0.954050 0.553692 0.500000
O O18 0.144793 0.244582 0.000000
O O19 0.372246 0.500000 0.750000
O O20 0.377022 0.455183 0.000000
#
# Coordination Sequence:
#
# PCOD8293880 Si02
#       8
#    16  16  16   4  16  16  16  16
#     4  10  20  37  59  83 117 156 196 244 295 349
#     4  11  23  40  60  83 113 149 192 243 293 343
#     4  10  22  38  59  89 121 152 191 241 290 344
#     4   8  18  36  66  84 118 156 194 224 282 340
#     4  10  20  33  54  83 115 153 196 238 287 345
#     4  10  20  35  57  84 112 146 189 236 289 345
#     4  10  22  40  60  83 113 154 197 241 293 349
#     4   9  19  36  59  88 117 150 190 231 283 339
#
# _framework density 19.550492999999999
#
# number of rings (size 3 to 8) (size 9 to 14) (size 15 to 20)
#    0.414    1.655    1.379    1.862    0.000    4.690 
#    1.241    2.759    0.000    0.000    0.000    0.000 
#    0.000    0.000    0.000    0.000    0.000    0.000 
#
# Total GULP energy -718952.665543 kJ/mol
# GULP energy per Si atom -12395.735613 kJ/mol
# Density = 1.950599 g / cm^3
# Si number density = 19.550493 Si / 1000 Ang^3
#
#
#
# Elastic Constant Matrix: (Units=GPa)
#
#
# Indices 1 2 3 4 5 6 
#
# 1 76.3793 43.0166 32.0950 0.0000 0.0000 0.0000
# 2 43.0166 143.2419 67.8770 0.0000 0.0000 0.0000
# 3 32.0950 67.8770 112.7615 0.0000 0.0000 0.0000
# 4 0.0000 0.0000 0.0000 19.7711 0.0000 0.0000
# 5 0.0000 0.0000 0.0000 0.0000 24.0207 0.0000
# 6 0.0000 0.0000 0.0000 0.0000 0.0000 24.2336
#
#
#
# Elastic Compliance Matrix: (Units=1/GPa)
#
#
# Indices 1 2 3 4 5 6 
#
# 1 0.016192 -0.003748 -0.002353 0.000000 0.000000 0.000000
# 2 -0.003748 0.010635 -0.005335 0.000000 0.000000 0.000000
# 3 -0.002353 -0.005335 0.012749 0.000000 0.000000 0.000000
# 4 0.000000 0.000000 0.000000 0.050579 0.000000 0.000000
# 5 0.000000 0.000000 0.000000 0.000000 0.041631 0.000000
# 6 0.000000 0.000000 0.000000 0.000000 0.000000 0.041265
#
#
# Mechanical properties :
#
#
# Convention : Reuss Voigt Hill
#
# Bulk Modulus (GPa) = 59.86141 68.70666 64.28404
# Shear Modulus (GPa) = 24.81518 26.23133 25.52326
#
# Velocity S-wave (km/s) = 3.56657 3.66693 3.61710
# Velocity P-wave (km/s) = 6.90260 7.29026 7.09908
#
# Compressibility (1/GPa) = 0.01670525
#
# Stress axis : x y z
#
# Youngs Moduli (GPa) = 61.75943 94.03228 78.43593
#
# Poissons Ratio (x) = 0.35240 0.18454
# Poissons Ratio (y) = 0.23145 0.41844
# Poissons Ratio (z) = 0.14530 0.50165
#
# Static dielectric constant tensor:
#      x y z
#    x 3.711850 0.000000 0.000000 
#    y 0.000000 3.498100 0.000000 
#    z 0.000000 0.000000 3.792580 
# 
# 
# High freq. dielectric constant tensor:
#      x y z
#    x 1.755380 0.000000 0.000000 
#    y 0.000000 1.756920 0.000000 
#    z 0.000000 0.000000 1.766100 
# 
# From -- ./inp_files/8398.got.cif
#   From: 2010.03.12/outbox.cif.g09.slc.cpg/sg72_5_cif.got.tgz:8398.got - 2010.04.16 14:54:00.
