data_PCOD8293961
_publ_section_title
;
Structure prediction by ZEFSAII (Michael W. Deem and Ramdas Pophale) SiO2 
 PCOD8293961
Probable space group: I B A M
;
_chemical_formula_sum "Si O2"
_cell_formula_units_Z 112
_cell_length_a 14.467567
_cell_length_b 21.516340
_cell_length_c 18.907744
_cell_angle_alpha 90.000000
_cell_angle_beta 90.000000
_cell_angle_gamma 90.000000
_cell_volume 5885.774434
_symmetry_space_group_name_H-M "I B A M"
_symmetry_group_IT_number 72
_symmetry_cell_setting 'orthorhombic'
loop_
_space_group_symop_operation_xyz
x,y,z
-x,-y,z
x,-y,1/2-z
-x,y,1/2-z
-x,-y,-z
x,y,-z
-x,y,1/2+z
x,-y,1/2+z
1/2+x,1/2+y,1/2+z
1/2-x,1/2-y,1/2+z
1/2+x,1/2-y,-z
1/2-x,1/2+y,-z
1/2-x,1/2-y,1/2-z
1/2+x,1/2+y,1/2-z
1/2-x,1/2+y,z
1/2+x,1/2-y,z
loop_
_atom_site_type_symbol
_atom_site_label
_atom_site_fract_x
_atom_site_fract_y
_atom_site_fract_z
Si Si1 0.690648 0.217732 0.079977
Si Si2 0.898091 0.616587 0.666649
Si Si3 0.109122 0.255988 0.583257
Si Si4 0.730742 0.003747 0.666359
Si Si5 0.892324 0.388225 0.670412
Si Si6 0.559064 0.674679 0.418856
Si Si7 0.592691 0.461800 0.917847
O O1 0.798548 0.216666 0.098858
O O2 0.630648 0.173443 0.128136
O O3 0.654108 0.287875 0.090662
O O4 0.673666 0.195809 0.000000
O O5 0.883647 0.678760 0.622512
O O6 0.827218 0.563740 0.641193
O O7 0.877232 0.629934 0.748375
O O8 0.002178 0.591371 0.656483
O O9 0.096672 0.269975 0.500000
O O10 0.025638 0.214223 0.614765
O O11 0.827694 0.003672 0.625857
O O12 0.748044 0.000000 0.750000
O O13 0.673348 0.943215 0.643475
O O14 0.531947 0.663666 0.500000
O O15 0.574417 0.606850 0.384740
O O16 0.500000 0.500000 0.907691
O O17 0.622738 0.458363 0.000000
#
# Coordination Sequence:
#
# PCOD8293961 Si02
#       7
#    16  16  16  16  16  16  16
#     4  10  20  34  56  83 114 148 187 233 284 341
#     4  10  20  38  59  83 115 149 190 235 285 346
#     4  10  20  34  58  84 113 150 187 232 290 345
#     4  10  22  39  59  82 115 156 191 235 289 342
#     4  10  21  36  58  84 115 149 191 237 284 341
#     4   9  18  35  55  82 114 146 182 229 287 338
#     4  10  22  39  62  86 112 149 197 242 283 340
#
# _framework density 19.028931
#
# number of rings (size 3 to 8) (size 9 to 14) (size 15 to 20)
#    0.000    2.143    1.429    1.286    2.000    4.857 
#    0.000    0.000    3.143    2.571    0.000    0.000 
#    0.000    0.000    0.000    0.000    0.000    0.000 
#
# Total GULP energy -694430.596288 kJ/mol
# GULP energy per Si atom -12400.546362 kJ/mol
# Density = 1.898562 g / cm^3
# Si number density = 19.028931 Si / 1000 Ang^3
#
#
#
# Elastic Constant Matrix: (Units=GPa)
#
#
# Indices 1 2 3 4 5 6 
#
# 1 112.8360 39.4019 38.5114 0.0000 0.0000 0.0000
# 2 39.4019 106.9175 40.4315 0.0000 0.0000 0.0000
# 3 38.5114 40.4315 46.5052 0.0001 0.0000 0.0000
# 4 0.0000 0.0000 0.0001 28.2942 0.0000 0.0000
# 5 0.0000 0.0000 0.0000 0.0000 24.2553 0.0000
# 6 0.0000 0.0000 0.0000 0.0000 0.0000 31.4032
#
#
#
# Elastic Compliance Matrix: (Units=1/GPa)
#
#
# Indices 1 2 3 4 5 6 
#
# 1 0.012429 -0.001025 -0.009401 0.000000 0.000000 0.000000
# 2 -0.001025 0.014019 -0.011339 0.000000 0.000000 0.000000
# 3 -0.009401 -0.011339 0.039146 0.000000 0.000000 0.000000
# 4 0.000000 0.000000 0.000000 0.035343 0.000000 0.000000
# 5 0.000000 0.000000 0.000000 0.000000 0.041228 0.000000
# 6 0.000000 0.000000 0.000000 0.000000 0.000000 0.031844
#
#
# Mechanical properties :
#
#
# Convention : Reuss Voigt Hill
#
# Bulk Modulus (GPa) = 45.32412 55.88313 50.60363
# Shear Modulus (GPa) = 22.23268 26.65147 24.44208
#
# Velocity S-wave (km/s) = 3.42184 3.74649 3.58784
# Velocity P-wave (km/s) = 6.28349 6.93874 6.61923
#
# Compressibility (1/GPa) = 0.02206331
#
# Stress axis : x y z
#
# Youngs Moduli (GPa) = 80.45600 71.33334 25.54525
#
# Poissons Ratio (x) = 0.07314 0.24016
# Poissons Ratio (y) = 0.08249 0.28965
# Poissons Ratio (z) = 0.75639 0.80883
#
# Static dielectric constant tensor:
#      x y z
#    x 3.639820 0.000000 0.000000 
#    y 0.000000 3.512980 0.000000 
#    z 0.000000 0.000000 3.259690 
# 
# 
# High freq. dielectric constant tensor:
#      x y z
#    x 1.755200 0.000000 0.000000 
#    y 0.000000 1.744770 0.000000 
#    z 0.000000 0.000000 1.712680 
# 
# From -- ./inp_files/22101.got.cif
#   From: 2010.03.12/outbox.cif.g09.slc.cpg/sg72_12_cif.got.tgz:22101.got - 2010.04.16 14:54:00.
