data_PCOD8293728
_publ_section_title
;
Structure prediction by ZEFSAII (Michael W. Deem and Ramdas Pophale) SiO2 
 PCOD8293728
Probable space group: I B A M
;
_chemical_formula_sum "Si O2"
_cell_formula_units_Z 52
_cell_length_a 14.491375
_cell_length_b 8.988779
_cell_length_c 18.253627
_cell_angle_alpha 90.000000
_cell_angle_beta 90.000000
_cell_angle_gamma 90.000000
_cell_volume 2377.713205
_symmetry_space_group_name_H-M "I B A M"
_symmetry_group_IT_number 72
_symmetry_cell_setting 'orthorhombic'
loop_
_space_group_symop_operation_xyz
x,y,z
-x,-y,z
x,-y,1/2-z
-x,y,1/2-z
-x,-y,-z
x,y,-z
-x,y,1/2+z
x,-y,1/2+z
1/2+x,1/2+y,1/2+z
1/2-x,1/2-y,1/2+z
1/2+x,1/2-y,-z
1/2-x,1/2+y,-z
1/2-x,1/2-y,1/2-z
1/2+x,1/2+y,1/2-z
1/2-x,1/2+y,z
1/2+x,1/2-y,z
loop_
_atom_site_type_symbol
_atom_site_label
_atom_site_fract_x
_atom_site_fract_y
_atom_site_fract_z
Si Si1 0.369275 0.137202 0.634150
Si Si2 0.488024 0.827762 0.000000
Si Si3 0.000000 0.500000 0.250000
Si Si4 0.397989 0.565900 0.500000
Si Si5 0.760764 0.109064 0.581918
O O1 0.429648 0.215501 0.571119
O O2 0.434409 0.110588 0.703797
O O3 0.288433 0.262554 0.641538
O O4 0.329580 0.975434 0.611984
O O5 0.586844 0.744496 0.000000
O O6 0.500000 0.000000 0.000000
O O7 0.500000 0.500000 0.500000
O O8 0.341702 0.515899 0.427272
O O9 0.742446 0.179353 0.500000
#
# Coordination Sequence:
#
# PCOD8293728 Si02
#       5
#    16   8   4   8  16
#     4  12  24  44  67 104 139 186 233 294 357 428
#     4  12  21  36  72 104 133 181 235 294 335 402
#     4  12  32  46  64  98 154 198 246 272 364 458
#     4  10  19  36  66 117 134 159 231 306 353 402
#     4  10  22  39  72 106 137 172 238 308 354 404
#
# _framework density 21.869752999999999
#
# number of rings (size 3 to 8) (size 9 to 14) (size 15 to 20)
#    0.923    0.000    7.692    0.000    4.308    1.231 
#    0.000    0.000    0.000    3.692    0.000    0.000 
#    0.000    0.000    0.000    0.000    0.000    0.000 
#
# Total GULP energy -322117.696606 kJ/mol
# GULP energy per Si atom -12389.142177 kJ/mol
# Density = 2.181998 g / cm^3
# Si number density = 21.869753 Si / 1000 Ang^3
#
#
#
# Elastic Constant Matrix: (Units=GPa)
#
#
# Indices 1 2 3 4 5 6 
#
# 1 86.4540 26.6724 50.2501 0.0000 0.0000 0.0000
# 2 26.6724 114.1179 37.6331 0.0000 0.0000 0.0000
# 3 50.2501 37.6331 106.5958 0.0000 0.0000 0.0000
# 4 0.0000 0.0000 0.0000 8.1728 0.0000 0.0000
# 5 0.0000 0.0000 0.0000 0.0000 40.5437 0.0000
# 6 0.0000 0.0000 0.0000 0.0000 0.0000 59.8226
#
#
#
# Elastic Compliance Matrix: (Units=1/GPa)
#
#
# Indices 1 2 3 4 5 6 
#
# 1 0.016136 -0.001429 -0.007102 0.000000 0.000000 0.000000
# 2 -0.001429 0.010044 -0.002872 0.000000 0.000000 0.000000
# 3 -0.007102 -0.002872 0.013743 0.000000 0.000000 0.000000
# 4 0.000000 0.000000 0.000000 0.122358 0.000000 0.000000
# 5 0.000000 0.000000 0.000000 0.000000 0.024665 0.000000
# 6 0.000000 0.000000 0.000000 0.000000 0.000000 0.016716
#
#
# Mechanical properties :
#
#
# Convention : Reuss Voigt Hill
#
# Bulk Modulus (GPa) = 58.42458 59.58654 59.00556
# Shear Modulus (GPa) = 21.53560 34.54863 28.04212
#
# Velocity S-wave (km/s) = 3.14143 3.97891 3.58471
# Velocity P-wave (km/s) = 6.31909 6.95803 6.64624
#
# Compressibility (1/GPa) = 0.01711608
#
# Stress axis : x y z
#
# Youngs Moduli (GPa) = 61.97454 99.56069 72.76361
#
# Poissons Ratio (x) = 0.14230 0.51676
# Poissons Ratio (y) = 0.08858 0.20899
# Poissons Ratio (z) = 0.44013 0.28596
#
# Static dielectric constant tensor:
#      x y z
#    x 4.702260 0.000000 0.000000 
#    y 0.000000 4.410910 0.000000 
#    z 0.000000 0.000000 3.450720 
# 
# 
# High freq. dielectric constant tensor:
#      x y z
#    x 1.886870 0.000000 0.000000 
#    y 0.000000 1.871070 0.000000 
#    z 0.000000 0.000000 1.791130 
# 
# From -- ./inp_files/37622.got.cif
#   From: 2010.03.12/outbox.cif.g09.slc.cpg/sg72_19_cif.got.tgz:37622.got - 2010.04.16 14:54:00.
