data_PCOD8293270
_publ_section_title
;
Structure prediction by ZEFSAII (Michael W. Deem and Ramdas Pophale) SiO2 
 PCOD8293270
Probable space group: I B A M
;
_chemical_formula_sum "Si O2"
_cell_formula_units_Z 96
_cell_length_a 11.802124
_cell_length_b 16.840167
_cell_length_c 25.555672
_cell_angle_alpha 90.000000
_cell_angle_beta 90.000000
_cell_angle_gamma 90.000000
_cell_volume 5079.183143
_symmetry_space_group_name_H-M "I B A M"
_symmetry_group_IT_number 72
_symmetry_cell_setting 'orthorhombic'
loop_
_space_group_symop_operation_xyz
x,y,z
-x,-y,z
x,-y,1/2-z
-x,y,1/2-z
-x,-y,-z
x,y,-z
-x,y,1/2+z
x,-y,1/2+z
1/2+x,1/2+y,1/2+z
1/2-x,1/2-y,1/2+z
1/2+x,1/2-y,-z
1/2-x,1/2+y,-z
1/2-x,1/2-y,1/2-z
1/2+x,1/2+y,1/2-z
1/2-x,1/2+y,z
1/2+x,1/2-y,z
loop_
_atom_site_type_symbol
_atom_site_label
_atom_site_fract_x
_atom_site_fract_y
_atom_site_fract_z
Si Si1 0.614527 0.706072 0.367675
Si Si2 0.260661 0.116879 0.943596
Si Si3 0.759902 0.150536 0.131436
Si Si4 0.617015 0.958706 0.559116
Si Si5 0.075646 0.244005 0.558997
Si Si6 0.034279 0.085122 0.309855
O O1 0.679845 0.634562 0.395516
O O2 0.699357 0.771709 0.342364
O O3 0.543595 0.751339 0.412069
O O4 0.535967 0.663116 0.325951
O O5 0.375532 0.167533 0.937784
O O6 0.286083 0.024619 0.942818
O O7 0.204601 0.138881 0.000000
O O8 0.659396 0.100849 0.104149
O O9 0.844473 0.178484 0.085905
O O10 0.832752 0.102981 0.175906
O O11 0.604159 0.921006 0.500000
O O12 0.500000 0.000000 0.576849
O O13 0.057540 0.214818 0.500000
O O14 0.000000 0.076491 0.250000
O O15 0.000000 0.000000 0.336464
#
# Coordination Sequence:
#
# PCOD8293270 Si02
#       6
#    16  16  16  16  16  16
#     4  10  19  32  52  76 101 130 167 214 263 311
#     4   9  17  28  44  69 101 137 170 199 239 296
#     4  10  20  33  52  78 105 138 179 223 268 316
#     4  10  19  30  47  74 110 147 177 206 248 308
#     4   9  17  29  46  72 107 142 175 209 248 304
#     4  10  22  40  59  77  98 131 176 224 280 336
#
# _framework density 18.900676000000001
#
# number of rings (size 3 to 8) (size 9 to 14) (size 15 to 20)
#    0.000    2.333    0.000    3.000    0.000    4.000 
#    0.000    0.000    0.000    8.000    0.000    1.167 
#    0.000    0.000    0.000    0.000    0.000    0.000 
#
# Total GULP energy -594730.392271 kJ/mol
# GULP energy per Si atom -12390.216506 kJ/mol
# Density = 1.885766 g / cm^3
# Si number density = 18.900676 Si / 1000 Ang^3
#
#
#
# Elastic Constant Matrix: (Units=GPa)
#
#
# Indices 1 2 3 4 5 6 
#
# 1 83.7082 26.5585 26.0509 0.0000 0.0000 0.0000
# 2 26.5585 76.1738 23.7578 0.0000 0.0000 0.0000
# 3 26.0509 23.7578 59.2016 0.0000 0.0000 0.0000
# 4 0.0000 0.0000 0.0000 19.3469 0.0000 0.0000
# 5 0.0000 0.0000 0.0000 0.0000 6.6958 0.0000
# 6 0.0000 0.0000 0.0000 0.0000 0.0000 30.5635
#
#
#
# Elastic Compliance Matrix: (Units=1/GPa)
#
#
# Indices 1 2 3 4 5 6 
#
# 1 0.014630 -0.003535 -0.005019 0.000000 0.000000 0.000000
# 2 -0.003535 0.015860 -0.004809 0.000000 0.000000 0.000000
# 3 -0.005019 -0.004809 0.021030 0.000000 0.000000 0.000000
# 4 0.000000 0.000000 0.000000 0.051688 0.000000 0.000000
# 5 0.000000 0.000000 0.000000 0.000000 0.149347 0.000000
# 6 0.000000 0.000000 0.000000 0.000000 0.000000 0.032719
#
#
# Mechanical properties :
#
#
# Convention : Reuss Voigt Hill
#
# Bulk Modulus (GPa) = 40.33357 41.31310 40.82334
# Shear Modulus (GPa) = 15.61208 20.83569 18.22388
#
# Velocity S-wave (km/s) = 2.87715 3.32381 3.10851
# Velocity P-wave (km/s) = 5.69416 6.05275 5.87619
#
# Compressibility (1/GPa) = 0.02479324
#
# Stress axis : x y z
#
# Youngs Moduli (GPa) = 68.35315 63.04992 47.55145
#
# Poissons Ratio (x) = 0.22291 0.23866
# Poissons Ratio (y) = 0.24166 0.22868
# Poissons Ratio (z) = 0.34306 0.30321
#
# Static dielectric constant tensor:
#      x y z
#    x 3.499730 0.000000 0.000000 
#    y 0.000000 3.553810 0.000000 
#    z 0.000000 0.000000 3.199100 
# 
# 
# High freq. dielectric constant tensor:
#      x y z
#    x 1.736940 0.000000 0.000000 
#    y 0.000000 1.744580 0.000000 
#    z 0.000000 0.000000 1.696050 
# 
# From -- ./inp_files/43325.got.cif
#   From: 2010.03.12/outbox.cif.g09.slc.cpg/sg72_22_cif.got.tgz:43325.got - 2010.04.16 14:54:00.
