data_PCOD8293885
_publ_section_title
;
Structure prediction by ZEFSAII (Michael W. Deem and Ramdas Pophale) SiO2 
 PCOD8293885
Probable space group: I B A M
;
_chemical_formula_sum "Si O2"
_cell_formula_units_Z 88
_cell_length_a 19.339464
_cell_length_b 8.893977
_cell_length_c 25.844390
_cell_angle_alpha 90.000000
_cell_angle_beta 90.000000
_cell_angle_gamma 90.000000
_cell_volume 4445.357789
_symmetry_space_group_name_H-M "I B A M"
_symmetry_group_IT_number 72
_symmetry_cell_setting 'orthorhombic'
loop_
_space_group_symop_operation_xyz
x,y,z
-x,-y,z
x,-y,1/2-z
-x,y,1/2-z
-x,-y,-z
x,y,-z
-x,y,1/2+z
x,-y,1/2+z
1/2+x,1/2+y,1/2+z
1/2-x,1/2-y,1/2+z
1/2+x,1/2-y,-z
1/2-x,1/2+y,-z
1/2-x,1/2-y,1/2-z
1/2+x,1/2+y,1/2-z
1/2-x,1/2+y,z
1/2+x,1/2-y,z
loop_
_atom_site_type_symbol
_atom_site_label
_atom_site_fract_x
_atom_site_fract_y
_atom_site_fract_z
Si Si1 0.500000 0.000000 0.890041
Si Si2 0.276307 0.035862 0.387430
Si Si3 0.705057 0.638640 0.784103
Si Si4 0.617171 0.206451 0.637892
Si Si5 0.892622 0.289734 0.441028
Si Si6 0.866993 0.044706 0.059050
O O1 0.446310 0.091463 0.853837
O O2 0.539139 0.118379 0.926169
O O3 0.252120 0.076829 0.330146
O O4 0.327962 0.165890 0.405648
O O5 0.213251 0.020644 0.426949
O O6 0.315543 0.876404 0.385686
O O7 0.677965 0.500000 0.750000
O O8 0.750000 0.750000 0.750000
O O9 0.637118 0.722190 0.806715
O O10 0.596696 0.334324 0.596422
O O11 0.873534 0.327176 0.500000
O O12 0.907168 0.112735 0.433523
O O13 0.872771 0.101192 0.000000
#
# Coordination Sequence:
#
# PCOD8293885 Si02
#       6
#     8  16  16  16  16  16
#     4  10  23  42  58  79 116 164 213 238 287 358
#     4  10  20  35  57  92 122 153 189 245 310 360
#     4  11  21  37  64  97 119 147 192 250 314 367
#     4  10  22  38  58  88 117 161 197 246 295 359
#     4  10  21  36  58  85 121 165 201 241 291 357
#     4  10  20  33  55  89 123 152 195 249 301 350
#
# _framework density 19.795932000000001
#
# number of rings (size 3 to 8) (size 9 to 14) (size 15 to 20)
#    0.000    1.818    1.818    3.000    2.545    6.545 
#    0.000    1.818    0.000    8.727    9.455    0.000 
#    0.000    0.000    0.000    0.000    0.000    0.000 
#
# Total GULP energy -545697.406786 kJ/mol
# GULP energy per Si atom -12402.213791 kJ/mol
# Density = 1.975088 g / cm^3
# Si number density = 19.795932 Si / 1000 Ang^3
#
#
#
# Elastic Constant Matrix: (Units=GPa)
#
#
# Indices 1 2 3 4 5 6 
#
# 1 91.8708 49.8925 37.3048 0.0000 0.0000 0.0000
# 2 49.8925 125.0316 62.4986 0.0000 0.0000 0.0000
# 3 37.3048 62.4986 123.8583 0.0000 0.0000 0.0000
# 4 0.0000 0.0000 0.0000 38.9473 0.0000 0.0000
# 5 0.0000 0.0000 0.0000 0.0000 16.5687 0.0000
# 6 0.0000 0.0000 0.0000 0.0000 0.0000 32.0331
#
#
#
# Elastic Compliance Matrix: (Units=1/GPa)
#
#
# Indices 1 2 3 4 5 6 
#
# 1 0.014223 -0.004726 -0.001899 0.000000 0.000000 0.000000
# 2 -0.004726 0.012266 -0.004766 0.000000 0.000000 0.000000
# 3 -0.001899 -0.004766 0.011051 0.000000 0.000000 0.000000
# 4 0.000000 0.000000 0.000000 0.025676 0.000000 0.000000
# 5 0.000000 0.000000 0.000000 0.000000 0.060355 0.000000
# 6 0.000000 0.000000 0.000000 0.000000 0.000000 0.031218
#
#
# Mechanical properties :
#
#
# Convention : Reuss Voigt Hill
#
# Bulk Modulus (GPa) = 67.76339 71.12804 69.44572
# Shear Modulus (GPa) = 27.39891 30.24748 28.82319
#
# Velocity S-wave (km/s) = 3.72434 3.91316 3.81992
# Velocity P-wave (km/s) = 7.26633 7.51171 7.39004
#
# Compressibility (1/GPa) = 0.01475723
#
# Stress axis : x y z
#
# Youngs Moduli (GPa) = 70.31085 81.52426 90.49287
#
# Poissons Ratio (x) = 0.38530 0.17183
# Poissons Ratio (y) = 0.33230 0.43129
# Poissons Ratio (z) = 0.13351 0.38855
#
# Static dielectric constant tensor:
#      x y z
#    x 3.443570 0.000000 0.000000 
#    y 0.000000 3.922170 0.000000 
#    z 0.000000 0.000000 3.585610 
# 
# 
# High freq. dielectric constant tensor:
#      x y z
#    x 1.753100 0.000000 0.000000 
#    y 0.000000 1.795040 0.000000 
#    z 0.000000 0.000000 1.761630 
# 
# From -- ./inp_files/45269.got.cif
#   From: 2010.03.12/outbox.cif.g09.slc.cpg/sg72_23_cif.got.tgz:45269.got - 2010.04.16 14:54:00.
