data_PCOD8293519
_publ_section_title
;
Structure prediction by ZEFSAII (Michael W. Deem and Ramdas Pophale) SiO2 
 PCOD8293519
Probable space group: I B A M
;
_chemical_formula_sum "Si O2"
_cell_formula_units_Z 96
_cell_length_a 19.867659
_cell_length_b 17.885424
_cell_length_c 14.654814
_cell_angle_alpha 90.000000
_cell_angle_beta 90.000000
_cell_angle_gamma 90.000000
_cell_volume 5207.463664
_symmetry_space_group_name_H-M "I B A M"
_symmetry_group_IT_number 72
_symmetry_cell_setting 'orthorhombic'
loop_
_space_group_symop_operation_xyz
x,y,z
-x,-y,z
x,-y,1/2-z
-x,y,1/2-z
-x,-y,-z
x,y,-z
-x,y,1/2+z
x,-y,1/2+z
1/2+x,1/2+y,1/2+z
1/2-x,1/2-y,1/2+z
1/2+x,1/2-y,-z
1/2-x,1/2+y,-z
1/2-x,1/2-y,1/2-z
1/2+x,1/2+y,1/2-z
1/2-x,1/2+y,z
1/2+x,1/2-y,z
loop_
_atom_site_type_symbol
_atom_site_label
_atom_site_fract_x
_atom_site_fract_y
_atom_site_fract_z
Si Si1 0.100368 0.062069 0.500000
Si Si2 0.118090 0.229387 0.500000
Si Si3 0.767086 0.209942 0.500000
Si Si4 0.727721 0.533243 0.500000
Si Si5 0.250951 0.052058 0.671074
Si Si6 0.305082 0.214972 0.315073
Si Si7 0.091427 0.930825 0.808187
Si Si8 0.931245 0.235784 0.205775
O O1 0.139632 0.142331 0.500000
O O2 0.056336 0.059527 0.592083
O O3 0.150459 0.992422 0.500000
O O4 0.187719 0.273599 0.500000
O O5 0.076427 0.247405 0.405315
O O6 0.773634 0.121608 0.500000
O O7 0.804937 0.241674 0.588820
O O8 0.767053 0.498923 0.415339
O O9 0.291442 0.128522 0.665391
O O10 0.171873 0.068596 0.681493
O O11 0.279450 0.000000 0.750000
O O12 0.250000 0.250000 0.250000
O O13 0.374751 0.220375 0.261514
O O14 0.071457 0.851766 0.765620
O O15 0.064091 0.000000 0.750000
O O16 0.000000 0.267519 0.250000
#
# Coordination Sequence:
#
# PCOD8293519 Si02
#       8
#     8   8   8   8  16  16  16  16
#     4   8  16  30  48  76 110 155 182 233 297 345
#     4  10  20  41  61  81 122 162 194 248 318 355
#     4  12  22  33  63  97 122 155 205 260 299 365
#     4  10  20  30  50  90 123 150 189 248 319 357
#     4  10  19  33  55  85 118 150 196 255 307 353
#     4  12  21  37  61  91 117 158 208 258 300 356
#     4   9  17  31  54  77 114 153 192 239 292 354
#     4  11  24  39  60  86 124 165 204 246 304 371
#
# _framework density 18.435079000000002
#
# number of rings (size 3 to 8) (size 9 to 14) (size 15 to 20)
#    0.000    1.667    3.333    3.500    4.667    1.000 
#    0.000    0.833    0.000    3.500    0.000    1.167 
#    0.000    0.000    0.000    0.000    0.000    0.000 
#
# Total GULP energy -594793.812708 kJ/mol
# GULP energy per Si atom -12391.537765 kJ/mol
# Density = 1.839312 g / cm^3
# Si number density = 18.435079 Si / 1000 Ang^3
#
#
#
# Elastic Constant Matrix: (Units=GPa)
#
#
# Indices 1 2 3 4 5 6 
#
# 1 83.1496 22.8065 41.4918 0.0000 0.0000 0.0000
# 2 22.8065 123.0259 56.1700 0.0000 0.0000 0.0000
# 3 41.4918 56.1700 158.4946 0.0000 0.0000 0.0000
# 4 0.0000 0.0000 0.0000 33.5375 0.0000 0.0000
# 5 0.0000 0.0000 0.0000 0.0000 20.7026 0.0000
# 6 0.0000 0.0000 0.0000 0.0000 0.0000 5.5665
#
#
#
# Elastic Compliance Matrix: (Units=1/GPa)
#
#
# Indices 1 2 3 4 5 6 
#
# 1 0.013957 -0.001097 -0.003265 0.000000 0.000000 0.000000
# 2 -0.001097 0.009784 -0.003180 0.000000 0.000000 0.000000
# 3 -0.003265 -0.003180 0.008291 0.000000 0.000000 0.000000
# 4 0.000000 0.000000 0.000000 0.029817 0.000000 0.000000
# 5 0.000000 0.000000 0.000000 0.000000 0.048303 0.000000
# 6 0.000000 0.000000 0.000000 0.000000 0.000000 0.179647
#
#
# Mechanical properties :
#
#
# Convention : Reuss Voigt Hill
#
# Bulk Modulus (GPa) = 59.00491 67.28963 63.14727
# Shear Modulus (GPa) = 16.10142 28.24144 22.17143
#
# Velocity S-wave (km/s) = 2.95856 3.91825 3.47172
# Velocity P-wave (km/s) = 6.61416 7.55317 7.09921
#
# Compressibility (1/GPa) = 0.01694774
#
# Stress axis : x y z
#
# Youngs Moduli (GPa) = 71.65108 102.21140 120.61031
#
# Poissons Ratio (x) = 0.11208 0.39379
# Poissons Ratio (y) = 0.07857 0.38357
# Poissons Ratio (z) = 0.23394 0.32506
#
# Static dielectric constant tensor:
#      x y z
#    x 3.275890 0.000000 0.000000 
#    y 0.000000 3.377500 0.000000 
#    z 0.000000 0.000000 4.048020 
# 
# 
# High freq. dielectric constant tensor:
#      x y z
#    x 1.670300 0.000000 0.000000 
#    y 0.000000 1.710360 0.000000 
#    z 0.000000 0.000000 1.744440 
# 
# From -- ./inp_files/24230.got.cif
#   From: 2010.03.12/outbox.cif.g09.slc.cpg/sg72_13_cif.got.tgz:24230.got - 2010.04.16 14:54:00.
