data_PCOD8293818
_publ_section_title
;
Structure prediction by ZEFSAII (Michael W. Deem and Ramdas Pophale) SiO2 
 PCOD8293818
Probable space group: I B A M
;
_chemical_formula_sum "Si O2"
_cell_formula_units_Z 96
_cell_length_a 19.518248
_cell_length_b 27.126023
_cell_length_c 9.605383
_cell_angle_alpha 90.000000
_cell_angle_beta 90.000000
_cell_angle_gamma 90.000000
_cell_volume 5085.593507
_symmetry_space_group_name_H-M "I B A M"
_symmetry_group_IT_number 72
_symmetry_cell_setting 'orthorhombic'
loop_
_space_group_symop_operation_xyz
x,y,z
-x,-y,z
x,-y,1/2-z
-x,y,1/2-z
-x,-y,-z
x,y,-z
-x,y,1/2+z
x,-y,1/2+z
1/2+x,1/2+y,1/2+z
1/2-x,1/2-y,1/2+z
1/2+x,1/2-y,-z
1/2-x,1/2+y,-z
1/2-x,1/2-y,1/2-z
1/2+x,1/2+y,1/2-z
1/2-x,1/2+y,z
1/2+x,1/2-y,z
loop_
_atom_site_type_symbol
_atom_site_label
_atom_site_fract_x
_atom_site_fract_y
_atom_site_fract_z
Si Si1 0.065455 0.778322 0.000000
Si Si2 0.235019 0.455727 0.666645
Si Si3 0.587238 0.295592 0.000000
Si Si4 0.616564 0.649805 0.225739
Si Si5 0.122154 0.043668 0.666111
Si Si6 0.190100 0.705118 0.500000
Si Si7 0.225083 0.349811 0.746116
Si Si8 0.195111 0.721228 0.000000
O O1 0.081194 0.808884 0.864144
O O2 0.112600 0.729006 0.000000
O O3 0.984835 0.766444 0.000000
O O4 0.194817 0.500000 0.750000
O O5 0.241491 0.466328 0.500000
O O6 0.307532 0.452503 0.745234
O O7 0.198261 0.402822 0.689876
O O8 0.597392 0.334930 0.879362
O O9 0.642398 0.252600 0.000000
O O10 0.584691 0.596270 0.185486
O O11 0.697544 0.647273 0.198667
O O12 0.132172 0.032108 0.500000
O O13 0.081181 0.000000 0.750000
O O14 0.176429 0.669477 0.630636
O O15 0.268414 0.725308 0.500000
O O16 0.220961 0.308449 0.630984
#
# Coordination Sequence:
#
# PCOD8293818 Si02
#       8
#     8  16   8  16  16   8  16   8
#     4  12  24  40  57  80 113 150 186 236 283 338
#     4  10  20  32  51  82 119 149 176 225 287 338
#     4  12  26  38  57  82 111 152 190 232 285 336
#     4  11  21  37  57  81 110 146 194 232 280 335
#     4  10  20  32  54  81 107 143 186 237 291 333
#     4  12  22  36  57  83 111 147 193 235 276 327
#     4  11  21  34  58  86 113 146 191 233 275 329
#     4  12  20  38  57  83 113 145 191 237 272 331
#
# _framework density 18.876853000000001
#
# number of rings (size 3 to 8) (size 9 to 14) (size 15 to 20)
#    0.000    1.000    5.000    4.000    9.333    0.000 
#    0.000    0.000    0.000    3.000    0.000    0.000 
#    0.000    4.000    0.000    0.000    0.000    0.000 
#
# Total GULP energy -594652.806860 kJ/mol
# GULP energy per Si atom -12388.600143 kJ/mol
# Density = 1.883389 g / cm^3
# Si number density = 18.876853 Si / 1000 Ang^3
#
#
#
# Elastic Constant Matrix: (Units=GPa)
#
#
# Indices 1 2 3 4 5 6 
#
# 1 40.5672 17.3405 4.6876 0.0000 0.0000 0.0000
# 2 17.3405 110.3063 48.9494 0.0000 0.0000 0.0000
# 3 4.6876 48.9494 167.7173 0.0000 0.0000 0.0000
# 4 0.0000 0.0000 0.0000 34.9638 0.0000 0.0000
# 5 0.0000 0.0000 0.0000 0.0000 9.6417 0.0000
# 6 0.0000 0.0000 0.0000 0.0000 0.0000 8.7781
#
#
#
# Elastic Compliance Matrix: (Units=1/GPa)
#
#
# Indices 1 2 3 4 5 6 
#
# 1 0.026470 -0.004403 0.000545 0.000000 0.000000 0.000000
# 2 -0.004403 0.011147 -0.003130 0.000000 0.000000 0.000000
# 3 0.000545 -0.003130 0.006861 0.000000 0.000000 0.000000
# 4 0.000000 0.000000 0.000000 0.028601 0.000000 0.000000
# 5 0.000000 0.000000 0.000000 0.000000 0.103716 0.000000
# 6 0.000000 0.000000 0.000000 0.000000 0.000000 0.113920
#
#
# Mechanical properties :
#
#
# Convention : Reuss Voigt Hill
#
# Bulk Modulus (GPa) = 32.78563 51.17173 41.97868
# Shear Modulus (GPa) = 15.88020 27.18428 21.53224
#
# Velocity S-wave (km/s) = 2.90358 3.79896 3.38104
# Velocity P-wave (km/s) = 5.35228 6.81248 6.12604
#
# Compressibility (1/GPa) = 0.03050117
#
# Stress axis : x y z
#
# Youngs Moduli (GPa) = 37.77924 89.71099 145.75653
#
# Poissons Ratio (x) = 0.39500 -0.07947
# Poissons Ratio (y) = 0.16634 0.45625
# Poissons Ratio (z) = -0.02060 0.28082
#
# Static dielectric constant tensor:
#      x y z
#    x 3.026640 0.000000 0.000000 
#    y 0.000000 4.491390 0.000000 
#    z 0.000000 0.000000 3.343540 
# 
# 
# High freq. dielectric constant tensor:
#      x y z
#    x 1.656880 0.000000 0.000000 
#    y 0.000000 1.752360 0.000000 
#    z 0.000000 0.000000 1.760580 
# 
# From -- ./inp_files/7167.got.cif
#   From: 2010.03.12/outbox.cif.g09.slc.cpg/sg72_4_cif.got.tgz:7167.got - 2010.04.16 14:54:00.
