data_PCOD8293266
_publ_section_title
;
Structure prediction by ZEFSAII (Michael W. Deem and Ramdas Pophale) SiO2 
 PCOD8293266
Probable space group: I B A M
;
_chemical_formula_sum "Si O2"
_cell_formula_units_Z 96
_cell_length_a 23.260335
_cell_length_b 13.476735
_cell_length_c 16.847898
_cell_angle_alpha 90.000000
_cell_angle_beta 90.000000
_cell_angle_gamma 90.000000
_cell_volume 5281.367377
_symmetry_space_group_name_H-M "I B A M"
_symmetry_group_IT_number 72
_symmetry_cell_setting 'orthorhombic'
loop_
_space_group_symop_operation_xyz
x,y,z
-x,-y,z
x,-y,1/2-z
-x,y,1/2-z
-x,-y,-z
x,y,-z
-x,y,1/2+z
x,-y,1/2+z
1/2+x,1/2+y,1/2+z
1/2-x,1/2-y,1/2+z
1/2+x,1/2-y,-z
1/2-x,1/2+y,-z
1/2-x,1/2-y,1/2-z
1/2+x,1/2+y,1/2-z
1/2-x,1/2+y,z
1/2+x,1/2-y,z
loop_
_atom_site_type_symbol
_atom_site_label
_atom_site_fract_x
_atom_site_fract_y
_atom_site_fract_z
Si Si1 0.248558 0.365602 0.673466
Si Si2 0.152539 0.247396 0.406949
Si Si3 0.310348 0.167398 0.667802
Si Si4 0.051004 0.374367 0.406102
Si Si5 0.423680 0.903455 0.094265
Si Si6 0.216036 0.059789 0.590432
O O1 0.202346 0.327268 0.609821
O O2 0.298566 0.283476 0.683566
O O3 0.213872 0.389364 0.754313
O O4 0.282065 0.462432 0.643957
O O5 0.147274 0.237399 0.500000
O O6 0.092326 0.288002 0.370440
O O7 0.168044 0.137070 0.374176
O O8 0.377374 0.152121 0.649355
O O9 0.276357 0.119825 0.593365
O O10 0.052743 0.371899 0.500000
O O11 0.075947 0.481236 0.380752
O O12 0.985287 0.357602 0.379511
O O13 0.412242 0.888547 0.000000
O O14 0.203235 0.029273 0.500000
#
# Coordination Sequence:
#
# PCOD8293266 Si02
#       6
#    16  16  16  16  16  16
#     4  10  20  32  46  68  98 126 156 198 242 285
#     4   9  17  30  48  68  92 125 162 198 241 292
#     4  10  20  32  47  69  96 127 159 194 241 288
#     4   8  15  28  47  72  98 124 157 200 246 287
#     4   9  16  28  49  73  96 126 163 200 241 291
#     4  10  19  30  47  69  93 125 162 198 239 290
#
# _framework density 18.177111
#
# number of rings (size 3 to 8) (size 9 to 14) (size 15 to 20)
#    0.000    2.667    0.000    3.500    0.000    3.333 
#    0.000    0.833    0.000    3.000    0.000    4.667 
#    0.000    8.000    0.000    0.333    0.000    0.000 
#
# Total GULP energy -594747.257153 kJ/mol
# GULP energy per Si atom -12390.567857 kJ/mol
# Density = 1.813574 g / cm^3
# Si number density = 18.177111 Si / 1000 Ang^3
#
#
#
# Elastic Constant Matrix: (Units=GPa)
#
#
# Indices 1 2 3 4 5 6 
#
# 1 141.2761 77.3354 34.1245 0.0000 0.0000 0.0000
# 2 77.3354 117.2470 41.8787 0.0000 0.0000 0.0000
# 3 34.1245 41.8787 45.7949 0.0000 0.0000 0.0000
# 4 0.0000 0.0000 0.0000 26.2076 0.0000 0.0000
# 5 0.0000 0.0000 0.0000 0.0000 24.0696 0.0000
# 6 0.0000 0.0000 0.0000 0.0000 0.0000 33.1482
#
#
#
# Elastic Compliance Matrix: (Units=1/GPa)
#
#
# Indices 1 2 3 4 5 6 
#
# 1 0.011249 -0.006573 -0.002372 0.000000 0.000000 0.000000
# 2 -0.006573 0.016507 -0.010197 0.000000 0.000000 0.000000
# 3 -0.002372 -0.010197 0.032929 0.000000 0.000000 0.000000
# 4 0.000000 0.000000 0.000000 0.038157 0.000000 0.000000
# 5 0.000000 0.000000 0.000000 0.000000 0.041546 0.000000
# 6 0.000000 0.000000 0.000000 0.000000 0.000000 0.030168
#
#
# Mechanical properties :
#
#
# Convention : Reuss Voigt Hill
#
# Bulk Modulus (GPa) = 44.64029 67.88836 56.26433
# Shear Modulus (GPa) = 23.11535 26.75037 24.93286
#
# Velocity S-wave (km/s) = 3.56992 3.84037 3.70761
# Velocity P-wave (km/s) = 6.45014 7.55605 7.02489
#
# Compressibility (1/GPa) = 0.02240129
#
# Stress axis : x y z
#
# Youngs Moduli (GPa) = 88.89545 60.58158 30.36822
#
# Poissons Ratio (x) = 0.39819 0.07203
# Poissons Ratio (y) = 0.58429 0.30968
# Poissons Ratio (z) = 0.21084 0.61777
#
# Static dielectric constant tensor:
#      x y z
#    x 3.645990 0.000000 0.000000 
#    y 0.000000 3.520970 0.000000 
#    z 0.000000 0.000000 3.185990 
# 
# 
# High freq. dielectric constant tensor:
#      x y z
#    x 1.686770 0.000000 0.000000 
#    y 0.000000 1.692250 0.000000 
#    z 0.000000 0.000000 1.692900 
# 
# From -- ./inp_files/37249.got.cif
#   From: 2010.03.12/outbox.cif.g09.slc.cpg/sg72_19_cif.got.tgz:37249.got - 2010.04.16 14:54:00.
