data_PCOD8293908
_publ_section_title
;
Structure prediction by ZEFSAII (Michael W. Deem and Ramdas Pophale) SiO2 
 PCOD8293908
Probable space group: I B A M
;
_chemical_formula_sum "Si O2"
_cell_formula_units_Z 96
_cell_length_a 28.703540
_cell_length_b 18.394338
_cell_length_c 8.814888
_cell_angle_alpha 90.000000
_cell_angle_beta 90.000000
_cell_angle_gamma 90.000000
_cell_volume 4654.107631
_symmetry_space_group_name_H-M "I B A M"
_symmetry_group_IT_number 72
_symmetry_cell_setting 'orthorhombic'
loop_
_space_group_symop_operation_xyz
x,y,z
-x,-y,z
x,-y,1/2-z
-x,y,1/2-z
-x,-y,-z
x,y,-z
-x,y,1/2+z
x,-y,1/2+z
1/2+x,1/2+y,1/2+z
1/2-x,1/2-y,1/2+z
1/2+x,1/2-y,-z
1/2-x,1/2+y,-z
1/2-x,1/2-y,1/2-z
1/2+x,1/2+y,1/2-z
1/2-x,1/2+y,z
1/2+x,1/2-y,z
loop_
_atom_site_type_symbol
_atom_site_label
_atom_site_fract_x
_atom_site_fract_y
_atom_site_fract_z
Si Si1 0.352912 0.671410 0.817170
Si Si2 0.200440 0.688859 0.665453
Si Si3 0.045731 0.626524 0.175864
Si Si4 0.870127 0.563598 0.834670
Si Si5 0.549035 0.707712 0.819076
Si Si6 0.777497 0.078707 0.183289
O O1 0.320966 0.739419 0.752966
O O2 0.405515 0.669174 0.752959
O O3 0.328142 0.599434 0.750019
O O4 0.354733 0.671447 0.000000
O O5 0.218865 0.712961 0.500000
O O6 0.157130 0.636845 0.647859
O O7 0.241831 0.642413 0.745334
O O8 0.086805 0.574497 0.224142
O O9 0.054317 0.708829 0.231830
O O10 0.000000 0.593459 0.250000
O O11 0.038531 0.625944 0.000000
O O12 0.840422 0.500000 0.750000
O O13 0.886460 0.537296 0.000000
O O14 0.500000 0.676878 0.750000
O O15 0.548846 0.696238 0.000000
O O16 0.763295 0.000000 0.250000
O O17 0.776290 0.074881 0.000000
#
# Coordination Sequence:
#
# PCOD8293908 Si02
#       6
#    16  16  16  16  16  16
#     4  11  21  38  63  92 122 158 199 247 299 353
#     4   9  20  37  59  85 117 154 199 246 293 346
#     4  10  20  34  52  75 104 143 189 239 294 349
#     4  11  21  35  52  75 108 149 193 243 294 349
#     4  10  20  35  58  89 121 155 195 244 297 354
#     4  11  23  41  61  88 122 160 201 247 300 358
#
# _framework density 20.626940000000001
#
# number of rings (size 3 to 8) (size 9 to 14) (size 15 to 20)
#    0.000    1.667    1.667    3.500    0.000    1.667 
#    0.000    6.667    0.000    0.500    0.000    3.500 
#    0.000    0.000    0.000    0.000    0.000    0.000 
#
# Total GULP energy -594676.934388 kJ/mol
# GULP energy per Si atom -12389.102800 kJ/mol
# Density = 2.057999 g / cm^3
# Si number density = 20.626940 Si / 1000 Ang^3
#
#
#
# Elastic Constant Matrix: (Units=GPa)
#
#
# Indices 1 2 3 4 5 6 
#
# 1 127.3361 38.2060 42.7257 0.0000 0.0000 0.0000
# 2 38.2060 35.7201 15.1737 0.0000 0.0000 0.0000
# 3 42.7257 15.1737 76.0267 0.0000 0.0000 0.0000
# 4 0.0000 0.0000 0.0000 28.2095 0.0000 0.0000
# 5 0.0000 0.0000 0.0000 0.0000 26.1430 0.0000
# 6 0.0000 0.0000 0.0000 0.0000 0.0000 120.8998
#
#
#
# Elastic Compliance Matrix: (Units=1/GPa)
#
#
# Indices 1 2 3 4 5 6 
#
# 1 0.013092 -0.011885 -0.004985 0.000000 0.000000 0.000000
# 2 -0.011885 0.041379 -0.001579 0.000000 0.000000 0.000000
# 3 -0.004985 -0.001579 0.016270 0.000000 0.000000 0.000000
# 4 0.000000 0.000000 0.000000 0.035449 0.000000 0.000000
# 5 0.000000 0.000000 0.000000 0.000000 0.038251 0.000000
# 6 0.000000 0.000000 0.000000 0.000000 0.000000 0.008271
#
#
# Mechanical properties :
#
#
# Convention : Reuss Voigt Hill
#
# Bulk Modulus (GPa) = 29.54984 47.92151 38.73567
# Shear Modulus (GPa) = 24.88887 44.58230 34.73558
#
# Velocity S-wave (km/s) = 3.47741 4.65409 4.10810
# Velocity P-wave (km/s) = 5.52088 7.22244 6.42821
#
# Compressibility (1/GPa) = 0.03384113
#
# Stress axis : x y z
#
# Youngs Moduli (GPa) = 76.38184 24.16692 61.46223
#
# Poissons Ratio (x) = 0.28724 0.30641
# Poissons Ratio (y) = 0.90783 0.09706
# Poissons Ratio (z) = 0.38079 0.03816
#
# Static dielectric constant tensor:
#      x y z
#    x 3.729520 0.000000 0.000000 
#    y 0.000000 3.754550 0.000000 
#    z 0.000000 0.000000 3.762990 
# 
# 
# High freq. dielectric constant tensor:
#      x y z
#    x 1.811360 0.000000 0.000000 
#    y 0.000000 1.787060 0.000000 
#    z 0.000000 0.000000 1.803790 
# 
# From -- ./inp_files/5980.got.cif
#   From: 2010.03.12/outbox.cif.g09.slc.cpg/sg72_3_cif.got.tgz:5980.got - 2010.04.16 14:54:00.
