data_PCOD8293883
_publ_section_title
;
Structure prediction by ZEFSAII (Michael W. Deem and Ramdas Pophale) SiO2 
 PCOD8293883
Probable space group: I B A M
;
_chemical_formula_sum "Si O2"
_cell_formula_units_Z 88
_cell_length_a 18.868919
_cell_length_b 12.256760
_cell_length_c 18.316049
_cell_angle_alpha 90.000000
_cell_angle_beta 90.000000
_cell_angle_gamma 90.000000
_cell_volume 4235.985834
_symmetry_space_group_name_H-M "I B A M"
_symmetry_group_IT_number 72
_symmetry_cell_setting 'orthorhombic'
loop_
_space_group_symop_operation_xyz
x,y,z
-x,-y,z
x,-y,1/2-z
-x,y,1/2-z
-x,-y,-z
x,y,-z
-x,y,1/2+z
x,-y,1/2+z
1/2+x,1/2+y,1/2+z
1/2-x,1/2-y,1/2+z
1/2+x,1/2-y,-z
1/2-x,1/2+y,-z
1/2-x,1/2-y,1/2-z
1/2+x,1/2+y,1/2-z
1/2-x,1/2+y,z
1/2+x,1/2-y,z
loop_
_atom_site_type_symbol
_atom_site_label
_atom_site_fract_x
_atom_site_fract_y
_atom_site_fract_z
Si Si1 0.500000 0.668215 0.250000
Si Si2 0.253209 0.308442 0.122806
Si Si3 0.672525 0.072331 0.000000
Si Si4 0.571992 0.634314 0.000000
Si Si5 0.318425 0.178064 0.000000
Si Si6 0.584110 0.728001 0.500000
Si Si7 0.626573 0.688004 0.340399
Si Si8 0.114113 0.941925 0.847006
O O1 0.556501 0.737734 0.299202
O O2 0.455815 0.595499 0.305742
O O3 0.194891 0.261954 0.180492
O O4 0.319842 0.359578 0.166405
O O5 0.219746 0.402034 0.071442
O O6 0.274469 0.204445 0.073121
O O7 0.597919 0.139952 0.000000
O O8 0.654462 0.945307 0.000000
O O9 0.613938 0.745706 0.000000
O O10 0.591603 0.557512 0.931949
O O11 0.493659 0.680692 0.000000
O O12 0.622364 0.685781 0.427719
O O13 0.634729 0.561552 0.316381
#
# Coordination Sequence:
#
# PCOD8293883 Si02
#       8
#     8  16   8   8   8   8  16  16
#     4  12  25  36  54  82 111 142 181 226 272 318
#     4   9  20  33  54  80 108 146 178 216 274 324
#     4   9  17  32  52  81 112 137 178 227 263 317
#     4  10  20  33  55  84 110 142 176 215 279 324
#     4   9  17  32  52  81 112 137 178 227 263 317
#     4  10  20  33  55  84 110 142 176 215 279 324
#     4  11  21  36  56  83 112 140 178 225 270 321
#     4  11  21  36  56  83 112 140 178 225 270 321
#
# _framework density 20.774384000000001
#
# number of rings (size 3 to 8) (size 9 to 14) (size 15 to 20)
#    0.000    1.818    1.818    4.364    0.000    1.818 
#    0.000    0.000    0.000    0.000    0.000   43.273 
#    0.000    0.000    0.000    0.000    0.000    0.000 
#
# Total GULP energy -545271.081284 kJ/mol
# GULP energy per Si atom -12392.524575 kJ/mol
# Density = 2.072710 g / cm^3
# Si number density = 20.774384 Si / 1000 Ang^3
#
#
#
# Elastic Constant Matrix: (Units=GPa)
#
#
# Indices 1 2 3 4 5 6 
#
# 1 138.6939 26.6294 17.3250 0.0000 0.0000 0.0000
# 2 26.6294 74.6914 -8.9829 0.0000 0.0000 0.0000
# 3 17.3250 -8.9829 38.0087 0.0000 0.0000 0.0000
# 4 0.0000 0.0000 0.0000 8.5251 0.0000 0.0000
# 5 0.0000 0.0000 0.0000 0.0000 35.4987 0.0000
# 6 0.0000 0.0000 0.0000 0.0000 0.0000 17.3636
#
#
#
# Elastic Compliance Matrix: (Units=1/GPa)
#
#
# Indices 1 2 3 4 5 6 
#
# 1 0.008490 -0.003594 -0.004719 0.000000 0.000000 0.000000
# 2 -0.003594 0.015302 0.005255 0.000000 0.000000 0.000000
# 3 -0.004719 0.005255 0.029703 0.000000 0.000000 0.000000
# 4 0.000000 0.000000 0.000000 0.117301 0.000000 0.000000
# 5 0.000000 0.000000 0.000000 0.000000 0.028170 0.000000
# 6 0.000000 0.000000 0.000000 0.000000 0.000000 0.057592
#
#
# Mechanical properties :
#
#
# Convention : Reuss Voigt Hill
#
# Bulk Modulus (GPa) = 21.10743 35.70413 28.40578
# Shear Modulus (GPa) = 17.95545 26.70565 22.33055
#
# Velocity S-wave (km/s) = 2.94310 3.58929 3.28214
# Velocity P-wave (km/s) = 4.66170 5.86526 5.29777
#
# Compressibility (1/GPa) = 0.04737669
#
# Stress axis : x y z
#
# Youngs Moduli (GPa) = 117.78895 65.35140 33.66690
#
# Poissons Ratio (x) = 0.23490 0.15888
# Poissons Ratio (y) = 0.42338 -0.17691
# Poissons Ratio (z) = 0.55588 -0.34341
#
# Static dielectric constant tensor:
#      x y z
#    x 4.201920 0.000000 0.000000 
#    y 0.000000 3.445330 0.000000 
#    z 0.000000 0.000000 4.017310 
# 
# 
# High freq. dielectric constant tensor:
#      x y z
#    x 1.826820 0.000000 0.000000 
#    y 0.000000 1.777600 0.000000 
#    z 0.000000 0.000000 1.817830 
# 
# From -- ./inp_files/31517.got.cif
#   From: 2010.03.12/outbox.cif.g09.slc.cpg/sg72_16_cif.got.tgz:31517.got - 2010.04.16 14:54:00.
