data_PCOD8293229
_publ_section_title
;
Structure prediction by ZEFSAII (Michael W. Deem and Ramdas Pophale) SiO2 
 PCOD8293229
Probable space group: I B A M
;
_chemical_formula_sum "Si O2"
_cell_formula_units_Z 96
_cell_length_a 27.114313
_cell_length_b 13.501799
_cell_length_c 13.733067
_cell_angle_alpha 90.000000
_cell_angle_beta 90.000000
_cell_angle_gamma 90.000000
_cell_volume 5027.566021
_symmetry_space_group_name_H-M "I B A M"
_symmetry_group_IT_number 72
_symmetry_cell_setting 'orthorhombic'
loop_
_space_group_symop_operation_xyz
x,y,z
-x,-y,z
x,-y,1/2-z
-x,y,1/2-z
-x,-y,-z
x,y,-z
-x,y,1/2+z
x,-y,1/2+z
1/2+x,1/2+y,1/2+z
1/2-x,1/2-y,1/2+z
1/2+x,1/2-y,-z
1/2-x,1/2+y,-z
1/2-x,1/2-y,1/2-z
1/2+x,1/2+y,1/2-z
1/2-x,1/2+y,z
1/2+x,1/2-y,z
loop_
_atom_site_type_symbol
_atom_site_label
_atom_site_fract_x
_atom_site_fract_y
_atom_site_fract_z
Si Si1 0.819627 0.988720 0.107751
Si Si2 0.929456 0.003170 0.391367
Si Si3 0.472239 0.295071 0.892630
Si Si4 0.318763 0.281642 0.695236
Si Si5 0.726513 0.309173 0.609084
Si Si6 0.928768 0.792238 0.803694
O O1 0.873641 0.040235 0.120909
O O2 0.810214 0.899941 0.183556
O O3 0.778271 0.072586 0.120253
O O4 0.815903 0.941204 0.000000
O O5 0.934170 0.051933 0.500000
O O6 0.933877 0.087753 0.308555
O O7 0.970018 0.915490 0.384011
O O8 0.437315 0.254161 0.806970
O O9 0.527767 0.253964 0.874825
O O10 0.454376 0.260578 0.000000
O O11 0.307035 0.255553 0.808446
O O12 0.283673 0.218457 0.625270
O O13 0.374896 0.254389 0.664982
O O14 0.710172 0.275783 0.500000
#
# Coordination Sequence:
#
# PCOD8293229 Si02
#       6
#    16  16  16  16  16  16
#     4   9  17  30  48  68  91 121 156 192 230 272
#     4   9  16  26  41  60  83 114 150 184 217 256
#     4  10  19  28  39  58  83 112 149 185 214 254
#     4  10  20  33  48  66  91 123 157 192 230 272
#     4  10  20  32  47  67  88 116 157 198 233 271
#     4  10  19  29  41  58  83 116 150 182 217 258
#
# _framework density 19.094728
#
# number of rings (size 3 to 8) (size 9 to 14) (size 15 to 20)
#    0.000    2.333    0.000    3.500    0.000    9.333 
#    0.000    0.000    0.000    0.000    0.000    0.000 
#    0.000    0.000    0.000   73.500    0.000  345.167 
#
# Total GULP energy -594708.792491 kJ/mol
# GULP energy per Si atom -12389.766510 kJ/mol
# Density = 1.905127 g / cm^3
# Si number density = 19.094728 Si / 1000 Ang^3
#
#
#
# Elastic Constant Matrix: (Units=GPa)
#
#
# Indices 1 2 3 4 5 6 
#
# 1 116.0209 27.3303 29.7727 0.0000 0.0000 0.0000
# 2 27.3303 19.4935 11.2536 0.0000 0.0000 0.0000
# 3 29.7727 11.2536 111.4168 0.0000 0.0000 0.0000
# 4 0.0000 0.0000 0.0000 14.2721 0.0000 0.0000
# 5 0.0000 0.0000 0.0000 0.0000 20.2456 0.0000
# 6 0.0000 0.0000 0.0000 0.0000 0.0000 23.9306
#
#
#
# Elastic Compliance Matrix: (Units=1/GPa)
#
#
# Indices 1 2 3 4 5 6 
#
# 1 0.013186 -0.017472 -0.001759 0.000000 0.000000 0.000000
# 2 -0.017472 0.077626 -0.003172 0.000000 0.000000 0.000000
# 3 -0.001759 -0.003172 0.009766 0.000000 0.000000 0.000000
# 4 0.000000 0.000000 0.000000 0.070067 0.000000 0.000000
# 5 0.000000 0.000000 0.000000 0.000000 0.049393 0.000000
# 6 0.000000 0.000000 0.000000 0.000000 0.000000 0.041788
#
#
# Mechanical properties :
#
#
# Convention : Reuss Voigt Hill
#
# Bulk Modulus (GPa) = 17.92982 42.62714 30.27848
# Shear Modulus (GPa) = 15.37410 23.59462 19.48436
#
# Velocity S-wave (km/s) = 2.84059 3.51901 3.19784
# Velocity P-wave (km/s) = 4.49098 6.23568 5.43382
#
# Compressibility (1/GPa) = 0.05577300
#
# Stress axis : x y z
#
# Youngs Moduli (GPa) = 75.83660 12.88224 102.39949
#
# Poissons Ratio (x) = 0.22508 0.18011
# Poissons Ratio (y) = 1.32502 0.32479
# Poissons Ratio (z) = 0.13339 0.04086
#
# Static dielectric constant tensor:
#      x y z
#    x 3.616700 0.000000 0.000000 
#    y 0.000000 2.698490 0.000000 
#    z 0.000000 0.000000 3.854190 
# 
# 
# High freq. dielectric constant tensor:
#      x y z
#    x 1.746270 0.000000 0.000000 
#    y 0.000000 1.633970 0.000000 
#    z 0.000000 0.000000 1.775200 
# 
# From -- ./inp_files/26484.got.cif
#   From: 2010.03.12/outbox.cif.g09.slc.cpg/sg72_14_cif.got.tgz:26484.got - 2010.04.16 14:54:00.
