data_PCOD8293303
_publ_section_title
;
Structure prediction by ZEFSAII (Michael W. Deem and Ramdas Pophale) SiO2 
 PCOD8293303
Probable space group: I B A M
;
_chemical_formula_sum "Si O2"
_cell_formula_units_Z 64
_cell_length_a 35.467526
_cell_length_b 5.205729
_cell_length_c 14.421781
_cell_angle_alpha 90.000000
_cell_angle_beta 90.000000
_cell_angle_gamma 90.000000
_cell_volume 2662.755853
_symmetry_space_group_name_H-M "I B A M"
_symmetry_group_IT_number 72
_symmetry_cell_setting 'orthorhombic'
loop_
_space_group_symop_operation_xyz
x,y,z
-x,-y,z
x,-y,1/2-z
-x,y,1/2-z
-x,-y,-z
x,y,-z
-x,y,1/2+z
x,-y,1/2+z
1/2+x,1/2+y,1/2+z
1/2-x,1/2-y,1/2+z
1/2+x,1/2-y,-z
1/2-x,1/2+y,-z
1/2-x,1/2-y,1/2-z
1/2+x,1/2+y,1/2-z
1/2-x,1/2+y,z
1/2+x,1/2-y,z
loop_
_atom_site_type_symbol
_atom_site_label
_atom_site_fract_x
_atom_site_fract_y
_atom_site_fract_z
Si Si1 0.893886 0.824138 0.389420
Si Si2 0.149270 0.326216 0.110292
Si Si3 0.766116 0.425796 0.352889
Si Si4 0.978272 0.750562 0.389508
O O1 0.894957 0.835844 0.500000
O O2 0.869310 0.587219 0.352944
O O3 0.935910 0.777556 0.350618
O O4 0.875117 0.086518 0.350671
O O5 0.191439 0.322976 0.148595
O O6 0.150334 0.317592 0.000000
O O7 0.751318 0.500000 0.250000
O O8 0.759461 0.703076 0.402932
O O9 0.977621 0.735957 0.500000
O O10 0.000000 0.500000 0.349892
O O11 0.000000 0.000000 0.353608
#
# Coordination Sequence:
#
# PCOD8293303 Si02
#       4
#    16  16  16  16
#     4   9  17  28  42  65  96 126 157 193 233 274
#     4  10  19  31  48  69  95 125 155 193 238 282
#     4  10  21  36  52  70  93 121 154 195 239 283
#     4   9  15  23  37  58  88 126 159 185 221 270
#
# _framework density 24.035246999999998
#
# number of rings (size 3 to 8) (size 9 to 14) (size 15 to 20)
#    0.000    2.500    0.000    3.000    0.000    7.000 
#    0.000    0.000    0.000    0.000    0.000    0.000 
#    0.000   15.000    0.000    0.000    0.000    0.000 
#
# Total GULP energy -396634.181024 kJ/mol
# GULP energy per Si atom -12394.818157 kJ/mol
# Density = 2.398054 g / cm^3
# Si number density = 24.035247 Si / 1000 Ang^3
#
#
#
# Elastic Constant Matrix: (Units=GPa)
#
#
# Indices 1 2 3 4 5 6 
#
# 1 202.4682 111.0488 -6.0985 0.0000 0.0000 0.0000
# 2 111.0488 266.8547 0.9278 0.0000 0.0000 0.0000
# 3 -6.0985 0.9278 6.7041 0.0000 0.0000 0.0000
# 4 0.0000 0.0000 0.0000 1.2147 0.0000 0.0000
# 5 0.0000 0.0000 0.0000 0.0000 74.2181 0.0000
# 6 0.0000 0.0000 0.0000 0.0000 0.0000 58.5490
#
#
#
# Elastic Compliance Matrix: (Units=1/GPa)
#
#
# Indices 1 2 3 4 5 6 
#
# 1 0.006668 -0.002797 0.006452 0.000000 0.000000 0.000000
# 2 -0.002797 0.004923 -0.003226 0.000000 0.000000 0.000000
# 3 0.006452 -0.003226 0.155479 0.000000 0.000000 0.000000
# 4 0.000000 0.000000 0.000000 0.823263 0.000000 0.000000
# 5 0.000000 0.000000 0.000000 0.000000 0.013474 0.000000
# 6 0.000000 0.000000 0.000000 0.000000 0.000000 0.017080
#
#
# Mechanical properties :
#
#
# Convention : Reuss Voigt Hill
#
# Bulk Modulus (GPa) = 5.95493 76.42035 41.18764
# Shear Modulus (GPa) = 4.64683 51.47295 28.05989
#
# Velocity S-wave (km/s) = 1.39195 4.63272 3.42050
# Velocity P-wave (km/s) = 2.25085 7.77691 5.72480
#
# Compressibility (1/GPa) = 0.16792807
#
# Stress axis : x y z
#
# Youngs Moduli (GPa) = 149.98113 203.14737 6.43174
#
# Poissons Ratio (x) = 0.56821 -0.04150
# Poissons Ratio (y) = 0.41950 0.02075
# Poissons Ratio (z) = -0.96772 0.65528
#
# Static dielectric constant tensor:
#      x y z
#    x 4.267840 0.000000 0.000000 
#    y 0.000000 5.056220 0.000000 
#    z 0.000000 0.000000 3.623570 
# 
# 
# High freq. dielectric constant tensor:
#      x y z
#    x 1.956220 0.000000 0.000000 
#    y 0.000000 1.978390 0.000000 
#    z 0.000000 0.000000 1.911560 
# 
# From -- ./inp_files/27008.got.cif
#   From: 2010.03.12/outbox.cif.g09.slc.cpg/sg72_14_cif.got.tgz:27008.got - 2010.04.16 14:54:00.
