data_PCOD8293947
_publ_section_title
;
Structure prediction by ZEFSAII (Michael W. Deem and Ramdas Pophale) SiO2 
 PCOD8293947
Probable space group: I B A M
;
_chemical_formula_sum "Si O2"
_cell_formula_units_Z 96
_cell_length_a 23.750481
_cell_length_b 23.609317
_cell_length_c 8.879984
_cell_angle_alpha 90.000000
_cell_angle_beta 90.000000
_cell_angle_gamma 90.000000
_cell_volume 4979.296826
_symmetry_space_group_name_H-M "I B A M"
_symmetry_group_IT_number 72
_symmetry_cell_setting 'orthorhombic'
loop_
_space_group_symop_operation_xyz
x,y,z
-x,-y,z
x,-y,1/2-z
-x,y,1/2-z
-x,-y,-z
x,y,-z
-x,y,1/2+z
x,-y,1/2+z
1/2+x,1/2+y,1/2+z
1/2-x,1/2-y,1/2+z
1/2+x,1/2-y,-z
1/2-x,1/2+y,-z
1/2-x,1/2-y,1/2-z
1/2+x,1/2+y,1/2-z
1/2-x,1/2+y,z
1/2+x,1/2-y,z
loop_
_atom_site_type_symbol
_atom_site_label
_atom_site_fract_x
_atom_site_fract_y
_atom_site_fract_z
Si Si1 0.151123 0.360772 0.673071
Si Si2 0.777618 0.866003 0.826903
Si Si3 0.442325 0.662065 0.671720
Si Si4 0.630996 0.558559 0.173379
Si Si5 0.440231 0.939494 0.819828
Si Si6 0.663520 0.731678 0.821480
O O1 0.130108 0.363291 0.500000
O O2 0.213295 0.387143 0.689366
O O3 0.107137 0.393685 0.777705
O O4 0.157802 0.296295 0.729408
O O5 0.814119 0.912726 0.742882
O O6 0.785406 0.802547 0.758216
O O7 0.795816 0.863139 0.000000
O O8 0.500000 0.676594 0.750000
O O9 0.451785 0.677042 0.500000
O O10 0.424259 0.597019 0.696085
O O11 0.393409 0.701805 0.736275
O O12 0.616358 0.500000 0.250000
O O13 0.644815 0.548463 0.000000
O O14 0.500000 0.920072 0.750000
O O15 0.422690 0.000000 0.750000
O O16 0.445181 0.944387 0.000000
O O17 0.672561 0.725947 0.000000
#
# Coordination Sequence:
#
# PCOD8293947 Si02
#       6
#    16  16  16  16  16  16
#     4  10  21  37  58  85 114 145 184 225 267 322
#     4  10  20  34  55  82 112 146 183 225 272 323
#     4   9  19  34  52  75 104 140 178 220 268 315
#     4  10  21  37  55  76 105 141 181 226 276 326
#     4  11  23  41  63  84 111 145 181 225 276 328
#     4   9  19  36  55  78 113 149 181 224 273 319
#
# _framework density 19.27983
#
# number of rings (size 3 to 8) (size 9 to 14) (size 15 to 20)
#    0.000    2.167    0.000    4.500    0.000    7.000 
#    0.000    3.333    0.000    0.000    0.000    0.000 
#    0.000    0.000    0.000    0.000    0.000    0.000 
#
# Total GULP energy -595181.868647 kJ/mol
# GULP energy per Si atom -12399.622263 kJ/mol
# Density = 1.923595 g / cm^3
# Si number density = 19.279830 Si / 1000 Ang^3
#
#
#
# Elastic Constant Matrix: (Units=GPa)
#
#
# Indices 1 2 3 4 5 6 
#
# 1 81.4430 18.0698 39.1104 0.0000 0.0000 0.0000
# 2 18.0698 54.1706 25.9067 0.0000 0.0000 0.0000
# 3 39.1104 25.9067 101.8583 0.0000 0.0000 0.0000
# 4 0.0000 0.0000 0.0000 31.8925 0.0000 0.0000
# 5 0.0000 0.0000 0.0000 0.0000 33.6634 0.0000
# 6 0.0000 0.0000 0.0000 0.0000 0.0000 21.6565
#
#
#
# Elastic Compliance Matrix: (Units=1/GPa)
#
#
# Indices 1 2 3 4 5 6 
#
# 1 0.015375 -0.002625 -0.005236 0.000000 0.000000 0.000000
# 2 -0.002625 0.021465 -0.004452 0.000000 0.000000 0.000000
# 3 -0.005236 -0.004452 0.012960 0.000000 0.000000 0.000000
# 4 0.000000 0.000000 0.000000 0.031355 0.000000 0.000000
# 5 0.000000 0.000000 0.000000 0.000000 0.029706 0.000000
# 6 0.000000 0.000000 0.000000 0.000000 0.000000 0.046176
#
#
# Mechanical properties :
#
#
# Convention : Reuss Voigt Hill
#
# Bulk Modulus (GPa) = 39.72091 44.84951 42.28521
# Shear Modulus (GPa) = 26.30839 27.73480 27.02159
#
# Velocity S-wave (km/s) = 3.69800 3.79692 3.74779
# Velocity P-wave (km/s) = 6.23543 6.52189 6.38027
#
# Compressibility (1/GPa) = 0.02517566
#
# Stress axis : x y z
#
# Youngs Moduli (GPa) = 65.03930 46.58825 77.15894
#
# Poissons Ratio (x) = 0.12228 0.40401
# Poissons Ratio (y) = 0.17070 0.34348
# Poissons Ratio (z) = 0.34055 0.20739
#
# Static dielectric constant tensor:
#      x y z
#    x 3.577310 0.000000 0.000000 
#    y 0.000000 3.548960 0.000000 
#    z 0.000000 0.000000 3.528240 
# 
# 
# High freq. dielectric constant tensor:
#      x y z
#    x 1.752490 0.000000 0.000000 
#    y 0.000000 1.748470 0.000000 
#    z 0.000000 0.000000 1.752690 
# 
# From -- ./inp_files/6962.got.cif
#   From: 2010.03.12/outbox.cif.g09.slc.cpg/sg72_4_cif.got.tgz:6962.got - 2010.04.16 14:54:00.
