data_PCOD8293481
_publ_section_title
;
Structure prediction by ZEFSAII (Michael W. Deem and Ramdas Pophale) SiO2 
 PCOD8293481
Probable space group: I B A M
;
_chemical_formula_sum "Si O2"
_cell_formula_units_Z 72
_cell_length_a 24.074652
_cell_length_b 17.888118
_cell_length_c 9.347503
_cell_angle_alpha 90.000000
_cell_angle_beta 90.000000
_cell_angle_gamma 90.000000
_cell_volume 4025.504184
_symmetry_space_group_name_H-M "I B A M"
_symmetry_group_IT_number 72
_symmetry_cell_setting 'orthorhombic'
loop_
_space_group_symop_operation_xyz
x,y,z
-x,-y,z
x,-y,1/2-z
-x,y,1/2-z
-x,-y,-z
x,y,-z
-x,y,1/2+z
x,-y,1/2+z
1/2+x,1/2+y,1/2+z
1/2-x,1/2-y,1/2+z
1/2+x,1/2-y,-z
1/2-x,1/2+y,-z
1/2-x,1/2-y,1/2-z
1/2+x,1/2+y,1/2-z
1/2-x,1/2+y,z
1/2+x,1/2-y,z
loop_
_atom_site_type_symbol
_atom_site_label
_atom_site_fract_x
_atom_site_fract_y
_atom_site_fract_z
Si Si1 0.829652 0.777865 0.164801
Si Si2 0.245686 0.641748 0.660409
Si Si3 0.315334 0.000000 0.250000
Si Si4 0.946484 0.718245 0.830044
Si Si5 0.921804 0.567469 0.661170
O O1 0.802169 0.699091 0.213013
O O2 0.801574 0.846988 0.247388
O O3 0.895262 0.774223 0.197725
O O4 0.818877 0.793324 0.000000
O O5 0.262763 0.660843 0.500000
O O6 0.224105 0.557030 0.665670
O O7 0.355639 0.951038 0.353346
O O8 0.933406 0.639704 0.755945
O O9 0.000000 0.753464 0.750000
O O10 0.956317 0.706537 0.000000
O O11 0.950966 0.500000 0.750000
O O12 0.946016 0.576323 0.500000
#
# Coordination Sequence:
#
# PCOD8293481 Si02
#       5
#    16  16   8  16  16
#     4   9  19  36  52  74 104 137 173 219 265 310
#     4  10  19  33  53  77 105 137 176 216 259 315
#     4  10  20  32  53  76 111 142 172 212 262 310
#     4  11  22  37  54  74 103 136 180 221 260 308
#     4  10  20  33  50  71 102 137 174 212 256 303
#
# _framework density 17.885957999999999
#
# number of rings (size 3 to 8) (size 9 to 14) (size 15 to 20)
#    0.667    1.333    2.222    2.000    0.000    4.000 
#    0.000    2.222    0.000    0.000    0.000    0.778 
#    0.000    5.333    0.000    0.000    0.000    0.000 
#
# Total GULP energy -446089.921645 kJ/mol
# GULP energy per Si atom -12391.386712 kJ/mol
# Density = 1.784525 g / cm^3
# Si number density = 17.885958 Si / 1000 Ang^3
#
#
#
# Elastic Constant Matrix: (Units=GPa)
#
#
# Indices 1 2 3 4 5 6 
#
# 1 121.1723 33.3637 56.4714 0.0000 0.0000 0.0000
# 2 33.3637 33.1943 15.5816 0.0000 0.0000 0.0000
# 3 56.4714 15.5816 104.5713 0.0000 0.0000 0.0000
# 4 0.0000 0.0000 0.0000 21.4662 0.0000 0.0000
# 5 0.0000 0.0000 0.0000 0.0000 26.4406 0.0000
# 6 0.0000 0.0000 0.0000 0.0000 0.0000 28.1341
#
#
#
# Elastic Compliance Matrix: (Units=1/GPa)
#
#
# Indices 1 2 3 4 5 6 
#
# 1 0.014182 -0.011461 -0.005951 0.000000 0.000000 0.000000
# 2 -0.011461 0.041653 -0.000017 0.000000 0.000000 0.000000
# 3 -0.005951 -0.000017 0.012779 0.000000 0.000000 0.000000
# 4 0.000000 0.000000 0.000000 0.046585 0.000000 0.000000
# 5 0.000000 0.000000 0.000000 0.000000 0.037821 0.000000
# 6 0.000000 0.000000 0.000000 0.000000 0.000000 0.035544
#
#
# Mechanical properties :
#
#
# Convention : Reuss Voigt Hill
#
# Bulk Modulus (GPa) = 29.62444 52.19682 40.91063
# Shear Modulus (GPa) = 21.30626 25.44293 23.37459
#
# Velocity S-wave (km/s) = 3.45516 3.77571 3.61899
# Velocity P-wave (km/s) = 5.70232 6.94654 6.35495
#
# Compressibility (1/GPa) = 0.03375592
#
# Stress axis : x y z
#
# Youngs Moduli (GPa) = 70.51375 24.00792 78.25318
#
# Poissons Ratio (x) = 0.27515 0.46567
# Poissons Ratio (y) = 0.80814 0.00136
# Poissons Ratio (z) = 0.41961 0.00042
#
# Static dielectric constant tensor:
#      x y z
#    x 3.501160 0.000000 0.000000 
#    y 0.000000 2.901080 0.000000 
#    z 0.000000 0.000000 3.273890 
# 
# 
# High freq. dielectric constant tensor:
#      x y z
#    x 1.685680 0.000000 0.000000 
#    y 0.000000 1.643450 0.000000 
#    z 0.000000 0.000000 1.699370 
# 
# From -- ./inp_files/6772.got.cif
#   From: 2010.03.12/outbox.cif.g09.slc.cpg/sg72_4_cif.got.tgz:6772.got - 2010.04.16 14:54:00.
