data_PCOD8293434
_publ_section_title
;
Structure prediction by ZEFSAII (Michael W. Deem and Ramdas Pophale) SiO2 
 PCOD8293434
Probable space group: I B A M
;
_chemical_formula_sum "Si O2"
_cell_formula_units_Z 116
_cell_length_a 23.506654
_cell_length_b 26.295358
_cell_length_c 9.185968
_cell_angle_alpha 90.000000
_cell_angle_beta 90.000000
_cell_angle_gamma 90.000000
_cell_volume 5677.992715
_symmetry_space_group_name_H-M "I B A M"
_symmetry_group_IT_number 72
_symmetry_cell_setting 'orthorhombic'
loop_
_space_group_symop_operation_xyz
x,y,z
-x,-y,z
x,-y,1/2-z
-x,y,1/2-z
-x,-y,-z
x,y,-z
-x,y,1/2+z
x,-y,1/2+z
1/2+x,1/2+y,1/2+z
1/2-x,1/2-y,1/2+z
1/2+x,1/2-y,-z
1/2-x,1/2+y,-z
1/2-x,1/2-y,1/2-z
1/2+x,1/2+y,1/2-z
1/2-x,1/2+y,z
1/2+x,1/2-y,z
loop_
_atom_site_type_symbol
_atom_site_label
_atom_site_fract_x
_atom_site_fract_y
_atom_site_fract_z
Si Si1 0.687145 0.046793 0.829014
Si Si2 0.702136 0.438880 0.838037
Si Si3 0.723297 0.679247 0.658804
Si Si4 0.400850 0.322566 0.330422
Si Si5 0.445108 0.785087 0.831879
Si Si6 0.000000 0.000000 0.250000
Si Si7 0.332089 0.838585 0.828638
Si Si8 0.593047 0.575529 0.835679
O O1 0.751700 0.040218 0.774540
O O2 0.663685 0.102079 0.782470
O O3 0.652920 0.000000 0.750000
O O4 0.683262 0.038672 0.000000
O O5 0.712527 0.380014 0.856402
O O6 0.641372 0.450225 0.764208
O O7 0.704975 0.464231 0.000000
O O8 0.737700 0.702662 0.500000
O O9 0.662045 0.699228 0.716309
O O10 0.776513 0.690238 0.764271
O O11 0.398903 0.339808 0.500000
O O12 0.443053 0.275498 0.307310
O O13 0.422978 0.369465 0.233212
O O14 0.500000 0.807130 0.750000
O O15 0.388822 0.812175 0.768133
O O16 0.451210 0.799349 0.000000
O O17 0.960801 0.962278 0.345185
O O18 0.325881 0.832585 0.000000
O O19 0.615001 0.584870 0.000000
#
# Coordination Sequence:
#
# PCOD8293434 Si02
#       8
#    16  16  16  16  16   4  16  16
#     4  10  19  32  54  84 116 150 185 223 274 335
#     4   9  18  34  55  79 112 146 180 229 283 335
#     4   8  15  30  53  82 113 146 178 219 282 340
#     4   9  20  39  61  84 115 147 181 235 293 342
#     4  10  22  40  60  84 113 149 190 234 285 337
#     4  12  30  44  52  74 110 152 196 250 294 324
#     4   9  19  35  55  82 118 151 184 231 281 335
#     4  11  24  41  59  78 104 143 194 241 287 338
#
# _framework density 20.429755
#
# number of rings (size 3 to 8) (size 9 to 14) (size 15 to 20)
#    0.000    2.483    0.000    2.276    1.931    7.724 
#    0.000    0.000    0.000    0.414    0.000    2.897 
#    0.000    0.000    0.000    0.000    0.000    0.000 
#
# Total GULP energy -718748.402044 kJ/mol
# GULP energy per Si atom -12392.213828 kJ/mol
# Density = 2.038326 g / cm^3
# Si number density = 20.429755 Si / 1000 Ang^3
#
#
#
# Elastic Constant Matrix: (Units=GPa)
#
#
# Indices 1 2 3 4 5 6 
#
# 1 110.6339 30.2988 37.4749 0.0000 0.0000 0.0000
# 2 30.2988 49.3781 26.2316 0.0000 0.0000 0.0000
# 3 37.4749 26.2316 87.3832 0.0000 0.0000 0.0000
# 4 0.0000 0.0000 0.0000 21.8235 0.0000 0.0000
# 5 0.0000 0.0000 0.0000 0.0000 114.6625 0.0000
# 6 0.0000 0.0000 0.0000 0.0000 0.0000 16.7475
#
#
#
# Elastic Compliance Matrix: (Units=1/GPa)
#
#
# Indices 1 2 3 4 5 6 
#
# 1 0.011652 -0.005348 -0.003392 0.000000 0.000000 0.000000
# 2 -0.005348 0.026549 -0.005676 0.000000 0.000000 0.000000
# 3 -0.003392 -0.005676 0.014602 0.000000 0.000000 0.000000
# 4 0.000000 0.000000 0.000000 0.045822 0.000000 0.000000
# 5 0.000000 0.000000 0.000000 0.000000 0.008721 0.000000
# 6 0.000000 0.000000 0.000000 0.000000 0.000000 0.059710
#
#
# Mechanical properties :
#
#
# Convention : Reuss Voigt Hill
#
# Bulk Modulus (GPa) = 41.71605 48.37843 45.04724
# Shear Modulus (GPa) = 24.52420 40.87267 32.69843
#
# Velocity S-wave (km/s) = 3.46846 4.47771 4.00500
# Velocity P-wave (km/s) = 6.04184 7.10387 6.59427
#
# Compressibility (1/GPa) = 0.02397159
#
# Stress axis : x y z
#
# Youngs Moduli (GPa) = 85.81938 37.66618 68.48212
#
# Poissons Ratio (x) = 0.20145 0.23227
# Poissons Ratio (y) = 0.45898 0.38872
# Poissons Ratio (z) = 0.29108 0.21380
#
# Static dielectric constant tensor:
#      x y z
#    x 3.673660 0.000000 0.000000 
#    y 0.000000 3.995920 0.000000 
#    z 0.000000 0.000000 3.671110 
# 
# 
# High freq. dielectric constant tensor:
#      x y z
#    x 1.771260 0.000000 0.000000 
#    y 0.000000 1.804890 0.000000 
#    z 0.000000 0.000000 1.791530 
# 
# From -- ./inp_files/7527.got.cif
#   From: 2010.03.12/outbox.cif.g09.slc.cpg/sg72_4_cif.got.tgz:7527.got - 2010.04.16 14:54:00.
