data_PCOD8293358
_publ_section_title
;
Structure prediction by ZEFSAII (Michael W. Deem and Ramdas Pophale) SiO2 
 PCOD8293358
Probable space group: I B A M
;
_chemical_formula_sum "Si O2"
_cell_formula_units_Z 80
_cell_length_a 24.589705
_cell_length_b 19.075595
_cell_length_c 9.932449
_cell_angle_alpha 90.000000
_cell_angle_beta 90.000000
_cell_angle_gamma 90.000000
_cell_volume 4658.946846
_symmetry_space_group_name_H-M "I B A M"
_symmetry_group_IT_number 72
_symmetry_cell_setting 'orthorhombic'
loop_
_space_group_symop_operation_xyz
x,y,z
-x,-y,z
x,-y,1/2-z
-x,y,1/2-z
-x,-y,-z
x,y,-z
-x,y,1/2+z
x,-y,1/2+z
1/2+x,1/2+y,1/2+z
1/2-x,1/2-y,1/2+z
1/2+x,1/2-y,-z
1/2-x,1/2+y,-z
1/2-x,1/2-y,1/2-z
1/2+x,1/2+y,1/2-z
1/2-x,1/2+y,z
1/2+x,1/2-y,z
loop_
_atom_site_type_symbol
_atom_site_label
_atom_site_fract_x
_atom_site_fract_y
_atom_site_fract_z
Si Si1 0.078008 0.135042 0.500000
Si Si2 0.440076 0.284895 0.265084
Si Si3 0.795815 0.000000 0.250000
Si Si4 0.458993 0.608312 0.000000
Si Si5 0.671549 0.251089 0.154383
Si Si6 0.865979 0.004052 0.500000
Si Si7 0.735283 0.646736 0.843195
O O1 0.081589 0.185984 0.625544
O O2 0.128091 0.080568 0.500000
O O3 0.022535 0.089787 0.500000
O O4 0.500000 0.247998 0.250000
O O5 0.444913 0.349016 0.366859
O O6 0.392401 0.233194 0.318237
O O7 0.759409 0.065067 0.198546
O O8 0.833609 0.028844 0.369202
O O9 0.425499 0.537129 0.000000
O O10 0.690601 0.314005 0.251925
O O11 0.705648 0.180846 0.183585
O O12 0.679420 0.275894 0.000000
O O13 0.718776 0.654054 0.000000
#
# Coordination Sequence:
#
# PCOD8293358 Si02
#       7
#     8  16   8   8  16   8  16
#     4  10  21  32  45  68 103 134 172 219 246 286
#     4  10  20  33  50  74 100 130 171 216 259 304
#     4  12  24  34  49  74 105 136 178 216 254 304
#     4  10  19  32  47  68  97 136 178 211 250 290
#     4  10  20  36  59  77 103 135 176 217 268 313
#     4  12  21  32  48  66  98 142 181 208 246 296
#     4  10  22  38  53  79 104 136 176 222 262 310
#
# _framework density 17.171263
#
# number of rings (size 3 to 8) (size 9 to 14) (size 15 to 20)
#    0.000    1.600    2.000    3.900    2.800    0.000 
#    0.000    4.000    0.000    0.000    0.000    0.700 
#    0.000    3.200    0.000    0.000    0.000    0.000 
#
# Total GULP energy -495874.836116 kJ/mol
# GULP energy per Si atom -12396.870903 kJ/mol
# Density = 1.713218 g / cm^3
# Si number density = 17.171263 Si / 1000 Ang^3
#
#
#
# Elastic Constant Matrix: (Units=GPa)
#
#
# Indices 1 2 3 4 5 6 
#
# 1 112.2777 40.2677 26.7179 0.0000 0.0000 0.0000
# 2 40.2677 65.1968 24.8713 0.0000 0.0000 0.0000
# 3 26.7179 24.8713 116.7111 0.0000 0.0000 0.0000
# 4 0.0000 0.0000 0.0000 13.8103 0.0000 0.0000
# 5 0.0000 0.0000 0.0000 0.0000 26.2671 0.0000
# 6 0.0000 0.0000 0.0000 0.0000 0.0000 31.0733
#
#
#
# Elastic Compliance Matrix: (Units=1/GPa)
#
#
# Indices 1 2 3 4 5 6 
#
# 1 0.011600 -0.006696 -0.001229 0.000000 0.000000 0.000000
# 2 -0.006696 0.020561 -0.002849 0.000000 0.000000 0.000000
# 3 -0.001229 -0.002849 0.009456 0.000000 0.000000 0.000000
# 4 0.000000 0.000000 0.000000 0.072410 0.000000 0.000000
# 5 0.000000 0.000000 0.000000 0.000000 0.038070 0.000000
# 6 0.000000 0.000000 0.000000 0.000000 0.000000 0.032182
#
#
# Mechanical properties :
#
#
# Convention : Reuss Voigt Hill
#
# Bulk Modulus (GPa) = 49.82369 53.09993 51.46181
# Shear Modulus (GPa) = 23.52757 27.71872 25.62314
#
# Velocity S-wave (km/s) = 3.70560 4.02213 3.86711
# Velocity P-wave (km/s) = 6.88385 7.24989 7.06924
#
# Compressibility (1/GPa) = 0.02007077
#
# Stress axis : x y z
#
# Youngs Moduli (GPa) = 86.20413 48.63677 105.74770
#
# Poissons Ratio (x) = 0.32568 0.12993
# Poissons Ratio (y) = 0.57723 0.30123
# Poissons Ratio (z) = 0.10592 0.13855
#
# Static dielectric constant tensor:
#      x y z
#    x 3.466500 0.000000 0.000000 
#    y 0.000000 2.800800 0.000000 
#    z 0.000000 0.000000 3.373890 
# 
# 
# High freq. dielectric constant tensor:
#      x y z
#    x 1.665790 0.000000 0.000000 
#    y 0.000000 1.609440 0.000000 
#    z 0.000000 0.000000 1.691270 
# 
# From -- ./inp_files/4895.got.cif
#   From: 2010.03.12/outbox.cif.g09.slc.cpg/sg72_3_cif.got.tgz:4895.got - 2010.04.16 14:54:00.
