data_PCOD8293679
_publ_section_title
;
Structure prediction by ZEFSAII (Michael W. Deem and Ramdas Pophale) SiO2 
 PCOD8293679
Probable space group: I B A M
;
_chemical_formula_sum "Si O2"
_cell_formula_units_Z 72
_cell_length_a 9.189594
_cell_length_b 23.665254
_cell_length_c 14.735544
_cell_angle_alpha 90.000000
_cell_angle_beta 90.000000
_cell_angle_gamma 90.000000
_cell_volume 3204.598818
_symmetry_space_group_name_H-M "I B A M"
_symmetry_group_IT_number 72
_symmetry_cell_setting 'orthorhombic'
loop_
_space_group_symop_operation_xyz
x,y,z
-x,-y,z
x,-y,1/2-z
-x,y,1/2-z
-x,-y,-z
x,y,-z
-x,y,1/2+z
x,-y,1/2+z
1/2+x,1/2+y,1/2+z
1/2-x,1/2-y,1/2+z
1/2+x,1/2-y,-z
1/2-x,1/2+y,-z
1/2-x,1/2-y,1/2-z
1/2+x,1/2+y,1/2-z
1/2-x,1/2+y,z
1/2+x,1/2-y,z
loop_
_atom_site_type_symbol
_atom_site_label
_atom_site_fract_x
_atom_site_fract_y
_atom_site_fract_z
Si Si1 0.711983 0.500000 0.750000
Si Si2 0.051135 0.897408 0.841167
Si Si3 0.746568 0.199639 0.896026
Si Si4 0.736536 0.082407 0.601811
Si Si5 0.575806 0.195220 0.608172
O O1 0.615783 0.457379 0.690178
O O2 0.807181 0.465614 0.824460
O O3 0.169850 0.859931 0.892033
O O4 0.000000 0.864489 0.750000
O O5 0.910904 0.908571 0.903842
O O6 0.587439 0.194380 0.849649
O O7 0.839057 0.250509 0.851332
O O8 0.721165 0.215612 0.000000
O O9 0.683563 0.065878 0.500000
O O10 0.660155 0.139015 0.638058
O O11 0.568612 0.198262 0.500000
#
# Coordination Sequence:
#
# PCOD8293679 Si02
#       5
#     8  16  16  16  16
#     4  10  23  40  57  86 119 150 203 250 279 342
#     4  10  20  36  55  82 117 151 195 242 285 342
#     4  10  19  35  59  86 116 149 190 239 292 351
#     4  10  19  36  61  85 116 156 194 239 292 342
#     4   9  19  35  58  88 116 146 188 236 290 354
#
# _framework density 22.46771
#
# number of rings (size 3 to 8) (size 9 to 14) (size 15 to 20)
#    0.000    2.222    0.000    5.000    0.000    6.222 
#    0.000   16.667    0.000    4.000    0.000    0.000 
#    0.000    0.000    0.000    0.000    0.000    0.000 
#
# Total GULP energy -446174.587441 kJ/mol
# GULP energy per Si atom -12393.738540 kJ/mol
# Density = 2.241657 g / cm^3
# Si number density = 22.467710 Si / 1000 Ang^3
#
#
#
# Elastic Constant Matrix: (Units=GPa)
#
#
# Indices 1 2 3 4 5 6 
#
# 1 97.8965 72.1423 14.0731 0.0000 -0.0001 0.0000
# 2 72.1423 171.9248 38.0155 -0.0001 0.0000 0.0000
# 3 14.0731 38.0155 51.7408 -0.0003 -0.0002 0.0001
# 4 0.0000 -0.0001 -0.0003 31.8561 0.0000 0.0000
# 5 -0.0001 0.0000 -0.0002 0.0000 19.7296 0.0000
# 6 0.0000 0.0000 0.0001 0.0000 0.0000 24.3516
#
#
#
# Elastic Compliance Matrix: (Units=1/GPa)
#
#
# Indices 1 2 3 4 5 6 
#
# 1 0.014805 -0.006354 0.000642 0.000000 0.000000 0.000000
# 2 -0.006354 0.009672 -0.005378 0.000000 0.000000 0.000000
# 3 0.000642 -0.005378 0.023104 0.000000 0.000000 0.000000
# 4 0.000000 0.000000 0.000000 0.031391 0.000000 0.000000
# 5 0.000000 0.000000 0.000000 0.000000 0.050685 0.000000
# 6 0.000000 0.000000 0.000000 0.000000 0.000000 0.041065
#
#
# Mechanical properties :
#
#
# Convention : Reuss Voigt Hill
#
# Bulk Modulus (GPa) = 39.36984 63.33599 51.35292
# Shear Modulus (GPa) = 24.82982 28.34288 26.58635
#
# Velocity S-wave (km/s) = 3.32796 3.55560 3.44366
# Velocity P-wave (km/s) = 5.68577 6.71621 6.22236
#
# Compressibility (1/GPa) = 0.02540015
#
# Stress axis : x y z
#
# Youngs Moduli (GPa) = 67.54305 103.39005 43.28267
#
# Poissons Ratio (x) = 0.65699 -0.02778
# Poissons Ratio (y) = 0.42920 0.23277
# Poissons Ratio (z) = -0.04335 0.55603
#
# Static dielectric constant tensor:
#      x y z
#    x 4.102490 0.000000 0.000000 
#    y 0.000000 3.978460 0.000000 
#    z 0.000000 0.000000 3.958010 
# 
# 
# High freq. dielectric constant tensor:
#      x y z
#    x 1.874390 0.000000 0.000000 
#    y 0.000000 1.884340 0.000000 
#    z 0.000000 0.000000 1.873540 
# 
# From -- ./inp_files/18886.got.cif
#   From: 2010.03.12/outbox.cif.g09.slc.cpg/sg72_10_cif.got.tgz:18886.got - 2010.04.16 14:54:00.
