data_PCOD8293638
_publ_section_title
;
Structure prediction by ZEFSAII (Michael W. Deem and Ramdas Pophale) SiO2 
 PCOD8293638
Probable space group: I B A M
;
_chemical_formula_sum "Si O2"
_cell_formula_units_Z 88
_cell_length_a 19.033243
_cell_length_b 8.868041
_cell_length_c 23.142975
_cell_angle_alpha 90.000000
_cell_angle_beta 90.000000
_cell_angle_gamma 90.000000
_cell_volume 3906.246728
_symmetry_space_group_name_H-M "I B A M"
_symmetry_group_IT_number 72
_symmetry_cell_setting 'orthorhombic'
loop_
_space_group_symop_operation_xyz
x,y,z
-x,-y,z
x,-y,1/2-z
-x,y,1/2-z
-x,-y,-z
x,y,-z
-x,y,1/2+z
x,-y,1/2+z
1/2+x,1/2+y,1/2+z
1/2-x,1/2-y,1/2+z
1/2+x,1/2-y,-z
1/2-x,1/2+y,-z
1/2-x,1/2-y,1/2-z
1/2+x,1/2+y,1/2-z
1/2-x,1/2+y,z
1/2+x,1/2-y,z
loop_
_atom_site_type_symbol
_atom_site_label
_atom_site_fract_x
_atom_site_fract_y
_atom_site_fract_z
Si Si1 0.764795 0.200143 0.342198
Si Si2 0.562731 0.610692 0.845809
Si Si3 0.342319 0.500000 0.750000
Si Si4 0.532735 0.146634 0.891145
Si Si5 0.657448 0.984845 0.316699
Si Si6 0.128532 0.103114 0.065732
O O1 0.797355 0.113076 0.288041
O O2 0.773643 0.377192 0.328296
O O3 0.801780 0.163680 0.403101
O O4 0.682543 0.146439 0.344586
O O5 0.500000 0.500000 0.829784
O O6 0.612352 0.611833 0.790189
O O7 0.532210 0.777580 0.856624
O O8 0.601898 0.548298 0.903193
O O9 0.590268 0.090114 0.845579
O O10 0.567833 0.267446 0.933971
O O11 0.500000 0.000000 0.923803
O O12 0.639461 0.000000 0.250000
O O13 0.147146 0.063470 0.000000
#
# Coordination Sequence:
#
# PCOD8293638 Si02
#       6
#    16  16   8  16  16  16
#     4  10  22  38  60  89 116 158 203 253 301 354
#     4   9  19  35  57  87 121 159 196 240 290 363
#     4  10  19  34  62  84 121 156 204 242 296 358
#     4  10  23  38  56  92 124 156 195 248 307 362
#     4  11  23  38  57  87 123 162 194 243 302 364
#     4   9  20  42  67  87 113 159 210 253 299 359
#
# _framework density 22.528020000000001
#
# number of rings (size 3 to 8) (size 9 to 14) (size 15 to 20)
#    0.000    2.182    0.909    1.909    2.545    5.455 
#    6.545    3.636    0.000    0.000    0.000    0.000 
#    0.000    0.000    0.000    0.000    0.000    0.000 
#
# Total GULP energy -545472.183731 kJ/mol
# GULP energy per Si atom -12397.095085 kJ/mol
# Density = 2.247675 g / cm^3
# Si number density = 22.528020 Si / 1000 Ang^3
#
#
#
# Elastic Constant Matrix: (Units=GPa)
#
#
# Indices 1 2 3 4 5 6 
#
# 1 42.7302 1.4779 24.6644 0.0000 0.0000 0.0000
# 2 1.4779 89.7231 18.6957 0.0000 0.0000 0.0000
# 3 24.6644 18.6957 129.6565 0.0000 0.0000 0.0000
# 4 0.0000 0.0000 0.0000 15.0533 0.0000 0.0000
# 5 0.0000 0.0000 0.0000 0.0000 7.8154 0.0000
# 6 0.0000 0.0000 0.0000 0.0000 0.0000 32.7408
#
#
#
# Elastic Compliance Matrix: (Units=1/GPa)
#
#
# Indices 1 2 3 4 5 6 
#
# 1 0.026324 0.000629 -0.005098 0.000000 0.000000 0.000000
# 2 0.000629 0.011506 -0.001779 0.000000 0.000000 0.000000
# 3 -0.005098 -0.001779 0.008939 0.000000 0.000000 0.000000
# 4 0.000000 0.000000 0.000000 0.066431 0.000000 0.000000
# 5 0.000000 0.000000 0.000000 0.000000 0.127952 0.000000
# 6 0.000000 0.000000 0.000000 0.000000 0.000000 0.030543
#
#
# Mechanical properties :
#
#
# Convention : Reuss Voigt Hill
#
# Bulk Modulus (GPa) = 29.17829 39.08733 34.13281
# Shear Modulus (GPa) = 16.91393 25.60668 21.26031
#
# Velocity S-wave (km/s) = 2.74304 3.37510 3.07535
# Velocity P-wave (km/s) = 4.79713 5.70759 5.27205
#
# Compressibility (1/GPa) = 0.03427206
#
# Stress axis : x y z
#
# Youngs Moduli (GPa) = 37.98864 86.91375 111.86967
#
# Poissons Ratio (x) = -0.05464 0.57033
# Poissons Ratio (y) = -0.02388 0.19898
# Poissons Ratio (z) = 0.19367 0.15459
#
# Static dielectric constant tensor:
#      x y z
#    x 4.316850 0.000000 0.000000 
#    y 0.000000 4.745400 0.000000 
#    z 0.000000 0.000000 3.591410 
# 
# 
# High freq. dielectric constant tensor:
#      x y z
#    x 1.896080 0.000000 0.000000 
#    y 0.000000 1.903560 0.000000 
#    z 0.000000 0.000000 1.850340 
# 
# From -- ./inp_files/45264.got.cif
#   From: 2010.03.12/outbox.cif.g09.slc.cpg/sg72_23_cif.got.tgz:45264.got - 2010.04.16 14:54:00.
