data_PCOD8293238
_publ_section_title
;
Structure prediction by ZEFSAII (Michael W. Deem and Ramdas Pophale) SiO2 
 PCOD8293238
Probable space group: I B A M
;
_chemical_formula_sum "Si O2"
_cell_formula_units_Z 112
_cell_length_a 29.055504
_cell_length_b 31.886900
_cell_length_c 9.541264
_cell_angle_alpha 90.000000
_cell_angle_beta 90.000000
_cell_angle_gamma 90.000000
_cell_volume 8839.885211
_symmetry_space_group_name_H-M "I B A M"
_symmetry_group_IT_number 72
_symmetry_cell_setting 'orthorhombic'
loop_
_space_group_symop_operation_xyz
x,y,z
-x,-y,z
x,-y,1/2-z
-x,y,1/2-z
-x,-y,-z
x,y,-z
-x,y,1/2+z
x,-y,1/2+z
1/2+x,1/2+y,1/2+z
1/2-x,1/2-y,1/2+z
1/2+x,1/2-y,-z
1/2-x,1/2+y,-z
1/2-x,1/2-y,1/2-z
1/2+x,1/2+y,1/2-z
1/2-x,1/2+y,z
1/2+x,1/2-y,z
loop_
_atom_site_type_symbol
_atom_site_label
_atom_site_fract_x
_atom_site_fract_y
_atom_site_fract_z
Si Si1 0.218285 0.306672 0.840964
Si Si2 0.182039 0.764940 0.159777
Si Si3 0.351985 0.664699 0.841416
Si Si4 0.202118 0.959806 0.341540
Si Si5 0.746924 0.624804 0.656174
Si Si6 0.563420 0.543927 0.000000
Si Si7 0.606698 0.420343 0.228452
Si Si8 0.959072 0.053871 0.500000
O O1 0.184576 0.278321 0.746504
O O2 0.268452 0.286483 0.845872
O O3 0.219755 0.352632 0.768165
O O4 0.199157 0.310925 0.000000
O O5 0.145560 0.794239 0.242807
O O6 0.164942 0.756717 0.000000
O O7 0.299525 0.651139 0.855187
O O8 0.381536 0.628884 0.763195
O O9 0.370791 0.673295 0.000000
O O10 0.213798 0.971838 0.500000
O O11 0.235271 0.922067 0.290300
O O12 0.149106 0.945811 0.336683
O O13 0.213069 0.000000 0.250000
O O14 0.769342 0.623814 0.500000
O O15 0.595127 0.558958 0.125345
O O16 0.513064 0.564371 0.000000
O O17 0.554934 0.494637 0.000000
O O18 0.561237 0.424576 0.136426
#
# Coordination Sequence:
#
# PCOD8293238 Si02
#       8
#    16  16  16  16  16   8  16   8
#     4   9  15  23  34  51  70  90 109 127 154 182
#     4   9  16  23  36  53  70  87 108 129 148 182
#     4   9  16  28  40  51  69  88 105 127 158 196
#     4  10  19  29  41  54  69  90 114 142 174 208
#     4   8  15  26  36  48  67  89 111 134 161 190
#     4  11  24  30  48  58  68  83 108 138 166 217
#     4  11  20  32  44  57  70  87 105 135 173 210
#     4  11  20  38  44  56  70  85 106 134 174 211
#
# _framework density 12.669848
#
# number of rings (size 3 to 8) (size 9 to 14) (size 15 to 20)
#    0.000    2.429    1.429    3.429    2.000    5.143 
#    2.571    0.000    0.000    0.000    0.000    0.000 
#    0.000    0.000    0.000    0.000    0.000    0.000 
#
# Total GULP energy -694079.649460 kJ/mol
# GULP energy per Si atom -12394.279455 kJ/mol
# Density = 1.264101 g / cm^3
# Si number density = 12.669848 Si / 1000 Ang^3
#
#
#
# Elastic Constant Matrix: (Units=GPa)
#
#
# Indices 1 2 3 4 5 6 
#
# 1 14.2016 23.2229 12.2145 0.0000 0.0000 0.0000
# 2 23.2229 81.5406 41.6444 0.0000 0.0000 0.0000
# 3 12.2145 41.6444 86.4209 0.0000 0.0000 0.0000
# 4 0.0000 0.0000 0.0000 30.5371 0.0000 0.0000
# 5 0.0000 0.0000 0.0000 0.0000 -2.8686 0.0000
# 6 0.0000 0.0000 0.0000 0.0000 0.0000 15.4426
#
#
#
# Elastic Compliance Matrix: (Units=1/GPa)
#
#
# Indices 1 2 3 4 5 6 
#
# 1 0.131826 -0.037178 -0.000716 0.000000 0.000000 0.000000
# 2 -0.037178 0.026752 -0.007637 0.000000 0.000000 0.000000
# 3 -0.000716 -0.007637 0.015353 0.000000 0.000000 0.000000
# 4 0.000000 0.000000 0.000000 0.032747 0.000000 0.000000
# 5 0.000000 0.000000 0.000000 0.000000 -0.348601 0.000000
# 6 0.000000 0.000000 0.000000 0.000000 0.000000 0.064756
#
#
# Mechanical properties :
#
#
# Convention : Reuss Voigt Hill
#
# Bulk Modulus (GPa) = 12.06742 37.36960 24.71851
# Shear Modulus (GPa) = 120.42867 15.62765 68.02816
#
# Velocity S-wave (km/s) = 9.76001 3.51586 7.33550
# Velocity P-wave (km/s) = 11.68570 6.78533 9.55500
#
# Compressibility (1/GPa) = 0.08286778
#
# Stress axis : x y z
#
# Youngs Moduli (GPa) = 7.58578 37.37973 65.13577
#
# Poissons Ratio (x) = 1.38971 0.04667
# Poissons Ratio (y) = 0.28203 0.49743
# Poissons Ratio (z) = 0.00543 0.28546
#
# Static dielectric constant tensor:
#      x y z
#    x 2.153600 0.000000 0.000000 
#    y 0.000000 2.625850 0.000000 
#    z 0.000000 0.000000 2.811720 
# 
# 
# High freq. dielectric constant tensor:
#      x y z
#    x 1.407710 0.000000 0.000000 
#    y 0.000000 1.473440 0.000000 
#    z 0.000000 0.000000 1.500950 
# 
# From -- ./inp_files/9533.got.cif
#   From: 2010.03.12/outbox.cif.g09.slc.cpg/sg72_5_cif.got.tgz:9533.got - 2010.04.16 14:54:00.
