data_PCOD8293861
_publ_section_title
;
Structure prediction by ZEFSAII (Michael W. Deem and Ramdas Pophale) SiO2 
 PCOD8293861
Probable space group: I B A M
;
_chemical_formula_sum "Si O2"
_cell_formula_units_Z 112
_cell_length_a 28.724847
_cell_length_b 11.191420
_cell_length_c 19.207825
_cell_angle_alpha 90.000000
_cell_angle_beta 90.000000
_cell_angle_gamma 90.000000
_cell_volume 6174.774600
_symmetry_space_group_name_H-M "I B A M"
_symmetry_group_IT_number 72
_symmetry_cell_setting 'orthorhombic'
loop_
_space_group_symop_operation_xyz
x,y,z
-x,-y,z
x,-y,1/2-z
-x,y,1/2-z
-x,-y,-z
x,y,-z
-x,y,1/2+z
x,-y,1/2+z
1/2+x,1/2+y,1/2+z
1/2-x,1/2-y,1/2+z
1/2+x,1/2-y,-z
1/2-x,1/2+y,-z
1/2-x,1/2-y,1/2-z
1/2+x,1/2+y,1/2-z
1/2-x,1/2+y,z
1/2+x,1/2-y,z
loop_
_atom_site_type_symbol
_atom_site_label
_atom_site_fract_x
_atom_site_fract_y
_atom_site_fract_z
Si Si1 0.602727 0.245238 0.834983
Si Si2 0.993931 0.366748 0.331893
Si Si3 0.712678 0.378301 0.580782
Si Si4 0.636348 0.504801 0.831268
Si Si5 0.413564 0.253816 0.826576
Si Si6 0.817617 0.382721 0.579060
Si Si7 0.154567 0.351331 0.423430
O O1 0.553849 0.190413 0.861682
O O2 0.609691 0.384343 0.854673
O O3 0.600678 0.228857 0.752486
O O4 0.645601 0.174259 0.868202
O O5 0.000000 0.500000 0.365447
O O6 0.000000 0.383074 0.250000
O O7 0.033321 0.268501 0.349443
O O8 0.710768 0.418014 0.500000
O O9 0.684147 0.477226 0.625337
O O10 0.765511 0.359600 0.606085
O O11 0.691739 0.249223 0.595327
O O12 0.649756 0.500000 0.750000
O O13 0.600314 0.611743 0.848052
O O14 0.386804 0.152068 0.868816
O O15 0.825728 0.334292 0.500000
O O16 0.820146 0.524077 0.580811
O O17 0.133582 0.328282 0.500000
#
# Coordination Sequence:
#
# PCOD8293861 Si02
#       7
#    16  16  16  16  16  16  16
#     4  10  20  33  52  79 106 136 174 222 262 309
#     4   9  17  30  52  78 105 136 178 216 260 315
#     4   9  19  35  54  72  98 142 177 210 261 317
#     4   9  19  35  51  77 110 135 176 220 261 309
#     4   9  18  35  54  74 105 140 173 213 261 315
#     4  10  21  34  51  76 104 132 172 219 263 312
#     4   9  18  34  52  72  98 132 175 212 255 313
#
# _framework density 18.138314999999999
#
# number of rings (size 3 to 8) (size 9 to 14) (size 15 to 20)
#    0.000    2.714    0.000    0.857    2.000    2.857 
#    2.571    5.714    0.000    2.571    0.000    5.000 
#    0.000    0.000    0.000    0.000    0.000    0.000 
#
# Total GULP energy -693984.167182 kJ/mol
# GULP energy per Si atom -12392.574414 kJ/mol
# Density = 1.809703 g / cm^3
# Si number density = 18.138315 Si / 1000 Ang^3
#
#
#
# Elastic Constant Matrix: (Units=GPa)
#
#
# Indices 1 2 3 4 5 6 
#
# 1 161.1186 64.0465 48.2033 0.0000 0.0000 0.0000
# 2 64.0465 90.9576 32.4625 0.0000 0.0000 0.0000
# 3 48.2033 32.4625 40.1562 0.0000 0.0000 0.0000
# 4 0.0000 0.0000 0.0000 22.1464 0.0000 0.0000
# 5 0.0000 0.0000 0.0000 0.0000 17.4586 0.0000
# 6 0.0000 0.0000 0.0000 0.0000 0.0000 23.4169
#
#
#
# Elastic Compliance Matrix: (Units=1/GPa)
#
#
# Indices 1 2 3 4 5 6 
#
# 1 0.010691 -0.004143 -0.009484 0.000000 0.000000 0.000000
# 2 -0.004143 0.017058 -0.008816 0.000000 0.000000 0.000000
# 3 -0.009484 -0.008816 0.043415 0.000000 0.000000 0.000000
# 4 0.000000 0.000000 0.000000 0.045154 0.000000 0.000000
# 5 0.000000 0.000000 0.000000 0.000000 0.057278 0.000000
# 6 0.000000 0.000000 0.000000 0.000000 0.000000 0.042704
#
#
# Mechanical properties :
#
#
# Convention : Reuss Voigt Hill
#
# Bulk Modulus (GPa) = 38.05694 64.62854 51.34274
# Shear Modulus (GPa) = 18.52220 22.43906 20.48063
#
# Velocity S-wave (km/s) = 3.19903 3.52107 3.36391
# Velocity P-wave (km/s) = 5.88831 7.22765 6.59208
#
# Compressibility (1/GPa) = 0.02627641
#
# Stress axis : x y z
#
# Youngs Moduli (GPa) = 93.53696 58.62370 23.03363
#
# Poissons Ratio (x) = 0.24288 0.21845
# Poissons Ratio (y) = 0.38753 0.20308
# Poissons Ratio (z) = 0.88712 0.51685
#
# Static dielectric constant tensor:
#      x y z
#    x 3.526160 0.000000 0.000000 
#    y 0.000000 3.476100 0.000000 
#    z 0.000000 0.000000 3.310350 
# 
# 
# High freq. dielectric constant tensor:
#      x y z
#    x 1.703850 0.000000 0.000000 
#    y 0.000000 1.711130 0.000000 
#    z 0.000000 0.000000 1.681090 
# 
# From -- ./inp_files/40864.got.cif
#   From: 2010.03.12/outbox.cif.g09.slc.cpg/sg72_21_cif.got.tgz:40864.got - 2010.04.16 14:54:00.
