data_PCOD8293875
_publ_section_title
;
Structure prediction by ZEFSAII (Michael W. Deem and Ramdas Pophale) SiO2 
 PCOD8293875
Probable space group: I B A M
;
_chemical_formula_sum "Si O2"
_cell_formula_units_Z 96
_cell_length_a 12.133766
_cell_length_b 23.753962
_cell_length_c 17.476731
_cell_angle_alpha 90.000000
_cell_angle_beta 90.000000
_cell_angle_gamma 90.000000
_cell_volume 5037.231081
_symmetry_space_group_name_H-M "I B A M"
_symmetry_group_IT_number 72
_symmetry_cell_setting 'orthorhombic'
loop_
_space_group_symop_operation_xyz
x,y,z
-x,-y,z
x,-y,1/2-z
-x,y,1/2-z
-x,-y,-z
x,y,-z
-x,y,1/2+z
x,-y,1/2+z
1/2+x,1/2+y,1/2+z
1/2-x,1/2-y,1/2+z
1/2+x,1/2-y,-z
1/2-x,1/2+y,-z
1/2-x,1/2-y,1/2-z
1/2+x,1/2+y,1/2-z
1/2-x,1/2+y,z
1/2+x,1/2-y,z
loop_
_atom_site_type_symbol
_atom_site_label
_atom_site_fract_x
_atom_site_fract_y
_atom_site_fract_z
Si Si1 0.992528 0.882844 0.659976
Si Si2 0.146040 0.214451 0.410131
Si Si3 0.652059 0.141186 0.089542
Si Si4 0.690587 0.544259 0.090867
Si Si5 0.589297 0.161379 0.408998
Si Si6 0.283965 0.416858 0.409440
O O1 0.939265 0.823994 0.635574
O O2 0.923942 0.935952 0.627978
O O3 0.000000 0.887453 0.750000
O O4 0.114587 0.883871 0.626406
O O5 0.120006 0.207736 0.500000
O O6 0.271124 0.195055 0.392181
O O7 0.132659 0.278037 0.380770
O O8 0.710665 0.084510 0.120535
O O9 0.531620 0.149473 0.127234
O O10 0.634825 0.134306 0.000000
O O11 0.718627 0.481469 0.118129
O O12 0.676145 0.548823 0.000000
O O13 0.583633 0.161542 0.500000
O O14 0.672389 0.113098 0.380020
O O15 0.294181 0.412952 0.500000
#
# Coordination Sequence:
#
# PCOD8293875 Si02
#       6
#    16  16  16  16  16  16
#     4  11  22  35  53  79 105 144 180 220 266 313
#     4   9  18  33  55  78 106 142 177 219 265 312
#     4   8  15  29  49  76 106 135 170 210 263 316
#     4   9  18  34  55  77 106 140 173 221 272 317
#     4   9  18  30  52  83 107 136 175 218 264 315
#     4  10  20  33  53  82 108 133 175 223 269 319
#
# _framework density 19.05809
#
# number of rings (size 3 to 8) (size 9 to 14) (size 15 to 20)
#    0.000    2.667    0.000    3.000    2.333    3.333 
#    0.000    4.167    0.000    0.000    0.000    4.667 
#    0.000    0.000    0.000    0.000    0.000    0.000 
#
# Total GULP energy -595152.346909 kJ/mol
# GULP energy per Si atom -12399.007227 kJ/mol
# Density = 1.901471 g / cm^3
# Si number density = 19.058090 Si / 1000 Ang^3
#
#
#
# Elastic Constant Matrix: (Units=GPa)
#
#
# Indices 1 2 3 4 5 6 
#
# 1 158.7315 54.3960 23.5536 0.0000 0.0000 0.0000
# 2 54.3960 109.1888 23.8039 -0.0001 0.0000 0.0000
# 3 23.5536 23.8039 29.1253 -0.0001 0.0000 0.0000
# 4 0.0000 -0.0001 -0.0001 8.0656 0.0000 0.0000
# 5 0.0000 0.0000 0.0000 0.0000 1.1687 0.0000
# 6 0.0000 0.0000 0.0000 0.0000 0.0000 27.2392
#
#
#
# Elastic Compliance Matrix: (Units=1/GPa)
#
#
# Indices 1 2 3 4 5 6 
#
# 1 0.007942 -0.003110 -0.003880 0.000000 0.000000 0.000000
# 2 -0.003110 0.012362 -0.007588 0.000000 0.000000 0.000000
# 3 -0.003880 -0.007588 0.043674 0.000000 0.000000 0.000000
# 4 0.000000 0.000000 0.000000 0.123984 0.000000 0.000000
# 5 0.000000 0.000000 0.000000 0.000000 0.855624 0.000000
# 6 0.000000 0.000000 0.000000 0.000000 0.000000 0.036712
#
#
# Mechanical properties :
#
#
# Convention : Reuss Voigt Hill
#
# Bulk Modulus (GPa) = 28.71888 55.61693 42.16791
# Shear Modulus (GPa) = 4.46006 20.31418 12.38712
#
# Velocity S-wave (km/s) = 1.53144 3.26837 2.55221
# Velocity P-wave (km/s) = 4.26954 6.59463 5.55509
#
# Compressibility (1/GPa) = 0.03482030
#
# Stress axis : x y z
#
# Youngs Moduli (GPa) = 125.91835 80.89101 22.89685
#
# Poissons Ratio (x) = 0.25161 0.08885
# Poissons Ratio (y) = 0.39167 0.17375
# Poissons Ratio (z) = 0.48859 0.61382
#
# Static dielectric constant tensor:
#      x y z
#    x 3.496870 0.000000 0.000000 
#    y 0.000000 3.676830 0.000000 
#    z 0.000000 0.000000 2.993670 
# 
# 
# High freq. dielectric constant tensor:
#      x y z
#    x 1.750220 0.000000 0.000000 
#    y 0.000000 1.748580 0.000000 
#    z 0.000000 0.000000 1.689490 
# 
# From -- ./inp_files/29424.got.cif
#   From: 2010.03.12/outbox.cif.g09.slc.cpg/sg72_15_cif.got.tgz:29424.got - 2010.04.16 14:54:00.
