data_PCOD8293223
_publ_section_title
;
Structure prediction by ZEFSAII (Michael W. Deem and Ramdas Pophale) SiO2 
 PCOD8293223
Probable space group: I B A M
;
_chemical_formula_sum "Si O2"
_cell_formula_units_Z 96
_cell_length_a 27.418802
_cell_length_b 31.555770
_cell_length_c 8.833596
_cell_angle_alpha 90.000000
_cell_angle_beta 90.000000
_cell_angle_gamma 90.000000
_cell_volume 7643.016383
_symmetry_space_group_name_H-M "I B A M"
_symmetry_group_IT_number 72
_symmetry_cell_setting 'orthorhombic'
loop_
_space_group_symop_operation_xyz
x,y,z
-x,-y,z
x,-y,1/2-z
-x,y,1/2-z
-x,-y,-z
x,y,-z
-x,y,1/2+z
x,-y,1/2+z
1/2+x,1/2+y,1/2+z
1/2-x,1/2-y,1/2+z
1/2+x,1/2-y,-z
1/2-x,1/2+y,-z
1/2-x,1/2-y,1/2-z
1/2+x,1/2+y,1/2-z
1/2-x,1/2+y,z
1/2+x,1/2-y,z
loop_
_atom_site_type_symbol
_atom_site_label
_atom_site_fract_x
_atom_site_fract_y
_atom_site_fract_z
Si Si1 0.610222 0.381442 0.321213
Si Si2 0.225918 0.290770 0.821959
Si Si3 0.366618 0.746306 0.831674
Si Si4 0.304083 0.338649 0.671233
Si Si5 0.948134 0.201998 0.824232
Si Si6 0.448803 0.454735 0.680666
O O1 0.608446 0.389737 0.500000
O O2 0.665674 0.372599 0.269795
O O3 0.575566 0.342388 0.272391
O O4 0.592879 0.422277 0.229308
O O5 0.250000 0.250000 0.750000
O O6 0.167274 0.287262 0.791080
O O7 0.250170 0.332350 0.745025
O O8 0.236954 0.291365 0.000000
O O9 0.331898 0.705688 0.823472
O O10 0.412287 0.740872 0.719682
O O11 0.388216 0.751184 0.000000
O O12 0.298269 0.355335 0.500000
O O13 0.000000 0.208507 0.750000
O O14 0.956491 0.202893 0.000000
O O15 0.434779 0.500000 0.750000
O O16 0.500000 0.438868 0.750000
O O17 0.452950 0.457684 0.500000
#
# Coordination Sequence:
#
# PCOD8293223 Si02
#       6
#    16  16  16  16  16  16
#     4  10  19  30  42  56  71  88 110 138 172 210
#     4   9  15  23  35  50  67  87 108 133 162 196
#     4   8  15  25  35  47  65  86 109 134 162 195
#     4   9  16  25  37  53  70  88 107 131 163 201
#     4  10  19  27  37  50  66  87 111 139 171 205
#     4  11  21  33  46  58  71  88 111 139 172 211
#
# _framework density 12.560485
#
# number of rings (size 3 to 8) (size 9 to 14) (size 15 to 20)
#    0.000    2.500    0.000    5.500    0.000    8.000 
#    0.000    0.000    0.000    0.000    0.000    0.000 
#    0.000    0.000    0.000    0.000    0.000    0.000 
#
# Total GULP energy -594908.788002 kJ/mol
# GULP energy per Si atom -12393.933083 kJ/mol
# Density = 1.253190 g / cm^3
# Si number density = 12.560485 Si / 1000 Ang^3
#
#
#
# Elastic Constant Matrix: (Units=GPa)
#
#
# Indices 1 2 3 4 5 6 
#
# 1 66.8543 37.7916 36.3664 0.0000 0.0000 0.0000
# 2 37.7916 38.6977 24.8719 0.0000 0.0000 0.0000
# 3 36.3664 24.8719 76.0441 0.0000 0.0000 0.0000
# 4 0.0000 0.0000 0.0000 15.9224 0.0000 0.0000
# 5 0.0000 0.0000 0.0000 0.0000 22.9945 0.0000
# 6 0.0000 0.0000 0.0000 0.0000 0.0000 18.3892
#
#
#
# Elastic Compliance Matrix: (Units=1/GPa)
#
#
# Indices 1 2 3 4 5 6 
#
# 1 0.036338 -0.030791 -0.007307 0.000000 0.000000 0.000000
# 2 -0.030791 0.058810 -0.004510 0.000000 0.000000 0.000000
# 3 -0.007307 -0.004510 0.018120 0.000000 0.000000 0.000000
# 4 0.000000 0.000000 0.000000 0.062805 0.000000 0.000000
# 5 0.000000 0.000000 0.000000 0.000000 0.043489 0.000000
# 6 0.000000 0.000000 0.000000 0.000000 0.000000 0.054380
#
#
# Mechanical properties :
#
#
# Convention : Reuss Voigt Hill
#
# Bulk Modulus (GPa) = 35.64815 42.18400 38.91607
# Shear Modulus (GPa) = 13.56819 16.96562 15.26690
#
# Velocity S-wave (km/s) = 3.29025 3.67919 3.49014
# Velocity P-wave (km/s) = 6.54806 7.19070 6.87689
#
# Compressibility (1/GPa) = 0.02805195
#
# Stress axis : x y z
#
# Youngs Moduli (GPa) = 27.51905 17.00384 55.18815
#
# Poissons Ratio (x) = 0.52357 0.40327
# Poissons Ratio (y) = 0.84734 0.24890
# Poissons Ratio (z) = 0.20109 0.07669
#
# Static dielectric constant tensor:
#      x y z
#    x 2.746090 0.000000 0.000000 
#    y 0.000000 2.314130 0.000000 
#    z 0.000000 0.000000 2.746510 
# 
# 
# High freq. dielectric constant tensor:
#      x y z
#    x 1.464340 0.000000 0.000000 
#    y 0.000000 1.421240 0.000000 
#    z 0.000000 0.000000 1.497470 
# 
# From -- ./inp_files/8278.got.cif
#   From: 2010.03.12/outbox.cif.g09.slc.cpg/sg72_5_cif.got.tgz:8278.got - 2010.04.16 14:54:00.
