data_PCOD8293659
_publ_section_title
;
Structure prediction by ZEFSAII (Michael W. Deem and Ramdas Pophale) SiO2 
 PCOD8293659
Probable space group: I B A M
;
_chemical_formula_sum "Si O2"
_cell_formula_units_Z 116
_cell_length_a 25.130691
_cell_length_b 25.201075
_cell_length_c 10.002039
_cell_angle_alpha 90.000000
_cell_angle_beta 90.000000
_cell_angle_gamma 90.000000
_cell_volume 6334.495627
_symmetry_space_group_name_H-M "I B A M"
_symmetry_group_IT_number 72
_symmetry_cell_setting 'orthorhombic'
loop_
_space_group_symop_operation_xyz
x,y,z
-x,-y,z
x,-y,1/2-z
-x,y,1/2-z
-x,-y,-z
x,y,-z
-x,y,1/2+z
x,-y,1/2+z
1/2+x,1/2+y,1/2+z
1/2-x,1/2-y,1/2+z
1/2+x,1/2-y,-z
1/2-x,1/2+y,-z
1/2-x,1/2-y,1/2-z
1/2+x,1/2+y,1/2-z
1/2-x,1/2+y,z
1/2+x,1/2-y,z
loop_
_atom_site_type_symbol
_atom_site_label
_atom_site_fract_x
_atom_site_fract_y
_atom_site_fract_z
Si Si1 0.928876 0.543179 0.850617
Si Si2 0.848180 0.837702 0.845480
Si Si3 0.749800 0.346591 0.652407
Si Si4 0.044989 0.338282 0.153596
Si Si5 0.150467 0.715340 0.654568
Si Si6 0.043974 0.103318 0.848501
Si Si7 0.306830 0.957734 0.851816
Si Si8 0.000000 0.000000 0.250000
O O1 0.953910 0.500000 0.750000
O O2 0.959403 0.598407 0.838039
O O3 0.867644 0.554027 0.813462
O O4 0.934737 0.519999 0.000000
O O5 0.800404 0.851510 0.748097
O O6 0.862591 0.776546 0.819510
O O7 0.897848 0.875472 0.807274
O O8 0.831479 0.846613 0.000000
O O9 0.732302 0.332018 0.500000
O O10 0.792189 0.303535 0.713037
O O11 0.776112 0.403443 0.656857
O O12 0.101251 0.318117 0.213078
O O13 0.000000 0.313672 0.250000
O O14 0.036713 0.318841 0.000000
O O15 0.154614 0.700313 0.500000
O O16 0.000000 0.129850 0.750000
O O17 0.031461 0.120815 0.000000
O O18 0.038943 0.038714 0.836813
O O19 0.281296 0.000000 0.750000
O O20 0.302323 0.982200 0.000000
#
# Coordination Sequence:
#
# PCOD8293659 Si02
#       8
#    16  16  16  16  16  16  16   4
#     4   9  17  31  51  71  97 132 171 213 260 313
#     4  10  21  36  55  84 112 139 177 225 270 319
#     4  10  19  35  57  80 105 143 184 221 268 328
#     4  10  20  35  53  75 102 138 178 221 269 322
#     4   9  18  36  58  74 104 147 182 219 274 326
#     4   9  19  35  57  82 110 142 178 214 263 319
#     4   9  17  31  51  74 101 136 177 213 257 312
#     4   8  18  36  62  80 110 148 182 212 262 324
#
# _framework density 18.312429999999999
#
# number of rings (size 3 to 8) (size 9 to 14) (size 15 to 20)
#    0.414    2.207    1.379    0.621    0.000    2.483 
#    1.241    2.759    0.000    0.000    0.000    0.000 
#    0.000    0.000    0.000    0.000    0.000    0.000 
#
# Total GULP energy -718822.427255 kJ/mol
# GULP energy per Si atom -12393.490125 kJ/mol
# Density = 1.827075 g / cm^3
# Si number density = 18.312430 Si / 1000 Ang^3
#
#
#
# Elastic Constant Matrix: (Units=GPa)
#
#
# Indices 1 2 3 4 5 6 
#
# 1 124.2607 37.4800 61.3442 0.0000 0.0000 0.0000
# 2 37.4800 71.7277 28.9870 0.0000 0.0000 0.0000
# 3 61.3442 28.9870 87.3285 0.0000 0.0000 0.0000
# 4 0.0000 0.0000 0.0000 20.1930 0.0000 0.0000
# 5 0.0000 0.0000 0.0000 0.0000 30.5389 0.0000
# 6 0.0000 0.0000 0.0000 0.0000 0.0000 20.4393
#
#
#
# Elastic Compliance Matrix: (Units=1/GPa)
#
#
# Indices 1 2 3 4 5 6 
#
# 1 0.013080 -0.003605 -0.007992 0.000000 0.000000 0.000000
# 2 -0.003605 0.017095 -0.003142 0.000000 0.000000 0.000000
# 3 -0.007992 -0.003142 0.018108 0.000000 0.000000 0.000000
# 4 0.000000 0.000000 0.000000 0.049522 0.000000 0.000000
# 5 0.000000 0.000000 0.000000 0.000000 0.032745 0.000000
# 6 0.000000 0.000000 0.000000 0.000000 0.000000 0.048925
#
#
# Mechanical properties :
#
#
# Convention : Reuss Voigt Hill
#
# Bulk Modulus (GPa) = 53.17561 59.88216 56.52889
# Shear Modulus (GPa) = 23.23186 24.60129 23.91657
#
# Velocity S-wave (km/s) = 3.56566 3.66925 3.61782
# Velocity P-wave (km/s) = 6.78623 7.12197 6.95613
#
# Compressibility (1/GPa) = 0.01880561
#
# Stress axis : x y z
#
# Youngs Moduli (GPa) = 76.45112 58.49597 55.22540
#
# Poissons Ratio (x) = 0.21089 0.44134
# Poissons Ratio (y) = 0.27563 0.17351
# Poissons Ratio (z) = 0.61096 0.18379
#
# Static dielectric constant tensor:
#      x y z
#    x 3.320360 0.000000 0.000000 
#    y 0.000000 3.303780 0.000000 
#    z 0.000000 0.000000 3.410410 
# 
# 
# High freq. dielectric constant tensor:
#      x y z
#    x 1.703930 0.000000 0.000000 
#    y 0.000000 1.703250 0.000000 
#    z 0.000000 0.000000 1.697260 
# 
# From -- ./inp_files/7316.got.cif
#   From: 2010.03.12/outbox.cif.g09.slc.cpg/sg72_4_cif.got.tgz:7316.got - 2010.04.16 14:54:00.
