data_PCOD8293351
_publ_section_title
;
Structure prediction by ZEFSAII (Michael W. Deem and Ramdas Pophale) SiO2 
 PCOD8293351
Probable space group: I B A M
;
_chemical_formula_sum "Si O2"
_cell_formula_units_Z 96
_cell_length_a 17.951225
_cell_length_b 19.093707
_cell_length_c 15.857818
_cell_angle_alpha 90.000000
_cell_angle_beta 90.000000
_cell_angle_gamma 90.000000
_cell_volume 5435.353234
_symmetry_space_group_name_H-M "I B A M"
_symmetry_group_IT_number 72
_symmetry_cell_setting 'orthorhombic'
loop_
_space_group_symop_operation_xyz
x,y,z
-x,-y,z
x,-y,1/2-z
-x,y,1/2-z
-x,-y,-z
x,y,-z
-x,y,1/2+z
x,-y,1/2+z
1/2+x,1/2+y,1/2+z
1/2-x,1/2-y,1/2+z
1/2+x,1/2-y,-z
1/2-x,1/2+y,-z
1/2-x,1/2-y,1/2-z
1/2+x,1/2+y,1/2-z
1/2-x,1/2+y,z
1/2+x,1/2-y,z
loop_
_atom_site_type_symbol
_atom_site_label
_atom_site_fract_x
_atom_site_fract_y
_atom_site_fract_z
Si Si1 0.375744 0.497393 0.500000
Si Si2 0.935433 0.672514 0.819254
Si Si3 0.451441 0.329626 0.333347
Si Si4 0.162572 0.578061 0.217451
Si Si5 0.173220 0.053251 0.825507
Si Si6 0.990953 0.887710 0.500000
Si Si7 0.967214 0.428902 0.904629
O O1 0.326388 0.487440 0.415419
O O2 0.410265 0.575346 0.500000
O O3 0.443100 0.443339 0.500000
O O4 0.915891 0.752422 0.841185
O O5 0.859458 0.634123 0.789785
O O6 0.000000 0.666749 0.750000
O O7 0.969936 0.631700 0.899219
O O8 0.500000 0.337314 0.250000
O O9 0.386179 0.385332 0.327844
O O10 0.502996 0.341180 0.415555
O O11 0.150992 0.500000 0.250000
O O12 0.247429 0.589614 0.189598
O O13 0.109588 0.593139 0.138717
O O14 0.152874 0.000000 0.750000
O O15 0.000000 0.500000 0.862722
O O16 0.945852 0.443499 0.000000
#
# Coordination Sequence:
#
# PCOD8293351 Si02
#       7
#     8  16  16  16  16   8  16
#     4   9  18  34  52  80 105 138 194 226 274 329
#     4   9  19  33  52  77 104 138 179 224 272 334
#     4  10  20  35  54  80 110 145 188 230 282 332
#     4  10  19  34  52  76 108 140 177 225 277 328
#     4  10  21  34  55  81 109 149 185 231 280 334
#     4   9  18  32  56  76 105 144 180 242 272 317
#     4  10  19  31  54  79  99 134 174 221 271 324
#
# _framework density 17.662146
#
# number of rings (size 3 to 8) (size 9 to 14) (size 15 to 20)
#    0.000    2.333    1.667    1.000    2.333    2.333 
#    0.000    0.000    0.000    0.000    0.000    0.000 
#    0.000    0.000    0.000    0.000    0.000    0.000 
#
# Total GULP energy -595080.888757 kJ/mol
# GULP energy per Si atom -12397.518516 kJ/mol
# Density = 1.762195 g / cm^3
# Si number density = 17.662146 Si / 1000 Ang^3
#
#
#
# Elastic Constant Matrix: (Units=GPa)
#
#
# Indices 1 2 3 4 5 6 
#
# 1 94.2235 47.5822 38.0014 0.0000 0.0000 0.0000
# 2 47.5822 119.9674 43.6298 0.0000 0.0000 0.0000
# 3 38.0014 43.6298 108.7419 0.0000 0.0000 0.0000
# 4 0.0000 0.0000 0.0000 21.1531 0.0000 0.0000
# 5 0.0000 0.0000 0.0000 0.0000 24.2064 0.0000
# 6 0.0000 0.0000 0.0000 0.0000 0.0000 12.9522
#
#
#
# Elastic Compliance Matrix: (Units=1/GPa)
#
#
# Indices 1 2 3 4 5 6 
#
# 1 0.014136 -0.004461 -0.003150 0.000000 0.000000 0.000000
# 2 -0.004461 0.011168 -0.002922 0.000000 0.000000 0.000000
# 3 -0.003150 -0.002922 0.011469 0.000000 0.000000 0.000000
# 4 0.000000 0.000000 0.000000 0.047274 0.000000 0.000000
# 5 0.000000 0.000000 0.000000 0.000000 0.041311 0.000000
# 6 0.000000 0.000000 0.000000 0.000000 0.000000 0.077207
#
#
# Mechanical properties :
#
#
# Convention : Reuss Voigt Hill
#
# Bulk Modulus (GPa) = 63.66575 64.59553 64.13064
# Shear Modulus (GPa) = 21.84665 24.57696 23.21181
#
# Velocity S-wave (km/s) = 3.52080 3.73433 3.62914
# Velocity P-wave (km/s) = 7.25622 7.43276 7.34502
#
# Compressibility (1/GPa) = 0.01570703
#
# Stress axis : x y z
#
# Youngs Moduli (GPa) = 70.73898 89.54494 87.18982
#
# Poissons Ratio (x) = 0.39948 0.27467
# Poissons Ratio (y) = 0.31558 0.25474
# Poissons Ratio (z) = 0.22285 0.26162
#
# Static dielectric constant tensor:
#      x y z
#    x 3.178240 0.000000 0.000000 
#    y 0.000000 3.373980 0.000000 
#    z 0.000000 0.000000 3.373450 
# 
# 
# High freq. dielectric constant tensor:
#      x y z
#    x 1.665470 0.000000 0.000000 
#    y 0.000000 1.680940 0.000000 
#    z 0.000000 0.000000 1.688390 
# 
# From -- ./inp_files/31659.got.cif
#   From: 2010.03.12/outbox.cif.g09.slc.cpg/sg72_16_cif.got.tgz:31659.got - 2010.04.16 14:54:00.
