data_PCOD8293128
_publ_section_title
;
Structure prediction by ZEFSAII (Michael W. Deem and Ramdas Pophale) SiO2 
 PCOD8293128
Probable space group: I B A M
;
_chemical_formula_sum "Si O2"
_cell_formula_units_Z 104
_cell_length_a 27.466278
_cell_length_b 20.241231
_cell_length_c 9.372189
_cell_angle_alpha 90.000000
_cell_angle_beta 90.000000
_cell_angle_gamma 90.000000
_cell_volume 5210.480449
_symmetry_space_group_name_H-M "I B A M"
_symmetry_group_IT_number 72
_symmetry_cell_setting 'orthorhombic'
loop_
_space_group_symop_operation_xyz
x,y,z
-x,-y,z
x,-y,1/2-z
-x,y,1/2-z
-x,-y,-z
x,y,-z
-x,y,1/2+z
x,-y,1/2+z
1/2+x,1/2+y,1/2+z
1/2-x,1/2-y,1/2+z
1/2+x,1/2-y,-z
1/2-x,1/2+y,-z
1/2-x,1/2-y,1/2-z
1/2+x,1/2+y,1/2-z
1/2-x,1/2+y,z
1/2+x,1/2-y,z
loop_
_atom_site_type_symbol
_atom_site_label
_atom_site_fract_x
_atom_site_fract_y
_atom_site_fract_z
Si Si1 0.660911 0.500000 0.250000
Si Si2 0.453709 0.710049 0.162320
Si Si3 0.863332 0.692377 0.165332
Si Si4 0.599844 0.383234 0.348525
Si Si5 0.308284 0.708380 0.341139
Si Si6 0.738407 0.398221 0.842787
Si Si7 0.847316 0.435517 0.832261
O O1 0.624258 0.454979 0.339988
O O2 0.695494 0.452819 0.156514
O O3 0.500000 0.736303 0.250000
O O4 0.411825 0.764355 0.176429
O O5 0.436750 0.638042 0.222505
O O6 0.468968 0.698825 0.000000
O O7 0.816883 0.728194 0.239879
O O8 0.873143 0.625872 0.254147
O O9 0.850414 0.677630 0.000000
O O10 0.571524 0.381091 0.500000
O O11 0.641329 0.328805 0.351901
O O12 0.290852 0.729997 0.500000
O O13 0.268460 0.660168 0.271103
O O14 0.789281 0.433146 0.810344
O O15 0.738167 0.366067 0.000000
O O16 0.866872 0.500000 0.750000
O O17 0.861465 0.437229 0.000000
#
# Coordination Sequence:
#
# PCOD8293128 Si02
#       7
#     8  16  16  16  16  16  16
#     4  10  18  32  53  78 110 154 201 238 270 318
#     4  10  21  38  62  87 111 138 175 225 282 343
#     4  10  21  38  59  83 111 143 179 225 280 336
#     4   9  18  31  51  79 111 146 185 230 278 326
#     4   9  18  32  52  78 107 143 187 233 279 325
#     4  10  20  33  51  76 108 149 196 238 275 318
#     4  11  23  38  56  80 112 150 189 230 275 328
#
# _framework density 19.959772000000001
#
# number of rings (size 3 to 8) (size 9 to 14) (size 15 to 20)
#    0.000    2.154    0.769    2.308    0.000    8.615 
#    0.000    0.385    0.000    2.308    0.000    3.231 
#    0.000    0.000    0.000    0.000    0.000    0.000 
#
# Total GULP energy -644526.326753 kJ/mol
# GULP energy per Si atom -12394.737053 kJ/mol
# Density = 1.991434 g / cm^3
# Si number density = 19.959772 Si / 1000 Ang^3
#
#
#
# Elastic Constant Matrix: (Units=GPa)
#
#
# Indices 1 2 3 4 5 6 
#
# 1 40.5053 21.9172 42.1308 0.0000 0.0000 0.0000
# 2 21.9172 90.5740 43.4705 0.0000 0.0000 0.0000
# 3 42.1308 43.4705 171.3806 0.0000 0.0000 0.0000
# 4 0.0000 0.0000 0.0000 24.8636 0.0000 0.0000
# 5 0.0000 0.0000 0.0000 0.0000 28.1597 0.0000
# 6 0.0000 0.0000 0.0000 0.0000 0.0000 17.2888
#
#
#
# Elastic Compliance Matrix: (Units=1/GPa)
#
#
# Indices 1 2 3 4 5 6 
#
# 1 0.035011 -0.004943 -0.007353 0.000000 0.000000 0.000000
# 2 -0.004943 0.013269 -0.002151 0.000000 0.000000 0.000000
# 3 -0.007353 -0.002151 0.008188 0.000000 0.000000 0.000000
# 4 0.000000 0.000000 0.000000 0.040219 0.000000 0.000000
# 5 0.000000 0.000000 0.000000 0.000000 0.035512 0.000000
# 6 0.000000 0.000000 0.000000 0.000000 0.000000 0.057841
#
#
# Mechanical properties :
#
#
# Convention : Reuss Voigt Hill
#
# Bulk Modulus (GPa) = 36.26488 57.49967 46.88227
# Shear Modulus (GPa) = 21.91785 27.05851 24.48818
#
# Velocity S-wave (km/s) = 3.31736 3.68591 3.50648
# Velocity P-wave (km/s) = 5.73425 6.85455 6.31928
#
# Compressibility (1/GPa) = 0.02757489
#
# Stress axis : x y z
#
# Youngs Moduli (GPa) = 28.56254 75.36408 122.12917
#
# Poissons Ratio (x) = 0.37252 0.89802
# Poissons Ratio (y) = 0.14118 0.26264
# Poissons Ratio (z) = 0.21002 0.16207
#
# Static dielectric constant tensor:
#      x y z
#    x 3.300830 0.000000 0.000000 
#    y 0.000000 3.646940 0.000000 
#    z 0.000000 0.000000 4.200080 
# 
# 
# High freq. dielectric constant tensor:
#      x y z
#    x 1.745460 0.000000 0.000000 
#    y 0.000000 1.774180 0.000000 
#    z 0.000000 0.000000 1.795040 
# 
# From -- ./inp_files/6144.got.cif
#   From: 2010.03.12/outbox.cif.g09.slc.cpg/sg72_4_cif.got.tgz:6144.got - 2010.04.16 14:54:00.
