data_PCOD8293454
_publ_section_title
;
Structure prediction by ZEFSAII (Michael W. Deem and Ramdas Pophale) SiO2 
 PCOD8293454
Probable space group: I B A M
;
_chemical_formula_sum "Si O2"
_cell_formula_units_Z 80
_cell_length_a 17.298767
_cell_length_b 15.391167
_cell_length_c 14.702283
_cell_angle_alpha 90.000000
_cell_angle_beta 90.000000
_cell_angle_gamma 90.000000
_cell_volume 3914.456558
_symmetry_space_group_name_H-M "I B A M"
_symmetry_group_IT_number 72
_symmetry_cell_setting 'orthorhombic'
loop_
_space_group_symop_operation_xyz
x,y,z
-x,-y,z
x,-y,1/2-z
-x,y,1/2-z
-x,-y,-z
x,y,-z
-x,y,1/2+z
x,-y,1/2+z
1/2+x,1/2+y,1/2+z
1/2-x,1/2-y,1/2+z
1/2+x,1/2-y,-z
1/2-x,1/2+y,-z
1/2-x,1/2-y,1/2-z
1/2+x,1/2+y,1/2-z
1/2-x,1/2+y,z
1/2+x,1/2-y,z
loop_
_atom_site_type_symbol
_atom_site_label
_atom_site_fract_x
_atom_site_fract_y
_atom_site_fract_z
Si Si1 0.892249 0.272441 0.897466
Si Si2 0.296801 0.402452 0.099965
Si Si3 0.187900 0.677376 0.729182
Si Si4 0.079638 0.031880 0.852047
Si Si5 0.431866 0.729364 0.106109
O O1 0.854310 0.178322 0.884866
O O2 0.854832 0.341865 0.825903
O O3 0.981791 0.260933 0.873446
O O4 0.880416 0.308366 0.000000
O O5 0.232624 0.403488 0.181113
O O6 0.345887 0.491085 0.099133
O O7 0.257417 0.394724 0.000000
O O8 0.250000 0.750000 0.750000
O O9 0.125541 0.705686 0.655185
O O10 0.084709 0.134893 0.853524
O O11 0.080140 0.000000 0.750000
O O12 0.000000 0.000000 0.900320
O O13 0.413356 0.728808 0.000000
#
# Coordination Sequence:
#
# PCOD8293454 Si02
#       5
#    16  16  16  16  16
#     4   9  18  31  50  73 101 137 184 230 279 325
#     4  10  19  33  49  72 107 149 185 228 275 329
#     4  10  20  33  49  70 107 145 185 226 279 331
#     4  11  21  31  51  76 111 150 189 225 275 330
#     4  11  21  33  52  78 106 146 191 231 277 339
#
# _framework density 20.437062999999998
#
# number of rings (size 3 to 8) (size 9 to 14) (size 15 to 20)
#    0.000    1.800    2.000    4.200    2.800    1.600 
#    0.000    0.000    0.000    0.000    0.000    0.000 
#    0.000   49.600    0.000  145.200    0.000    0.000 
#
# Total GULP energy -495750.790732 kJ/mol
# GULP energy per Si atom -12393.769768 kJ/mol
# Density = 2.039055 g / cm^3
# Si number density = 20.437063 Si / 1000 Ang^3
#
#
#
# Elastic Constant Matrix: (Units=GPa)
#
#
# Indices 1 2 3 4 5 6 
#
# 1 114.2648 33.4218 72.9525 0.0000 0.0000 0.0000
# 2 33.4218 30.4173 22.2715 0.0000 0.0000 0.0000
# 3 72.9525 22.2715 150.3130 0.0000 0.0000 0.0000
# 4 0.0000 0.0000 0.0000 17.1084 0.0000 0.0000
# 5 0.0000 0.0000 0.0000 0.0000 39.8017 0.0000
# 6 0.0000 0.0000 0.0000 0.0000 0.0000 25.8525
#
#
#
# Elastic Compliance Matrix: (Units=1/GPa)
#
#
# Indices 1 2 3 4 5 6 
#
# 1 0.016666 -0.013898 -0.006030 0.000000 0.000000 0.000000
# 2 -0.013898 0.048466 -0.000436 0.000000 0.000000 0.000000
# 3 -0.006030 -0.000436 0.009644 0.000000 0.000000 0.000000
# 4 0.000000 0.000000 0.000000 0.058451 0.000000 0.000000
# 5 0.000000 0.000000 0.000000 0.000000 0.025125 0.000000
# 6 0.000000 0.000000 0.000000 0.000000 0.000000 0.038681
#
#
# Mechanical properties :
#
#
# Convention : Reuss Voigt Hill
#
# Bulk Modulus (GPa) = 29.36919 61.36519 45.36719
# Shear Modulus (GPa) = 20.07164 27.64247 23.85706
#
# Velocity S-wave (km/s) = 3.13728 3.68171 3.42035
# Velocity P-wave (km/s) = 5.24644 6.94010 6.15183
#
# Compressibility (1/GPa) = 0.03404929
#
# Stress axis : x y z
#
# Youngs Moduli (GPa) = 60.00204 20.63318 103.69415
#
# Poissons Ratio (x) = 0.28675 0.62523
# Poissons Ratio (y) = 0.83388 0.04522
# Poissons Ratio (z) = 0.36178 0.00900
#
# Static dielectric constant tensor:
#      x y z
#    x 4.102190 0.000000 0.000000 
#    y 0.000000 3.196620 0.000000 
#    z 0.000000 0.000000 4.224270 
# 
# 
# High freq. dielectric constant tensor:
#      x y z
#    x 1.803760 0.000000 0.000000 
#    y 0.000000 1.729280 0.000000 
#    z 0.000000 0.000000 1.826060 
# 
# From -- ./inp_files/21603.got.cif
#   From: 2010.03.12/outbox.cif.g09.slc.cpg/sg72_11_cif.got.tgz:21603.got - 2010.04.16 14:54:00.
