data_PCOD8293859
_publ_section_title
;
Structure prediction by ZEFSAII (Michael W. Deem and Ramdas Pophale) SiO2 
 PCOD8293859
Probable space group: I B A M
;
_chemical_formula_sum "Si O2"
_cell_formula_units_Z 116
_cell_length_a 26.837539
_cell_length_b 26.278429
_cell_length_c 9.150771
_cell_angle_alpha 90.000000
_cell_angle_beta 90.000000
_cell_angle_gamma 90.000000
_cell_volume 6453.566269
_symmetry_space_group_name_H-M "I B A M"
_symmetry_group_IT_number 72
_symmetry_cell_setting 'orthorhombic'
loop_
_space_group_symop_operation_xyz
x,y,z
-x,-y,z
x,-y,1/2-z
-x,y,1/2-z
-x,-y,-z
x,y,-z
-x,y,1/2+z
x,-y,1/2+z
1/2+x,1/2+y,1/2+z
1/2-x,1/2-y,1/2+z
1/2+x,1/2-y,-z
1/2-x,1/2+y,-z
1/2-x,1/2-y,1/2-z
1/2+x,1/2+y,1/2-z
1/2-x,1/2+y,z
1/2+x,1/2-y,z
loop_
_atom_site_type_symbol
_atom_site_label
_atom_site_fract_x
_atom_site_fract_y
_atom_site_fract_z
Si Si1 0.714374 0.949708 0.673683
Si Si2 0.922668 0.920003 0.162629
Si Si3 0.819009 0.353894 0.830700
Si Si4 0.000000 0.000000 0.750000
Si Si5 0.712485 0.311994 0.162669
Si Si6 0.050546 0.819264 0.174077
Si Si7 0.138624 0.252126 0.329941
Si Si8 0.686649 0.424207 0.835160
O O1 0.711436 0.953587 0.500000
O O2 0.679147 0.903444 0.728191
O O3 0.772250 0.944410 0.721880
O O4 0.692233 0.000000 0.750000
O O5 0.936220 0.876575 0.278752
O O6 0.868692 0.944864 0.203108
O O7 0.919610 0.895836 0.000000
O O8 0.964095 0.964097 0.154814
O O9 0.768811 0.323719 0.792853
O O10 0.863500 0.313313 0.797107
O O11 0.819218 0.371607 0.000000
O O12 0.689925 0.269894 0.267838
O O13 0.680747 0.363579 0.176876
O O14 0.709531 0.289791 0.000000
O O15 0.090881 0.777971 0.231537
O O16 0.000000 0.801397 0.250000
O O17 0.044622 0.818748 0.000000
O O18 0.141971 0.242509 0.500000
O O19 0.703683 0.439759 0.000000
#
# Coordination Sequence:
#
# PCOD8293859 Si02
#       8
#    16  16  16   4  16  16  16  16
#     4  11  22  36  54  77 104 139 177 212 253 303
#     4  11  23  40  56  72  98 129 170 228 285 328
#     4   9  19  35  51  74 108 138 169 212 257 308
#     4  12  26  36  56  82  94 124 182 236 292 324
#     4   9  16  28  49  74 102 133 164 202 256 315
#     4  11  23  38  57  78 102 135 176 219 269 325
#     4  10  20  33  52  77 104 135 171 213 262 315
#     4   9  19  35  52  72  99 134 172 216 269 318
#
# _framework density 17.974557000000001
#
# number of rings (size 3 to 8) (size 9 to 14) (size 15 to 20)
#    0.000    1.931    2.069    3.103    0.966    4.414 
#    0.000    0.000    0.000    0.000    0.000    0.000 
#    0.000    0.552    0.000    6.345    0.000    1.931 
#
# Total GULP energy -718902.578545 kJ/mol
# GULP energy per Si atom -12394.872044 kJ/mol
# Density = 1.793365 g / cm^3
# Si number density = 17.974557 Si / 1000 Ang^3
#
#
#
# Elastic Constant Matrix: (Units=GPa)
#
#
# Indices 1 2 3 4 5 6 
#
# 1 45.3984 40.9495 23.1891 0.0000 0.0000 0.0000
# 2 40.9495 111.8748 49.9205 0.0000 0.0000 0.0000
# 3 23.1891 49.9205 84.5562 0.0000 0.0000 0.0000
# 4 0.0000 0.0000 0.0000 23.4434 0.0000 0.0000
# 5 0.0000 0.0000 0.0000 0.0000 18.0785 0.0000
# 6 0.0000 0.0000 0.0000 0.0000 0.0000 28.9203
#
#
#
# Elastic Compliance Matrix: (Units=1/GPa)
#
#
# Indices 1 2 3 4 5 6 
#
# 1 0.033310 -0.011019 -0.002630 0.000000 0.000000 0.000000
# 2 -0.011019 0.015781 -0.006295 0.000000 0.000000 0.000000
# 3 -0.002630 -0.006295 0.016264 0.000000 0.000000 0.000000
# 4 0.000000 0.000000 0.000000 0.042656 0.000000 0.000000
# 5 0.000000 0.000000 0.000000 0.000000 0.055314 0.000000
# 6 0.000000 0.000000 0.000000 0.000000 0.000000 0.034578
#
#
# Mechanical properties :
#
#
# Convention : Reuss Voigt Hill
#
# Bulk Modulus (GPa) = 39.26560 52.21640 45.74100
# Shear Modulus (GPa) = 20.30228 22.60645 21.45437
#
# Velocity S-wave (km/s) = 3.36445 3.55024 3.45859
# Velocity P-wave (km/s) = 6.08155 6.77635 6.43833
#
# Compressibility (1/GPa) = 0.02546758
#
# Stress axis : x y z
#
# Youngs Moduli (GPa) = 30.02146 63.36884 61.48591
#
# Poissons Ratio (x) = 0.69826 0.16168
# Poissons Ratio (y) = 0.33080 0.38704
# Poissons Ratio (z) = 0.07894 0.39889
#
# Static dielectric constant tensor:
#      x y z
#    x 3.298900 0.000000 0.000000 
#    y 0.000000 3.474620 0.000000 
#    z 0.000000 0.000000 3.216480 
# 
# 
# High freq. dielectric constant tensor:
#      x y z
#    x 1.661650 0.000000 0.000000 
#    y 0.000000 1.691570 0.000000 
#    z 0.000000 0.000000 1.695390 
# 
# From -- ./inp_files/9402.got.cif
#   From: 2010.03.12/outbox.cif.g09.slc.cpg/sg72_5_cif.got.tgz:9402.got - 2010.04.16 14:54:00.
