data_PCOD8293718
_publ_section_title
;
Structure prediction by ZEFSAII (Michael W. Deem and Ramdas Pophale) SiO2 
 PCOD8293718
Probable space group: I B A M
;
_chemical_formula_sum "Si O2"
_cell_formula_units_Z 56
_cell_length_a 33.527201
_cell_length_b 4.998369
_cell_length_c 13.961123
_cell_angle_alpha 90.000000
_cell_angle_beta 90.000000
_cell_angle_gamma 90.000000
_cell_volume 2339.623451
_symmetry_space_group_name_H-M "I B A M"
_symmetry_group_IT_number 72
_symmetry_cell_setting 'orthorhombic'
loop_
_space_group_symop_operation_xyz
x,y,z
-x,-y,z
x,-y,1/2-z
-x,y,1/2-z
-x,-y,-z
x,y,-z
-x,y,1/2+z
x,-y,1/2+z
1/2+x,1/2+y,1/2+z
1/2-x,1/2-y,1/2+z
1/2+x,1/2-y,-z
1/2-x,1/2+y,-z
1/2-x,1/2-y,1/2-z
1/2+x,1/2+y,1/2-z
1/2-x,1/2+y,z
1/2+x,1/2-y,z
loop_
_atom_site_type_symbol
_atom_site_label
_atom_site_fract_x
_atom_site_fract_y
_atom_site_fract_z
Si Si1 0.674427 0.232644 0.189164
Si Si2 0.959387 0.106378 0.108592
Si Si3 0.776229 0.748289 0.000000
Si Si4 0.091232 0.587149 0.609556
O O1 0.668575 0.500000 0.250000
O O2 0.697876 0.309348 0.093662
O O3 0.632681 0.090437 0.164381
O O4 0.697476 0.000000 0.250000
O O5 0.926402 0.880673 0.115133
O O6 0.939443 0.369752 0.157086
O O7 0.971014 0.184289 0.000000
O O8 0.000000 0.000000 0.159947
O O9 0.761859 0.442657 0.000000
O O10 0.099196 0.498892 0.500000
#
# Coordination Sequence:
#
# PCOD8293718 Si02
#       4
#    16  16   8  16
#     4  12  26  45  72 104 140 184 232 285 348 421
#     4   9  17  29  54  91 128 173 228 279 333 396
#     4  12  28  50  76 106 141 178 226 284 355 430
#     4  10  19  36  60  89 132 178 224 278 337 398
#
# _framework density 23.935478
#
# number of rings (size 3 to 8) (size 9 to 14) (size 15 to 20)
#    0.000    1.429    1.429    4.286    0.000    6.857 
#    0.000    0.000    0.000   12.857    0.000    0.000 
#    0.000    0.000    0.000    0.000    0.000    0.000 
#
# Total GULP energy -347192.366506 kJ/mol
# GULP energy per Si atom -12399.727375 kJ/mol
# Density = 2.388100 g / cm^3
# Si number density = 23.935478 Si / 1000 Ang^3
#
#
#
# Elastic Constant Matrix: (Units=GPa)
#
#
# Indices 1 2 3 4 5 6 
#
# 1 103.2740 33.0081 43.4013 0.0000 0.0000 0.0000
# 2 33.0081 149.7308 39.1874 0.0000 0.0000 0.0000
# 3 43.4013 39.1874 106.3644 0.0000 0.0000 0.0000
# 4 0.0000 0.0000 0.0000 33.3047 0.0000 0.0000
# 5 0.0000 0.0000 0.0000 0.0000 -64.3987 0.0000
# 6 0.0000 0.0000 0.0000 0.0000 0.0000 39.7978
#
#
#
# Elastic Compliance Matrix: (Units=1/GPa)
#
#
# Indices 1 2 3 4 5 6 
#
# 1 0.011987 -0.001508 -0.004336 0.000000 0.000000 0.000000
# 2 -0.001508 0.007581 -0.002178 0.000000 0.000000 0.000000
# 3 -0.004336 -0.002178 0.011973 0.000000 0.000000 0.000000
# 4 0.000000 0.000000 0.000000 0.030026 0.000000 0.000000
# 5 0.000000 0.000000 0.000000 0.000000 -0.015528 0.000000
# 6 0.000000 0.000000 0.000000 0.000000 0.000000 0.025127
#
#
# Mechanical properties :
#
#
# Convention : Reuss Voigt Hill
#
# Bulk Modulus (GPa) = 64.52206 65.61809 65.07008
# Shear Modulus (GPa) = 54.12753 17.99227 36.05990
#
# Velocity S-wave (km/s) = 4.76057 2.74469 3.88564
# Velocity P-wave (km/s) = 7.56522 6.12523 6.88299
#
# Compressibility (1/GPa) = 0.01549857
#
# Stress axis : x y z
#
# Youngs Moduli (GPa) = 83.42373 131.90837 83.52013
#
# Poissons Ratio (x) = 0.19889 0.36212
# Poissons Ratio (y) = 0.12579 0.18189
# Poissons Ratio (z) = 0.36170 0.28727
#
# Static dielectric constant tensor:
#      x y z
#    x 4.200700 0.000000 0.000000 
#    y 0.000000 4.281640 0.000000 
#    z 0.000000 0.000000 4.431070 
# 
# 
# High freq. dielectric constant tensor:
#      x y z
#    x 1.939700 0.000000 0.000000 
#    y 0.000000 1.963810 0.000000 
#    z 0.000000 0.000000 1.951820 
# 
# From -- ./inp_files/26122.got.cif
#   From: 2010.03.12/outbox.cif.g09.slc.cpg/sg72_14_cif.got.tgz:26122.got - 2010.04.16 14:54:00.
