data_PCOD8293408
_publ_section_title
;
Structure prediction by ZEFSAII (Michael W. Deem and Ramdas Pophale) SiO2 
 PCOD8293408
Probable space group: I B A M
;
_chemical_formula_sum "Si O2"
_cell_formula_units_Z 116
_cell_length_a 21.781093
_cell_length_b 32.466432
_cell_length_c 9.009454
_cell_angle_alpha 90.000000
_cell_angle_beta 90.000000
_cell_angle_gamma 90.000000
_cell_volume 6371.074810
_symmetry_space_group_name_H-M "I B A M"
_symmetry_group_IT_number 72
_symmetry_cell_setting 'orthorhombic'
loop_
_space_group_symop_operation_xyz
x,y,z
-x,-y,z
x,-y,1/2-z
-x,y,1/2-z
-x,-y,-z
x,y,-z
-x,y,1/2+z
x,-y,1/2+z
1/2+x,1/2+y,1/2+z
1/2-x,1/2-y,1/2+z
1/2+x,1/2-y,-z
1/2-x,1/2+y,-z
1/2-x,1/2-y,1/2-z
1/2+x,1/2+y,1/2-z
1/2-x,1/2+y,z
1/2+x,1/2-y,z
loop_
_atom_site_type_symbol
_atom_site_label
_atom_site_fract_x
_atom_site_fract_y
_atom_site_fract_z
Si Si1 0.880530 0.963052 0.662018
Si Si2 0.500000 0.500000 0.750000
Si Si3 0.434385 0.081983 0.676168
Si Si4 0.437758 0.823825 0.828965
Si Si5 0.161255 0.726783 0.832236
Si Si6 0.215107 0.900636 0.826496
Si Si7 0.774993 0.192846 0.830753
Si Si8 0.183404 0.456451 0.678811
O O1 0.855275 0.969923 0.500000
O O2 0.851875 0.920008 0.717457
O O3 0.955260 0.968075 0.662478
O O4 0.848554 0.000000 0.750000
O O5 0.500000 0.071806 0.750000
O O6 0.436588 0.072319 0.500000
O O7 0.416341 0.129613 0.706067
O O8 0.383828 0.054398 0.757728
O O9 0.500000 0.812465 0.750000
O O10 0.388862 0.790436 0.778464
O O11 0.449915 0.817834 0.000000
O O12 0.166441 0.776515 0.818181
O O13 0.225721 0.706820 0.789009
O O14 0.145071 0.713690 0.000000
O O15 0.205836 0.853087 0.786343
O O16 0.268611 0.921407 0.729836
O O17 0.231881 0.906110 0.000000
O O18 0.748774 0.194503 0.000000
O O19 0.203432 0.500000 0.750000
O O20 0.181595 0.458853 0.500000
#
# Coordination Sequence:
#
# PCOD8293408 Si02
#       8
#    16   4  16  16  16  16  16  16
#     4   9  18  31  52  76 101 132 168 210 254 305
#     4   8  18  32  54  80 102 128 172 208 250 300
#     4  10  21  38  58  81 108 141 182 226 270 320
#     4  10  20  34  55  80 107 140 177 220 267 316
#     4  10  19  32  52  78 106 138 177 218 262 315
#     4  10  20  36  55  78 107 141 177 218 270 321
#     4   9  19  34  53  76 105 141 175 214 263 318
#     4  12  25  39  55  79 109 143 181 223 271 322
#
# _framework density 18.207288999999999
#
# number of rings (size 3 to 8) (size 9 to 14) (size 15 to 20)
#    0.414    1.655    0.000    3.931    0.000    8.000 
#    0.000    1.379    1.517    0.000    0.000    0.000 
#    0.000    0.000    0.000    0.000    0.000    0.000 
#
# Total GULP energy -718670.015305 kJ/mol
# GULP energy per Si atom -12390.862333 kJ/mol
# Density = 1.816585 g / cm^3
# Si number density = 18.207289 Si / 1000 Ang^3
#
#
#
# Elastic Constant Matrix: (Units=GPa)
#
#
# Indices 1 2 3 4 5 6 
#
# 1 74.4850 39.2088 25.7695 0.0000 0.0000 0.0000
# 2 39.2088 116.4893 32.1947 0.0000 0.0000 0.0000
# 3 25.7695 32.1947 71.4927 0.0000 -0.0002 0.0001
# 4 0.0000 0.0000 0.0000 25.9669 0.0000 0.0000
# 5 0.0000 0.0000 -0.0002 0.0000 27.3629 0.0000
# 6 0.0000 0.0000 0.0001 0.0000 0.0000 23.8712
#
#
#
# Elastic Compliance Matrix: (Units=1/GPa)
#
#
# Indices 1 2 3 4 5 6 
#
# 1 0.017323 -0.004689 -0.004133 0.000000 0.000000 0.000000
# 2 -0.004689 0.011074 -0.003297 0.000000 0.000000 0.000000
# 3 -0.004133 -0.003297 0.016962 0.000000 0.000000 0.000000
# 4 0.000000 0.000000 0.000000 0.038510 0.000000 0.000000
# 5 0.000000 0.000000 0.000000 0.000000 0.036546 0.000000
# 6 0.000000 0.000000 0.000000 0.000000 0.000000 0.041892
#
#
# Mechanical properties :
#
#
# Convention : Reuss Voigt Hill
#
# Bulk Modulus (GPa) = 47.34289 50.75701 49.04995
# Shear Modulus (GPa) = 25.82858 26.45980 26.14419
#
# Velocity S-wave (km/s) = 3.77050 3.81629 3.79346
# Velocity P-wave (km/s) = 6.70926 6.88161 6.79598
#
# Compressibility (1/GPa) = 0.02112250
#
# Stress axis : x y z
#
# Youngs Moduli (GPa) = 57.72519 90.30366 58.95635
#
# Poissons Ratio (x) = 0.42340 0.24366
# Poissons Ratio (y) = 0.27065 0.19436
# Poissons Ratio (z) = 0.23857 0.29771
#
# Static dielectric constant tensor:
#      x y z
#    x 3.489190 0.000000 0.000000 
#    y 0.000000 3.544360 0.000000 
#    z 0.000000 0.000000 3.432600 
# 
# 
# High freq. dielectric constant tensor:
#      x y z
#    x 1.693650 0.000000 0.000000 
#    y 0.000000 1.703380 0.000000 
#    z 0.000000 0.000000 1.714340 
# 
# From -- ./inp_files/7265.got.cif
#   From: 2010.03.12/outbox.cif.g09.slc.cpg/sg72_4_cif.got.tgz:7265.got - 2010.04.16 14:54:00.
