data_PCOD8293466
_publ_section_title
;
Structure prediction by ZEFSAII (Michael W. Deem and Ramdas Pophale) SiO2 
 PCOD8293466
Probable space group: I B A M
;
_chemical_formula_sum "Si O2"
_cell_formula_units_Z 128
_cell_length_a 27.778693
_cell_length_b 11.545533
_cell_length_c 23.072927
_cell_angle_alpha 90.000000
_cell_angle_beta 90.000000
_cell_angle_gamma 90.000000
_cell_volume 7399.944919
_symmetry_space_group_name_H-M "I B A M"
_symmetry_group_IT_number 72
_symmetry_cell_setting 'orthorhombic'
loop_
_space_group_symop_operation_xyz
x,y,z
-x,-y,z
x,-y,1/2-z
-x,y,1/2-z
-x,-y,-z
x,y,-z
-x,y,1/2+z
x,-y,1/2+z
1/2+x,1/2+y,1/2+z
1/2-x,1/2-y,1/2+z
1/2+x,1/2-y,-z
1/2-x,1/2+y,-z
1/2-x,1/2-y,1/2-z
1/2+x,1/2+y,1/2-z
1/2-x,1/2+y,z
1/2+x,1/2-y,z
loop_
_atom_site_type_symbol
_atom_site_label
_atom_site_fract_x
_atom_site_fract_y
_atom_site_fract_z
Si Si1 0.057125 0.191217 0.258138
Si Si2 0.689852 0.380500 0.562238
Si Si3 0.789472 0.475218 0.564989
Si Si4 0.790854 0.318139 0.147232
Si Si5 0.641285 0.137224 0.752631
Si Si6 0.444355 0.510333 0.836699
Si Si7 0.183856 0.254474 0.132598
Si Si8 0.117682 0.076450 0.064931
O O1 0.089106 0.307522 0.261393
O O2 0.072182 0.117861 0.315795
O O3 0.000000 0.222192 0.250000
O O4 0.075202 0.112183 0.204800
O O5 0.696056 0.314330 0.500000
O O6 0.731700 0.476584 0.567525
O O7 0.688978 0.294310 0.615489
O O8 0.641021 0.450814 0.561692
O O9 0.808374 0.502470 0.500000
O O10 0.807660 0.571481 0.609712
O O11 0.806179 0.347163 0.582428
O O12 0.816312 0.324657 0.209101
O O13 0.733054 0.307739 0.154188
O O14 0.658318 0.179136 0.815236
O O15 0.634382 0.000000 0.750000
O O16 0.500000 0.500000 0.828315
O O17 0.431867 0.547195 0.902139
O O18 0.148839 0.161538 0.104161
O O19 0.108165 0.126092 0.000000
#
# Coordination Sequence:
#
# PCOD8293466 Si02
#       8
#    16  16  16  16  16  16  16  16
#     4   9  19  37  60  81 105 141 179 221 278 330
#     4   9  19  32  50  75 102 138 182 219 253 308
#     4  10  19  33  52  72 101 142 186 222 257 307
#     4  11  21  35  52  75 107 146 181 222 271 310
#     4  12  23  37  54  77 109 139 181 228 270 324
#     4   9  18  35  58  83 111 138 173 223 276 334
#     4  11  22  37  50  76 112 146 181 221 269 323
#     4  11  20  33  55  82 111 144 181 222 270 324
#
# _framework density 17.297426000000002
#
# number of rings (size 3 to 8) (size 9 to 14) (size 15 to 20)
#    0.000    1.750    3.750    2.625    0.000    1.500 
#    0.000    0.000    0.000    0.000    0.000    0.000 
#    0.000    3.250    0.000    0.000    0.000    0.000 
#
# Total GULP energy -793109.445848 kJ/mol
# GULP energy per Si atom -12392.335091 kJ/mol
# Density = 1.725806 g / cm^3
# Si number density = 17.297426 Si / 1000 Ang^3
#
#
#
# Elastic Constant Matrix: (Units=GPa)
#
#
# Indices 1 2 3 4 5 6 
#
# 1 37.8897 27.5454 29.9680 0.0000 0.0000 0.0000
# 2 27.5454 81.4743 37.8256 0.0000 0.0000 0.0000
# 3 29.9680 37.8256 107.2956 0.0000 0.0000 0.0000
# 4 0.0000 0.0000 0.0000 21.9968 0.0000 0.0000
# 5 0.0000 0.0000 0.0000 0.0000 19.1524 0.0000
# 6 0.0000 0.0000 0.0000 0.0000 0.0000 25.6160
#
#
#
# Elastic Compliance Matrix: (Units=1/GPa)
#
#
# Indices 1 2 3 4 5 6 
#
# 1 0.039545 -0.009855 -0.007571 0.000000 0.000000 0.000000
# 2 -0.009855 0.017132 -0.003287 0.000000 0.000000 0.000000
# 3 -0.007571 -0.003287 0.012593 0.000000 0.000000 0.000000
# 4 0.000000 0.000000 0.000000 0.045461 0.000000 0.000000
# 5 0.000000 0.000000 0.000000 0.000000 0.052213 0.000000
# 6 0.000000 0.000000 0.000000 0.000000 0.000000 0.039038
#
#
# Mechanical properties :
#
#
# Convention : Reuss Voigt Hill
#
# Bulk Modulus (GPa) = 35.91369 46.37085 41.14227
# Shear Modulus (GPa) = 19.47886 22.10773 20.79330
#
# Velocity S-wave (km/s) = 3.35940 3.57892 3.47090
# Velocity P-wave (km/s) = 5.98790 6.62906 6.31662
#
# Compressibility (1/GPa) = 0.02784454
#
# Stress axis : x y z
#
# Youngs Moduli (GPa) = 25.28785 58.37160 79.40661
#
# Poissons Ratio (x) = 0.57523 0.60117
# Poissons Ratio (y) = 0.24920 0.26101
# Poissons Ratio (z) = 0.19145 0.19187
#
# Static dielectric constant tensor:
#      x y z
#    x 3.042180 0.000000 0.000000 
#    y 0.000000 3.193370 0.000000 
#    z 0.000000 0.000000 3.473500 
# 
# 
# High freq. dielectric constant tensor:
#      x y z
#    x 1.646880 0.000000 0.000000 
#    y 0.000000 1.666070 0.000000 
#    z 0.000000 0.000000 1.676450 
# 
# From -- ./inp_files/46049.got.cif
#   From: 2010.03.12/outbox.cif.g09.slc.cpg/sg72_24_cif.got.tgz:46049.got - 2010.04.16 14:54:00.
