data_PCOD8293901
_publ_section_title
;
Structure prediction by ZEFSAII (Michael W. Deem and Ramdas Pophale) SiO2 
 PCOD8293901
Probable space group: I B A M
;
_chemical_formula_sum "Si O2"
_cell_formula_units_Z 116
_cell_length_a 22.301931
_cell_length_b 31.146398
_cell_length_c 8.635059
_cell_angle_alpha 90.000000
_cell_angle_beta 90.000000
_cell_angle_gamma 90.000000
_cell_volume 5998.126296
_symmetry_space_group_name_H-M "I B A M"
_symmetry_group_IT_number 72
_symmetry_cell_setting 'orthorhombic'
loop_
_space_group_symop_operation_xyz
x,y,z
-x,-y,z
x,-y,1/2-z
-x,y,1/2-z
-x,-y,-z
x,y,-z
-x,y,1/2+z
x,-y,1/2+z
1/2+x,1/2+y,1/2+z
1/2-x,1/2-y,1/2+z
1/2+x,1/2-y,-z
1/2-x,1/2+y,-z
1/2-x,1/2-y,1/2-z
1/2+x,1/2+y,1/2-z
1/2-x,1/2+y,z
1/2+x,1/2-y,z
loop_
_atom_site_type_symbol
_atom_site_label
_atom_site_fract_x
_atom_site_fract_y
_atom_site_fract_z
Si Si1 0.564249 0.454766 0.181745
Si Si2 0.775277 0.545049 0.818606
Si Si3 0.500000 0.000000 0.750000
Si Si4 0.438044 0.837436 0.819674
Si Si5 0.090438 0.566175 0.312518
Si Si6 0.668124 0.214045 0.678628
Si Si7 0.710072 0.306975 0.678945
Si Si8 0.164974 0.101566 0.319708
O O1 0.587336 0.500000 0.250000
O O2 0.500000 0.441921 0.250000
O O3 0.610658 0.417326 0.221302
O O4 0.557933 0.459894 0.000000
O O5 0.754606 0.500000 0.750000
O O6 0.841294 0.558260 0.762836
O O7 0.727737 0.580775 0.764749
O O8 0.775173 0.540624 0.000000
O O9 0.450270 0.964373 0.697611
O O10 0.500000 0.820495 0.750000
O O11 0.423865 0.885504 0.763081
O O12 0.385730 0.805050 0.776165
O O13 0.445168 0.837391 0.000000
O O14 0.078457 0.556915 0.500000
O O15 0.653950 0.206565 0.500000
O O16 0.672666 0.264440 0.720730
O O17 0.729852 0.190194 0.720109
O O18 0.730283 0.306632 0.500000
O O19 0.668328 0.347744 0.715395
O O20 0.152995 0.092226 0.500000
#
# Coordination Sequence:
#
# PCOD8293901 Si02
#       8
#    16  16   4  16  16  16  16  16
#     4  11  22  38  60  85 115 150 190 229 273 333
#     4  10  20  34  51  75 108 146 185 226 273 323
#     4  12  18  36  56  74 108 148 200 240 278 324
#     4  11  22  38  57  80 109 145 188 234 286 337
#     4  10  21  35  53  76 107 149 193 235 283 330
#     4  10  20  36  59  87 113 143 187 232 280 341
#     4   9  19  37  61  85 113 148 183 227 282 337
#     4  10  20  36  58  83 114 149 185 230 286 336
#
# _framework density 19.339372999999998
#
# number of rings (size 3 to 8) (size 9 to 14) (size 15 to 20)
#    0.000    1.793    1.379    3.931    0.000    4.966 
#    0.000    3.448    0.000    0.000    0.000    0.000 
#    0.000    0.000    0.000    0.000    0.000    0.000 
#
# Total GULP energy -718671.114760 kJ/mol
# GULP energy per Si atom -12390.881289 kJ/mol
# Density = 1.929536 g / cm^3
# Si number density = 19.339373 Si / 1000 Ang^3
#
#
#
# Elastic Constant Matrix: (Units=GPa)
#
#
# Indices 1 2 3 4 5 6 
#
# 1 116.6906 69.4480 33.6008 0.0000 0.0000 0.0000
# 2 69.4480 122.1581 34.0750 0.0000 0.0000 0.0000
# 3 33.6008 34.0750 49.5462 0.0000 0.0000 0.0000
# 4 0.0000 0.0000 0.0000 21.0264 0.0000 0.0000
# 5 0.0000 0.0000 0.0000 0.0000 22.4888 0.0000
# 6 0.0000 0.0000 0.0000 0.0000 0.0000 25.9239
#
#
#
# Elastic Compliance Matrix: (Units=1/GPa)
#
#
# Indices 1 2 3 4 5 6 
#
# 1 0.013860 -0.006505 -0.004925 0.000000 0.000000 0.000000
# 2 -0.006505 0.013183 -0.004655 0.000000 0.000000 0.000000
# 3 -0.004925 -0.004655 0.026724 0.000000 0.000000 0.000000
# 4 0.000000 0.000000 0.000000 0.047559 0.000000 0.000000
# 5 0.000000 0.000000 0.000000 0.000000 0.044467 0.000000
# 6 0.000000 0.000000 0.000000 0.000000 0.000000 0.038574
#
#
# Mechanical properties :
#
#
# Convention : Reuss Voigt Hill
#
# Bulk Modulus (GPa) = 46.30369 62.51585 54.40977
# Shear Modulus (GPa) = 22.34773 23.97255 23.16014
#
# Velocity S-wave (km/s) = 3.40304 3.52458 3.46434
# Velocity P-wave (km/s) = 6.27977 6.99710 6.64812
#
# Compressibility (1/GPa) = 0.02159655
#
# Stress axis : x y z
#
# Youngs Moduli (GPa) = 72.15245 75.85584 37.41898
#
# Poissons Ratio (x) = 0.49348 0.18429
# Poissons Ratio (y) = 0.46939 0.17417
# Poissons Ratio (z) = 0.35536 0.35308
#
# Static dielectric constant tensor:
#      x y z
#    x 3.657390 0.000000 0.000000 
#    y 0.000000 3.688760 0.000000 
#    z 0.000000 0.000000 3.402910 
# 
# 
# High freq. dielectric constant tensor:
#      x y z
#    x 1.758420 0.000000 0.000000 
#    y 0.000000 1.758650 0.000000 
#    z 0.000000 0.000000 1.737740 
# 
# From -- ./inp_files/7512.got.cif
#   From: 2010.03.12/outbox.cif.g09.slc.cpg/sg72_4_cif.got.tgz:7512.got - 2010.04.16 14:54:00.
