data_PCOD8293697
_publ_section_title
;
Structure prediction by ZEFSAII (Michael W. Deem and Ramdas Pophale) SiO2 
 PCOD8293697
Probable space group: I B A M
;
_chemical_formula_sum "Si O2"
_cell_formula_units_Z 88
_cell_length_a 14.389633
_cell_length_b 21.152923
_cell_length_c 14.611472
_cell_angle_alpha 90.000000
_cell_angle_beta 90.000000
_cell_angle_gamma 90.000000
_cell_volume 4447.480743
_symmetry_space_group_name_H-M "I B A M"
_symmetry_group_IT_number 72
_symmetry_cell_setting 'orthorhombic'
loop_
_space_group_symop_operation_xyz
x,y,z
-x,-y,z
x,-y,1/2-z
-x,y,1/2-z
-x,-y,-z
x,y,-z
-x,y,1/2+z
x,-y,1/2+z
1/2+x,1/2+y,1/2+z
1/2-x,1/2-y,1/2+z
1/2+x,1/2-y,-z
1/2-x,1/2+y,-z
1/2-x,1/2-y,1/2-z
1/2+x,1/2+y,1/2-z
1/2-x,1/2+y,z
1/2+x,1/2-y,z
loop_
_atom_site_type_symbol
_atom_site_label
_atom_site_fract_x
_atom_site_fract_y
_atom_site_fract_z
Si Si1 0.886879 0.690209 0.000000
Si Si2 0.150840 0.174393 0.000000
Si Si3 0.578147 0.145594 0.500000
Si Si4 0.738182 0.524019 0.854010
Si Si5 0.601474 0.467467 0.000000
Si Si6 0.193664 0.298214 0.354704
Si Si7 0.744051 0.163651 0.834357
Si Si8 0.387469 0.993981 0.500000
O O1 0.830044 0.675270 0.088790
O O2 0.968014 0.638334 0.000000
O O3 0.918084 0.764443 0.000000
O O4 0.215393 0.180385 0.910706
O O5 0.092601 0.109102 0.000000
O O6 0.601646 0.185319 0.590170
O O7 0.634323 0.080530 0.500000
O O8 0.749755 0.500000 0.750000
O O9 0.704718 0.597086 0.850967
O O10 0.658137 0.486832 0.908826
O O11 0.837400 0.520739 0.908197
O O12 0.500000 0.500000 0.000000
O O13 0.185704 0.223093 0.334225
O O14 0.191384 0.338736 0.262390
O O15 0.500000 0.000000 0.500000
#
# Coordination Sequence:
#
# PCOD8293697 Si02
#       8
#     8   8   8  16   8  16  16   8
#     4  10  21  32  55  78 109 138 168 227 264 319
#     4   9  18  38  54  77 105 139 180 218 279 316
#     4  11  20  35  52  79 107 140 178 211 274 320
#     4  11  22  38  60  82 114 154 185 225 277 336
#     4  11  24  38  57  83 114 147 187 237 277 331
#     4   9  19  34  59  76 102 139 177 229 261 319
#     4  10  19  36  54  80 104 136 183 218 269 315
#     4  11  23  37  56  85 120 150 183 227 271 336
#
# _framework density 19.786481999999999
#
# number of rings (size 3 to 8) (size 9 to 14) (size 15 to 20)
#    0.000    1.818    0.000    7.091    0.000    2.909 
#    0.000    3.636    0.000    6.545    0.000    0.000 
#    0.000    0.000    0.000    0.000    0.000    0.000 
#
# Total GULP energy -545293.321208 kJ/mol
# GULP energy per Si atom -12393.030027 kJ/mol
# Density = 1.974145 g / cm^3
# Si number density = 19.786482 Si / 1000 Ang^3
#
#
#
# Elastic Constant Matrix: (Units=GPa)
#
#
# Indices 1 2 3 4 5 6 
#
# 1 60.2196 3.9698 26.1815 -0.0001 0.0000 0.0000
# 2 3.9698 142.1702 26.5143 -0.0006 0.0001 0.0001
# 3 26.1815 26.5143 159.7514 -0.0006 0.0001 0.0002
# 4 -0.0001 -0.0006 -0.0006 25.1089 0.0001 0.0001
# 5 0.0000 0.0001 0.0001 0.0001 5.6341 0.0000
# 6 0.0000 0.0001 0.0002 0.0001 0.0000 24.4772
#
#
#
# Elastic Compliance Matrix: (Units=1/GPa)
#
#
# Indices 1 2 3 4 5 6 
#
# 1 0.017880 0.000049 -0.002938 0.000000 0.000000 0.000000
# 2 0.000049 0.007259 -0.001213 0.000000 0.000000 0.000000
# 3 -0.002938 -0.001213 0.006943 0.000000 0.000000 0.000000
# 4 0.000000 0.000000 0.000000 0.039827 0.000000 0.000000
# 5 0.000000 0.000000 0.000000 0.000000 0.177491 0.000000
# 6 0.000000 0.000000 0.000000 0.000000 0.000000 0.040854
#
#
# Mechanical properties :
#
#
# Convention : Reuss Voigt Hill
#
# Bulk Modulus (GPa) = 41.88207 52.83025 47.35616
# Shear Modulus (GPa) = 16.31763 31.40908 23.86335
#
# Velocity S-wave (km/s) = 2.87485 3.98854 3.47658
# Velocity P-wave (km/s) = 5.67738 6.92600 6.33254
#
# Compressibility (1/GPa) = 0.02387657
#
# Stress axis : x y z
#
# Youngs Moduli (GPa) = 55.92777 137.76704 144.03855
#
# Poissons Ratio (x) = -0.00672 0.42325
# Poissons Ratio (y) = -0.00273 0.17468
# Poissons Ratio (z) = 0.16434 0.16707
#
# Static dielectric constant tensor:
#      x y z
#    x 3.183260 0.000000 0.000000 
#    y 0.000000 4.226760 0.000000 
#    z 0.000000 0.000000 3.824260 
# 
# 
# High freq. dielectric constant tensor:
#      x y z
#    x 1.725540 0.000000 0.000000 
#    y 0.000000 1.798240 0.000000 
#    z 0.000000 0.000000 1.787950 
# 
# From -- ./inp_files/21761.got.cif
#   From: 2010.03.12/outbox.cif.g09.slc.cpg/sg72_11_cif.got.tgz:21761.got - 2010.04.16 14:54:00.
