data_PCOD8293935
_publ_section_title
;
Structure prediction by ZEFSAII (Michael W. Deem and Ramdas Pophale) SiO2 
 PCOD8293935
Probable space group: I B A M
;
_chemical_formula_sum "Si O2"
_cell_formula_units_Z 64
_cell_length_a 23.150311
_cell_length_b 7.937966
_cell_length_c 16.631549
_cell_angle_alpha 90.000000
_cell_angle_beta 90.000000
_cell_angle_gamma 90.000000
_cell_volume 3056.319580
_symmetry_space_group_name_H-M "I B A M"
_symmetry_group_IT_number 72
_symmetry_cell_setting 'orthorhombic'
loop_
_space_group_symop_operation_xyz
x,y,z
-x,-y,z
x,-y,1/2-z
-x,y,1/2-z
-x,-y,-z
x,y,-z
-x,y,1/2+z
x,-y,1/2+z
1/2+x,1/2+y,1/2+z
1/2-x,1/2-y,1/2+z
1/2+x,1/2-y,-z
1/2-x,1/2+y,-z
1/2-x,1/2-y,1/2-z
1/2+x,1/2+y,1/2-z
1/2-x,1/2+y,z
1/2+x,1/2-y,z
loop_
_atom_site_type_symbol
_atom_site_label
_atom_site_fract_x
_atom_site_fract_y
_atom_site_fract_z
Si Si1 0.131602 0.837240 0.198496
Si Si2 0.438840 0.044215 0.842127
Si Si3 0.280231 0.481748 0.591911
Si Si4 0.827222 0.642408 0.848266
O O1 0.077230 0.744042 0.155706
O O2 0.174080 0.887114 0.127403
O O3 0.164639 0.702726 0.256014
O O4 0.110914 0.000000 0.250000
O O5 0.500000 0.000000 0.885958
O O6 0.445668 0.000000 0.750000
O O7 0.387769 0.932257 0.881755
O O8 0.268151 0.530324 0.500000
O O9 0.221378 0.496802 0.644213
O O10 0.305977 0.295039 0.596266
#
# Coordination Sequence:
#
# PCOD8293935 Si02
#       4
#    16  16  16  16
#     4   9  19  35  57  83 110 142 181 228 277 327
#     4   9  18  35  57  81 107 139 182 227 270 322
#     4  11  21  34  54  80 112 145 182 228 278 332
#     4  10  20  34  54  81 110 142 181 226 278 331
#
# _framework density 20.940218999999999
#
# number of rings (size 3 to 8) (size 9 to 14) (size 15 to 20)
#    0.000    2.250    0.000    3.000    0.000    7.000 
#    0.000   22.500    0.000    8.250    0.000    0.000 
#    0.000    0.000    0.000    0.000    0.000    0.000 
#
# Total GULP energy -396599.921935 kJ/mol
# GULP energy per Si atom -12393.747560 kJ/mol
# Density = 2.089256 g / cm^3
# Si number density = 20.940219 Si / 1000 Ang^3
#
#
#
# Elastic Constant Matrix: (Units=GPa)
#
#
# Indices 1 2 3 4 5 6 
#
# 1 188.7622 93.1013 24.2287 0.0000 0.0000 0.0000
# 2 93.1013 122.4420 24.7482 0.0000 0.0000 0.0000
# 3 24.2287 24.7482 51.2086 0.0000 0.0000 0.0000
# 4 0.0000 0.0000 0.0000 16.5198 0.0000 0.0000
# 5 0.0000 0.0000 0.0000 0.0000 3.8098 0.0000
# 6 0.0000 0.0000 0.0000 0.0000 0.0000 31.1193
#
#
#
# Elastic Compliance Matrix: (Units=1/GPa)
#
#
# Indices 1 2 3 4 5 6 
#
# 1 0.008522 -0.006279 -0.000998 0.000000 0.000000 0.000000
# 2 -0.006279 0.013677 -0.003639 0.000000 0.000000 0.000000
# 3 -0.000998 -0.003639 0.021759 0.000000 0.000000 0.000000
# 4 0.000000 0.000000 0.000000 0.060534 0.000000 0.000000
# 5 0.000000 0.000000 0.000000 0.000000 0.262479 0.000000
# 6 0.000000 0.000000 0.000000 0.000000 0.000000 0.032134
#
#
# Mechanical properties :
#
#
# Convention : Reuss Voigt Hill
#
# Bulk Modulus (GPa) = 45.19409 71.84102 58.51755
# Shear Modulus (GPa) = 11.67373 24.97875 18.32624
#
# Velocity S-wave (km/s) = 2.36366 3.45753 2.96154
# Velocity P-wave (km/s) = 5.39245 7.09376 6.30079
#
# Compressibility (1/GPa) = 0.02212679
#
# Stress axis : x y z
#
# Youngs Moduli (GPa) = 117.33698 73.11721 45.95829
#
# Poissons Ratio (x) = 0.45907 0.04587
# Poissons Ratio (y) = 0.73670 0.16725
# Poissons Ratio (z) = 0.11710 0.26608
#
# Static dielectric constant tensor:
#      x y z
#    x 4.498180 0.000000 0.000000 
#    y 0.000000 4.144280 0.000000 
#    z 0.000000 0.000000 3.277530 
# 
# 
# High freq. dielectric constant tensor:
#      x y z
#    x 1.811630 0.000000 0.000000 
#    y 0.000000 1.837120 0.000000 
#    z 0.000000 0.000000 1.777150 
# 
# From -- ./inp_files/18670.got.cif
#   From: 2010.03.12/outbox.cif.g09.slc.cpg/sg72_10_cif.got.tgz:18670.got - 2010.04.16 14:54:00.
