data_PCOD8293688
_publ_section_title
;
Structure prediction by ZEFSAII (Michael W. Deem and Ramdas Pophale) SiO2 
 PCOD8293688
Probable space group: I B A M
;
_chemical_formula_sum "Si O2"
_cell_formula_units_Z 80
_cell_length_a 24.302958
_cell_length_b 10.194954
_cell_length_c 17.095848
_cell_angle_alpha 90.000000
_cell_angle_beta 90.000000
_cell_angle_gamma 90.000000
_cell_volume 4235.796184
_symmetry_space_group_name_H-M "I B A M"
_symmetry_group_IT_number 72
_symmetry_cell_setting 'orthorhombic'
loop_
_space_group_symop_operation_xyz
x,y,z
-x,-y,z
x,-y,1/2-z
-x,y,1/2-z
-x,-y,-z
x,y,-z
-x,y,1/2+z
x,-y,1/2+z
1/2+x,1/2+y,1/2+z
1/2-x,1/2-y,1/2+z
1/2+x,1/2-y,-z
1/2-x,1/2+y,-z
1/2-x,1/2-y,1/2-z
1/2+x,1/2+y,1/2-z
1/2-x,1/2+y,z
1/2+x,1/2-y,z
loop_
_atom_site_type_symbol
_atom_site_label
_atom_site_fract_x
_atom_site_fract_y
_atom_site_fract_z
Si Si1 0.354218 0.484426 0.340667
Si Si2 0.145000 0.274709 0.592515
Si Si3 0.259352 0.877098 0.696682
Si Si4 0.974149 0.633099 0.593027
Si Si5 0.037825 0.116979 0.092718
O O1 0.367835 0.500000 0.250000
O O2 0.354118 0.623094 0.384033
O O3 0.295926 0.411868 0.351113
O O4 0.399997 0.391766 0.378067
O O5 0.152595 0.285455 0.500000
O O6 0.193750 0.353360 0.633389
O O7 0.088334 0.342602 0.620665
O O8 0.250000 0.750000 0.750000
O O9 0.276789 0.000000 0.750000
O O10 0.975654 0.630597 0.500000
O O11 0.000000 0.500000 0.628109
O O12 0.012458 0.748996 0.625484
O O13 0.037672 0.113272 0.000000
O O14 0.000000 0.000000 0.126090
#
# Coordination Sequence:
#
# PCOD8293688 Si02
#       5
#    16  16  16  16  16
#     4  11  22  39  64  88 126 164 206 256 318 371
#     4  11  22  41  68  95 124 166 214 260 308 379
#     4  11  23  44  64  87 128 171 204 260 331 367
#     4   9  19  37  59  89 126 157 194 256 319 358
#     4  10  19  35  62  90 119 160 206 253 304 370
#
# _framework density 18.886649999999999
#
# number of rings (size 3 to 8) (size 9 to 14) (size 15 to 20)
#    0.000    1.600    6.000    0.600    0.000    3.600 
#    0.000    0.000    0.000    0.000    0.000    0.000 
#    0.000    0.000    0.000    0.000    0.000    0.000 
#
# Total GULP energy -496031.515746 kJ/mol
# GULP energy per Si atom -12400.787894 kJ/mol
# Density = 1.884366 g / cm^3
# Si number density = 18.886650 Si / 1000 Ang^3
#
#
#
# Elastic Constant Matrix: (Units=GPa)
#
#
# Indices 1 2 3 4 5 6 
#
# 1 189.6727 100.1533 52.0792 0.0000 0.0000 0.0000
# 2 100.1533 163.7082 44.7048 0.0000 0.0000 0.0000
# 3 52.0792 44.7048 57.0226 0.0000 0.0000 0.0000
# 4 0.0000 0.0000 0.0000 25.7441 0.0000 0.0000
# 5 0.0000 0.0000 0.0000 0.0000 28.8929 0.0000
# 6 0.0000 0.0000 0.0000 0.0000 0.0000 40.5984
#
#
#
# Elastic Compliance Matrix: (Units=1/GPa)
#
#
# Indices 1 2 3 4 5 6 
#
# 1 0.008714 -0.004018 -0.004809 0.000000 0.000000 0.000000
# 2 -0.004018 0.009625 -0.003876 0.000000 0.000000 0.000000
# 3 -0.004809 -0.003876 0.024968 0.000000 0.000000 0.000000
# 4 0.000000 0.000000 0.000000 0.038844 0.000000 0.000000
# 5 0.000000 0.000000 0.000000 0.000000 0.034611 0.000000
# 6 0.000000 0.000000 0.000000 0.000000 0.000000 0.024632
#
#
# Mechanical properties :
#
#
# Convention : Reuss Voigt Hill
#
# Bulk Modulus (GPa) = 55.86267 89.36422 72.61345
# Shear Modulus (GPa) = 28.94092 33.27817 31.10954
#
# Velocity S-wave (km/s) = 3.91877 4.20217 4.06294
# Velocity P-wave (km/s) = 7.07939 8.42396 7.78077
#
# Compressibility (1/GPa) = 0.01790104
#
# Stress axis : x y z
#
# Youngs Moduli (GPa) = 114.75455 103.89517 40.05190
#
# Poissons Ratio (x) = 0.41746 0.19260
# Poissons Ratio (y) = 0.46109 0.15525
# Poissons Ratio (z) = 0.55182 0.40272
#
# Static dielectric constant tensor:
#      x y z
#    x 3.801930 0.000000 0.000000 
#    y 0.000000 3.767600 0.000000 
#    z 0.000000 0.000000 3.371940 
# 
# 
# High freq. dielectric constant tensor:
#      x y z
#    x 1.748700 0.000000 0.000000 
#    y 0.000000 1.742730 0.000000 
#    z 0.000000 0.000000 1.714000 
# 
# From -- ./inp_files/33752.got.cif
#   From: 2010.03.12/outbox.cif.g09.slc.cpg/sg72_17_cif.got.tgz:33752.got - 2010.04.16 14:54:00.
