data_PCOD8293059
_publ_section_title
;
Structure prediction by ZEFSAII (Michael W. Deem and Ramdas Pophale) SiO2 
 PCOD8293059
Probable space group: I B A M
;
_chemical_formula_sum "Si O2"
_cell_formula_units_Z 88
_cell_length_a 20.595997
_cell_length_b 18.478855
_cell_length_c 13.565625
_cell_angle_alpha 90.000000
_cell_angle_beta 90.000000
_cell_angle_gamma 90.000000
_cell_volume 5162.947217
_symmetry_space_group_name_H-M "I B A M"
_symmetry_group_IT_number 72
_symmetry_cell_setting 'orthorhombic'
loop_
_space_group_symop_operation_xyz
x,y,z
-x,-y,z
x,-y,1/2-z
-x,y,1/2-z
-x,-y,-z
x,y,-z
-x,y,1/2+z
x,-y,1/2+z
1/2+x,1/2+y,1/2+z
1/2-x,1/2-y,1/2+z
1/2+x,1/2-y,-z
1/2-x,1/2+y,-z
1/2-x,1/2-y,1/2-z
1/2+x,1/2+y,1/2-z
1/2-x,1/2+y,z
1/2+x,1/2-y,z
loop_
_atom_site_type_symbol
_atom_site_label
_atom_site_fract_x
_atom_site_fract_y
_atom_site_fract_z
Si Si1 0.318179 0.590275 0.612932
Si Si2 0.350625 0.346040 0.388199
Si Si3 0.275179 0.000000 0.750000
Si Si4 0.678302 0.260698 0.712901
Si Si5 0.697843 0.119244 0.612172
Si Si6 0.930434 0.983390 0.113304
O O1 0.295985 0.577851 0.500000
O O2 0.266080 0.555697 0.685182
O O3 0.325280 0.675204 0.633264
O O4 0.387591 0.553915 0.632306
O O5 0.369040 0.322712 0.500000
O O6 0.363671 0.280091 0.311468
O O7 0.275666 0.370329 0.384125
O O8 0.393482 0.412497 0.345777
O O9 0.319415 0.951987 0.676316
O O10 0.750000 0.250000 0.750000
O O11 0.657505 0.186767 0.658316
O O12 0.674656 0.108132 0.500000
O O13 0.941829 0.966604 0.000000
O O14 0.000000 0.000000 0.164378
#
# Coordination Sequence:
#
# PCOD8293059 Si02
#       6
#    16  16   8  16  16  16
#     4  11  19  29  45  63  86 120 157 192 225 263
#     4   9  16  28  44  61  85 117 152 192 227 260
#     4  12  18  30  43  62  86 110 147 192 224 268
#     4  10  18  31  42  60  84 110 153 194 228 277
#     4  10  19  31  45  61  85 116 147 189 235 273
#     4   9  17  29  45  66  94 128 162 192 224 262
#
# _framework density 17.044528
#
# number of rings (size 3 to 8) (size 9 to 14) (size 15 to 20)
#    0.000    2.000    5.455    1.091    0.000    0.727 
#    0.000    4.091    0.000    0.000    0.000    0.000 
#    0.000    0.000    0.000    3.273    0.000   28.182 
#
# Total GULP energy -545191.074870 kJ/mol
# GULP energy per Si atom -12390.706247 kJ/mol
# Density = 1.700573 g / cm^3
# Si number density = 17.044528 Si / 1000 Ang^3
#
#
#
# Elastic Constant Matrix: (Units=GPa)
#
#
# Indices 1 2 3 4 5 6 
#
# 1 33.1946 24.6820 10.0382 0.0000 0.0000 0.0000
# 2 24.6820 126.6492 61.6142 0.0000 0.0000 0.0000
# 3 10.0382 61.6142 136.4204 0.0000 0.0000 0.0000
# 4 0.0000 0.0000 0.0000 39.2508 0.0000 0.0000
# 5 0.0000 0.0000 0.0000 0.0000 -9.6496 0.0000
# 6 0.0000 0.0000 0.0000 0.0000 0.0000 15.2756
#
#
#
# Elastic Compliance Matrix: (Units=1/GPa)
#
#
# Indices 1 2 3 4 5 6 
#
# 1 0.035276 -0.007192 0.000653 0.000000 0.000000 0.000000
# 2 -0.007192 0.011586 -0.004703 0.000000 0.000000 0.000000
# 3 0.000653 -0.004703 0.009407 0.000000 0.000000 0.000000
# 4 0.000000 0.000000 0.000000 0.025477 0.000000 0.000000
# 5 0.000000 0.000000 0.000000 0.000000 -0.103631 0.000000
# 6 0.000000 0.000000 0.000000 0.000000 0.000000 0.065464
#
#
# Mechanical properties :
#
#
# Convention : Reuss Voigt Hill
#
# Bulk Modulus (GPa) = 29.60149 54.32587 41.96368
# Shear Modulus (GPa) = 64.66253 22.30401 43.48327
#
# Velocity S-wave (km/s) = 6.16602 3.62134 5.05638
# Velocity P-wave (km/s) = 8.25214 7.03048 7.66569
#
# Compressibility (1/GPa) = 0.03378209
#
# Stress axis : x y z
#
# Youngs Moduli (GPa) = 28.34800 86.31341 106.30870
#
# Poissons Ratio (x) = 0.62079 -0.06938
# Poissons Ratio (y) = 0.20389 0.50002
# Poissons Ratio (z) = -0.01850 0.40597
#
# Static dielectric constant tensor:
#      x y z
#    x 2.853120 0.000000 0.000000 
#    y 0.000000 3.509840 0.000000 
#    z 0.000000 0.000000 4.858790 
# 
# 
# High freq. dielectric constant tensor:
#      x y z
#    x 1.575580 0.000000 0.000000 
#    y 0.000000 1.653770 0.000000 
#    z 0.000000 0.000000 1.690140 
# 
# From -- ./inp_files/25324.got.cif
#   From: 2010.03.12/outbox.cif.g09.slc.cpg/sg72_13_cif.got.tgz:25324.got - 2010.04.16 14:54:00.
