data_PCOD8293479
_publ_section_title
;
Structure prediction by ZEFSAII (Michael W. Deem and Ramdas Pophale) SiO2 
 PCOD8293479
Probable space group: I B A M
;
_chemical_formula_sum "Si O2"
_cell_formula_units_Z 80
_cell_length_a 27.579504
_cell_length_b 17.733366
_cell_length_c 8.916000
_cell_angle_alpha 90.000000
_cell_angle_beta 90.000000
_cell_angle_gamma 90.000000
_cell_volume 4360.614442
_symmetry_space_group_name_H-M "I B A M"
_symmetry_group_IT_number 72
_symmetry_cell_setting 'orthorhombic'
loop_
_space_group_symop_operation_xyz
x,y,z
-x,-y,z
x,-y,1/2-z
-x,y,1/2-z
-x,-y,-z
x,y,-z
-x,y,1/2+z
x,-y,1/2+z
1/2+x,1/2+y,1/2+z
1/2-x,1/2-y,1/2+z
1/2+x,1/2-y,-z
1/2-x,1/2+y,-z
1/2-x,1/2-y,1/2-z
1/2+x,1/2+y,1/2-z
1/2-x,1/2+y,z
1/2+x,1/2-y,z
loop_
_atom_site_type_symbol
_atom_site_label
_atom_site_fract_x
_atom_site_fract_y
_atom_site_fract_z
Si Si1 0.098214 0.574988 0.677352
Si Si2 0.360445 0.293080 0.828721
Si Si3 0.714431 0.580222 0.175334
Si Si4 0.809798 0.360609 0.824213
Si Si5 0.449771 0.769640 0.175384
O O1 0.074645 0.500000 0.750000
O O2 0.102393 0.566477 0.500000
O O3 0.151509 0.584417 0.746869
O O4 0.064665 0.645475 0.723659
O O5 0.334341 0.372108 0.797410
O O6 0.323127 0.225936 0.790050
O O7 0.408186 0.288372 0.726669
O O8 0.377517 0.285784 0.000000
O O9 0.705878 0.500000 0.250000
O O10 0.757994 0.624500 0.252456
O O11 0.725878 0.570818 0.000000
O O12 0.808283 0.378841 0.000000
O O13 0.500000 0.746429 0.250000
O O14 0.456045 0.762404 0.000000
#
# Coordination Sequence:
#
# PCOD8293479 Si02
#       5
#    16  16  16  16  16
#     4  10  20  33  49  73 105 141 176 212 252 298
#     4   9  20  37  56  77 103 135 173 214 256 302
#     4  11  22  35  52  77 108 140 172 210 254 304
#     4  10  19  33  53  76 104 140 177 213 250 296
#     4  10  21  36  56  78 101 131 170 214 261 310
#
# _framework density 18.346039000000001
#
# number of rings (size 3 to 8) (size 9 to 14) (size 15 to 20)
#    0.000    2.000    0.000    3.600    0.000    5.200 
#    0.000    2.000    0.000    0.600    0.000    4.200 
#    0.000    0.000    0.000    0.000    0.000    0.000 
#
# Total GULP energy -496165.893709 kJ/mol
# GULP energy per Si atom -12404.147343 kJ/mol
# Density = 1.830428 g / cm^3
# Si number density = 18.346039 Si / 1000 Ang^3
#
#
#
# Elastic Constant Matrix: (Units=GPa)
#
#
# Indices 1 2 3 4 5 6 
#
# 1 112.6081 41.7890 54.1727 0.0000 0.0000 0.0000
# 2 41.7890 75.0135 36.6753 0.0000 0.0000 0.0000
# 3 54.1727 36.6753 93.5551 0.0000 0.0000 0.0000
# 4 0.0000 0.0000 0.0000 27.6030 0.0000 0.0000
# 5 0.0000 0.0000 0.0000 0.0000 30.6992 0.0000
# 6 0.0000 0.0000 0.0000 0.0000 0.0000 13.1239
#
#
#
# Elastic Compliance Matrix: (Units=1/GPa)
#
#
# Indices 1 2 3 4 5 6 
#
# 1 0.013464 -0.004563 -0.006007 0.000000 0.000000 0.000000
# 2 -0.004563 0.018039 -0.004429 0.000000 0.000000 0.000000
# 3 -0.006007 -0.004429 0.015904 0.000000 0.000000 0.000000
# 4 0.000000 0.000000 0.000000 0.036228 0.000000 0.000000
# 5 0.000000 0.000000 0.000000 0.000000 0.032574 0.000000
# 6 0.000000 0.000000 0.000000 0.000000 0.000000 0.076197
#
#
# Mechanical properties :
#
#
# Convention : Reuss Voigt Hill
#
# Bulk Modulus (GPa) = 57.44937 60.71674 59.08305
# Shear Modulus (GPa) = 21.90998 24.18787 23.04892
#
# Velocity S-wave (km/s) = 3.45956 3.63495 3.54834
# Velocity P-wave (km/s) = 6.88043 7.12631 7.00445
#
# Compressibility (1/GPa) = 0.01740663
#
# Stress axis : x y z
#
# Youngs Moduli (GPa) = 74.27360 55.43673 62.87903
#
# Poissons Ratio (x) = 0.25298 0.37772
# Poissons Ratio (y) = 0.33894 0.27849
# Poissons Ratio (z) = 0.44617 0.24553
#
# Static dielectric constant tensor:
#      x y z
#    x 3.240240 0.000000 0.000000 
#    y 0.000000 3.334710 0.000000 
#    z 0.000000 0.000000 3.480070 
# 
# 
# High freq. dielectric constant tensor:
#      x y z
#    x 1.700640 0.000000 0.000000 
#    y 0.000000 1.699250 0.000000 
#    z 0.000000 0.000000 1.726270 
# 
# From -- ./inp_files/4749.got.cif
#   From: 2010.03.12/outbox.cif.g09.slc.cpg/sg72_3_cif.got.tgz:4749.got - 2010.04.16 14:54:00.
