data_PCOD8293528
_publ_section_title
;
Structure prediction by ZEFSAII (Michael W. Deem and Ramdas Pophale) SiO2 
 PCOD8293528
Probable space group: I B A M
;
_chemical_formula_sum "Si O2"
_cell_formula_units_Z 96
_cell_length_a 23.605283
_cell_length_b 10.470917
_cell_length_c 21.614389
_cell_angle_alpha 90.000000
_cell_angle_beta 90.000000
_cell_angle_gamma 90.000000
_cell_volume 5342.406030
_symmetry_space_group_name_H-M "I B A M"
_symmetry_group_IT_number 72
_symmetry_cell_setting 'orthorhombic'
loop_
_space_group_symop_operation_xyz
x,y,z
-x,-y,z
x,-y,1/2-z
-x,y,1/2-z
-x,-y,-z
x,y,-z
-x,y,1/2+z
x,-y,1/2+z
1/2+x,1/2+y,1/2+z
1/2-x,1/2-y,1/2+z
1/2+x,1/2-y,-z
1/2-x,1/2+y,-z
1/2-x,1/2-y,1/2-z
1/2+x,1/2+y,1/2-z
1/2-x,1/2+y,z
1/2+x,1/2-y,z
loop_
_atom_site_type_symbol
_atom_site_label
_atom_site_fract_x
_atom_site_fract_y
_atom_site_fract_z
Si Si1 0.664083 0.496441 0.320741
Si Si2 0.227486 0.598411 0.887502
Si Si3 0.389444 0.747056 0.169143
Si Si4 0.199920 0.670784 0.568558
Si Si5 0.505877 0.140283 0.322991
Si Si6 0.370845 0.780957 0.313716
O O1 0.677756 0.500000 0.250000
O O2 0.721434 0.545569 0.348435
O O3 0.613541 0.594086 0.337051
O O4 0.646355 0.356008 0.341108
O O5 0.215764 0.480128 0.933828
O O6 0.246685 0.732667 0.919176
O O7 0.173638 0.619016 0.842211
O O8 0.347777 0.813638 0.120639
O O9 0.454027 0.776763 0.150850
O O10 0.371687 0.791694 0.238805
O O11 0.176649 0.704504 0.500000
O O12 0.500000 0.135441 0.250000
O O13 0.566854 0.194978 0.341800
O O14 0.500000 0.000000 0.351848
#
# Coordination Sequence:
#
# PCOD8293528 Si02
#       6
#    16  16  16  16  16  16
#     4   9  19  31  49  83 111 138 174 218 279 330
#     4  11  21  35  56  79 109 142 180 228 279 321
#     4   9  20  34  54  81 110 145 180 219 276 327
#     4  11  23  37  54  76 108 149 188 222 264 324
#     4   9  17  31  50  79 109 141 175 214 273 330
#     4  10  19  33  56  84 114 137 174 231 279 330
#
# _framework density 17.969431
#
# number of rings (size 3 to 8) (size 9 to 14) (size 15 to 20)
#    0.000    2.167    1.667    1.500    2.333    4.000 
#    0.000    3.333    0.000    5.500    0.000    2.333 
#    0.000    0.000    0.000    0.000    0.000    0.000 
#
# Total GULP energy -594698.742118 kJ/mol
# GULP energy per Si atom -12389.557127 kJ/mol
# Density = 1.792853 g / cm^3
# Si number density = 17.969431 Si / 1000 Ang^3
#
#
#
# Elastic Constant Matrix: (Units=GPa)
#
#
# Indices 1 2 3 4 5 6 
#
# 1 154.3004 75.3615 22.3144 0.0000 0.0000 0.0000
# 2 75.3615 136.9380 15.8969 0.0000 0.0000 0.0000
# 3 22.3144 15.8969 85.7692 0.0000 0.0000 0.0000
# 4 0.0000 0.0000 0.0000 16.4264 0.0000 0.0000
# 5 0.0000 0.0000 0.0000 0.0000 7.7826 0.0000
# 6 0.0000 0.0000 0.0000 0.0000 0.0000 25.9780
#
#
#
# Elastic Compliance Matrix: (Units=1/GPa)
#
#
# Indices 1 2 3 4 5 6 
#
# 1 0.009039 -0.004805 -0.001461 0.000000 0.000000 0.000000
# 2 -0.004805 0.010017 -0.000607 0.000000 0.000000 0.000000
# 3 -0.001461 -0.000607 0.012152 0.000000 0.000000 0.000000
# 4 0.000000 0.000000 0.000000 0.060877 0.000000 0.000000
# 5 0.000000 0.000000 0.000000 0.000000 0.128491 0.000000
# 6 0.000000 0.000000 0.000000 0.000000 0.000000 0.038494
#
#
# Mechanical properties :
#
#
# Convention : Reuss Voigt Hill
#
# Bulk Modulus (GPa) = 57.26413 67.12812 62.19613
# Shear Modulus (GPa) = 17.94451 27.59972 22.77212
#
# Velocity S-wave (km/s) = 3.16351 3.92334 3.56374
# Velocity P-wave (km/s) = 6.72908 7.61324 7.18477
#
# Compressibility (1/GPa) = 0.01746294
#
# Stress axis : x y z
#
# Youngs Moduli (GPa) = 110.63356 99.82810 82.29268
#
# Poissons Ratio (x) = 0.47965 0.12024
# Poissons Ratio (y) = 0.53157 0.04992
# Poissons Ratio (z) = 0.16164 0.06056
#
# Static dielectric constant tensor:
#      x y z
#    x 3.310610 0.000000 0.000000 
#    y 0.000000 3.868120 0.000000 
#    z 0.000000 0.000000 2.897060 
# 
# 
# High freq. dielectric constant tensor:
#      x y z
#    x 1.694200 0.000000 0.000000 
#    y 0.000000 1.714590 0.000000 
#    z 0.000000 0.000000 1.656020 
# 
# From -- ./inp_files/43460.got.cif
#   From: 2010.03.12/outbox.cif.g09.slc.cpg/sg72_22_cif.got.tgz:43460.got - 2010.04.16 14:54:00.
