data_PCOD8293715
_publ_section_title
;
Structure prediction by ZEFSAII (Michael W. Deem and Ramdas Pophale) SiO2 
 PCOD8293715
Probable space group: I B A M
;
_chemical_formula_sum "Si O2"
_cell_formula_units_Z 96
_cell_length_a 28.668399
_cell_length_b 9.577302
_cell_length_c 17.307875
_cell_angle_alpha 90.000000
_cell_angle_beta 90.000000
_cell_angle_gamma 90.000000
_cell_volume 4752.152537
_symmetry_space_group_name_H-M "I B A M"
_symmetry_group_IT_number 72
_symmetry_cell_setting 'orthorhombic'
loop_
_space_group_symop_operation_xyz
x,y,z
-x,-y,z
x,-y,1/2-z
-x,y,1/2-z
-x,-y,-z
x,y,-z
-x,y,1/2+z
x,-y,1/2+z
1/2+x,1/2+y,1/2+z
1/2-x,1/2-y,1/2+z
1/2+x,1/2-y,-z
1/2-x,1/2+y,-z
1/2-x,1/2-y,1/2-z
1/2+x,1/2+y,1/2-z
1/2-x,1/2+y,z
1/2+x,1/2-y,z
loop_
_atom_site_type_symbol
_atom_site_label
_atom_site_fract_x
_atom_site_fract_y
_atom_site_fract_z
Si Si1 0.790288 0.695875 0.908155
Si Si2 0.295322 0.488189 0.091481
Si Si3 0.877939 0.792468 0.408471
Si Si4 0.041983 0.604741 0.585763
Si Si5 0.632587 0.002021 0.160101
Si Si6 0.981425 0.145189 0.092177
O O1 0.745629 0.611346 0.875632
O O2 0.790479 0.854683 0.874859
O O3 0.836420 0.618186 0.880961
O O4 0.789589 0.700797 0.000000
O O5 0.344949 0.421703 0.116043
O O6 0.291186 0.494207 0.000000
O O7 0.878757 0.772791 0.500000
O O8 0.856826 0.650773 0.373635
O O9 0.929768 0.821483 0.375418
O O10 0.064317 0.628251 0.500000
O O11 0.079275 0.544507 0.645070
O O12 0.000000 0.500000 0.576242
O O13 0.020188 0.745614 0.620846
O O14 0.643394 0.000000 0.250000
O O15 0.978759 0.145296 0.000000
O O16 0.000000 0.000000 0.125540
#
# Coordination Sequence:
#
# PCOD8293715 Si02
#       6
#    16  16  16  16  16  16
#     4  10  20  38  62  90 116 150 194 244 296 350
#     4   9  19  35  64  95 117 144 192 249 300 344
#     4  10  19  37  60  86 117 150 189 243 295 344
#     4  10  19  36  60  85 110 148 194 240 292 344
#     4  12  25  38  55  83 120 159 202 236 288 343
#     4   9  18  31  55  88 116 141 181 236 295 349
#
# _framework density 20.201371000000002
#
# number of rings (size 3 to 8) (size 9 to 14) (size 15 to 20)
#    0.000    2.000    1.667    2.500    2.333    3.000 
#    0.000    4.167    0.000    1.000    0.000    0.000 
#    0.000    0.000    0.000    0.000    0.000    0.000 
#
# Total GULP energy -595173.240716 kJ/mol
# GULP energy per Si atom -12399.442515 kJ/mol
# Density = 2.015539 g / cm^3
# Si number density = 20.201371 Si / 1000 Ang^3
#
#
#
# Elastic Constant Matrix: (Units=GPa)
#
#
# Indices 1 2 3 4 5 6 
#
# 1 87.6677 52.7326 11.9613 0.0000 0.0000 0.0000
# 2 52.7326 187.3239 19.4156 0.0000 0.0000 0.0000
# 3 11.9613 19.4156 23.1822 0.0000 0.0000 0.0000
# 4 0.0000 0.0000 0.0000 6.2930 0.0000 0.0000
# 5 0.0000 0.0000 0.0000 0.0000 9.1867 0.0000
# 6 0.0000 0.0000 0.0000 0.0000 0.0000 40.6042
#
#
#
# Elastic Compliance Matrix: (Units=1/GPa)
#
#
# Indices 1 2 3 4 5 6 
#
# 1 0.014118 -0.003525 -0.004332 0.000000 0.000000 0.000000
# 2 -0.003525 0.006726 -0.003814 0.000000 0.000000 0.000000
# 3 -0.004332 -0.003814 0.048566 0.000000 0.000000 0.000000
# 4 0.000000 0.000000 0.000000 0.158907 0.000000 0.000000
# 5 0.000000 0.000000 0.000000 0.000000 0.108853 0.000000
# 6 0.000000 0.000000 0.000000 0.000000 0.000000 0.024628
#
#
# Mechanical properties :
#
#
# Convention : Reuss Voigt Hill
#
# Bulk Modulus (GPa) = 21.70739 51.82141 36.76440
# Shear Modulus (GPa) = 12.48448 25.48774 18.98611
#
# Velocity S-wave (km/s) = 2.48866 3.55587 3.06901
# Velocity P-wave (km/s) = 4.36197 6.52435 5.54950
#
# Compressibility (1/GPa) = 0.04606726
#
# Stress axis : x y z
#
# Youngs Moduli (GPa) = 70.83009 148.67479 20.59046
#
# Poissons Ratio (x) = 0.52413 0.08920
# Poissons Ratio (y) = 0.24970 0.07854
# Poissons Ratio (z) = 0.30684 0.56708
#
# Static dielectric constant tensor:
#      x y z
#    x 4.222270 0.000000 0.000000 
#    y 0.000000 3.674290 0.000000 
#    z 0.000000 0.000000 3.113130 
# 
# 
# High freq. dielectric constant tensor:
#      x y z
#    x 1.798110 0.000000 0.000000 
#    y 0.000000 1.808100 0.000000 
#    z 0.000000 0.000000 1.728830 
# 
# From -- ./inp_files/40678.got.cif
#   From: 2010.03.12/outbox.cif.g09.slc.cpg/sg72_21_cif.got.tgz:40678.got - 2010.04.16 14:54:00.
