data_PCOD8293507
_publ_section_title
;
Structure prediction by ZEFSAII (Michael W. Deem and Ramdas Pophale) SiO2 
 PCOD8293507
Probable space group: I B A M
;
_chemical_formula_sum "Si O2"
_cell_formula_units_Z 96
_cell_length_a 10.561242
_cell_length_b 19.246590
_cell_length_c 25.134342
_cell_angle_alpha 90.000000
_cell_angle_beta 90.000000
_cell_angle_gamma 90.000000
_cell_volume 5109.004782
_symmetry_space_group_name_H-M "I B A M"
_symmetry_group_IT_number 72
_symmetry_cell_setting 'orthorhombic'
loop_
_space_group_symop_operation_xyz
x,y,z
-x,-y,z
x,-y,1/2-z
-x,y,1/2-z
-x,-y,-z
x,y,-z
-x,y,1/2+z
x,-y,1/2+z
1/2+x,1/2+y,1/2+z
1/2-x,1/2-y,1/2+z
1/2+x,1/2-y,-z
1/2-x,1/2+y,-z
1/2-x,1/2-y,1/2-z
1/2+x,1/2+y,1/2-z
1/2-x,1/2+y,z
1/2+x,1/2-y,z
loop_
_atom_site_type_symbol
_atom_site_label
_atom_site_fract_x
_atom_site_fract_y
_atom_site_fract_z
Si Si1 0.802121 0.575067 0.257642
Si Si2 0.152004 0.930175 0.361738
Si Si3 0.369040 0.726321 0.610318
Si Si4 0.630898 0.418891 0.656495
Si Si5 0.639612 0.693975 0.437948
Si Si6 0.377053 0.780520 0.726008
O O1 0.871548 0.500000 0.250000
O O2 0.754301 0.586908 0.317377
O O3 0.689333 0.577263 0.215009
O O4 0.893685 0.640700 0.251460
O O5 0.170125 0.881397 0.412861
O O6 0.018264 0.913994 0.334404
O O7 0.164228 0.011794 0.377827
O O8 0.322386 0.648518 0.624453
O O9 0.508099 0.726788 0.583582
O O10 0.259413 0.755900 0.572258
O O11 0.376588 0.774032 0.662652
O O12 0.623360 0.682014 0.500000
O O13 0.500000 0.740560 0.750000
O O14 0.250000 0.750000 0.750000
#
# Coordination Sequence:
#
# PCOD8293507 Si02
#       6
#    16  16  16  16  16  16
#     4  10  19  33  54  83 119 156 188 225 285 358
#     4   9  18  34  53  85 114 153 186 239 290 342
#     4  11  22  38  59  86 117 150 194 244 295 347
#     4   9  18  31  56  84 119 146 186 231 290 358
#     4  11  23  40  61  83 112 153 203 252 296 338
#     4  12  24  36  57  89 122 156 188 230 291 361
#
# _framework density 18.790351999999999
#
# number of rings (size 3 to 8) (size 9 to 14) (size 15 to 20)
#    0.000    1.667    3.333    2.000    2.333    2.333 
#    0.000    7.500    0.000    1.000    0.000    2.333 
#    0.000    0.000    0.000    0.000    0.000    0.000 
#
# Total GULP energy -594823.482921 kJ/mol
# GULP energy per Si atom -12392.155894 kJ/mol
# Density = 1.874758 g / cm^3
# Si number density = 18.790352 Si / 1000 Ang^3
#
#
#
# Elastic Constant Matrix: (Units=GPa)
#
#
# Indices 1 2 3 4 5 6 
#
# 1 95.6807 38.2808 37.1263 0.0000 0.0000 0.0000
# 2 38.2808 139.4705 41.2159 0.0000 0.0000 0.0000
# 3 37.1263 41.2159 112.9568 0.0000 0.0000 0.0000
# 4 0.0000 0.0000 0.0000 23.9131 0.0000 0.0000
# 5 0.0000 0.0000 0.0000 0.0000 26.0829 0.0000
# 6 0.0000 0.0000 0.0000 0.0000 0.0000 20.3728
#
#
#
# Elastic Compliance Matrix: (Units=1/GPa)
#
#
# Indices 1 2 3 4 5 6 
#
# 1 0.012729 -0.002530 -0.003260 0.000000 0.000000 0.000000
# 2 -0.002530 0.008539 -0.002284 0.000000 0.000000 0.000000
# 3 -0.003260 -0.002284 0.010758 0.000000 0.000000 0.000000
# 4 0.000000 0.000000 0.000000 0.041818 0.000000 0.000000
# 5 0.000000 0.000000 0.000000 0.000000 0.038339 0.000000
# 6 0.000000 0.000000 0.000000 0.000000 0.000000 0.049085
#
#
# Mechanical properties :
#
#
# Convention : Reuss Voigt Hill
#
# Bulk Modulus (GPa) = 62.98604 64.59489 63.79047
# Shear Modulus (GPa) = 27.36563 29.50609 28.43586
#
# Velocity S-wave (km/s) = 3.82038 3.96697 3.89436
# Velocity P-wave (km/s) = 7.28379 7.44538 7.36503
#
# Compressibility (1/GPa) = 0.01587653
#
# Stress axis : x y z
#
# Youngs Moduli (GPa) = 78.56154 117.10295 92.95341
#
# Poissons Ratio (x) = 0.29629 0.30307
# Poissons Ratio (y) = 0.19878 0.21233
# Poissons Ratio (z) = 0.25615 0.26750
#
# Static dielectric constant tensor:
#      x y z
#    x 3.389380 0.000000 0.000000 
#    y 0.000000 4.008700 0.000000 
#    z 0.000000 0.000000 3.165370 
# 
# 
# High freq. dielectric constant tensor:
#      x y z
#    x 1.727520 0.000000 0.000000 
#    y 0.000000 1.747940 0.000000 
#    z 0.000000 0.000000 1.701990 
# 
# From -- ./inp_files/43366.got.cif
#   From: 2010.03.12/outbox.cif.g09.slc.cpg/sg72_22_cif.got.tgz:43366.got - 2010.04.16 14:54:00.
