data_PCOD8293406
_publ_section_title
;
Structure prediction by ZEFSAII (Michael W. Deem and Ramdas Pophale) SiO2 
 PCOD8293406
Probable space group: I B A M
;
_chemical_formula_sum "Si O2"
_cell_formula_units_Z 112
_cell_length_a 14.375449
_cell_length_b 21.654832
_cell_length_c 18.742961
_cell_angle_alpha 90.000000
_cell_angle_beta 90.000000
_cell_angle_gamma 90.000000
_cell_volume 5834.645018
_symmetry_space_group_name_H-M "I B A M"
_symmetry_group_IT_number 72
_symmetry_cell_setting 'orthorhombic'
loop_
_space_group_symop_operation_xyz
x,y,z
-x,-y,z
x,-y,1/2-z
-x,y,1/2-z
-x,-y,-z
x,y,-z
-x,y,1/2+z
x,-y,1/2+z
1/2+x,1/2+y,1/2+z
1/2-x,1/2-y,1/2+z
1/2+x,1/2-y,-z
1/2-x,1/2+y,-z
1/2-x,1/2-y,1/2-z
1/2+x,1/2+y,1/2-z
1/2-x,1/2+y,z
1/2+x,1/2-y,z
loop_
_atom_site_type_symbol
_atom_site_label
_atom_site_fract_x
_atom_site_fract_y
_atom_site_fract_z
Si Si1 0.000440 0.654469 0.669481
Si Si2 0.349902 0.774887 0.084174
Si Si3 0.147665 0.554581 0.332103
Si Si4 0.712973 0.378787 0.416836
Si Si5 0.823577 0.415534 0.822988
Si Si6 0.476724 0.432654 0.082735
Si Si7 0.333590 0.634143 0.917841
O O1 0.051961 0.704266 0.619557
O O2 0.049140 0.587995 0.661542
O O3 0.000000 0.680079 0.750000
O O4 0.893024 0.639101 0.650054
O O5 0.261428 0.815294 0.112011
O O6 0.326876 0.705172 0.105761
O O7 0.365239 0.782200 0.000000
O O8 0.214257 0.567219 0.399431
O O9 0.198035 0.584458 0.261815
O O10 0.128966 0.482095 0.333862
O O11 0.698694 0.371095 0.500000
O O12 0.613286 0.398130 0.382240
O O13 0.729630 0.408064 0.867470
O O14 0.500000 0.500000 0.117523
O O15 0.561297 0.386542 0.094301
O O16 0.454054 0.444383 0.000000
O O17 0.303077 0.624896 0.000000
#
# Coordination Sequence:
#
# PCOD8293406 Si02
#       7
#    16  16  16  16  16  16  16
#     4   9  18  34  54  76 102 137 173 207 255 315
#     4   9  19  35  52  74 104 135 172 217 259 302
#     4   9  18  33  52  77 105 131 166 212 259 313
#     4   9  17  32  53  71  94 133 172 208 257 310
#     4  10  19  32  52  76 104 136 167 207 263 315
#     4   9  17  30  49  71  94 125 165 205 247 297
#     4  10  21  35  51  74 103 133 171 216 256 304
#
# _framework density 19.195684
#
# number of rings (size 3 to 8) (size 9 to 14) (size 15 to 20)
#    0.000    2.714    0.000    1.286    0.000    5.143 
#    0.000   11.429    0.000    6.857    0.000    0.000 
#    0.000    0.000    0.000    0.000    0.000    0.000 
#
# Total GULP energy -693887.188001 kJ/mol
# GULP energy per Si atom -12390.842643 kJ/mol
# Density = 1.915199 g / cm^3
# Si number density = 19.195684 Si / 1000 Ang^3
#
#
#
# Elastic Constant Matrix: (Units=GPa)
#
#
# Indices 1 2 3 4 5 6 
#
# 1 80.2746 27.7256 18.2361 0.0000 0.0000 0.0000
# 2 27.7256 87.3777 22.8070 0.0000 0.0000 0.0000
# 3 18.2361 22.8070 25.2627 0.0000 0.0000 0.0000
# 4 0.0000 0.0000 0.0000 19.3530 0.0000 0.0000
# 5 0.0000 0.0000 0.0000 0.0000 26.4237 0.0000
# 6 0.0000 0.0000 0.0000 0.0000 0.0000 17.4532
#
#
#
# Elastic Compliance Matrix: (Units=1/GPa)
#
#
# Indices 1 2 3 4 5 6 
#
# 1 0.015335 -0.002586 -0.008735 0.000000 0.000000 0.000000
# 2 -0.002586 0.015409 -0.012044 0.000000 0.000000 0.000000
# 3 -0.008735 -0.012044 0.056763 0.000000 0.000000 0.000000
# 4 0.000000 0.000000 0.000000 0.051672 0.000000 0.000000
# 5 0.000000 0.000000 0.000000 0.000000 0.037845 0.000000
# 6 0.000000 0.000000 0.000000 0.000000 0.000000 0.057296
#
#
# Mechanical properties :
#
#
# Convention : Reuss Voigt Hill
#
# Bulk Modulus (GPa) = 24.52411 36.71693 30.62052
# Shear Modulus (GPa) = 16.96975 20.92240 18.94607
#
# Velocity S-wave (km/s) = 2.97651 3.30503 3.14506
# Velocity P-wave (km/s) = 4.96149 5.80805 5.40138
#
# Compressibility (1/GPa) = 0.04077619
#
# Stress axis : x y z
#
# Youngs Moduli (GPa) = 65.21170 64.89763 17.61704
#
# Poissons Ratio (x) = 0.16781 0.15388
# Poissons Ratio (y) = 0.16863 0.21219
# Poissons Ratio (z) = 0.56962 0.78166
#
# Static dielectric constant tensor:
#      x y z
#    x 3.533450 0.000000 0.000000 
#    y 0.000000 3.499440 0.000000 
#    z 0.000000 0.000000 3.338990 
# 
# 
# High freq. dielectric constant tensor:
#      x y z
#    x 1.747660 0.000000 0.000000 
#    y 0.000000 1.745220 0.000000 
#    z 0.000000 0.000000 1.716690 
# 
# From -- ./inp_files/37329.got.cif
#   From: 2010.03.12/outbox.cif.g09.slc.cpg/sg72_19_cif.got.tgz:37329.got - 2010.04.16 14:54:00.
