data_PCOD8293781
_publ_section_title
;
Structure prediction by ZEFSAII (Michael W. Deem and Ramdas Pophale) SiO2 
 PCOD8293781
Probable space group: I B A M
;
_chemical_formula_sum "Si O2"
_cell_formula_units_Z 44
_cell_length_a 5.076154
_cell_length_b 12.297225
_cell_length_c 29.106345
_cell_angle_alpha 90.000000
_cell_angle_beta 90.000000
_cell_angle_gamma 90.000000
_cell_volume 1816.893961
_symmetry_space_group_name_H-M "I B A M"
_symmetry_group_IT_number 72
_symmetry_cell_setting 'orthorhombic'
loop_
_space_group_symop_operation_xyz
x,y,z
-x,-y,z
x,-y,1/2-z
-x,y,1/2-z
-x,-y,-z
x,y,-z
-x,y,1/2+z
x,-y,1/2+z
1/2+x,1/2+y,1/2+z
1/2-x,1/2-y,1/2+z
1/2+x,1/2-y,-z
1/2-x,1/2+y,-z
1/2-x,1/2-y,1/2-z
1/2+x,1/2+y,1/2-z
1/2-x,1/2+y,z
1/2+x,1/2-y,z
loop_
_atom_site_type_symbol
_atom_site_label
_atom_site_fract_x
_atom_site_fract_y
_atom_site_fract_z
Si Si1 0.500000 0.000000 0.250000
Si Si2 0.749809 0.425043 0.500000
Si Si3 0.240155 0.817191 0.192606
Si Si4 0.749957 0.576638 0.098889
O O1 0.307537 0.929226 0.217977
O O2 0.500000 0.500000 0.500000
O O3 0.747449 0.360326 0.451186
O O4 0.000000 0.500000 0.500000
O O5 0.448993 0.723431 0.206930
O O6 0.254835 0.831656 0.137750
O O7 0.500000 0.500000 0.105797
O O8 0.000000 0.500000 0.103841
#
# Coordination Sequence:
#
# PCOD8293781 Si02
#       4
#     4   8  16  16
#     4  12  28  50  72  90 140 178 220 286 356 390
#     4   8  16  30  60  94 124 171 219 248 316 400
#     4  12  27  45  69 102 130 171 228 275 333 408
#     4  10  19  39  65  94 133 175 212 267 328 386
#
# _framework density 24.217154000000001
#
# number of rings (size 3 to 8) (size 9 to 14) (size 15 to 20)
#    0.000    1.455    1.818    3.273    0.000    1.455 
#    0.000    1.818    0.000    0.000    0.000    0.000 
#    0.000    0.000    0.000    0.000    0.000    0.000 
#
# Total GULP energy -272670.134840 kJ/mol
# GULP energy per Si atom -12394.097038 kJ/mol
# Density = 2.416203 g / cm^3
# Si number density = 24.217154 Si / 1000 Ang^3
#
#
#
# Elastic Constant Matrix: (Units=GPa)
#
#
# Indices 1 2 3 4 5 6 
#
# 1 134.4646 2.3113 -34.6224 0.0000 0.0000 0.0000
# 2 2.3113 59.3408 11.6133 0.0000 0.0000 0.0000
# 3 -34.6224 11.6133 128.9685 0.0000 0.0000 0.0000
# 4 0.0000 0.0000 0.0000 36.0597 0.0000 0.0000
# 5 0.0000 0.0000 0.0000 0.0000 4.0773 0.0000
# 6 0.0000 0.0000 0.0000 0.0000 0.0000 25.0122
#
#
#
# Elastic Compliance Matrix: (Units=1/GPa)
#
#
# Indices 1 2 3 4 5 6 
#
# 1 0.008022 -0.000747 0.002221 0.000000 0.000000 0.000000
# 2 -0.000747 0.017224 -0.001751 0.000000 0.000000 0.000000
# 3 0.002221 -0.001751 0.008508 0.000000 0.000000 0.000000
# 4 0.000000 0.000000 0.000000 0.027732 0.000000 0.000000
# 5 0.000000 0.000000 0.000000 0.000000 0.245261 0.000000
# 6 0.000000 0.000000 0.000000 0.000000 0.000000 0.039981
#
#
# Mechanical properties :
#
#
# Convention : Reuss Voigt Hill
#
# Bulk Modulus (GPa) = 30.12299 31.26428 30.69363
# Shear Modulus (GPa) = 13.95293 35.92795 24.94044
#
# Velocity S-wave (km/s) = 2.40293 3.85590 3.21263
# Velocity P-wave (km/s) = 4.49049 5.72380 5.14424
#
# Compressibility (1/GPa) = 0.03319724
#
# Stress axis : x y z
#
# Youngs Moduli (GPa) = 124.66444 58.05962 117.54050
#
# Poissons Ratio (x) = 0.04337 -0.26102
# Poissons Ratio (y) = 0.09313 0.20587
# Poissons Ratio (z) = -0.27684 0.10169
#
# Static dielectric constant tensor:
#      x y z
#    x 4.486660 0.000000 0.000000 
#    y 0.000000 3.709080 0.000000 
#    z 0.000000 0.000000 5.673120 
# 
# 
# High freq. dielectric constant tensor:
#      x y z
#    x 1.986060 0.000000 0.000000 
#    y 0.000000 1.903940 0.000000 
#    z 0.000000 0.000000 2.008140 
# 
# From -- ./inp_files/46338.got.cif
#   From: 2010.03.12/outbox.cif.g09.slc.cpg/sg72_24_cif.got.tgz:46338.got - 2010.04.16 14:54:00.
