data_PCOD8293276
_publ_section_title
;
Structure prediction by ZEFSAII (Michael W. Deem and Ramdas Pophale) SiO2 
 PCOD8293276
Probable space group: I B A M
;
_chemical_formula_sum "Si O2"
_cell_formula_units_Z 84
_cell_length_a 25.482590
_cell_length_b 8.905522
_cell_length_c 19.605788
_cell_angle_alpha 90.000000
_cell_angle_beta 90.000000
_cell_angle_gamma 90.000000
_cell_volume 4449.254515
_symmetry_space_group_name_H-M "I B A M"
_symmetry_group_IT_number 72
_symmetry_cell_setting 'orthorhombic'
loop_
_space_group_symop_operation_xyz
x,y,z
-x,-y,z
x,-y,1/2-z
-x,y,1/2-z
-x,-y,-z
x,y,-z
-x,y,1/2+z
x,-y,1/2+z
1/2+x,1/2+y,1/2+z
1/2-x,1/2-y,1/2+z
1/2+x,1/2-y,-z
1/2-x,1/2+y,-z
1/2-x,1/2-y,1/2-z
1/2+x,1/2+y,1/2-z
1/2-x,1/2+y,z
1/2+x,1/2-y,z
loop_
_atom_site_type_symbol
_atom_site_label
_atom_site_fract_x
_atom_site_fract_y
_atom_site_fract_z
Si Si1 0.982694 0.345051 0.620562
Si Si2 0.188414 0.660723 0.919137
Si Si3 0.583473 0.324718 0.418669
Si Si4 0.209884 0.670741 0.418431
Si Si5 0.500000 0.000000 0.250000
Si Si6 0.887895 0.849711 0.078221
O O1 0.967102 0.389815 0.699130
O O2 0.933080 0.274366 0.583915
O O3 0.000000 0.500000 0.581914
O O4 0.031209 0.229924 0.618981
O O5 0.131522 0.718499 0.895923
O O6 0.198748 0.495179 0.888907
O O7 0.233520 0.773489 0.892113
O O8 0.191434 0.656723 0.000000
O O9 0.574223 0.323788 0.500000
O O10 0.595228 0.491584 0.389268
O O11 0.207220 0.666504 0.500000
O O12 0.165466 0.784067 0.389141
O O13 0.876218 0.884014 0.000000
#
# Coordination Sequence:
#
# PCOD8293276 Si02
#       6
#    16  16  16  16   4  16
#     4  10  20  36  52  68  97 125 171 208 257 296
#     4   9  16  26  41  66 104 143 169 192 229 288
#     4  10  19  30  48  77 108 134 161 199 249 306
#     4   9  16  26  41  66 104 143 169 192 229 288
#     4   8  24  40  52  68  92 124 178 222 260 286
#     4  10  19  30  48  77 108 134 161 199 249 306
#
# _framework density 18.879567000000002
#
# number of rings (size 3 to 8) (size 9 to 14) (size 15 to 20)
#    0.571    1.905    0.000    3.429    0.000    9.143 
#    0.000    1.905    0.000    0.000    0.000    1.333 
#    0.000    0.000    0.000    0.000    0.000    0.000 
#
# Total GULP energy -520443.840884 kJ/mol
# GULP energy per Si atom -12391.520021 kJ/mol
# Density = 1.883660 g / cm^3
# Si number density = 18.879567 Si / 1000 Ang^3
#
#
#
# Elastic Constant Matrix: (Units=GPa)
#
#
# Indices 1 2 3 4 5 6 
#
# 1 91.1165 7.5466 7.1615 0.0000 0.0000 0.0000
# 2 7.5466 91.7863 12.2369 0.0000 0.0000 0.0000
# 3 7.1615 12.2369 20.4372 0.0000 0.0000 0.0000
# 4 0.0000 0.0000 0.0000 14.1727 0.0000 0.0000
# 5 0.0000 0.0000 0.0000 0.0000 0.8156 0.0000
# 6 0.0000 0.0000 0.0000 0.0000 0.0000 40.3484
#
#
#
# Elastic Compliance Matrix: (Units=1/GPa)
#
#
# Indices 1 2 3 4 5 6 
#
# 1 0.011302 -0.000436 -0.003699 0.000000 0.000000 0.000000
# 2 -0.000436 0.011857 -0.006947 0.000000 0.000000 0.000000
# 3 -0.003699 -0.006947 0.054386 0.000000 0.000000 0.000000
# 4 0.000000 0.000000 0.000000 0.070558 0.000000 0.000000
# 5 0.000000 0.000000 0.000000 0.000000 1.226131 0.000000
# 6 0.000000 0.000000 0.000000 0.000000 0.000000 0.024784
#
#
# Mechanical properties :
#
#
# Convention : Reuss Voigt Hill
#
# Bulk Modulus (GPa) = 18.05679 28.58111 23.31895
# Shear Modulus (GPa) = 3.47308 22.82700 13.15004
#
# Velocity S-wave (km/s) = 1.35779 3.48096 2.64203
# Velocity P-wave (km/s) = 3.47032 5.59711 4.65675
#
# Compressibility (1/GPa) = 0.05538082
#
# Stress axis : x y z
#
# Youngs Moduli (GPa) = 88.48129 84.33954 18.38714
#
# Poissons Ratio (x) = 0.03678 0.06802
# Poissons Ratio (y) = 0.03858 0.12773
# Poissons Ratio (z) = 0.32731 0.58587
#
# Static dielectric constant tensor:
#      x y z
#    x 3.519790 0.000000 0.000000 
#    y 0.000000 3.815940 0.000000 
#    z 0.000000 0.000000 2.705470 
# 
# 
# High freq. dielectric constant tensor:
#      x y z
#    x 1.740920 0.000000 0.000000 
#    y 0.000000 1.757010 0.000000 
#    z 0.000000 0.000000 1.640650 
# 
# From -- ./inp_files/45896.got.cif
#   From: 2010.03.12/outbox.cif.g09.slc.cpg/sg72_23_cif.got.tgz:45896.got - 2010.04.16 14:54:00.
