data_PCOD8293121
_publ_section_title
;
Structure prediction by ZEFSAII (Michael W. Deem and Ramdas Pophale) SiO2 
 PCOD8293121
Probable space group: I B A M
;
_chemical_formula_sum "Si O2"
_cell_formula_units_Z 112
_cell_length_a 12.751739
_cell_length_b 25.377217
_cell_length_c 12.480379
_cell_angle_alpha 90.000000
_cell_angle_beta 90.000000
_cell_angle_gamma 90.000000
_cell_volume 4038.696169
_symmetry_space_group_name_H-M "I B A M"
_symmetry_group_IT_number 72
_symmetry_cell_setting 'orthorhombic'
loop_
_space_group_symop_operation_xyz
x,y,z
-x,-y,z
x,-y,1/2-z
-x,y,1/2-z
-x,-y,-z
x,y,-z
-x,y,1/2+z
x,-y,1/2+z
1/2+x,1/2+y,1/2+z
1/2-x,1/2-y,1/2+z
1/2+x,1/2-y,-z
1/2-x,1/2+y,-z
1/2-x,1/2-y,1/2-z
1/2+x,1/2+y,1/2-z
1/2-x,1/2+y,z
1/2+x,1/2-y,z
loop_
_atom_site_type_symbol
_atom_site_label
_atom_site_fract_x
_atom_site_fract_y
_atom_site_fract_z
Si Si1 0.343916 0.909260 0.127984
Si Si2 0.799624 0.473849 0.127179
Si Si3 0.931049 0.625879 0.372365
Si Si4 0.231688 0.711590 0.127455
Si Si5 0.564110 0.545924 0.643499
Si Si6 0.943100 0.162270 0.615876
Si Si7 0.827187 0.826685 0.371933
O O1 0.448339 0.878237 0.171083
O O2 0.242364 0.876230 0.166636
O O3 0.342072 0.969768 0.171585
O O4 0.347141 0.911472 0.000000
O O5 0.863888 0.423612 0.174638
O O6 0.680829 0.473093 0.165037
O O7 0.809200 0.471848 0.000000
O O8 0.935335 0.621581 0.500000
O O9 0.873120 0.679957 0.336904
O O10 0.338378 0.684557 0.177340
O O11 0.227833 0.772241 0.166208
O O12 0.240705 0.707646 0.000000
O O13 0.500000 0.500000 0.578917
O O14 0.500000 0.556056 0.750000
O O15 0.570402 0.601206 0.583645
O O16 0.949540 0.191971 0.500000
O O17 0.054477 0.169986 0.678036
O O18 0.837345 0.827228 0.500000
#
# Coordination Sequence:
#
# PCOD8293121 Si02
#       7
#    16  16  16  16  16  16  16
#     4   9  17  27  44  74 112 145 177 221 269 321
#     4  10  18  32  52  78 108 141 184 227 272 328
#     4   9  16  27  45  73 108 145 178 216 265 319
#     4   9  17  28  45  72 107 144 180 221 267 317
#     4  11  23  36  52  76 106 143 180 224 275 328
#     4  10  19  34  54  78 108 143 183 224 273 328
#     4   9  18  28  44  74 109 144 177 220 272 317
#
# _framework density 27.731721
#
# number of rings (size 3 to 8) (size 9 to 14) (size 15 to 20)
#    0.000    2.429    1.429    1.714    2.000    4.000 
#    0.000    0.000    0.000    0.857    0.000   17.000 
#    0.000    0.000    0.000    0.000    0.000    0.571 
#
# Total GULP energy -694378.894366 kJ/mol
# GULP energy per Si atom -12399.623114 kJ/mol
# Density = 2.766860 g / cm^3
# Si number density = 27.731721 Si / 1000 Ang^3
#
#
#
# Elastic Constant Matrix: (Units=GPa)
#
#
# Indices 1 2 3 4 5 6 
#
# 1 221.1608 97.4592 12.3389 -0.0001 0.0005 0.0000
# 2 97.4592 211.8470 17.7048 0.0006 -0.0001 0.0000
# 3 12.3389 17.7048 40.0661 0.0043 -0.0044 -0.0005
# 4 -0.0001 0.0006 0.0043 -1.4302 -0.0025 -0.0005
# 5 0.0005 -0.0001 -0.0044 -0.0025 -244.9232 0.0018
# 6 0.0000 0.0000 -0.0005 -0.0005 0.0018 56.1306
#
#
#
# Elastic Compliance Matrix: (Units=1/GPa)
#
#
# Indices 1 2 3 4 5 6 
#
# 1 0.005686 -0.002564 -0.000618 -0.000003 0.000000 0.000000
# 2 -0.002564 0.006058 -0.001887 -0.000003 0.000000 0.000000
# 3 -0.000618 -0.001887 0.025983 0.000077 0.000000 0.000000
# 4 -0.000003 -0.000003 0.000077 -0.699210 0.000007 -0.000007
# 5 0.000000 0.000000 0.000000 0.000007 -0.004083 0.000000
# 6 0.000000 0.000000 0.000000 -0.000007 0.000000 0.017816
#
#
# Mechanical properties :
#
#
# Convention : Reuss Voigt Hill
#
# Bulk Modulus (GPa) = 36.24761 80.89776 58.57269
# Shear Modulus (GPa) = -7.95651 -15.00649 -11.48150
#
# Velocity S-wave (km/s) = -1.69568 -2.32875 -2.03696
# Velocity P-wave (km/s) = 3.04391 4.69086 3.95408
#
# Compressibility (1/GPa) = 0.02758802
#
# Stress axis : x y z
#
# Youngs Moduli (GPa) = 175.86929 165.07779 38.48673
#
# Poissons Ratio (x) = 0.42329 0.02378
# Poissons Ratio (y) = 0.45096 0.07263
# Poissons Ratio (z) = 0.10869 0.31153
#
# Static dielectric constant tensor:
#      x y z
#    x 4.175940 0.000000 0.000010 
#    y 0.000000 5.261410 0.000000 
#    z 0.000010 0.000000 5.359030 
# 
# 
# High freq. dielectric constant tensor:
#      x y z
#    x 2.122920 0.000000 0.000000 
#    y 0.000000 2.108190 0.000000 
#    z 0.000000 0.000000 2.197350 
# 
# From -- ./inp_files/37416.got.cif
#   From: 2010.03.12/outbox.cif.g09.slc.cpg/sg72_19_cif.got.tgz:37416.got - 2010.04.16 14:54:00.
