data_PCOD8293642
_publ_section_title
;
Structure prediction by ZEFSAII (Michael W. Deem and Ramdas Pophale) SiO2 
 PCOD8293642
Probable space group: I B A M
;
_chemical_formula_sum "Si O2"
_cell_formula_units_Z 88
_cell_length_a 28.729312
_cell_length_b 11.394341
_cell_length_c 15.211240
_cell_angle_alpha 90.000000
_cell_angle_beta 90.000000
_cell_angle_gamma 90.000000
_cell_volume 4979.423412
_symmetry_space_group_name_H-M "I B A M"
_symmetry_group_IT_number 72
_symmetry_cell_setting 'orthorhombic'
loop_
_space_group_symop_operation_xyz
x,y,z
-x,-y,z
x,-y,1/2-z
-x,y,1/2-z
-x,-y,-z
x,y,-z
-x,y,1/2+z
x,-y,1/2+z
1/2+x,1/2+y,1/2+z
1/2-x,1/2-y,1/2+z
1/2+x,1/2-y,-z
1/2-x,1/2+y,-z
1/2-x,1/2-y,1/2-z
1/2+x,1/2+y,1/2-z
1/2-x,1/2+y,z
1/2+x,1/2-y,z
loop_
_atom_site_type_symbol
_atom_site_label
_atom_site_fract_x
_atom_site_fract_y
_atom_site_fract_z
Si Si1 0.876825 0.806491 0.349061
Si Si2 0.946326 0.000009 0.896490
Si Si3 0.726887 0.999969 0.500000
Si Si4 0.862508 0.629773 0.000000
Si Si5 0.862501 0.370268 0.000000
Si Si6 0.697950 0.499996 0.648284
Si Si7 0.376822 0.306513 0.349049
O O1 0.923371 0.883763 0.356101
O O2 0.879554 0.696389 0.413344
O O3 0.832354 0.885535 0.374338
O O4 0.872341 0.758667 0.250003
O O5 0.923353 0.883845 0.856036
O O6 0.938387 0.999945 0.000000
O O7 0.000000 0.000000 0.869612
O O8 0.693877 0.115773 0.500000
O O9 0.693871 0.884173 0.500000
O O10 0.756730 0.999967 0.411562
O O11 0.879571 0.696430 0.913348
O O12 0.885896 0.500017 0.000000
O O13 0.713426 0.500000 0.750000
O O14 0.667661 0.614486 0.625665
#
# Coordination Sequence:
#
# PCOD8293642 Si02
#       7
#    16  16   8   8   8  16  16
#     4  10  20  36  57  80 112 143 171 220 276 323
#     4  10  19  34  63  94 113 129 162 216 276 333
#     4  10  22  34  52  72 106 146 188 230 258 306
#     4  10  23  37  50  74 105 151 197 216 256 309
#     4  10  23  37  50  74 105 151 197 216 256 309
#     4   9  19  33  53  82 106 133 177 230 284 320
#     4  10  20  36  57  80 112 143 171 220 276 323
#
# _framework density 17.672729
#
# number of rings (size 3 to 8) (size 9 to 14) (size 15 to 20)
#    0.545    1.636    1.818    2.727    2.545    6.545 
#    0.000    3.636    0.000    2.182    0.000    2.545 
#    0.000    0.000    0.000    0.000    0.000    0.000 
#
# Total GULP energy -545590.266189 kJ/mol
# GULP energy per Si atom -12399.778777 kJ/mol
# Density = 1.763250 g / cm^3
# Si number density = 17.672729 Si / 1000 Ang^3
#
#
#
# Elastic Constant Matrix: (Units=GPa)
#
#
# Indices 1 2 3 4 5 6 
#
# 1 93.4526 36.2158 34.5909 0.0000 0.0000 0.0000
# 2 36.2158 130.5447 68.4324 0.0000 0.0000 0.0000
# 3 34.5909 68.4324 116.8546 0.0000 0.0000 0.0000
# 4 0.0000 0.0000 0.0000 0.9260 0.0000 0.0000
# 5 0.0000 0.0000 0.0000 0.0000 8.4626 0.0000
# 6 0.0000 0.0000 0.0000 0.0000 0.0000 2.0332
#
#
#
# Elastic Compliance Matrix: (Units=1/GPa)
#
#
# Indices 1 2 3 4 5 6 
#
# 1 0.012438 -0.002194 -0.002397 0.000000 0.000000 0.000000
# 2 -0.002194 0.011441 -0.006050 0.000000 0.000000 0.000000
# 3 -0.002397 -0.006050 0.012810 0.000000 0.000000 0.000000
# 4 0.000000 0.000000 0.000000 1.079922 0.000000 0.000000
# 5 0.000000 0.000000 0.000000 0.000000 0.118167 0.000000
# 6 0.000000 0.000000 0.000000 0.000000 0.000000 0.491830
#
#
# Mechanical properties :
#
#
# Convention : Reuss Voigt Hill
#
# Bulk Modulus (GPa) = 64.90873 68.81445 66.86159
# Shear Modulus (GPa) = 2.85221 15.72522 9.28871
#
# Velocity S-wave (km/s) = 1.27177 2.98619 2.29508
# Velocity P-wave (km/s) = 6.24215 7.13530 6.70362
#
# Compressibility (1/GPa) = 0.01540625
#
# Stress axis : x y z
#
# Youngs Moduli (GPa) = 80.39802 87.40875 78.06175
#
# Poissons Ratio (x) = 0.19178 0.18711
# Poissons Ratio (y) = 0.17640 0.47230
# Poissons Ratio (z) = 0.19271 0.52885
#
# Static dielectric constant tensor:
#      x y z
#    x 3.103760 0.000000 0.000000 
#    y 0.000000 3.150520 0.000000 
#    z 0.000000 0.000000 3.330520 
# 
# 
# High freq. dielectric constant tensor:
#      x y z
#    x 1.664810 0.000000 0.000000 
#    y 0.000000 1.664840 0.000000 
#    z 0.000000 0.000000 1.702730 
# 
# From -- ./inp_files/26284.got.cif
#   From: 2010.03.12/outbox.cif.g09.slc.cpg/sg72_14_cif.got.tgz:26284.got - 2010.04.16 14:54:00.
