data_PCOD8293776
_publ_section_title
;
Structure prediction by ZEFSAII (Michael W. Deem and Ramdas Pophale) SiO2 
 PCOD8293776
Probable space group: I B A M
;
_chemical_formula_sum "Si O2"
_cell_formula_units_Z 96
_cell_length_a 20.067406
_cell_length_b 13.130970
_cell_length_c 17.852131
_cell_angle_alpha 90.000000
_cell_angle_beta 90.000000
_cell_angle_gamma 90.000000
_cell_volume 4704.116963
_symmetry_space_group_name_H-M "I B A M"
_symmetry_group_IT_number 72
_symmetry_cell_setting 'orthorhombic'
loop_
_space_group_symop_operation_xyz
x,y,z
-x,-y,z
x,-y,1/2-z
-x,y,1/2-z
-x,-y,-z
x,y,-z
-x,y,1/2+z
x,-y,1/2+z
1/2+x,1/2+y,1/2+z
1/2-x,1/2-y,1/2+z
1/2+x,1/2-y,-z
1/2-x,1/2+y,-z
1/2-x,1/2-y,1/2-z
1/2+x,1/2+y,1/2-z
1/2-x,1/2+y,z
1/2+x,1/2-y,z
loop_
_atom_site_type_symbol
_atom_site_label
_atom_site_fract_x
_atom_site_fract_y
_atom_site_fract_z
Si Si1 0.094911 0.229598 0.913485
Si Si2 0.160421 0.607039 0.916423
Si Si3 0.197913 0.781603 0.188429
Si Si4 0.423358 0.616505 0.768789
Si Si5 0.710449 0.888219 0.415114
Si Si6 0.491860 0.108988 0.084634
O O1 0.092752 0.133168 0.857412
O O2 0.163866 0.289658 0.906181
O O3 0.036557 0.302378 0.880139
O O4 0.082685 0.194272 0.000000
O O5 0.198455 0.680808 0.861619
O O6 0.169807 0.489547 0.891706
O O7 0.084139 0.641537 0.914018
O O8 0.189095 0.622511 0.000000
O O9 0.250000 0.750000 0.250000
O O10 0.125526 0.811003 0.220521
O O11 0.225969 0.875732 0.139094
O O12 0.407271 0.500000 0.750000
O O13 0.500000 0.643231 0.750000
O O14 0.736432 0.897764 0.500000
O O15 0.500000 0.000000 0.126601
O O16 0.520215 0.095559 0.000000
#
# Coordination Sequence:
#
# PCOD8293776 Si02
#       6
#    16  16  16  16  16  16
#     4  10  19  38  67  98 129 169 213 258 325 390
#     4  10  21  38  61  93 127 161 203 258 321 387
#     4  12  25  40  63  91 124 166 216 263 325 378
#     4  11  26  48  66  90 131 177 221 272 318 370
#     4  10  21  38  63  96 129 163 209 264 324 389
#     4   9  15  29  59  96 128 154 188 246 315 383
#
# _framework density 20.407655999999999
#
# number of rings (size 3 to 8) (size 9 to 14) (size 15 to 20)
#    0.000    1.667    3.333    1.500    2.333    0.000 
#    0.000    4.167    0.000    0.000    0.000    0.000 
#    0.000    0.000    0.000    0.000    0.000    0.000 
#
# Total GULP energy -595067.481462 kJ/mol
# GULP energy per Si atom -12397.239197 kJ/mol
# Density = 2.036121 g / cm^3
# Si number density = 20.407656 Si / 1000 Ang^3
#
#
#
# Elastic Constant Matrix: (Units=GPa)
#
#
# Indices 1 2 3 4 5 6 
#
# 1 97.8395 30.6775 47.4309 0.0000 0.0000 0.0000
# 2 30.6775 100.4366 61.7261 0.0000 0.0000 0.0000
# 3 47.4309 61.7261 114.5852 0.0000 0.0000 0.0000
# 4 0.0000 0.0000 0.0000 27.0549 0.0000 0.0000
# 5 0.0000 0.0000 0.0000 0.0000 32.0467 0.0000
# 6 0.0000 0.0000 0.0000 0.0000 0.0000 30.9102
#
#
#
# Elastic Compliance Matrix: (Units=1/GPa)
#
#
# Indices 1 2 3 4 5 6 
#
# 1 0.012851 -0.000981 -0.004791 0.000000 0.000000 0.000000
# 2 -0.000981 0.014959 -0.007652 0.000000 0.000000 0.000000
# 3 -0.004791 -0.007652 0.014833 0.000000 0.000000 0.000000
# 4 0.000000 0.000000 0.000000 0.036962 0.000000 0.000000
# 5 0.000000 0.000000 0.000000 0.000000 0.031204 0.000000
# 6 0.000000 0.000000 0.000000 0.000000 0.000000 0.032352
#
#
# Mechanical properties :
#
#
# Convention : Reuss Voigt Hill
#
# Bulk Modulus (GPa) = 63.31442 65.83672 64.57557
# Shear Modulus (GPa) = 28.52675 29.53749 29.03212
#
# Velocity S-wave (km/s) = 3.74283 3.80856 3.77584
# Velocity P-wave (km/s) = 7.05483 7.18826 7.12185
#
# Compressibility (1/GPa) = 0.01579419
#
# Stress axis : x y z
#
# Youngs Moduli (GPa) = 77.81496 66.84912 67.41871
#
# Poissons Ratio (x) = 0.06556 0.32302
# Poissons Ratio (y) = 0.07631 0.51591
# Poissons Ratio (z) = 0.37283 0.51156
#
# Static dielectric constant tensor:
#      x y z
#    x 3.703230 0.000000 0.000000 
#    y 0.000000 3.626650 0.000000 
#    z 0.000000 0.000000 3.721190 
# 
# 
# High freq. dielectric constant tensor:
#      x y z
#    x 1.801920 0.000000 0.000000 
#    y 0.000000 1.787410 0.000000 
#    z 0.000000 0.000000 1.787170 
# 
# From -- ./inp_files/24137.got.cif
#   From: 2010.03.12/outbox.cif.g09.slc.cpg/sg72_13_cif.got.tgz:24137.got - 2010.04.16 14:54:00.
