data_PCOD8293971
_publ_section_title
;
Structure prediction by ZEFSAII (Michael W. Deem and Ramdas Pophale) SiO2 
 PCOD8293971
Probable space group: I B A M
;
_chemical_formula_sum "Si O2"
_cell_formula_units_Z 72
_cell_length_a 13.725101
_cell_length_b 24.961914
_cell_length_c 9.460874
_cell_angle_alpha 90.000000
_cell_angle_beta 90.000000
_cell_angle_gamma 90.000000
_cell_volume 3241.340758
_symmetry_space_group_name_H-M "I B A M"
_symmetry_group_IT_number 72
_symmetry_cell_setting 'orthorhombic'
loop_
_space_group_symop_operation_xyz
x,y,z
-x,-y,z
x,-y,1/2-z
-x,y,1/2-z
-x,-y,-z
x,y,-z
-x,y,1/2+z
x,-y,1/2+z
1/2+x,1/2+y,1/2+z
1/2-x,1/2-y,1/2+z
1/2+x,1/2-y,-z
1/2-x,1/2+y,-z
1/2-x,1/2-y,1/2-z
1/2+x,1/2+y,1/2-z
1/2-x,1/2+y,z
1/2+x,1/2-y,z
loop_
_atom_site_type_symbol
_atom_site_label
_atom_site_fract_x
_atom_site_fract_y
_atom_site_fract_z
Si Si1 0.500000 0.272524 0.750000
Si Si2 0.156795 0.150799 0.654652
Si Si3 0.131312 0.680298 0.343213
Si Si4 0.694967 0.449008 0.164821
Si Si5 0.413442 0.080857 0.836634
O O1 0.436332 0.310662 0.849957
O O2 0.576441 0.237024 0.838097
O O3 0.164467 0.123215 0.500000
O O4 0.252871 0.186957 0.683121
O O5 0.146437 0.104590 0.772610
O O6 0.113687 0.655671 0.500000
O O7 0.090542 0.641405 0.222296
O O8 0.653308 0.500000 0.250000
O O9 0.811287 0.448378 0.188108
O O10 0.667328 0.453133 0.000000
O O11 0.500000 0.050703 0.750000
O O12 0.441964 0.082877 0.000000
#
# Coordination Sequence:
#
# PCOD8293971 Si02
#       5
#     8  16  16  16  16
#     4  12  22  36  63  94 123 164 208 250 300 360
#     4  10  23  41  61  90 126 163 205 253 302 362
#     4  10  21  37  58  86 125 167 205 249 301 358
#     4  10  22  41  64  88 117 157 201 254 313 365
#     4  10  20  34  56  87 122 158 200 247 300 367
#
# _framework density 22.213031000000001
#
# number of rings (size 3 to 8) (size 9 to 14) (size 15 to 20)
#    0.000    1.778    1.111    2.667    0.000    5.778 
#    0.000    7.222    0.000    2.667    0.000    0.000 
#    0.000    0.000    0.000    0.000    0.000    0.000 
#
# Total GULP energy -446261.494179 kJ/mol
# GULP energy per Si atom -12396.152616 kJ/mol
# Density = 2.216247 g / cm^3
# Si number density = 22.213031 Si / 1000 Ang^3
#
#
#
# Elastic Constant Matrix: (Units=GPa)
#
#
# Indices 1 2 3 4 5 6 
#
# 1 74.6926 39.2469 26.3092 0.0002 0.0000 0.0000
# 2 39.2469 114.4922 59.3303 -0.0005 0.0001 0.0001
# 3 26.3092 59.3303 154.6001 -0.0012 0.0006 0.0005
# 4 0.0002 -0.0005 -0.0012 29.4050 0.0002 0.0002
# 5 0.0000 0.0001 0.0006 0.0002 19.9219 -0.0002
# 6 0.0000 0.0001 0.0005 0.0002 -0.0002 16.9184
#
#
#
# Elastic Compliance Matrix: (Units=1/GPa)
#
#
# Indices 1 2 3 4 5 6 
#
# 1 0.016407 -0.005214 -0.000791 0.000000 0.000000 0.000000
# 2 -0.005214 0.012559 -0.003933 0.000000 0.000000 0.000000
# 3 -0.000791 -0.003933 0.008112 0.000000 0.000000 0.000000
# 4 0.000000 0.000000 0.000000 0.034008 0.000000 0.000000
# 5 0.000000 0.000000 0.000000 0.000000 0.050196 0.000001
# 6 0.000000 0.000000 0.000000 0.000000 0.000001 0.059107
#
#
# Mechanical properties :
#
#
# Convention : Reuss Voigt Hill
#
# Bulk Modulus (GPa) = 58.13034 65.95086 62.04060
# Shear Modulus (GPa) = 24.27201 27.84231 26.05716
#
# Velocity S-wave (km/s) = 3.30918 3.54421 3.42871
# Velocity P-wave (km/s) = 6.38961 6.81933 6.60796
#
# Compressibility (1/GPa) = 0.01720272
#
# Stress axis : x y z
#
# Youngs Moduli (GPa) = 60.95124 79.62138 123.27265
#
# Poissons Ratio (x) = 0.41516 0.09751
# Poissons Ratio (y) = 0.31781 0.48478
# Poissons Ratio (z) = 0.04821 0.31312
#
# Static dielectric constant tensor:
#      x y z
#    x 4.066870 0.000000 0.000000 
#    y 0.000000 3.615490 0.000000 
#    z 0.000000 0.000000 3.940890 
# 
# 
# High freq. dielectric constant tensor:
#      x y z
#    x 1.875660 0.000000 0.000000 
#    y 0.000000 1.852690 0.000000 
#    z 0.000000 0.000000 1.877550 
# 
# From -- ./inp_files/3700.got.cif
#   From: 2010.03.12/outbox.cif.g09.slc.cpg/sg72_2_cif.got.tgz:3700.got - 2010.04.16 14:54:00.
