data_PCOD8293383
_publ_section_title
;
Structure prediction by ZEFSAII (Michael W. Deem and Ramdas Pophale) SiO2 
 PCOD8293383
Probable space group: I B A M
;
_chemical_formula_sum "Si O2"
_cell_formula_units_Z 80
_cell_length_a 25.298224
_cell_length_b 19.681112
_cell_length_c 8.875512
_cell_angle_alpha 90.000000
_cell_angle_beta 90.000000
_cell_angle_gamma 90.000000
_cell_volume 4419.092395
_symmetry_space_group_name_H-M "I B A M"
_symmetry_group_IT_number 72
_symmetry_cell_setting 'orthorhombic'
loop_
_space_group_symop_operation_xyz
x,y,z
-x,-y,z
x,-y,1/2-z
-x,y,1/2-z
-x,-y,-z
x,y,-z
-x,y,1/2+z
x,-y,1/2+z
1/2+x,1/2+y,1/2+z
1/2-x,1/2-y,1/2+z
1/2+x,1/2-y,-z
1/2-x,1/2+y,-z
1/2-x,1/2-y,1/2-z
1/2+x,1/2+y,1/2-z
1/2-x,1/2+y,z
1/2+x,1/2-y,z
loop_
_atom_site_type_symbol
_atom_site_label
_atom_site_fract_x
_atom_site_fract_y
_atom_site_fract_z
Si Si1 0.158623 0.327571 0.321303
Si Si2 0.554301 0.172229 0.170250
Si Si3 0.118981 0.796480 0.670235
Si Si4 0.359966 0.569202 0.326077
Si Si5 0.764016 0.569783 0.175064
O O1 0.159455 0.328266 0.500000
O O2 0.103784 0.361594 0.259979
O O3 0.162137 0.249578 0.260680
O O4 0.208322 0.367762 0.257262
O O5 0.500000 0.152769 0.250000
O O6 0.563613 0.254273 0.169940
O O7 0.553236 0.143850 0.000000
O O8 0.139418 0.808418 0.500000
O O9 0.109400 0.868016 0.751095
O O10 0.380028 0.500000 0.250000
O O11 0.374933 0.565969 0.500000
O O12 0.297984 0.579604 0.298684
O O13 0.783695 0.500000 0.250000
O O14 0.779153 0.568633 0.000000
#
# Coordination Sequence:
#
# PCOD8293383 Si02
#       5
#    16  16  16  16  16
#     4  10  19  32  51  75 100 131 167 206 249 292
#     4   9  18  32  52  76 100 128 161 204 251 298
#     4   9  19  33  50  74 101 129 166 208 247 292
#     4  10  20  33  51  72 100 136 170 204 247 296
#     4  10  20  34  50  72 101 135 171 205 245 295
#
# _framework density 18.103263999999999
#
# number of rings (size 3 to 8) (size 9 to 14) (size 15 to 20)
#    1.200    1.200    0.000    3.600    0.000    3.200 
#    0.000    0.000    0.000    1.200    0.000    8.400 
#    0.000    0.000    0.000    0.000    0.000    0.000 
#
# Total GULP energy -495757.606748 kJ/mol
# GULP energy per Si atom -12393.940169 kJ/mol
# Density = 1.806206 g / cm^3
# Si number density = 18.103264 Si / 1000 Ang^3
#
#
#
# Elastic Constant Matrix: (Units=GPa)
#
#
# Indices 1 2 3 4 5 6 
#
# 1 15.4381 -15.5997 7.7408 0.0000 0.0000 0.0000
# 2 -15.5997 31.4080 3.5559 0.0000 0.0000 0.0000
# 3 7.7408 3.5559 136.3337 0.0000 0.0000 0.0000
# 4 0.0000 0.0000 0.0000 35.3116 0.0000 0.0000
# 5 0.0000 0.0000 0.0000 0.0000 27.6055 0.0000
# 6 0.0000 0.0000 0.0000 0.0000 0.0000 9.7846
#
#
#
# Elastic Compliance Matrix: (Units=1/GPa)
#
#
# Indices 1 2 3 4 5 6 
#
# 1 0.142346 0.071827 -0.009955 0.000000 0.000000 0.000000
# 2 0.071827 0.068177 -0.005856 0.000000 0.000000 0.000000
# 3 -0.009955 -0.005856 0.008053 0.000000 0.000000 0.000000
# 4 0.000000 0.000000 0.000000 0.028319 0.000000 0.000000
# 5 0.000000 0.000000 0.000000 0.000000 0.036225 0.000000
# 6 0.000000 0.000000 0.000000 0.000000 0.000000 0.102202
#
#
# Mechanical properties :
#
#
# Convention : Reuss Voigt Hill
#
# Bulk Modulus (GPa) = 3.02475 19.39708 11.21092
# Shear Modulus (GPa) = 13.03806 27.03921 20.03863
#
# Velocity S-wave (km/s) = 2.68657 3.86892 3.33063
# Velocity P-wave (km/s) = 3.36126 5.54039 4.58225
#
# Compressibility (1/GPa) = 0.33060563
#
# Stress axis : x y z
#
# Youngs Moduli (GPa) = 7.02516 14.66772 124.17822
#
# Poissons Ratio (x) = -1.05354 1.23626
# Poissons Ratio (y) = -0.50460 0.72724
# Poissons Ratio (z) = 0.06994 0.08590
#
# Static dielectric constant tensor:
#      x y z
#    x 2.937660 0.000000 0.000000 
#    y 0.000000 3.157510 0.000000 
#    z 0.000000 0.000000 3.457340 
# 
# 
# High freq. dielectric constant tensor:
#      x y z
#    x 1.664590 0.000000 0.000000 
#    y 0.000000 1.681910 0.000000 
#    z 0.000000 0.000000 1.724170 
# 
# From -- ./inp_files/6252.got.cif
#   From: 2010.03.12/outbox.cif.g09.slc.cpg/sg72_4_cif.got.tgz:6252.got - 2010.04.16 14:54:00.
