data_PCOD8293631
_publ_section_title
;
Structure prediction by ZEFSAII (Michael W. Deem and Ramdas Pophale) SiO2 
 PCOD8293631
Probable space group: I B A M
;
_chemical_formula_sum "Si O2"
_cell_formula_units_Z 116
_cell_length_a 11.141803
_cell_length_b 31.534002
_cell_length_c 17.260570
_cell_angle_alpha 90.000000
_cell_angle_beta 90.000000
_cell_angle_gamma 90.000000
_cell_volume 6064.425980
_symmetry_space_group_name_H-M "I B A M"
_symmetry_group_IT_number 72
_symmetry_cell_setting 'orthorhombic'
loop_
_space_group_symop_operation_xyz
x,y,z
-x,-y,z
x,-y,1/2-z
-x,y,1/2-z
-x,-y,-z
x,y,-z
-x,y,1/2+z
x,-y,1/2+z
1/2+x,1/2+y,1/2+z
1/2-x,1/2-y,1/2+z
1/2+x,1/2-y,-z
1/2-x,1/2+y,-z
1/2-x,1/2-y,1/2-z
1/2+x,1/2+y,1/2-z
1/2-x,1/2+y,z
1/2+x,1/2-y,z
loop_
_atom_site_type_symbol
_atom_site_label
_atom_site_fract_x
_atom_site_fract_y
_atom_site_fract_z
Si Si1 0.803362 0.953619 0.345273
Si Si2 0.931515 0.179999 0.409249
Si Si3 0.249639 0.958627 0.591340
Si Si4 0.514159 0.588373 0.588073
Si Si5 0.720849 0.811057 0.205014
Si Si6 0.000000 0.000000 0.750000
Si Si7 0.598352 0.272250 0.312199
Si Si8 0.136309 0.593257 0.224165
O O1 0.915816 0.968662 0.296383
O O2 0.713515 0.927091 0.292843
O O3 0.873713 0.924249 0.406707
O O4 0.733096 0.991846 0.387491
O O5 0.904697 0.180082 0.500000
O O6 0.963042 0.133810 0.372449
O O7 0.811817 0.194875 0.366218
O O8 0.046126 0.210627 0.393678
O O9 0.276500 0.951561 0.500000
O O10 0.113130 0.946237 0.616998
O O11 0.342262 0.931093 0.642638
O O12 0.546289 0.595576 0.500000
O O13 0.613742 0.778513 0.184494
O O14 0.778930 0.796261 0.287051
O O15 0.668562 0.857869 0.212551
O O16 0.500000 0.285759 0.250000
O O17 0.000000 0.588226 0.250000
#
# Coordination Sequence:
#
# PCOD8293631 Si02
#       8
#    16  16  16  16  16   4  16  16
#     4  12  21  37  57  88 118 154 203 258 305 352
#     4  10  20  34  56  88 119 150 189 241 304 365
#     4  11  22  39  60  85 117 155 195 247 312 366
#     4  10  19  34  59  89 120 148 189 247 314 367
#     4  10  20  37  59  82 114 154 197 241 293 357
#     4  12  20  32  56  88 116 140 194 262 308 344
#     4   9  19  36  58  85 111 144 188 245 301 352
#     4  12  25  40  59  84 117 163 208 246 286 359
#
# _framework density 19.127942999999998
#
# number of rings (size 3 to 8) (size 9 to 14) (size 15 to 20)
#    0.000    1.379    4.138    1.655    0.000    2.759 
#    0.000    2.069    0.000    0.828    0.000    0.000 
#    0.000    0.000    0.000    0.000    0.000    0.000 
#
# Total GULP energy -718916.855132 kJ/mol
# GULP energy per Si atom -12395.118192 kJ/mol
# Density = 1.908441 g / cm^3
# Si number density = 19.127943 Si / 1000 Ang^3
#
#
#
# Elastic Constant Matrix: (Units=GPa)
#
#
# Indices 1 2 3 4 5 6 
#
# 1 90.1246 31.2080 36.9179 0.0001 0.0001 0.0000
# 2 31.2080 98.7154 32.6676 0.0002 0.0001 0.0000
# 3 36.9179 32.6676 83.1754 0.0012 0.0006 0.0002
# 4 0.0001 0.0002 0.0012 29.9194 -0.0001 -0.0001
# 5 0.0001 0.0001 0.0006 -0.0001 24.2242 -0.0001
# 6 0.0000 0.0000 0.0002 -0.0001 -0.0001 35.4464
#
#
#
# Elastic Compliance Matrix: (Units=1/GPa)
#
#
# Indices 1 2 3 4 5 6 
#
# 1 0.014187 -0.002760 -0.005213 0.000000 0.000000 0.000000
# 2 -0.002760 0.012180 -0.003559 0.000000 0.000000 0.000000
# 3 -0.005213 -0.003559 0.015734 -0.000001 0.000000 0.000000
# 4 0.000000 0.000000 -0.000001 0.033423 0.000000 0.000000
# 5 0.000000 0.000000 0.000000 0.000000 0.041281 0.000000
# 6 0.000000 0.000000 0.000000 0.000000 0.000000 0.028212
#
#
# Mechanical properties :
#
#
# Convention : Reuss Voigt Hill
#
# Bulk Modulus (GPa) = 52.52642 52.62250 52.57446
# Shear Modulus (GPa) = 28.66531 29.33280 28.99906
#
# Velocity S-wave (km/s) = 3.87539 3.92025 3.89788
# Velocity P-wave (km/s) = 6.89529 6.93265 6.91400
#
# Compressibility (1/GPa) = 0.01903804
#
# Stress axis : x y z
#
# Youngs Moduli (GPa) = 70.48792 82.09913 63.55527
#
# Poissons Ratio (x) = 0.22659 0.33131
# Poissons Ratio (y) = 0.19454 0.22619
# Poissons Ratio (z) = 0.36745 0.29218
#
# Static dielectric constant tensor:
#      x y z
#    x 3.799530 0.000000 0.000010 
#    y 0.000000 3.677760 0.000000 
#    z 0.000010 0.000000 1.915390 
# 
# 
# High freq. dielectric constant tensor:
#      x y z
#    x 1.727360 0.000000 0.000000 
#    y 0.000000 1.755940 0.000000 
#    z 0.000000 0.000000 1.735600 
# 
# From -- ./inp_files/29791.got.cif
#   From: 2010.03.12/outbox.cif.g09.slc.cpg/sg72_15_cif.got.tgz:29791.got - 2010.04.16 14:54:00.
