data_PCOD8293504
_publ_section_title
;
Structure prediction by ZEFSAII (Michael W. Deem and Ramdas Pophale) SiO2 
 PCOD8293504
Probable space group: I B A M
;
_chemical_formula_sum "Si O2"
_cell_formula_units_Z 96
_cell_length_a 24.266826
_cell_length_b 8.946524
_cell_length_c 22.646641
_cell_angle_alpha 90.000000
_cell_angle_beta 90.000000
_cell_angle_gamma 90.000000
_cell_volume 4916.670487
_symmetry_space_group_name_H-M "I B A M"
_symmetry_group_IT_number 72
_symmetry_cell_setting 'orthorhombic'
loop_
_space_group_symop_operation_xyz
x,y,z
-x,-y,z
x,-y,1/2-z
-x,y,1/2-z
-x,-y,-z
x,y,-z
-x,y,1/2+z
x,-y,1/2+z
1/2+x,1/2+y,1/2+z
1/2-x,1/2-y,1/2+z
1/2+x,1/2-y,-z
1/2-x,1/2+y,-z
1/2-x,1/2-y,1/2-z
1/2+x,1/2+y,1/2-z
1/2-x,1/2+y,z
1/2+x,1/2-y,z
loop_
_atom_site_type_symbol
_atom_site_label
_atom_site_fract_x
_atom_site_fract_y
_atom_site_fract_z
Si Si1 0.935168 0.329930 0.243158
Si Si2 0.178880 0.422592 0.070019
Si Si3 0.620115 0.542187 0.068593
Si Si4 0.091375 0.749439 0.366894
Si Si5 0.525921 0.657287 0.862640
Si Si6 0.284125 0.755729 0.430344
O O1 0.913174 0.500000 0.250000
O O2 0.903767 0.242564 0.295631
O O3 0.929882 0.239813 0.181369
O O4 0.000000 0.328182 0.250000
O O5 0.121720 0.394150 0.104753
O O6 0.223022 0.295392 0.088229
O O7 0.203351 0.579031 0.093605
O O8 0.167473 0.424714 0.000000
O O9 0.621554 0.391737 0.106104
O O10 0.561725 0.624920 0.078889
O O11 0.670386 0.640287 0.093268
O O12 0.626680 0.502006 0.000000
O O13 0.025786 0.738732 0.381767
O O14 0.500000 0.500000 0.836952
O O15 0.288786 0.757959 0.500000
#
# Coordination Sequence:
#
# PCOD8293504 Si02
#       6
#    16  16  16  16  16  16
#     4   9  19  35  54  77 107 143 190 232 267 318
#     4  10  19  33  54  80 110 144 186 232 281 334
#     4  10  20  34  53  82 116 148 181 224 277 337
#     4  10  20  32  54  82 108 145 185 229 278 324
#     4   9  20  35  56  81 111 147 187 227 276 333
#     4   9  19  34  53  78 110 149 188 226 273 334
#
# _framework density 19.525409
#
# number of rings (size 3 to 8) (size 9 to 14) (size 15 to 20)
#    0.000    2.500    0.000    1.500    2.333   14.000 
#    0.000    0.000    0.000    4.000    0.000    0.000 
#    0.000    0.000    0.000    0.000    0.000    0.000 
#
# Total GULP energy -594696.443501 kJ/mol
# GULP energy per Si atom -12389.509240 kJ/mol
# Density = 1.948097 g / cm^3
# Si number density = 19.525409 Si / 1000 Ang^3
#
#
#
# Elastic Constant Matrix: (Units=GPa)
#
#
# Indices 1 2 3 4 5 6 
#
# 1 75.2403 33.0190 38.7372 0.0000 0.0000 0.0000
# 2 33.0190 98.7894 44.2512 0.0000 0.0000 0.0000
# 3 38.7372 44.2512 68.1121 0.0000 0.0000 0.0000
# 4 0.0000 0.0000 0.0000 25.2999 0.0000 0.0000
# 5 0.0000 0.0000 0.0000 0.0000 21.8881 0.0000
# 6 0.0000 0.0000 0.0000 0.0000 0.0000 32.7955
#
#
#
# Elastic Compliance Matrix: (Units=1/GPa)
#
#
# Indices 1 2 3 4 5 6 
#
# 1 0.019110 -0.002142 -0.009476 0.000000 0.000000 0.000000
# 2 -0.002142 0.014518 -0.008213 0.000000 0.000000 0.000000
# 3 -0.009476 -0.008213 0.025407 0.000000 0.000000 0.000000
# 4 0.000000 0.000000 0.000000 0.039526 0.000000 0.000000
# 5 0.000000 0.000000 0.000000 0.000000 0.045687 0.000000
# 6 0.000000 0.000000 0.000000 0.000000 0.000000 0.030492
#
#
# Mechanical properties :
#
#
# Convention : Reuss Voigt Hill
#
# Bulk Modulus (GPa) = 51.62535 52.68408 52.15472
# Shear Modulus (GPa) = 22.63870 24.40566 23.52218
#
# Velocity S-wave (km/s) = 3.40876 3.53929 3.47464
# Velocity P-wave (km/s) = 6.48000 6.61385 6.54726
#
# Compressibility (1/GPa) = 0.01937033
#
# Stress axis : x y z
#
# Youngs Moduli (GPa) = 52.32908 68.88148 39.35879
#
# Poissons Ratio (x) = 0.14757 0.37298
# Poissons Ratio (y) = 0.11211 0.32327
# Poissons Ratio (z) = 0.49589 0.56575
#
# Static dielectric constant tensor:
#      x y z
#    x 3.564430 0.000000 0.000000 
#    y 0.000000 3.902210 0.000000 
#    z 0.000000 0.000000 3.528550 
# 
# 
# High freq. dielectric constant tensor:
#      x y z
#    x 1.748980 0.000000 0.000000 
#    y 0.000000 1.769000 0.000000 
#    z 0.000000 0.000000 1.724750 
# 
# From -- ./inp_files/42418.got.cif
#   From: 2010.03.12/outbox.cif.g09.slc.cpg/sg72_22_cif.got.tgz:42418.got - 2010.04.16 14:54:00.
