data_PCOD8293768
_publ_section_title
;
Structure prediction by ZEFSAII (Michael W. Deem and Ramdas Pophale) SiO2 
 PCOD8293768
Probable space group: I B A M
;
_chemical_formula_sum "Si O2"
_cell_formula_units_Z 96
_cell_length_a 27.734383
_cell_length_b 10.103900
_cell_length_c 17.431216
_cell_angle_alpha 90.000000
_cell_angle_beta 90.000000
_cell_angle_gamma 90.000000
_cell_volume 4884.670041
_symmetry_space_group_name_H-M "I B A M"
_symmetry_group_IT_number 72
_symmetry_cell_setting 'orthorhombic'
loop_
_space_group_symop_operation_xyz
x,y,z
-x,-y,z
x,-y,1/2-z
-x,y,1/2-z
-x,-y,-z
x,y,-z
-x,y,1/2+z
x,-y,1/2+z
1/2+x,1/2+y,1/2+z
1/2-x,1/2-y,1/2+z
1/2+x,1/2-y,-z
1/2-x,1/2+y,-z
1/2-x,1/2-y,1/2-z
1/2+x,1/2+y,1/2-z
1/2-x,1/2+y,z
1/2+x,1/2-y,z
loop_
_atom_site_type_symbol
_atom_site_label
_atom_site_fract_x
_atom_site_fract_y
_atom_site_fract_z
Si Si1 0.457651 0.402348 0.909610
Si Si2 0.357046 0.032574 0.091240
Si Si3 0.538467 0.103119 0.409150
Si Si4 0.318318 0.754466 0.090791
Si Si5 0.708049 0.272572 0.590865
Si Si6 0.857172 0.992568 0.659611
O O1 0.500000 0.500000 0.882184
O O2 0.474384 0.254041 0.887067
O O3 0.408151 0.436283 0.867947
O O4 0.448135 0.414774 0.000000
O O5 0.409518 0.065571 0.125058
O O6 0.320381 0.144214 0.120397
O O7 0.340600 0.890753 0.122426
O O8 0.357294 0.032667 0.000000
O O9 0.539558 0.086944 0.500000
O O10 0.500000 0.000000 0.373504
O O11 0.262855 0.750558 0.116732
O O12 0.349600 0.638764 0.127282
O O13 0.322826 0.742885 0.000000
O O14 0.703700 0.294215 0.500000
O O15 0.686681 0.401988 0.630917
O O16 0.856920 0.000000 0.750000
#
# Coordination Sequence:
#
# PCOD8293768 Si02
#       6
#    16  16  16  16  16  16
#     4  10  21  38  63  88 112 150 201 254 301 352
#     4   9  17  31  55  84 113 142 181 246 303 337
#     4   9  17  30  53  86 114 135 175 240 304 348
#     4  10  21  36  61  91 115 148 201 253 289 343
#     4  10  19  38  63  86 115 153 201 250 295 342
#     4  12  25  39  57  86 127 168 195 236 300 368
#
# _framework density 19.653324000000001
#
# number of rings (size 3 to 8) (size 9 to 14) (size 15 to 20)
#    0.000    2.000    1.667    2.500    2.333    3.667 
#    0.000    0.833    0.000    0.000    0.000    0.000 
#    0.000    0.000    0.000    0.000    0.000    0.000 
#
# Total GULP energy -595286.972206 kJ/mol
# GULP energy per Si atom -12401.811921 kJ/mol
# Density = 1.960859 g / cm^3
# Si number density = 19.653324 Si / 1000 Ang^3
#
#
#
# Elastic Constant Matrix: (Units=GPa)
#
#
# Indices 1 2 3 4 5 6 
#
# 1 120.4944 66.0516 18.7975 0.0000 0.0000 0.0000
# 2 66.0516 171.6335 23.7026 0.0000 0.0000 0.0000
# 3 18.7975 23.7026 37.3344 0.0000 0.0000 0.0000
# 4 0.0000 0.0000 0.0000 7.0558 0.0000 0.0000
# 5 0.0000 0.0000 0.0000 0.0000 6.9562 0.0000
# 6 0.0000 0.0000 0.0000 0.0000 0.0000 48.1503
#
#
#
# Elastic Compliance Matrix: (Units=1/GPa)
#
#
# Indices 1 2 3 4 5 6 
#
# 1 0.010831 -0.003743 -0.003077 0.000000 0.000000 0.000000
# 2 -0.003743 0.007680 -0.002991 0.000000 0.000000 0.000000
# 3 -0.003077 -0.002991 0.030233 0.000000 0.000000 0.000000
# 4 0.000000 0.000000 0.000000 0.141727 0.000000 0.000000
# 5 0.000000 0.000000 0.000000 0.000000 0.143758 0.000000
# 6 0.000000 0.000000 0.000000 0.000000 0.000000 0.020768
#
#
# Mechanical properties :
#
#
# Convention : Reuss Voigt Hill
#
# Bulk Modulus (GPa) = 34.33864 60.72952 47.53408
# Shear Modulus (GPa) = 13.00975 27.15982 20.08478
#
# Velocity S-wave (km/s) = 2.57565 3.72149 3.20027
# Velocity P-wave (km/s) = 5.13375 7.03089 6.15584
#
# Compressibility (1/GPa) = 0.02912171
#
# Stress axis : x y z
#
# Youngs Moduli (GPa) = 92.32647 130.20765 33.07635
#
# Poissons Ratio (x) = 0.48741 0.10177
# Poissons Ratio (y) = 0.34561 0.09894
# Poissons Ratio (z) = 0.28407 0.38947
#
# Static dielectric constant tensor:
#      x y z
#    x 3.779850 0.000000 0.000000 
#    y 0.000000 3.890270 0.000000 
#    z 0.000000 0.000000 3.139300 
# 
# 
# High freq. dielectric constant tensor:
#      x y z
#    x 1.778830 0.000000 0.000000 
#    y 0.000000 1.787390 0.000000 
#    z 0.000000 0.000000 1.711810 
# 
# From -- ./inp_files/40660.got.cif
#   From: 2010.03.12/outbox.cif.g09.slc.cpg/sg72_21_cif.got.tgz:40660.got - 2010.04.16 14:54:00.
