data_PCOD8293927
_publ_section_title
;
Structure prediction by ZEFSAII (Michael W. Deem and Ramdas Pophale) SiO2 
 PCOD8293927
Probable space group: I B A M
;
_chemical_formula_sum "Si O2"
_cell_formula_units_Z 116
_cell_length_a 26.345499
_cell_length_b 26.434246
_cell_length_c 8.882284
_cell_angle_alpha 90.000000
_cell_angle_beta 90.000000
_cell_angle_gamma 90.000000
_cell_volume 6185.830437
_symmetry_space_group_name_H-M "I B A M"
_symmetry_group_IT_number 72
_symmetry_cell_setting 'orthorhombic'
loop_
_space_group_symop_operation_xyz
x,y,z
-x,-y,z
x,-y,1/2-z
-x,y,1/2-z
-x,-y,-z
x,y,-z
-x,y,1/2+z
x,-y,1/2+z
1/2+x,1/2+y,1/2+z
1/2-x,1/2-y,1/2+z
1/2+x,1/2-y,-z
1/2-x,1/2+y,-z
1/2-x,1/2-y,1/2-z
1/2+x,1/2+y,1/2-z
1/2-x,1/2+y,z
1/2+x,1/2-y,z
loop_
_atom_site_type_symbol
_atom_site_label
_atom_site_fract_x
_atom_site_fract_y
_atom_site_fract_z
Si Si1 0.257371 0.869172 0.328101
Si Si2 0.051499 0.709167 0.821882
Si Si3 0.847815 0.322529 0.675509
Si Si4 0.817565 0.947495 0.678565
Si Si5 0.000000 0.000000 0.750000
Si Si6 0.824237 0.790294 0.831424
Si Si7 0.421308 0.580093 0.167119
Si Si8 0.079819 0.178308 0.325000
O O1 0.263059 0.887845 0.500000
O O2 0.312806 0.865208 0.252557
O O3 0.222649 0.906930 0.234882
O O4 0.231632 0.813792 0.320504
O O5 0.097053 0.676592 0.752180
O O6 0.055697 0.768272 0.775779
O O7 0.000000 0.687669 0.750000
O O8 0.051662 0.702166 0.000000
O O9 0.853561 0.334747 0.500000
O O10 0.821188 0.268762 0.707140
O O11 0.816148 0.950933 0.500000
O O12 0.875127 0.935552 0.726030
O O13 0.800117 0.000000 0.750000
O O14 0.963904 0.036584 0.652692
O O15 0.860383 0.819846 0.714657
O O16 0.846765 0.797454 0.000000
O O17 0.445661 0.632115 0.232701
O O18 0.399882 0.589884 0.000000
O O19 0.072593 0.167398 0.500000
#
# Coordination Sequence:
#
# PCOD8293927 Si02
#       8
#    16  16  16  16   4  16  16  16
#     4  11  21  35  56  83 113 148 183 226 280 337
#     4  10  21  37  55  79 110 149 188 228 276 330
#     4  10  20  34  53  81 114 149 187 229 272 330
#     4  12  25  42  63  84 108 142 184 232 288 347
#     4  12  30  44  60  78 102 136 190 248 304 348
#     4   9  18  32  52  77 109 146 181 221 274 331
#     4  12  25  42  60  77 102 136 181 238 297 348
#     4  10  21  35  54  78 104 138 183 230 279 338
#
# _framework density 18.752535999999999
#
# number of rings (size 3 to 8) (size 9 to 14) (size 15 to 20)
#    0.000    1.379    2.069    3.931    0.966    4.414 
#    0.000    0.000    0.000    0.000    0.000    0.000 
#    0.000    0.552    0.000    5.517    0.000    3.310 
#
# Total GULP energy -719242.324658 kJ/mol
# GULP energy per Si atom -12400.729735 kJ/mol
# Density = 1.870985 g / cm^3
# Si number density = 18.752536 Si / 1000 Ang^3
#
#
#
# Elastic Constant Matrix: (Units=GPa)
#
#
# Indices 1 2 3 4 5 6 
#
# 1 122.8045 39.7062 55.7832 0.0000 0.0000 0.0000
# 2 39.7062 49.6616 31.7560 0.0000 0.0000 0.0000
# 3 55.7832 31.7560 133.0995 0.0000 0.0000 0.0000
# 4 0.0000 0.0000 0.0000 21.7702 0.0000 0.0000
# 5 0.0000 0.0000 0.0000 0.0000 26.9240 0.0000
# 6 0.0000 0.0000 0.0000 0.0000 0.0000 21.8655
#
#
#
# Elastic Compliance Matrix: (Units=1/GPa)
#
#
# Indices 1 2 3 4 5 6 
#
# 1 0.012067 -0.007569 -0.003252 0.000000 0.000000 0.000000
# 2 -0.007569 0.028509 -0.003630 0.000000 0.000000 0.000000
# 3 -0.003252 -0.003630 0.009742 0.000000 0.000000 0.000000
# 4 0.000000 0.000000 0.000000 0.045934 0.000000 0.000000
# 5 0.000000 0.000000 0.000000 0.000000 0.037142 0.000000
# 6 0.000000 0.000000 0.000000 0.000000 0.000000 0.045734
#
#
# Mechanical properties :
#
#
# Convention : Reuss Voigt Hill
#
# Bulk Modulus (GPa) = 46.69056 62.22848 54.45952
# Shear Modulus (GPa) = 23.23765 25.99996 24.61880
#
# Velocity S-wave (km/s) = 3.52401 3.72758 3.62722
# Velocity P-wave (km/s) = 6.44286 7.19601 6.82983
#
# Compressibility (1/GPa) = 0.02141761
#
# Stress axis : x y z
#
# Youngs Moduli (GPa) = 82.86833 35.07676 102.64862
#
# Poissons Ratio (x) = 0.26550 0.33378
# Poissons Ratio (y) = 0.62723 0.37258
# Poissons Ratio (z) = 0.26946 0.12732
#
# Static dielectric constant tensor:
#      x y z
#    x 3.280330 0.000000 0.000000 
#    y 0.000000 3.295340 0.000000 
#    z 0.000000 0.000000 3.488570 
# 
# 
# High freq. dielectric constant tensor:
#      x y z
#    x 1.716350 0.000000 0.000000 
#    y 0.000000 1.691540 0.000000 
#    z 0.000000 0.000000 1.743140 
# 
# From -- ./inp_files/7321.got.cif
#   From: 2010.03.12/outbox.cif.g09.slc.cpg/sg72_4_cif.got.tgz:7321.got - 2010.04.16 14:54:00.
