data_PCOD8293158
_publ_section_title
;
Structure prediction by ZEFSAII (Michael W. Deem and Ramdas Pophale) SiO2 
 PCOD8293158
Probable space group: I B A M
;
_chemical_formula_sum "Si O2"
_cell_formula_units_Z 128
_cell_length_a 17.958890
_cell_length_b 23.420586
_cell_length_c 17.979259
_cell_angle_alpha 90.000000
_cell_angle_beta 90.000000
_cell_angle_gamma 90.000000
_cell_volume 7562.215274
_symmetry_space_group_name_H-M "I B A M"
_symmetry_group_IT_number 72
_symmetry_cell_setting 'orthorhombic'
loop_
_space_group_symop_operation_xyz
x,y,z
-x,-y,z
x,-y,1/2-z
-x,y,1/2-z
-x,-y,-z
x,y,-z
-x,y,1/2+z
x,-y,1/2+z
1/2+x,1/2+y,1/2+z
1/2-x,1/2-y,1/2+z
1/2+x,1/2-y,-z
1/2-x,1/2+y,-z
1/2-x,1/2-y,1/2-z
1/2+x,1/2+y,1/2-z
1/2-x,1/2+y,z
1/2+x,1/2-y,z
loop_
_atom_site_type_symbol
_atom_site_label
_atom_site_fract_x
_atom_site_fract_y
_atom_site_fract_z
Si Si1 0.859799 0.775481 0.085749
Si Si2 0.125708 0.710011 0.084335
Si Si3 0.626656 0.626102 0.180860
Si Si4 0.083213 0.020289 0.413416
Si Si5 0.257412 0.282453 0.171575
Si Si6 0.989191 0.771494 0.668671
Si Si7 0.256945 0.878325 0.416941
Si Si8 0.180272 0.950767 0.694944
O O1 0.821797 0.721387 0.128445
O O2 0.936017 0.791467 0.127379
O O3 0.805000 0.829187 0.092449
O O4 0.875150 0.759453 0.000000
O O5 0.182177 0.753316 0.120509
O O6 0.159250 0.646453 0.091092
O O7 0.046095 0.718590 0.123167
O O8 0.116122 0.729021 0.000000
O O9 0.605282 0.583584 0.114057
O O10 0.711125 0.652694 0.177594
O O11 0.564159 0.674250 0.179862
O O12 0.626934 0.591787 0.258675
O O13 0.100979 0.018122 0.500000
O O14 0.132341 0.973986 0.372492
O O15 0.000000 0.000000 0.395932
O O16 0.250000 0.250000 0.250000
O O17 0.000000 0.745308 0.750000
O O18 0.248432 0.905521 0.500000
O O19 0.249264 0.921509 0.347955
O O20 0.211282 0.000000 0.750000
#
# Coordination Sequence:
#
# PCOD8293158 Si02
#       8
#    16  16  16  16  16  16  16  16
#     4  10  20  31  48  73  99 128 165 204 240 289
#     4   9  18  32  48  68  97 129 162 200 243 296
#     4  10  22  33  52  68  97 138 172 203 262 305
#     4  10  23  37  48  67  96 131 174 223 259 291
#     4  10  18  33  50  72  98 128 166 210 248 308
#     4  11  21  31  47  74 102 133 165 203 245 303
#     4   9  17  31  51  69  91 129 166 198 240 291
#     4  10  20  34  48  68  92 123 165 216 251 288
#
# _framework density 16.926258000000001
#
# number of rings (size 3 to 8) (size 9 to 14) (size 15 to 20)
#    0.000    2.125    0.000    5.625    3.500    4.750 
#    0.000    0.000    0.000    0.000    0.000    0.000 
#    0.000   11.500    0.000   31.625    0.000    0.000 
#
# Total GULP energy -793018.332489 kJ/mol
# GULP energy per Si atom -12390.911445 kJ/mol
# Density = 1.688773 g / cm^3
# Si number density = 16.926258 Si / 1000 Ang^3
#
#
#
# Elastic Constant Matrix: (Units=GPa)
#
#
# Indices 1 2 3 4 5 6 
#
# 1 53.7696 37.0185 35.5712 0.0000 0.0000 0.0000
# 2 37.0185 69.0168 46.6980 0.0000 0.0000 0.0000
# 3 35.5712 46.6980 130.5214 0.0000 0.0000 0.0000
# 4 0.0000 0.0000 0.0000 22.9528 0.0000 0.0000
# 5 0.0000 0.0000 0.0000 0.0000 28.3403 0.0000
# 6 0.0000 0.0000 0.0000 0.0000 0.0000 19.5760
#
#
#
# Elastic Compliance Matrix: (Units=1/GPa)
#
#
# Indices 1 2 3 4 5 6 
#
# 1 0.030493 -0.014161 -0.003244 0.000000 0.000000 0.000000
# 2 -0.014161 0.025693 -0.005333 0.000000 0.000000 0.000000
# 3 -0.003244 -0.005333 0.010454 0.000000 0.000000 0.000000
# 4 0.000000 0.000000 0.000000 0.043568 0.000000 0.000000
# 5 0.000000 0.000000 0.000000 0.000000 0.035285 0.000000
# 6 0.000000 0.000000 0.000000 0.000000 0.000000 0.051083
#
#
# Mechanical properties :
#
#
# Convention : Reuss Voigt Hill
#
# Bulk Modulus (GPa) = 47.24937 54.65366 50.95151
# Shear Modulus (GPa) = 20.07176 23.10851 21.59014
#
# Velocity S-wave (km/s) = 3.44733 3.69893 3.57535
# Velocity P-wave (km/s) = 6.61974 7.11352 6.87107
#
# Compressibility (1/GPa) = 0.02116430
#
# Stress axis : x y z
#
# Youngs Moduli (GPa) = 32.79443 38.92089 95.65911
#
# Poissons Ratio (x) = 0.55114 0.31031
# Poissons Ratio (y) = 0.46439 0.51018
# Poissons Ratio (z) = 0.10638 0.20758
#
# Static dielectric constant tensor:
#      x y z
#    x 3.447690 0.000000 0.000000 
#    y 0.000000 3.257790 0.000000 
#    z 0.000000 0.000000 3.428290 
# 
# 
# High freq. dielectric constant tensor:
#      x y z
#    x 1.632870 0.000000 0.000000 
#    y 0.000000 1.621790 0.000000 
#    z 0.000000 0.000000 1.680940 
# 
# From -- ./inp_files/32047.got.cif
#   From: 2010.03.12/outbox.cif.g09.slc.cpg/sg72_17_cif.got.tgz:32047.got - 2010.04.16 14:54:00.
