data_PCOD8293712
_publ_section_title
;
Structure prediction by ZEFSAII (Michael W. Deem and Ramdas Pophale) SiO2 
 PCOD8293712
Probable space group: I B A M
;
_chemical_formula_sum "Si O2"
_cell_formula_units_Z 96
_cell_length_a 28.449032
_cell_length_b 20.004691
_cell_length_c 8.765580
_cell_angle_alpha 90.000000
_cell_angle_beta 90.000000
_cell_angle_gamma 90.000000
_cell_volume 4988.615124
_symmetry_space_group_name_H-M "I B A M"
_symmetry_group_IT_number 72
_symmetry_cell_setting 'orthorhombic'
loop_
_space_group_symop_operation_xyz
x,y,z
-x,-y,z
x,-y,1/2-z
-x,y,1/2-z
-x,-y,-z
x,y,-z
-x,y,1/2+z
x,-y,1/2+z
1/2+x,1/2+y,1/2+z
1/2-x,1/2-y,1/2+z
1/2+x,1/2-y,-z
1/2-x,1/2+y,-z
1/2-x,1/2-y,1/2-z
1/2+x,1/2+y,1/2-z
1/2-x,1/2+y,z
1/2+x,1/2-y,z
loop_
_atom_site_type_symbol
_atom_site_label
_atom_site_fract_x
_atom_site_fract_y
_atom_site_fract_z
Si Si1 0.094533 0.316222 0.171070
Si Si2 0.626054 0.573512 0.181610
Si Si3 0.948035 0.173346 0.319912
Si Si4 0.949610 0.436387 0.823840
Si Si5 0.289954 0.655020 0.179120
Si Si6 0.201981 0.693259 0.328295
O O1 0.080468 0.241106 0.216624
O O2 0.073959 0.365596 0.295286
O O3 0.149342 0.332356 0.178413
O O4 0.075568 0.331060 0.000000
O O5 0.623104 0.500000 0.250000
O O6 0.581205 0.613892 0.243647
O O7 0.675377 0.605982 0.231945
O O8 0.623819 0.570525 0.000000
O O9 0.951542 0.160480 0.500000
O O10 0.000000 0.177008 0.250000
O O11 0.921988 0.500000 0.750000
O O12 0.000000 0.432568 0.750000
O O13 0.953859 0.449915 0.000000
O O14 0.235187 0.644437 0.226542
O O15 0.300059 0.730701 0.232411
O O16 0.297779 0.643454 0.000000
O O17 0.221963 0.692409 0.500000
#
# Coordination Sequence:
#
# PCOD8293712 Si02
#       6
#    16  16  16  16  16  16
#     4  10  20  37  60  88 123 157 194 243 295 349
#     4  12  25  42  64  88 119 161 205 254 309 368
#     4  11  23  41  62  90 123 158 202 254 306 361
#     4  11  22  37  57  81 112 152 197 239 290 350
#     4  10  19  36  59  88 119 152 193 240 289 347
#     4   9  18  34  58  88 120 154 189 236 288 344
#
# _framework density 19.243815999999999
#
# number of rings (size 3 to 8) (size 9 to 14) (size 15 to 20)
#    0.000    1.500    1.667    5.000    0.000    4.333 
#    0.000    2.500    0.000    4.000    0.000    0.000 
#    0.000    0.000    0.000    0.000    0.000    0.000 
#
# Total GULP energy -595094.317879 kJ/mol
# GULP energy per Si atom -12397.798289 kJ/mol
# Density = 1.920002 g / cm^3
# Si number density = 19.243816 Si / 1000 Ang^3
#
#
#
# Elastic Constant Matrix: (Units=GPa)
#
#
# Indices 1 2 3 4 5 6 
#
# 1 106.3640 40.1164 51.4268 0.0000 0.0000 0.0000
# 2 40.1164 88.8028 54.5739 0.0000 0.0000 0.0000
# 3 51.4268 54.5739 143.2081 0.0000 0.0000 0.0000
# 4 0.0000 0.0000 0.0000 23.7333 0.0000 0.0000
# 5 0.0000 0.0000 0.0000 0.0000 26.9996 0.0000
# 6 0.0000 0.0000 0.0000 0.0000 0.0000 26.0776
#
#
#
# Elastic Compliance Matrix: (Units=1/GPa)
#
#
# Indices 1 2 3 4 5 6 
#
# 1 0.012239 -0.003693 -0.002988 0.000000 0.000000 0.000000
# 2 -0.003693 0.015819 -0.004702 0.000000 0.000000 0.000000
# 3 -0.002988 -0.004702 0.009848 0.000000 0.000000 0.000000
# 4 0.000000 0.000000 0.000000 0.042135 0.000000 0.000000
# 5 0.000000 0.000000 0.000000 0.000000 0.037038 0.000000
# 6 0.000000 0.000000 0.000000 0.000000 0.000000 0.038347
#
#
# Mechanical properties :
#
#
# Convention : Reuss Voigt Hill
#
# Bulk Modulus (GPa) = 66.05016 70.06767 68.05891
# Shear Modulus (GPa) = 27.28698 28.17927 27.73313
#
# Velocity S-wave (km/s) = 3.76967 3.83081 3.80036
# Velocity P-wave (km/s) = 7.30373 7.48708 7.39597
#
# Compressibility (1/GPa) = 0.01514001
#
# Stress axis : x y z
#
# Youngs Moduli (GPa) = 81.70554 63.21590 101.54649
#
# Poissons Ratio (x) = 0.23344 0.30341
# Poissons Ratio (y) = 0.30172 0.47749
# Poissons Ratio (z) = 0.24413 0.29725
#
# Static dielectric constant tensor:
#      x y z
#    x 3.649570 0.000000 0.000000 
#    y 0.000000 4.228200 0.000000 
#    z 0.000000 0.000000 3.672970 
# 
# 
# High freq. dielectric constant tensor:
#      x y z
#    x 1.752060 0.000000 0.000000 
#    y 0.000000 1.739440 0.000000 
#    z 0.000000 0.000000 1.759370 
# 
# From -- ./inp_files/8065.got.cif
#   From: 2010.03.12/outbox.cif.g09.slc.cpg/sg72_5_cif.got.tgz:8065.got - 2010.04.16 14:54:00.
