data_PCOD8293608
_publ_section_title
;
Structure prediction by ZEFSAII (Michael W. Deem and Ramdas Pophale) SiO2 
 PCOD8293608
Probable space group: I B A M
;
_chemical_formula_sum "Si O2"
_cell_formula_units_Z 112
_cell_length_a 27.083590
_cell_length_b 11.012274
_cell_length_c 19.984221
_cell_angle_alpha 90.000000
_cell_angle_beta 90.000000
_cell_angle_gamma 90.000000
_cell_volume 5960.332163
_symmetry_space_group_name_H-M "I B A M"
_symmetry_group_IT_number 72
_symmetry_cell_setting 'orthorhombic'
loop_
_space_group_symop_operation_xyz
x,y,z
-x,-y,z
x,-y,1/2-z
-x,y,1/2-z
-x,-y,-z
x,y,-z
-x,y,1/2+z
x,-y,1/2+z
1/2+x,1/2+y,1/2+z
1/2-x,1/2-y,1/2+z
1/2+x,1/2-y,-z
1/2-x,1/2+y,-z
1/2-x,1/2-y,1/2-z
1/2+x,1/2+y,1/2-z
1/2-x,1/2+y,z
1/2+x,1/2-y,z
loop_
_atom_site_type_symbol
_atom_site_label
_atom_site_fract_x
_atom_site_fract_y
_atom_site_fract_z
Si Si1 0.440029 0.772107 0.821820
Si Si2 0.050968 0.064419 0.925709
Si Si3 0.049397 0.687959 0.825095
Si Si4 0.285209 0.030826 0.921056
Si Si5 0.888449 0.833790 0.425420
Si Si6 0.220393 0.196348 0.578343
Si Si7 0.372218 0.985818 0.823080
O O1 0.434726 0.656916 0.868499
O O2 0.441063 0.735974 0.743336
O O3 0.491750 0.840071 0.837675
O O4 0.391172 0.850471 0.837693
O O5 0.097316 0.974272 0.927752
O O6 0.045105 0.124069 0.000000
O O7 0.000000 0.000000 0.905505
O O8 0.068929 0.765606 0.886339
O O9 0.077483 0.561692 0.820518
O O10 0.260216 0.164851 0.906867
O O11 0.336890 0.029883 0.882168
O O12 0.254033 0.914723 0.893030
O O13 0.295969 0.018011 0.000000
O O14 0.886871 0.777869 0.500000
O O15 0.834634 0.817735 0.391075
O O16 0.217516 0.172046 0.500000
O O17 0.345846 0.000000 0.750000
#
# Coordination Sequence:
#
# PCOD8293608 Si02
#       7
#    16  16  16  16  16  16  16
#     4  10  21  34  53  82 111 149 189 228 269 331
#     4  10  20  34  52  78 114 148 182 229 282 328
#     4  10  19  35  56  79 110 149 189 228 270 330
#     4  10  20  37  61  85 109 144 189 236 288 348
#     4  10  19  34  57  80 108 146 181 225 283 333
#     4   9  19  35  59  85 107 138 186 237 285 339
#     4  10  21  37  57  80 114 147 185 233 285 329
#
# _framework density 18.790897999999999
#
# number of rings (size 3 to 8) (size 9 to 14) (size 15 to 20)
#    0.000    2.143    2.857    0.429    0.000    4.000 
#    0.000    3.571    3.143    2.571    0.000    0.000 
#    0.000    0.000    0.000    0.000    0.000    0.000 
#
# Total GULP energy -693969.918688 kJ/mol
# GULP energy per Si atom -12392.319977 kJ/mol
# Density = 1.874813 g / cm^3
# Si number density = 18.790898 Si / 1000 Ang^3
#
#
#
# Elastic Constant Matrix: (Units=GPa)
#
#
# Indices 1 2 3 4 5 6 
#
# 1 72.6687 33.8029 27.2040 0.0000 0.0000 0.0000
# 2 33.8029 104.4605 41.9799 0.0000 0.0000 0.0000
# 3 27.2040 41.9799 74.0665 0.0000 0.0000 0.0000
# 4 0.0000 0.0000 0.0000 23.5138 0.0000 0.0000
# 5 0.0000 0.0000 0.0000 0.0000 19.9580 0.0000
# 6 0.0000 0.0000 0.0000 0.0000 0.0000 24.2290
#
#
#
# Elastic Compliance Matrix: (Units=1/GPa)
#
#
# Indices 1 2 3 4 5 6 
#
# 1 0.017098 -0.003897 -0.004071 0.000000 0.000000 0.000000
# 2 -0.003897 0.013285 -0.006098 0.000000 0.000000 0.000000
# 3 -0.004071 -0.006098 0.018453 0.000000 0.000000 0.000000
# 4 0.000000 0.000000 0.000000 0.042528 0.000000 0.000000
# 5 0.000000 0.000000 0.000000 0.000000 0.050105 0.000000
# 6 0.000000 0.000000 0.000000 0.000000 0.000000 0.041273
#
#
# Mechanical properties :
#
#
# Convention : Reuss Voigt Hill
#
# Bulk Modulus (GPa) = 48.30208 50.79662 49.54935
# Shear Modulus (GPa) = 22.95940 23.42075 23.19008
#
# Velocity S-wave (km/s) = 3.49927 3.53425 3.51680
# Velocity P-wave (km/s) = 6.48748 6.61406 6.55108
#
# Compressibility (1/GPa) = 0.02070304
#
# Stress axis : x y z
#
# Youngs Moduli (GPa) = 58.48718 75.27452 54.19098
#
# Poissons Ratio (x) = 0.29331 0.22063
# Poissons Ratio (y) = 0.22790 0.33048
# Poissons Ratio (z) = 0.23812 0.45906
#
# Static dielectric constant tensor:
#      x y z
#    x 3.434450 0.000000 0.000000 
#    y 0.000000 3.506360 0.000000 
#    z 0.000000 0.000000 3.487500 
# 
# 
# High freq. dielectric constant tensor:
#      x y z
#    x 1.720020 0.000000 0.000000 
#    y 0.000000 1.725760 0.000000 
#    z 0.000000 0.000000 1.717500 
# 
# From -- ./inp_files/40349.got.cif
#   From: 2010.03.12/outbox.cif.g09.slc.cpg/sg72_21_cif.got.tgz:40349.got - 2010.04.16 14:54:00.
