data_PCOD8293237
_publ_section_title
;
Structure prediction by ZEFSAII (Michael W. Deem and Ramdas Pophale) SiO2 
 PCOD8293237
Probable space group: I B A M
;
_chemical_formula_sum "Si O2"
_cell_formula_units_Z 80
_cell_length_a 28.291559
_cell_length_b 23.156441
_cell_length_c 8.708874
_cell_angle_alpha 90.000000
_cell_angle_beta 90.000000
_cell_angle_gamma 90.000000
_cell_volume 5705.460446
_symmetry_space_group_name_H-M "I B A M"
_symmetry_group_IT_number 72
_symmetry_cell_setting 'orthorhombic'
loop_
_space_group_symop_operation_xyz
x,y,z
-x,-y,z
x,-y,1/2-z
-x,y,1/2-z
-x,-y,-z
x,y,-z
-x,y,1/2+z
x,-y,1/2+z
1/2+x,1/2+y,1/2+z
1/2-x,1/2-y,1/2+z
1/2+x,1/2-y,-z
1/2-x,1/2+y,-z
1/2-x,1/2-y,1/2-z
1/2+x,1/2+y,1/2-z
1/2-x,1/2+y,z
1/2+x,1/2-y,z
loop_
_atom_site_type_symbol
_atom_site_label
_atom_site_fract_x
_atom_site_fract_y
_atom_site_fract_z
Si Si1 0.550542 0.061540 0.317309
Si Si2 0.225546 0.438600 0.316804
Si Si3 0.719986 0.669685 0.330827
Si Si4 0.863598 0.623899 0.819290
Si Si5 0.320689 0.229742 0.169180
O O1 0.500000 0.079672 0.250000
O O2 0.547832 0.057666 0.500000
O O3 0.587526 0.109688 0.264498
O O4 0.566772 0.000000 0.250000
O O5 0.240672 0.500000 0.250000
O O6 0.219509 0.439856 0.500000
O O7 0.267376 0.394217 0.267495
O O8 0.176131 0.419240 0.244211
O O9 0.697608 0.664962 0.500000
O O10 0.682154 0.703732 0.226321
O O11 0.768387 0.704841 0.339111
O O12 0.851864 0.690698 0.782982
O O13 0.868456 0.615097 0.000000
O O14 0.343820 0.229216 0.000000
#
# Coordination Sequence:
#
# PCOD8293237 Si02
#       5
#    16  16  16  16  16
#     4  11  21  34  47  60  77  98 126 158 196 237
#     4  10  19  29  40  56  77 101 130 162 195 229
#     4   8  15  26  38  53  74  98 123 153 189 228
#     4  11  20  30  43  58  76  99 127 160 197 232
#     4   9  16  26  40  57  74  94 122 156 191 226
#
# _framework density 14.021655000000001
#
# number of rings (size 3 to 8) (size 9 to 14) (size 15 to 20)
#    0.000    2.200    0.000    7.200    0.000    5.600 
#    0.000    0.000    0.000    0.000    0.000    0.000 
#    0.000    0.000    0.000    0.000    0.000    1.000 
#
# Total GULP energy -495871.523851 kJ/mol
# GULP energy per Si atom -12396.788096 kJ/mol
# Density = 1.398974 g / cm^3
# Si number density = 14.021655 Si / 1000 Ang^3
#
#
#
# Elastic Constant Matrix: (Units=GPa)
#
#
# Indices 1 2 3 4 5 6 
#
# 1 40.1629 38.5115 25.5838 0.0000 0.0000 0.0000
# 2 38.5115 102.2892 40.5483 0.0000 0.0000 0.0000
# 3 25.5838 40.5483 105.8967 0.0000 0.0000 0.0000
# 4 0.0000 0.0000 0.0000 23.3671 0.0000 0.0000
# 5 0.0000 0.0000 0.0000 0.0000 18.6257 0.0000
# 6 0.0000 0.0000 0.0000 0.0000 0.0000 12.9027
#
#
#
# Elastic Compliance Matrix: (Units=1/GPa)
#
#
# Indices 1 2 3 4 5 6 
#
# 1 0.040852 -0.013521 -0.004693 0.000000 0.000000 0.000000
# 2 -0.013521 0.016000 -0.002860 0.000000 0.000000 0.000000
# 3 -0.004693 -0.002860 0.011672 0.000000 0.000000 0.000000
# 4 0.000000 0.000000 0.000000 0.042795 0.000000 0.000000
# 5 0.000000 0.000000 0.000000 0.000000 0.053689 0.000000
# 6 0.000000 0.000000 0.000000 0.000000 0.000000 0.077503
#
#
# Mechanical properties :
#
#
# Convention : Reuss Voigt Hill
#
# Bulk Modulus (GPa) = 37.91003 50.84845 44.37924
# Shear Modulus (GPa) = 17.03858 20.55946 18.79902
#
# Velocity S-wave (km/s) = 3.48970 3.83334 3.66555
# Velocity P-wave (km/s) = 6.58277 7.47901 7.04515
#
# Compressibility (1/GPa) = 0.02637824
#
# Stress axis : x y z
#
# Youngs Moduli (GPa) = 24.47838 62.49822 85.67508
#
# Poissons Ratio (x) = 0.84501 0.40203
# Poissons Ratio (y) = 0.33096 0.24504
# Poissons Ratio (z) = 0.11487 0.17875
#
# Static dielectric constant tensor:
#      x y z
#    x 2.441700 0.000000 0.000000 
#    y 0.000000 2.909900 0.000000 
#    z 0.000000 0.000000 2.998780 
# 
# 
# High freq. dielectric constant tensor:
#      x y z
#    x 1.480750 0.000000 0.000000 
#    y 0.000000 1.526390 0.000000 
#    z 0.000000 0.000000 1.556150 
# 
# From -- ./inp_files/7378.got.cif
#   From: 2010.03.12/outbox.cif.g09.slc.cpg/sg72_4_cif.got.tgz:7378.got - 2010.04.16 14:54:00.
