data_PCOD8293318
_publ_section_title
;
Structure prediction by ZEFSAII (Michael W. Deem and Ramdas Pophale) SiO2 
 PCOD8293318
Probable space group: I B A M
;
_chemical_formula_sum "Si O2"
_cell_formula_units_Z 104
_cell_length_a 22.770174
_cell_length_b 13.891021
_cell_length_c 18.250265
_cell_angle_alpha 90.000000
_cell_angle_beta 90.000000
_cell_angle_gamma 90.000000
_cell_volume 5772.576435
_symmetry_space_group_name_H-M "I B A M"
_symmetry_group_IT_number 72
_symmetry_cell_setting 'orthorhombic'
loop_
_space_group_symop_operation_xyz
x,y,z
-x,-y,z
x,-y,1/2-z
-x,y,1/2-z
-x,-y,-z
x,y,-z
-x,y,1/2+z
x,-y,1/2+z
1/2+x,1/2+y,1/2+z
1/2-x,1/2-y,1/2+z
1/2+x,1/2-y,-z
1/2-x,1/2+y,-z
1/2-x,1/2-y,1/2-z
1/2+x,1/2+y,1/2-z
1/2-x,1/2+y,z
1/2+x,1/2-y,z
loop_
_atom_site_type_symbol
_atom_site_label
_atom_site_fract_x
_atom_site_fract_y
_atom_site_fract_z
Si Si1 0.059004 0.452326 0.128936
Si Si2 0.158894 0.347945 0.500000
Si Si3 0.282910 0.747278 0.000000
Si Si4 0.622607 0.137268 0.653582
Si Si5 0.268648 0.112564 0.758261
Si Si6 0.059639 0.268427 0.776930
Si Si7 0.353516 0.932641 0.000000
Si Si8 0.677093 0.730005 0.661119
O O1 0.092724 0.535609 0.172992
O O2 0.040123 0.368170 0.184396
O O3 0.103946 0.411769 0.068610
O O4 0.000000 0.500000 0.094136
O O5 0.213818 0.275479 0.500000
O O6 0.116922 0.329783 0.430621
O O7 0.175875 0.461659 0.500000
O O8 0.298034 0.860848 0.000000
O O9 0.309400 0.704876 0.923937
O O10 0.691318 0.129810 0.670788
O O11 0.594365 0.219528 0.701702
O O12 0.299332 0.162409 0.685973
O O13 0.206327 0.157989 0.780120
O O14 0.258817 0.000000 0.750000
O O15 0.106169 0.215828 0.830574
O O16 0.000000 0.213207 0.750000
#
# Coordination Sequence:
#
# PCOD8293318 Si02
#       8
#    16   8   8  16  16  16   8  16
#     4  11  19  31  49  76 107 152 185 215 263 336
#     4  10  22  35  49  74 109 151 179 230 277 323
#     4  12  20  37  53  76 115 146 183 226 282 328
#     4  10  19  31  49  74 105 142 183 217 266 326
#     4  10  20  36  56  78 109 142 185 234 278 326
#     4  11  20  33  50  75 109 145 183 223 271 325
#     4  10  23  34  50  78 114 146 188 224 269 329
#     4  10  22  35  55  82 109 147 184 229 277 335
#
# _framework density 18.016217999999999
#
# number of rings (size 3 to 8) (size 9 to 14) (size 15 to 20)
#    0.000    1.538    4.615    2.538    2.154    0.000 
#    0.000    0.769    0.000    0.462    0.000    0.000 
#    0.000    1.231    0.000    3.692    0.000    0.000 
#
# Total GULP energy -644199.157167 kJ/mol
# GULP energy per Si atom -12388.445330 kJ/mol
# Density = 1.797521 g / cm^3
# Si number density = 18.016218 Si / 1000 Ang^3
#
#
#
# Elastic Constant Matrix: (Units=GPa)
#
#
# Indices 1 2 3 4 5 6 
#
# 1 98.2959 26.7266 13.4590 0.0000 0.0000 0.0000
# 2 26.7266 46.6217 11.6945 0.0000 0.0000 0.0000
# 3 13.4590 11.6945 91.3323 0.0000 0.0000 0.0000
# 4 0.0000 0.0000 0.0000 12.6128 0.0000 0.0000
# 5 0.0000 0.0000 0.0000 0.0000 20.2088 0.0000
# 6 0.0000 0.0000 0.0000 0.0000 0.0000 26.2078
#
#
#
# Elastic Compliance Matrix: (Units=1/GPa)
#
#
# Indices 1 2 3 4 5 6 
#
# 1 0.012127 -0.006720 -0.000927 0.000000 0.000000 0.000000
# 2 -0.006720 0.025884 -0.002324 0.000000 0.000000 0.000000
# 3 -0.000927 -0.002324 0.011383 0.000000 0.000000 0.000000
# 4 0.000000 0.000000 0.000000 0.079285 0.000000 0.000000
# 5 0.000000 0.000000 0.000000 0.000000 0.049483 0.000000
# 6 0.000000 0.000000 0.000000 0.000000 0.000000 0.038157
#
#
# Mechanical properties :
#
#
# Convention : Reuss Voigt Hill
#
# Bulk Modulus (GPa) = 33.95140 37.77890 35.86515
# Shear Modulus (GPa) = 20.31872 24.09720 22.20796
#
# Velocity S-wave (km/s) = 3.36192 3.66119 3.51474
# Velocity P-wave (km/s) = 5.82716 6.23597 6.03503
#
# Compressibility (1/GPa) = 0.02945387
#
# Stress axis : x y z
#
# Youngs Moduli (GPa) = 82.45828 38.63332 87.84894
#
# Poissons Ratio (x) = 0.25961 0.08141
# Poissons Ratio (y) = 0.55410 0.20417
# Poissons Ratio (z) = 0.07641 0.08979
#
# Static dielectric constant tensor:
#      x y z
#    x 3.460850 0.000000 0.000000 
#    y 0.000000 2.934780 0.000000 
#    z 0.000000 0.000000 3.489740 
# 
# 
# High freq. dielectric constant tensor:
#      x y z
#    x 1.699440 0.000000 0.000000 
#    y 0.000000 1.637740 0.000000 
#    z 0.000000 0.000000 1.712610 
# 
# From -- ./inp_files/30846.got.cif
#   From: 2010.03.12/outbox.cif.g09.slc.cpg/sg72_16_cif.got.tgz:30846.got - 2010.04.16 14:54:00.
