data_PCOD8293729
_publ_section_title
;
Structure prediction by ZEFSAII (Michael W. Deem and Ramdas Pophale) SiO2 
 PCOD8293729
Probable space group: I B A M
;
_chemical_formula_sum "Si O2"
_cell_formula_units_Z 80
_cell_length_a 9.240007
_cell_length_b 24.656781
_cell_length_c 15.405943
_cell_angle_alpha 90.000000
_cell_angle_beta 90.000000
_cell_angle_gamma 90.000000
_cell_volume 3509.917954
_symmetry_space_group_name_H-M "I B A M"
_symmetry_group_IT_number 72
_symmetry_cell_setting 'orthorhombic'
loop_
_space_group_symop_operation_xyz
x,y,z
-x,-y,z
x,-y,1/2-z
-x,y,1/2-z
-x,-y,-z
x,y,-z
-x,y,1/2+z
x,-y,1/2+z
1/2+x,1/2+y,1/2+z
1/2-x,1/2-y,1/2+z
1/2+x,1/2-y,-z
1/2-x,1/2+y,-z
1/2-x,1/2-y,1/2-z
1/2+x,1/2+y,1/2-z
1/2-x,1/2+y,z
1/2+x,1/2-y,z
loop_
_atom_site_type_symbol
_atom_site_label
_atom_site_fract_x
_atom_site_fract_y
_atom_site_fract_z
Si Si1 0.923015 0.942929 0.599076
Si Si2 0.167400 0.489232 0.403299
Si Si3 0.382963 0.119747 0.825886
Si Si4 0.076749 0.839471 0.668974
Si Si5 0.449523 0.176434 0.000000
Si Si6 0.867526 0.777442 0.000000
O O1 0.935532 0.923063 0.500000
O O2 0.994464 0.897106 0.658275
O O3 0.754988 0.956339 0.625659
O O4 0.000000 0.000000 0.614793
O O5 0.225244 0.472742 0.500000
O O6 0.188561 0.439732 0.337173
O O7 0.000000 0.500000 0.406227
O O8 0.500000 0.122366 0.750000
O O9 0.245650 0.157185 0.805414
O O10 0.457204 0.137885 0.916058
O O11 0.057159 0.803819 0.583670
O O12 0.000000 0.809433 0.750000
O O13 0.304839 0.213528 0.000000
O O14 0.592435 0.213963 0.000000
#
# Coordination Sequence:
#
# PCOD8293729 Si02
#       6
#    16  16  16  16   8   8
#     4  10  19  36  66  92 126 176 219 262 317 386
#     4  10  21  38  61  93 133 176 221 262 319 391
#     4  11  24  43  66  95 136 178 217 275 336 400
#     4  11  24  42  66  98 134 173 224 274 329 400
#     4  10  24  48  74  94 128 168 222 282 350 404
#     4  10  24  48  72  97 126 169 219 286 346 405
#
# _framework density 22.792555
#
# number of rings (size 3 to 8) (size 9 to 14) (size 15 to 20)
#    0.000    1.600    4.000    0.000    2.800    3.200 
#    0.000    4.000    0.000    0.000    0.000    0.000 
#    0.000    0.000    0.000    0.000    0.000    0.000 
#
# Total GULP energy -495877.920348 kJ/mol
# GULP energy per Si atom -12396.948009 kJ/mol
# Density = 2.274068 g / cm^3
# Si number density = 22.792555 Si / 1000 Ang^3
#
#
#
# Elastic Constant Matrix: (Units=GPa)
#
#
# Indices 1 2 3 4 5 6 
#
# 1 99.3317 10.9014 41.3458 0.0000 0.0000 0.0000
# 2 10.9014 47.2173 13.5826 0.0000 0.0000 0.0000
# 3 41.3458 13.5826 131.5679 0.0000 -0.0003 0.0001
# 4 0.0000 0.0000 0.0000 -6.0331 -0.0001 0.0001
# 5 0.0000 0.0000 -0.0003 -0.0001 58.1551 0.0000
# 6 0.0000 0.0000 0.0001 0.0001 0.0000 35.7414
#
#
#
# Elastic Compliance Matrix: (Units=1/GPa)
#
#
# Indices 1 2 3 4 5 6 
#
# 1 0.011713 -0.001696 -0.003506 0.000000 0.000000 0.000000
# 2 -0.001696 0.022072 -0.001746 0.000000 0.000000 0.000000
# 3 -0.003506 -0.001746 0.008883 0.000000 0.000000 0.000000
# 4 0.000000 0.000000 0.000000 -0.165753 0.000000 0.000000
# 5 0.000000 0.000000 0.000000 0.000000 0.017195 0.000000
# 6 0.000000 0.000000 0.000000 0.000000 0.000000 0.027979
#
#
# Mechanical properties :
#
#
# Convention : Reuss Voigt Hill
#
# Bulk Modulus (GPa) = 34.75461 45.53072 40.14266
# Shear Modulus (GPa) = -91.86806 31.72515 -30.07146
#
# Velocity S-wave (km/s) = -6.35560 3.73488 -3.63623
# Velocity P-wave (km/s) = 6.21103 6.21438 0.14435
#
# Compressibility (1/GPa) = 0.02877316
#
# Stress axis : x y z
#
# Youngs Moduli (GPa) = 85.37828 45.30546 112.58038
#
# Poissons Ratio (x) = 0.07683 0.39467
# Poissons Ratio (y) = 0.14478 0.19654
# Poissons Ratio (z) = 0.29931 0.07909
#
# Static dielectric constant tensor:
#      x y z
#    x 4.378960 0.000000 0.000000 
#    y 0.000000 4.017150 0.000000 
#    z 0.000000 0.000000 4.182010 
# 
# 
# High freq. dielectric constant tensor:
#      x y z
#    x 1.911100 0.000000 0.000000 
#    y 0.000000 1.867050 0.000000 
#    z 0.000000 0.000000 1.901550 
# 
# From -- ./inp_files/28228.got.cif
#   From: 2010.03.12/outbox.cif.g09.slc.cpg/sg72_15_cif.got.tgz:28228.got - 2010.04.16 14:54:00.
