data_PCOD8293911
_publ_section_title
;
Structure prediction by ZEFSAII (Michael W. Deem and Ramdas Pophale) SiO2 
 PCOD8293911
Probable space group: I B A M
;
_chemical_formula_sum "Si O2"
_cell_formula_units_Z 96
_cell_length_a 29.939017
_cell_length_b 20.082148
_cell_length_c 8.837243
_cell_angle_alpha 90.000000
_cell_angle_beta 90.000000
_cell_angle_gamma 90.000000
_cell_volume 5313.301952
_symmetry_space_group_name_H-M "I B A M"
_symmetry_group_IT_number 72
_symmetry_cell_setting 'orthorhombic'
loop_
_space_group_symop_operation_xyz
x,y,z
-x,-y,z
x,-y,1/2-z
-x,y,1/2-z
-x,-y,-z
x,y,-z
-x,y,1/2+z
x,-y,1/2+z
1/2+x,1/2+y,1/2+z
1/2-x,1/2-y,1/2+z
1/2+x,1/2-y,-z
1/2-x,1/2+y,-z
1/2-x,1/2-y,1/2-z
1/2+x,1/2+y,1/2-z
1/2-x,1/2+y,z
1/2+x,1/2-y,z
loop_
_atom_site_type_symbol
_atom_site_label
_atom_site_fract_x
_atom_site_fract_y
_atom_site_fract_z
Si Si1 0.864319 0.679552 0.820561
Si Si2 0.042610 0.168446 0.665652
Si Si3 0.694727 0.068837 0.325415
Si Si4 0.300039 0.431458 0.673921
Si Si5 0.456286 0.826418 0.669140
Si Si6 0.360180 0.678040 0.319080
O O1 0.827141 0.627959 0.768109
O O2 0.912516 0.654183 0.763862
O O3 0.850467 0.750051 0.750495
O O4 0.865045 0.685506 0.000000
O O5 0.040469 0.136995 0.500000
O O6 0.038413 0.247569 0.660018
O O7 0.091053 0.151384 0.738138
O O8 0.000000 0.136783 0.750000
O O9 0.679370 0.070096 0.500000
O O10 0.747472 0.078148 0.310944
O O11 0.679256 0.000000 0.250000
O O12 0.315797 0.500000 0.750000
O O13 0.315555 0.431218 0.500000
O O14 0.322284 0.371374 0.763999
O O15 0.500000 0.857368 0.750000
O O16 0.452219 0.856201 0.500000
O O17 0.360126 0.685021 0.500000
#
# Coordination Sequence:
#
# PCOD8293911 Si02
#       6
#    16  16  16  16  16  16
#     4  11  21  33  52  79 108 139 175 215 261 307
#     4   8  15  26  43  68  98 132 166 203 248 296
#     4  10  21  38  57  77 102 134 173 214 258 312
#     4  10  21  37  57  78 101 134 173 212 259 315
#     4   9  16  28  46  71 103 137 172 211 255 303
#     4  10  20  34  52  77 108 138 172 216 261 305
#
# _framework density 18.06786
#
# number of rings (size 3 to 8) (size 9 to 14) (size 15 to 20)
#    0.000    2.333    0.000    4.500    0.000    7.333 
#    0.000    0.000    0.000    1.000    0.000    7.000 
#    0.000    0.000    0.000    0.000    0.000    0.000 
#
# Total GULP energy -595106.230895 kJ/mol
# GULP energy per Si atom -12398.046477 kJ/mol
# Density = 1.802674 g / cm^3
# Si number density = 18.067860 Si / 1000 Ang^3
#
#
#
# Elastic Constant Matrix: (Units=GPa)
#
#
# Indices 1 2 3 4 5 6 
#
# 1 63.2297 46.1806 45.2471 0.0000 0.0000 0.0000
# 2 46.1806 81.9812 48.6011 0.0000 0.0000 0.0000
# 3 45.2471 48.6011 137.2451 0.0000 0.0000 0.0000
# 4 0.0000 0.0000 0.0000 26.0727 0.0000 0.0000
# 5 0.0000 0.0000 0.0000 0.0000 33.9462 0.0000
# 6 0.0000 0.0000 0.0000 0.0000 0.0000 20.5613
#
#
#
# Elastic Compliance Matrix: (Units=1/GPa)
#
#
# Indices 1 2 3 4 5 6 
#
# 1 0.029179 -0.013586 -0.004809 0.000000 0.000000 0.000000
# 2 -0.013586 0.021765 -0.003228 0.000000 0.000000 0.000000
# 3 -0.004809 -0.003228 0.010015 0.000000 0.000000 0.000000
# 4 0.000000 0.000000 0.000000 0.038354 0.000000 0.000000
# 5 0.000000 0.000000 0.000000 0.000000 0.029458 0.000000
# 6 0.000000 0.000000 0.000000 0.000000 0.000000 0.048635
#
#
# Mechanical properties :
#
#
# Convention : Reuss Voigt Hill
#
# Bulk Modulus (GPa) = 56.45679 62.50153 59.47916
# Shear Modulus (GPa) = 22.06947 25.61119 23.84033
#
# Velocity S-wave (km/s) = 3.49875 3.76905 3.63642
# Velocity P-wave (km/s) = 6.90193 7.32180 7.11496
#
# Compressibility (1/GPa) = 0.01771266
#
# Stress axis : x y z
#
# Youngs Moduli (GPa) = 34.27086 45.94548 99.85244
#
# Poissons Ratio (x) = 0.62422 0.48017
# Poissons Ratio (y) = 0.46561 0.32235
# Poissons Ratio (z) = 0.16480 0.14832
#
# Static dielectric constant tensor:
#      x y z
#    x 3.518270 0.000000 0.000000 
#    y 0.000000 3.014800 0.000000 
#    z 0.000000 0.000000 3.601250 
# 
# 
# High freq. dielectric constant tensor:
#      x y z
#    x 1.708720 0.000000 0.000000 
#    y 0.000000 1.658200 0.000000 
#    z 0.000000 0.000000 1.716280 
# 
# From -- ./inp_files/6020.got.cif
#   From: 2010.03.12/outbox.cif.g09.slc.cpg/sg72_4_cif.got.tgz:6020.got - 2010.04.16 14:54:00.
