data_PCOD8293116
_publ_section_title
;
Structure prediction by ZEFSAII (Michael W. Deem and Ramdas Pophale) SiO2 
 PCOD8293116
Probable space group: I B A M
;
_chemical_formula_sum "Si O2"
_cell_formula_units_Z 64
_cell_length_a 5.041000
_cell_length_b 31.061138
_cell_length_c 24.201650
_cell_angle_alpha 90.000000
_cell_angle_beta 90.000000
_cell_angle_gamma 90.000000
_cell_volume 3789.474915
_symmetry_space_group_name_H-M "I B A M"
_symmetry_group_IT_number 72
_symmetry_cell_setting 'orthorhombic'
loop_
_space_group_symop_operation_xyz
x,y,z
-x,-y,z
x,-y,1/2-z
-x,y,1/2-z
-x,-y,-z
x,y,-z
-x,y,1/2+z
x,-y,1/2+z
1/2+x,1/2+y,1/2+z
1/2-x,1/2-y,1/2+z
1/2+x,1/2-y,-z
1/2-x,1/2+y,-z
1/2-x,1/2-y,1/2-z
1/2+x,1/2+y,1/2-z
1/2-x,1/2+y,z
1/2+x,1/2-y,z
loop_
_atom_site_type_symbol
_atom_site_label
_atom_site_fract_x
_atom_site_fract_y
_atom_site_fract_z
Si Si1 0.244806 0.469757 0.000000
Si Si2 0.812429 0.277725 0.000000
Si Si3 0.483484 0.723090 0.814589
Si Si4 0.204509 0.158877 0.098309
Si Si5 0.191389 0.612588 0.439210
O O1 0.500000 0.500000 0.000000
O O2 0.222215 0.439296 0.054770
O O3 0.000000 0.500000 0.000000
O O4 0.754131 0.303071 0.055752
O O5 0.618615 0.236456 0.000000
O O6 0.500000 0.712997 0.750000
O O7 0.775643 0.739275 0.831788
O O8 0.392015 0.679118 0.843851
O O9 0.469060 0.129150 0.104139
O O10 0.979231 0.127503 0.077631
O O11 0.113386 0.632101 0.500000
#
# Coordination Sequence:
#
# PCOD8293116 Si02
#       5
#     8   8  16  16  16
#     4  10  18  32  50  72 104 136 158 184 230 306
#     4  12  20  26  40  62  88 122 160 192 238 290
#     4  10  21  36  51  68  92 132 180 221 256 287
#     4  12  19  34  46  67 100 128 163 207 254 286
#     4  10  20  32  48  71  99 132 153 195 243 299
#
# _framework density 16.888884999999998
#
# number of rings (size 3 to 8) (size 9 to 14) (size 15 to 20)
#    0.750    0.500    2.500    6.000    0.000    0.000 
#    0.000    0.000    0.000    0.000    0.000    0.000 
#    0.000   15.000    0.000    0.000    0.000    0.000 
#
# Total GULP energy -396601.353788 kJ/mol
# GULP energy per Si atom -12393.792306 kJ/mol
# Density = 1.685044 g / cm^3
# Si number density = 16.888885 Si / 1000 Ang^3
#
#
#
# Elastic Constant Matrix: (Units=GPa)
#
#
# Indices 1 2 3 4 5 6 
#
# 1 93.6195 33.6368 11.6933 0.0000 0.0000 0.0000
# 2 33.6368 99.0977 27.7801 0.0000 0.0000 0.0000
# 3 11.6933 27.7801 43.9444 0.0000 0.0000 0.0000
# 4 0.0000 0.0000 0.0000 16.7572 0.0000 0.0000
# 5 0.0000 0.0000 0.0000 0.0000 18.8434 0.0000
# 6 0.0000 0.0000 0.0000 0.0000 0.0000 42.9724
#
#
#
# Elastic Compliance Matrix: (Units=1/GPa)
#
#
# Indices 1 2 3 4 5 6 
#
# 1 0.012186 -0.003922 -0.000763 0.000000 0.000000 0.000000
# 2 -0.003922 0.013527 -0.007508 0.000000 0.000000 0.000000
# 3 -0.000763 -0.007508 0.027705 0.000000 0.000000 0.000000
# 4 0.000000 0.000000 0.000000 0.059676 0.000000 0.000000
# 5 0.000000 0.000000 0.000000 0.000000 0.053069 0.000000
# 6 0.000000 0.000000 0.000000 0.000000 0.000000 0.023271
#
#
# Mechanical properties :
#
#
# Convention : Reuss Voigt Hill
#
# Bulk Modulus (GPa) = 34.44453 42.54245 38.49349
# Shear Modulus (GPa) = 22.37164 26.61804 24.49484
#
# Velocity S-wave (km/s) = 3.64350 3.97428 3.81248
# Velocity P-wave (km/s) = 6.17570 6.80472 6.49782
#
# Compressibility (1/GPa) = 0.02903218
#
# Stress axis : x y z
#
# Youngs Moduli (GPa) = 82.06039 73.92596 36.09444
#
# Poissons Ratio (x) = 0.28997 0.02754
# Poissons Ratio (y) = 0.32188 0.27098
# Poissons Ratio (z) = 0.06261 0.55500
#
# Static dielectric constant tensor:
#      x y z
#    x 3.380440 0.000000 0.000000 
#    y 0.000000 3.071100 0.000000 
#    z 0.000000 0.000000 2.969890 
# 
# 
# High freq. dielectric constant tensor:
#      x y z
#    x 1.680690 0.000000 0.000000 
#    y 0.000000 1.633820 0.000000 
#    z 0.000000 0.000000 1.613510 
# 
# From -- ./inp_files/41415.got.cif
#   From: 2010.03.12/outbox.cif.g09.slc.cpg/sg72_21_cif.got.tgz:41415.got - 2010.04.16 14:54:00.
