data_PCOD8293621
_publ_section_title
;
Structure prediction by ZEFSAII (Michael W. Deem and Ramdas Pophale) SiO2 
 PCOD8293621
Probable space group: I B A M
;
_chemical_formula_sum "Si O2"
_cell_formula_units_Z 96
_cell_length_a 18.678316
_cell_length_b 15.089693
_cell_length_c 16.026687
_cell_angle_alpha 90.000000
_cell_angle_beta 90.000000
_cell_angle_gamma 90.000000
_cell_volume 4517.122600
_symmetry_space_group_name_H-M "I B A M"
_symmetry_group_IT_number 72
_symmetry_cell_setting 'orthorhombic'
loop_
_space_group_symop_operation_xyz
x,y,z
-x,-y,z
x,-y,1/2-z
-x,y,1/2-z
-x,-y,-z
x,y,-z
-x,y,1/2+z
x,-y,1/2+z
1/2+x,1/2+y,1/2+z
1/2-x,1/2-y,1/2+z
1/2+x,1/2-y,-z
1/2-x,1/2+y,-z
1/2-x,1/2-y,1/2-z
1/2+x,1/2+y,1/2-z
1/2-x,1/2+y,z
1/2+x,1/2-y,z
loop_
_atom_site_type_symbol
_atom_site_label
_atom_site_fract_x
_atom_site_fract_y
_atom_site_fract_z
Si Si1 0.820869 0.883172 0.401808
Si Si2 0.088514 0.725253 0.093475
Si Si3 0.840009 0.636796 0.097670
Si Si4 0.549886 0.728897 0.333535
Si Si5 0.073471 0.534899 0.903281
Si Si6 0.924703 0.028285 0.343979
O O1 0.820027 0.874277 0.500000
O O2 0.867579 0.803546 0.359561
O O3 0.740858 0.868864 0.368105
O O4 0.855712 0.978824 0.382234
O O5 0.097977 0.628792 0.137847
O O6 0.004722 0.750945 0.091388
O O7 0.118308 0.720075 0.000000
O O8 0.885355 0.700846 0.158556
O O9 0.865215 0.536231 0.108762
O O10 0.845523 0.666338 0.000000
O O11 0.500000 0.736888 0.250000
O O12 0.586062 0.633575 0.347865
O O13 0.000000 0.500000 0.861049
O O14 0.056923 0.555935 0.000000
O O15 0.930852 0.000000 0.250000
O O16 0.000000 0.000000 0.388864
#
# Coordination Sequence:
#
# PCOD8293621 Si02
#       6
#    16  16  16  16  16  16
#     4  10  22  38  60  94 126 155 206 267 318 378
#     4  10  19  34  58  84 113 153 203 253 307 370
#     4  10  22  40  60  89 127 159 198 260 326 377
#     4  12  22  37  62  89 118 163 213 255 304 377
#     4   9  16  31  56  79 106 152 192 230 296 368
#     4  11  21  41  63  85 124 170 211 258 316 372
#
# _framework density 21.252468
#
# number of rings (size 3 to 8) (size 9 to 14) (size 15 to 20)
#    0.000    1.667    5.000    0.500    0.000    3.000 
#    0.000   10.000    0.000    0.000    0.000    0.000 
#    0.000    0.000    0.000    0.000    0.000    0.000 
#
# Total GULP energy -594766.178403 kJ/mol
# GULP energy per Si atom -12390.962050 kJ/mol
# Density = 2.120410 g / cm^3
# Si number density = 21.252468 Si / 1000 Ang^3
#
#
#
# Elastic Constant Matrix: (Units=GPa)
#
#
# Indices 1 2 3 4 5 6 
#
# 1 170.2728 81.5585 21.9818 0.0000 0.0000 0.0000
# 2 81.5585 198.5042 28.2782 0.0000 0.0000 0.0000
# 3 21.9818 28.2782 25.9894 0.0000 0.0000 0.0000
# 4 0.0000 0.0000 0.0000 22.4258 0.0000 0.0000
# 5 0.0000 0.0000 0.0000 0.0000 -3.4536 0.0000
# 6 0.0000 0.0000 0.0000 0.0000 0.0000 39.2881
#
#
#
# Elastic Compliance Matrix: (Units=1/GPa)
#
#
# Indices 1 2 3 4 5 6 
#
# 1 0.007583 -0.002606 -0.003578 0.000000 0.000000 0.000000
# 2 -0.002606 0.006857 -0.005257 0.000000 0.000000 0.000000
# 3 -0.003578 -0.005257 0.047224 0.000000 0.000000 0.000000
# 4 0.000000 0.000000 0.000000 0.044591 0.000000 0.000000
# 5 0.000000 0.000000 0.000000 0.000000 -0.289556 0.000000
# 6 0.000000 0.000000 0.000000 0.000000 0.000000 0.025453
#
#
# Mechanical properties :
#
#
# Convention : Reuss Voigt Hill
#
# Bulk Modulus (GPa) = 25.78547 73.15593 49.47070
# Shear Modulus (GPa) = -40.97106 29.18194 -5.89456
#
# Velocity S-wave (km/s) = -4.39547 3.70957 -1.66722
# Velocity P-wave (km/s) = 3.68794 7.26945 4.42967
#
# Compressibility (1/GPa) = 0.03878153
#
# Stress axis : x y z
#
# Youngs Moduli (GPa) = 131.87288 145.83119 21.17569
#
# Poissons Ratio (x) = 0.38001 0.07578
# Poissons Ratio (y) = 0.34364 0.11132
# Poissons Ratio (z) = 0.47189 0.76665
#
# Static dielectric constant tensor:
#      x y z
#    x 4.294460 0.000000 0.000000 
#    y 0.000000 4.523600 0.000000 
#    z 0.000000 0.000000 3.446610 
# 
# 
# High freq. dielectric constant tensor:
#      x y z
#    x 1.825260 0.000000 0.000000 
#    y 0.000000 1.852380 0.000000 
#    z 0.000000 0.000000 1.794330 
# 
# From -- ./inp_files/38021.got.cif
#   From: 2010.03.12/outbox.cif.g09.slc.cpg/sg72_20_cif.got.tgz:38021.got - 2010.04.16 14:54:00.
