data_PCOD8293673
_publ_section_title
;
Structure prediction by ZEFSAII (Michael W. Deem and Ramdas Pophale) SiO2 
 PCOD8293673
Probable space group: I B A M
;
_chemical_formula_sum "Si O2"
_cell_formula_units_Z 68
_cell_length_a 5.352150
_cell_length_b 33.942135
_cell_length_c 19.958597
_cell_angle_alpha 90.000000
_cell_angle_beta 90.000000
_cell_angle_gamma 90.000000
_cell_volume 3625.746547
_symmetry_space_group_name_H-M "I B A M"
_symmetry_group_IT_number 72
_symmetry_cell_setting 'orthorhombic'
loop_
_space_group_symop_operation_xyz
x,y,z
-x,-y,z
x,-y,1/2-z
-x,y,1/2-z
-x,-y,-z
x,y,-z
-x,y,1/2+z
x,-y,1/2+z
1/2+x,1/2+y,1/2+z
1/2-x,1/2-y,1/2+z
1/2+x,1/2-y,-z
1/2-x,1/2+y,-z
1/2-x,1/2-y,1/2-z
1/2+x,1/2+y,1/2-z
1/2-x,1/2+y,z
1/2+x,1/2-y,z
loop_
_atom_site_type_symbol
_atom_site_label
_atom_site_fract_x
_atom_site_fract_y
_atom_site_fract_z
Si Si1 0.000000 0.864116 0.250000
Si Si2 0.500000 0.500000 0.750000
Si Si3 0.409929 0.341951 0.893562
Si Si4 0.411146 0.889263 0.425211
Si Si5 0.075587 0.224546 0.500000
Si Si6 0.809276 0.565250 0.303033
O O1 0.915402 0.836623 0.312475
O O2 0.780049 0.892514 0.224996
O O3 0.382635 0.470625 0.694689
O O4 0.644798 0.367846 0.916809
O O5 0.145218 0.360974 0.912244
O O6 0.425795 0.300623 0.931659
O O7 0.429131 0.905872 0.500000
O O8 0.425859 0.927012 0.376140
O O9 0.324903 0.250165 0.500000
O O10 0.000000 0.547648 0.250000
#
# Coordination Sequence:
#
# PCOD8293673 Si02
#       6
#     8   4  16  16   8  16
#     4   9  20  35  60  90 110 150 210 258 286 328
#     4  10  22  36  54  82 128 164 194 234 314 360
#     4  11  21  38  61  87 121 152 197 254 294 340
#     4  11  20  36  61  92 115 150 204 257 291 331
#     4  12  24  40  58  88 124 165 195 225 305 386
#     4  10  19  35  58  86 116 157 200 245 294 361
#
# _framework density 18.754759
#
# number of rings (size 3 to 8) (size 9 to 14) (size 15 to 20)
#    0.000    1.412    4.706    1.765    0.000    0.000 
#    0.000    1.765    0.000    2.824    0.000    0.000 
#    0.000    0.000    0.000    0.000    0.000    0.000 
#
# Total GULP energy -421223.344539 kJ/mol
# GULP energy per Si atom -12388.921898 kJ/mol
# Density = 1.871207 g / cm^3
# Si number density = 18.754759 Si / 1000 Ang^3
#
#
#
# Elastic Constant Matrix: (Units=GPa)
#
#
# Indices 1 2 3 4 5 6 
#
# 1 88.9848 26.8891 27.2112 0.0000 0.0000 0.0000
# 2 26.8891 99.4817 63.0300 0.0000 0.0000 0.0000
# 3 27.2112 63.0300 190.9370 0.0000 0.0000 0.0000
# 4 0.0000 0.0000 0.0000 -5.3631 0.0000 0.0000
# 5 0.0000 0.0000 0.0000 0.0000 19.5085 0.0000
# 6 0.0000 0.0000 0.0000 0.0000 0.0000 -136.2225
#
#
#
# Elastic Compliance Matrix: (Units=1/GPa)
#
#
# Indices 1 2 3 4 5 6 
#
# 1 0.012341 -0.002809 -0.000832 0.000000 0.000000 0.000000
# 2 -0.002809 0.013350 -0.004007 0.000000 0.000000 0.000000
# 3 -0.000832 -0.004007 0.006678 0.000000 0.000000 0.000000
# 4 0.000000 0.000000 0.000000 -0.186458 0.000000 0.000000
# 5 0.000000 0.000000 0.000000 0.000000 0.051260 0.000000
# 6 0.000000 0.000000 0.000000 0.000000 0.000000 -0.007341
#
#
# Mechanical properties :
#
#
# Convention : Reuss Voigt Hill
#
# Bulk Modulus (GPa) = 58.56414 68.18489 63.37452
# Shear Modulus (GPa) = -56.06326 -6.93054 -31.49690
#
# Velocity S-wave (km/s) = -5.47336 -1.92442 -4.10250
# Velocity P-wave (km/s) = 2.94101 5.61223 3.37991
#
# Compressibility (1/GPa) = 0.01707529
#
# Stress axis : x y z
#
# Youngs Moduli (GPa) = 81.03126 74.90745 149.73538
#
# Poissons Ratio (x) = 0.21040 0.12451
# Poissons Ratio (y) = 0.22760 0.59993
# Poissons Ratio (z) = 0.06738 0.30012
#
# Static dielectric constant tensor:
#      x y z
#    x 3.686520 0.000000 0.000000 
#    y 0.000000 3.195420 0.000000 
#    z 0.000000 0.000000 4.846770 
# 
# 
# High freq. dielectric constant tensor:
#      x y z
#    x 1.746930 0.000000 0.000000 
#    y 0.000000 1.694640 0.000000 
#    z 0.000000 0.000000 1.739700 
# 
# From -- ./inp_files/34856.got.cif
#   From: 2010.03.12/outbox.cif.g09.slc.cpg/sg72_18_cif.got.tgz:34856.got - 2010.04.16 14:54:00.
