data_PCOD8293578
_publ_section_title
;
Structure prediction by ZEFSAII (Michael W. Deem and Ramdas Pophale) SiO2 
 PCOD8293578
Probable space group: I B A M
;
_chemical_formula_sum "Si O2"
_cell_formula_units_Z 96
_cell_length_a 20.599250
_cell_length_b 27.653854
_cell_length_c 8.678050
_cell_angle_alpha 90.000000
_cell_angle_beta 90.000000
_cell_angle_gamma 90.000000
_cell_volume 4943.439485
_symmetry_space_group_name_H-M "I B A M"
_symmetry_group_IT_number 72
_symmetry_cell_setting 'orthorhombic'
loop_
_space_group_symop_operation_xyz
x,y,z
-x,-y,z
x,-y,1/2-z
-x,y,1/2-z
-x,-y,-z
x,y,-z
-x,y,1/2+z
x,-y,1/2+z
1/2+x,1/2+y,1/2+z
1/2-x,1/2-y,1/2+z
1/2+x,1/2-y,-z
1/2-x,1/2+y,-z
1/2-x,1/2-y,1/2-z
1/2+x,1/2+y,1/2-z
1/2-x,1/2+y,z
1/2+x,1/2-y,z
loop_
_atom_site_type_symbol
_atom_site_label
_atom_site_fract_x
_atom_site_fract_y
_atom_site_fract_z
Si Si1 0.812227 0.775601 0.316746
Si Si2 0.567726 0.552482 0.183374
Si Si3 0.568518 0.897160 0.182480
Si Si4 0.312019 0.384561 0.182693
Si Si5 0.191889 0.552026 0.683091
Si Si6 0.932457 0.713080 0.318484
O O1 0.809114 0.774376 0.500000
O O2 0.750000 0.750000 0.250000
O O3 0.814005 0.830168 0.252215
O O4 0.875508 0.747357 0.255186
O O5 0.583343 0.500000 0.250000
O O6 0.500000 0.572561 0.250000
O O7 0.624183 0.587883 0.242427
O O8 0.563723 0.549485 0.000000
O O9 0.500000 0.914845 0.250000
O O10 0.622945 0.931119 0.253786
O O11 0.581890 0.841882 0.234148
O O12 0.568064 0.902978 0.000000
O O13 0.247235 0.411104 0.242657
O O14 0.312000 0.383933 0.000000
O O15 0.209749 0.500000 0.750000
O O16 0.189560 0.549332 0.500000
O O17 0.937865 0.716268 0.500000
O O18 0.000000 0.732036 0.250000
#
# Coordination Sequence:
#
# PCOD8293578 Si02
#       6
#    16  16  16  16  16  16
#     4  10  20  36  55  79 108 140 176 218 262 311
#     4  10  19  34  54  78 106 140 177 218 263 312
#     4  10  20  36  56  81 109 140 175 215 259 311
#     4   9  20  36  55  77 107 142 177 216 264 314
#     4  11  22  37  56  79 105 139 177 219 266 315
#     4   9  19  34  55  80 109 141 176 215 259 308
#
# _framework density 19.419678999999999
#
# number of rings (size 3 to 8) (size 9 to 14) (size 15 to 20)
#    0.000    2.167    0.000    3.500    0.000    2.333 
#    0.000    6.667    0.000    0.000    0.000    0.000 
#    0.000    0.000    0.000    0.000    0.000    0.000 
#
# Total GULP energy -595335.192772 kJ/mol
# GULP energy per Si atom -12402.816516 kJ/mol
# Density = 1.937548 g / cm^3
# Si number density = 19.419679 Si / 1000 Ang^3
#
#
#
# Elastic Constant Matrix: (Units=GPa)
#
#
# Indices 1 2 3 4 5 6 
#
# 1 150.1758 69.0548 29.1391 0.0000 0.0000 0.0000
# 2 69.0548 111.3504 23.2538 0.0000 0.0000 0.0000
# 3 29.1391 23.2538 51.7143 0.0000 0.0000 0.0000
# 4 0.0000 0.0000 0.0000 23.8658 0.0000 0.0000
# 5 0.0000 0.0000 0.0000 0.0000 30.4538 0.0000
# 6 0.0000 0.0000 0.0000 0.0000 0.0000 45.1890
#
#
#
# Elastic Compliance Matrix: (Units=1/GPa)
#
#
# Indices 1 2 3 4 5 6 
#
# 1 0.009734 -0.005398 -0.003058 0.000000 0.000000 0.000000
# 2 -0.005398 0.012905 -0.002761 0.000000 0.000000 0.000000
# 3 -0.003058 -0.002761 0.022301 0.000000 0.000000 0.000000
# 4 0.000000 0.000000 0.000000 0.041901 0.000000 0.000000
# 5 0.000000 0.000000 0.000000 0.000000 0.032837 0.000000
# 6 0.000000 0.000000 0.000000 0.000000 0.000000 0.022129
#
#
# Mechanical properties :
#
#
# Convention : Reuss Voigt Hill
#
# Bulk Modulus (GPa) = 44.43091 61.79286 53.11189
# Shear Modulus (GPa) = 29.11307 32.68792 30.90049
#
# Velocity S-wave (km/s) = 3.87609 4.10718 3.99331
# Velocity P-wave (km/s) = 6.55447 7.37432 6.97645
#
# Compressibility (1/GPa) = 0.02250685
#
# Stress axis : x y z
#
# Youngs Moduli (GPa) = 102.72805 77.48873 44.84020
#
# Poissons Ratio (x) = 0.41831 0.13710
# Poissons Ratio (y) = 0.55456 0.12381
# Poissons Ratio (z) = 0.31410 0.21396
#
# Static dielectric constant tensor:
#      x y z
#    x 3.709640 0.000000 0.000000 
#    y 0.000000 3.933120 0.000000 
#    z 0.000000 0.000000 3.363330 
# 
# 
# High freq. dielectric constant tensor:
#      x y z
#    x 1.772360 0.000000 0.000000 
#    y 0.000000 1.759150 0.000000 
#    z 0.000000 0.000000 1.742710 
# 
# From -- ./inp_files/5956.got.cif
#   From: 2010.03.12/outbox.cif.g09.slc.cpg/sg72_3_cif.got.tgz:5956.got - 2010.04.16 14:54:00.
