data_PCOD8293417
_publ_section_title
;
Structure prediction by ZEFSAII (Michael W. Deem and Ramdas Pophale) SiO2 
 PCOD8293417
Probable space group: I B A M
;
_chemical_formula_sum "Si O2"
_cell_formula_units_Z 88
_cell_length_a 11.136393
_cell_length_b 19.791152
_cell_length_c 19.827216
_cell_angle_alpha 90.000000
_cell_angle_beta 90.000000
_cell_angle_gamma 90.000000
_cell_volume 4369.958985
_symmetry_space_group_name_H-M "I B A M"
_symmetry_group_IT_number 72
_symmetry_cell_setting 'orthorhombic'
loop_
_space_group_symop_operation_xyz
x,y,z
-x,-y,z
x,-y,1/2-z
-x,y,1/2-z
-x,-y,-z
x,y,-z
-x,y,1/2+z
x,-y,1/2+z
1/2+x,1/2+y,1/2+z
1/2-x,1/2-y,1/2+z
1/2+x,1/2-y,-z
1/2-x,1/2+y,-z
1/2-x,1/2-y,1/2-z
1/2+x,1/2+y,1/2-z
1/2-x,1/2+y,z
1/2+x,1/2-y,z
loop_
_atom_site_type_symbol
_atom_site_label
_atom_site_fract_x
_atom_site_fract_y
_atom_site_fract_z
Si Si1 0.056991 0.884250 0.423528
Si Si2 0.723634 0.372410 0.424659
Si Si3 0.235071 0.939430 0.208305
Si Si4 0.208497 0.764609 0.362058
Si Si5 0.368550 0.184296 0.240201
Si Si6 0.000000 0.000000 0.332203
O O1 0.089851 0.903353 0.500000
O O2 0.140860 0.823098 0.401321
O O3 0.918573 0.863173 0.416809
O O4 0.082224 0.950855 0.378571
O O5 0.759448 0.396105 0.500000
O O6 0.771474 0.428864 0.370891
O O7 0.781870 0.299437 0.411146
O O8 0.264213 0.870135 0.245723
O O9 0.091420 0.954251 0.212370
O O10 0.301809 0.000000 0.250000
O O11 0.340970 0.789241 0.335809
O O12 0.136953 0.745706 0.293630
O O13 0.500000 0.151163 0.250000
#
# Coordination Sequence:
#
# PCOD8293417 Si02
#       6
#    16  16  16  16  16   8
#     4  10  19  32  53  79 108 141 178 226 280 336
#     4   9  19  34  52  78 110 141 176 225 282 337
#     4  10  20  34  53  77 105 142 183 228 276 328
#     4  10  19  33  54  78 105 140 181 224 277 340
#     4  10  21  35  52  78 109 141 181 232 285 336
#     4  10  20  34  52  80 113 142 183 230 279 334
#
# _framework density 20.13749
#
# number of rings (size 3 to 8) (size 9 to 14) (size 15 to 20)
#    0.000    2.182    0.000    3.273    0.000    4.000 
#    0.000    0.000    0.000    1.091    0.000    6.364 
#    0.000    0.000    0.000    0.000    0.000    0.000 
#
# Total GULP energy -545211.756854 kJ/mol
# GULP energy per Si atom -12391.176292 kJ/mol
# Density = 2.009166 g / cm^3
# Si number density = 20.137490 Si / 1000 Ang^3
#
#
#
# Elastic Constant Matrix: (Units=GPa)
#
#
# Indices 1 2 3 4 5 6 
#
# 1 61.2209 36.8553 27.1027 0.0000 0.0000 0.0000
# 2 36.8553 105.4852 49.9036 0.0000 0.0000 0.0000
# 3 27.1027 49.9036 128.9669 0.0000 0.0000 0.0000
# 4 0.0000 0.0000 0.0000 38.0295 0.0000 0.0000
# 5 0.0000 0.0000 0.0000 0.0000 19.4303 0.0000
# 6 0.0000 0.0000 0.0000 0.0000 0.0000 33.8586
#
#
#
# Elastic Compliance Matrix: (Units=1/GPa)
#
#
# Indices 1 2 3 4 5 6 
#
# 1 0.021072 -0.006448 -0.001933 0.000000 0.000000 0.000000
# 2 -0.006448 0.013577 -0.003899 0.000000 0.000000 0.000000
# 3 -0.001933 -0.003899 0.009669 0.000000 0.000000 0.000000
# 4 0.000000 0.000000 0.000000 0.026295 0.000000 0.000000
# 5 0.000000 0.000000 0.000000 0.000000 0.051466 0.000000
# 6 0.000000 0.000000 0.000000 0.000000 0.000000 0.029535
#
#
# Mechanical properties :
#
#
# Convention : Reuss Voigt Hill
#
# Bulk Modulus (GPa) = 50.61144 58.15512 54.38328
# Shear Modulus (GPa) = 27.35844 30.38443 28.87144
#
# Velocity S-wave (km/s) = 3.68989 3.88860 3.79055
# Velocity P-wave (km/s) = 6.58341 7.00738 6.79870
#
# Compressibility (1/GPa) = 0.01975838
#
# Stress axis : x y z
#
# Youngs Moduli (GPa) = 47.45718 73.65340 103.42515
#
# Poissons Ratio (x) = 0.47488 0.19996
# Poissons Ratio (y) = 0.30598 0.40322
# Poissons Ratio (z) = 0.09175 0.28715
#
# Static dielectric constant tensor:
#      x y z
#    x 3.348560 0.000000 0.000000 
#    y 0.000000 3.715210 0.000000 
#    z 0.000000 0.000000 4.020560 
# 
# 
# High freq. dielectric constant tensor:
#      x y z
#    x 1.745980 0.000000 0.000000 
#    y 0.000000 1.788480 0.000000 
#    z 0.000000 0.000000 1.798080 
# 
# From -- ./inp_files/36874.got.cif
#   From: 2010.03.12/outbox.cif.g09.slc.cpg/sg72_19_cif.got.tgz:36874.got - 2010.04.16 14:54:00.
