data_PCOD8293176
_publ_section_title
;
Structure prediction by ZEFSAII (Michael W. Deem and Ramdas Pophale) SiO2 
 PCOD8293176
Probable space group: I B A M
;
_chemical_formula_sum "Si O2"
_cell_formula_units_Z 120
_cell_length_a 11.703882
_cell_length_b 21.259484
_cell_length_c 25.749923
_cell_angle_alpha 90.000000
_cell_angle_beta 90.000000
_cell_angle_gamma 90.000000
_cell_volume 6407.057013
_symmetry_space_group_name_H-M "I B A M"
_symmetry_group_IT_number 72
_symmetry_cell_setting 'orthorhombic'
loop_
_space_group_symop_operation_xyz
x,y,z
-x,-y,z
x,-y,1/2-z
-x,y,1/2-z
-x,-y,-z
x,y,-z
-x,y,1/2+z
x,-y,1/2+z
1/2+x,1/2+y,1/2+z
1/2-x,1/2-y,1/2+z
1/2+x,1/2-y,-z
1/2-x,1/2+y,-z
1/2-x,1/2-y,1/2-z
1/2+x,1/2+y,1/2-z
1/2-x,1/2+y,z
1/2+x,1/2-y,z
loop_
_atom_site_type_symbol
_atom_site_label
_atom_site_fract_x
_atom_site_fract_y
_atom_site_fract_z
Si Si1 0.676765 0.931673 0.439020
Si Si2 0.500000 0.000000 0.127178
Si Si3 0.054729 0.381973 0.306292
Si Si4 0.469617 0.320825 0.621166
Si Si5 0.059396 0.063833 0.561267
Si Si6 0.907182 0.314921 0.618282
Si Si7 0.287293 0.336872 0.706831
Si Si8 0.691737 0.702858 0.183802
O O1 0.669744 0.945232 0.500000
O O2 0.610393 0.987894 0.409433
O O3 0.808862 0.931793 0.419951
O O4 0.613514 0.864684 0.428173
O O5 0.490864 0.056393 0.166756
O O6 0.191512 0.390344 0.300817
O O7 0.000000 0.369983 0.250000
O O8 0.020183 0.326499 0.346804
O O9 0.485509 0.376102 0.579657
O O10 0.414852 0.256882 0.596127
O O11 0.388306 0.346576 0.666395
O O12 0.591196 0.302482 0.643223
O O13 0.053998 0.064999 0.500000
O O14 0.000000 0.000000 0.582733
O O15 0.804054 0.325522 0.658049
O O16 0.339120 0.337579 0.764781
O O17 0.212189 0.274379 0.699494
#
# Coordination Sequence:
#
# PCOD8293176 Si02
#       8
#    16   8  16  16  16  16  16  16
#     4  10  21  41  64  83 112 150 193 245 303 351
#     4  10  24  36  58  84 112 148 200 242 288 340
#     4  11  20  36  53  81 117 153 190 235 284 344
#     4  11  21  35  59  86 118 147 196 239 282 349
#     4  10  23  42  64  84 111 155 197 242 299 353
#     4  10  20  34  58  85 114 150 184 238 294 342
#     4  10  21  30  57  82 118 151 188 230 281 338
#     4  10  18  34  51  85 116 152 183 229 285 340
#
# _framework density 18.729347000000001
#
# number of rings (size 3 to 8) (size 9 to 14) (size 15 to 20)
#    0.000    1.733    4.000    0.800    1.867    0.533 
#    0.000    0.000    0.000    0.800    0.000    0.000 
#    0.000    0.000    0.000    0.000    0.000    0.000 
#
# Total GULP energy -743714.213088 kJ/mol
# GULP energy per Si atom -12395.236885 kJ/mol
# Density = 1.868672 g / cm^3
# Si number density = 18.729347 Si / 1000 Ang^3
#
#
#
# Elastic Constant Matrix: (Units=GPa)
#
#
# Indices 1 2 3 4 5 6 
#
# 1 71.0051 23.9660 13.1631 0.0000 0.0000 0.0000
# 2 23.9660 75.0584 21.9487 0.0000 0.0000 0.0000
# 3 13.1631 21.9487 42.8479 0.0000 0.0000 0.0000
# 4 0.0000 0.0000 0.0000 11.2892 0.0000 0.0000
# 5 0.0000 0.0000 0.0000 0.0000 29.0883 0.0000
# 6 0.0000 0.0000 0.0000 0.0000 0.0000 19.2856
#
#
#
# Elastic Compliance Matrix: (Units=1/GPa)
#
#
# Indices 1 2 3 4 5 6 
#
# 1 0.016048 -0.004331 -0.002711 0.000000 0.000000 0.000000
# 2 -0.004331 0.016839 -0.007295 0.000000 0.000000 0.000000
# 3 -0.002711 -0.007295 0.027908 0.000000 0.000000 0.000000
# 4 0.000000 0.000000 0.000000 0.088580 0.000000 0.000000
# 5 0.000000 0.000000 0.000000 0.000000 0.034378 0.000000
# 6 0.000000 0.000000 0.000000 0.000000 0.000000 0.051852
#
#
# Mechanical properties :
#
#
# Convention : Reuss Voigt Hill
#
# Bulk Modulus (GPa) = 31.13347 34.11857 32.62602
# Shear Modulus (GPa) = 18.18259 20.58820 19.38540
#
# Velocity S-wave (km/s) = 3.11916 3.31909 3.22068
# Velocity P-wave (km/s) = 5.44345 5.73974 5.59356
#
# Compressibility (1/GPa) = 0.03211978
#
# Stress axis : x y z
#
# Youngs Moduli (GPa) = 62.31290 59.38518 35.83170
#
# Poissons Ratio (x) = 0.25721 0.09715
# Poissons Ratio (y) = 0.26989 0.26140
# Poissons Ratio (z) = 0.16895 0.43323
#
# Static dielectric constant tensor:
#      x y z
#    x 3.682670 0.000000 0.000000 
#    y 0.000000 3.597170 0.000000 
#    z 0.000000 0.000000 3.311550 
# 
# 
# High freq. dielectric constant tensor:
#      x y z
#    x 1.736560 0.000000 0.000000 
#    y 0.000000 1.715660 0.000000 
#    z 0.000000 0.000000 1.715560 
# 
# From -- ./inp_files/43586.got.cif
#   From: 2010.03.12/outbox.cif.g09.slc.cpg/sg72_22_cif.got.tgz:43586.got - 2010.04.16 14:54:00.
