data_PCOD8293616
_publ_section_title
;
Structure prediction by ZEFSAII (Michael W. Deem and Ramdas Pophale) SiO2 
 PCOD8293616
Probable space group: I B A M
;
_chemical_formula_sum "Si O2"
_cell_formula_units_Z 96
_cell_length_a 12.720101
_cell_length_b 18.369524
_cell_length_c 21.736625
_cell_angle_alpha 90.000000
_cell_angle_beta 90.000000
_cell_angle_gamma 90.000000
_cell_volume 5079.027631
_symmetry_space_group_name_H-M "I B A M"
_symmetry_group_IT_number 72
_symmetry_cell_setting 'orthorhombic'
loop_
_space_group_symop_operation_xyz
x,y,z
-x,-y,z
x,-y,1/2-z
-x,y,1/2-z
-x,-y,-z
x,y,-z
-x,y,1/2+z
x,-y,1/2+z
1/2+x,1/2+y,1/2+z
1/2-x,1/2-y,1/2+z
1/2+x,1/2-y,-z
1/2-x,1/2+y,-z
1/2-x,1/2-y,1/2-z
1/2+x,1/2+y,1/2-z
1/2-x,1/2+y,z
1/2+x,1/2-y,z
loop_
_atom_site_type_symbol
_atom_site_label
_atom_site_fract_x
_atom_site_fract_y
_atom_site_fract_z
Si Si1 0.448147 0.422344 0.378355
Si Si2 0.783630 0.323212 0.325616
Si Si3 0.649187 0.358749 0.432479
Si Si4 0.248402 0.016617 0.067423
Si Si5 0.889314 0.184054 0.277117
Si Si6 0.878806 0.478969 0.317832
O O1 0.500000 0.500000 0.362628
O O2 0.530613 0.366540 0.408097
O O3 0.350639 0.429729 0.424852
O O4 0.404825 0.389430 0.315276
O O5 0.719216 0.308756 0.388292
O O6 0.852522 0.251683 0.318038
O O7 0.697663 0.335797 0.272985
O O8 0.860477 0.393003 0.328178
O O9 0.646383 0.322729 0.500000
O O10 0.703640 0.436273 0.434182
O O11 0.325552 0.024558 0.126171
O O12 0.301224 0.033653 0.000000
O O13 0.000000 0.209425 0.250000
O O14 0.833748 0.500000 0.250000
O O15 0.000000 0.500000 0.320901
#
# Coordination Sequence:
#
# PCOD8293616 Si02
#       6
#    16  16  16  16  16  16
#     4  10  19  34  57  88 117 145 188 242 295 343
#     4  10  22  39  56  81 115 153 191 229 287 341
#     4   9  17  34  56  79 110 148 186 231 287 338
#     4   9  18  33  55  83 115 148 187 237 290 346
#     4  11  22  37  59  84 114 154 188 240 285 345
#     4  10  21  36  57  85 112 154 193 242 289 342
#
# _framework density 18.901254999999999
#
# number of rings (size 3 to 8) (size 9 to 14) (size 15 to 20)
#    0.000    2.167    1.667    1.500    2.333    2.667 
#    0.000    1.667    0.000    0.000    0.000    0.000 
#    0.000    0.000    0.000    0.000    0.000    0.000 
#
# Total GULP energy -594962.587316 kJ/mol
# GULP energy per Si atom -12395.053902 kJ/mol
# Density = 1.885823 g / cm^3
# Si number density = 18.901255 Si / 1000 Ang^3
#
#
#
# Elastic Constant Matrix: (Units=GPa)
#
#
# Indices 1 2 3 4 5 6 
#
# 1 102.2525 38.5471 58.1199 0.0000 0.0000 0.0000
# 2 38.5471 58.5214 38.5923 0.0000 0.0000 0.0000
# 3 58.1199 38.5923 160.7004 0.0000 0.0000 0.0000
# 4 0.0000 0.0000 0.0000 20.4062 0.0000 0.0000
# 5 0.0000 0.0000 0.0000 0.0000 25.4684 0.0000
# 6 0.0000 0.0000 0.0000 0.0000 0.0000 22.9648
#
#
#
# Elastic Compliance Matrix: (Units=1/GPa)
#
#
# Indices 1 2 3 4 5 6 
#
# 1 0.014502 -0.007240 -0.003506 0.000000 0.000000 0.000000
# 2 -0.007240 0.023918 -0.003125 0.000000 0.000000 0.000000
# 3 -0.003506 -0.003125 0.008241 0.000000 0.000000 0.000000
# 4 0.000000 0.000000 0.000000 0.049005 0.000000 0.000000
# 5 0.000000 0.000000 0.000000 0.000000 0.039264 0.000000
# 6 0.000000 0.000000 0.000000 0.000000 0.000000 0.043545
#
#
# Mechanical properties :
#
#
# Convention : Reuss Voigt Hill
#
# Bulk Modulus (GPa) = 52.86002 65.77699 59.31850
# Shear Modulus (GPa) = 23.52674 26.18222 24.85448
#
# Velocity S-wave (km/s) = 3.53188 3.72588 3.63018
# Velocity P-wave (km/s) = 6.68277 7.30653 7.00160
#
# Compressibility (1/GPa) = 0.01891789
#
# Stress axis : x y z
#
# Youngs Moduli (GPa) = 68.95632 41.81003 121.33888
#
# Poissons Ratio (x) = 0.30271 0.42543
# Poissons Ratio (y) = 0.49925 0.37923
# Poissons Ratio (z) = 0.24177 0.13067
#
# Static dielectric constant tensor:
#      x y z
#    x 3.506740 0.000000 0.000000 
#    y 0.000000 3.141220 0.000000 
#    z 0.000000 0.000000 4.000670 
# 
# 
# High freq. dielectric constant tensor:
#      x y z
#    x 1.735480 0.000000 0.000000 
#    y 0.000000 1.702470 0.000000 
#    z 0.000000 0.000000 1.746640 
# 
# From -- ./inp_files/37099.got.cif
#   From: 2010.03.12/outbox.cif.g09.slc.cpg/sg72_19_cif.got.tgz:37099.got - 2010.04.16 14:54:00.
