data_PCOD8293002
_publ_section_title
;
Structure prediction by ZEFSAII (Michael W. Deem and Ramdas Pophale) SiO2 
 PCOD8293002
Probable space group: I B A M
;
_chemical_formula_sum "Si O2"
_cell_formula_units_Z 104
_cell_length_a 17.600218
_cell_length_b 13.209355
_cell_length_c 25.602187
_cell_angle_alpha 90.000000
_cell_angle_beta 90.000000
_cell_angle_gamma 90.000000
_cell_volume 5952.189158
_symmetry_space_group_name_H-M "I B A M"
_symmetry_group_IT_number 72
_symmetry_cell_setting 'orthorhombic'
loop_
_space_group_symop_operation_xyz
x,y,z
-x,-y,z
x,-y,1/2-z
-x,y,1/2-z
-x,-y,-z
x,y,-z
-x,y,1/2+z
x,-y,1/2+z
1/2+x,1/2+y,1/2+z
1/2-x,1/2-y,1/2+z
1/2+x,1/2-y,-z
1/2-x,1/2+y,-z
1/2-x,1/2-y,1/2-z
1/2+x,1/2+y,1/2-z
1/2-x,1/2+y,z
1/2+x,1/2-y,z
loop_
_atom_site_type_symbol
_atom_site_label
_atom_site_fract_x
_atom_site_fract_y
_atom_site_fract_z
Si Si1 0.401835 0.907849 0.637596
Si Si2 0.570599 0.872005 0.612797
Si Si3 0.204489 0.136065 0.000000
Si Si4 0.782003 0.395621 0.226366
Si Si5 0.801969 0.746355 0.583544
Si Si6 0.611630 0.819045 0.500000
Si Si7 0.215849 0.100963 0.500000
Si Si8 0.193796 0.263020 0.173515
O O1 0.491151 0.885594 0.642651
O O2 0.359251 0.902794 0.692875
O O3 0.374438 0.820630 0.598114
O O4 0.385299 0.020553 0.615686
O O5 0.562869 0.847529 0.551226
O O6 0.615013 0.781730 0.642866
O O7 0.247573 0.169672 0.052300
O O8 0.124745 0.197349 0.000000
O O9 0.193364 0.015977 0.000000
O O10 0.753279 0.500000 0.250000
O O11 0.804794 0.327083 0.274534
O O12 0.711439 0.352823 0.191622
O O13 0.823365 0.845031 0.549790
O O14 0.761702 0.792650 0.634541
O O15 0.693229 0.877566 0.500000
#
# Coordination Sequence:
#
# PCOD8293002 Si02
#       8
#    16  16   8  16  16   8   8  16
#     4  10  22  33  54  81 113 147 173 228 282 340
#     4  11  20  36  54  82 117 146 176 220 287 335
#     4  10  18  29  54  78  98 141 185 233 269 322
#     4  10  20  35  56  83 109 139 192 228 274 322
#     4   9  19  33  50  79 107 138 182 227 277 317
#     4  10  20  33  51  82 111 142 183 221 276 338
#     4  10  18  31  55  79 103 143 186 237 265 329
#     4  10  19  34  54  79 110 145 177 233 270 322
#
# _framework density 17.472563000000001
#
# number of rings (size 3 to 8) (size 9 to 14) (size 15 to 20)
#    0.000    2.154    4.615    0.923    0.000    3.692 
#    0.000    0.000    0.000    1.846    0.000    9.692 
#    0.000    0.000    0.000    0.000    0.000    0.000 
#
# Total GULP energy -644328.459928 kJ/mol
# GULP energy per Si atom -12390.931922 kJ/mol
# Density = 1.743280 g / cm^3
# Si number density = 17.472563 Si / 1000 Ang^3
#
#
#
# Elastic Constant Matrix: (Units=GPa)
#
#
# Indices 1 2 3 4 5 6 
#
# 1 67.6213 42.8919 33.8466 0.0000 0.0000 0.0000
# 2 42.8919 126.7366 53.7910 0.0000 0.0000 0.0000
# 3 33.8466 53.7910 118.6399 0.0000 0.0000 0.0000
# 4 0.0000 0.0000 0.0000 25.8007 0.0000 0.0000
# 5 0.0000 0.0000 0.0000 0.0000 22.4118 0.0000
# 6 0.0000 0.0000 0.0000 0.0000 0.0000 25.6709
#
#
#
# Elastic Compliance Matrix: (Units=1/GPa)
#
#
# Indices 1 2 3 4 5 6 
#
# 1 0.019782 -0.005324 -0.003230 0.000000 0.000000 0.000000
# 2 -0.005324 0.011204 -0.003561 0.000000 0.000000 0.000000
# 3 -0.003230 -0.003561 0.010965 0.000000 0.000000 0.000000
# 4 0.000000 0.000000 0.000000 0.038759 0.000000 0.000000
# 5 0.000000 0.000000 0.000000 0.000000 0.044619 0.000000
# 6 0.000000 0.000000 0.000000 0.000000 0.000000 0.038955
#
#
# Mechanical properties :
#
#
# Convention : Reuss Voigt Hill
#
# Bulk Modulus (GPa) = 56.42976 63.78408 60.10692
# Shear Modulus (GPa) = 25.71771 26.94122 26.32947
#
# Velocity S-wave (km/s) = 3.84069 3.93098 3.88610
# Velocity P-wave (km/s) = 7.21347 7.56228 7.38993
#
# Compressibility (1/GPa) = 0.01772114
#
# Stress axis : x y z
#
# Youngs Moduli (GPa) = 50.55154 89.25763 91.20204
#
# Poissons Ratio (x) = 0.47521 0.29454
# Poissons Ratio (y) = 0.26914 0.32475
# Poissons Ratio (z) = 0.16326 0.31782
#
# Static dielectric constant tensor:
#      x y z
#    x 2.950440 0.000000 0.000000 
#    y 0.000000 3.635070 0.000000 
#    z 0.000000 0.000000 3.429550 
# 
# 
# High freq. dielectric constant tensor:
#      x y z
#    x 1.636610 0.000000 0.000000 
#    y 0.000000 1.672850 0.000000 
#    z 0.000000 0.000000 1.696450 
# 
# From -- ./inp_files/49174.got.cif
#   From: 2010.03.12/outbox.cif.g09.slc.cpg/sg72_25_cif.got.tgz:49174.got - 2010.04.16 14:54:00.
