data_PCOD8293085
_publ_section_title
;
Structure prediction by ZEFSAII (Michael W. Deem and Ramdas Pophale) SiO2 
 PCOD8293085
Probable space group: I B A M
;
_chemical_formula_sum "Si O2"
_cell_formula_units_Z 112
_cell_length_a 29.549915
_cell_length_b 22.811725
_cell_length_c 9.109674
_cell_angle_alpha 90.000000
_cell_angle_beta 90.000000
_cell_angle_gamma 90.000000
_cell_volume 6140.690360
_symmetry_space_group_name_H-M "I B A M"
_symmetry_group_IT_number 72
_symmetry_cell_setting 'orthorhombic'
loop_
_space_group_symop_operation_xyz
x,y,z
-x,-y,z
x,-y,1/2-z
-x,y,1/2-z
-x,-y,-z
x,y,-z
-x,y,1/2+z
x,-y,1/2+z
1/2+x,1/2+y,1/2+z
1/2-x,1/2-y,1/2+z
1/2+x,1/2-y,-z
1/2-x,1/2+y,-z
1/2-x,1/2-y,1/2-z
1/2+x,1/2+y,1/2-z
1/2-x,1/2+y,z
1/2+x,1/2-y,z
loop_
_atom_site_type_symbol
_atom_site_label
_atom_site_fract_x
_atom_site_fract_y
_atom_site_fract_z
Si Si1 0.045163 0.790609 0.828563
Si Si2 0.294537 0.896317 0.326809
Si Si3 0.545156 0.157572 0.672468
Si Si4 0.359561 0.339884 0.827898
Si Si5 0.387781 0.942873 0.327029
Si Si6 0.302917 0.561515 0.824088
Si Si7 0.704407 0.765722 0.171704
O O1 0.056463 0.724054 0.778402
O O2 0.087526 0.832073 0.788557
O O3 0.000000 0.814549 0.750000
O O4 0.035424 0.792152 0.000000
O O5 0.290537 0.897770 0.500000
O O6 0.335625 0.937241 0.273609
O O7 0.246410 0.918184 0.263404
O O8 0.307957 0.830995 0.275166
O O9 0.500000 0.134758 0.750000
O O10 0.537532 0.153901 0.500000
O O11 0.585664 0.115266 0.722974
O O12 0.340117 0.391992 0.729292
O O13 0.335162 0.279055 0.784874
O O14 0.352659 0.354151 0.000000
O O15 0.391282 0.951292 0.500000
O O16 0.408919 0.000000 0.250000
O O17 0.315166 0.500000 0.750000
O O18 0.304662 0.556333 0.000000
O O19 0.750000 0.750000 0.250000
O O20 0.713679 0.764011 0.000000
#
# Coordination Sequence:
#
# PCOD8293085 Si02
#       7
#    16  16  16  16  16  16  16
#     4   9  18  34  56  82 107 135 169 209 260 317
#     4   9  18  33  52  73 102 138 174 214 258 305
#     4   9  18  33  53  74  99 132 169 212 262 312
#     4  10  20  34  55  81 110 141 173 212 261 314
#     4  10  20  34  50  69  96 135 179 219 260 303
#     4  11  22  36  54  76 105 141 180 217 255 304
#     4  10  18  31  51  77 107 137 171 213 259 310
#
# _framework density 18.238993000000001
#
# number of rings (size 3 to 8) (size 9 to 14) (size 15 to 20)
#    0.000    2.286    1.429    1.714    0.000    4.857 
#    0.000    2.857    0.000    3.857    0.000    3.000 
#    0.000    0.000    0.000    0.000    0.000    0.000 
#
# Total GULP energy -694293.798432 kJ/mol
# GULP energy per Si atom -12398.103543 kJ/mol
# Density = 1.819748 g / cm^3
# Si number density = 18.238993 Si / 1000 Ang^3
#
#
#
# Elastic Constant Matrix: (Units=GPa)
#
#
# Indices 1 2 3 4 5 6 
#
# 1 126.7397 48.2068 39.3977 0.0000 0.0000 0.0000
# 2 48.2068 104.8505 37.5216 0.0000 0.0000 0.0000
# 3 39.3977 37.5216 39.1910 0.0000 0.0000 0.0000
# 4 0.0000 0.0000 0.0000 25.3252 0.0000 0.0000
# 5 0.0000 0.0000 0.0000 0.0000 29.4037 0.0000
# 6 0.0000 0.0000 0.0000 0.0000 0.0000 16.7895
#
#
#
# Elastic Compliance Matrix: (Units=1/GPa)
#
#
# Indices 1 2 3 4 5 6 
#
# 1 0.011691 -0.001779 -0.010049 0.000000 0.000000 0.000000
# 2 -0.001779 0.014779 -0.012361 0.000000 0.000000 0.000000
# 3 -0.010049 -0.012361 0.047453 0.000000 0.000000 0.000000
# 4 0.000000 0.000000 0.000000 0.039486 0.000000 0.000000
# 5 0.000000 0.000000 0.000000 0.000000 0.034009 0.000000
# 6 0.000000 0.000000 0.000000 0.000000 0.000000 0.059561
#
#
# Mechanical properties :
#
#
# Convention : Reuss Voigt Hill
#
# Bulk Modulus (GPa) = 39.14816 57.89258 48.52037
# Shear Modulus (GPa) = 18.94861 24.01402 21.48132
#
# Velocity S-wave (km/s) = 3.22670 3.63248 3.43559
# Velocity P-wave (km/s) = 5.94918 7.02874 6.51137
#
# Compressibility (1/GPa) = 0.02554398
#
# Stress axis : x y z
#
# Youngs Moduli (GPa) = 85.53866 67.66496 21.07357
#
# Poissons Ratio (x) = 0.12036 0.21177
# Poissons Ratio (y) = 0.15215 0.26049
# Poissons Ratio (z) = 0.85960 0.83641
#
# Static dielectric constant tensor:
#      x y z
#    x 3.397810 0.000000 0.000000 
#    y 0.000000 3.314380 0.000000 
#    z 0.000000 0.000000 3.154110 
# 
# 
# High freq. dielectric constant tensor:
#      x y z
#    x 1.707230 0.000000 0.000000 
#    y 0.000000 1.702400 0.000000 
#    z 0.000000 0.000000 1.687020 
# 
# From -- ./inp_files/14884.got.cif
#   From: 2010.03.12/outbox.cif.g09.slc.cpg/sg72_8_cif.got.tgz:14884.got - 2010.04.16 14:54:00.
