data_PCOD8293092
_publ_section_title
;
Structure prediction by ZEFSAII (Michael W. Deem and Ramdas Pophale) SiO2 
 PCOD8293092
Probable space group: I B A M
;
_chemical_formula_sum "Si O2"
_cell_formula_units_Z 96
_cell_length_a 10.370484
_cell_length_b 28.742703
_cell_length_c 17.931540
_cell_angle_alpha 90.000000
_cell_angle_beta 90.000000
_cell_angle_gamma 90.000000
_cell_volume 5344.957083
_symmetry_space_group_name_H-M "I B A M"
_symmetry_group_IT_number 72
_symmetry_cell_setting 'orthorhombic'
loop_
_space_group_symop_operation_xyz
x,y,z
-x,-y,z
x,-y,1/2-z
-x,y,1/2-z
-x,-y,-z
x,y,-z
-x,y,1/2+z
x,-y,1/2+z
1/2+x,1/2+y,1/2+z
1/2-x,1/2-y,1/2+z
1/2+x,1/2-y,-z
1/2-x,1/2+y,-z
1/2-x,1/2-y,1/2-z
1/2+x,1/2+y,1/2-z
1/2-x,1/2+y,z
1/2+x,1/2-y,z
loop_
_atom_site_type_symbol
_atom_site_label
_atom_site_fract_x
_atom_site_fract_y
_atom_site_fract_z
Si Si1 0.628497 0.521398 0.412136
Si Si2 0.729409 0.279466 0.087785
Si Si3 0.879132 0.531056 0.088154
Si Si4 0.506288 0.114076 0.164293
Si Si5 0.257529 0.615295 0.085870
Si Si6 0.996355 0.278530 0.337049
O O1 0.500000 0.500000 0.374915
O O2 0.625133 0.513517 0.500000
O O3 0.751702 0.493994 0.380168
O O4 0.634910 0.576662 0.393658
O O5 0.691625 0.333147 0.103902
O O6 0.614446 0.250009 0.122119
O O7 0.865150 0.266886 0.126630
O O8 0.742322 0.269249 0.000000
O O9 0.886599 0.582240 0.124570
O O10 0.000000 0.500000 0.113318
O O11 0.875228 0.537399 0.000000
O O12 0.500000 0.101052 0.250000
O O13 0.367973 0.102217 0.131421
O O14 0.542009 0.167842 0.151323
O O15 0.216596 0.611033 0.000000
O O16 0.000000 0.265134 0.250000
#
# Coordination Sequence:
#
# PCOD8293092 Si02
#       6
#    16  16  16  16  16  16
#     4   9  17  31  51  74 103 136 171 210 261 321
#     4  10  20  35  58  84 109 141 185 236 278 320
#     4  10  18  31  53  78 101 134 177 217 261 314
#     4  10  20  33  53  80 106 137 179 220 265 316
#     4   9  17  33  55  75 104 141 175 212 269 327
#     4  10  21  38  57  79 112 149 183 222 281 346
#
# _framework density 17.960856
#
# number of rings (size 3 to 8) (size 9 to 14) (size 15 to 20)
#    0.000    2.333    1.667    1.500    0.000    2.333 
#    3.000    0.000    0.000    1.000    0.000    0.000 
#    0.000    0.000    0.000    0.000    0.000    0.000 
#
# Total GULP energy -595134.987454 kJ/mol
# GULP energy per Si atom -12398.645572 kJ/mol
# Density = 1.791998 g / cm^3
# Si number density = 17.960856 Si / 1000 Ang^3
#
#
#
# Elastic Constant Matrix: (Units=GPa)
#
#
# Indices 1 2 3 4 5 6 
#
# 1 143.8422 82.6290 54.6611 -0.0001 0.0000 0.0000
# 2 82.6290 117.4971 50.7536 -0.0001 0.0000 0.0000
# 3 54.6611 50.7536 70.0682 -0.0015 0.0001 0.0000
# 4 -0.0001 -0.0001 -0.0015 27.1483 0.0000 0.0000
# 5 0.0000 0.0000 0.0001 0.0000 19.8280 -0.0001
# 6 0.0000 0.0000 0.0000 0.0000 -0.0001 34.8471
#
#
#
# Elastic Compliance Matrix: (Units=1/GPa)
#
#
# Indices 1 2 3 4 5 6 
#
# 1 0.012778 -0.006811 -0.005034 0.000000 0.000000 0.000000
# 2 -0.006811 0.016017 -0.006288 0.000000 0.000000 0.000000
# 3 -0.005034 -0.006288 0.022754 0.000001 0.000000 0.000000
# 4 0.000000 0.000000 0.000001 0.036835 0.000000 0.000000
# 5 0.000000 0.000000 0.000000 0.000000 0.050434 0.000000
# 6 0.000000 0.000000 0.000000 0.000000 0.000000 0.028697
#
#
# Mechanical properties :
#
#
# Convention : Reuss Voigt Hill
#
# Bulk Modulus (GPa) = 65.44077 78.61052 72.02565
# Shear Modulus (GPa) = 23.93761 25.92228 24.92995
#
# Velocity S-wave (km/s) = 3.65467 3.80315 3.72965
# Velocity P-wave (km/s) = 7.37042 7.94657 7.66391
#
# Compressibility (1/GPa) = 0.01528099
#
# Stress axis : x y z
#
# Youngs Moduli (GPa) = 78.26027 62.43309 43.94788
#
# Poissons Ratio (x) = 0.42525 0.22125
# Poissons Ratio (y) = 0.53305 0.27636
# Poissons Ratio (z) = 0.39400 0.39260
#
# Static dielectric constant tensor:
#      x y z
#    x 3.401920 0.000000 0.000000 
#    y 0.000000 3.514750 0.000000 
#    z 0.000000 0.000000 3.243820 
# 
# 
# High freq. dielectric constant tensor:
#      x y z
#    x 1.683490 0.000000 0.000000 
#    y 0.000000 1.705740 0.000000 
#    z 0.000000 0.000000 1.682880 
# 
# From -- ./inp_files/36059.got.cif
#   From: 2010.03.12/outbox.cif.g09.slc.cpg/sg72_19_cif.got.tgz:36059.got - 2010.04.16 14:54:00.
