data_PCOD8293846
_publ_section_title
;
Structure prediction by ZEFSAII (Michael W. Deem and Ramdas Pophale) SiO2 
 PCOD8293846
Probable space group: I B A M
;
_chemical_formula_sum "Si O2"
_cell_formula_units_Z 52
_cell_length_a 13.805767
_cell_length_b 23.982648
_cell_length_c 9.010908
_cell_angle_alpha 90.000000
_cell_angle_beta 90.000000
_cell_angle_gamma 90.000000
_cell_volume 2983.501279
_symmetry_space_group_name_H-M "I B A M"
_symmetry_group_IT_number 72
_symmetry_cell_setting 'orthorhombic'
loop_
_space_group_symop_operation_xyz
x,y,z
-x,-y,z
x,-y,1/2-z
-x,y,1/2-z
-x,-y,-z
x,y,-z
-x,y,1/2+z
x,-y,1/2+z
1/2+x,1/2+y,1/2+z
1/2-x,1/2-y,1/2+z
1/2+x,1/2-y,-z
1/2-x,1/2+y,-z
1/2-x,1/2-y,1/2-z
1/2+x,1/2+y,1/2-z
1/2-x,1/2+y,z
1/2+x,1/2-y,z
loop_
_atom_site_type_symbol
_atom_site_label
_atom_site_fract_x
_atom_site_fract_y
_atom_site_fract_z
Si Si1 0.602415 0.767142 0.327199
Si Si2 0.500000 0.500000 0.250000
Si Si3 0.185786 0.052348 0.334643
Si Si4 0.740944 0.664207 0.327199
O O1 0.500000 0.761269 0.250000
O O2 0.588836 0.779818 0.500000
O O3 0.658519 0.709781 0.298595
O O4 0.660396 0.818266 0.254343
O O5 0.429972 0.460050 0.152106
O O6 0.228791 0.059246 0.500000
O O7 0.203045 0.107013 0.239405
O O8 0.236773 0.000000 0.250000
O O9 0.763367 0.656527 0.500000
#
# Coordination Sequence:
#
# PCOD8293846 Si02
#       4
#    16   4  16  16
#     4  10  21  36  55  79 107 142 180 222 268 316
#     4   8  22  32  50  76 108 140 178 212 260 324
#     4  10  20  33  51  75 107 140 175 216 262 315
#     4  10  21  36  54  79 109 142 180 221 266 317
#
# _framework density 17.429186000000001
#
# number of rings (size 3 to 8) (size 9 to 14) (size 15 to 20)
#    0.923    1.231    0.000    3.231    2.154    3.692 
#    0.000    0.000    0.000    0.923    0.000    6.462 
#    0.000    0.000    0.000    0.000    0.000    0.000 
#
# Total GULP energy -322280.748897 kJ/mol
# GULP energy per Si atom -12395.413419 kJ/mol
# Density = 1.738952 g / cm^3
# Si number density = 17.429186 Si / 1000 Ang^3
#
#
#
# Elastic Constant Matrix: (Units=GPa)
#
#
# Indices 1 2 3 4 5 6 
#
# 1 74.1186 27.6033 61.1211 0.0002 0.0004 0.0002
# 2 27.6033 113.4548 63.0448 -0.0001 0.0011 -0.0001
# 3 61.1211 63.0448 142.0032 -0.0037 0.0111 -0.0032
# 4 0.0002 -0.0001 -0.0037 29.2111 0.0032 -0.0008
# 5 0.0004 0.0011 0.0111 0.0032 8.8761 0.0001
# 6 0.0002 -0.0001 -0.0032 -0.0008 0.0001 16.6345
#
#
#
# Elastic Compliance Matrix: (Units=1/GPa)
#
#
# Indices 1 2 3 4 5 6 
#
# 1 0.020917 -0.000114 -0.008952 -0.000001 0.000010 -0.000002
# 2 -0.000114 0.011701 -0.005146 -0.000001 0.000005 -0.000001
# 3 -0.008952 -0.005146 0.013180 0.000002 -0.000015 0.000003
# 4 -0.000001 -0.000001 0.000002 0.034234 -0.000012 0.000002
# 5 0.000010 0.000005 -0.000015 -0.000012 0.112662 -0.000001
# 6 -0.000002 -0.000001 0.000003 0.000002 -0.000001 0.060116
#
#
# Mechanical properties :
#
#
# Convention : Reuss Voigt Hill
#
# Bulk Modulus (GPa) = 57.55986 70.34612 63.95299
# Shear Modulus (GPa) = 17.42005 22.79818 20.10912
#
# Velocity S-wave (km/s) = 3.16488 3.62062 3.40039
# Velocity P-wave (km/s) = 6.81557 7.61099 7.22424
#
# Compressibility (1/GPa) = 0.01737322
#
# Stress axis : x y z
#
# Youngs Moduli (GPa) = 47.80825 85.46036 75.87309
#
# Poissons Ratio (x) = 0.00978 0.67924
# Poissons Ratio (y) = 0.00547 0.39043
# Poissons Ratio (z) = 0.42799 0.43976
#
# Static dielectric constant tensor:
#      x y z
#    x 3.034600 0.000000 0.000000 
#    y 0.000000 3.181070 0.000000 
#    z 0.000000 0.000000 3.374170 
# 
# 
# High freq. dielectric constant tensor:
#      x y z
#    x 1.646470 0.000000 0.000000 
#    y 0.000000 1.672100 0.000000 
#    z 0.000000 0.000000 1.692120 
# 
# From -- ./inp_files/2295.got.cif
#   From: 2010.03.12/outbox.cif.g09.slc.cpg/sg72_2_cif.got.tgz:2295.got - 2010.04.16 14:54:00.
