data_PCOD8293112
_publ_section_title
;
Structure prediction by ZEFSAII (Michael W. Deem and Ramdas Pophale) SiO2 
 PCOD8293112
Probable space group: I B A M
;
_chemical_formula_sum "Si O2"
_cell_formula_units_Z 96
_cell_length_a 29.178415
_cell_length_b 26.289762
_cell_length_c 8.711322
_cell_angle_alpha 90.000000
_cell_angle_beta 90.000000
_cell_angle_gamma 90.000000
_cell_volume 6682.399231
_symmetry_space_group_name_H-M "I B A M"
_symmetry_group_IT_number 72
_symmetry_cell_setting 'orthorhombic'
loop_
_space_group_symop_operation_xyz
x,y,z
-x,-y,z
x,-y,1/2-z
-x,y,1/2-z
-x,-y,-z
x,y,-z
-x,y,1/2+z
x,-y,1/2+z
1/2+x,1/2+y,1/2+z
1/2-x,1/2-y,1/2+z
1/2+x,1/2-y,-z
1/2-x,1/2+y,-z
1/2-x,1/2-y,1/2-z
1/2+x,1/2+y,1/2-z
1/2-x,1/2+y,z
1/2+x,1/2-y,z
loop_
_atom_site_type_symbol
_atom_site_label
_atom_site_fract_x
_atom_site_fract_y
_atom_site_fract_z
Si Si1 0.046347 0.216740 0.820940
Si Si2 0.856726 0.241850 0.680362
Si Si3 0.861408 0.946019 0.318041
Si Si4 0.047425 0.098695 0.180804
Si Si5 0.772292 0.700040 0.818985
Si Si6 0.196677 0.857565 0.681893
O O1 0.091319 0.246222 0.754508
O O2 0.052579 0.157853 0.776703
O O3 0.000000 0.239852 0.750000
O O4 0.041509 0.224398 0.000000
O O5 0.860228 0.233127 0.500000
O O6 0.827002 0.292877 0.716693
O O7 0.832385 0.190763 0.743718
O O8 0.862511 0.948165 0.500000
O O9 0.911350 0.931475 0.257073
O O10 0.822572 0.907245 0.262827
O O11 0.846943 0.000000 0.250000
O O12 0.000000 0.077369 0.250000
O O13 0.048499 0.089349 0.000000
O O14 0.750000 0.750000 0.750000
O O15 0.749776 0.651179 0.735337
O O16 0.763341 0.696871 0.000000
O O17 0.194323 0.864469 0.500000
#
# Coordination Sequence:
#
# PCOD8293112 Si02
#       6
#    16  16  16  16  16  16
#     4   9  16  27  41  59  82 110 137 168 206 246
#     4   8  14  26  43  60  83 109 132 163 205 245
#     4  12  24  36  49  64  80 104 138 174 218 265
#     4  10  19  33  49  63  81 104 136 176 220 260
#     4   9  16  26  42  64  84 107 135 165 205 252
#     4  10  18  32  47  61  83 107 131 171 215 253
#
# _framework density 14.366097
#
# number of rings (size 3 to 8) (size 9 to 14) (size 15 to 20)
#    0.000    2.333    1.667    4.000    0.000    1.000 
#    0.000    3.333    0.000    0.000    0.000    0.000 
#    0.000    0.000    0.000    0.000    0.000    0.833 
#
# Total GULP energy -594834.649764 kJ/mol
# GULP energy per Si atom -12392.388537 kJ/mol
# Density = 1.433340 g / cm^3
# Si number density = 14.366097 Si / 1000 Ang^3
#
#
#
# Elastic Constant Matrix: (Units=GPa)
#
#
# Indices 1 2 3 4 5 6 
#
# 1 119.2040 57.2152 33.4559 0.0000 0.0000 0.0000
# 2 57.2152 55.0028 28.0614 0.0000 0.0000 0.0000
# 3 33.4559 28.0614 60.8268 0.0000 0.0000 0.0000
# 4 0.0000 0.0000 0.0000 17.2436 0.0000 0.0000
# 5 0.0000 0.0000 0.0000 0.0000 23.4157 0.0000
# 6 0.0000 0.0000 0.0000 0.0000 0.0000 17.9386
#
#
#
# Elastic Compliance Matrix: (Units=1/GPa)
#
#
# Indices 1 2 3 4 5 6 
#
# 1 0.016864 -0.016754 -0.001547 0.000000 0.000000 0.000000
# 2 -0.016754 0.040421 -0.009433 0.000000 0.000000 0.000000
# 3 -0.001547 -0.009433 0.021642 0.000000 0.000000 0.000000
# 4 0.000000 0.000000 0.000000 0.057993 0.000000 0.000000
# 5 0.000000 0.000000 0.000000 0.000000 0.042706 0.000000
# 6 0.000000 0.000000 0.000000 0.000000 0.000000 0.055746
#
#
# Mechanical properties :
#
#
# Convention : Reuss Voigt Hill
#
# Bulk Modulus (GPa) = 42.62280 52.49985 47.56133
# Shear Modulus (GPa) = 16.74151 19.47299 18.10725
#
# Velocity S-wave (km/s) = 3.41742 3.68568 3.55408
# Velocity P-wave (km/s) = 6.73091 7.39837 7.07252
#
# Compressibility (1/GPa) = 0.02346162
#
# Stress axis : x y z
#
# Youngs Moduli (GPa) = 59.29620 24.73977 46.20559
#
# Poissons Ratio (x) = 0.41448 0.07147
# Poissons Ratio (y) = 0.99343 0.43584
# Poissons Ratio (z) = 0.09172 0.23336
#
# Static dielectric constant tensor:
#      x y z
#    x 3.294680 0.000000 0.000000 
#    y 0.000000 2.614960 0.000000 
#    z 0.000000 0.000000 2.864240 
# 
# 
# High freq. dielectric constant tensor:
#      x y z
#    x 1.551560 0.000000 0.000000 
#    y 0.000000 1.494050 0.000000 
#    z 0.000000 0.000000 1.554600 
# 
# From -- ./inp_files/8476.got.cif
#   From: 2010.03.12/outbox.cif.g09.slc.cpg/sg72_5_cif.got.tgz:8476.got - 2010.04.16 14:54:00.
