data_PCOD8293151
_publ_section_title
;
Structure prediction by ZEFSAII (Michael W. Deem and Ramdas Pophale) SiO2 
 PCOD8293151
Probable space group: I B A M
;
_chemical_formula_sum "Si O2"
_cell_formula_units_Z 60
_cell_length_a 18.016929
_cell_length_b 16.808039
_cell_length_c 9.053614
_cell_angle_alpha 90.000000
_cell_angle_beta 90.000000
_cell_angle_gamma 90.000000
_cell_volume 2741.699095
_symmetry_space_group_name_H-M "I B A M"
_symmetry_group_IT_number 72
_symmetry_cell_setting 'orthorhombic'
loop_
_space_group_symop_operation_xyz
x,y,z
-x,-y,z
x,-y,1/2-z
-x,y,1/2-z
-x,-y,-z
x,y,-z
-x,y,1/2+z
x,-y,1/2+z
1/2+x,1/2+y,1/2+z
1/2-x,1/2-y,1/2+z
1/2+x,1/2-y,-z
1/2-x,1/2+y,-z
1/2-x,1/2-y,1/2-z
1/2+x,1/2+y,1/2-z
1/2-x,1/2+y,z
1/2+x,1/2-y,z
loop_
_atom_site_type_symbol
_atom_site_label
_atom_site_fract_x
_atom_site_fract_y
_atom_site_fract_z
Si Si1 0.500000 0.500000 0.250000
Si Si2 0.652552 0.845811 0.749061
Si Si3 0.416957 0.771214 0.500000
Si Si4 0.647301 0.971206 0.000000
Si Si5 0.574149 0.599747 0.000000
Si Si6 0.454885 0.892962 0.000000
Si Si7 0.748357 0.375839 0.500000
O O1 0.551568 0.445831 0.352272
O O2 0.635820 0.770429 0.855296
O O3 0.580726 0.856083 0.646479
O O4 0.725691 0.829480 0.649146
O O5 0.663495 0.923077 0.851328
O O6 0.463175 0.688611 0.500000
O O7 0.460631 0.857485 0.500000
O O8 0.705711 0.042658 0.000000
O O9 0.563119 0.010865 0.000000
O O10 0.661796 0.610037 0.000000
#
# Coordination Sequence:
#
# PCOD8293151 Si02
#       7
#     4  16   8   8   8   8   8
#     4  10  28  54  68 106 104 148 226 278 332 418
#     4   9  20  35  58  97 132 166 223 237 300 386
#     4  11  23  38  60  93 134 176 200 263 308 370
#     4   9  18  35  59  96 131 169 223 243 286 392
#     4  11  27  47  75  92 122 154 214 275 344 381
#     4  10  18  32  57  87 131 185 203 250 295 348
#     4  10  20  39  65  90 128 175 198 267 306 361
#
# _framework density 21.884239000000001
#
# number of rings (size 3 to 8) (size 9 to 14) (size 15 to 20)
#    0.000    2.400    0.000    4.000    7.467    3.200 
#    0.000   10.667    0.000    1.600    0.000    0.000 
#    0.000    0.000    0.000    0.000    0.000    0.000 
#
# Total GULP energy -371689.578177 kJ/mol
# GULP energy per Si atom -12389.652606 kJ/mol
# Density = 2.183443 g / cm^3
# Si number density = 21.884239 Si / 1000 Ang^3
#
#
#
# Elastic Constant Matrix: (Units=GPa)
#
#
# Indices 1 2 3 4 5 6 
#
# 1 103.6187 10.8688 44.6526 0.0000 0.0000 0.0000
# 2 10.8688 111.0783 38.7483 0.0000 0.0000 0.0000
# 3 44.6526 38.7483 181.3961 0.0000 0.0000 0.0000
# 4 0.0000 0.0000 0.0000 2.6307 0.0000 0.0000
# 5 0.0000 0.0000 0.0000 0.0000 10.8557 0.0000
# 6 0.0000 0.0000 0.0000 0.0000 0.0000 18.4760
#
#
#
# Elastic Compliance Matrix: (Units=1/GPa)
#
#
# Indices 1 2 3 4 5 6 
#
# 1 0.010798 -0.000140 -0.002628 0.000000 0.000000 0.000000
# 2 -0.000140 0.009729 -0.002044 0.000000 0.000000 0.000000
# 3 -0.002628 -0.002044 0.006596 0.000000 0.000000 0.000000
# 4 0.000000 0.000000 0.000000 0.380126 0.000000 0.000000
# 5 0.000000 0.000000 0.000000 0.000000 0.092118 0.000000
# 6 0.000000 0.000000 0.000000 0.000000 0.000000 0.054124
#
#
# Mechanical properties :
#
#
# Convention : Reuss Voigt Hill
#
# Bulk Modulus (GPa) = 57.14287 64.95918 61.05102
# Shear Modulus (GPa) = 8.78814 26.51402 17.65108
#
# Velocity S-wave (km/s) = 2.00610 3.48452 2.84309
# Velocity P-wave (km/s) = 5.61552 6.77766 6.22378
#
# Compressibility (1/GPa) = 0.01750000
#
# Stress axis : x y z
#
# Youngs Moduli (GPa) = 92.60976 102.78209 151.59890
#
# Poissons Ratio (x) = 0.01436 0.39843
# Poissons Ratio (y) = 0.01294 0.30985
# Poissons Ratio (z) = 0.24340 0.21008
#
# Static dielectric constant tensor:
#      x y z
#    x 3.725220 0.000000 0.000000 
#    y 0.000000 3.928460 0.000000 
#    z 0.000000 0.000000 5.602300 
# 
# 
# High freq. dielectric constant tensor:
#      x y z
#    x 1.840430 0.000000 0.000000 
#    y 0.000000 1.851940 0.000000 
#    z 0.000000 0.000000 1.889460 
# 
# From -- ./inp_files/4244.got.cif
#   From: 2010.03.12/outbox.cif.g09.slc.cpg/sg72_3_cif.got.tgz:4244.got - 2010.04.16 14:54:00.
