data_PCOD8293354
_publ_section_title
;
Structure prediction by ZEFSAII (Michael W. Deem and Ramdas Pophale) SiO2 
 PCOD8293354
Probable space group: I B A M
;
_chemical_formula_sum "Si O2"
_cell_formula_units_Z 96
_cell_length_a 20.247255
_cell_length_b 28.594344
_cell_length_c 8.795078
_cell_angle_alpha 90.000000
_cell_angle_beta 90.000000
_cell_angle_gamma 90.000000
_cell_volume 5091.971750
_symmetry_space_group_name_H-M "I B A M"
_symmetry_group_IT_number 72
_symmetry_cell_setting 'orthorhombic'
loop_
_space_group_symop_operation_xyz
x,y,z
-x,-y,z
x,-y,1/2-z
-x,y,1/2-z
-x,-y,-z
x,y,-z
-x,y,1/2+z
x,-y,1/2+z
1/2+x,1/2+y,1/2+z
1/2-x,1/2-y,1/2+z
1/2+x,1/2-y,-z
1/2-x,1/2+y,-z
1/2-x,1/2-y,1/2-z
1/2+x,1/2+y,1/2-z
1/2-x,1/2+y,z
1/2+x,1/2-y,z
loop_
_atom_site_type_symbol
_atom_site_label
_atom_site_fract_x
_atom_site_fract_y
_atom_site_fract_z
Si Si1 0.833311 0.211471 0.174070
Si Si2 0.201394 0.311893 0.328552
Si Si3 0.571543 0.629346 0.821979
Si Si4 0.813908 0.405193 0.324578
Si Si5 0.063736 0.550361 0.177508
Si Si6 0.326265 0.550920 0.679249
O O1 0.848043 0.267166 0.185049
O O2 0.776496 0.202484 0.296165
O O3 0.896350 0.179802 0.219022
O O4 0.811398 0.198687 0.000000
O O5 0.197430 0.332261 0.500000
O O6 0.183461 0.349840 0.202017
O O7 0.500000 0.625339 0.750000
O O8 0.618020 0.587091 0.760979
O O9 0.562706 0.624031 0.000000
O O10 0.829643 0.416325 0.500000
O O11 0.868758 0.424281 0.212745
O O12 0.744460 0.427675 0.273840
O O13 0.068673 0.500000 0.250000
O O14 0.000000 0.576849 0.250000
O O15 0.053090 0.546495 0.000000
O O16 0.337432 0.500000 0.750000
O O17 0.330547 0.545496 0.500000
#
# Coordination Sequence:
#
# PCOD8293354 Si02
#       6
#    16  16  16  16  16  16
#     4   9  18  36  56  78 112 146 181 228 284 340
#     4  10  19  31  56  87 111 141 183 232 279 339
#     4  10  21  39  58  80 111 152 191 237 291 346
#     4  11  21  37  58  83 117 155 187 235 291 339
#     4  11  22  38  58  83 113 150 193 233 280 341
#     4  10  22  38  57  80 112 148 190 239 292 339
#
# _framework density 18.853209
#
# number of rings (size 3 to 8) (size 9 to 14) (size 15 to 20)
#    0.000    1.833    1.667    3.500    0.000    5.000 
#    0.000    2.500    0.000    2.000    0.000    0.000 
#    0.000    0.000    0.000    0.000    0.000    0.000 
#
# Total GULP energy -595006.172965 kJ/mol
# GULP energy per Si atom -12395.961937 kJ/mol
# Density = 1.881030 g / cm^3
# Si number density = 18.853209 Si / 1000 Ang^3
#
#
#
# Elastic Constant Matrix: (Units=GPa)
#
#
# Indices 1 2 3 4 5 6 
#
# 1 132.3237 64.0505 34.6213 0.0000 0.0000 0.0000
# 2 64.0505 115.5879 30.4505 0.0000 0.0000 0.0000
# 3 34.6213 30.4505 66.7313 0.0000 0.0000 0.0000
# 4 0.0000 0.0000 0.0000 23.0192 0.0000 0.0000
# 5 0.0000 0.0000 0.0000 0.0000 32.4612 0.0000
# 6 0.0000 0.0000 0.0000 0.0000 0.0000 -7.4497
#
#
#
# Elastic Compliance Matrix: (Units=1/GPa)
#
#
# Indices 1 2 3 4 5 6 
#
# 1 0.010933 -0.005188 -0.003305 0.000000 0.000000 0.000000
# 2 -0.005188 0.012295 -0.002919 0.000000 0.000000 0.000000
# 3 -0.003305 -0.002919 0.018032 0.000000 0.000000 0.000000
# 4 0.000000 0.000000 0.000000 0.043442 0.000000 0.000000
# 5 0.000000 0.000000 0.000000 0.000000 0.030806 0.000000
# 6 0.000000 0.000000 0.000000 0.000000 0.000000 -0.134234
#
#
# Mechanical properties :
#
#
# Convention : Reuss Voigt Hill
#
# Bulk Modulus (GPa) = 54.23903 63.65417 58.94660
# Shear Modulus (GPa) = 488.15140 21.97419 255.06280
#
# Velocity S-wave (km/s) = 16.10852 3.41771 11.64399
# Velocity P-wave (km/s) = 19.36003 7.02927 14.56402
#
# Compressibility (1/GPa) = 0.01843691
#
# Stress axis : x y z
#
# Youngs Moduli (GPa) = 91.46637 81.33386 55.45648
#
# Poissons Ratio (x) = 0.42193 0.18329
# Poissons Ratio (y) = 0.47449 0.16188
# Poissons Ratio (z) = 0.30230 0.23741
#
# Static dielectric constant tensor:
#      x y z
#    x 4.149950 0.000000 0.000000 
#    y 0.000000 3.956410 0.000000 
#    z 0.000000 0.000000 3.376700 
# 
# 
# High freq. dielectric constant tensor:
#      x y z
#    x 1.717950 0.000000 0.000000 
#    y 0.000000 1.737360 0.000000 
#    z 0.000000 0.000000 1.735180 
# 
# From -- ./inp_files/5936.got.cif
#   From: 2010.03.12/outbox.cif.g09.slc.cpg/sg72_3_cif.got.tgz:5936.got - 2010.04.16 14:54:00.
