data_PCOD8293624
_publ_section_title
;
Structure prediction by ZEFSAII (Michael W. Deem and Ramdas Pophale) SiO2 
 PCOD8293624
Probable space group: I B A M
;
_chemical_formula_sum "Si O2"
_cell_formula_units_Z 88
_cell_length_a 22.083357
_cell_length_b 8.890042
_cell_length_c 21.260417
_cell_angle_alpha 90.000000
_cell_angle_beta 90.000000
_cell_angle_gamma 90.000000
_cell_volume 4173.886975
_symmetry_space_group_name_H-M "I B A M"
_symmetry_group_IT_number 72
_symmetry_cell_setting 'orthorhombic'
loop_
_space_group_symop_operation_xyz
x,y,z
-x,-y,z
x,-y,1/2-z
-x,y,1/2-z
-x,-y,-z
x,y,-z
-x,y,1/2+z
x,-y,1/2+z
1/2+x,1/2+y,1/2+z
1/2-x,1/2-y,1/2+z
1/2+x,1/2-y,-z
1/2-x,1/2+y,-z
1/2-x,1/2-y,1/2-z
1/2+x,1/2+y,1/2-z
1/2-x,1/2+y,z
1/2+x,1/2-y,z
loop_
_atom_site_type_symbol
_atom_site_label
_atom_site_fract_x
_atom_site_fract_y
_atom_site_fract_z
Si Si1 0.943306 0.648832 0.623918
Si Si2 0.432578 0.165460 0.571644
Si Si3 0.169315 0.204582 0.428784
Si Si4 0.410762 0.000000 0.750000
Si Si5 0.667930 0.810212 0.331870
Si Si6 0.757114 0.058886 0.375051
O O1 0.932238 0.516112 0.573362
O O2 0.887319 0.763794 0.617946
O O3 0.949293 0.569777 0.692608
O O4 0.006946 0.728996 0.606892
O O5 0.430741 0.222438 0.500000
O O6 0.372859 0.224705 0.606676
O O7 0.145631 0.206703 0.500000
O O8 0.222499 0.327377 0.421656
O O9 0.195140 0.040068 0.413693
O O10 0.372569 0.146309 0.727812
O O11 0.708105 0.660448 0.322176
O O12 0.708812 0.957485 0.339990
#
# Coordination Sequence:
#
# PCOD8293624 Si02
#       6
#    16  16  16   8  16  16
#     4  10  20  34  56  85 112 150 197 243 297 345
#     4  10  19  34  58  87 117 148 196 253 300 351
#     4  11  20  36  57  84 117 155 198 245 302 357
#     4  10  20  39  60  86 118 156 203 248 284 354
#     4  10  22  38  58  86 120 159 198 242 296 344
#     4  10  22  38  54  86 119 158 198 241 292 354
#
# _framework density 21.083463999999999
#
# number of rings (size 3 to 8) (size 9 to 14) (size 15 to 20)
#    0.000    1.818    3.636    2.727    0.000   10.182 
#    0.000    0.909    0.000    2.182    0.000    7.636 
#    0.000    0.000    0.000    0.000    0.000    0.000 
#
# Total GULP energy -545408.034068 kJ/mol
# GULP energy per Si atom -12395.637138 kJ/mol
# Density = 2.103548 g / cm^3
# Si number density = 21.083464 Si / 1000 Ang^3
#
#
#
# Elastic Constant Matrix: (Units=GPa)
#
#
# Indices 1 2 3 4 5 6 
#
# 1 124.7524 41.6526 35.9815 0.0000 0.0000 0.0000
# 2 41.6526 90.3042 20.1566 0.0000 0.0000 0.0000
# 3 35.9815 20.1566 108.5880 0.0000 0.0000 0.0000
# 4 0.0000 0.0000 0.0000 18.3791 0.0000 0.0000
# 5 0.0000 0.0000 0.0000 0.0000 16.3323 0.0000
# 6 0.0000 0.0000 0.0000 0.0000 0.0000 14.1194
#
#
#
# Elastic Compliance Matrix: (Units=1/GPa)
#
#
# Indices 1 2 3 4 5 6 
#
# 1 0.010132 -0.004093 -0.002597 0.000000 0.000000 0.000000
# 2 -0.004093 0.013206 -0.001095 0.000000 0.000000 0.000000
# 3 -0.002597 -0.001095 0.010273 0.000000 0.000000 0.000000
# 4 0.000000 0.000000 0.000000 0.054410 0.000000 0.000000
# 5 0.000000 0.000000 0.000000 0.000000 0.061228 0.000000
# 6 0.000000 0.000000 0.000000 0.000000 0.000000 0.070824
#
#
# Mechanical properties :
#
#
# Convention : Reuss Voigt Hill
#
# Bulk Modulus (GPa) = 55.43459 57.69178 56.56319
# Shear Modulus (GPa) = 20.69037 24.82310 22.75674
#
# Velocity S-wave (km/s) = 3.13606 3.43501 3.28893
# Velocity P-wave (km/s) = 6.28197 6.56927 6.42723
#
# Compressibility (1/GPa) = 0.01803928
#
# Stress axis : x y z
#
# Youngs Moduli (GPa) = 98.69947 75.72199 97.34220
#
# Poissons Ratio (x) = 0.30997 0.25284
# Poissons Ratio (y) = 0.40403 0.10659
# Poissons Ratio (z) = 0.25636 0.08291
#
# Static dielectric constant tensor:
#      x y z
#    x 4.113570 0.000000 0.000000 
#    y 0.000000 3.526020 0.000000 
#    z 0.000000 0.000000 3.528780 
# 
# 
# High freq. dielectric constant tensor:
#      x y z
#    x 1.845240 0.000000 0.000000 
#    y 0.000000 1.789550 0.000000 
#    z 0.000000 0.000000 1.811710 
# 
# From -- ./inp_files/40172.got.cif
#   From: 2010.03.12/outbox.cif.g09.slc.cpg/sg72_21_cif.got.tgz:40172.got - 2010.04.16 14:54:00.
