data_PCOD8293073
_publ_section_title
;
Structure prediction by ZEFSAII (Michael W. Deem and Ramdas Pophale) SiO2 
 PCOD8293073
Probable space group: I B A M
;
_chemical_formula_sum "Si O2"
_cell_formula_units_Z 96
_cell_length_a 4.952447
_cell_length_b 33.577926
_cell_length_c 29.604036
_cell_angle_alpha 90.000000
_cell_angle_beta 90.000000
_cell_angle_gamma 90.000000
_cell_volume 4922.940965
_symmetry_space_group_name_H-M "I B A M"
_symmetry_group_IT_number 72
_symmetry_cell_setting 'orthorhombic'
loop_
_space_group_symop_operation_xyz
x,y,z
-x,-y,z
x,-y,1/2-z
-x,y,1/2-z
-x,-y,-z
x,y,-z
-x,y,1/2+z
x,-y,1/2+z
1/2+x,1/2+y,1/2+z
1/2-x,1/2-y,1/2+z
1/2+x,1/2-y,-z
1/2-x,1/2+y,-z
1/2-x,1/2-y,1/2-z
1/2+x,1/2+y,1/2-z
1/2-x,1/2+y,z
1/2+x,1/2-y,z
loop_
_atom_site_type_symbol
_atom_site_label
_atom_site_fract_x
_atom_site_fract_y
_atom_site_fract_z
Si Si1 0.507295 0.776131 0.697554
Si Si2 0.517705 0.398014 0.500000
Si Si3 0.096914 0.114486 0.598832
Si Si4 0.319834 0.776453 0.550477
Si Si5 0.378353 0.838974 0.624624
Si Si6 0.993094 0.447168 0.000000
Si Si7 0.731037 0.974784 0.408544
O O1 0.500000 0.787584 0.750000
O O2 0.299610 0.740948 0.684668
O O3 0.442749 0.816587 0.671178
O O4 0.472699 0.376883 0.451713
O O5 0.838771 0.406274 0.500000
O O6 0.326745 0.437556 0.500000
O O7 0.351501 0.142157 0.605645
O O8 0.187204 0.069007 0.609723
O O9 0.853308 0.127354 0.632501
O O10 0.281617 0.794532 0.500000
O O11 0.123220 0.738969 0.557515
O O12 0.254936 0.809141 0.587735
O O13 0.085493 0.471337 0.043377
O O14 0.500000 0.000000 0.379885
O O15 0.000000 0.000000 0.411865
#
# Coordination Sequence:
#
# PCOD8293073 Si02
#       7
#    16   8  16  16  16   8  16
#     4  10  21  39  64  90 113 142 180 223 281 346
#     4  10  20  35  46  68 106 143 187 228 271 319
#     4  11  24  34  51  78 108 148 189 229 279 330
#     4  10  21  35  51  71  98 140 188 220 254 307
#     4  12  22  36  56  79 114 143 180 232 279 330
#     4  10  18  31  50  68  90 135 191 240 277 313
#     4  11  20  34  51  70 102 143 192 237 279 325
#
# _framework density 19.500540000000001
#
# number of rings (size 3 to 8) (size 9 to 14) (size 15 to 20)
#    0.000    1.333    0.000    8.500    2.333    0.000 
#    0.000    0.000    0.000    0.000    0.000    0.000 
#    0.000   10.000    0.000    0.167    0.000    0.000 
#
# Total GULP energy -594801.697764 kJ/mol
# GULP energy per Si atom -12391.702037 kJ/mol
# Density = 1.945616 g / cm^3
# Si number density = 19.500540 Si / 1000 Ang^3
#
#
#
# Elastic Constant Matrix: (Units=GPa)
#
#
# Indices 1 2 3 4 5 6 
#
# 1 108.1414 40.3029 27.4690 0.0000 0.0000 0.0000
# 2 40.3029 100.4020 53.5614 0.0000 0.0000 0.0000
# 3 27.4690 53.5614 54.6861 0.0000 0.0000 0.0000
# 4 0.0000 0.0000 0.0000 60.3937 0.0000 0.0000
# 5 0.0000 0.0000 0.0000 0.0000 60.4101 0.0000
# 6 0.0000 0.0000 0.0000 0.0000 0.0000 45.1298
#
#
#
# Elastic Compliance Matrix: (Units=1/GPa)
#
#
# Indices 1 2 3 4 5 6 
#
# 1 0.011038 -0.003085 -0.002523 0.000000 0.000000 0.000000
# 2 -0.003085 0.021721 -0.019724 0.000000 0.000000 0.000000
# 3 -0.002523 -0.019724 0.038872 0.000000 0.000000 0.000000
# 4 0.000000 0.000000 0.000000 0.016558 0.000000 0.000000
# 5 0.000000 0.000000 0.000000 0.000000 0.016554 0.000000
# 6 0.000000 0.000000 0.000000 0.000000 0.000000 0.022158
#
#
# Mechanical properties :
#
#
# Convention : Reuss Voigt Hill
#
# Bulk Modulus (GPa) = 47.69564 56.21065 51.95315
# Shear Modulus (GPa) = 27.09248 42.64648 34.86948
#
# Velocity S-wave (km/s) = 3.73140 4.68154 4.23321
# Velocity P-wave (km/s) = 6.56325 7.62301 7.11289
#
# Compressibility (1/GPa) = 0.02096628
#
# Stress axis : x y z
#
# Youngs Moduli (GPa) = 90.59899 46.03927 25.72537
#
# Poissons Ratio (x) = 0.14202 0.06490
# Poissons Ratio (y) = 0.27948 0.50742
# Poissons Ratio (z) = 0.22857 0.90810
#
# Static dielectric constant tensor:
#      x y z
#    x 3.909500 0.000000 0.000000 
#    y 0.000000 3.690410 0.000000 
#    z 0.000000 0.000000 3.231120 
# 
# 
# High freq. dielectric constant tensor:
#      x y z
#    x 1.791450 0.000000 0.000000 
#    y 0.000000 1.762240 0.000000 
#    z 0.000000 0.000000 1.697100 
# 
# From -- ./inp_files/50428.got.cif
#   From: 2010.03.12/outbox.cif.g09.slc.cpg/sg72_26_cif.got.tgz:50428.got - 2010.04.16 14:54:00.
