data_PCOD8293418
_publ_section_title
;
Structure prediction by ZEFSAII (Michael W. Deem and Ramdas Pophale) SiO2 
 PCOD8293418
Probable space group: I B A M
;
_chemical_formula_sum "Si O2"
_cell_formula_units_Z 96
_cell_length_a 14.286703
_cell_length_b 24.490028
_cell_length_c 14.322603
_cell_angle_alpha 90.000000
_cell_angle_beta 90.000000
_cell_angle_gamma 90.000000
_cell_volume 5011.217495
_symmetry_space_group_name_H-M "I B A M"
_symmetry_group_IT_number 72
_symmetry_cell_setting 'orthorhombic'
loop_
_space_group_symop_operation_xyz
x,y,z
-x,-y,z
x,-y,1/2-z
-x,y,1/2-z
-x,-y,-z
x,y,-z
-x,y,1/2+z
x,-y,1/2+z
1/2+x,1/2+y,1/2+z
1/2-x,1/2-y,1/2+z
1/2+x,1/2-y,-z
1/2-x,1/2+y,-z
1/2-x,1/2-y,1/2-z
1/2+x,1/2+y,1/2-z
1/2-x,1/2+y,z
1/2+x,1/2-y,z
loop_
_atom_site_type_symbol
_atom_site_label
_atom_site_fract_x
_atom_site_fract_y
_atom_site_fract_z
Si Si1 0.085254 0.228640 0.105297
Si Si2 0.403515 0.827635 0.229924
Si Si3 0.195931 0.264947 0.395851
Si Si4 0.785835 0.859208 0.657253
Si Si5 0.866578 0.936485 0.500000
Si Si6 0.590840 0.555848 0.500000
Si Si7 0.419525 0.381906 0.315922
O O1 0.053782 0.279637 0.165800
O O2 0.196021 0.219847 0.112263
O O3 0.035168 0.174225 0.144662
O O4 0.051253 0.238293 0.000000
O O5 0.500000 0.862020 0.250000
O O6 0.358056 0.802194 0.322536
O O7 0.327367 0.861962 0.170324
O O8 0.158462 0.277558 0.500000
O O9 0.182548 0.200472 0.377064
O O10 0.822929 0.906380 0.589112
O O11 0.826800 0.870747 0.758118
O O12 0.978536 0.941107 0.500000
O O13 0.845913 0.000942 0.500000
O O14 0.618833 0.583599 0.402857
O O15 0.500000 0.409837 0.250000
#
# Coordination Sequence:
#
# PCOD8293418 Si02
#       7
#    16  16  16  16   8   8  16
#     4  10  19  32  53  79 118 158 194 238 286 348
#     4  11  22  35  52  87 121 157 208 240 278 349
#     4  10  19  33  53  79 116 158 198 236 284 349
#     4  11  21  39  60  80 118 167 192 240 305 356
#     4  11  24  44  59  83 121 147 194 249 307 374
#     4  11  26  40  59  91 113 147 202 251 303 371
#     4  12  21  35  59  84 117 157 194 243 302 360
#
# _framework density 19.157022000000001
#
# number of rings (size 3 to 8) (size 9 to 14) (size 15 to 20)
#    0.000    1.167    6.667    1.500    1.167    1.333 
#    0.000    0.000    0.000    0.000    0.000    3.500 
#    0.000    0.000    0.000    0.000    0.000    0.000 
#
# Total GULP energy -594751.441065 kJ/mol
# GULP energy per Si atom -12390.655022 kJ/mol
# Density = 1.911342 g / cm^3
# Si number density = 19.157022 Si / 1000 Ang^3
#
#
#
# Elastic Constant Matrix: (Units=GPa)
#
#
# Indices 1 2 3 4 5 6 
#
# 1 67.9873 11.3100 11.2240 0.0001 0.0000 0.0000
# 2 11.3100 74.7261 33.8288 -0.0006 -0.0001 0.0000
# 3 11.2240 33.8288 132.1225 -0.0007 -0.0001 -0.0001
# 4 0.0001 -0.0006 -0.0007 9.3472 0.0000 -0.0001
# 5 0.0000 -0.0001 -0.0001 0.0000 14.0241 0.0000
# 6 0.0000 0.0000 -0.0001 -0.0001 0.0000 20.2233
#
#
#
# Elastic Compliance Matrix: (Units=1/GPa)
#
#
# Indices 1 2 3 4 5 6 
#
# 1 0.015161 -0.001936 -0.000792 0.000000 0.000000 0.000000
# 2 -0.001936 0.015384 -0.003774 0.000001 0.000000 0.000000
# 3 -0.000792 -0.003774 0.008602 0.000000 0.000000 0.000000
# 4 0.000000 0.000001 0.000000 0.106984 0.000000 0.000000
# 5 0.000000 0.000000 0.000000 0.000000 0.071306 0.000000
# 6 0.000000 0.000000 0.000000 0.000000 0.000000 0.049448
#
#
# Mechanical properties :
#
#
# Convention : Reuss Voigt Hill
#
# Bulk Modulus (GPa) = 38.25218 43.06238 40.65728
# Shear Modulus (GPa) = 17.32469 23.28381 20.30425
#
# Velocity S-wave (km/s) = 3.01051 3.49007 3.25912
# Velocity P-wave (km/s) = 5.66527 6.22641 5.95246
#
# Compressibility (1/GPa) = 0.02614230
#
# Stress axis : x y z
#
# Youngs Moduli (GPa) = 65.95659 65.00286 116.24594
#
# Poissons Ratio (x) = 0.12585 0.09210
# Poissons Ratio (y) = 0.12770 0.43876
# Poissons Ratio (z) = 0.05226 0.24535
#
# Static dielectric constant tensor:
#      x y z
#    x 3.537130 0.000000 0.000000 
#    y 0.000000 3.292730 0.000000 
#    z 0.000000 0.000000 3.875900 
# 
# 
# High freq. dielectric constant tensor:
#      x y z
#    x 1.740880 0.000000 0.000000 
#    y 0.000000 1.687780 0.000000 
#    z 0.000000 0.000000 1.774450 
# 
# From -- ./inp_files/22050.got.cif
#   From: 2010.03.12/outbox.cif.g09.slc.cpg/sg72_12_cif.got.tgz:22050.got - 2010.04.16 14:54:00.
