data_PCOD8293334
_publ_section_title
;
Structure prediction by ZEFSAII (Michael W. Deem and Ramdas Pophale) SiO2 
 PCOD8293334
Probable space group: I B A M
;
_chemical_formula_sum "Si O2"
_cell_formula_units_Z 88
_cell_length_a 25.749060
_cell_length_b 9.830783
_cell_length_c 14.522479
_cell_angle_alpha 90.000000
_cell_angle_beta 90.000000
_cell_angle_gamma 90.000000
_cell_volume 3676.124795
_symmetry_space_group_name_H-M "I B A M"
_symmetry_group_IT_number 72
_symmetry_cell_setting 'orthorhombic'
loop_
_space_group_symop_operation_xyz
x,y,z
-x,-y,z
x,-y,1/2-z
-x,y,1/2-z
-x,-y,-z
x,y,-z
-x,y,1/2+z
x,-y,1/2+z
1/2+x,1/2+y,1/2+z
1/2-x,1/2-y,1/2+z
1/2+x,1/2-y,-z
1/2-x,1/2+y,-z
1/2-x,1/2-y,1/2-z
1/2+x,1/2+y,1/2-z
1/2-x,1/2+y,z
1/2+x,1/2-y,z
loop_
_atom_site_type_symbol
_atom_site_label
_atom_site_fract_x
_atom_site_fract_y
_atom_site_fract_z
Si Si1 0.229760 0.174078 0.336757
Si Si2 0.418822 0.127313 0.893110
Si Si3 0.540107 0.380757 0.105909
Si Si4 0.305145 0.946962 0.600385
Si Si5 0.500000 0.172603 0.250000
Si Si6 0.625375 0.414085 0.604115
O O1 0.250000 0.250000 0.250000
O O2 0.222334 0.298352 0.408679
O O3 0.174155 0.099047 0.327048
O O4 0.272879 0.059227 0.346687
O O5 0.363615 0.066475 0.859855
O O6 0.462426 0.081459 0.817649
O O7 0.416461 0.291864 0.885772
O O8 0.432092 0.086071 0.000000
O O9 0.500000 0.500000 0.126486
O O10 0.534565 0.260362 0.179030
O O11 0.597292 0.443045 0.123071
O O12 0.534262 0.327733 0.000000
O O13 0.309950 0.008848 0.500000
O O14 0.647924 0.411176 0.500000
#
# Coordination Sequence:
#
# PCOD8293334 Si02
#       6
#    16  16  16  16   8  16
#     4  11  22  40  65 101 136 172 229 292 343 405
#     4   9  19  34  56  89 132 179 226 277 343 420
#     4  10  19  31  50  84 132 179 225 280 351 421
#     4  10  21  42  67  96 139 189 228 275 348 420
#     4  12  19  30  54  96 131 180 232 294 354 406
#     4   9  18  35  56  84 129 178 218 270 342 411
#
# _framework density 23.938251999999999
#
# number of rings (size 3 to 8) (size 9 to 14) (size 15 to 20)
#    0.000    2.000    1.818    4.091    0.000    0.000 
#   13.091    0.000    0.000    0.000    0.000   20.364 
#    0.000   58.182    0.000    0.000    0.000    3.273 
#
# Total GULP energy -545077.895681 kJ/mol
# GULP energy per Si atom -12388.133993 kJ/mol
# Density = 2.388377 g / cm^3
# Si number density = 23.938252 Si / 1000 Ang^3
#
#
#
# Elastic Constant Matrix: (Units=GPa)
#
#
# Indices 1 2 3 4 5 6 
#
# 1 143.5354 54.8747 70.1174 0.0000 0.0000 0.0000
# 2 54.8747 92.1971 30.1021 0.0000 0.0000 0.0000
# 3 70.1174 30.1021 106.9347 0.0000 0.0000 0.0000
# 4 0.0000 0.0000 0.0000 17.3453 0.0000 0.0000
# 5 0.0000 0.0000 0.0000 0.0000 38.4200 0.0000
# 6 0.0000 0.0000 0.0000 0.0000 0.0000 35.4788
#
#
#
# Elastic Compliance Matrix: (Units=1/GPa)
#
#
# Indices 1 2 3 4 5 6 
#
# 1 0.012075 -0.005068 -0.006491 0.000000 0.000000 0.000000
# 2 -0.005068 0.014071 -0.000638 0.000000 0.000000 0.000000
# 3 -0.006491 -0.000638 0.013787 0.000000 0.000000 0.000000
# 4 0.000000 0.000000 0.000000 0.057653 0.000000 0.000000
# 5 0.000000 0.000000 0.000000 0.000000 0.026028 0.000000
# 6 0.000000 0.000000 0.000000 0.000000 0.000000 0.028186
#
#
# Mechanical properties :
#
#
# Convention : Reuss Voigt Hill
#
# Bulk Modulus (GPa) = 64.35159 72.53951 68.44555
# Shear Modulus (GPa) = 27.56731 30.75369 29.16050
#
# Velocity S-wave (km/s) = 3.39721 3.58817 3.49399
# Velocity P-wave (km/s) = 6.50605 6.89458 6.70313
#
# Compressibility (1/GPa) = 0.01553963
#
# Stress axis : x y z
#
# Youngs Moduli (GPa) = 82.81326 71.06865 72.52970
#
# Poissons Ratio (x) = 0.36016 0.47081
# Poissons Ratio (y) = 0.41968 0.04628
# Poissons Ratio (z) = 0.53756 0.04534
#
# Static dielectric constant tensor:
#      x y z
#    x 4.028750 0.000000 0.000000 
#    y 0.000000 4.753330 0.000000 
#    z 0.000000 0.000000 4.516820 
# 
# 
# High freq. dielectric constant tensor:
#      x y z
#    x 1.949180 0.000000 0.000000 
#    y 0.000000 1.933390 0.000000 
#    z 0.000000 0.000000 1.951090 
# 
# From -- ./inp_files/25011.got.cif
#   From: 2010.03.12/outbox.cif.g09.slc.cpg/sg72_13_cif.got.tgz:25011.got - 2010.04.16 14:54:00.
