data_PCOD8293143
_publ_section_title
;
Structure prediction by ZEFSAII (Michael W. Deem and Ramdas Pophale) SiO2 
 PCOD8293143
Probable space group: I B A M
;
_chemical_formula_sum "Si O2"
_cell_formula_units_Z 96
_cell_length_a 21.820337
_cell_length_b 9.816775
_cell_length_c 24.178792
_cell_angle_alpha 90.000000
_cell_angle_beta 90.000000
_cell_angle_gamma 90.000000
_cell_volume 5179.226331
_symmetry_space_group_name_H-M "I B A M"
_symmetry_group_IT_number 72
_symmetry_cell_setting 'orthorhombic'
loop_
_space_group_symop_operation_xyz
x,y,z
-x,-y,z
x,-y,1/2-z
-x,y,1/2-z
-x,-y,-z
x,y,-z
-x,y,1/2+z
x,-y,1/2+z
1/2+x,1/2+y,1/2+z
1/2-x,1/2-y,1/2+z
1/2+x,1/2-y,-z
1/2-x,1/2+y,-z
1/2-x,1/2-y,1/2-z
1/2+x,1/2+y,1/2-z
1/2-x,1/2+y,z
1/2+x,1/2-y,z
loop_
_atom_site_type_symbol
_atom_site_label
_atom_site_fract_x
_atom_site_fract_y
_atom_site_fract_z
Si Si1 0.220518 0.980315 0.000000
Si Si2 0.480814 0.342987 0.562360
Si Si3 0.860215 0.950486 0.102564
Si Si4 0.340189 0.140763 0.780881
Si Si5 0.899489 0.253231 0.109674
Si Si6 0.675248 0.813608 0.000000
Si Si7 0.302480 0.629363 0.212247
O O1 0.183999 0.036937 0.051350
O O2 0.288588 0.043353 0.000000
O O3 0.222200 0.815250 0.000000
O O4 0.500000 0.500000 0.559866
O O5 0.478696 0.284453 0.500000
O O6 0.414010 0.342124 0.589895
O O7 0.527201 0.248033 0.598004
O O8 0.820016 0.887848 0.149740
O O9 0.882868 0.097774 0.122051
O O10 0.381532 0.156737 0.836362
O O11 0.350327 0.259157 0.736051
O O12 0.268814 0.166089 0.794257
O O13 0.355346 0.000000 0.750000
O O14 0.866323 0.309396 0.054838
O O15 0.311456 0.500000 0.250000
#
# Coordination Sequence:
#
# PCOD8293143 Si02
#       7
#     8  16  16  16  16   8  16
#     4  10  20  33  51  83 117 142 179 230 284 338
#     4   9  16  30  54  82 108 144 178 224 283 326
#     4  10  18  32  56  81 111 144 186 233 277 331
#     4  10  21  35  55  80 111 152 186 224 285 338
#     4  10  18  33  55  81 112 145 187 229 279 337
#     4  10  20  33  53  83 115 144 177 234 284 334
#     4  10  19  35  55  78 112 146 187 234 276 330
#
# _framework density 18.535587
#
# number of rings (size 3 to 8) (size 9 to 14) (size 15 to 20)
#    0.000    2.167    3.333    1.000    0.000    0.000 
#    3.000    0.833    0.000    2.000    0.000    2.333 
#    0.000    0.000    0.000    0.000    0.000    0.000 
#
# Total GULP energy -594805.733807 kJ/mol
# GULP energy per Si atom -12391.786121 kJ/mol
# Density = 1.849340 g / cm^3
# Si number density = 18.535587 Si / 1000 Ang^3
#
#
#
# Elastic Constant Matrix: (Units=GPa)
#
#
# Indices 1 2 3 4 5 6 
#
# 1 49.8007 9.3287 20.3758 0.0000 0.0000 0.0000
# 2 9.3287 53.5145 26.2890 0.0000 0.0000 0.0000
# 3 20.3758 26.2890 125.1583 0.0000 0.0000 0.0000
# 4 0.0000 0.0000 0.0000 26.9374 0.0000 0.0000
# 5 0.0000 0.0000 0.0000 0.0000 34.1992 0.0000
# 6 0.0000 0.0000 0.0000 0.0000 0.0000 19.1117
#
#
#
# Elastic Compliance Matrix: (Units=1/GPa)
#
#
# Indices 1 2 3 4 5 6 
#
# 1 0.021762 -0.002289 -0.003062 0.000000 0.000000 0.000000
# 2 -0.002289 0.021077 -0.004055 0.000000 0.000000 0.000000
# 3 -0.003062 -0.004055 0.009340 0.000000 0.000000 0.000000
# 4 0.000000 0.000000 0.000000 0.037123 0.000000 0.000000
# 5 0.000000 0.000000 0.000000 0.000000 0.029240 0.000000
# 6 0.000000 0.000000 0.000000 0.000000 0.000000 0.052324
#
#
# Mechanical properties :
#
#
# Convention : Reuss Voigt Hill
#
# Bulk Modulus (GPa) = 29.96933 37.82896 33.89915
# Shear Modulus (GPa) = 24.90033 27.54834 26.22433
#
# Velocity S-wave (km/s) = 3.66919 3.85936 3.76548
# Velocity P-wave (km/s) = 5.84416 6.34923 6.10192
#
# Compressibility (1/GPa) = 0.03336744
#
# Stress axis : x y z
#
# Youngs Moduli (GPa) = 45.95240 47.44421 107.06639
#
# Poissons Ratio (x) = 0.10862 0.32783
# Poissons Ratio (y) = 0.10520 0.43410
# Poissons Ratio (z) = 0.14070 0.19236
#
# Static dielectric constant tensor:
#      x y z
#    x 3.420070 0.000000 0.000000 
#    y 0.000000 3.222770 0.000000 
#    z 0.000000 0.000000 3.732340 
# 
# 
# High freq. dielectric constant tensor:
#      x y z
#    x 1.704130 0.000000 0.000000 
#    y 0.000000 1.694420 0.000000 
#    z 0.000000 0.000000 1.731110 
# 
# From -- ./inp_files/44836.got.cif
#   From: 2010.03.12/outbox.cif.g09.slc.cpg/sg72_23_cif.got.tgz:44836.got - 2010.04.16 14:54:00.
