data_PCOD8293034
_publ_section_title
;
Structure prediction by ZEFSAII (Michael W. Deem and Ramdas Pophale) SiO2 
 PCOD8293034
Probable space group: I B A M
;
_chemical_formula_sum "Si O2"
_cell_formula_units_Z 80
_cell_length_a 16.391024
_cell_length_b 14.676481
_cell_length_c 14.721769
_cell_angle_alpha 90.000000
_cell_angle_beta 90.000000
_cell_angle_gamma 90.000000
_cell_volume 3541.506325
_symmetry_space_group_name_H-M "I B A M"
_symmetry_group_IT_number 72
_symmetry_cell_setting 'orthorhombic'
loop_
_space_group_symop_operation_xyz
x,y,z
-x,-y,z
x,-y,1/2-z
-x,y,1/2-z
-x,-y,-z
x,y,-z
-x,y,1/2+z
x,-y,1/2+z
1/2+x,1/2+y,1/2+z
1/2-x,1/2-y,1/2+z
1/2+x,1/2-y,-z
1/2-x,1/2+y,-z
1/2-x,1/2-y,1/2-z
1/2+x,1/2+y,1/2-z
1/2-x,1/2+y,z
1/2+x,1/2-y,z
loop_
_atom_site_type_symbol
_atom_site_label
_atom_site_fract_x
_atom_site_fract_y
_atom_site_fract_z
Si Si1 0.352782 0.102128 0.768580
Si Si2 0.408345 0.247386 0.106615
Si Si3 0.474961 0.596561 0.103618
Si Si4 0.808892 0.039635 0.655082
Si Si5 0.745951 0.145445 0.099479
O O1 0.418368 0.159060 0.827528
O O2 0.271575 0.099238 0.830158
O O3 0.327722 0.148968 0.672508
O O4 0.386721 0.000000 0.750000
O O5 0.475557 0.318618 0.145639
O O6 0.317698 0.284707 0.124773
O O7 0.422182 0.222554 0.000000
O O8 0.500000 0.500000 0.149427
O O9 0.377206 0.606585 0.112847
O O10 0.503463 0.594789 0.000000
O O11 0.841332 0.000000 0.750000
O O12 0.787711 0.954263 0.591209
O O13 0.709267 0.168738 0.000000
#
# Coordination Sequence:
#
# PCOD8293034 Si02
#       5
#    16  16  16  16  16
#     4   9  20  33  48  78 113 154 201 248 302 357
#     4  10  19  31  50  76 112 154 199 253 306 356
#     4  10  18  30  50  77 113 161 202 237 298 373
#     4   9  18  31  48  80 116 155 195 238 299 364
#     4   9  16  30  51  72 107 156 196 243 298 353
#
# _framework density 22.589257
#
# number of rings (size 3 to 8) (size 9 to 14) (size 15 to 20)
#    0.000    3.000    2.000    1.200    0.000    4.400 
#    0.000    0.000    0.000    0.000    0.000    5.600 
#    0.000   53.600    0.000  176.000    0.000    0.400 
#
# Total GULP energy -495694.782336 kJ/mol
# GULP energy per Si atom -12392.369558 kJ/mol
# Density = 2.253784 g / cm^3
# Si number density = 22.589257 Si / 1000 Ang^3
#
#
#
# Elastic Constant Matrix: (Units=GPa)
#
#
# Indices 1 2 3 4 5 6 
#
# 1 44.6894 47.9747 19.6210 0.0000 0.0000 0.0000
# 2 47.9747 129.2701 47.5515 0.0000 0.0000 0.0000
# 3 19.6210 47.5515 73.6207 0.0000 0.0000 0.0000
# 4 0.0000 0.0000 0.0000 24.6202 0.0000 0.0000
# 5 0.0000 0.0000 0.0000 0.0000 17.1111 0.0000
# 6 0.0000 0.0000 0.0000 0.0000 0.0000 34.9371
#
#
#
# Elastic Compliance Matrix: (Units=1/GPa)
#
#
# Indices 1 2 3 4 5 6 
#
# 1 0.037292 -0.013357 -0.001311 0.000000 0.000000 0.000000
# 2 -0.013357 0.014931 -0.006084 0.000000 0.000000 0.000000
# 3 -0.001311 -0.006084 0.017862 0.000000 0.000000 0.000000
# 4 0.000000 0.000000 0.000000 0.040617 0.000000 0.000000
# 5 0.000000 0.000000 0.000000 0.000000 0.058441 0.000000
# 6 0.000000 0.000000 0.000000 0.000000 0.000000 0.028623
#
#
# Mechanical properties :
#
#
# Convention : Reuss Voigt Hill
#
# Bulk Modulus (GPa) = 34.98987 53.09719 44.04353
# Shear Modulus (GPa) = 20.09664 24.16255 22.12959
#
# Velocity S-wave (km/s) = 2.98594 3.27410 3.13333
# Velocity P-wave (km/s) = 5.23556 6.15219 5.71229
#
# Compressibility (1/GPa) = 0.02857970
#
# Stress axis : x y z
#
# Youngs Moduli (GPa) = 26.81557 66.97540 55.98417
#
# Poissons Ratio (x) = 0.89461 0.07341
# Poissons Ratio (y) = 0.35819 0.34060
# Poissons Ratio (z) = 0.03516 0.40747
#
# Static dielectric constant tensor:
#      x y z
#    x 3.577040 0.000000 0.000000 
#    y 0.000000 3.953200 0.000000 
#    z 0.000000 0.000000 3.950580 
# 
# 
# High freq. dielectric constant tensor:
#      x y z
#    x 1.850820 0.000000 0.000000 
#    y 0.000000 1.876520 0.000000 
#    z 0.000000 0.000000 1.889690 
# 
# From -- ./inp_files/23120.got.cif
#   From: 2010.03.12/outbox.cif.g09.slc.cpg/sg72_12_cif.got.tgz:23120.got - 2010.04.16 14:54:00.
