data_PCOD8293209
_publ_section_title
;
Structure prediction by ZEFSAII (Michael W. Deem and Ramdas Pophale) SiO2 
 PCOD8293209
Probable space group: I B A M
;
_chemical_formula_sum "Si O2"
_cell_formula_units_Z 72
_cell_length_a 14.989509
_cell_length_b 18.152485
_cell_length_c 13.499903
_cell_angle_alpha 90.000000
_cell_angle_beta 90.000000
_cell_angle_gamma 90.000000
_cell_volume 3673.280910
_symmetry_space_group_name_H-M "I B A M"
_symmetry_group_IT_number 72
_symmetry_cell_setting 'orthorhombic'
loop_
_space_group_symop_operation_xyz
x,y,z
-x,-y,z
x,-y,1/2-z
-x,y,1/2-z
-x,-y,-z
x,y,-z
-x,y,1/2+z
x,-y,1/2+z
1/2+x,1/2+y,1/2+z
1/2-x,1/2-y,1/2+z
1/2+x,1/2-y,-z
1/2-x,1/2+y,-z
1/2-x,1/2-y,1/2-z
1/2+x,1/2+y,1/2-z
1/2-x,1/2+y,z
1/2+x,1/2-y,z
loop_
_atom_site_type_symbol
_atom_site_label
_atom_site_fract_x
_atom_site_fract_y
_atom_site_fract_z
Si Si1 0.275245 0.389988 0.610342
Si Si2 0.590916 0.884404 0.387553
Si Si3 0.412846 0.809692 0.392197
Si Si4 0.809967 0.500000 0.250000
Si Si5 0.348258 0.259372 0.710591
O O1 0.305246 0.412828 0.500000
O O2 0.183414 0.345600 0.607263
O O3 0.258611 0.462181 0.674664
O O4 0.353795 0.339357 0.658432
O O5 0.612662 0.910077 0.500000
O O6 0.484332 0.875016 0.372191
O O7 0.633974 0.804183 0.369948
O O8 0.627713 0.942943 0.309103
O O9 0.432642 0.772911 0.500000
O O10 0.416811 0.748681 0.304291
O O11 0.250000 0.250000 0.750000
#
# Coordination Sequence:
#
# PCOD8293209 Si02
#       5
#    16  16  16   8  16
#     4  10  21  36  52  76 111 145 184 229 270 322
#     4  11  22  35  54  80 111 147 185 224 273 328
#     4   9  19  34  53  79 107 138 182 228 267 317
#     4  12  22  35  52  80 117 154 182 214 277 338
#     4  10  18  36  54  73 103 146 188 230 268 316
#
# _framework density 19.601006999999999
#
# number of rings (size 3 to 8) (size 9 to 14) (size 15 to 20)
#    0.000    1.778    4.444    2.000    0.000    2.667 
#    0.000    3.333    0.000    0.000    0.000    3.111 
#    0.000   10.667    0.000    0.000    0.000    0.000 
#
# Total GULP energy -446102.372987 kJ/mol
# GULP energy per Si atom -12391.732583 kJ/mol
# Density = 1.955639 g / cm^3
# Si number density = 19.601007 Si / 1000 Ang^3
#
#
#
# Elastic Constant Matrix: (Units=GPa)
#
#
# Indices 1 2 3 4 5 6 
#
# 1 14.9289 30.9654 26.4684 0.0000 0.0000 0.0000
# 2 30.9654 92.7649 74.3005 0.0000 0.0000 0.0000
# 3 26.4684 74.3005 187.2142 0.0000 0.0000 0.0000
# 4 0.0000 0.0000 0.0000 32.3109 0.0000 0.0000
# 5 0.0000 0.0000 0.0000 0.0000 29.3686 0.0000
# 6 0.0000 0.0000 0.0000 0.0000 0.0000 23.5153
#
#
#
# Elastic Compliance Matrix: (Units=1/GPa)
#
#
# Indices 1 2 3 4 5 6 
#
# 1 0.218782 -0.070744 -0.002855 0.000000 0.000000 0.000000
# 2 -0.070744 0.038679 -0.005349 0.000000 0.000000 0.000000
# 3 -0.002855 -0.005349 0.007868 0.000000 0.000000 0.000000
# 4 0.000000 0.000000 0.000000 0.030949 0.000000 0.000000
# 5 0.000000 0.000000 0.000000 0.000000 0.034050 0.000000
# 6 0.000000 0.000000 0.000000 0.000000 0.000000 0.042526
#
#
# Mechanical properties :
#
#
# Convention : Reuss Voigt Hill
#
# Bulk Modulus (GPa) = 9.30809 62.04184 35.67497
# Shear Modulus (GPa) = 8.82517 27.91720 18.37119
#
# Velocity S-wave (km/s) = 2.12419 3.77805 3.06479
# Velocity P-wave (km/s) = 3.28258 7.12409 5.54653
#
# Compressibility (1/GPa) = 0.10743342
#
# Stress axis : x y z
#
# Youngs Moduli (GPa) = 4.57075 25.85388 127.09810
#
# Poissons Ratio (x) = 1.82901 0.36286
# Poissons Ratio (y) = 0.32335 0.67983
# Poissons Ratio (z) = 0.01305 0.13829
#
# Static dielectric constant tensor:
#      x y z
#    x 7.475430 0.000000 0.000000 
#    y 0.000000 3.548790 0.000000 
#    z 0.000000 0.000000 4.719310 
# 
# 
# High freq. dielectric constant tensor:
#      x y z
#    x 1.733070 0.000000 0.000000 
#    y 0.000000 1.724950 0.000000 
#    z 0.000000 0.000000 1.797930 
# 
# From -- ./inp_files/21455.got.cif
#   From: 2010.03.12/outbox.cif.g09.slc.cpg/sg72_11_cif.got.tgz:21455.got - 2010.04.16 14:54:00.
