data_PCOD8293516
_publ_section_title
;
Structure prediction by ZEFSAII (Michael W. Deem and Ramdas Pophale) SiO2 
 PCOD8293516
Probable space group: I B A M
;
_chemical_formula_sum "Si O2"
_cell_formula_units_Z 112
_cell_length_a 16.809155
_cell_length_b 17.573890
_cell_length_c 20.227436
_cell_angle_alpha 90.000000
_cell_angle_beta 90.000000
_cell_angle_gamma 90.000000
_cell_volume 5975.229923
_symmetry_space_group_name_H-M "I B A M"
_symmetry_group_IT_number 72
_symmetry_cell_setting 'orthorhombic'
loop_
_space_group_symop_operation_xyz
x,y,z
-x,-y,z
x,-y,1/2-z
-x,y,1/2-z
-x,-y,-z
x,y,-z
-x,y,1/2+z
x,-y,1/2+z
1/2+x,1/2+y,1/2+z
1/2-x,1/2-y,1/2+z
1/2+x,1/2-y,-z
1/2-x,1/2+y,-z
1/2-x,1/2-y,1/2-z
1/2+x,1/2+y,1/2-z
1/2-x,1/2+y,z
1/2+x,1/2-y,z
loop_
_atom_site_type_symbol
_atom_site_label
_atom_site_fract_x
_atom_site_fract_y
_atom_site_fract_z
Si Si1 0.855681 0.135733 0.887161
Si Si2 0.454199 0.771985 0.184880
Si Si3 0.982171 0.897430 0.179511
Si Si4 0.279382 0.781817 0.819826
Si Si5 0.420393 0.791005 0.572356
Si Si6 0.368304 0.470155 0.573725
Si Si7 0.255402 0.156083 0.923969
O O1 0.778192 0.149662 0.841825
O O2 0.874791 0.209544 0.931350
O O3 0.930859 0.126124 0.841478
O O4 0.843704 0.058598 0.928468
O O5 0.500000 0.798238 0.250000
O O6 0.434079 0.681686 0.186070
O O7 0.369152 0.814405 0.185053
O O8 0.506641 0.796654 0.122288
O O9 0.936876 0.953800 0.128538
O O10 0.000000 0.937595 0.250000
O O11 0.250000 0.750000 0.750000
O O12 0.282709 0.717481 0.875733
O O13 0.456446 0.807359 0.500000
O O14 0.350553 0.851862 0.590131
O O15 0.400750 0.448378 0.500000
O O16 0.288328 0.423788 0.590301
O O17 0.241373 0.181564 0.000000
#
# Coordination Sequence:
#
# PCOD8293516 Si02
#       7
#    16  16  16  16  16  16  16
#     4  10  22  33  52  80 109 145 183 227 277 326
#     4  10  19  33  55  81 108 142 186 230 280 333
#     4  10  20  36  51  79 115 149 186 222 271 343
#     4  11  20  37  57  80 111 146 187 234 281 332
#     4   9  18  34  54  76 105 140 183 230 276 326
#     4  11  22  36  55  80 115 155 190 229 285 344
#     4   9  19  35  54  77 107 146 186 227 277 342
#
# _framework density 18.744049
#
# number of rings (size 3 to 8) (size 9 to 14) (size 15 to 20)
#    0.000    2.000    1.429    4.286    0.000    5.714 
#    0.000    0.000    0.000    0.857    0.000    4.000 
#    0.000    0.000    0.000    0.000    0.000    0.000 
#
# Total GULP energy -693976.312779 kJ/mol
# GULP energy per Si atom -12392.434157 kJ/mol
# Density = 1.870139 g / cm^3
# Si number density = 18.744049 Si / 1000 Ang^3
#
#
#
# Elastic Constant Matrix: (Units=GPa)
#
#
# Indices 1 2 3 4 5 6 
#
# 1 149.9642 33.6332 62.6252 0.0000 0.0000 0.0000
# 2 33.6332 50.7781 16.1576 0.0000 0.0000 0.0000
# 3 62.6252 16.1576 124.9524 0.0000 0.0000 0.0000
# 4 0.0000 0.0000 0.0000 28.7423 0.0000 0.0000
# 5 0.0000 0.0000 0.0000 0.0000 29.9217 0.0000
# 6 0.0000 0.0000 0.0000 0.0000 0.0000 26.0708
#
#
#
# Elastic Compliance Matrix: (Units=1/GPa)
#
#
# Indices 1 2 3 4 5 6 
#
# 1 0.009507 -0.004986 -0.004120 0.000000 0.000000 0.000000
# 2 -0.004986 0.023154 -0.000495 0.000000 0.000000 0.000000
# 3 -0.004120 -0.000495 0.010132 0.000000 0.000000 0.000000
# 4 0.000000 0.000000 0.000000 0.034792 0.000000 0.000000
# 5 0.000000 0.000000 0.000000 0.000000 0.033421 0.000000
# 6 0.000000 0.000000 0.000000 0.000000 0.000000 0.038357
#
#
# Mechanical properties :
#
#
# Convention : Reuss Voigt Hill
#
# Bulk Modulus (GPa) = 42.39031 61.16963 51.77997
# Shear Modulus (GPa) = 28.34015 31.16553 29.75284
#
# Velocity S-wave (km/s) = 3.89260 4.08203 3.98844
# Velocity P-wave (km/s) = 6.54734 7.41096 6.99249
#
# Compressibility (1/GPa) = 0.02359029
#
# Stress axis : x y z
#
# Youngs Moduli (GPa) = 105.18492 43.18990 98.69686
#
# Poissons Ratio (x) = 0.21535 0.40664
# Poissons Ratio (y) = 0.52446 0.04886
# Poissons Ratio (z) = 0.43338 0.02138
#
# Static dielectric constant tensor:
#      x y z
#    x 3.503020 0.000000 0.000000 
#    y 0.000000 3.457570 0.000000 
#    z 0.000000 0.000000 3.483000 
# 
# 
# High freq. dielectric constant tensor:
#      x y z
#    x 1.731180 0.000000 0.000000 
#    y 0.000000 1.686310 0.000000 
#    z 0.000000 0.000000 1.743300 
# 
# From -- ./inp_files/31895.got.cif
#   From: 2010.03.12/outbox.cif.g09.slc.cpg/sg72_16_cif.got.tgz:31895.got - 2010.04.16 14:54:00.
