data_PCOD8293564
_publ_section_title
;
Structure prediction by ZEFSAII (Michael W. Deem and Ramdas Pophale) SiO2 
 PCOD8293564
Probable space group: I B A M
;
_chemical_formula_sum "Si O2"
_cell_formula_units_Z 112
_cell_length_a 12.758946
_cell_length_b 30.513205
_cell_length_c 14.451016
_cell_angle_alpha 90.000000
_cell_angle_beta 90.000000
_cell_angle_gamma 90.000000
_cell_volume 5626.016584
_symmetry_space_group_name_H-M "I B A M"
_symmetry_group_IT_number 72
_symmetry_cell_setting 'orthorhombic'
loop_
_space_group_symop_operation_xyz
x,y,z
-x,-y,z
x,-y,1/2-z
-x,y,1/2-z
-x,-y,-z
x,y,-z
-x,y,1/2+z
x,-y,1/2+z
1/2+x,1/2+y,1/2+z
1/2-x,1/2-y,1/2+z
1/2+x,1/2-y,-z
1/2-x,1/2+y,-z
1/2-x,1/2-y,1/2-z
1/2+x,1/2+y,1/2-z
1/2-x,1/2+y,z
1/2+x,1/2-y,z
loop_
_atom_site_type_symbol
_atom_site_label
_atom_site_fract_x
_atom_site_fract_y
_atom_site_fract_z
Si Si1 0.723364 0.754349 0.606790
Si Si2 0.716490 0.941309 0.897624
Si Si3 0.869282 0.342743 0.397702
Si Si4 0.510715 0.080909 0.142188
Si Si5 0.707144 0.388068 0.270059
Si Si6 0.381347 0.701409 0.740307
Si Si7 0.265105 0.960659 0.104789
O O1 0.744927 0.740433 0.500000
O O2 0.628722 0.790203 0.612703
O O3 0.685704 0.713189 0.667499
O O4 0.829086 0.775831 0.650030
O O5 0.590941 0.938532 0.906301
O O6 0.765230 0.904108 0.832732
O O7 0.743552 0.989587 0.858616
O O8 0.763958 0.934662 0.000000
O O9 0.820863 0.353527 0.500000
O O10 0.981317 0.367218 0.387351
O O11 0.805217 0.362732 0.312935
O O12 0.500000 0.074255 0.250000
O O13 0.614867 0.055640 0.109592
O O14 0.615133 0.351828 0.268059
O O15 0.685803 0.430551 0.334403
O O16 0.500000 0.718195 0.750000
O O17 0.225488 0.958091 0.000000
#
# Coordination Sequence:
#
# PCOD8293564 Si02
#       7
#    16  16  16  16  16  16  16
#     4   9  20  40  63  88 119 152 188 235 290 354
#     4  11  21  31  46  73 109 149 188 231 287 342
#     4   9  17  32  51  73 105 144 184 223 266 327
#     4  11  18  27  46  73 108 148 187 229 280 341
#     4  10  19  34  53  74 103 141 181 231 278 331
#     4  10  22  40  63  90 117 147 192 240 291 347
#     4  10  20  33  50  71 102 145 193 239 284 340
#
# _framework density 19.907513999999999
#
# number of rings (size 3 to 8) (size 9 to 14) (size 15 to 20)
#    0.000    2.000    2.857    3.429    0.000    4.000 
#    2.571    0.000    0.000    1.714    0.000    2.000 
#    0.000    0.000    0.000    0.000    0.000    0.000 
#
# Total GULP energy -693808.108680 kJ/mol
# GULP energy per Si atom -12389.430512 kJ/mol
# Density = 1.986220 g / cm^3
# Si number density = 19.907514 Si / 1000 Ang^3
#
#
#
# Elastic Constant Matrix: (Units=GPa)
#
#
# Indices 1 2 3 4 5 6 
#
# 1 49.7991 26.7968 22.7983 0.0000 -0.0001 0.0003
# 2 26.7968 81.9834 31.5326 0.0009 -0.0002 0.0003
# 3 22.7983 31.5326 126.3410 0.0005 -0.0002 0.0010
# 4 0.0000 0.0009 0.0005 34.1326 -0.0003 0.0001
# 5 -0.0001 -0.0002 -0.0002 -0.0003 9.2270 -0.0002
# 6 0.0003 0.0003 0.0010 0.0001 -0.0002 20.0611
#
#
#
# Elastic Compliance Matrix: (Units=1/GPa)
#
#
# Indices 1 2 3 4 5 6 
#
# 1 0.025205 -0.007178 -0.002757 0.000000 0.000000 0.000000
# 2 -0.007178 0.015537 -0.002582 0.000000 0.000000 0.000000
# 3 -0.002757 -0.002582 0.009057 0.000000 0.000000 0.000000
# 4 0.000000 0.000000 0.000000 0.029298 0.000001 0.000000
# 5 0.000000 0.000000 0.000000 0.000001 0.108377 0.000001
# 6 0.000000 0.000000 0.000000 0.000000 0.000001 0.049848
#
#
# Mechanical properties :
#
#
# Convention : Reuss Voigt Hill
#
# Bulk Modulus (GPa) = 40.38017 46.70876 43.54446
# Shear Modulus (GPa) = 18.47663 24.48385 21.48024
#
# Velocity S-wave (km/s) = 3.04982 3.51077 3.28838
# Velocity P-wave (km/s) = 5.72099 6.32043 6.02817
#
# Compressibility (1/GPa) = 0.02476463
#
# Stress axis : x y z
#
# Youngs Moduli (GPa) = 39.67413 64.36197 110.41071
#
# Poissons Ratio (x) = 0.46200 0.30438
# Poissons Ratio (y) = 0.28479 0.28514
# Poissons Ratio (z) = 0.10937 0.16621
#
# Static dielectric constant tensor:
#      x y z
#    x 3.210530 0.000000 0.000000 
#    y 0.000000 4.014930 0.000000 
#    z 0.000000 0.000000 3.786970 
# 
# 
# High freq. dielectric constant tensor:
#      x y z
#    x 1.704200 0.000000 0.000000 
#    y 0.000000 1.784410 0.000000 
#    z 0.000000 0.000000 1.796090 
# 
# From -- ./inp_files/20668.got.cif
#   From: 2010.03.12/outbox.cif.g09.slc.cpg/sg72_11_cif.got.tgz:20668.got - 2010.04.16 14:54:00.
