data_PCOD8293345
_publ_section_title
;
Structure prediction by ZEFSAII (Michael W. Deem and Ramdas Pophale) SiO2 
 PCOD8293345
Probable space group: I B A M
;
_chemical_formula_sum "Si O2"
_cell_formula_units_Z 64
_cell_length_a 19.487894
_cell_length_b 20.862407
_cell_length_c 8.933728
_cell_angle_alpha 90.000000
_cell_angle_beta 90.000000
_cell_angle_gamma 90.000000
_cell_volume 3632.135551
_symmetry_space_group_name_H-M "I B A M"
_symmetry_group_IT_number 72
_symmetry_cell_setting 'orthorhombic'
loop_
_space_group_symop_operation_xyz
x,y,z
-x,-y,z
x,-y,1/2-z
-x,y,1/2-z
-x,-y,-z
x,y,-z
-x,y,1/2+z
x,-y,1/2+z
1/2+x,1/2+y,1/2+z
1/2-x,1/2-y,1/2+z
1/2+x,1/2-y,-z
1/2-x,1/2+y,-z
1/2-x,1/2-y,1/2-z
1/2+x,1/2+y,1/2-z
1/2-x,1/2+y,z
1/2+x,1/2-y,z
loop_
_atom_site_type_symbol
_atom_site_label
_atom_site_fract_x
_atom_site_fract_y
_atom_site_fract_z
Si Si1 0.711566 0.565357 0.674743
Si Si2 0.432110 0.760330 0.325090
Si Si3 0.786520 0.309338 0.173885
Si Si4 0.568580 0.375973 0.823792
O O1 0.736424 0.500000 0.750000
O O2 0.724040 0.558149 0.500000
O O3 0.757283 0.623937 0.739077
O O4 0.631750 0.577459 0.712589
O O5 0.500000 0.791332 0.250000
O O6 0.445342 0.748613 0.500000
O O7 0.368233 0.807692 0.297789
O O8 0.415574 0.692816 0.247793
O O9 0.750000 0.250000 0.250000
O O10 0.768111 0.304299 0.000000
O O11 0.500000 0.405987 0.750000
O O12 0.557774 0.367216 0.000000
#
# Coordination Sequence:
#
# PCOD8293345 Si02
#       4
#    16  16  16  16
#     4  10  22  37  52  74 105 139 176 217 259 308
#     4  10  19  31  52  79 106 135 169 212 261 309
#     4  10  20  35  55  79 105 136 174 217 261 308
#     4  10  19  32  50  73 105 139 174 213 252 303
#
# _framework density 17.620487000000001
#
# number of rings (size 3 to 8) (size 9 to 14) (size 15 to 20)
#    0.000    2.000    2.500    3.000    0.000    4.500 
#    0.000    2.500    0.000    0.750    0.000    5.250 
#    0.000    0.000    0.000    0.000    0.000    0.000 
#
# Total GULP energy -396783.835748 kJ/mol
# GULP energy per Si atom -12399.494867 kJ/mol
# Density = 1.758038 g / cm^3
# Si number density = 17.620487 Si / 1000 Ang^3
#
#
#
# Elastic Constant Matrix: (Units=GPa)
#
#
# Indices 1 2 3 4 5 6 
#
# 1 104.0840 66.8614 47.1818 0.0000 0.0000 0.0000
# 2 66.8614 126.6830 42.1337 0.0000 0.0000 0.0000
# 3 47.1818 42.1337 78.4894 0.0000 0.0000 0.0000
# 4 0.0000 0.0000 0.0000 26.5428 0.0000 0.0000
# 5 0.0000 0.0000 0.0000 0.0000 26.5497 0.0000
# 6 0.0000 0.0000 0.0000 0.0000 0.0000 24.9979
#
#
#
# Elastic Compliance Matrix: (Units=1/GPa)
#
#
# Indices 1 2 3 4 5 6 
#
# 1 0.016908 -0.006748 -0.006541 0.000000 0.000000 0.000000
# 2 -0.006748 0.012303 -0.002548 0.000000 0.000000 0.000000
# 3 -0.006541 -0.002548 0.018040 0.000000 0.000000 0.000000
# 4 0.000000 0.000000 0.000000 0.037675 0.000000 0.000000
# 5 0.000000 0.000000 0.000000 0.000000 0.037665 0.000000
# 6 0.000000 0.000000 0.000000 0.000000 0.000000 0.040003
#
#
# Mechanical properties :
#
#
# Convention : Reuss Voigt Hill
#
# Bulk Modulus (GPa) = 64.19882 69.06780 66.63331
# Shear Modulus (GPa) = 25.06770 25.82338 25.44554
#
# Velocity S-wave (km/s) = 3.77589 3.83238 3.80424
# Velocity P-wave (km/s) = 7.45138 7.67238 7.56269
#
# Compressibility (1/GPa) = 0.01557661
#
# Stress axis : x y z
#
# Youngs Moduli (GPa) = 59.14520 81.28379 55.43169
#
# Poissons Ratio (x) = 0.54851 0.36259
# Poissons Ratio (y) = 0.39911 0.14122
# Poissons Ratio (z) = 0.38688 0.20709
#
# Static dielectric constant tensor:
#      x y z
#    x 3.611600 0.000000 0.000000 
#    y 0.000000 3.100760 0.000000 
#    z 0.000000 0.000000 3.418580 
# 
# 
# High freq. dielectric constant tensor:
#      x y z
#    x 1.688700 0.000000 0.000000 
#    y 0.000000 1.652950 0.000000 
#    z 0.000000 0.000000 1.687390 
# 
# From -- ./inp_files/4320.got.cif
#   From: 2010.03.12/outbox.cif.g09.slc.cpg/sg72_3_cif.got.tgz:4320.got - 2010.04.16 14:54:00.
