data_PCOD8293327
_publ_section_title
;
Structure prediction by ZEFSAII (Michael W. Deem and Ramdas Pophale) SiO2 
 PCOD8293327
Probable space group: I B A M
;
_chemical_formula_sum "Si O2"
_cell_formula_units_Z 72
_cell_length_a 25.301998
_cell_length_b 16.108309
_cell_length_c 10.008703
_cell_angle_alpha 90.000000
_cell_angle_beta 90.000000
_cell_angle_gamma 90.000000
_cell_volume 4079.271124
_symmetry_space_group_name_H-M "I B A M"
_symmetry_group_IT_number 72
_symmetry_cell_setting 'orthorhombic'
loop_
_space_group_symop_operation_xyz
x,y,z
-x,-y,z
x,-y,1/2-z
-x,y,1/2-z
-x,-y,-z
x,y,-z
-x,y,1/2+z
x,-y,1/2+z
1/2+x,1/2+y,1/2+z
1/2-x,1/2-y,1/2+z
1/2+x,1/2-y,-z
1/2-x,1/2+y,-z
1/2-x,1/2-y,1/2-z
1/2+x,1/2+y,1/2-z
1/2-x,1/2+y,z
1/2+x,1/2-y,z
loop_
_atom_site_type_symbol
_atom_site_label
_atom_site_fract_x
_atom_site_fract_y
_atom_site_fract_z
Si Si1 0.644956 0.250093 0.847061
Si Si2 0.048103 0.141366 0.149327
Si Si3 0.381314 0.500000 0.750000
Si Si4 0.301282 0.629146 0.650614
Si Si5 0.815366 0.427920 0.653133
O O1 0.585360 0.280055 0.816786
O O2 0.686264 0.296312 0.751477
O O3 0.647708 0.151974 0.821993
O O4 0.660636 0.271846 0.000000
O O5 0.000000 0.140590 0.250000
O O6 0.081993 0.057105 0.157399
O O7 0.025022 0.148141 0.000000
O O8 0.344814 0.556619 0.655979
O O9 0.299790 0.664754 0.500000
O O10 0.244698 0.593173 0.691467
O O11 0.836490 0.500000 0.750000
O O12 0.819412 0.458178 0.500000
#
# Coordination Sequence:
#
# PCOD8293327 Si02
#       5
#    16  16   8  16  16
#     4   9  20  36  52  72 102 136 170 213 261 301
#     4  10  21  35  52  73 100 135 172 215 257 299
#     4  10  19  32  50  76 110 138 169 202 248 298
#     4  10  19  31  50  76 105 138 173 204 243 303
#     4  10  20  34  52  76 104 135 171 210 253 305
#
# _framework density 17.650212
#
# number of rings (size 3 to 8) (size 9 to 14) (size 15 to 20)
#    0.000    2.222    1.111    1.667    0.000    8.000 
#    0.000    0.000    0.000    0.667    0.000    4.667 
#    0.000    0.000    0.000    0.000    0.000    0.000 
#
# Total GULP energy -446449.725630 kJ/mol
# GULP energy per Si atom -12401.381267 kJ/mol
# Density = 1.761004 g / cm^3
# Si number density = 17.650212 Si / 1000 Ang^3
#
#
#
# Elastic Constant Matrix: (Units=GPa)
#
#
# Indices 1 2 3 4 5 6 
#
# 1 72.6025 40.4385 24.4107 0.0000 0.0000 0.0000
# 2 40.4385 110.1347 47.3980 0.0000 0.0000 0.0000
# 3 24.4107 47.3980 72.3108 0.0000 0.0000 0.0000
# 4 0.0000 0.0000 0.0000 31.5514 0.0000 0.0000
# 5 0.0000 0.0000 0.0000 0.0000 19.7217 0.0000
# 6 0.0000 0.0000 0.0000 0.0000 0.0000 14.3656
#
#
#
# Elastic Compliance Matrix: (Units=1/GPa)
#
#
# Indices 1 2 3 4 5 6 
#
# 1 0.017603 -0.005441 -0.002376 0.000000 0.000000 0.000000
# 2 -0.005441 0.014329 -0.007556 0.000000 0.000000 0.000000
# 3 -0.002376 -0.007556 0.019584 0.000000 0.000000 0.000000
# 4 0.000000 0.000000 0.000000 0.031694 0.000000 0.000000
# 5 0.000000 0.000000 0.000000 0.000000 0.050705 0.000000
# 6 0.000000 0.000000 0.000000 0.000000 0.000000 0.069611
#
#
# Mechanical properties :
#
#
# Convention : Reuss Voigt Hill
#
# Bulk Modulus (GPa) = 48.14441 53.28248 50.71344
# Shear Modulus (GPa) = 20.73009 22.64781 21.68895
#
# Velocity S-wave (km/s) = 3.43081 3.58599 3.50926
# Velocity P-wave (km/s) = 6.55973 6.88472 6.72419
#
# Compressibility (1/GPa) = 0.02077084
#
# Stress axis : x y z
#
# Youngs Moduli (GPa) = 56.80872 69.78746 51.06217
#
# Poissons Ratio (x) = 0.37969 0.12133
# Poissons Ratio (y) = 0.30908 0.38581
# Poissons Ratio (z) = 0.13498 0.52730
#
# Static dielectric constant tensor:
#      x y z
#    x 3.182040 0.000000 0.000000 
#    y 0.000000 3.280500 0.000000 
#    z 0.000000 0.000000 3.257880 
# 
# 
# High freq. dielectric constant tensor:
#      x y z
#    x 1.664840 0.000000 0.000000 
#    y 0.000000 1.674180 0.000000 
#    z 0.000000 0.000000 1.689970 
# 
# From -- ./inp_files/3684.got.cif
#   From: 2010.03.12/outbox.cif.g09.slc.cpg/sg72_2_cif.got.tgz:3684.got - 2010.04.16 14:54:00.
