data_PCOD8293436
_publ_section_title
;
Structure prediction by ZEFSAII (Michael W. Deem and Ramdas Pophale) SiO2 
 PCOD8293436
Probable space group: I B A M
;
_chemical_formula_sum "Si O2"
_cell_formula_units_Z 116
_cell_length_a 26.180363
_cell_length_b 23.524284
_cell_length_c 9.036890
_cell_angle_alpha 90.000000
_cell_angle_beta 90.000000
_cell_angle_gamma 90.000000
_cell_volume 5565.588253
_symmetry_space_group_name_H-M "I B A M"
_symmetry_group_IT_number 72
_symmetry_cell_setting 'orthorhombic'
loop_
_space_group_symop_operation_xyz
x,y,z
-x,-y,z
x,-y,1/2-z
-x,y,1/2-z
-x,-y,-z
x,y,-z
-x,y,1/2+z
x,-y,1/2+z
1/2+x,1/2+y,1/2+z
1/2-x,1/2-y,1/2+z
1/2+x,1/2-y,-z
1/2-x,1/2+y,-z
1/2-x,1/2-y,1/2-z
1/2+x,1/2+y,1/2-z
1/2-x,1/2+y,z
1/2+x,1/2-y,z
loop_
_atom_site_type_symbol
_atom_site_label
_atom_site_fract_x
_atom_site_fract_y
_atom_site_fract_z
Si Si1 0.000000 0.000000 0.250000
Si Si2 0.820174 0.777407 0.335252
Si Si3 0.162292 0.666321 0.673306
Si Si4 0.773548 0.555397 0.825378
Si Si5 0.559860 0.285389 0.339249
Si Si6 0.452119 0.178021 0.329684
Si Si7 0.319620 0.607439 0.823971
Si Si8 0.577393 0.592197 0.836389
O O1 0.962188 0.040008 0.156852
O O2 0.794778 0.778838 0.500000
O O3 0.807262 0.717685 0.254029
O O4 0.879903 0.782604 0.350082
O O5 0.802036 0.831190 0.239259
O O6 0.161651 0.680797 0.500000
O O7 0.189909 0.608019 0.711319
O O8 0.103564 0.659258 0.730698
O O9 0.799212 0.500000 0.750000
O O10 0.719022 0.562312 0.746195
O O11 0.766323 0.547129 0.000000
O O12 0.537573 0.265659 0.500000
O O13 0.541119 0.245497 0.205280
O O14 0.545162 0.350385 0.301294
O O15 0.500000 0.145943 0.250000
O O16 0.457051 0.164422 0.500000
O O17 0.376618 0.586527 0.780827
O O18 0.315550 0.608405 0.000000
O O19 0.602204 0.597485 0.000000
#
# Coordination Sequence:
#
# PCOD8293436 Si02
#       8
#     4  16  16  16  16  16  16  16
#     4  12  26  40  60  86 110 156 212 258 314 352
#     4   9  17  33  59  90 122 154 191 242 300 354
#     4   9  20  38  60  88 123 159 196 243 293 354
#     4  11  24  43  65  89 118 154 200 249 299 352
#     4   8  16  32  52  77 109 148 188 234 287 340
#     4  10  19  32  54  86 118 151 187 226 281 347
#     4  11  23  40  64  90 118 156 201 249 305 364
#     4  10  23  42  59  80 113 151 200 255 305 354
#
# _framework density 20.842362000000001
#
# number of rings (size 3 to 8) (size 9 to 14) (size 15 to 20)
#    0.000    2.207    0.000    3.517    1.931    6.621 
#    0.000    0.000    0.000    0.414    0.000    2.897 
#    0.000    0.000    0.000    0.000    0.000    0.000 
#
# Total GULP energy -718808.891479 kJ/mol
# GULP energy per Si atom -12393.256750 kJ/mol
# Density = 2.079492 g / cm^3
# Si number density = 20.842362 Si / 1000 Ang^3
#
#
#
# Elastic Constant Matrix: (Units=GPa)
#
#
# Indices 1 2 3 4 5 6 
#
# 1 61.3308 37.4000 30.3185 0.0000 0.0000 0.0000
# 2 37.4000 120.8581 48.4812 0.0000 0.0000 0.0000
# 3 30.3185 48.4812 116.5060 0.0000 0.0000 0.0000
# 4 0.0000 0.0000 0.0000 28.5521 0.0000 0.0000
# 5 0.0000 0.0000 0.0000 0.0000 27.9495 0.0000
# 6 0.0000 0.0000 0.0000 0.0000 0.0000 16.0774
#
#
#
# Elastic Compliance Matrix: (Units=1/GPa)
#
#
# Indices 1 2 3 4 5 6 
#
# 1 0.021124 -0.005200 -0.003333 0.000000 0.000000 0.000000
# 2 -0.005200 0.011212 -0.003312 0.000000 0.000000 0.000000
# 3 -0.003333 -0.003312 0.010829 0.000000 0.000000 0.000000
# 4 0.000000 0.000000 0.000000 0.035024 0.000000 0.000000
# 5 0.000000 0.000000 0.000000 0.000000 0.035779 0.000000
# 6 0.000000 0.000000 0.000000 0.000000 0.000000 0.062199
#
#
# Mechanical properties :
#
#
# Convention : Reuss Voigt Hill
#
# Bulk Modulus (GPa) = 51.35108 59.01049 55.18078
# Shear Modulus (GPa) = 24.23088 26.68216 25.45652
#
# Velocity S-wave (km/s) = 3.41336 3.58185 3.49862
# Velocity P-wave (km/s) = 6.34240 6.74392 6.54624
#
# Compressibility (1/GPa) = 0.01947379
#
# Stress axis : x y z
#
# Youngs Moduli (GPa) = 47.34038 89.19017 92.34383
#
# Poissons Ratio (x) = 0.46376 0.30781
# Poissons Ratio (y) = 0.24615 0.30589
# Poissons Ratio (z) = 0.15780 0.29544
#
# Static dielectric constant tensor:
#      x y z
#    x 3.887280 0.000000 0.000000 
#    y 0.000000 3.809430 0.000000 
#    z 0.000000 0.000000 3.871710 
# 
# 
# High freq. dielectric constant tensor:
#      x y z
#    x 1.820550 0.000000 0.000000 
#    y 0.000000 1.792990 0.000000 
#    z 0.000000 0.000000 1.818150 
# 
# From -- ./inp_files/8404.got.cif
#   From: 2010.03.12/outbox.cif.g09.slc.cpg/sg72_5_cif.got.tgz:8404.got - 2010.04.16 14:54:00.
