data_PCOD8293053
_publ_section_title
;
Structure prediction by ZEFSAII (Michael W. Deem and Ramdas Pophale) SiO2 
 PCOD8293053
Probable space group: I B A M
;
_chemical_formula_sum "Si O2"
_cell_formula_units_Z 112
_cell_length_a 23.633660
_cell_length_b 13.056151
_cell_length_c 19.107861
_cell_angle_alpha 90.000000
_cell_angle_beta 90.000000
_cell_angle_gamma 90.000000
_cell_volume 5896.010129
_symmetry_space_group_name_H-M "I B A M"
_symmetry_group_IT_number 72
_symmetry_cell_setting 'orthorhombic'
loop_
_space_group_symop_operation_xyz
x,y,z
-x,-y,z
x,-y,1/2-z
-x,y,1/2-z
-x,-y,-z
x,y,-z
-x,y,1/2+z
x,-y,1/2+z
1/2+x,1/2+y,1/2+z
1/2-x,1/2-y,1/2+z
1/2+x,1/2-y,-z
1/2-x,1/2+y,-z
1/2-x,1/2-y,1/2-z
1/2+x,1/2+y,1/2-z
1/2-x,1/2+y,z
1/2+x,1/2-y,z
loop_
_atom_site_type_symbol
_atom_site_label
_atom_site_fract_x
_atom_site_fract_y
_atom_site_fract_z
Si Si1 0.490929 0.881165 0.669409
Si Si2 0.708919 0.615309 0.081837
Si Si3 0.670448 0.606952 0.582440
Si Si4 0.334072 0.080211 0.423873
Si Si5 0.076195 0.250053 0.922657
Si Si6 0.269555 0.792668 0.675788
Si Si7 0.373679 0.068872 0.183767
O O1 0.500000 0.863578 0.750000
O O2 0.529399 0.799237 0.627784
O O3 0.424214 0.853652 0.661861
O O4 0.500000 0.000000 0.645606
O O5 0.671294 0.515140 0.097514
O O6 0.772463 0.593446 0.109023
O O7 0.692726 0.711664 0.130621
O O8 0.706493 0.646399 0.000000
O O9 0.684374 0.627162 0.500000
O O10 0.605335 0.642058 0.601186
O O11 0.717470 0.663432 0.630264
O O12 0.326225 0.030529 0.500000
O O13 0.365653 0.187358 0.427001
O O14 0.373063 0.006039 0.381114
O O15 0.048298 0.241663 0.000000
O O16 0.250000 0.750000 0.750000
O O17 0.313470 0.880688 0.696809
O O18 0.392258 0.000000 0.250000
#
# Coordination Sequence:
#
# PCOD8293053 Si02
#       7
#    16  16  16  16  16  16  16
#     4  11  21  36  57  78 115 155 195 234 297 362
#     4  10  20  38  57  81 115 159 200 239 298 358
#     4  10  21  38  60  82 115 162 205 248 301 359
#     4  10  18  30  54  80 110 145 189 238 282 349
#     4  10  20  35  57  86 115 151 198 244 292 350
#     4  12  25  33  56  86 124 154 196 245 297 363
#     4  12  23  37  53  83 121 156 191 230 305 358
#
# _framework density 18.995896999999999
#
# number of rings (size 3 to 8) (size 9 to 14) (size 15 to 20)
#    0.000    1.286    5.714    1.286    2.000    1.429 
#    0.000    0.000    0.000    0.857    0.000    4.000 
#    0.000    0.000    0.000    0.000    0.000    0.000 
#
# Total GULP energy -693739.629422 kJ/mol
# GULP energy per Si atom -12388.207668 kJ/mol
# Density = 1.895266 g / cm^3
# Si number density = 18.995897 Si / 1000 Ang^3
#
#
#
# Elastic Constant Matrix: (Units=GPa)
#
#
# Indices 1 2 3 4 5 6 
#
# 1 80.6415 14.6586 27.4450 0.0000 0.0000 0.0000
# 2 14.6586 70.7950 36.6398 0.0000 0.0000 0.0000
# 3 27.4450 36.6398 74.9796 0.0000 0.0000 0.0000
# 4 0.0000 0.0000 0.0000 21.4329 0.0000 0.0000
# 5 0.0000 0.0000 0.0000 0.0000 27.3464 0.0000
# 6 0.0000 0.0000 0.0000 0.0000 0.0000 32.4334
#
#
#
# Elastic Compliance Matrix: (Units=1/GPa)
#
#
# Indices 1 2 3 4 5 6 
#
# 1 0.014171 -0.000334 -0.005024 0.000000 0.000000 0.000000
# 2 -0.000334 0.018915 -0.009121 0.000000 0.000000 0.000000
# 3 -0.005024 -0.009121 0.019633 0.000000 0.000000 0.000000
# 4 0.000000 0.000000 0.000000 0.046657 0.000000 0.000000
# 5 0.000000 0.000000 0.000000 0.000000 0.036568 0.000000
# 6 0.000000 0.000000 0.000000 0.000000 0.000000 0.030832
#
#
# Mechanical properties :
#
#
# Convention : Reuss Voigt Hill
#
# Bulk Modulus (GPa) = 42.08499 42.65587 42.37043
# Shear Modulus (GPa) = 24.55142 26.08738 25.31940
#
# Velocity S-wave (km/s) = 3.59898 3.70985 3.65483
# Velocity P-wave (km/s) = 6.28276 6.39177 6.33750
#
# Compressibility (1/GPa) = 0.02376144
#
# Stress axis : x y z
#
# Youngs Moduli (GPa) = 70.56637 52.86834 50.93516
#
# Poissons Ratio (x) = 0.01767 0.25589
# Poissons Ratio (y) = 0.02358 0.46457
# Poissons Ratio (z) = 0.35451 0.48220
#
# Static dielectric constant tensor:
#      x y z
#    x 3.517580 0.000000 0.000000 
#    y 0.000000 3.548600 0.000000 
#    z 0.000000 0.000000 3.542260 
# 
# 
# High freq. dielectric constant tensor:
#      x y z
#    x 1.723350 0.000000 0.000000 
#    y 0.000000 1.720000 0.000000 
#    z 0.000000 0.000000 1.742160 
# 
# From -- ./inp_files/40376.got.cif
#   From: 2010.03.12/outbox.cif.g09.slc.cpg/sg72_21_cif.got.tgz:40376.got - 2010.04.16 14:54:00.
