data_PCOD8293549
_publ_section_title
;
Structure prediction by ZEFSAII (Michael W. Deem and Ramdas Pophale) SiO2 
 PCOD8293549
Probable space group: I B A M
;
_chemical_formula_sum "Si O2"
_cell_formula_units_Z 72
_cell_length_a 15.264573
_cell_length_b 8.990714
_cell_length_c 26.109565
_cell_angle_alpha 90.000000
_cell_angle_beta 90.000000
_cell_angle_gamma 90.000000
_cell_volume 3583.261301
_symmetry_space_group_name_H-M "I B A M"
_symmetry_group_IT_number 72
_symmetry_cell_setting 'orthorhombic'
loop_
_space_group_symop_operation_xyz
x,y,z
-x,-y,z
x,-y,1/2-z
-x,y,1/2-z
-x,-y,-z
x,y,-z
-x,y,1/2+z
x,-y,1/2+z
1/2+x,1/2+y,1/2+z
1/2-x,1/2-y,1/2+z
1/2+x,1/2-y,-z
1/2-x,1/2+y,-z
1/2-x,1/2-y,1/2-z
1/2+x,1/2+y,1/2-z
1/2-x,1/2+y,z
1/2+x,1/2-y,z
loop_
_atom_site_type_symbol
_atom_site_label
_atom_site_fract_x
_atom_site_fract_y
_atom_site_fract_z
Si Si1 0.210842 0.754324 0.821382
Si Si2 0.124962 0.650536 0.389072
Si Si3 0.748555 0.000000 0.250000
Si Si4 0.308745 0.122749 0.500000
Si Si5 0.930214 0.686849 0.607283
Si Si6 0.135858 0.711043 0.000000
O O1 0.304870 0.777497 0.849741
O O2 0.193853 0.874556 0.777131
O O3 0.196736 0.590829 0.794950
O O4 0.134168 0.793037 0.861166
O O5 0.148527 0.690389 0.448147
O O6 0.113473 0.474291 0.383789
O O7 0.029255 0.714133 0.374291
O O8 0.206157 0.157936 0.500000
O O9 0.313858 0.945335 0.500000
O O10 0.928692 0.727025 0.547745
#
# Coordination Sequence:
#
# PCOD8293549 Si02
#       6
#    16  16   8   8  16   8
#     4  11  20  41  60  86 112 153 192 245 290 340
#     4  10  20  36  61  89 118 154 191 228 279 351
#     4  10  24  38  62  82 114 148 196 252 296 324
#     4  10  19  33  59  90 120 150 187 227 277 340
#     4  10  20  36  61  89 118 154 191 228 279 351
#     4  10  19  33  59  90 120 150 187 227 277 340
#
# _framework density 20.093426999999998
#
# number of rings (size 3 to 8) (size 9 to 14) (size 15 to 20)
#    0.000    1.778    4.444    0.667    0.000    2.667 
#    0.000    7.778    0.000    1.333    0.000    0.000 
#    0.000    0.000    0.000    0.000    0.000    0.000 
#
# Total GULP energy -445974.845169 kJ/mol
# GULP energy per Si atom -12388.190144 kJ/mol
# Density = 2.004769 g / cm^3
# Si number density = 20.093427 Si / 1000 Ang^3
#
#
#
# Elastic Constant Matrix: (Units=GPa)
#
#
# Indices 1 2 3 4 5 6 
#
# 1 125.4643 8.8827 53.4663 0.0000 0.0000 0.0000
# 2 8.8827 38.4791 23.1651 0.0000 0.0000 0.0000
# 3 53.4663 23.1651 126.8841 0.0000 0.0000 0.0000
# 4 0.0000 0.0000 0.0000 29.5595 0.0000 0.0000
# 5 0.0000 0.0000 0.0000 0.0000 8.5940 0.0000
# 6 0.0000 0.0000 0.0000 0.0000 0.0000 22.1152
#
#
#
# Elastic Compliance Matrix: (Units=1/GPa)
#
#
# Indices 1 2 3 4 5 6 
#
# 1 0.009717 0.000249 -0.004140 0.000000 0.000000 0.000000
# 2 0.000249 0.029204 -0.005437 0.000000 0.000000 0.000000
# 3 -0.004140 -0.005437 0.010618 0.000000 0.000000 0.000000
# 4 0.000000 0.000000 0.000000 0.033830 0.000000 0.000000
# 5 0.000000 0.000000 0.000000 0.000000 0.116360 0.000000
# 6 0.000000 0.000000 0.000000 0.000000 0.000000 0.045218
#
#
# Mechanical properties :
#
#
# Convention : Reuss Voigt Hill
#
# Bulk Modulus (GPa) = 32.37930 51.31730 41.84830
# Shear Modulus (GPa) = 18.25509 25.74130 21.99820
#
# Velocity S-wave (km/s) = 3.01742 3.58310 3.31236
# Velocity P-wave (km/s) = 5.31875 6.53551 5.95827
#
# Compressibility (1/GPa) = 0.03088393
#
# Stress axis : x y z
#
# Youngs Moduli (GPa) = 102.91213 34.24236 94.17689
#
# Poissons Ratio (x) = -0.00854 0.38990
# Poissons Ratio (y) = -0.02565 0.51201
# Poissons Ratio (z) = 0.42606 0.18617
#
# Static dielectric constant tensor:
#      x y z
#    x 3.381540 0.000000 0.000000 
#    y 0.000000 3.531080 0.000000 
#    z 0.000000 0.000000 4.008340 
# 
# 
# High freq. dielectric constant tensor:
#      x y z
#    x 1.762810 0.000000 0.000000 
#    y 0.000000 1.760630 0.000000 
#    z 0.000000 0.000000 1.807440 
# 
# From -- ./inp_files/42118.got.cif
#   From: 2010.03.12/outbox.cif.g09.slc.cpg/sg72_22_cif.got.tgz:42118.got - 2010.04.16 14:54:00.
