data_PCOD8293030
_publ_section_title
;
Structure prediction by ZEFSAII (Michael W. Deem and Ramdas Pophale) SiO2 
 PCOD8293030
Probable space group: I B A M
;
_chemical_formula_sum "Si O2"
_cell_formula_units_Z 116
_cell_length_a 24.092002
_cell_length_b 34.557489
_cell_length_c 9.052479
_cell_angle_alpha 90.000000
_cell_angle_beta 90.000000
_cell_angle_gamma 90.000000
_cell_volume 7536.723716
_symmetry_space_group_name_H-M "I B A M"
_symmetry_group_IT_number 72
_symmetry_cell_setting 'orthorhombic'
loop_
_space_group_symop_operation_xyz
x,y,z
-x,-y,z
x,-y,1/2-z
-x,y,1/2-z
-x,-y,-z
x,y,-z
-x,y,1/2+z
x,-y,1/2+z
1/2+x,1/2+y,1/2+z
1/2-x,1/2-y,1/2+z
1/2+x,1/2-y,-z
1/2-x,1/2+y,-z
1/2-x,1/2-y,1/2-z
1/2+x,1/2+y,1/2-z
1/2-x,1/2+y,z
1/2+x,1/2-y,z
loop_
_atom_site_type_symbol
_atom_site_label
_atom_site_fract_x
_atom_site_fract_y
_atom_site_fract_z
Si Si1 0.596234 0.367315 0.829466
Si Si2 0.085416 0.059475 0.661607
Si Si3 0.944616 0.208479 0.173167
Si Si4 0.791148 0.038703 0.826765
Si Si5 0.000000 0.000000 0.750000
Si Si6 0.224180 0.883488 0.327342
Si Si7 0.168082 0.249140 0.670627
Si Si8 0.763613 0.689610 0.827475
O O1 0.568289 0.407706 0.779425
O O2 0.569251 0.333561 0.735326
O O3 0.661436 0.370034 0.796589
O O4 0.582874 0.359984 0.000000
O O5 0.092028 0.078835 0.500000
O O6 0.143399 0.040129 0.707928
O O7 0.038789 0.026678 0.649116
O O8 0.894955 0.238079 0.208571
O O9 0.000000 0.224982 0.250000
O O10 0.954671 0.204473 0.000000
O O11 0.762274 0.076198 0.753882
O O12 0.767160 0.000000 0.750000
O O13 0.777531 0.037643 0.000000
O O14 0.236249 0.888427 0.500000
O O15 0.263957 0.850790 0.259493
O O16 0.175795 0.260773 0.500000
O O17 0.183971 0.285511 0.771838
O O18 0.207013 0.212608 0.708936
O O19 0.770052 0.681179 0.000000
#
# Coordination Sequence:
#
# PCOD8293030 Si02
#       8
#    16  16  16  16   4  16  16  16
#     4  10  21  35  50  65  84 110 144 184 230 278
#     4  10  22  35  47  59  76 102 135 180 229 278
#     4  11  22  36  51  67  91 120 153 187 226 273
#     4  10  19  33  48  63  83 110 142 179 225 274
#     4  12  22  36  48  62  74 100 140 186 238 284
#     4  10  19  31  49  70  91 115 146 184 228 280
#     4   9  19  33  48  68  94 121 148 185 230 275
#     4  10  18  30  50  73  94 117 147 186 231 277
#
# _framework density 15.391304
#
# number of rings (size 3 to 8) (size 9 to 14) (size 15 to 20)
#    0.000    1.931    2.069    2.276    0.966    4.414 
#    0.000    0.000    0.000    0.000    0.000    0.000 
#    0.000    0.000    0.000    0.000    0.000    0.690 
#
# Total GULP energy -719309.023612 kJ/mol
# GULP energy per Si atom -12401.879717 kJ/mol
# Density = 1.535627 g / cm^3
# Si number density = 15.391304 Si / 1000 Ang^3
#
#
#
# Elastic Constant Matrix: (Units=GPa)
#
#
# Indices 1 2 3 4 5 6 
#
# 1 50.3178 39.1154 35.7438 0.0000 0.0000 0.0000
# 2 39.1154 108.7691 59.2918 0.0000 0.0000 0.0000
# 3 35.7438 59.2918 97.0750 0.0000 0.0000 0.0000
# 4 0.0000 0.0000 0.0000 29.8832 0.0000 0.0000
# 5 0.0000 0.0000 0.0000 0.0000 18.5806 0.0000
# 6 0.0000 0.0000 0.0000 0.0000 0.0000 21.8034
#
#
#
# Elastic Compliance Matrix: (Units=1/GPa)
#
#
# Indices 1 2 3 4 5 6 
#
# 1 0.030267 -0.007210 -0.006741 0.000000 0.000000 0.000000
# 2 -0.007210 0.015500 -0.006813 0.000000 0.000000 0.000000
# 3 -0.006741 -0.006813 0.016944 0.000000 0.000000 0.000000
# 4 0.000000 0.000000 0.000000 0.033464 0.000000 0.000000
# 5 0.000000 0.000000 0.000000 0.000000 0.053820 0.000000
# 6 0.000000 0.000000 0.000000 0.000000 0.000000 0.045864
#
#
# Mechanical properties :
#
#
# Convention : Reuss Voigt Hill
#
# Bulk Modulus (GPa) = 47.20358 58.27376 52.73867
# Shear Modulus (GPa) = 20.45432 22.18750 21.32091
#
# Velocity S-wave (km/s) = 3.64944 3.80091 3.72594
# Velocity P-wave (km/s) = 6.96372 7.56348 7.26979
#
# Compressibility (1/GPa) = 0.02118483
#
# Stress axis : x y z
#
# Youngs Moduli (GPa) = 33.03945 64.51495 59.01693
#
# Poissons Ratio (x) = 0.46516 0.39782
# Poissons Ratio (y) = 0.23822 0.40205
# Poissons Ratio (z) = 0.22271 0.43951
#
# Static dielectric constant tensor:
#      x y z
#    x 2.648470 0.000000 0.000000 
#    y 0.000000 2.885160 0.000000 
#    z 0.000000 0.000000 3.014210 
# 
# 
# High freq. dielectric constant tensor:
#      x y z
#    x 1.535650 0.000000 0.000000 
#    y 0.000000 1.582390 0.000000 
#    z 0.000000 0.000000 1.608020 
# 
# From -- ./inp_files/8694.got.cif
#   From: 2010.03.12/outbox.cif.g09.slc.cpg/sg72_5_cif.got.tgz:8694.got - 2010.04.16 14:54:00.
