data_PCOD8293763
_publ_section_title
;
Structure prediction by ZEFSAII (Michael W. Deem and Ramdas Pophale) SiO2 
 PCOD8293763
Probable space group: I B A M
;
_chemical_formula_sum "Si O2"
_cell_formula_units_Z 88
_cell_length_a 15.299050
_cell_length_b 9.439878
_cell_length_c 27.787535
_cell_angle_alpha 90.000000
_cell_angle_beta 90.000000
_cell_angle_gamma 90.000000
_cell_volume 4013.108192
_symmetry_space_group_name_H-M "I B A M"
_symmetry_group_IT_number 72
_symmetry_cell_setting 'orthorhombic'
loop_
_space_group_symop_operation_xyz
x,y,z
-x,-y,z
x,-y,1/2-z
-x,y,1/2-z
-x,-y,-z
x,y,-z
-x,y,1/2+z
x,-y,1/2+z
1/2+x,1/2+y,1/2+z
1/2-x,1/2-y,1/2+z
1/2+x,1/2-y,-z
1/2-x,1/2+y,-z
1/2-x,1/2-y,1/2-z
1/2+x,1/2+y,1/2-z
1/2-x,1/2+y,z
1/2+x,1/2-y,z
loop_
_atom_site_type_symbol
_atom_site_label
_atom_site_fract_x
_atom_site_fract_y
_atom_site_fract_z
Si Si1 0.346822 0.000000 0.250000
Si Si2 0.918853 0.676317 0.332235
Si Si3 0.433947 0.375980 0.357692
Si Si4 0.815039 0.462116 0.089135
Si Si5 0.672999 0.737587 0.553472
Si Si6 0.706031 0.566117 0.175670
O O1 0.412681 0.087885 0.216715
O O2 0.279378 0.085805 0.283782
O O3 0.901720 0.586066 0.381050
O O4 0.840039 0.785005 0.328476
O O5 0.014928 0.745191 0.333169
O O6 0.500000 0.500000 0.372387
O O7 0.392381 0.324646 0.407172
O O8 0.364401 0.436493 0.318038
O O9 0.770359 0.326554 0.063270
O O10 0.833864 0.590775 0.052571
O O11 0.748637 0.537660 0.124925
O O12 0.644301 0.688583 0.500000
#
# Coordination Sequence:
#
# PCOD8293763 Si02
#       6
#     8  16  16  16  16  16
#     4  10  20  32  69  97 116 160 218 266 298 377
#     4  10  19  38  61  89 126 163 210 258 319 379
#     4   9  21  40  63  87 132 174 201 258 339 390
#     4  10  20  37  64  91 123 162 207 263 319 371
#     4  11  22  39  64  94 123 162 217 266 317 388
#     4   9  18  37  63  90 121 166 204 252 316 386
#
# _framework density 21.928141
#
# number of rings (size 3 to 8) (size 9 to 14) (size 15 to 20)
#    0.000    2.182    1.818    1.091    0.000    1.091 
#    0.000    6.818    4.000    0.000    0.000    0.000 
#    0.000    0.000    0.000    0.000    0.000    0.000 
#
# Total GULP energy -545210.358022 kJ/mol
# GULP energy per Si atom -12391.144501 kJ/mol
# Density = 2.187823 g / cm^3
# Si number density = 21.928141 Si / 1000 Ang^3
#
#
#
# Elastic Constant Matrix: (Units=GPa)
#
#
# Indices 1 2 3 4 5 6 
#
# 1 71.9815 25.6576 29.3002 0.0000 0.0000 0.0000
# 2 25.6576 94.4196 37.7407 0.0000 0.0000 0.0000
# 3 29.3002 37.7407 108.6616 0.0000 0.0000 0.0000
# 4 0.0000 0.0000 0.0000 25.2045 0.0000 0.0000
# 5 0.0000 0.0000 0.0000 0.0000 -48.6138 0.0000
# 6 0.0000 0.0000 0.0000 0.0000 0.0000 35.4997
#
#
#
# Elastic Compliance Matrix: (Units=1/GPa)
#
#
# Indices 1 2 3 4 5 6 
#
# 1 0.016358 -0.003114 -0.003329 0.000000 0.000000 0.000000
# 2 -0.003114 0.012891 -0.003638 0.000000 0.000000 0.000000
# 3 -0.003329 -0.003638 0.011364 0.000000 0.000000 0.000000
# 4 0.000000 0.000000 0.000000 0.039675 0.000000 0.000000
# 5 0.000000 0.000000 0.000000 0.000000 -0.020570 0.000000
# 6 0.000000 0.000000 0.000000 0.000000 0.000000 0.028169
#
#
# Mechanical properties :
#
#
# Convention : Reuss Voigt Hill
#
# Bulk Modulus (GPa) = 48.89798 51.16221 50.03009
# Shear Modulus (GPa) = 43.52875 14.57570 29.05223
#
# Velocity S-wave (km/s) = 4.46024 2.58098 3.64384
# Velocity P-wave (km/s) = 6.99089 5.68017 6.36934
#
# Compressibility (1/GPa) = 0.02045074
#
# Stress axis : x y z
#
# Youngs Moduli (GPa) = 61.13340 77.57142 87.99705
#
# Poissons Ratio (x) = 0.24159 0.29295
# Poissons Ratio (y) = 0.19039 0.32011
# Poissons Ratio (z) = 0.20352 0.28218
#
# Static dielectric constant tensor:
#      x y z
#    x 3.984150 0.000000 0.000000 
#    y 0.000000 4.287230 0.000000 
#    z 0.000000 0.000000 3.811370 
# 
# 
# High freq. dielectric constant tensor:
#      x y z
#    x 1.855790 0.000000 0.000000 
#    y 0.000000 1.873690 0.000000 
#    z 0.000000 0.000000 1.847080 
# 
# From -- ./inp_files/52044.got.cif
#   From: 2010.03.12/outbox.cif.g09.slc.cpg/sg72_27_cif.got.tgz:52044.got - 2010.04.16 14:54:00.
