data_PCOD8293011
_publ_section_title
;
Structure prediction by ZEFSAII (Michael W. Deem and Ramdas Pophale) SiO2 
 PCOD8293011
Probable space group: I B A M
;
_chemical_formula_sum "Si O2"
_cell_formula_units_Z 80
_cell_length_a 24.164467
_cell_length_b 23.769879
_cell_length_c 8.692478
_cell_angle_alpha 90.000000
_cell_angle_beta 90.000000
_cell_angle_gamma 90.000000
_cell_volume 4992.841638
_symmetry_space_group_name_H-M "I B A M"
_symmetry_group_IT_number 72
_symmetry_cell_setting 'orthorhombic'
loop_
_space_group_symop_operation_xyz
x,y,z
-x,-y,z
x,-y,1/2-z
-x,y,1/2-z
-x,-y,-z
x,y,-z
-x,y,1/2+z
x,-y,1/2+z
1/2+x,1/2+y,1/2+z
1/2-x,1/2-y,1/2+z
1/2+x,1/2-y,-z
1/2-x,1/2+y,-z
1/2-x,1/2-y,1/2-z
1/2+x,1/2+y,1/2-z
1/2-x,1/2+y,z
1/2+x,1/2-y,z
loop_
_atom_site_type_symbol
_atom_site_label
_atom_site_fract_x
_atom_site_fract_y
_atom_site_fract_z
Si Si1 0.234319 0.335782 0.681149
Si Si2 0.558163 0.889341 0.317032
Si Si3 0.834513 0.441331 0.183268
Si Si4 0.172183 0.774758 0.179122
Si Si5 0.443775 0.232746 0.819141
O O1 0.234351 0.337146 0.500000
O O2 0.208410 0.393827 0.742873
O O3 0.196960 0.284077 0.742804
O O4 0.297389 0.327369 0.739733
O O5 0.500000 0.911157 0.250000
O O6 0.557100 0.891594 0.500000
O O7 0.605113 0.930031 0.252195
O O8 0.569724 0.826054 0.261591
O O9 0.812169 0.500000 0.250000
O O10 0.838303 0.442925 0.000000
O O11 0.106517 0.775799 0.214449
O O12 0.183986 0.779945 0.000000
O O13 0.500000 0.259407 0.750000
O O14 0.450590 0.221281 0.000000
#
# Coordination Sequence:
#
# PCOD8293011 Si02
#       5
#    16  16  16  16  16
#     4   9  18  32  48  67  93 120 152 194 233 275
#     4  11  21  33  49  67  89 123 161 200 239 278
#     4  11  22  37  51  68  93 121 158 201 239 277
#     4   9  17  30  48  69  94 121 152 191 231 277
#     4  10  18  30  46  69  98 126 155 194 233 275
#
# _framework density 16.022939999999998
#
# number of rings (size 3 to 8) (size 9 to 14) (size 15 to 20)
#    0.000    2.000    2.000    4.200    0.000    3.600 
#    0.000    2.000    0.000    0.000    0.000    0.000 
#    0.000    0.800    0.000    8.800    0.000    6.400 
#
# Total GULP energy -495954.658025 kJ/mol
# GULP energy per Si atom -12398.866451 kJ/mol
# Density = 1.598647 g / cm^3
# Si number density = 16.022940 Si / 1000 Ang^3
#
#
#
# Elastic Constant Matrix: (Units=GPa)
#
#
# Indices 1 2 3 4 5 6 
#
# 1 105.7228 62.0089 33.9369 0.0000 0.0000 0.0000
# 2 62.0089 85.0278 32.5609 0.0000 0.0000 0.0000
# 3 33.9369 32.5609 74.1737 0.0000 0.0000 0.0000
# 4 0.0000 0.0000 0.0000 22.1084 0.0000 0.0000
# 5 0.0000 0.0000 0.0000 0.0000 28.5246 0.0000
# 6 0.0000 0.0000 0.0000 0.0000 0.0000 22.3900
#
#
#
# Elastic Compliance Matrix: (Units=1/GPa)
#
#
# Indices 1 2 3 4 5 6 
#
# 1 0.017002 -0.011324 -0.002808 0.000000 0.000000 0.000000
# 2 -0.011324 0.021679 -0.004336 0.000000 0.000000 0.000000
# 3 -0.002808 -0.004336 0.016670 0.000000 0.000000 0.000000
# 4 0.000000 0.000000 0.000000 0.045232 0.000000 0.000000
# 5 0.000000 0.000000 0.000000 0.000000 0.035057 0.000000
# 6 0.000000 0.000000 0.000000 0.000000 0.000000 0.044663
#
#
# Mechanical properties :
#
#
# Convention : Reuss Voigt Hill
#
# Bulk Modulus (GPa) = 54.30058 57.99306 56.14682
# Shear Modulus (GPa) = 22.38375 23.69912 23.04143
#
# Velocity S-wave (km/s) = 3.74168 3.85005 3.79625
# Velocity P-wave (km/s) = 7.25463 7.48573 7.37109
#
# Compressibility (1/GPa) = 0.01841601
#
# Stress axis : x y z
#
# Youngs Moduli (GPa) = 58.81804 46.12690 59.98813
#
# Poissons Ratio (x) = 0.52232 0.16844
# Poissons Ratio (y) = 0.66603 0.26010
# Poissons Ratio (z) = 0.16516 0.20000
#
# Static dielectric constant tensor:
#      x y z
#    x 3.301070 0.000000 0.000000 
#    y 0.000000 2.866580 0.000000 
#    z 0.000000 0.000000 3.067730 
# 
# 
# High freq. dielectric constant tensor:
#      x y z
#    x 1.614780 0.000000 0.000000 
#    y 0.000000 1.571840 0.000000 
#    z 0.000000 0.000000 1.626540 
# 
# From -- ./inp_files/7918.got.cif
#   From: 2010.03.12/outbox.cif.g09.slc.cpg/sg72_4_cif.got.tgz:7918.got - 2010.04.16 14:54:00.
