data_PCOD8293012
_publ_section_title
;
Structure prediction by ZEFSAII (Michael W. Deem and Ramdas Pophale) SiO2 
 PCOD8293012
Probable space group: I B A M
;
_chemical_formula_sum "Si O2"
_cell_formula_units_Z 80
_cell_length_a 18.686598
_cell_length_b 26.895196
_cell_length_c 8.558591
_cell_angle_alpha 90.000000
_cell_angle_beta 90.000000
_cell_angle_gamma 90.000000
_cell_volume 4301.374232
_symmetry_space_group_name_H-M "I B A M"
_symmetry_group_IT_number 72
_symmetry_cell_setting 'orthorhombic'
loop_
_space_group_symop_operation_xyz
x,y,z
-x,-y,z
x,-y,1/2-z
-x,y,1/2-z
-x,-y,-z
x,y,-z
-x,y,1/2+z
x,-y,1/2+z
1/2+x,1/2+y,1/2+z
1/2-x,1/2-y,1/2+z
1/2+x,1/2-y,-z
1/2-x,1/2+y,-z
1/2-x,1/2-y,1/2-z
1/2+x,1/2+y,1/2-z
1/2-x,1/2+y,z
1/2+x,1/2-y,z
loop_
_atom_site_type_symbol
_atom_site_label
_atom_site_fract_x
_atom_site_fract_y
_atom_site_fract_z
Si Si1 0.286680 0.701121 0.814712
Si Si2 0.217156 0.600735 0.184405
Si Si3 0.638551 0.553075 0.685152
Si Si4 0.927236 0.555060 0.314322
Si Si5 0.075959 0.152390 0.685048
O O1 0.250000 0.750000 0.750000
O O2 0.235922 0.656014 0.758857
O O3 0.365356 0.692002 0.744771
O O4 0.293679 0.703679 0.000000
O O5 0.279422 0.562803 0.239134
O O6 0.140505 0.585221 0.254393
O O7 0.212484 0.599182 0.000000
O O8 0.612817 0.500000 0.750000
O O9 0.630369 0.554203 0.500000
O O10 0.589459 0.596581 0.753900
O O11 0.920987 0.500000 0.250000
O O12 0.928857 0.554210 0.500000
O O13 0.000000 0.580386 0.250000
O O14 0.075606 0.152244 0.500000
O O15 0.000000 0.170964 0.750000
#
# Coordination Sequence:
#
# PCOD8293012 Si02
#       5
#    16  16  16  16  16
#     4  10  20  38  60  83 107 137 176 221 269 320
#     4   8  17  32  51  72 101 135 173 218 262 307
#     4  10  19  33  52  78 108 142 180 220 263 316
#     4  10  18  30  46  69  99 135 170 208 253 302
#     4  11  22  38  58  82 110 143 178 219 267 319
#
# _framework density 18.598707000000001
#
# number of rings (size 3 to 8) (size 9 to 14) (size 15 to 20)
#    0.000    2.200    0.000    6.000    0.000    0.400 
#    0.000   14.000    0.000    2.400    0.000    0.000 
#    0.000    0.000    0.000    0.000    0.000    0.000 
#
# Total GULP energy -495935.783339 kJ/mol
# GULP energy per Si atom -12398.394583 kJ/mol
# Density = 1.855638 g / cm^3
# Si number density = 18.598707 Si / 1000 Ang^3
#
#
#
# Elastic Constant Matrix: (Units=GPa)
#
#
# Indices 1 2 3 4 5 6 
#
# 1 159.7645 56.8456 47.5082 0.0000 0.0000 0.0000
# 2 56.8456 104.4331 38.4365 0.0000 0.0000 0.0000
# 3 47.5082 38.4365 110.4643 0.0000 0.0000 0.0000
# 4 0.0000 0.0000 0.0000 28.7894 0.0000 0.0000
# 5 0.0000 0.0000 0.0000 0.0000 28.1775 0.0000
# 6 0.0000 0.0000 0.0000 0.0000 0.0000 18.4760
#
#
#
# Elastic Compliance Matrix: (Units=1/GPa)
#
#
# Indices 1 2 3 4 5 6 
#
# 1 0.008232 -0.003644 -0.002272 0.000000 0.000000 0.000000
# 2 -0.003644 0.012595 -0.002815 0.000000 0.000000 0.000000
# 3 -0.002272 -0.002815 0.011009 0.000000 0.000000 0.000000
# 4 0.000000 0.000000 0.000000 0.034735 0.000000 0.000000
# 5 0.000000 0.000000 0.000000 0.000000 0.035489 0.000000
# 6 0.000000 0.000000 0.000000 0.000000 0.000000 0.054124
#
#
# Mechanical properties :
#
#
# Convention : Reuss Voigt Hill
#
# Bulk Modulus (GPa) = 69.57545 73.36029 71.46787
# Shear Modulus (GPa) = 28.02068 30.54667 29.28368
#
# Velocity S-wave (km/s) = 3.88570 4.05706 3.97230
# Velocity P-wave (km/s) = 7.59088 7.84064 7.71677
#
# Compressibility (1/GPa) = 0.01437289
#
# Stress axis : x y z
#
# Youngs Moduli (GPa) = 121.48349 79.39406 90.83090
#
# Poissons Ratio (x) = 0.28934 0.20638
# Poissons Ratio (y) = 0.44273 0.25571
# Poissons Ratio (z) = 0.27603 0.22351
#
# Static dielectric constant tensor:
#      x y z
#    x 3.939690 0.000000 0.000000 
#    y 0.000000 3.177860 0.000000 
#    z 0.000000 0.000000 3.356570 
# 
# 
# High freq. dielectric constant tensor:
#      x y z
#    x 1.733000 0.000000 0.000000 
#    y 0.000000 1.703210 0.000000 
#    z 0.000000 0.000000 1.722810 
# 
# From -- ./inp_files/4797.got.cif
#   From: 2010.03.12/outbox.cif.g09.slc.cpg/sg72_3_cif.got.tgz:4797.got - 2010.04.16 14:54:00.
