data_PCOD8293743
_publ_section_title
;
Structure prediction by ZEFSAII (Michael W. Deem and Ramdas Pophale) SiO2 
 PCOD8293743
Probable space group: I B A M
;
_chemical_formula_sum "Si O2"
_cell_formula_units_Z 80
_cell_length_a 25.489489
_cell_length_b 11.232971
_cell_length_c 14.359226
_cell_angle_alpha 90.000000
_cell_angle_beta 90.000000
_cell_angle_gamma 90.000000
_cell_volume 4111.372225
_symmetry_space_group_name_H-M "I B A M"
_symmetry_group_IT_number 72
_symmetry_cell_setting 'orthorhombic'
loop_
_space_group_symop_operation_xyz
x,y,z
-x,-y,z
x,-y,1/2-z
-x,y,1/2-z
-x,-y,-z
x,y,-z
-x,y,1/2+z
x,-y,1/2+z
1/2+x,1/2+y,1/2+z
1/2-x,1/2-y,1/2+z
1/2+x,1/2-y,-z
1/2-x,1/2+y,-z
1/2-x,1/2-y,1/2-z
1/2+x,1/2+y,1/2-z
1/2-x,1/2+y,z
1/2+x,1/2-y,z
loop_
_atom_site_type_symbol
_atom_site_label
_atom_site_fract_x
_atom_site_fract_y
_atom_site_fract_z
Si Si1 0.028119 0.322741 0.000000
Si Si2 0.784782 0.888528 0.316271
Si Si3 0.326380 0.221992 0.330353
Si Si4 0.346168 0.404196 0.000000
Si Si5 0.879313 0.151576 0.500000
Si Si6 0.415289 0.031260 0.650919
Si Si7 0.091909 0.661007 0.000000
O O1 0.040967 0.399684 0.091603
O O2 0.062161 0.203741 0.000000
O O3 0.967414 0.290030 0.000000
O O4 0.732152 0.823057 0.349211
O O5 0.824882 0.797895 0.264959
O O6 0.811640 0.930936 0.409992
O O7 0.771197 0.000000 0.250000
O O8 0.345810 0.307819 0.411640
O O9 0.364612 0.109602 0.324268
O O10 0.389205 0.509742 0.000000
O O11 0.370281 0.273546 0.000000
O O12 0.441513 0.000000 0.750000
O O13 0.396447 0.916290 0.592381
#
# Coordination Sequence:
#
# PCOD8293743 Si02
#       7
#     8  16  16   8   8  16   8
#     4   9  22  38  60  85 114 151 193 247 298 350
#     4  11  22  38  59  87 122 155 197 235 287 349
#     4  10  21  38  59  89 119 156 191 237 288 348
#     4  12  24  38  58  85 117 160 196 248 280 348
#     4  10  20  41  60  83 118 156 196 235 295 344
#     4  10  19  37  62  86 118 150 187 242 297 349
#     4  11  24  39  56  91 117 147 202 245 298 344
#
# _framework density 19.458224000000001
#
# number of rings (size 3 to 8) (size 9 to 14) (size 15 to 20)
#    0.000    1.600    2.000    4.200    0.000    3.600 
#    3.600    0.000    0.000    0.000    0.000    0.000 
#    0.000    0.000    0.000    0.000    0.000    0.000 
#
# Total GULP energy -495985.632857 kJ/mol
# GULP energy per Si atom -12399.640821 kJ/mol
# Density = 1.941394 g / cm^3
# Si number density = 19.458224 Si / 1000 Ang^3
#
#
#
# Elastic Constant Matrix: (Units=GPa)
#
#
# Indices 1 2 3 4 5 6 
#
# 1 55.3705 9.1772 17.8734 0.0000 0.0000 0.0000
# 2 9.1772 99.9260 24.9743 0.0000 0.0000 0.0000
# 3 17.8734 24.9743 121.9609 0.0000 0.0000 0.0000
# 4 0.0000 0.0000 0.0000 -66.4423 0.0000 0.0000
# 5 0.0000 0.0000 0.0000 0.0000 11.9245 0.0000
# 6 0.0000 0.0000 0.0000 0.0000 0.0000 19.1581
#
#
#
# Elastic Compliance Matrix: (Units=1/GPa)
#
#
# Indices 1 2 3 4 5 6 
#
# 1 0.019073 -0.001110 -0.002568 0.000000 0.000000 0.000000
# 2 -0.001110 0.010612 -0.002010 0.000000 0.000000 0.000000
# 3 -0.002568 -0.002010 0.008987 0.000000 0.000000 0.000000
# 4 0.000000 0.000000 0.000000 -0.015051 0.000000 0.000000
# 5 0.000000 0.000000 0.000000 0.000000 0.083861 0.000000
# 6 0.000000 0.000000 0.000000 0.000000 0.000000 0.052197
#
#
# Mechanical properties :
#
#
# Convention : Reuss Voigt Hill
#
# Bulk Modulus (GPa) = 36.63552 42.36746 39.50149
# Shear Modulus (GPa) = 27.75397 7.94357 17.84877
#
# Velocity S-wave (km/s) = 3.78078 2.02268 3.03196
# Velocity P-wave (km/s) = 6.15855 5.22262 5.70980
#
# Compressibility (1/GPa) = 0.02729591
#
# Stress axis : x y z
#
# Youngs Moduli (GPa) = 52.43010 94.23491 111.26761
#
# Poissons Ratio (x) = 0.10459 0.28572
# Poissons Ratio (y) = 0.05819 0.22369
# Poissons Ratio (z) = 0.13463 0.18945
#
# Static dielectric constant tensor:
#      x y z
#    x 3.286730 0.000000 0.000000 
#    y 0.000000 3.621630 0.000000 
#    z 0.000000 0.000000 3.799990 
# 
# 
# High freq. dielectric constant tensor:
#      x y z
#    x 1.743300 0.000000 0.000000 
#    y 0.000000 1.764090 0.000000 
#    z 0.000000 0.000000 1.772300 
# 
# From -- ./inp_files/20264.got.cif
#   From: 2010.03.12/outbox.cif.g09.slc.cpg/sg72_11_cif.got.tgz:20264.got - 2010.04.16 14:54:00.
