data_PCOD8293134
_publ_section_title
;
Structure prediction by ZEFSAII (Michael W. Deem and Ramdas Pophale) SiO2 
 PCOD8293134
Probable space group: I B A M
;
_chemical_formula_sum "Si O2"
_cell_formula_units_Z 112
_cell_length_a 25.400603
_cell_length_b 12.608150
_cell_length_c 17.282870
_cell_angle_alpha 90.000000
_cell_angle_beta 90.000000
_cell_angle_gamma 90.000000
_cell_volume 5534.918838
_symmetry_space_group_name_H-M "I B A M"
_symmetry_group_IT_number 72
_symmetry_cell_setting 'orthorhombic'
loop_
_space_group_symop_operation_xyz
x,y,z
-x,-y,z
x,-y,1/2-z
-x,y,1/2-z
-x,-y,-z
x,y,-z
-x,y,1/2+z
x,-y,1/2+z
1/2+x,1/2+y,1/2+z
1/2-x,1/2-y,1/2+z
1/2+x,1/2-y,-z
1/2-x,1/2+y,-z
1/2-x,1/2-y,1/2-z
1/2+x,1/2+y,1/2-z
1/2-x,1/2+y,z
1/2+x,1/2-y,z
loop_
_atom_site_type_symbol
_atom_site_label
_atom_site_fract_x
_atom_site_fract_y
_atom_site_fract_z
Si Si1 0.309889 0.695678 0.666757
Si Si2 0.390281 0.127546 0.839828
Si Si3 0.889823 0.392228 0.655941
Si Si4 0.959910 0.094793 0.586417
Si Si5 0.695965 0.274174 0.848369
Si Si6 0.502989 0.197323 0.159441
Si Si7 0.653701 0.519084 0.410353
O O1 0.348221 0.785806 0.631756
O O2 0.311524 0.696093 0.759076
O O3 0.251664 0.719075 0.635677
O O4 0.327727 0.580650 0.639192
O O5 0.390898 0.122519 0.747671
O O6 0.447128 0.159890 0.875484
O O7 0.373693 0.010845 0.870177
O O8 0.848493 0.307938 0.621374
O O9 0.948743 0.370637 0.623850
O O10 0.952305 0.142174 0.500000
O O11 0.903992 0.054762 0.619240
O O12 0.985333 0.180338 0.642983
O O13 0.000000 0.000000 0.584149
O O14 0.693075 0.382455 0.897154
O O15 0.500000 0.178810 0.250000
O O16 0.652670 0.486315 0.500000
#
# Coordination Sequence:
#
# PCOD8293134 Si02
#       7
#    16  16  16  16  16  16  16
#     4  10  22  37  60  87 115 150 195 246 293 346
#     4   9  18  31  54  84 114 146 185 236 292 340
#     4   9  17  32  53  83 114 146 186 234 292 345
#     4  10  21  37  55  78 115 158 192 230 286 348
#     4  10  21  38  60  86 115 149 195 248 294 346
#     4  10  18  32  54  84 114 144 187 238 284 339
#     4  11  23  40  61  84 119 159 195 240 292 353
#
# _framework density 20.235167000000001
#
# number of rings (size 3 to 8) (size 9 to 14) (size 15 to 20)
#    0.000    2.143    1.429    1.714    2.000    2.571 
#    2.571    0.000    0.000    3.429    0.000    0.000 
#    0.000    0.000    0.000    0.000    0.000    0.000 
#
# Total GULP energy -694368.630701 kJ/mol
# GULP energy per Si atom -12399.439834 kJ/mol
# Density = 2.018911 g / cm^3
# Si number density = 20.235167 Si / 1000 Ang^3
#
#
#
# Elastic Constant Matrix: (Units=GPa)
#
#
# Indices 1 2 3 4 5 6 
#
# 1 142.4674 70.4978 18.2883 0.0000 0.0000 0.0000
# 2 70.4978 160.7888 13.7013 0.0000 0.0000 0.0000
# 3 18.2883 13.7013 11.3676 0.0000 0.0000 0.0000
# 4 0.0000 0.0000 0.0000 10.2618 0.0000 0.0000
# 5 0.0000 0.0000 0.0000 0.0000 12.1559 0.0000
# 6 0.0000 0.0000 0.0000 0.0000 0.0000 32.9130
#
#
#
# Elastic Compliance Matrix: (Units=1/GPa)
#
#
# Indices 1 2 3 4 5 6 
#
# 1 0.010334 -0.003471 -0.012442 0.000000 0.000000 0.000000
# 2 -0.003471 0.008097 -0.004176 0.000000 0.000000 0.000000
# 3 -0.012442 -0.004176 0.113019 0.000000 0.000000 0.000000
# 4 0.000000 0.000000 0.000000 0.097449 0.000000 0.000000
# 5 0.000000 0.000000 0.000000 0.000000 0.082264 0.000000
# 6 0.000000 0.000000 0.000000 0.000000 0.000000 0.030383
#
#
# Mechanical properties :
#
#
# Convention : Reuss Voigt Hill
#
# Bulk Modulus (GPa) = 10.95611 57.73318 34.34464
# Shear Modulus (GPa) = 12.13164 25.20858 18.67011
#
# Velocity S-wave (km/s) = 2.45119 3.53339 3.04082
# Velocity P-wave (km/s) = 3.66569 6.72603 5.41649
#
# Compressibility (1/GPa) = 0.09127327
#
# Stress axis : x y z
#
# Youngs Moduli (GPa) = 96.77131 123.50516 8.84809
#
# Poissons Ratio (x) = 0.42863 0.11009
# Poissons Ratio (y) = 0.33585 0.03695
# Poissons Ratio (z) = 1.20401 0.51571
#
# Static dielectric constant tensor:
#      x y z
#    x 3.976750 0.000000 0.000000 
#    y 0.000000 3.743450 0.000000 
#    z 0.000000 0.000000 3.318470 
# 
# 
# High freq. dielectric constant tensor:
#      x y z
#    x 1.803770 0.000000 0.000000 
#    y 0.000000 1.802340 0.000000 
#    z 0.000000 0.000000 1.741560 
# 
# From -- ./inp_files/40339.got.cif
#   From: 2010.03.12/outbox.cif.g09.slc.cpg/sg72_21_cif.got.tgz:40339.got - 2010.04.16 14:54:00.
