data_PCOD8293964
_publ_section_title
;
Structure prediction by ZEFSAII (Michael W. Deem and Ramdas Pophale) SiO2 
 PCOD8293964
Probable space group: I B A M
;
_chemical_formula_sum "Si O2"
_cell_formula_units_Z 72
_cell_length_a 14.152050
_cell_length_b 9.208265
_cell_length_c 28.351757
_cell_angle_alpha 90.000000
_cell_angle_beta 90.000000
_cell_angle_gamma 90.000000
_cell_volume 3694.682652
_symmetry_space_group_name_H-M "I B A M"
_symmetry_group_IT_number 72
_symmetry_cell_setting 'orthorhombic'
loop_
_space_group_symop_operation_xyz
x,y,z
-x,-y,z
x,-y,1/2-z
-x,y,1/2-z
-x,-y,-z
x,y,-z
-x,y,1/2+z
x,-y,1/2+z
1/2+x,1/2+y,1/2+z
1/2-x,1/2-y,1/2+z
1/2+x,1/2-y,-z
1/2-x,1/2+y,-z
1/2-x,1/2-y,1/2-z
1/2+x,1/2+y,1/2-z
1/2-x,1/2+y,z
1/2+x,1/2-y,z
loop_
_atom_site_type_symbol
_atom_site_label
_atom_site_fract_x
_atom_site_fract_y
_atom_site_fract_z
Si Si1 0.525556 0.836882 0.381547
Si Si2 0.319381 0.222128 0.897260
Si Si3 0.254548 0.500000 0.250000
Si Si4 0.319900 0.750406 0.187656
Si Si5 0.184493 0.420827 0.945779
O O1 0.430871 0.745639 0.392140
O O2 0.581226 0.756800 0.339749
O O3 0.589674 0.837431 0.428940
O O4 0.500000 0.000000 0.365586
O O5 0.268982 0.251682 0.847666
O O6 0.277098 0.322738 0.938506
O O7 0.301700 0.057566 0.912159
O O8 0.320738 0.601672 0.217500
O O9 0.187405 0.606233 0.280100
O O10 0.173531 0.465473 0.000000
#
# Coordination Sequence:
#
# PCOD8293964 Si02
#       5
#    16  16   8  16  16
#     4   9  19  35  57  79 107 145 182 221 270 327
#     4  10  20  37  57  77 110 147 177 221 275 323
#     4  10  20  36  60  82 110 142 180 236 272 324
#     4  10  20  38  57  81 111 144 184 224 279 329
#     4  10  20  34  56  84 109 141 184 223 263 318
#
# _framework density 19.487463999999999
#
# number of rings (size 3 to 8) (size 9 to 14) (size 15 to 20)
#    0.000    2.222    0.000    4.667    0.000    4.889 
#    0.000   21.667    0.000    6.667    0.000    0.000 
#    0.000    0.000    0.000    0.000    0.000    0.000 
#
# Total GULP energy -446422.236856 kJ/mol
# GULP energy per Si atom -12400.617690 kJ/mol
# Density = 1.944311 g / cm^3
# Si number density = 19.487464 Si / 1000 Ang^3
#
#
#
# Elastic Constant Matrix: (Units=GPa)
#
#
# Indices 1 2 3 4 5 6 
#
# 1 150.7865 47.2190 44.4542 0.0000 0.0000 0.0000
# 2 47.2190 77.1980 35.2926 0.0000 0.0000 0.0000
# 3 44.4542 35.2926 106.2930 0.0000 0.0000 0.0000
# 4 0.0000 0.0000 0.0000 30.4802 0.0000 0.0000
# 5 0.0000 0.0000 0.0000 0.0000 15.8211 0.0000
# 6 0.0000 0.0000 0.0000 0.0000 0.0000 29.4471
#
#
#
# Elastic Compliance Matrix: (Units=1/GPa)
#
#
# Indices 1 2 3 4 5 6 
#
# 1 0.008613 -0.004269 -0.002185 0.000000 0.000000 0.000000
# 2 -0.004269 0.017388 -0.003988 0.000000 0.000000 0.000000
# 3 -0.002185 -0.003988 0.011646 0.000000 0.000000 0.000000
# 4 0.000000 0.000000 0.000000 0.032808 0.000000 0.000000
# 5 0.000000 0.000000 0.000000 0.000000 0.063207 0.000000
# 6 0.000000 0.000000 0.000000 0.000000 0.000000 0.033959
#
#
# Mechanical properties :
#
#
# Convention : Reuss Voigt Hill
#
# Bulk Modulus (GPa) = 59.65461 65.35655 62.50558
# Shear Modulus (GPa) = 25.76092 28.97047 27.36570
#
# Velocity S-wave (km/s) = 3.63977 3.85986 3.75143
# Velocity P-wave (km/s) = 6.95285 7.31267 7.13503
#
# Compressibility (1/GPa) = 0.01676316
#
# Stress axis : x y z
#
# Youngs Moduli (GPa) = 116.10465 57.50988 85.86887
#
# Poissons Ratio (x) = 0.24554 0.18758
# Poissons Ratio (y) = 0.49571 0.34243
# Poissons Ratio (z) = 0.25363 0.22934
#
# Static dielectric constant tensor:
#      x y z
#    x 3.617720 0.000000 0.000000 
#    y 0.000000 3.537550 0.000000 
#    z 0.000000 0.000000 3.553920 
# 
# 
# High freq. dielectric constant tensor:
#      x y z
#    x 1.751690 0.000000 0.000000 
#    y 0.000000 1.754290 0.000000 
#    z 0.000000 0.000000 1.762110 
# 
# From -- ./inp_files/47028.got.cif
#   From: 2010.03.12/outbox.cif.g09.slc.cpg/sg72_24_cif.got.tgz:47028.got - 2010.04.16 14:54:00.
