data_PCOD8293360
_publ_section_title
;
Structure prediction by ZEFSAII (Michael W. Deem and Ramdas Pophale) SiO2 
 PCOD8293360
Probable space group: I B A M
;
_chemical_formula_sum "Si O2"
_cell_formula_units_Z 96
_cell_length_a 28.464971
_cell_length_b 26.481038
_cell_length_c 8.648465
_cell_angle_alpha 90.000000
_cell_angle_beta 90.000000
_cell_angle_gamma 90.000000
_cell_volume 6519.057061
_symmetry_space_group_name_H-M "I B A M"
_symmetry_group_IT_number 72
_symmetry_cell_setting 'orthorhombic'
loop_
_space_group_symop_operation_xyz
x,y,z
-x,-y,z
x,-y,1/2-z
-x,y,1/2-z
-x,-y,-z
x,y,-z
-x,y,1/2+z
x,-y,1/2+z
1/2+x,1/2+y,1/2+z
1/2-x,1/2-y,1/2+z
1/2+x,1/2-y,-z
1/2-x,1/2+y,-z
1/2-x,1/2-y,1/2-z
1/2+x,1/2+y,1/2-z
1/2-x,1/2+y,z
1/2+x,1/2-y,z
loop_
_atom_site_type_symbol
_atom_site_label
_atom_site_fract_x
_atom_site_fract_y
_atom_site_fract_z
Si Si1 0.197574 0.641976 0.819921
Si Si2 0.726251 0.298780 0.319538
Si Si3 0.049250 0.401190 0.316679
Si Si4 0.640696 0.947472 0.317698
Si Si5 0.548038 0.791359 0.319078
Si Si6 0.862117 0.258469 0.822560
O O1 0.251620 0.652545 0.766718
O O2 0.178408 0.595089 0.723908
O O3 0.166406 0.690877 0.779876
O O4 0.196297 0.628699 0.000000
O O5 0.737899 0.302301 0.500000
O O6 0.750000 0.250000 0.250000
O O7 0.670152 0.291334 0.292536
O O8 0.047633 0.401724 0.500000
O O9 0.090263 0.437225 0.258380
O O10 0.059379 0.344629 0.260219
O O11 0.000000 0.421461 0.250000
O O12 0.634694 0.950634 0.500000
O O13 0.659925 0.000000 0.250000
O O14 0.500000 0.768162 0.250000
O O15 0.541919 0.799600 0.500000
O O16 0.591418 0.754047 0.282865
O O17 0.878072 0.260763 0.000000
#
# Coordination Sequence:
#
# PCOD8293360 Si02
#       6
#    16  16  16  16  16  16
#     4  10  19  32  48  65  87 110 136 175 216 259
#     4   9  17  28  44  65  88 111 137 170 211 255
#     4  11  21  35  50  64  82 105 139 179 223 266
#     4  12  24  37  51  66  83 108 141 178 224 268
#     4  11  20  29  44  63  85 114 145 177 216 258
#     4   9  17  29  45  64  88 112 139 173 211 253
#
# _framework density 14.726056
#
# number of rings (size 3 to 8) (size 9 to 14) (size 15 to 20)
#    0.000    1.667    1.667    7.500    0.000    3.667 
#    0.000    1.667    0.000    0.000    0.000    0.000 
#    0.000    0.000    0.000    0.000    0.000    0.833 
#
# Total GULP energy -595121.704727 kJ/mol
# GULP energy per Si atom -12398.368848 kJ/mol
# Density = 1.469254 g / cm^3
# Si number density = 14.726056 Si / 1000 Ang^3
#
#
#
# Elastic Constant Matrix: (Units=GPa)
#
#
# Indices 1 2 3 4 5 6 
#
# 1 82.8904 41.5392 42.3252 0.0000 0.0000 0.0000
# 2 41.5392 46.2033 26.7786 0.0000 0.0000 0.0000
# 3 42.3252 26.7786 115.7139 0.0000 0.0000 0.0000
# 4 0.0000 0.0000 0.0000 19.3981 0.0000 0.0000
# 5 0.0000 0.0000 0.0000 0.0000 26.7926 0.0000
# 6 0.0000 0.0000 0.0000 0.0000 0.0000 19.3579
#
#
#
# Elastic Compliance Matrix: (Units=1/GPa)
#
#
# Indices 1 2 3 4 5 6 
#
# 1 0.023685 -0.018794 -0.004314 0.000000 0.000000 0.000000
# 2 -0.018794 0.039909 -0.002361 0.000000 0.000000 0.000000
# 3 -0.004314 -0.002361 0.010766 0.000000 0.000000 0.000000
# 4 0.000000 0.000000 0.000000 0.051551 0.000000 0.000000
# 5 0.000000 0.000000 0.000000 0.000000 0.037324 0.000000
# 6 0.000000 0.000000 0.000000 0.000000 0.000000 0.051658
#
#
# Mechanical properties :
#
#
# Convention : Reuss Voigt Hill
#
# Bulk Modulus (GPa) = 42.69555 51.78819 47.24187
# Shear Modulus (GPa) = 18.27217 22.05404 20.16310
#
# Velocity S-wave (km/s) = 3.52633 3.87411 3.70430
# Velocity P-wave (km/s) = 6.75545 7.43342 7.10253
#
# Compressibility (1/GPa) = 0.02342165
#
# Stress axis : x y z
#
# Youngs Moduli (GPa) = 42.22038 25.05715 92.88075
#
# Poissons Ratio (x) = 0.47092 0.40070
# Poissons Ratio (y) = 0.79348 0.21933
# Poissons Ratio (z) = 0.18215 0.05917
#
# Static dielectric constant tensor:
#      x y z
#    x 3.156400 0.000000 0.000000 
#    y 0.000000 2.655240 0.000000 
#    z 0.000000 0.000000 3.047240 
# 
# 
# High freq. dielectric constant tensor:
#      x y z
#    x 1.558900 0.000000 0.000000 
#    y 0.000000 1.508150 0.000000 
#    z 0.000000 0.000000 1.585620 
# 
# From -- ./inp_files/8460.got.cif
#   From: 2010.03.12/outbox.cif.g09.slc.cpg/sg72_5_cif.got.tgz:8460.got - 2010.04.16 14:54:00.
