data_PCOD8293976
_publ_section_title
;
Structure prediction by ZEFSAII (Michael W. Deem and Ramdas Pophale) SiO2 
 PCOD8293976
Probable space group: I B A M
;
_chemical_formula_sum "Si O2"
_cell_formula_units_Z 112
_cell_length_a 19.144667
_cell_length_b 17.364904
_cell_length_c 19.202007
_cell_angle_alpha 90.000000
_cell_angle_beta 90.000000
_cell_angle_gamma 90.000000
_cell_volume 6383.617065
_symmetry_space_group_name_H-M "I B A M"
_symmetry_group_IT_number 72
_symmetry_cell_setting 'orthorhombic'
loop_
_space_group_symop_operation_xyz
x,y,z
-x,-y,z
x,-y,1/2-z
-x,y,1/2-z
-x,-y,-z
x,y,-z
-x,y,1/2+z
x,-y,1/2+z
1/2+x,1/2+y,1/2+z
1/2-x,1/2-y,1/2+z
1/2+x,1/2-y,-z
1/2-x,1/2+y,-z
1/2-x,1/2-y,1/2-z
1/2+x,1/2+y,1/2-z
1/2-x,1/2+y,z
1/2+x,1/2-y,z
loop_
_atom_site_type_symbol
_atom_site_label
_atom_site_fract_x
_atom_site_fract_y
_atom_site_fract_z
Si Si1 0.268387 0.909130 0.420505
Si Si2 0.248710 0.700068 0.319940
Si Si3 0.185633 0.542741 0.319930
Si Si4 0.510278 0.777783 0.422236
Si Si5 0.970458 0.579239 0.171848
Si Si6 0.653633 0.290168 0.080616
Si Si7 0.853200 0.258518 0.077843
O O1 0.268961 0.936517 0.500000
O O2 0.192202 0.871337 0.401451
O O3 0.330196 0.847062 0.406236
O O4 0.281295 0.985327 0.376055
O O5 0.250000 0.750000 0.250000
O O6 0.240043 0.610456 0.302514
O O7 0.186208 0.724818 0.370775
O O8 0.320610 0.705702 0.362397
O O9 0.168096 0.500000 0.250000
O O10 0.112164 0.579473 0.341100
O O11 0.524766 0.809766 0.500000
O O12 0.502820 0.848094 0.370090
O O13 0.570048 0.713663 0.403957
O O14 0.434755 0.738894 0.418590
O O15 0.000000 0.500000 0.139564
O O16 0.000000 0.588400 0.250000
O O17 0.669462 0.270726 0.000000
O O18 0.825300 0.238259 0.000000
#
# Coordination Sequence:
#
# PCOD8293976 Si02
#       7
#    16  16  16  16  16  16  16
#     4   9  19  34  55  77 108 144 177 226 277 322
#     4  11  22  34  54  77 104 144 187 225 266 321
#     4  12  22  35  51  78 108 146 182 220 269 327
#     4  10  20  34  57  81 105 141 181 221 271 327
#     4  11  22  34  50  73 115 148 174 213 268 326
#     4   9  18  36  55  78 105 138 184 228 267 321
#     4   9  19  36  55  79 109 138 175 227 275 324
#
# _framework density 17.544912
#
# number of rings (size 3 to 8) (size 9 to 14) (size 15 to 20)
#    0.000    1.857    2.857    3.857    2.000    2.000 
#    0.000    0.000    0.000    0.857    0.000    5.000 
#    0.000    0.000    0.000    0.000    0.000    0.000 
#
# Total GULP energy -693952.479746 kJ/mol
# GULP energy per Si atom -12392.008567 kJ/mol
# Density = 1.750498 g / cm^3
# Si number density = 17.544912 Si / 1000 Ang^3
#
#
#
# Elastic Constant Matrix: (Units=GPa)
#
#
# Indices 1 2 3 4 5 6 
#
# 1 119.0676 31.7331 33.3401 0.0000 0.0000 0.0000
# 2 31.7331 46.1551 14.4486 0.0000 0.0000 0.0000
# 3 33.3401 14.4486 57.9060 0.0000 0.0000 0.0000
# 4 0.0000 0.0000 0.0000 27.0063 0.0000 0.0000
# 5 0.0000 0.0000 0.0000 0.0000 23.2317 0.0000
# 6 0.0000 0.0000 0.0000 0.0000 0.0000 19.3180
#
#
#
# Elastic Compliance Matrix: (Units=1/GPa)
#
#
# Indices 1 2 3 4 5 6 
#
# 1 0.011496 -0.006326 -0.005040 0.000000 0.000000 0.000000
# 2 -0.006326 0.026983 -0.003090 0.000000 0.000000 0.000000
# 3 -0.005040 -0.003090 0.020943 0.000000 0.000000 0.000000
# 4 0.000000 0.000000 0.000000 0.037028 0.000000 0.000000
# 5 0.000000 0.000000 0.000000 0.000000 0.043045 0.000000
# 6 0.000000 0.000000 0.000000 0.000000 0.000000 0.051765
#
#
# Mechanical properties :
#
#
# Convention : Reuss Voigt Hill
#
# Bulk Modulus (GPa) = 32.77872 42.46359 37.62116
# Shear Modulus (GPa) = 21.70679 23.48498 22.59589
#
# Velocity S-wave (km/s) = 3.52122 3.66261 3.59261
# Velocity P-wave (km/s) = 5.93762 6.49166 6.22081
#
# Compressibility (1/GPa) = 0.03050760
#
# Stress axis : x y z
#
# Youngs Moduli (GPa) = 86.98735 37.06063 47.74952
#
# Poissons Ratio (x) = 0.23444 0.24068
# Poissons Ratio (y) = 0.55028 0.14757
# Poissons Ratio (z) = 0.43846 0.11453
#
# Static dielectric constant tensor:
#      x y z
#    x 3.445670 0.000000 0.000000 
#    y 0.000000 3.014800 0.000000 
#    z 0.000000 0.000000 3.403320 
# 
# 
# High freq. dielectric constant tensor:
#      x y z
#    x 1.681060 0.000000 0.000000 
#    y 0.000000 1.646380 0.000000 
#    z 0.000000 0.000000 1.687910 
# 
# From -- ./inp_files/32739.got.cif
#   From: 2010.03.12/outbox.cif.g09.slc.cpg/sg72_17_cif.got.tgz:32739.got - 2010.04.16 14:54:00.
