data_PCOD8293941
_publ_section_title
;
Structure prediction by ZEFSAII (Michael W. Deem and Ramdas Pophale) SiO2 
 PCOD8293941
Probable space group: I B A M
;
_chemical_formula_sum "Si O2"
_cell_formula_units_Z 80
_cell_length_a 19.035540
_cell_length_b 25.895126
_cell_length_c 8.776509
_cell_angle_alpha 90.000000
_cell_angle_beta 90.000000
_cell_angle_gamma 90.000000
_cell_volume 4326.184455
_symmetry_space_group_name_H-M "I B A M"
_symmetry_group_IT_number 72
_symmetry_cell_setting 'orthorhombic'
loop_
_space_group_symop_operation_xyz
x,y,z
-x,-y,z
x,-y,1/2-z
-x,y,1/2-z
-x,-y,-z
x,y,-z
-x,y,1/2+z
x,-y,1/2+z
1/2+x,1/2+y,1/2+z
1/2-x,1/2-y,1/2+z
1/2+x,1/2-y,-z
1/2-x,1/2+y,-z
1/2-x,1/2-y,1/2-z
1/2+x,1/2+y,1/2-z
1/2-x,1/2+y,z
1/2+x,1/2-y,z
loop_
_atom_site_type_symbol
_atom_site_label
_atom_site_fract_x
_atom_site_fract_y
_atom_site_fract_z
Si Si1 0.077496 0.645015 0.680354
Si Si2 0.076332 0.860548 0.177034
Si Si3 0.665063 0.946284 0.177841
Si Si4 0.575568 0.246482 0.676959
Si Si5 0.329061 0.446714 0.676537
O O1 0.072698 0.644420 0.500000
O O2 0.125038 0.598616 0.736067
O O3 0.114107 0.698867 0.737295
O O4 0.000000 0.639608 0.750000
O O5 0.109845 0.803029 0.201379
O O6 0.130756 0.899300 0.250404
O O7 0.000000 0.866815 0.250000
O O8 0.067850 0.872937 0.000000
O O9 0.747169 0.938092 0.207967
O O10 0.639466 0.000000 0.250000
O O11 0.646349 0.945820 0.000000
O O12 0.500000 0.251061 0.750000
O O13 0.569741 0.232191 0.500000
O O14 0.355462 0.500000 0.750000
O O15 0.346984 0.449249 0.500000
#
# Coordination Sequence:
#
# PCOD8293941 Si02
#       5
#    16  16  16  16  16
#     4  11  21  34  55  81 108 139 175 216 259 309
#     4  10  20  34  55  81 109 139 176 218 261 310
#     4  10  21  38  57  78 105 138 175 216 263 315
#     4   9  17  31  51  76 106 139 172 212 260 309
#     4  10  21  37  57  78 105 139 175 216 264 315
#
# _framework density 18.492045999999998
#
# number of rings (size 3 to 8) (size 9 to 14) (size 15 to 20)
#    0.000    2.000    0.000    5.400    0.000    5.600 
#    0.000    5.000    0.000    0.000    0.000    0.000 
#    0.000    0.000    0.000    0.000    0.000    0.000 
#
# Total GULP energy -495878.857686 kJ/mol
# GULP energy per Si atom -12396.971442 kJ/mol
# Density = 1.844996 g / cm^3
# Si number density = 18.492046 Si / 1000 Ang^3
#
#
#
# Elastic Constant Matrix: (Units=GPa)
#
#
# Indices 1 2 3 4 5 6 
#
# 1 41.1324 60.0262 53.5840 0.0000 0.0000 0.0000
# 2 60.0262 189.6174 101.5153 0.0000 0.0000 0.0000
# 3 53.5840 101.5153 169.2692 0.0000 0.0000 0.0000
# 4 0.0000 0.0000 0.0000 39.9203 0.0000 0.0000
# 5 0.0000 0.0000 0.0000 0.0000 28.4721 0.0000
# 6 0.0000 0.0000 0.0000 0.0000 0.0000 176.2641
#
#
#
# Elastic Compliance Matrix: (Units=1/GPa)
#
#
# Indices 1 2 3 4 5 6 
#
# 1 0.055165 -0.011951 -0.010296 0.000000 0.000000 0.000000
# 2 -0.011951 0.010357 -0.002428 0.000000 0.000000 0.000000
# 3 -0.010296 -0.002428 0.010623 0.000000 0.000000 0.000000
# 4 0.000000 0.000000 0.000000 0.025050 0.000000 0.000000
# 5 0.000000 0.000000 0.000000 0.000000 0.035122 0.000000
# 6 0.000000 0.000000 0.000000 0.000000 0.000000 0.005673
#
#
# Mechanical properties :
#
#
# Convention : Reuss Voigt Hill
#
# Bulk Modulus (GPa) = 37.32009 92.25224 64.78617
# Shear Modulus (GPa) = 24.96601 61.25754 43.11178
#
# Velocity S-wave (km/s) = 3.67835 5.76180 4.83366
# Velocity P-wave (km/s) = 6.18594 9.70877 8.14021
#
# Compressibility (1/GPa) = 0.02679522
#
# Stress axis : x y z
#
# Youngs Moduli (GPa) = 18.12742 96.55220 94.13457
#
# Poissons Ratio (x) = 1.15394 0.96916
# Poissons Ratio (y) = 0.21665 0.22857
# Poissons Ratio (z) = 0.18663 0.23444
#
# Static dielectric constant tensor:
#      x y z
#    x 3.077900 0.000000 0.000000 
#    y 0.000000 4.320710 0.000000 
#    z 0.000000 0.000000 3.649480 
# 
# 
# High freq. dielectric constant tensor:
#      x y z
#    x 1.680660 0.000000 0.000000 
#    y 0.000000 1.742110 0.000000 
#    z 0.000000 0.000000 1.741050 
# 
# From -- ./inp_files/4743.got.cif
#   From: 2010.03.12/outbox.cif.g09.slc.cpg/sg72_3_cif.got.tgz:4743.got - 2010.04.16 14:54:00.
