data_PCOD8293181
_publ_section_title
;
Structure prediction by ZEFSAII (Michael W. Deem and Ramdas Pophale) SiO2 
 PCOD8293181
Probable space group: I B A M
;
_chemical_formula_sum "Si O2"
_cell_formula_units_Z 96
_cell_length_a 13.922490
_cell_length_b 17.718918
_cell_length_c 20.881950
_cell_angle_alpha 90.000000
_cell_angle_beta 90.000000
_cell_angle_gamma 90.000000
_cell_volume 5151.398705
_symmetry_space_group_name_H-M "I B A M"
_symmetry_group_IT_number 72
_symmetry_cell_setting 'orthorhombic'
loop_
_space_group_symop_operation_xyz
x,y,z
-x,-y,z
x,-y,1/2-z
-x,y,1/2-z
-x,-y,-z
x,y,-z
-x,y,1/2+z
x,-y,1/2+z
1/2+x,1/2+y,1/2+z
1/2-x,1/2-y,1/2+z
1/2+x,1/2-y,-z
1/2-x,1/2+y,-z
1/2-x,1/2-y,1/2-z
1/2+x,1/2+y,1/2-z
1/2-x,1/2+y,z
1/2+x,1/2-y,z
loop_
_atom_site_type_symbol
_atom_site_label
_atom_site_fract_x
_atom_site_fract_y
_atom_site_fract_z
Si Si1 0.848314 0.758990 0.391680
Si Si2 0.605321 0.352887 0.723555
Si Si3 0.304924 0.877944 0.926624
Si Si4 0.311942 0.647333 0.853954
Si Si5 0.269595 0.517239 0.321575
Si Si6 0.056438 0.751334 0.570769
O O1 0.890214 0.781562 0.322706
O O2 0.791406 0.827538 0.424333
O O3 0.781255 0.685587 0.385662
O O4 0.942120 0.739553 0.432738
O O5 0.500000 0.367365 0.750000
O O6 0.680330 0.331602 0.779388
O O7 0.637796 0.429879 0.688675
O O8 0.303186 0.942961 0.872028
O O9 0.394892 0.826328 0.905242
O O10 0.315528 0.909393 0.000000
O O11 0.304556 0.557212 0.858961
O O12 0.409888 0.676912 0.887345
O O13 0.224006 0.500000 0.250000
O O14 0.095826 0.767568 0.500000
#
# Coordination Sequence:
#
# PCOD8293181 Si02
#       6
#    16  16  16  16  16  16
#     4  10  19  34  55  78 107 139 183 229 273 318
#     4  10  18  34  56  80 108 143 179 221 275 331
#     4   9  19  36  56  77 109 146 183 226 278 331
#     4  10  20  34  53  80 108 139 177 226 275 324
#     4   9  20  35  54  81 114 146 177 223 282 333
#     4  10  20  35  55  80 106 141 187 229 267 320
#
# _framework density 18.635715999999999
#
# number of rings (size 3 to 8) (size 9 to 14) (size 15 to 20)
#    0.000    2.333    1.667    1.000    0.000    5.667 
#    0.000    0.833    0.000    8.000    0.000    0.000 
#    0.000    0.000    0.000    0.000    0.000    0.000 
#
# Total GULP energy -594880.598520 kJ/mol
# GULP energy per Si atom -12393.345802 kJ/mol
# Density = 1.859330 g / cm^3
# Si number density = 18.635716 Si / 1000 Ang^3
#
#
#
# Elastic Constant Matrix: (Units=GPa)
#
#
# Indices 1 2 3 4 5 6 
#
# 1 83.1749 26.3994 12.2988 0.0000 0.0000 0.0000
# 2 26.3994 54.8242 30.5639 0.0000 0.0000 0.0000
# 3 12.2988 30.5639 75.3321 0.0000 0.0000 0.0000
# 4 0.0000 0.0000 0.0000 29.4132 0.0000 0.0000
# 5 0.0000 0.0000 0.0000 0.0000 24.8234 0.0000
# 6 0.0000 0.0000 0.0000 0.0000 0.0000 16.3520
#
#
#
# Elastic Compliance Matrix: (Units=1/GPa)
#
#
# Indices 1 2 3 4 5 6 
#
# 1 0.014212 -0.007172 0.000590 0.000000 0.000000 0.000000
# 2 -0.007172 0.027191 -0.009861 0.000000 0.000000 0.000000
# 3 0.000590 -0.009861 0.017179 0.000000 0.000000 0.000000
# 4 0.000000 0.000000 0.000000 0.033998 0.000000 0.000000
# 5 0.000000 0.000000 0.000000 0.000000 0.040285 0.000000
# 6 0.000000 0.000000 0.000000 0.000000 0.000000 0.061155
#
#
# Mechanical properties :
#
#
# Convention : Reuss Voigt Hill
#
# Bulk Modulus (GPa) = 38.91802 39.09505 39.00653
# Shear Modulus (GPa) = 21.23389 23.72233 22.47811
#
# Velocity S-wave (km/s) = 3.37919 3.57171 3.47678
# Velocity P-wave (km/s) = 6.01283 6.16714 6.09047
#
# Compressibility (1/GPa) = 0.02569504
#
# Stress axis : x y z
#
# Youngs Moduli (GPa) = 70.36248 36.77649 58.20999
#
# Poissons Ratio (x) = 0.26377 -0.03432
# Poissons Ratio (y) = 0.50466 0.57402
# Poissons Ratio (z) = -0.04149 0.36266
#
# Static dielectric constant tensor:
#      x y z
#    x 3.278450 0.000000 0.000000 
#    y 0.000000 3.305850 0.000000 
#    z 0.000000 0.000000 3.631630 
# 
# 
# High freq. dielectric constant tensor:
#      x y z
#    x 1.706130 0.000000 0.000000 
#    y 0.000000 1.706260 0.000000 
#    z 0.000000 0.000000 1.734580 
# 
# From -- ./inp_files/43363.got.cif
#   From: 2010.03.12/outbox.cif.g09.slc.cpg/sg72_22_cif.got.tgz:43363.got - 2010.04.16 14:54:00.
