data_PCOD8293198
_publ_section_title
;
Structure prediction by ZEFSAII (Michael W. Deem and Ramdas Pophale) SiO2 
 PCOD8293198
Probable space group: I B A M
;
_chemical_formula_sum "Si O2"
_cell_formula_units_Z 72
_cell_length_a 17.583729
_cell_length_b 14.298374
_cell_length_c 14.541495
_cell_angle_alpha 90.000000
_cell_angle_beta 90.000000
_cell_angle_gamma 90.000000
_cell_volume 3656.004257
_symmetry_space_group_name_H-M "I B A M"
_symmetry_group_IT_number 72
_symmetry_cell_setting 'orthorhombic'
loop_
_space_group_symop_operation_xyz
x,y,z
-x,-y,z
x,-y,1/2-z
-x,y,1/2-z
-x,-y,-z
x,y,-z
-x,y,1/2+z
x,-y,1/2+z
1/2+x,1/2+y,1/2+z
1/2-x,1/2-y,1/2+z
1/2+x,1/2-y,-z
1/2-x,1/2+y,-z
1/2-x,1/2-y,1/2-z
1/2+x,1/2+y,1/2-z
1/2-x,1/2+y,z
1/2+x,1/2-y,z
loop_
_atom_site_type_symbol
_atom_site_label
_atom_site_fract_x
_atom_site_fract_y
_atom_site_fract_z
Si Si1 0.190889 0.517145 0.000000
Si Si2 0.805629 0.409341 0.192309
Si Si3 0.373832 0.408407 0.305977
Si Si4 0.423545 0.210537 0.295306
Si Si5 0.625733 0.810939 0.500000
Si Si6 0.350390 0.398837 0.500000
O O1 0.159627 0.570092 0.090647
O O2 0.176062 0.405254 0.000000
O O3 0.281043 0.528775 0.000000
O O4 0.821839 0.500000 0.250000
O O5 0.716316 0.385182 0.191096
O O6 0.849733 0.327623 0.243290
O O7 0.395653 0.500000 0.250000
O O8 0.420115 0.320124 0.268951
O O9 0.400621 0.423032 0.411140
O O10 0.500000 0.168256 0.250000
O O11 0.423771 0.189189 0.405317
O O12 0.673962 0.713213 0.500000
#
# Coordination Sequence:
#
# PCOD8293198 Si02
#       6
#     8  16  16  16   8   8
#     4  10  18  35  56  85 116 148 189 236 283 340
#     4  10  19  35  57  85 112 145 190 232 289 342
#     4   9  19  37  60  84 111 146 192 246 287 340
#     4  11  23  38  57  82 116 156 192 232 292 343
#     4  10  20  39  59  79 119 156 190 245 281 340
#     4   8  18  34  57  88 111 145 189 239 295 331
#
# _framework density 19.693632000000001
#
# number of rings (size 3 to 8) (size 9 to 14) (size 15 to 20)
#    0.000    2.222    2.222    0.667    0.000    1.778 
#    0.000    2.222    0.000    4.000    0.000    0.000 
#    0.000    0.000    0.000    0.000    0.000    0.000 
#
# Total GULP energy -445982.170650 kJ/mol
# GULP energy per Si atom -12388.393629 kJ/mol
# Density = 1.964881 g / cm^3
# Si number density = 19.693632 Si / 1000 Ang^3
#
#
#
# Elastic Constant Matrix: (Units=GPa)
#
#
# Indices 1 2 3 4 5 6 
#
# 1 33.8945 11.6879 17.8701 0.0000 0.0000 0.0000
# 2 11.6879 81.3437 40.3056 0.0000 0.0000 0.0000
# 3 17.8701 40.3056 152.9516 0.0000 0.0000 0.0000
# 4 0.0000 0.0000 0.0000 29.2905 0.0000 0.0000
# 5 0.0000 0.0000 0.0000 0.0000 45.9158 0.0000
# 6 0.0000 0.0000 0.0000 0.0000 0.0000 10.1474
#
#
#
# Elastic Compliance Matrix: (Units=1/GPa)
#
#
# Indices 1 2 3 4 5 6 
#
# 1 0.032136 -0.003171 -0.002919 0.000000 0.000000 0.000000
# 2 -0.003171 0.014453 -0.003438 0.000000 0.000000 0.000000
# 3 -0.002919 -0.003438 0.007785 0.000000 0.000000 0.000000
# 4 0.000000 0.000000 0.000000 0.034141 0.000000 0.000000
# 5 0.000000 0.000000 0.000000 0.000000 0.021779 0.000000
# 6 0.000000 0.000000 0.000000 0.000000 0.000000 0.098548
#
#
# Mechanical properties :
#
#
# Convention : Reuss Voigt Hill
#
# Bulk Modulus (GPa) = 28.31475 45.32413 36.81944
# Shear Modulus (GPa) = 20.86204 30.29247 25.57725
#
# Velocity S-wave (km/s) = 3.25826 3.92623 3.60774
# Velocity P-wave (km/s) = 5.34452 6.60441 6.00758
#
# Compressibility (1/GPa) = 0.03531728
#
# Stress axis : x y z
#
# Youngs Moduli (GPa) = 31.11797 69.19119 128.45145
#
# Poissons Ratio (x) = 0.21941 0.37494
# Poissons Ratio (y) = 0.09868 0.44162
# Poissons Ratio (z) = 0.09083 0.23788
#
# Static dielectric constant tensor:
#      x y z
#    x 3.138540 0.000000 0.000000 
#    y 0.000000 3.650610 0.000000 
#    z 0.000000 0.000000 4.037380 
# 
# 
# High freq. dielectric constant tensor:
#      x y z
#    x 1.721230 0.000000 0.000000 
#    y 0.000000 1.770730 0.000000 
#    z 0.000000 0.000000 1.793500 
# 
# From -- ./inp_files/21490.got.cif
#   From: 2010.03.12/outbox.cif.g09.slc.cpg/sg72_11_cif.got.tgz:21490.got - 2010.04.16 14:54:00.
