data_PCOD8293649
_publ_section_title
;
Structure prediction by ZEFSAII (Michael W. Deem and Ramdas Pophale) SiO2 
 PCOD8293649
Probable space group: I B A M
;
_chemical_formula_sum "Si O2"
_cell_formula_units_Z 116
_cell_length_a 22.695922
_cell_length_b 27.483403
_cell_length_c 9.261739
_cell_angle_alpha 90.000000
_cell_angle_beta 90.000000
_cell_angle_gamma 90.000000
_cell_volume 5777.113162
_symmetry_space_group_name_H-M "I B A M"
_symmetry_group_IT_number 72
_symmetry_cell_setting 'orthorhombic'
loop_
_space_group_symop_operation_xyz
x,y,z
-x,-y,z
x,-y,1/2-z
-x,y,1/2-z
-x,-y,-z
x,y,-z
-x,y,1/2+z
x,-y,1/2+z
1/2+x,1/2+y,1/2+z
1/2-x,1/2-y,1/2+z
1/2+x,1/2-y,-z
1/2-x,1/2+y,-z
1/2-x,1/2-y,1/2-z
1/2+x,1/2+y,1/2-z
1/2-x,1/2+y,z
1/2+x,1/2-y,z
loop_
_atom_site_type_symbol
_atom_site_label
_atom_site_fract_x
_atom_site_fract_y
_atom_site_fract_z
Si Si1 0.223953 0.546161 0.668199
Si Si2 0.872729 0.666078 0.667983
Si Si3 0.000000 0.500000 0.250000
Si Si4 0.630999 0.647107 0.166903
Si Si5 0.242915 0.138272 0.829587
Si Si6 0.405967 0.076229 0.340235
Si Si7 0.558710 0.740275 0.833196
Si Si8 0.438219 0.450871 0.826882
O O1 0.249284 0.500000 0.750000
O O2 0.239042 0.543448 0.500000
O O3 0.260143 0.588881 0.740310
O O4 0.154499 0.549527 0.700761
O O5 0.879986 0.656545 0.500000
O O6 0.803797 0.664990 0.712214
O O7 0.912741 0.623252 0.738078
O O8 0.894139 0.719101 0.716433
O O9 0.958426 0.536563 0.160558
O O10 0.685124 0.665006 0.268307
O O11 0.580500 0.686190 0.201897
O O12 0.606616 0.593418 0.203905
O O13 0.650557 0.650804 0.000000
O O14 0.237932 0.129630 0.000000
O O15 0.401982 0.097927 0.500000
O O16 0.500000 0.751638 0.750000
O O17 0.544522 0.746616 0.000000
O O18 0.413264 0.500000 0.750000
O O19 0.500000 0.438012 0.750000
O O20 0.446730 0.458370 0.000000
#
# Coordination Sequence:
#
# PCOD8293649 Si02
#       8
#    16  16   4  16  16  16  16  16
#     4  10  19  35  55  77 108 149 192 236 289 344
#     4   9  21  41  61  83 116 152 191 244 297 348
#     4  12  22  36  52  86 118 152 200 246 294 344
#     4  10  22  39  59  86 120 154 191 238 290 345
#     4  10  21  37  58  84 113 150 193 239 292 348
#     4  10  22  36  54  80 112 151 194 240 291 346
#     4  10  22  41  63  88 118 153 192 238 293 349
#     4  10  20  35  57  85 118 155 191 231 282 339
#
# _framework density 20.079232999999999
#
# number of rings (size 3 to 8) (size 9 to 14) (size 15 to 20)
#    0.000    2.069    0.690    2.276    0.966    5.517 
#    0.000    1.379    0.000    0.000    0.000    0.000 
#    0.000    0.000    0.000    0.000    0.000    0.000 
#
# Total GULP energy -718927.529198 kJ/mol
# GULP energy per Si atom -12395.302228 kJ/mol
# Density = 2.003353 g / cm^3
# Si number density = 20.079233 Si / 1000 Ang^3
#
#
#
# Elastic Constant Matrix: (Units=GPa)
#
#
# Indices 1 2 3 4 5 6 
#
# 1 94.0135 43.6120 41.8077 0.0000 0.0000 0.0000
# 2 43.6120 118.8511 51.2001 0.0000 0.0000 0.0000
# 3 41.8077 51.2001 87.5350 0.0000 0.0000 0.0000
# 4 0.0000 0.0000 0.0000 26.3407 0.0000 0.0000
# 5 0.0000 0.0000 0.0000 0.0000 27.9307 0.0000
# 6 0.0000 0.0000 0.0000 0.0000 0.0000 21.5885
#
#
#
# Elastic Compliance Matrix: (Units=1/GPa)
#
#
# Indices 1 2 3 4 5 6 
#
# 1 0.014303 -0.003082 -0.005028 0.000000 0.000000 0.000000
# 2 -0.003082 0.011912 -0.005496 0.000000 0.000000 0.000000
# 3 -0.005028 -0.005496 0.017040 0.000000 0.000000 0.000000
# 4 0.000000 0.000000 0.000000 0.037964 0.000000 0.000000
# 5 0.000000 0.000000 0.000000 0.000000 0.035803 0.000000
# 6 0.000000 0.000000 0.000000 0.000000 0.000000 0.046321
#
#
# Mechanical properties :
#
#
# Convention : Reuss Voigt Hill
#
# Bulk Modulus (GPa) = 62.33292 63.73769 63.03531
# Shear Modulus (GPa) = 25.52289 26.09064 25.80676
#
# Velocity S-wave (km/s) = 3.56913 3.60861 3.58892
# Velocity P-wave (km/s) = 6.93511 7.01247 6.97390
#
# Compressibility (1/GPa) = 0.01604289
#
# Stress axis : x y z
#
# Youngs Moduli (GPa) = 69.91720 83.94674 58.68549
#
# Poissons Ratio (x) = 0.25874 0.29509
# Poissons Ratio (y) = 0.21550 0.32251
# Poissons Ratio (z) = 0.35157 0.46133
#
# Static dielectric constant tensor:
#      x y z
#    x 3.632060 0.000000 0.000000 
#    y 0.000000 3.583580 0.000000 
#    z 0.000000 0.000000 3.615380 
# 
# 
# High freq. dielectric constant tensor:
#      x y z
#    x 1.783170 0.000000 0.000000 
#    y 0.000000 1.782580 0.000000 
#    z 0.000000 0.000000 1.784410 
# 
# From -- ./inp_files/7370.got.cif
#   From: 2010.03.12/outbox.cif.g09.slc.cpg/sg72_4_cif.got.tgz:7370.got - 2010.04.16 14:54:00.
