data_PCOD8293164
_publ_section_title
;
Structure prediction by ZEFSAII (Michael W. Deem and Ramdas Pophale) SiO2 
 PCOD8293164
Probable space group: I B A M
;
_chemical_formula_sum "Si O2"
_cell_formula_units_Z 80
_cell_length_a 20.493885
_cell_length_b 8.318206
_cell_length_c 24.767261
_cell_angle_alpha 90.000000
_cell_angle_beta 90.000000
_cell_angle_gamma 90.000000
_cell_volume 4222.133363
_symmetry_space_group_name_H-M "I B A M"
_symmetry_group_IT_number 72
_symmetry_cell_setting 'orthorhombic'
loop_
_space_group_symop_operation_xyz
x,y,z
-x,-y,z
x,-y,1/2-z
-x,y,1/2-z
-x,-y,-z
x,y,-z
-x,y,1/2+z
x,-y,1/2+z
1/2+x,1/2+y,1/2+z
1/2-x,1/2-y,1/2+z
1/2+x,1/2-y,-z
1/2-x,1/2+y,-z
1/2-x,1/2-y,1/2-z
1/2+x,1/2+y,1/2-z
1/2-x,1/2+y,z
1/2+x,1/2-y,z
loop_
_atom_site_type_symbol
_atom_site_label
_atom_site_fract_x
_atom_site_fract_y
_atom_site_fract_z
Si Si1 0.179505 0.688281 0.562133
Si Si2 0.661731 0.219912 0.676823
Si Si3 0.073466 0.466158 0.122769
Si Si4 0.932021 0.680934 0.232643
Si Si5 0.725584 0.476845 0.871519
O O1 0.190457 0.731353 0.500000
O O2 0.109653 0.602864 0.570234
O O3 0.234527 0.565447 0.581702
O O4 0.181499 0.847061 0.598446
O O5 0.633476 0.245880 0.737623
O O6 0.677155 0.398866 0.657060
O O7 0.605127 0.135319 0.641603
O O8 0.726223 0.106470 0.672921
O O9 0.079027 0.325111 0.168340
O O10 0.000000 0.500000 0.105896
O O11 0.942342 0.500000 0.250000
O O12 0.000000 0.772661 0.250000
#
# Coordination Sequence:
#
# PCOD8293164 Si02
#       5
#    16  16  16  16  16
#     4  10  20  35  56  77 106 146 185 229 278 322
#     4   9  17  32  55  81 107 141 176 219 278 322
#     4  10  18  33  55  80 106 141 190 225 258 326
#     4   9  14  29  54  79 101 141 181 213 259 318
#     4   9  19  35  53  81 111 139 178 232 272 330
#
# _framework density 18.947766000000001
#
# number of rings (size 3 to 8) (size 9 to 14) (size 15 to 20)
#    0.000    2.600    4.000    0.600    0.000    0.400 
#    0.000   30.000    0.000    2.400    0.000    0.000 
#    0.000    0.000    0.000    0.000    0.000    0.000 
#
# Total GULP energy -495653.660672 kJ/mol
# GULP energy per Si atom -12391.341517 kJ/mol
# Density = 1.890464 g / cm^3
# Si number density = 18.947766 Si / 1000 Ang^3
#
#
#
# Elastic Constant Matrix: (Units=GPa)
#
#
# Indices 1 2 3 4 5 6 
#
# 1 111.5385 41.2229 39.1627 0.0000 0.0000 0.0000
# 2 41.2229 74.7759 13.9644 0.0000 0.0000 0.0000
# 3 39.1627 13.9644 64.1923 0.0000 0.0000 0.0000
# 4 0.0000 0.0000 0.0000 14.9226 0.0000 0.0000
# 5 0.0000 0.0000 0.0000 0.0000 4.1014 0.0000
# 6 0.0000 0.0000 0.0000 0.0000 0.0000 14.4764
#
#
#
# Elastic Compliance Matrix: (Units=1/GPa)
#
#
# Indices 1 2 3 4 5 6 
#
# 1 0.013748 -0.006267 -0.007024 0.000000 0.000000 0.000000
# 2 -0.006267 0.016797 0.000170 0.000000 0.000000 0.000000
# 3 -0.007024 0.000170 0.019827 0.000000 0.000000 0.000000
# 4 0.000000 0.000000 0.000000 0.067013 0.000000 0.000000
# 5 0.000000 0.000000 0.000000 0.000000 0.243821 0.000000
# 6 0.000000 0.000000 0.000000 0.000000 0.000000 0.069078
#
#
# Mechanical properties :
#
#
# Convention : Reuss Voigt Hill
#
# Bulk Modulus (GPa) = 41.44600 48.80073 45.12336
# Shear Modulus (GPa) = 10.76266 17.11052 13.93659
#
# Velocity S-wave (km/s) = 2.38590 3.00832 2.71500
# Velocity P-wave (km/s) = 5.43243 6.15451 5.80471
#
# Compressibility (1/GPa) = 0.02412778
#
# Stress axis : x y z
#
# Youngs Moduli (GPa) = 72.73736 59.53544 50.43740
#
# Poissons Ratio (x) = 0.37313 0.35428
# Poissons Ratio (y) = 0.45587 -0.00856
# Poissons Ratio (z) = 0.51091 -0.01010
#
# Static dielectric constant tensor:
#      x y z
#    x 3.736010 0.000000 0.000000 
#    y 0.000000 3.524690 0.000000 
#    z 0.000000 0.000000 3.507270 
# 
# 
# High freq. dielectric constant tensor:
#      x y z
#    x 1.742110 0.000000 0.000000 
#    y 0.000000 1.714670 0.000000 
#    z 0.000000 0.000000 1.713640 
# 
# From -- ./inp_files/48944.got.cif
#   From: 2010.03.12/outbox.cif.g09.slc.cpg/sg72_25_cif.got.tgz:48944.got - 2010.04.16 14:54:00.
