data_PCOD8293938
_publ_section_title
;
Structure prediction by ZEFSAII (Michael W. Deem and Ramdas Pophale) SiO2 
 PCOD8293938
Probable space group: I B A M
;
_chemical_formula_sum "Si O2"
_cell_formula_units_Z 80
_cell_length_a 5.285482
_cell_length_b 38.615416
_cell_length_c 20.854769
_cell_angle_alpha 90.000000
_cell_angle_beta 90.000000
_cell_angle_gamma 90.000000
_cell_volume 4256.481005
_symmetry_space_group_name_H-M "I B A M"
_symmetry_group_IT_number 72
_symmetry_cell_setting 'orthorhombic'
loop_
_space_group_symop_operation_xyz
x,y,z
-x,-y,z
x,-y,1/2-z
-x,y,1/2-z
-x,-y,-z
x,y,-z
-x,y,1/2+z
x,-y,1/2+z
1/2+x,1/2+y,1/2+z
1/2-x,1/2-y,1/2+z
1/2+x,1/2-y,-z
1/2-x,1/2+y,-z
1/2-x,1/2-y,1/2-z
1/2+x,1/2+y,1/2-z
1/2-x,1/2+y,z
1/2+x,1/2-y,z
loop_
_atom_site_type_symbol
_atom_site_label
_atom_site_fract_x
_atom_site_fract_y
_atom_site_fract_z
Si Si1 0.180462 0.903484 0.927012
Si Si2 0.483956 0.232548 0.425147
Si Si3 0.552635 0.635185 0.679849
Si Si4 0.060966 0.658137 0.371814
Si Si5 0.248267 0.482526 0.924851
O O1 0.410360 0.875967 0.917362
O O2 0.272529 0.941868 0.910621
O O3 0.958907 0.894156 0.875959
O O4 0.076993 0.901207 0.000000
O O5 0.484473 0.240593 0.500000
O O6 0.234614 0.250183 0.393946
O O7 0.486519 0.191530 0.414973
O O8 0.500000 0.618775 0.750000
O O9 0.825093 0.653414 0.676467
O O10 0.323336 0.662781 0.667917
O O11 0.500000 0.500000 0.894330
O O12 0.000000 0.500000 0.893465
O O13 0.250667 0.490367 0.000000
#
# Coordination Sequence:
#
# PCOD8293938 Si02
#       5
#    16  16  16  16  16
#     4   9  21  34  58  90 112 144 193 239 280 329
#     4  10  20  34  54  83 119 149 177 226 292 339
#     4  10  22  38  59  83 112 153 190 233 283 333
#     4  10  21  36  59  81 111 144 193 236 273 330
#     4   9  18  31  48  76 116 147 173 220 285 340
#
# _framework density 18.79487
#
# number of rings (size 3 to 8) (size 9 to 14) (size 15 to 20)
#    1.200    1.200    0.000    2.400    2.800    1.600 
#    0.000    0.000    0.000   12.600    0.000    0.000 
#    0.000    0.000    0.000    0.000    0.000    0.000 
#
# Total GULP energy -495544.413821 kJ/mol
# GULP energy per Si atom -12388.610346 kJ/mol
# Density = 1.875209 g / cm^3
# Si number density = 18.794870 Si / 1000 Ang^3
#
#
#
# Elastic Constant Matrix: (Units=GPa)
#
#
# Indices 1 2 3 4 5 6 
#
# 1 149.8096 55.5789 19.0837 0.0000 0.0000 0.0000
# 2 55.5789 132.8369 17.5217 0.0000 0.0000 0.0000
# 3 19.0837 17.5217 62.4978 0.0000 0.0000 0.0000
# 4 0.0000 0.0000 0.0000 6.5054 0.0000 0.0000
# 5 0.0000 0.0000 0.0000 0.0000 16.4148 0.0000
# 6 0.0000 0.0000 0.0000 0.0000 0.0000 21.9151
#
#
#
# Elastic Compliance Matrix: (Units=1/GPa)
#
#
# Indices 1 2 3 4 5 6 
#
# 1 0.008048 -0.003160 -0.001571 0.000000 0.000000 0.000000
# 2 -0.003160 0.009058 -0.001575 0.000000 0.000000 0.000000
# 3 -0.001571 -0.001575 0.016922 0.000000 0.000000 0.000000
# 4 0.000000 0.000000 0.000000 0.153718 0.000000 0.000000
# 5 0.000000 0.000000 0.000000 0.000000 0.060921 0.000000
# 6 0.000000 0.000000 0.000000 0.000000 0.000000 0.045631
#
#
# Mechanical properties :
#
#
# Convention : Reuss Voigt Hill
#
# Bulk Modulus (GPa) = 46.69505 58.83478 52.76492
# Shear Modulus (GPa) = 15.92120 25.83106 20.87613
#
# Velocity S-wave (km/s) = 2.91366 3.71127 3.33639
# Velocity P-wave (km/s) = 6.01812 7.05240 6.55569
#
# Compressibility (1/GPa) = 0.02141554
#
# Stress axis : x y z
#
# Youngs Moduli (GPa) = 124.26047 110.40211 59.09522
#
# Poissons Ratio (x) = 0.34885 0.09287
# Poissons Ratio (y) = 0.39264 0.09305
# Poissons Ratio (z) = 0.19527 0.17383
#
# Static dielectric constant tensor:
#      x y z
#    x 3.693600 0.000000 0.000000 
#    y 0.000000 3.234620 0.000000 
#    z 0.000000 0.000000 3.003150 
# 
# 
# High freq. dielectric constant tensor:
#      x y z
#    x 1.741350 0.000000 0.000000 
#    y 0.000000 1.718590 0.000000 
#    z 0.000000 0.000000 1.684010 
# 
# From -- ./inp_files/41560.got.cif
#   From: 2010.03.12/outbox.cif.g09.slc.cpg/sg72_21_cif.got.tgz:41560.got - 2010.04.16 14:54:00.
