data_PCOD8293801
_publ_section_title
;
Structure prediction by ZEFSAII (Michael W. Deem and Ramdas Pophale) SiO2 
 PCOD8293801
Probable space group: I B A M
;
_chemical_formula_sum "Si O2"
_cell_formula_units_Z 96
_cell_length_a 28.623982
_cell_length_b 28.629643
_cell_length_c 9.023445
_cell_angle_alpha 90.000000
_cell_angle_beta 90.000000
_cell_angle_gamma 90.000000
_cell_volume 7394.662519
_symmetry_space_group_name_H-M "I B A M"
_symmetry_group_IT_number 72
_symmetry_cell_setting 'orthorhombic'
loop_
_space_group_symop_operation_xyz
x,y,z
-x,-y,z
x,-y,1/2-z
-x,y,1/2-z
-x,-y,-z
x,y,-z
-x,y,1/2+z
x,-y,1/2+z
1/2+x,1/2+y,1/2+z
1/2-x,1/2-y,1/2+z
1/2+x,1/2-y,-z
1/2-x,1/2+y,-z
1/2-x,1/2-y,1/2-z
1/2+x,1/2+y,1/2-z
1/2-x,1/2+y,z
1/2+x,1/2-y,z
loop_
_atom_site_type_symbol
_atom_site_label
_atom_site_fract_x
_atom_site_fract_y
_atom_site_fract_z
Si Si1 0.113454 0.692054 0.167271
Si Si2 0.625651 0.952008 0.328053
Si Si3 0.692091 0.113462 0.667271
Si Si4 0.047997 0.625602 0.328053
Si Si5 0.678092 0.743127 0.667468
Si Si6 0.756899 0.821890 0.332532
O O1 0.153822 0.653807 0.167079
O O2 0.068765 0.672466 0.254835
O O3 0.132008 0.738556 0.248389
O O4 0.098639 0.704781 0.000000
O O5 0.635816 0.960572 0.500000
O O6 0.672516 0.931227 0.254834
O O7 0.582441 0.917587 0.303231
O O8 0.611860 0.000000 0.250000
O O9 0.704826 0.098654 0.500000
O O10 0.738596 0.132028 0.748390
O O11 0.039429 0.635761 0.500000
O O12 0.000000 0.611797 0.250000
O O13 0.664470 0.729734 0.500000
O O14 0.717298 0.782706 0.667958
O O15 0.697102 0.697131 0.750000
O O16 0.770300 0.835505 0.500000
#
# Coordination Sequence:
#
# PCOD8293801 Si02
#       6
#    16  16  16  16  16  16
#     4   9  16  26  39  53  69  88 109 134 166 204
#     4  10  20  32  44  56  69  86 110 142 181 223
#     4   9  16  26  39  53  69  88 109 134 166 204
#     4  10  20  32  44  56  69  86 110 142 181 223
#     4   9  15  22  33  50  71  92 112 132 156 190
#     4   9  15  22  33  50  71  92 112 132 156 190
#
# _framework density 12.982336
#
# number of rings (size 3 to 8) (size 9 to 14) (size 15 to 20)
#    0.000    2.667    0.000    3.000    0.000   10.333 
#    0.000    1.667    0.000    0.000    0.000    0.000 
#    0.000    0.000    0.000    0.000    0.000    0.000 
#
# Total GULP energy -595181.455396 kJ/mol
# GULP energy per Si atom -12399.613654 kJ/mol
# Density = 1.295279 g / cm^3
# Si number density = 12.982336 Si / 1000 Ang^3
#
#
#
# Elastic Constant Matrix: (Units=GPa)
#
#
# Indices 1 2 3 4 5 6 
#
# 1 38.3497 37.4520 43.9251 0.0000 0.0000 0.0000
# 2 37.4520 38.4022 43.9574 0.0000 0.0000 0.0000
# 3 43.9251 43.9574 140.2424 0.0000 0.0000 0.0000
# 4 0.0000 0.0000 0.0000 21.4173 0.0000 0.0000
# 5 0.0000 0.0000 0.0000 0.0000 21.4093 0.0000
# 6 0.0000 0.0000 0.0000 0.0000 0.0000 9.4207
#
#
#
# Elastic Compliance Matrix: (Units=1/GPa)
#
#
# Indices 1 2 3 4 5 6 
#
# 1 0.551854 -0.530785 -0.006477 0.000000 0.000000 0.000000
# 2 -0.530785 0.551131 -0.006499 0.000000 0.000000 0.000000
# 3 -0.006477 -0.006499 0.011196 0.000000 0.000000 0.000000
# 4 0.000000 0.000000 0.000000 0.046691 0.000000 0.000000
# 5 0.000000 0.000000 0.000000 0.000000 0.046709 0.000000
# 6 0.000000 0.000000 0.000000 0.000000 0.000000 0.106150
#
#
# Mechanical properties :
#
#
# Convention : Reuss Voigt Hill
#
# Bulk Modulus (GPa) = 37.51119 51.96260 44.73690
# Shear Modulus (GPa) = 2.07457 16.56012 9.31734
#
# Velocity S-wave (km/s) = 1.26549 3.57541 2.68189
# Velocity P-wave (km/s) = 5.57602 7.56024 6.64264
#
# Compressibility (1/GPa) = 0.02665871
#
# Stress axis : x y z
#
# Youngs Moduli (GPa) = 1.81207 1.81445 89.31571
#
# Poissons Ratio (x) = 0.96308 0.57847
# Poissons Ratio (y) = 0.96182 0.58050
# Poissons Ratio (z) = 0.01174 0.01179
#
# Static dielectric constant tensor:
#      x y z
#    x 2.395170 0.000000 0.000000 
#    y 0.000000 2.395430 0.000000 
#    z 0.000000 0.000000 2.881980 
# 
# 
# High freq. dielectric constant tensor:
#      x y z
#    x 1.453170 0.000000 0.000000 
#    y 0.000000 1.453200 0.000000 
#    z 0.000000 0.000000 1.520110 
# 
# From -- ./inp_files/7097.got.cif
#   From: 2010.03.12/outbox.cif.g09.slc.cpg/sg72_4_cif.got.tgz:7097.got - 2010.04.16 14:54:00.
