data_PCOD8293684
_publ_section_title
;
Structure prediction by ZEFSAII (Michael W. Deem and Ramdas Pophale) SiO2 
 PCOD8293684
Probable space group: I B A M
;
_chemical_formula_sum "Si O2"
_cell_formula_units_Z 116
_cell_length_a 23.448232
_cell_length_b 14.198734
_cell_length_c 18.207677
_cell_angle_alpha 90.000000
_cell_angle_beta 90.000000
_cell_angle_gamma 90.000000
_cell_volume 6061.976746
_symmetry_space_group_name_H-M "I B A M"
_symmetry_group_IT_number 72
_symmetry_cell_setting 'orthorhombic'
loop_
_space_group_symop_operation_xyz
x,y,z
-x,-y,z
x,-y,1/2-z
-x,y,1/2-z
-x,-y,-z
x,y,-z
-x,y,1/2+z
x,-y,1/2+z
1/2+x,1/2+y,1/2+z
1/2-x,1/2-y,1/2+z
1/2+x,1/2-y,-z
1/2-x,1/2+y,-z
1/2-x,1/2-y,1/2-z
1/2+x,1/2+y,1/2-z
1/2-x,1/2+y,z
1/2+x,1/2-y,z
loop_
_atom_site_type_symbol
_atom_site_label
_atom_site_fract_x
_atom_site_fract_y
_atom_site_fract_z
Si Si1 0.062270 0.383952 0.580648
Si Si2 0.630270 0.708021 0.083975
Si Si3 0.754700 0.686793 0.582367
Si Si4 0.438519 0.089017 0.628024
Si Si5 0.500000 0.000000 0.250000
Si Si6 0.153062 0.265934 0.829777
Si Si7 0.145163 0.103169 0.727697
Si Si8 0.275018 0.899919 0.268650
O O1 0.086760 0.373520 0.500000
O O2 0.092164 0.294097 0.618853
O O3 0.085258 0.485477 0.607079
O O4 0.993281 0.380076 0.579881
O O5 0.696415 0.735041 0.081339
O O6 0.623631 0.624822 0.144430
O O7 0.611340 0.677435 0.000000
O O8 0.747888 0.643021 0.500000
O O9 0.695619 0.734581 0.606166
O O10 0.770301 0.607507 0.642789
O O11 0.391293 0.169046 0.626248
O O12 0.461218 0.075405 0.709489
O O13 0.122343 0.177931 0.788963
O O14 0.185561 0.318583 0.763860
O O15 0.213728 0.107022 0.729917
O O16 0.122188 0.000000 0.750000
O O17 0.303675 0.000000 0.250000
#
# Coordination Sequence:
#
# PCOD8293684 Si02
#       8
#    16  16  16  16   4  16  16  16
#     4   9  20  38  57  82 118 153 189 229 286 356
#     4  10  19  35  60  81 107 149 194 237 281 343
#     4  10  20  36  53  81 113 147 195 238 273 340
#     4  10  21  32  55  84 119 152 186 231 286 343
#     4   8  20  32  42  88 114 148 192 222 264 354
#     4  11  21  34  56  82 117 153 189 243 293 344
#     4  10  20  37  55  77 111 148 191 238 292 334
#     4  10  20  34  55  81 115 153 184 227 294 351
#
# _framework density 19.135673000000001
#
# number of rings (size 3 to 8) (size 9 to 14) (size 15 to 20)
#    0.000    2.207    2.759    1.655    6.759    1.103 
#    0.000    6.897    0.000    1.655    0.000    1.931 
#    0.000    0.000    0.000    0.000    0.000    0.000 
#
# Total GULP energy -718536.697003 kJ/mol
# GULP energy per Si atom -12388.563741 kJ/mol
# Density = 1.909212 g / cm^3
# Si number density = 19.135673 Si / 1000 Ang^3
#
#
#
# Elastic Constant Matrix: (Units=GPa)
#
#
# Indices 1 2 3 4 5 6 
#
# 1 48.0039 32.1410 24.4037 0.0000 0.0000 0.0000
# 2 32.1410 129.9708 61.1704 0.0000 0.0000 0.0000
# 3 24.4037 61.1704 129.0084 0.0000 0.0000 0.0000
# 4 0.0000 0.0000 0.0000 14.6361 0.0000 0.0000
# 5 0.0000 0.0000 0.0000 0.0000 7.4629 0.0000
# 6 0.0000 0.0000 0.0000 0.0000 0.0000 26.0748
#
#
#
# Elastic Compliance Matrix: (Units=1/GPa)
#
#
# Indices 1 2 3 4 5 6 
#
# 1 0.025512 -0.005198 -0.002362 0.000000 0.000000 0.000000
# 2 -0.005198 0.010963 -0.004215 0.000000 0.000000 0.000000
# 3 -0.002362 -0.004215 0.010197 0.000000 0.000000 0.000000
# 4 0.000000 0.000000 0.000000 0.068324 0.000000 0.000000
# 5 0.000000 0.000000 0.000000 0.000000 0.133996 0.000000
# 6 0.000000 0.000000 0.000000 0.000000 0.000000 0.038351
#
#
# Mechanical properties :
#
#
# Convention : Reuss Voigt Hill
#
# Bulk Modulus (GPa) = 43.24551 60.26816 51.75684
# Shear Modulus (GPa) = 15.69366 22.25262 18.97314
#
# Velocity S-wave (km/s) = 2.86689 3.41381 3.15224
# Velocity P-wave (km/s) = 5.79717 6.86312 6.35254
#
# Compressibility (1/GPa) = 0.02312379
#
# Stress axis : x y z
#
# Youngs Moduli (GPa) = 39.19694 91.21428 98.07029
#
# Poissons Ratio (x) = 0.47409 0.23159
# Poissons Ratio (y) = 0.20373 0.41338
# Poissons Ratio (z) = 0.09256 0.38448
#
# Static dielectric constant tensor:
#      x y z
#    x 3.572860 0.000000 0.000000 
#    y 0.000000 3.594680 0.000000 
#    z 0.000000 0.000000 3.648460 
# 
# 
# High freq. dielectric constant tensor:
#      x y z
#    x 1.715800 0.000000 0.000000 
#    y 0.000000 1.727300 0.000000 
#    z 0.000000 0.000000 1.752640 
# 
# From -- ./inp_files/33417.got.cif
#   From: 2010.03.12/outbox.cif.g09.slc.cpg/sg72_17_cif.got.tgz:33417.got - 2010.04.16 14:54:00.
