data_PCOD8293144
_publ_section_title
;
Structure prediction by ZEFSAII (Michael W. Deem and Ramdas Pophale) SiO2 
 PCOD8293144
Probable space group: I B A M
;
_chemical_formula_sum "Si O2"
_cell_formula_units_Z 96
_cell_length_a 28.958111
_cell_length_b 18.537369
_cell_length_c 8.521840
_cell_angle_alpha 90.000000
_cell_angle_beta 90.000000
_cell_angle_gamma 90.000000
_cell_volume 4574.584977
_symmetry_space_group_name_H-M "I B A M"
_symmetry_group_IT_number 72
_symmetry_cell_setting 'orthorhombic'
loop_
_space_group_symop_operation_xyz
x,y,z
-x,-y,z
x,-y,1/2-z
-x,y,1/2-z
-x,-y,-z
x,y,-z
-x,y,1/2+z
x,-y,1/2+z
1/2+x,1/2+y,1/2+z
1/2-x,1/2-y,1/2+z
1/2+x,1/2-y,-z
1/2-x,1/2+y,-z
1/2-x,1/2-y,1/2-z
1/2+x,1/2+y,1/2-z
1/2-x,1/2+y,z
1/2+x,1/2-y,z
loop_
_atom_site_type_symbol
_atom_site_label
_atom_site_fract_x
_atom_site_fract_y
_atom_site_fract_z
Si Si1 0.202031 0.080905 0.816259
Si Si2 0.608871 0.921655 0.816998
Si Si3 0.201724 0.579288 0.315108
Si Si4 0.050650 0.287371 0.317517
Si Si5 0.454954 0.578260 0.186754
Si Si6 0.121005 0.832031 0.817905
O O1 0.252328 0.110535 0.764694
O O2 0.169010 0.146976 0.765098
O O3 0.191482 0.000000 0.750000
O O4 0.199580 0.071648 0.000000
O O5 0.653783 0.882710 0.736453
O O6 0.565321 0.869800 0.783644
O O7 0.595902 0.000000 0.750000
O O8 0.619583 0.929154 0.000000
O O9 0.193469 0.500000 0.250000
O O10 0.208703 0.581026 0.500000
O O11 0.047910 0.269963 0.500000
O O12 0.091407 0.235535 0.246685
O O13 0.000000 0.272715 0.250000
O O14 0.464181 0.500000 0.250000
O O15 0.500000 0.623589 0.250000
O O16 0.410005 0.599180 0.282836
O O17 0.448634 0.584841 0.000000
O O18 0.131687 0.820588 0.000000
#
# Coordination Sequence:
#
# PCOD8293144 Si02
#       6
#    16  16  16  16  16  16
#     4  11  21  35  56  85 118 156 196 240 282 330
#     4  10  20  38  62  91 118 147 183 228 282 343
#     4  10  18  32  56  87 118 152 187 230 281 336
#     4  10  24  42  62  84 114 150 189 234 287 344
#     4  11  21  34  51  74 101 137 183 235 285 334
#     4  11  22  38  55  77 109 149 191 236 282 333
#
# _framework density 20.985510999999999
#
# number of rings (size 3 to 8) (size 9 to 14) (size 15 to 20)
#    0.000    1.500    0.000    9.000    0.000    4.333 
#    0.000    2.500    0.000    0.000    0.000    0.000 
#    0.000    0.000    0.000    0.000    0.000    0.000 
#
# Total GULP energy -594637.466922 kJ/mol
# GULP energy per Si atom -12388.280561 kJ/mol
# Density = 2.093775 g / cm^3
# Si number density = 20.985511 Si / 1000 Ang^3
#
#
#
# Elastic Constant Matrix: (Units=GPa)
#
#
# Indices 1 2 3 4 5 6 
#
# 1 110.4159 45.5990 36.3626 0.0000 0.0000 0.0000
# 2 45.5990 80.4581 33.9973 0.0000 0.0000 0.0000
# 3 36.3626 33.9973 119.7888 0.0000 0.0000 0.0000
# 4 0.0000 0.0000 0.0000 21.8853 0.0000 0.0000
# 5 0.0000 0.0000 0.0000 0.0000 19.2042 0.0000
# 6 0.0000 0.0000 0.0000 0.0000 0.0000 18.2678
#
#
#
# Elastic Compliance Matrix: (Units=1/GPa)
#
#
# Indices 1 2 3 4 5 6 
#
# 1 0.012225 -0.006091 -0.001982 0.000000 0.000000 0.000000
# 2 -0.006091 0.017157 -0.003020 0.000000 0.000000 0.000000
# 3 -0.001982 -0.003020 0.009807 0.000000 0.000000 0.000000
# 4 0.000000 0.000000 0.000000 0.045693 0.000000 0.000000
# 5 0.000000 0.000000 0.000000 0.000000 0.052072 0.000000
# 6 0.000000 0.000000 0.000000 0.000000 0.000000 0.054741
#
#
# Mechanical properties :
#
#
# Convention : Reuss Voigt Hill
#
# Bulk Modulus (GPa) = 58.81714 60.28673 59.55193
# Shear Modulus (GPa) = 22.77396 24.85171 23.81283
#
# Velocity S-wave (km/s) = 3.29785 3.44500 3.37223
# Velocity P-wave (km/s) = 6.52606 6.67939 6.60317
#
# Compressibility (1/GPa) = 0.01700185
#
# Stress axis : x y z
#
# Youngs Moduli (GPa) = 81.80099 58.28539 101.96795
#
# Poissons Ratio (x) = 0.35500 0.20213
# Poissons Ratio (y) = 0.49822 0.30799
# Poissons Ratio (z) = 0.16215 0.17605
#
# Static dielectric constant tensor:
#      x y z
#    x 4.363000 0.000000 0.000000 
#    y 0.000000 3.624060 0.000000 
#    z 0.000000 0.000000 3.882490 
# 
# 
# High freq. dielectric constant tensor:
#      x y z
#    x 1.840980 0.000000 0.000000 
#    y 0.000000 1.793800 0.000000 
#    z 0.000000 0.000000 1.825530 
# 
# From -- ./inp_files/8045.got.cif
#   From: 2010.03.12/outbox.cif.g09.slc.cpg/sg72_5_cif.got.tgz:8045.got - 2010.04.16 14:54:00.
