data_PCOD8293756
_publ_section_title
;
Structure prediction by ZEFSAII (Michael W. Deem and Ramdas Pophale) SiO2 
 PCOD8293756
Probable space group: I B A M
;
_chemical_formula_sum "Si O2"
_cell_formula_units_Z 80
_cell_length_a 20.126095
_cell_length_b 7.710830
_cell_length_c 26.705973
_cell_angle_alpha 90.000000
_cell_angle_beta 90.000000
_cell_angle_gamma 90.000000
_cell_volume 4144.470496
_symmetry_space_group_name_H-M "I B A M"
_symmetry_group_IT_number 72
_symmetry_cell_setting 'orthorhombic'
loop_
_space_group_symop_operation_xyz
x,y,z
-x,-y,z
x,-y,1/2-z
-x,y,1/2-z
-x,-y,-z
x,y,-z
-x,y,1/2+z
x,-y,1/2+z
1/2+x,1/2+y,1/2+z
1/2-x,1/2-y,1/2+z
1/2+x,1/2-y,-z
1/2-x,1/2+y,-z
1/2-x,1/2-y,1/2-z
1/2+x,1/2+y,1/2-z
1/2-x,1/2+y,z
1/2+x,1/2-y,z
loop_
_atom_site_type_symbol
_atom_site_label
_atom_site_fract_x
_atom_site_fract_y
_atom_site_fract_z
Si Si1 0.139374 0.236407 0.056174
Si Si2 0.809543 0.100823 0.348727
Si Si3 0.825494 0.546530 0.807416
Si Si4 0.571378 0.442990 0.606056
Si Si5 0.574413 0.049831 0.610465
O O1 0.198476 0.196538 0.096318
O O2 0.104255 0.418873 0.069329
O O3 0.086593 0.076736 0.060208
O O4 0.168138 0.246900 0.000000
O O5 0.829664 0.245768 0.308480
O O6 0.743731 0.004040 0.333086
O O7 0.871702 0.967618 0.351259
O O8 0.829567 0.500000 0.750000
O O9 0.884998 0.457259 0.837667
O O10 0.500000 0.500000 0.628441
O O11 0.574496 0.244136 0.587923
O O12 0.500000 0.000000 0.624571
#
# Coordination Sequence:
#
# PCOD8293756 Si02
#       5
#    16  16  16  16  16
#     4   9  21  38  59  87 120 156 199 240 297 360
#     4   9  21  37  57  89 120 151 203 249 297 355
#     4  11  21  38  64  87 118 161 203 252 305 366
#     4  10  19  38  59  84 124 160 193 248 297 353
#     4  11  21  39  60  90 124 158 196 255 302 357
#
# _framework density 19.302828999999999
#
# number of rings (size 3 to 8) (size 9 to 14) (size 15 to 20)
#    1.200    0.800    2.000    1.800    0.000    2.000 
#    0.000    4.000    0.000    4.200    0.000    0.000 
#    0.000    0.000    0.000    0.000    0.000    0.000 
#
# Total GULP energy -495593.748846 kJ/mol
# GULP energy per Si atom -12389.843721 kJ/mol
# Density = 1.925889 g / cm^3
# Si number density = 19.302829 Si / 1000 Ang^3
#
#
#
# Elastic Constant Matrix: (Units=GPa)
#
#
# Indices 1 2 3 4 5 6 
#
# 1 18.2640 5.4739 35.3778 0.0000 0.0000 0.0000
# 2 5.4739 149.8948 28.5784 0.0000 0.0000 0.0000
# 3 35.3778 28.5784 116.2407 0.0000 0.0000 0.0000
# 4 0.0000 0.0000 0.0000 8.8225 0.0000 0.0000
# 5 0.0000 0.0000 0.0000 0.0000 9.4129 0.0000
# 6 0.0000 0.0000 0.0000 0.0000 0.0000 28.1059
#
#
#
# Elastic Compliance Matrix: (Units=1/GPa)
#
#
# Indices 1 2 3 4 5 6 
#
# 1 0.134698 0.003040 -0.041743 0.000000 0.000000 0.000000
# 2 0.003040 0.007068 -0.002663 0.000000 0.000000 0.000000
# 3 -0.041743 -0.002663 0.021962 0.000000 0.000000 0.000000
# 4 0.000000 0.000000 0.000000 0.113347 0.000000 0.000000
# 5 0.000000 0.000000 0.000000 0.000000 0.106237 0.000000
# 6 0.000000 0.000000 0.000000 0.000000 0.000000 0.035580
#
#
# Mechanical properties :
#
#
# Convention : Reuss Voigt Hill
#
# Bulk Modulus (GPa) = 12.34624 47.02885 29.68754
# Shear Modulus (GPa) = 9.45854 23.59954 16.52904
#
# Velocity S-wave (km/s) = 2.21601 3.50036 2.92944
# Velocity P-wave (km/s) = 3.59966 6.38383 5.18222
#
# Compressibility (1/GPa) = 0.08099633
#
# Stress axis : x y z
#
# Youngs Moduli (GPa) = 7.42400 141.48217 45.53345
#
# Poissons Ratio (x) = -0.43004 1.90069
# Poissons Ratio (y) = -0.02257 0.12125
# Poissons Ratio (z) = 0.30990 0.37674
#
# Static dielectric constant tensor:
#      x y z
#    x 3.452820 0.000000 0.000000 
#    y 0.000000 3.826850 0.000000 
#    z 0.000000 0.000000 3.131600 
# 
# 
# High freq. dielectric constant tensor:
#      x y z
#    x 1.745470 0.000000 0.000000 
#    y 0.000000 1.772720 0.000000 
#    z 0.000000 0.000000 1.715500 
# 
# From -- ./inp_files/48929.got.cif
#   From: 2010.03.12/outbox.cif.g09.slc.cpg/sg72_25_cif.got.tgz:48929.got - 2010.04.16 14:54:00.
