data_PCOD8293626
_publ_section_title
;
Structure prediction by ZEFSAII (Michael W. Deem and Ramdas Pophale) SiO2 
 PCOD8293626
Probable space group: I B A M
;
_chemical_formula_sum "Si O2"
_cell_formula_units_Z 116
_cell_length_a 27.566520
_cell_length_b 22.526337
_cell_length_c 9.186406
_cell_angle_alpha 90.000000
_cell_angle_beta 90.000000
_cell_angle_gamma 90.000000
_cell_volume 5704.507516
_symmetry_space_group_name_H-M "I B A M"
_symmetry_group_IT_number 72
_symmetry_cell_setting 'orthorhombic'
loop_
_space_group_symop_operation_xyz
x,y,z
-x,-y,z
x,-y,1/2-z
-x,y,1/2-z
-x,-y,-z
x,y,-z
-x,y,1/2+z
x,-y,1/2+z
1/2+x,1/2+y,1/2+z
1/2-x,1/2-y,1/2+z
1/2+x,1/2-y,-z
1/2-x,1/2+y,-z
1/2-x,1/2-y,1/2-z
1/2+x,1/2+y,1/2-z
1/2-x,1/2+y,z
1/2+x,1/2-y,z
loop_
_atom_site_type_symbol
_atom_site_label
_atom_site_fract_x
_atom_site_fract_y
_atom_site_fract_z
Si Si1 0.417634 0.588410 0.839082
Si Si2 0.050535 0.326674 0.329724
Si Si3 0.288870 0.941253 0.674379
Si Si4 0.186733 0.099310 0.167969
Si Si5 0.145048 0.652822 0.329111
Si Si6 0.201969 0.230632 0.168480
Si Si7 0.000000 0.000000 0.750000
Si Si8 0.452164 0.309330 0.164612
O O1 0.363525 0.561764 0.807977
O O2 0.462351 0.541744 0.837097
O O3 0.415551 0.641908 0.724719
O O4 0.417973 0.616490 0.000000
O O5 0.047443 0.345317 0.500000
O O6 0.092662 0.360911 0.243617
O O7 0.064760 0.257690 0.314048
O O8 0.000000 0.340899 0.250000
O O9 0.295341 0.944295 0.500000
O O10 0.233094 0.935539 0.731142
O O11 0.316653 0.885229 0.739257
O O12 0.310497 0.000000 0.750000
O O13 0.183727 0.166945 0.230434
O O14 0.198414 0.106493 0.000000
O O15 0.143682 0.635402 0.500000
O O16 0.159050 0.721663 0.307250
O O17 0.250000 0.250000 0.250000
O O18 0.216002 0.227232 0.000000
O O19 0.500000 0.323949 0.250000
O O20 0.463212 0.324683 0.000000
#
# Coordination Sequence:
#
# PCOD8293626 Si02
#       8
#    16  16  16  16  16  16   4  16
#     4  11  23  40  58  77 110 151 201 261 319 373
#     4  10  21  37  60  92 127 161 198 242 296 360
#     4  11  23  41  63  86 120 161 208 254 303 365
#     4   9  20  38  60  84 115 159 199 250 318 376
#     4  11  22  37  62  94 127 164 204 250 308 371
#     4  10  19  34  58  89 122 156 197 247 311 378
#     4  12  26  36  60  86 110 152 218 276 330 372
#     4  10  20  35  56  82 113 150 193 241 296 360
#
# _framework density 20.334796000000001
#
# number of rings (size 3 to 8) (size 9 to 14) (size 15 to 20)
#    0.000    1.655    2.069    2.690    0.966    3.862 
#    0.000    2.069    0.000    0.414    0.000    2.897 
#    0.000    0.000    0.000    0.000    0.000    0.000 
#
# Total GULP energy -718572.069895 kJ/mol
# GULP energy per Si atom -12389.173619 kJ/mol
# Density = 2.028851 g / cm^3
# Si number density = 20.334796 Si / 1000 Ang^3
#
#
#
# Elastic Constant Matrix: (Units=GPa)
#
#
# Indices 1 2 3 4 5 6 
#
# 1 136.7438 21.6188 58.0309 0.0000 0.0000 0.0000
# 2 21.6188 63.5543 24.1252 0.0000 0.0000 0.0000
# 3 58.0309 24.1252 106.3699 0.0000 0.0000 0.0000
# 4 0.0000 0.0000 0.0000 23.4826 0.0000 0.0000
# 5 0.0000 0.0000 0.0000 0.0000 28.3798 0.0000
# 6 0.0000 0.0000 0.0000 0.0000 0.0000 18.2527
#
#
#
# Elastic Compliance Matrix: (Units=1/GPa)
#
#
# Indices 1 2 3 4 5 6 
#
# 1 0.009629 -0.001402 -0.004935 0.000000 0.000000 0.000000
# 2 -0.001402 0.017421 -0.003186 0.000000 0.000000 0.000000
# 3 -0.004935 -0.003186 0.012816 0.000000 0.000000 0.000000
# 4 0.000000 0.000000 0.000000 0.042585 0.000000 0.000000
# 5 0.000000 0.000000 0.000000 0.000000 0.035236 0.000000
# 6 0.000000 0.000000 0.000000 0.000000 0.000000 0.054786
#
#
# Mechanical properties :
#
#
# Convention : Reuss Voigt Hill
#
# Bulk Modulus (GPa) = 48.03244 57.13529 52.58386
# Shear Modulus (GPa) = 25.19393 27.54921 26.37157
#
# Velocity S-wave (km/s) = 3.52370 3.68473 3.60511
# Velocity P-wave (km/s) = 6.34251 6.80156 6.57604
#
# Compressibility (1/GPa) = 0.02081926
#
# Stress axis : x y z
#
# Youngs Moduli (GPa) = 103.85318 57.40200 78.02601
#
# Poissons Ratio (x) = 0.08048 0.38507
# Poissons Ratio (y) = 0.14560 0.24861
# Poissons Ratio (z) = 0.51253 0.18290
#
# Static dielectric constant tensor:
#      x y z
#    x 3.702300 0.000000 0.000000 
#    y 0.000000 3.550880 0.000000 
#    z 0.000000 0.000000 1.202560 
# 
# 
# High freq. dielectric constant tensor:
#      x y z
#    x 1.803980 0.000000 0.000000 
#    y 0.000000 1.771250 0.000000 
#    z 0.000000 0.000000 1.790000 
# 
# From -- ./inp_files/7257.got.cif
#   From: 2010.03.12/outbox.cif.g09.slc.cpg/sg72_4_cif.got.tgz:7257.got - 2010.04.16 14:54:00.
