data_PCOD8293031
_publ_section_title
;
Structure prediction by ZEFSAII (Michael W. Deem and Ramdas Pophale) SiO2 
 PCOD8293031
Probable space group: I B A M
;
_chemical_formula_sum "Si O2"
_cell_formula_units_Z 112
_cell_length_a 18.257377
_cell_length_b 19.138357
_cell_length_c 17.690523
_cell_angle_alpha 90.000000
_cell_angle_beta 90.000000
_cell_angle_gamma 90.000000
_cell_volume 6181.355303
_symmetry_space_group_name_H-M "I B A M"
_symmetry_group_IT_number 72
_symmetry_cell_setting 'orthorhombic'
loop_
_space_group_symop_operation_xyz
x,y,z
-x,-y,z
x,-y,1/2-z
-x,y,1/2-z
-x,-y,-z
x,y,-z
-x,y,1/2+z
x,-y,1/2+z
1/2+x,1/2+y,1/2+z
1/2-x,1/2-y,1/2+z
1/2+x,1/2-y,-z
1/2-x,1/2+y,-z
1/2-x,1/2-y,1/2-z
1/2+x,1/2+y,1/2-z
1/2-x,1/2+y,z
1/2+x,1/2-y,z
loop_
_atom_site_type_symbol
_atom_site_label
_atom_site_fract_x
_atom_site_fract_y
_atom_site_fract_z
Si Si1 0.945685 0.443084 0.088870
Si Si2 0.380592 0.719166 0.587931
Si Si3 0.170663 0.698507 0.669286
Si Si4 0.276303 0.177916 0.827761
Si Si5 0.222767 0.896427 0.912044
Si Si6 0.219860 0.457947 0.409763
Si Si7 0.019674 0.298079 0.911929
O O1 0.864347 0.459272 0.118494
O O2 0.000000 0.500000 0.126125
O O3 0.972739 0.366000 0.110366
O O4 0.945286 0.452822 0.000000
O O5 0.362327 0.723269 0.500000
O O6 0.336863 0.783174 0.623133
O O7 0.350899 0.643505 0.618951
O O8 0.467226 0.730457 0.602245
O O9 0.203996 0.775288 0.681969
O O10 0.185020 0.657908 0.748085
O O11 0.208727 0.654407 0.603053
O O12 0.086454 0.707729 0.646110
O O13 0.245340 0.109429 0.869815
O O14 0.237462 0.973465 0.877648
O O15 0.216410 0.908680 0.000000
O O16 0.226089 0.450992 0.500000
O O17 0.045260 0.300802 0.000000
#
# Coordination Sequence:
#
# PCOD8293031 Si02
#       7
#    16  16  16  16  16  16  16
#     4   9  16  26  43  69 100 128 158 197 249 310
#     4   9  17  32  51  71  97 132 174 215 256 308
#     4  10  21  33  48  72 102 135 170 211 258 309
#     4  10  20  34  49  70 101 135 172 209 253 311
#     4   9  18  32  51  72  97 132 175 216 256 310
#     4  10  18  31  52  74  97 133 173 211 256 305
#     4  10  18  30  50  74 100 134 171 213 262 307
#
# _framework density 18.119004
#
# number of rings (size 3 to 8) (size 9 to 14) (size 15 to 20)
#    0.000    2.429    1.429    1.714    0.000    5.143 
#    0.000    0.000    0.000    0.857    0.000    4.000 
#    0.000    6.857    0.000    0.286    0.000    0.000 
#
# Total GULP energy -693941.713672 kJ/mol
# GULP energy per Si atom -12391.816316 kJ/mol
# Density = 1.807776 g / cm^3
# Si number density = 18.119004 Si / 1000 Ang^3
#
#
#
# Elastic Constant Matrix: (Units=GPa)
#
#
# Indices 1 2 3 4 5 6 
#
# 1 75.0830 48.0280 28.5636 0.0000 0.0000 0.0000
# 2 48.0280 119.2378 34.1735 0.0000 0.0000 0.0000
# 3 28.5636 34.1735 26.1989 0.0000 0.0000 0.0000
# 4 0.0000 0.0000 0.0000 15.7293 0.0000 0.0000
# 5 0.0000 0.0000 0.0000 0.0000 20.8593 0.0000
# 6 0.0000 0.0000 0.0000 0.0000 0.0000 26.3042
#
#
#
# Elastic Compliance Matrix: (Units=1/GPa)
#
#
# Indices 1 2 3 4 5 6 
#
# 1 0.023592 -0.003403 -0.021282 0.000000 0.000000 0.000000
# 2 -0.003403 0.013885 -0.014401 0.000000 0.000000 0.000000
# 3 -0.021282 -0.014401 0.080157 0.000000 0.000000 0.000000
# 4 0.000000 0.000000 0.000000 0.063575 0.000000 0.000000
# 5 0.000000 0.000000 0.000000 0.000000 0.047940 0.000000
# 6 0.000000 0.000000 0.000000 0.000000 0.000000 0.038017
#
#
# Mechanical properties :
#
#
# Convention : Reuss Voigt Hill
#
# Bulk Modulus (GPa) = 25.34135 49.11665 37.22900
# Shear Modulus (GPa) = 13.94735 19.89553 16.92144
#
# Velocity S-wave (km/s) = 2.77747 3.31728 3.05930
# Velocity P-wave (km/s) = 4.92973 6.46831 5.75071
#
# Compressibility (1/GPa) = 0.03946120
#
# Stress axis : x y z
#
# Youngs Moduli (GPa) = 42.38769 72.02260 12.47557
#
# Poissons Ratio (x) = 0.24510 0.26551
# Poissons Ratio (y) = 0.14425 0.17966
# Poissons Ratio (z) = 0.90210 1.03717
#
# Static dielectric constant tensor:
#      x y z
#    x 3.343980 0.000000 0.000000 
#    y 0.000000 3.581160 0.000000 
#    z 0.000000 0.000000 3.175660 
# 
# 
# High freq. dielectric constant tensor:
#      x y z
#    x 1.681780 0.000000 0.000000 
#    y 0.000000 1.696790 0.000000 
#    z 0.000000 0.000000 1.684300 
# 
# From -- ./inp_files/39200.got.cif
#   From: 2010.03.12/outbox.cif.g09.slc.cpg/sg72_20_cif.got.tgz:39200.got - 2010.04.16 14:54:00.
