data_PCOD8293691
_publ_section_title
;
Structure prediction by ZEFSAII (Michael W. Deem and Ramdas Pophale) SiO2 
 PCOD8293691
Probable space group: I B A M
;
_chemical_formula_sum "Si O2"
_cell_formula_units_Z 96
_cell_length_a 15.393321
_cell_length_b 13.275040
_cell_length_c 23.450032
_cell_angle_alpha 90.000000
_cell_angle_beta 90.000000
_cell_angle_gamma 90.000000
_cell_volume 4791.942564
_symmetry_space_group_name_H-M "I B A M"
_symmetry_group_IT_number 72
_symmetry_cell_setting 'orthorhombic'
loop_
_space_group_symop_operation_xyz
x,y,z
-x,-y,z
x,-y,1/2-z
-x,y,1/2-z
-x,-y,-z
x,y,-z
-x,y,1/2+z
x,-y,1/2+z
1/2+x,1/2+y,1/2+z
1/2-x,1/2-y,1/2+z
1/2+x,1/2-y,-z
1/2-x,1/2+y,-z
1/2-x,1/2-y,1/2-z
1/2+x,1/2+y,1/2-z
1/2-x,1/2+y,z
1/2+x,1/2-y,z
loop_
_atom_site_type_symbol
_atom_site_label
_atom_site_fract_x
_atom_site_fract_y
_atom_site_fract_z
Si Si1 0.843319 0.743636 0.432939
Si Si2 0.066312 0.220682 0.794016
Si Si3 0.950194 0.906205 0.370681
Si Si4 0.401295 0.020360 0.932707
Si Si5 0.309158 0.403096 0.782807
Si Si6 0.316910 0.161942 0.630368
O O1 0.831960 0.750199 0.500000
O O2 0.920948 0.820100 0.415294
O O3 0.871714 0.631806 0.413402
O O4 0.749727 0.768895 0.405630
O O5 0.146670 0.179052 0.757691
O O6 0.094483 0.282164 0.850783
O O7 0.000000 0.278861 0.750000
O O8 0.013237 0.128061 0.820003
O O9 0.863915 0.940597 0.337690
O O10 0.000000 0.000000 0.401857
O O11 0.500000 0.000000 0.913235
O O12 0.337776 0.939361 0.903961
O O13 0.391811 0.006641 0.000000
O O14 0.278390 0.500000 0.750000
O O15 0.221572 0.356480 0.807136
#
# Coordination Sequence:
#
# PCOD8293691 Si02
#       6
#    16  16  16  16  16  16
#     4  10  23  40  61  92 122 153 204 259 307 365
#     4  10  21  37  59  86 119 157 202 241 295 362
#     4  10  19  35  63  85 114 154 195 243 296 358
#     4  10  22  43  65  86 121 165 203 252 318 371
#     4  10  20  35  56  84 119 155 189 237 296 358
#     4  11  23  38  61  86 118 159 201 249 299 358
#
# _framework density 20.033629999999999
#
# number of rings (size 3 to 8) (size 9 to 14) (size 15 to 20)
#    0.000    1.833    1.667    2.000    2.333    0.333 
#    3.000    0.833    0.000    0.000    0.000    0.000 
#    0.000    0.000    0.000    0.000    0.000    0.000 
#
# Total GULP energy -594872.193498 kJ/mol
# GULP energy per Si atom -12393.170698 kJ/mol
# Density = 1.998803 g / cm^3
# Si number density = 20.033630 Si / 1000 Ang^3
#
#
#
# Elastic Constant Matrix: (Units=GPa)
#
#
# Indices 1 2 3 4 5 6 
#
# 1 87.7713 52.7066 36.8278 0.0000 0.0000 0.0000
# 2 52.7066 126.2756 49.7753 0.0000 0.0000 0.0000
# 3 36.8278 49.7753 78.1346 0.0000 0.0000 0.0000
# 4 0.0000 0.0000 0.0000 33.7469 0.0000 0.0000
# 5 0.0000 0.0000 0.0000 0.0000 36.7672 0.0000
# 6 0.0000 0.0000 0.0000 0.0000 0.0000 35.1925
#
#
#
# Elastic Compliance Matrix: (Units=1/GPa)
#
#
# Indices 1 2 3 4 5 6 
#
# 1 0.016295 -0.005039 -0.004470 0.000000 0.000000 0.000000
# 2 -0.005039 0.012133 -0.005354 0.000000 0.000000 0.000000
# 3 -0.004470 -0.005354 0.018316 0.000000 0.000000 0.000000
# 4 0.000000 0.000000 0.000000 0.029632 0.000000 0.000000
# 5 0.000000 0.000000 0.000000 0.000000 0.027198 0.000000
# 6 0.000000 0.000000 0.000000 0.000000 0.000000 0.028415
#
#
# Mechanical properties :
#
#
# Convention : Reuss Voigt Hill
#
# Bulk Modulus (GPa) = 58.76456 63.42232 61.09344
# Shear Modulus (GPa) = 29.87049 31.33278 30.60164
#
# Velocity S-wave (km/s) = 3.86556 3.95905 3.91258
# Velocity P-wave (km/s) = 7.02282 7.25434 7.13952
#
# Compressibility (1/GPa) = 0.01701706
#
# Stress axis : x y z
#
# Youngs Moduli (GPa) = 61.36850 82.41952 54.59668
#
# Poissons Ratio (x) = 0.41534 0.24405
# Poissons Ratio (y) = 0.30926 0.29231
# Poissons Ratio (z) = 0.27432 0.44128
#
# Static dielectric constant tensor:
#      x y z
#    x 3.818500 0.000000 0.000000 
#    y 0.000000 3.553690 0.000000 
#    z 0.000000 0.000000 3.582090 
# 
# 
# High freq. dielectric constant tensor:
#      x y z
#    x 1.788920 0.000000 0.000000 
#    y 0.000000 1.773780 0.000000 
#    z 0.000000 0.000000 1.777370 
# 
# From -- ./inp_files/38056.got.cif
#   From: 2010.03.12/outbox.cif.g09.slc.cpg/sg72_20_cif.got.tgz:38056.got - 2010.04.16 14:54:00.
