data_PCOD8293905
_publ_section_title
;
Structure prediction by ZEFSAII (Michael W. Deem and Ramdas Pophale) SiO2 
 PCOD8293905
Probable space group: I B A M
;
_chemical_formula_sum "Si O2"
_cell_formula_units_Z 112
_cell_length_a 18.423698
_cell_length_b 18.397507
_cell_length_c 18.020183
_cell_angle_alpha 90.000000
_cell_angle_beta 90.000000
_cell_angle_gamma 90.000000
_cell_volume 6107.943063
_symmetry_space_group_name_H-M "I B A M"
_symmetry_group_IT_number 72
_symmetry_cell_setting 'orthorhombic'
loop_
_space_group_symop_operation_xyz
x,y,z
-x,-y,z
x,-y,1/2-z
-x,y,1/2-z
-x,-y,-z
x,y,-z
-x,y,1/2+z
x,-y,1/2+z
1/2+x,1/2+y,1/2+z
1/2-x,1/2-y,1/2+z
1/2+x,1/2-y,-z
1/2-x,1/2+y,-z
1/2-x,1/2-y,1/2-z
1/2+x,1/2+y,1/2-z
1/2-x,1/2+y,z
1/2+x,1/2-y,z
loop_
_atom_site_type_symbol
_atom_site_label
_atom_site_fract_x
_atom_site_fract_y
_atom_site_fract_z
Si Si1 0.282567 0.865812 0.338945
Si Si2 0.453264 0.221928 0.649435
Si Si3 0.270180 0.637136 0.674329
Si Si4 0.105314 0.755430 0.189467
Si Si5 0.206656 0.483899 0.915528
Si Si6 0.545134 0.069262 0.915343
Si Si7 0.812465 0.758937 0.084108
O O1 0.263781 0.879711 0.253855
O O2 0.347283 0.807886 0.348263
O O3 0.212201 0.836166 0.382852
O O4 0.307024 0.939944 0.376152
O O5 0.529249 0.265428 0.646313
O O6 0.411355 0.232721 0.726605
O O7 0.472963 0.137306 0.637085
O O8 0.400103 0.252969 0.585954
O O9 0.351743 0.668071 0.684118
O O10 0.268800 0.562793 0.626734
O O11 0.220455 0.695710 0.634012
O O12 0.131092 0.441699 0.911757
O O13 0.232144 0.495561 0.000000
O O14 0.500000 0.000000 0.885106
O O15 0.520826 0.085507 0.000000
O O16 0.785422 0.750165 0.000000
#
# Coordination Sequence:
#
# PCOD8293905 Si02
#       7
#    16  16  16  16  16  16  16
#     4  11  20  37  56  87 113 149 192 241 287 340
#     4  11  19  35  56  83 113 148 195 236 287 340
#     4  11  20  38  57  82 112 155 195 237 286 349
#     4  10  21  35  57  83 114 144 194 247 279 340
#     4  11  22  35  55  83 118 154 191 236 291 347
#     4  10  20  34  51  78 119 159 186 219 279 352
#     4  11  20  35  58  82 114 152 194 238 287 344
#
# _framework density 18.336779
#
# number of rings (size 3 to 8) (size 9 to 14) (size 15 to 20)
#    0.000    1.286    4.286    3.429    0.000    0.000 
#    0.000   12.143    0.000    0.857    0.000    2.000 
#    0.000    0.000    0.000    0.000    0.000    0.000 
#
# Total GULP energy -694453.473243 kJ/mol
# GULP energy per Si atom -12400.954879 kJ/mol
# Density = 1.829504 g / cm^3
# Si number density = 18.336779 Si / 1000 Ang^3
#
#
#
# Elastic Constant Matrix: (Units=GPa)
#
#
# Indices 1 2 3 4 5 6 
#
# 1 85.2899 23.9643 29.2717 0.0000 0.0000 0.0000
# 2 23.9643 48.9820 22.5384 0.0000 0.0000 0.0000
# 3 29.2717 22.5384 103.8743 0.0000 0.0000 0.0000
# 4 0.0000 0.0000 0.0000 4.8258 0.0000 0.0000
# 5 0.0000 0.0000 0.0000 0.0000 24.1411 0.0000
# 6 0.0000 0.0000 0.0000 0.0000 0.0000 31.4034
#
#
#
# Elastic Compliance Matrix: (Units=1/GPa)
#
#
# Indices 1 2 3 4 5 6 
#
# 1 0.014285 -0.005706 -0.002787 0.000000 0.000000 0.000000
# 2 -0.005706 0.024959 -0.003808 0.000000 0.000000 0.000000
# 3 -0.002787 -0.003808 0.011239 0.000000 0.000000 0.000000
# 4 0.000000 0.000000 0.000000 0.207221 0.000000 0.000000
# 5 0.000000 0.000000 0.000000 0.000000 0.041423 0.000000
# 6 0.000000 0.000000 0.000000 0.000000 0.000000 0.031844
#
#
# Mechanical properties :
#
#
# Convention : Reuss Voigt Hill
#
# Bulk Modulus (GPa) = 38.63915 43.29944 40.96930
# Shear Modulus (GPa) = 13.72873 22.89884 18.31378
#
# Velocity S-wave (km/s) = 2.73921 3.53766 3.16372
# Velocity P-wave (km/s) = 5.57871 6.35228 5.97802
#
# Compressibility (1/GPa) = 0.02588049
#
# Stress axis : x y z
#
# Youngs Moduli (GPa) = 70.00536 40.06504 88.97869
#
# Poissons Ratio (x) = 0.22862 0.24801
# Poissons Ratio (y) = 0.39946 0.33880
# Poissons Ratio (z) = 0.19512 0.15255
#
# Static dielectric constant tensor:
#      x y z
#    x 3.534040 0.000000 0.000000 
#    y 0.000000 3.387230 0.000000 
#    z 0.000000 0.000000 3.517190 
# 
# 
# High freq. dielectric constant tensor:
#      x y z
#    x 1.702160 0.000000 0.000000 
#    y 0.000000 1.693680 0.000000 
#    z 0.000000 0.000000 1.717440 
# 
# From -- ./inp_files/32766.got.cif
#   From: 2010.03.12/outbox.cif.g09.slc.cpg/sg72_17_cif.got.tgz:32766.got - 2010.04.16 14:54:00.
