data_PCOD8293870
_publ_section_title
;
Structure prediction by ZEFSAII (Michael W. Deem and Ramdas Pophale) SiO2 
 PCOD8293870
Probable space group: I B A M
;
_chemical_formula_sum "Si O2"
_cell_formula_units_Z 96
_cell_length_a 23.537382
_cell_length_b 24.136959
_cell_length_c 9.112721
_cell_angle_alpha 90.000000
_cell_angle_beta 90.000000
_cell_angle_gamma 90.000000
_cell_volume 5177.126566
_symmetry_space_group_name_H-M "I B A M"
_symmetry_group_IT_number 72
_symmetry_cell_setting 'orthorhombic'
loop_
_space_group_symop_operation_xyz
x,y,z
-x,-y,z
x,-y,1/2-z
-x,y,1/2-z
-x,-y,-z
x,y,-z
-x,y,1/2+z
x,-y,1/2+z
1/2+x,1/2+y,1/2+z
1/2-x,1/2-y,1/2+z
1/2+x,1/2-y,-z
1/2-x,1/2+y,-z
1/2-x,1/2-y,1/2-z
1/2+x,1/2+y,1/2-z
1/2-x,1/2+y,z
1/2+x,1/2-y,z
loop_
_atom_site_type_symbol
_atom_site_label
_atom_site_fract_x
_atom_site_fract_y
_atom_site_fract_z
Si Si1 0.766534 0.159236 0.325612
Si Si2 0.869870 0.769921 0.173391
Si Si3 0.163844 0.943903 0.670437
Si Si4 0.138357 0.339279 0.672884
Si Si5 0.557702 0.625906 0.669512
Si Si6 0.940253 0.442718 0.824046
O O1 0.766787 0.157165 0.500000
O O2 0.805859 0.211476 0.276369
O O3 0.794453 0.102949 0.265335
O O4 0.702629 0.160584 0.264094
O O5 0.890563 0.713887 0.252239
O O6 0.913615 0.817233 0.224632
O O7 0.871960 0.761033 0.000000
O O8 0.175050 0.952788 0.500000
O O9 0.099181 0.925649 0.700437
O O10 0.178949 0.000000 0.750000
O O11 0.137195 0.330719 0.500000
O O12 0.105385 0.395340 0.715861
O O13 0.500000 0.612930 0.750000
O O14 0.543892 0.631695 0.500000
O O15 0.918829 0.500000 0.750000
O O16 0.000000 0.425827 0.750000
O O17 0.947209 0.449823 0.000000
#
# Coordination Sequence:
#
# PCOD8293870 Si02
#       6
#    16  16  16  16  16  16
#     4   8  16  33  52  71 101 134 161 197 245 291
#     4   9  18  33  52  73 100 133 164 198 243 291
#     4   9  18  33  51  71  98 131 165 203 247 291
#     4  10  20  33  53  79 101 126 162 201 242 290
#     4   9  19  34  50  70  98 132 167 204 246 288
#     4  10  21  37  55  74  99 130 162 200 245 290
#
# _framework density 18.543105000000001
#
# number of rings (size 3 to 8) (size 9 to 14) (size 15 to 20)
#    0.000    2.833    0.000    3.500    0.000    4.333 
#    0.000    8.333    0.000    0.000    0.000    0.000 
#    0.000    0.000    0.000    0.000    0.000    0.000 
#
# Total GULP energy -594986.888398 kJ/mol
# GULP energy per Si atom -12395.560175 kJ/mol
# Density = 1.850090 g / cm^3
# Si number density = 18.543105 Si / 1000 Ang^3
#
#
#
# Elastic Constant Matrix: (Units=GPa)
#
#
# Indices 1 2 3 4 5 6 
#
# 1 45.9194 15.4714 14.3651 0.0000 0.0000 0.0000
# 2 15.4714 115.8342 31.3215 0.0000 0.0000 0.0000
# 3 14.3651 31.3215 35.7050 0.0000 0.0000 0.0000
# 4 0.0000 0.0000 0.0000 34.0561 0.0000 0.0000
# 5 0.0000 0.0000 0.0000 0.0000 19.4832 0.0000
# 6 0.0000 0.0000 0.0000 0.0000 0.0000 22.9295
#
#
#
# Elastic Compliance Matrix: (Units=1/GPa)
#
#
# Indices 1 2 3 4 5 6 
#
# 1 0.024971 -0.000811 -0.009335 0.000000 0.000000 0.000000
# 2 -0.000811 0.011344 -0.009625 0.000000 0.000000 0.000000
# 3 -0.009335 -0.009625 0.040206 0.000000 0.000000 0.000000
# 4 0.000000 0.000000 0.000000 0.029363 0.000000 0.000000
# 5 0.000000 0.000000 0.000000 0.000000 0.051326 0.000000
# 6 0.000000 0.000000 0.000000 0.000000 0.000000 0.043612
#
#
# Mechanical properties :
#
#
# Convention : Reuss Voigt Hill
#
# Bulk Modulus (GPa) = 27.04231 35.53051 31.28641
# Shear Modulus (GPa) = 19.78701 24.38045 22.08373
#
# Velocity S-wave (km/s) = 3.27017 3.62995 3.45474
# Velocity P-wave (km/s) = 5.37343 6.06394 5.72910
#
# Compressibility (1/GPa) = 0.03697909
#
# Stress axis : x y z
#
# Youngs Moduli (GPa) = 40.04671 88.15285 24.87175
#
# Poissons Ratio (x) = 0.07150 0.23218
# Poissons Ratio (y) = 0.03248 0.23939
# Poissons Ratio (z) = 0.37384 0.84846
#
# Static dielectric constant tensor:
#      x y z
#    x 3.744880 0.000000 0.000000 
#    y 0.000000 3.438340 0.000000 
#    z 0.000000 0.000000 3.136280 
# 
# 
# High freq. dielectric constant tensor:
#      x y z
#    x 1.717260 0.000000 0.000000 
#    y 0.000000 1.726490 0.000000 
#    z 0.000000 0.000000 1.698250 
# 
# From -- ./inp_files/6983.got.cif
#   From: 2010.03.12/outbox.cif.g09.slc.cpg/sg72_4_cif.got.tgz:6983.got - 2010.04.16 14:54:00.
