data_PCOD8293494
_publ_section_title
;
Structure prediction by ZEFSAII (Michael W. Deem and Ramdas Pophale) SiO2 
 PCOD8293494
Probable space group: I B A M
;
_chemical_formula_sum "Si O2"
_cell_formula_units_Z 96
_cell_length_a 27.918693
_cell_length_b 20.573740
_cell_length_c 8.690823
_cell_angle_alpha 90.000000
_cell_angle_beta 90.000000
_cell_angle_gamma 90.000000
_cell_volume 4991.938604
_symmetry_space_group_name_H-M "I B A M"
_symmetry_group_IT_number 72
_symmetry_cell_setting 'orthorhombic'
loop_
_space_group_symop_operation_xyz
x,y,z
-x,-y,z
x,-y,1/2-z
-x,y,1/2-z
-x,-y,-z
x,y,-z
-x,y,1/2+z
x,-y,1/2+z
1/2+x,1/2+y,1/2+z
1/2-x,1/2-y,1/2+z
1/2+x,1/2-y,-z
1/2-x,1/2+y,-z
1/2-x,1/2-y,1/2-z
1/2+x,1/2+y,1/2-z
1/2-x,1/2+y,z
1/2+x,1/2-y,z
loop_
_atom_site_type_symbol
_atom_site_label
_atom_site_fract_x
_atom_site_fract_y
_atom_site_fract_z
Si Si1 0.887197 0.568130 0.682210
Si Si2 0.215698 0.568163 0.317969
Si Si3 0.221825 0.810027 0.818112
Si Si4 0.552234 0.808954 0.818192
Si Si5 0.051613 0.931834 0.182789
Si Si6 0.885883 0.188827 0.817295
O O1 0.905808 0.500000 0.750000
O O2 0.882575 0.562727 0.500000
O O3 0.835703 0.587060 0.749444
O O4 0.924873 0.622795 0.733432
O O5 0.234218 0.500000 0.250000
O O6 0.210921 0.561939 0.500000
O O7 0.253213 0.623007 0.267204
O O8 0.250000 0.750000 0.750000
O O9 0.167958 0.809985 0.751107
O O10 0.221675 0.802950 0.000000
O O11 0.500000 0.801959 0.750000
O O12 0.585238 0.750860 0.752678
O O13 0.548501 0.804123 0.000000
O O14 0.088558 0.876993 0.238350
O O15 0.000000 0.913655 0.250000
O O16 0.070263 0.000000 0.250000
O O17 0.047794 0.936517 0.000000
O O18 0.884486 0.191346 0.000000
#
# Coordination Sequence:
#
# PCOD8293494 Si02
#       6
#    16  16  16  16  16  16
#     4  10  20  35  56  79 106 140 174 212 259 311
#     4  10  20  34  55  81 108 140 176 216 261 310
#     4  10  21  37  56  79 107 139 177 219 263 312
#     4  10  21  36  55  77 102 136 174 214 260 307
#     4  10  19  33  54  77 104 137 171 211 256 305
#     4   9  19  36  55  75 103 138 173 211 258 308
#
# _framework density 19.231007000000002
#
# number of rings (size 3 to 8) (size 9 to 14) (size 15 to 20)
#    0.000    2.167    0.000    4.500    0.000    5.000 
#    0.000    5.000    0.000    0.000    0.000    0.000 
#    0.000    0.000    0.000    0.000    0.000    0.000 
#
# Total GULP energy -595294.224277 kJ/mol
# GULP energy per Si atom -12401.963006 kJ/mol
# Density = 1.918724 g / cm^3
# Si number density = 19.231007 Si / 1000 Ang^3
#
#
#
# Elastic Constant Matrix: (Units=GPa)
#
#
# Indices 1 2 3 4 5 6 
#
# 1 156.4646 110.5761 28.0427 0.0000 0.0000 0.0000
# 2 110.5761 173.1274 41.7742 0.0000 0.0000 0.0000
# 3 28.0427 41.7742 52.4874 0.0000 0.0000 0.0000
# 4 0.0000 0.0000 0.0000 29.1817 0.0000 0.0000
# 5 0.0000 0.0000 0.0000 0.0000 26.0120 0.0000
# 6 0.0000 0.0000 0.0000 0.0000 0.0000 43.9130
#
#
#
# Elastic Compliance Matrix: (Units=1/GPa)
#
#
# Indices 1 2 3 4 5 6 
#
# 1 0.011656 -0.007354 -0.000374 0.000000 0.000000 0.000000
# 2 -0.007354 0.011789 -0.005454 0.000000 0.000000 0.000000
# 3 -0.000374 -0.005454 0.023593 0.000000 0.000000 0.000000
# 4 0.000000 0.000000 0.000000 0.034268 0.000000 0.000000
# 5 0.000000 0.000000 0.000000 0.000000 0.038444 0.000000
# 6 0.000000 0.000000 0.000000 0.000000 0.000000 0.022772
#
#
# Mechanical properties :
#
#
# Convention : Reuss Voigt Hill
#
# Bulk Modulus (GPa) = 48.37162 82.54059 65.45610
# Shear Modulus (GPa) = 28.44522 33.26709 30.85615
#
# Velocity S-wave (km/s) = 3.85012 4.16368 4.00997
# Velocity P-wave (km/s) = 6.70613 8.13196 7.45322
#
# Compressibility (1/GPa) = 0.02067328
#
# Stress axis : x y z
#
# Youngs Moduli (GPa) = 85.79621 84.82453 42.38602
#
# Poissons Ratio (x) = 0.62380 0.01586
# Poissons Ratio (y) = 0.63095 0.23116
# Poissons Ratio (z) = 0.03211 0.46261
#
# Static dielectric constant tensor:
#      x y z
#    x 3.632540 0.000000 0.000000 
#    y 0.000000 3.731590 0.000000 
#    z 0.000000 0.000000 2.634070 
# 
# 
# High freq. dielectric constant tensor:
#      x y z
#    x 1.750770 0.000000 0.000000 
#    y 0.000000 1.766050 0.000000 
#    z 0.000000 0.000000 1.735540 
# 
# From -- ./inp_files/8081.got.cif
#   From: 2010.03.12/outbox.cif.g09.slc.cpg/sg72_5_cif.got.tgz:8081.got - 2010.04.16 14:54:00.
