data_PCOD8293273
_publ_section_title
;
Structure prediction by ZEFSAII (Michael W. Deem and Ramdas Pophale) SiO2 
 PCOD8293273
Probable space group: I B A M
;
_chemical_formula_sum "Si O2"
_cell_formula_units_Z 80
_cell_length_a 24.109286
_cell_length_b 23.186820
_cell_length_c 8.743338
_cell_angle_alpha 90.000000
_cell_angle_beta 90.000000
_cell_angle_gamma 90.000000
_cell_volume 4887.680479
_symmetry_space_group_name_H-M "I B A M"
_symmetry_group_IT_number 72
_symmetry_cell_setting 'orthorhombic'
loop_
_space_group_symop_operation_xyz
x,y,z
-x,-y,z
x,-y,1/2-z
-x,y,1/2-z
-x,-y,-z
x,y,-z
-x,y,1/2+z
x,-y,1/2+z
1/2+x,1/2+y,1/2+z
1/2-x,1/2-y,1/2+z
1/2+x,1/2-y,-z
1/2-x,1/2+y,-z
1/2-x,1/2-y,1/2-z
1/2+x,1/2+y,1/2-z
1/2-x,1/2+y,z
1/2+x,1/2-y,z
loop_
_atom_site_type_symbol
_atom_site_label
_atom_site_fract_x
_atom_site_fract_y
_atom_site_fract_z
Si Si1 0.772186 0.661155 0.824404
Si Si2 0.442568 0.885176 0.178480
Si Si3 0.834191 0.560757 0.320067
Si Si4 0.667795 0.732713 0.823328
Si Si5 0.557336 0.750314 0.678366
O O1 0.785861 0.605773 0.722716
O O2 0.707604 0.677361 0.801954
O O3 0.810275 0.714554 0.776926
O O4 0.786373 0.646976 0.000000
O O5 0.500000 0.907437 0.250000
O O6 0.393150 0.919920 0.254957
O O7 0.434482 0.817797 0.213254
O O8 0.443190 0.898492 0.000000
O O9 0.816484 0.500000 0.250000
O O10 0.838918 0.555352 0.500000
O O11 0.607015 0.715926 0.761704
O O12 0.665501 0.751891 0.000000
O O13 0.500000 0.727959 0.750000
O O14 0.557586 0.736266 0.500000
#
# Coordination Sequence:
#
# PCOD8293273 Si02
#       5
#    16  16  16  16  16
#     4  10  20  34  50  72  98 126 162 201 243 292
#     4  10  20  34  50  69  94 126 165 208 247 288
#     4  12  24  37  53  70  94 127 165 209 250 292
#     4  10  19  31  51  74  99 128 160 198 242 292
#     4  10  19  30  48  71 101 131 162 201 242 289
#
# _framework density 16.367681000000001
#
# number of rings (size 3 to 8) (size 9 to 14) (size 15 to 20)
#    0.000    1.600    2.000    4.200    0.000    4.400 
#    0.000    2.000    0.000    0.000    0.000    0.000 
#    0.000    0.800    0.000    8.400    0.000    3.600 
#
# Total GULP energy -496165.620160 kJ/mol
# GULP energy per Si atom -12404.140504 kJ/mol
# Density = 1.633043 g / cm^3
# Si number density = 16.367681 Si / 1000 Ang^3
#
#
#
# Elastic Constant Matrix: (Units=GPa)
#
#
# Indices 1 2 3 4 5 6 
#
# 1 117.0642 39.5404 48.6842 0.0000 0.0000 0.0000
# 2 39.5404 57.3818 33.7344 0.0000 0.0000 0.0000
# 3 48.6842 33.7344 104.1369 0.0000 0.0000 0.0000
# 4 0.0000 0.0000 0.0000 22.2815 0.0000 0.0000
# 5 0.0000 0.0000 0.0000 0.0000 31.6437 0.0000
# 6 0.0000 0.0000 0.0000 0.0000 0.0000 18.2902
#
#
#
# Elastic Compliance Matrix: (Units=1/GPa)
#
#
# Indices 1 2 3 4 5 6 
#
# 1 0.012174 -0.006229 -0.003673 0.000000 0.000000 0.000000
# 2 -0.006229 0.024714 -0.005094 0.000000 0.000000 0.000000
# 3 -0.003673 -0.005094 0.012970 0.000000 0.000000 0.000000
# 4 0.000000 0.000000 0.000000 0.044880 0.000000 0.000000
# 5 0.000000 0.000000 0.000000 0.000000 0.031602 0.000000
# 6 0.000000 0.000000 0.000000 0.000000 0.000000 0.054674
#
#
# Mechanical properties :
#
#
# Convention : Reuss Voigt Hill
#
# Bulk Modulus (GPa) = 50.33881 58.05567 54.19724
# Shear Modulus (GPa) = 22.97484 24.88468 23.92976
#
# Velocity S-wave (km/s) = 3.75062 3.90340 3.82778
# Velocity P-wave (km/s) = 7.04117 7.47409 7.26086
#
# Compressibility (1/GPa) = 0.01986539
#
# Stress axis : x y z
#
# Youngs Moduli (GPa) = 82.14192 40.46272 77.09975
#
# Poissons Ratio (x) = 0.25205 0.28323
# Poissons Ratio (y) = 0.51168 0.39273
# Poissons Ratio (z) = 0.30175 0.20611
#
# Static dielectric constant tensor:
#      x y z
#    x 3.282230 0.000000 0.000000 
#    y 0.000000 2.840490 0.000000 
#    z 0.000000 0.000000 3.240980 
# 
# 
# High freq. dielectric constant tensor:
#      x y z
#    x 1.634250 0.000000 0.000000 
#    y 0.000000 1.580150 0.000000 
#    z 0.000000 0.000000 1.653670 
# 
# From -- ./inp_files/4827.got.cif
#   From: 2010.03.12/outbox.cif.g09.slc.cpg/sg72_3_cif.got.tgz:4827.got - 2010.04.16 14:54:00.
