data_PCOD8293832
_publ_section_title
;
Structure prediction by ZEFSAII (Michael W. Deem and Ramdas Pophale) SiO2 
 PCOD8293832
Probable space group: I B A M
;
_chemical_formula_sum "Si O2"
_cell_formula_units_Z 112
_cell_length_a 22.576271
_cell_length_b 12.504426
_cell_length_c 23.002973
_cell_angle_alpha 90.000000
_cell_angle_beta 90.000000
_cell_angle_gamma 90.000000
_cell_volume 6493.815419
_symmetry_space_group_name_H-M "I B A M"
_symmetry_group_IT_number 72
_symmetry_cell_setting 'orthorhombic'
loop_
_space_group_symop_operation_xyz
x,y,z
-x,-y,z
x,-y,1/2-z
-x,y,1/2-z
-x,-y,-z
x,y,-z
-x,y,1/2+z
x,-y,1/2+z
1/2+x,1/2+y,1/2+z
1/2-x,1/2-y,1/2+z
1/2+x,1/2-y,-z
1/2-x,1/2+y,-z
1/2-x,1/2-y,1/2-z
1/2+x,1/2+y,1/2-z
1/2-x,1/2+y,z
1/2+x,1/2-y,z
loop_
_atom_site_type_symbol
_atom_site_label
_atom_site_fract_x
_atom_site_fract_y
_atom_site_fract_z
Si Si1 0.668500 0.274848 0.796834
Si Si2 0.957198 0.259532 0.875099
Si Si3 0.902176 0.461104 0.184267
Si Si4 0.938167 0.878014 0.728337
Si Si5 0.221140 0.402085 0.714672
Si Si6 0.913616 0.330294 0.617203
Si Si7 0.920131 0.581403 0.000000
Si Si8 0.055442 0.344527 0.500000
O O1 0.620106 0.329590 0.756340
O O2 0.722741 0.350094 0.817565
O O3 0.692911 0.175528 0.761910
O O4 0.639593 0.235695 0.855780
O O5 0.938158 0.355020 0.831802
O O6 0.936397 0.149021 0.841982
O O7 0.930769 0.275044 0.941006
O O8 0.027934 0.257404 0.881578
O O9 0.911699 0.500000 0.250000
O O10 0.831904 0.439196 0.171868
O O11 0.928090 0.556379 0.146383
O O12 0.000000 0.823880 0.750000
O O13 0.939399 0.000000 0.750000
O O14 0.248837 0.500000 0.750000
O O15 0.890167 0.359890 0.553876
O O16 0.905933 0.453880 0.000000
O O17 0.989511 0.609745 0.000000
#
# Coordination Sequence:
#
# PCOD8293832 Si02
#       8
#    16  16  16  16  16  16   8   8
#     4  11  20  33  52  74 102 142 174 217 276 322
#     4  11  20  33  53  81 117 142 173 217 270 335
#     4  11  19  30  49  82 112 137 168 217 273 329
#     4  11  22  35  52  78 110 136 179 228 275 319
#     4  10  20  33  48  76 106 134 177 217 270 325
#     4  11  19  32  52  78 112 142 172 212 271 328
#     4   9  18  30  48  80 111 144 172 208 261 331
#     4   9  18  32  50  79 114 149 171 206 266 328
#
# _framework density 17.247178999999999
#
# number of rings (size 3 to 8) (size 9 to 14) (size 15 to 20)
#    0.000    1.429    7.143    0.857    0.000    0.571 
#    0.000    0.000    0.000    4.286    0.000    0.000 
#    0.000    0.000    0.000    0.000    0.000    0.000 
#
# Total GULP energy -693743.758058 kJ/mol
# GULP energy per Si atom -12388.281394 kJ/mol
# Density = 1.720792 g / cm^3
# Si number density = 17.247179 Si / 1000 Ang^3
#
#
#
# Elastic Constant Matrix: (Units=GPa)
#
#
# Indices 1 2 3 4 5 6 
#
# 1 72.3660 24.2092 32.5449 0.0000 0.0000 0.0000
# 2 24.2092 85.0094 46.6495 0.0000 0.0000 0.0000
# 3 32.5449 46.6495 126.1813 0.0000 0.0000 0.0000
# 4 0.0000 0.0000 0.0000 24.8094 0.0000 0.0000
# 5 0.0000 0.0000 0.0000 0.0000 15.7586 0.0000
# 6 0.0000 0.0000 0.0000 0.0000 0.0000 28.3911
#
#
#
# Elastic Compliance Matrix: (Units=1/GPa)
#
#
# Indices 1 2 3 4 5 6 
#
# 1 0.016186 -0.002909 -0.003099 0.000000 0.000000 0.000000
# 2 -0.002909 0.015280 -0.004899 0.000000 0.000000 0.000000
# 3 -0.003099 -0.004899 0.010536 0.000000 0.000000 0.000000
# 4 0.000000 0.000000 0.000000 0.040307 0.000000 0.000000
# 5 0.000000 0.000000 0.000000 0.000000 0.063458 0.000000
# 6 0.000000 0.000000 0.000000 0.000000 0.000000 0.035222
#
#
# Mechanical properties :
#
#
# Convention : Reuss Voigt Hill
#
# Bulk Modulus (GPa) = 49.53529 54.48489 52.01009
# Shear Modulus (GPa) = 23.86281 25.80201 24.83241
#
# Velocity S-wave (km/s) = 3.72368 3.87203 3.79858
# Velocity P-wave (km/s) = 6.87538 7.18675 7.03279
#
# Compressibility (1/GPa) = 0.02018763
#
# Stress axis : x y z
#
# Youngs Moduli (GPa) = 61.78359 65.44499 94.91628
#
# Poissons Ratio (x) = 0.19035 0.29417
# Poissons Ratio (y) = 0.17970 0.46498
# Poissons Ratio (z) = 0.19148 0.32061
#
# Static dielectric constant tensor:
#      x y z
#    x 3.408600 0.000000 0.000000 
#    y 0.000000 3.241150 0.000000 
#    z 0.000000 0.000000 3.004000 
# 
# 
# High freq. dielectric constant tensor:
#      x y z
#    x 1.655180 0.000000 0.000000 
#    y 0.000000 1.659950 0.000000 
#    z 0.000000 0.000000 1.646210 
# 
# From -- ./inp_files/45769.got.cif
#   From: 2010.03.12/outbox.cif.g09.slc.cpg/sg72_23_cif.got.tgz:45769.got - 2010.04.16 14:54:00.
