data_PCOD8293895
_publ_section_title
;
Structure prediction by ZEFSAII (Michael W. Deem and Ramdas Pophale) SiO2 
 PCOD8293895
Probable space group: I B A M
;
_chemical_formula_sum "Si O2"
_cell_formula_units_Z 92
_cell_length_a 17.426483
_cell_length_b 18.559413
_cell_length_c 14.794990
_cell_angle_alpha 90.000000
_cell_angle_beta 90.000000
_cell_angle_gamma 90.000000
_cell_volume 4785.074007
_symmetry_space_group_name_H-M "I B A M"
_symmetry_group_IT_number 72
_symmetry_cell_setting 'orthorhombic'
loop_
_space_group_symop_operation_xyz
x,y,z
-x,-y,z
x,-y,1/2-z
-x,y,1/2-z
-x,-y,-z
x,y,-z
-x,y,1/2+z
x,-y,1/2+z
1/2+x,1/2+y,1/2+z
1/2-x,1/2-y,1/2+z
1/2+x,1/2-y,-z
1/2-x,1/2+y,-z
1/2-x,1/2-y,1/2-z
1/2+x,1/2+y,1/2-z
1/2-x,1/2+y,z
1/2+x,1/2-y,z
loop_
_atom_site_type_symbol
_atom_site_label
_atom_site_fract_x
_atom_site_fract_y
_atom_site_fract_z
Si Si1 0.247113 0.842723 0.895948
Si Si2 0.198971 0.311370 0.600277
Si Si3 0.474622 0.241791 0.098772
Si Si4 0.000000 0.359441 0.750000
Si Si5 0.336426 0.082744 0.752410
Si Si6 0.500000 0.500000 0.750000
Si Si7 0.922775 0.102980 0.105607
O O1 0.249334 0.757741 0.870483
O O2 0.314368 0.881986 0.842252
O O3 0.165214 0.878051 0.873868
O O4 0.266998 0.852987 0.000000
O O5 0.222412 0.337885 0.500000
O O6 0.112029 0.285453 0.600913
O O7 0.211777 0.377639 0.668441
O O8 0.523378 0.193927 0.168056
O O9 0.476042 0.326680 0.121290
O O10 0.510797 0.229062 0.000000
O O11 0.927433 0.409973 0.770292
O O12 0.312702 0.000000 0.750000
O O13 0.447065 0.545450 0.681265
O O14 0.931840 0.076817 0.000000
#
# Coordination Sequence:
#
# PCOD8293895 Si02
#       7
#    16  16  16   8  16   4  16
#     4   9  19  37  58  76 103 145 191 229 267 323
#     4   8  16  34  56  75  98 135 179 225 270 318
#     4   8  15  31  53  71  96 136 178 222 269 313
#     4  10  20  34  50  78 108 142 186 230 265 323
#     4  11  22  33  53  80 114 147 181 223 281 331
#     4  12  20  28  56  80 112 146 168 208 280 344
#     4   9  19  34  52  79 109 139 179 224 272 327
#
# _framework density 19.226454
#
# number of rings (size 3 to 8) (size 9 to 14) (size 15 to 20)
#    0.000    2.783    0.000    3.652    1.217    1.391 
#    0.000    0.000    0.000    7.304    0.000    0.000 
#    0.000    0.000    0.000    0.000    0.000    0.000 
#
# Total GULP energy -570140.149458 kJ/mol
# GULP energy per Si atom -12394.351075 kJ/mol
# Density = 1.918269 g / cm^3
# Si number density = 19.226454 Si / 1000 Ang^3
#
#
#
# Elastic Constant Matrix: (Units=GPa)
#
#
# Indices 1 2 3 4 5 6 
#
# 1 35.1615 24.6976 25.2701 0.0000 0.0000 0.0000
# 2 24.6976 135.9129 81.3563 0.0000 0.0000 0.0000
# 3 25.2701 81.3563 123.7228 0.0000 0.0000 0.0000
# 4 0.0000 0.0000 0.0000 24.8965 0.0000 0.0000
# 5 0.0000 0.0000 0.0000 0.0000 27.3389 0.0000
# 6 0.0000 0.0000 0.0000 0.0000 0.0000 -6.2057
#
#
#
# Elastic Compliance Matrix: (Units=1/GPa)
#
#
# Indices 1 2 3 4 5 6 
#
# 1 0.034237 -0.003357 -0.004786 0.000000 0.000000 0.000000
# 2 -0.003357 0.012463 -0.007510 0.000000 0.000000 0.000000
# 3 -0.004786 -0.007510 0.013998 0.000000 0.000000 0.000000
# 4 0.000000 0.000000 0.000000 0.040166 0.000000 0.000000
# 5 0.000000 0.000000 0.000000 0.000000 0.036578 0.000000
# 6 0.000000 0.000000 0.000000 0.000000 0.000000 -0.161141
#
#
# Mechanical properties :
#
#
# Convention : Reuss Voigt Hill
#
# Bulk Modulus (GPa) = 34.02012 61.93835 47.97924
# Shear Modulus (GPa) = 287.30670 20.10414 153.70542
#
# Velocity S-wave (km/s) = 12.23754 3.23716 8.95088
# Velocity P-wave (km/s) = 14.74481 6.80128 11.48187
#
# Compressibility (1/GPa) = 0.02939437
#
# Stress axis : x y z
#
# Youngs Moduli (GPa) = 29.20780 80.23888 71.43857
#
# Poissons Ratio (x) = 0.26936 0.34187
# Poissons Ratio (y) = 0.09805 0.53647
# Poissons Ratio (z) = 0.13977 0.60255
#
# Static dielectric constant tensor:
#      x y z
#    x 3.080770 0.000000 0.000000 
#    y 0.000000 3.502050 0.000000 
#    z 0.000000 0.000000 3.874650 
# 
# 
# High freq. dielectric constant tensor:
#      x y z
#    x 1.715050 0.000000 0.000000 
#    y 0.000000 1.740170 0.000000 
#    z 0.000000 0.000000 1.760140 
# 
# From -- ./inp_files/24448.got.cif
#   From: 2010.03.12/outbox.cif.g09.slc.cpg/sg72_13_cif.got.tgz:24448.got - 2010.04.16 14:54:00.
