data_PCOD8293838
_publ_section_title
;
Structure prediction by ZEFSAII (Michael W. Deem and Ramdas Pophale) SiO2 
 PCOD8293838
Probable space group: I B A M
;
_chemical_formula_sum "Si O2"
_cell_formula_units_Z 116
_cell_length_a 31.664363
_cell_length_b 22.281645
_cell_length_c 8.432995
_cell_angle_alpha 90.000000
_cell_angle_beta 90.000000
_cell_angle_gamma 90.000000
_cell_volume 5949.765500
_symmetry_space_group_name_H-M "I B A M"
_symmetry_group_IT_number 72
_symmetry_cell_setting 'orthorhombic'
loop_
_space_group_symop_operation_xyz
x,y,z
-x,-y,z
x,-y,1/2-z
-x,y,1/2-z
-x,-y,-z
x,y,-z
-x,y,1/2+z
x,-y,1/2+z
1/2+x,1/2+y,1/2+z
1/2-x,1/2-y,1/2+z
1/2+x,1/2-y,-z
1/2-x,1/2+y,-z
1/2-x,1/2-y,1/2-z
1/2+x,1/2+y,1/2-z
1/2-x,1/2+y,z
1/2+x,1/2-y,z
loop_
_atom_site_type_symbol
_atom_site_label
_atom_site_fract_x
_atom_site_fract_y
_atom_site_fract_z
Si Si1 0.102870 0.168059 0.811756
Si Si2 0.339583 0.936613 0.813377
Si Si3 0.500000 0.000000 0.750000
Si Si4 0.564992 0.909963 0.308614
Si Si5 0.218603 0.668770 0.312340
Si Si6 0.544999 0.565639 0.186052
Si Si7 0.545209 0.224652 0.186556
Si Si8 0.195498 0.800216 0.687785
O O1 0.082477 0.109440 0.736045
O O2 0.079249 0.227754 0.749106
O O3 0.151210 0.172460 0.753337
O O4 0.099807 0.163121 0.000000
O O5 0.387619 0.925900 0.761230
O O6 0.310156 0.884376 0.740318
O O7 0.323009 0.000000 0.750000
O O8 0.335865 0.935512 0.000000
O O9 0.534754 0.950641 0.808453
O O10 0.555470 0.921460 0.500000
O O11 0.557517 0.841720 0.256717
O O12 0.216517 0.667459 0.500000
O O13 0.200520 0.732091 0.247907
O O14 0.266779 0.659100 0.256513
O O15 0.555902 0.500000 0.250000
O O16 0.500000 0.589366 0.250000
O O17 0.541591 0.562219 0.000000
O O18 0.500000 0.244489 0.250000
O O19 0.544549 0.226393 0.000000
O O20 0.197830 0.800516 0.500000
#
# Coordination Sequence:
#
# PCOD8293838 Si02
#       8
#    16  16   4  16  16  16  16  16
#     4  10  20  35  56  82 112 144 179 222 275 328
#     4  10  20  35  53  75 103 137 176 218 265 314
#     4  12  18  32  52  70 104 144 192 228 262 312
#     4  10  20  33  50  72 103 144 186 226 269 314
#     4   9  18  34  56  79 105 137 176 221 271 325
#     4  11  22  38  60  84 113 147 184 221 262 319
#     4  10  20  34  51  74 106 143 182 223 267 314
#     4   9  18  34  57  81 106 138 174 217 271 328
#
# _framework density 19.496566999999999
#
# number of rings (size 3 to 8) (size 9 to 14) (size 15 to 20)
#    0.000    2.069    1.379    3.103    0.000    6.069 
#    0.000    1.379    0.000    4.966    0.000    0.000 
#    0.000    0.000    0.000    0.000    0.000    0.000 
#
# Total GULP energy -718593.722617 kJ/mol
# GULP energy per Si atom -12389.546942 kJ/mol
# Density = 1.945219 g / cm^3
# Si number density = 19.496567 Si / 1000 Ang^3
#
#
#
# Elastic Constant Matrix: (Units=GPa)
#
#
# Indices 1 2 3 4 5 6 
#
# 1 179.2306 97.4089 31.1981 0.0000 0.0000 0.0000
# 2 97.4089 132.6887 24.7538 0.0000 0.0000 0.0000
# 3 31.1981 24.7538 29.8575 0.0000 0.0000 0.0000
# 4 0.0000 0.0000 0.0000 18.6664 0.0000 0.0000
# 5 0.0000 0.0000 0.0000 0.0000 18.6748 0.0000
# 6 0.0000 0.0000 0.0000 0.0000 0.0000 32.3004
#
#
#
# Elastic Compliance Matrix: (Units=1/GPa)
#
#
# Indices 1 2 3 4 5 6 
#
# 1 0.009901 -0.006315 -0.005110 0.000000 0.000000 0.000000
# 2 -0.006315 0.012943 -0.004132 0.000000 0.000000 0.000000
# 3 -0.005110 -0.004132 0.042258 0.000000 0.000000 0.000000
# 4 0.000000 0.000000 0.000000 0.053572 0.000000 0.000000
# 5 0.000000 0.000000 0.000000 0.000000 0.053548 0.000000
# 6 0.000000 0.000000 0.000000 0.000000 0.000000 0.030959
#
#
# Mechanical properties :
#
#
# Convention : Reuss Voigt Hill
#
# Bulk Modulus (GPa) = 29.42256 72.05538 50.73897
# Shear Modulus (GPa) = 20.35618 26.48939 23.42278
#
# Velocity S-wave (km/s) = 3.23474 3.69001 3.46985
# Velocity P-wave (km/s) = 5.39216 7.42921 6.49109
#
# Compressibility (1/GPa) = 0.03398753
#
# Stress axis : x y z
#
# Youngs Moduli (GPa) = 100.99859 77.25896 23.66440
#
# Poissons Ratio (x) = 0.48791 0.12092
# Poissons Ratio (y) = 0.63784 0.09778
# Poissons Ratio (z) = 0.51609 0.31924
#
# Static dielectric constant tensor:
#      x y z
#    x 3.799300 0.000000 0.000000 
#    y 0.000000 7.384150 0.000000 
#    z 0.000000 0.000000 3.267080 
# 
# 
# High freq. dielectric constant tensor:
#      x y z
#    x 1.767920 0.000000 0.000000 
#    y 0.000000 1.765610 0.000000 
#    z 0.000000 0.000000 1.731110 
# 
# From -- ./inp_files/9356.got.cif
#   From: 2010.03.12/outbox.cif.g09.slc.cpg/sg72_5_cif.got.tgz:9356.got - 2010.04.16 14:54:00.
