data_PCOD8293514
_publ_section_title
;
Structure prediction by ZEFSAII (Michael W. Deem and Ramdas Pophale) SiO2 
 PCOD8293514
Probable space group: I B A M
;
_chemical_formula_sum "Si O2"
_cell_formula_units_Z 96
_cell_length_a 15.595069
_cell_length_b 17.930739
_cell_length_c 15.469363
_cell_angle_alpha 90.000000
_cell_angle_beta 90.000000
_cell_angle_gamma 90.000000
_cell_volume 4325.715176
_symmetry_space_group_name_H-M "I B A M"
_symmetry_group_IT_number 72
_symmetry_cell_setting 'orthorhombic'
loop_
_space_group_symop_operation_xyz
x,y,z
-x,-y,z
x,-y,1/2-z
-x,y,1/2-z
-x,-y,-z
x,y,-z
-x,y,1/2+z
x,-y,1/2+z
1/2+x,1/2+y,1/2+z
1/2-x,1/2-y,1/2+z
1/2+x,1/2-y,-z
1/2-x,1/2+y,-z
1/2-x,1/2-y,1/2-z
1/2+x,1/2+y,1/2-z
1/2-x,1/2+y,z
1/2+x,1/2-y,z
loop_
_atom_site_type_symbol
_atom_site_label
_atom_site_fract_x
_atom_site_fract_y
_atom_site_fract_z
Si Si1 0.410434 0.303973 0.897450
Si Si2 0.089750 0.970822 0.846475
Si Si3 0.076746 0.285976 0.102893
Si Si4 0.759313 0.456458 0.901901
Si Si5 0.918806 0.453412 0.396758
Si Si6 0.752721 0.208329 0.397095
O O1 0.408802 0.381809 0.847547
O O2 0.493334 0.258606 0.865686
O O3 0.327862 0.257345 0.867893
O O4 0.411221 0.318543 0.000000
O O5 0.100794 0.000000 0.750000
O O6 0.167933 0.002823 0.901726
O O7 0.000000 0.000000 0.886595
O O8 0.074209 0.369777 0.140295
O O9 0.160908 0.245263 0.140393
O O10 0.079129 0.288238 0.000000
O O11 0.832593 0.508017 0.858515
O O12 0.755369 0.374985 0.857248
O O13 0.787842 0.443563 0.000000
O O14 0.916274 0.450566 0.500000
O O15 0.000000 0.500000 0.363217
O O16 0.758595 0.204371 0.500000
#
# Coordination Sequence:
#
# PCOD8293514 Si02
#       6
#    16  16  16  16  16  16
#     4  10  19  33  55  80 106 138 177 219 266 323
#     4  11  24  39  53  73 105 143 182 229 277 319
#     4   9  16  26  43  71 106 138 169 210 257 307
#     4  10  19  33  56  83 111 144 181 220 266 324
#     4   9  16  27  47  79 114 141 169 214 270 319
#     4   9  17  29  48  78 108 132 167 216 263 310
#
# _framework density 22.192862000000002
#
# number of rings (size 3 to 8) (size 9 to 14) (size 15 to 20)
#    0.000    2.333    0.000    3.500    0.000    9.333 
#    0.000    0.833    0.000    2.500    0.000    0.000 
#    0.000    0.000    0.000    0.000    0.000    0.000 
#
# Total GULP energy -595242.911730 kJ/mol
# GULP energy per Si atom -12400.893994 kJ/mol
# Density = 2.214235 g / cm^3
# Si number density = 22.192862 Si / 1000 Ang^3
#
#
#
# Elastic Constant Matrix: (Units=GPa)
#
#
# Indices 1 2 3 4 5 6 
#
# 1 212.5337 112.4349 5.1721 0.0000 0.0000 0.0000
# 2 112.4349 249.5296 15.9896 0.0000 0.0000 0.0000
# 3 5.1721 15.9896 15.1659 0.0000 0.0000 0.0000
# 4 0.0000 0.0000 0.0000 15.4113 0.0000 0.0000
# 5 0.0000 0.0000 0.0000 0.0000 1.8420 0.0000
# 6 0.0000 0.0000 0.0000 0.0000 0.0000 49.8768
#
#
#
# Elastic Compliance Matrix: (Units=1/GPa)
#
#
# Indices 1 2 3 4 5 6 
#
# 1 0.006189 -0.002846 0.000890 0.000000 0.000000 0.000000
# 2 -0.002846 0.005606 -0.004940 0.000000 0.000000 0.000000
# 3 0.000890 -0.004940 0.070843 0.000000 0.000000 0.000000
# 4 0.000000 0.000000 0.000000 0.064887 0.000000 0.000000
# 5 0.000000 0.000000 0.000000 0.000000 0.542892 0.000000
# 6 0.000000 0.000000 0.000000 0.000000 0.000000 0.020049
#
#
# Mechanical properties :
#
#
# Convention : Reuss Voigt Hill
#
# Bulk Modulus (GPa) = 14.52541 82.71361 48.61951
# Shear Modulus (GPa) = 6.69158 36.33486 21.51322
#
# Velocity S-wave (km/s) = 1.73832 4.05066 3.11686
# Velocity P-wave (km/s) = 3.25396 7.69600 5.90833
#
# Compressibility (1/GPa) = 0.06884489
#
# Stress axis : x y z
#
# Youngs Moduli (GPa) = 161.57977 178.37008 14.11582
#
# Poissons Ratio (x) = 0.50758 -0.01256
# Poissons Ratio (y) = 0.45980 0.06974
# Poissons Ratio (z) = -0.14373 0.88121
#
# Static dielectric constant tensor:
#      x y z
#    x 4.248680 0.000000 0.000000 
#    y 0.000000 4.252430 0.000000 
#    z 0.000000 0.000000 3.192620 
# 
# 
# High freq. dielectric constant tensor:
#      x y z
#    x 1.890610 0.000000 0.000000 
#    y 0.000000 1.892920 0.000000 
#    z 0.000000 0.000000 1.812690 
# 
# From -- ./inp_files/38009.got.cif
#   From: 2010.03.12/outbox.cif.g09.slc.cpg/sg72_20_cif.got.tgz:38009.got - 2010.04.16 14:54:00.
