data_PCOD8293862
_publ_section_title
;
Structure prediction by ZEFSAII (Michael W. Deem and Ramdas Pophale) SiO2 
 PCOD8293862
Probable space group: I B A M
;
_chemical_formula_sum "Si O2"
_cell_formula_units_Z 64
_cell_length_a 13.632569
_cell_length_b 15.362410
_cell_length_c 17.758002
_cell_angle_alpha 90.000000
_cell_angle_beta 90.000000
_cell_angle_gamma 90.000000
_cell_volume 3719.042631
_symmetry_space_group_name_H-M "I B A M"
_symmetry_group_IT_number 72
_symmetry_cell_setting 'orthorhombic'
loop_
_space_group_symop_operation_xyz
x,y,z
-x,-y,z
x,-y,1/2-z
-x,y,1/2-z
-x,-y,-z
x,y,-z
-x,y,1/2+z
x,-y,1/2+z
1/2+x,1/2+y,1/2+z
1/2-x,1/2-y,1/2+z
1/2+x,1/2-y,-z
1/2-x,1/2+y,-z
1/2-x,1/2-y,1/2-z
1/2+x,1/2+y,1/2-z
1/2-x,1/2+y,z
1/2+x,1/2-y,z
loop_
_atom_site_type_symbol
_atom_site_label
_atom_site_fract_x
_atom_site_fract_y
_atom_site_fract_z
Si Si1 0.817208 0.564716 0.587442
Si Si2 0.311474 0.868772 0.087430
Si Si3 0.799744 0.730241 0.670798
Si Si4 0.511879 0.864847 0.167260
O O1 0.807167 0.588331 0.500000
O O2 0.778947 0.467883 0.605223
O O3 0.758840 0.637839 0.636374
O O4 0.932371 0.566645 0.612452
O O5 0.222208 0.808000 0.112919
O O6 0.407701 0.838821 0.132869
O O7 0.334004 0.856636 0.000000
O O8 0.750000 0.750000 0.750000
O O9 0.918283 0.721428 0.677008
O O10 0.500000 0.907084 0.250000
#
# Coordination Sequence:
#
# PCOD8293862 Si02
#       4
#    16  16  16  16
#     4   9  20  34  52  81 109 131 174 219 261 315
#     4  11  20  34  56  79 107 141 169 217 270 304
#     4  10  21  34  50  79 107 140 175 211 261 316
#     4  10  20  33  52  79 109 134 174 214 263 310
#
# _framework density 17.208729000000002
#
# number of rings (size 3 to 8) (size 9 to 14) (size 15 to 20)
#    1.500    0.500    2.500    2.250    0.000    7.000 
#    0.000    0.000    0.000    1.500    0.000    5.250 
#    0.000    0.000    0.000    0.000    0.000    0.000 
#
# Total GULP energy -396461.571990 kJ/mol
# GULP energy per Si atom -12389.424125 kJ/mol
# Density = 1.716956 g / cm^3
# Si number density = 17.208729 Si / 1000 Ang^3
#
#
#
# Elastic Constant Matrix: (Units=GPa)
#
#
# Indices 1 2 3 4 5 6 
#
# 1 30.7041 40.0487 31.7168 0.0000 0.0000 0.0000
# 2 40.0487 117.9355 61.9711 0.0000 0.0000 0.0000
# 3 31.7168 61.9711 116.4649 0.0000 0.0000 0.0000
# 4 0.0000 0.0000 0.0000 16.3815 0.0000 0.0000
# 5 0.0000 0.0000 0.0000 0.0000 31.6115 0.0000
# 6 0.0000 0.0000 0.0000 0.0000 0.0000 24.0995
#
#
#
# Elastic Compliance Matrix: (Units=1/GPa)
#
#
# Indices 1 2 3 4 5 6 
#
# 1 0.063505 -0.017320 -0.008078 0.000000 0.000000 0.000000
# 2 -0.017320 0.016494 -0.004060 0.000000 0.000000 0.000000
# 3 -0.008078 -0.004060 0.012946 0.000000 0.000000 0.000000
# 4 0.000000 0.000000 0.000000 0.061044 0.000000 0.000000
# 5 0.000000 0.000000 0.000000 0.000000 0.031634 0.000000
# 6 0.000000 0.000000 0.000000 0.000000 0.000000 0.041495
#
#
# Mechanical properties :
#
#
# Convention : Reuss Voigt Hill
#
# Bulk Modulus (GPa) = 29.38640 59.17529 44.28084
# Shear Modulus (GPa) = 16.81357 23.17636 19.99497
#
# Velocity S-wave (km/s) = 3.12915 3.67383 3.41238
# Velocity P-wave (km/s) = 5.49263 7.24275 6.42754
#
# Compressibility (1/GPa) = 0.03402935
#
# Stress axis : x y z
#
# Youngs Moduli (GPa) = 15.74667 60.62762 77.24180
#
# Poissons Ratio (x) = 1.05010 0.62397
# Poissons Ratio (y) = 0.27274 0.31358
# Poissons Ratio (z) = 0.12720 0.24613
#
# Static dielectric constant tensor:
#      x y z
#    x 2.923390 0.000000 0.000000 
#    y 0.000000 3.178500 0.000000 
#    z 0.000000 0.000000 3.399170 
# 
# 
# High freq. dielectric constant tensor:
#      x y z
#    x 1.625030 0.000000 0.000000 
#    y 0.000000 1.654910 0.000000 
#    z 0.000000 0.000000 1.686870 
# 
# From -- ./inp_files/21370.got.cif
#   From: 2010.03.12/outbox.cif.g09.slc.cpg/sg72_11_cif.got.tgz:21370.got - 2010.04.16 14:54:00.
