data_PCOD8293232
_publ_section_title
;
Structure prediction by ZEFSAII (Michael W. Deem and Ramdas Pophale) SiO2 
 PCOD8293232
Probable space group: I B A M
;
_chemical_formula_sum "Si O2"
_cell_formula_units_Z 96
_cell_length_a 26.345618
_cell_length_b 28.437132
_cell_length_c 9.047371
_cell_angle_alpha 90.000000
_cell_angle_beta 90.000000
_cell_angle_gamma 90.000000
_cell_volume 6778.234410
_symmetry_space_group_name_H-M "I B A M"
_symmetry_group_IT_number 72
_symmetry_cell_setting 'orthorhombic'
loop_
_space_group_symop_operation_xyz
x,y,z
-x,-y,z
x,-y,1/2-z
-x,y,1/2-z
-x,-y,-z
x,y,-z
-x,y,1/2+z
x,-y,1/2+z
1/2+x,1/2+y,1/2+z
1/2-x,1/2-y,1/2+z
1/2+x,1/2-y,-z
1/2-x,1/2+y,-z
1/2-x,1/2-y,1/2-z
1/2+x,1/2+y,1/2-z
1/2-x,1/2+y,z
1/2+x,1/2-y,z
loop_
_atom_site_type_symbol
_atom_site_label
_atom_site_fract_x
_atom_site_fract_y
_atom_site_fract_z
Si Si1 0.297336 0.727102 0.829467
Si Si2 0.741451 0.862497 0.830303
Si Si3 0.098623 0.451900 0.173920
Si Si4 0.948412 0.362291 0.174931
Si Si5 0.353580 0.799596 0.671538
Si Si6 0.783168 0.547270 0.171378
O O1 0.250000 0.750000 0.750000
O O2 0.291442 0.670594 0.809834
O O3 0.348102 0.749567 0.757461
O O4 0.295875 0.741022 0.000000
O O5 0.690815 0.835158 0.777539
O O6 0.748994 0.908885 0.732618
O O7 0.734809 0.877970 0.000000
O O8 0.080562 0.500000 0.250000
O O9 0.067061 0.411000 0.250368
O O10 0.157846 0.443437 0.205700
O O11 0.086736 0.453664 0.000000
O O12 0.907423 0.322156 0.210923
O O13 0.000000 0.344415 0.250000
O O14 0.954643 0.369908 0.000000
O O15 0.347916 0.788308 0.500000
O O16 0.764174 0.500000 0.250000
O O17 0.772104 0.541474 0.000000
#
# Coordination Sequence:
#
# PCOD8293232 Si02
#       6
#    16  16  16  16  16  16
#     4   9  17  27  42  63  84 105 129 160 199 241
#     4   9  16  28  43  61  83 105 130 163 201 239
#     4  10  20  33  47  62  77 100 134 172 216 257
#     4  11  22  35  48  62  80 103 134 173 216 257
#     4   9  18  31  45  60  81 105 129 166 207 245
#     4  10  19  28  42  61  81 107 136 167 203 245
#
# _framework density 14.162979999999999
#
# number of rings (size 3 to 8) (size 9 to 14) (size 15 to 20)
#    0.000    2.333    1.667    3.000    0.000    6.333 
#    0.000    1.667    0.000    0.000    0.000    0.000 
#    0.000    0.000    0.000    0.000    0.000    0.833 
#
# Total GULP energy -595093.506953 kJ/mol
# GULP energy per Si atom -12397.781395 kJ/mol
# Density = 1.413074 g / cm^3
# Si number density = 14.162980 Si / 1000 Ang^3
#
#
#
# Elastic Constant Matrix: (Units=GPa)
#
#
# Indices 1 2 3 4 5 6 
#
# 1 49.2636 49.9361 37.7209 0.0000 0.0000 0.0000
# 2 49.9361 98.4818 58.1003 0.0000 0.0000 0.0000
# 3 37.7209 58.1003 85.4738 0.0000 0.0000 0.0000
# 4 0.0000 0.0000 0.0000 29.2288 0.0000 0.0000
# 5 0.0000 0.0000 0.0000 0.0000 18.9774 0.0000
# 6 0.0000 0.0000 0.0000 0.0000 0.0000 20.2212
#
#
#
# Elastic Compliance Matrix: (Units=1/GPa)
#
#
# Indices 1 2 3 4 5 6 
#
# 1 0.044228 -0.018216 -0.007136 0.000000 0.000000 0.000000
# 2 -0.018216 0.024455 -0.008584 0.000000 0.000000 0.000000
# 3 -0.007136 -0.008584 0.020684 0.000000 0.000000 0.000000
# 4 0.000000 0.000000 0.000000 0.034213 0.000000 0.000000
# 5 0.000000 0.000000 0.000000 0.000000 0.052694 0.000000
# 6 0.000000 0.000000 0.000000 0.000000 0.000000 0.049453
#
#
# Mechanical properties :
#
#
# Convention : Reuss Voigt Hill
#
# Bulk Modulus (GPa) = 46.52475 58.30377 52.41426
# Shear Modulus (GPa) = 16.62432 19.51627 18.07029
#
# Velocity S-wave (km/s) = 3.42977 3.71614 3.57582
# Velocity P-wave (km/s) = 6.97175 7.72455 7.35778
#
# Compressibility (1/GPa) = 0.02149394
#
# Stress axis : x y z
#
# Youngs Moduli (GPa) = 22.61021 40.89131 48.34694
#
# Poissons Ratio (x) = 0.74488 0.34501
# Poissons Ratio (y) = 0.41187 0.41502
# Poissons Ratio (z) = 0.16135 0.35102
#
# Static dielectric constant tensor:
#      x y z
#    x 2.776530 0.000000 0.000000 
#    y 0.000000 3.021630 0.000000 
#    z 0.000000 0.000000 2.940760 
# 
# 
# High freq. dielectric constant tensor:
#      x y z
#    x 1.488660 0.000000 0.000000 
#    y 0.000000 1.534210 0.000000 
#    z 0.000000 0.000000 1.558210 
# 
# From -- ./inp_files/7084.got.cif
#   From: 2010.03.12/outbox.cif.g09.slc.cpg/sg72_4_cif.got.tgz:7084.got - 2010.04.16 14:54:00.
