data_PCOD8293595
_publ_section_title
;
Structure prediction by ZEFSAII (Michael W. Deem and Ramdas Pophale) SiO2 
 PCOD8293595
Probable space group: I B A M
;
_chemical_formula_sum "Si O2"
_cell_formula_units_Z 72
_cell_length_a 14.788711
_cell_length_b 11.908482
_cell_length_c 21.491444
_cell_angle_alpha 90.000000
_cell_angle_beta 90.000000
_cell_angle_gamma 90.000000
_cell_volume 3784.881816
_symmetry_space_group_name_H-M "I B A M"
_symmetry_group_IT_number 72
_symmetry_cell_setting 'orthorhombic'
loop_
_space_group_symop_operation_xyz
x,y,z
-x,-y,z
x,-y,1/2-z
-x,y,1/2-z
-x,-y,-z
x,y,-z
-x,y,1/2+z
x,-y,1/2+z
1/2+x,1/2+y,1/2+z
1/2-x,1/2-y,1/2+z
1/2+x,1/2-y,-z
1/2-x,1/2+y,-z
1/2-x,1/2-y,1/2-z
1/2+x,1/2+y,1/2-z
1/2-x,1/2+y,z
1/2+x,1/2-y,z
loop_
_atom_site_type_symbol
_atom_site_label
_atom_site_fract_x
_atom_site_fract_y
_atom_site_fract_z
Si Si1 0.500000 0.789532 0.250000
Si Si2 0.741313 0.257225 0.645377
Si Si3 0.929070 0.368737 0.876964
Si Si4 0.663078 0.625837 0.739832
Si Si5 0.113708 0.394170 0.928479
O O1 0.466496 0.867641 0.306287
O O2 0.580734 0.709804 0.271585
O O3 0.647095 0.226125 0.611338
O O4 0.724018 0.346254 0.700210
O O5 0.777564 0.141515 0.677118
O O6 0.810841 0.308702 0.596297
O O7 0.886000 0.490301 0.889898
O O8 0.013211 0.340796 0.922472
O O9 0.627638 0.500000 0.750000
O O10 0.135471 0.419406 0.000000
#
# Coordination Sequence:
#
# PCOD8293595 Si02
#       5
#     8  16  16  16  16
#     4  10  19  35  58  86 118 152 188 244 306 350
#     4  10  21  37  57  86 116 152 193 241 298 348
#     4  10  21  38  59  88 117 155 200 246 297 356
#     4  10  19  34  55  86 118 146 187 237 296 363
#     4  11  23  39  59  85 118 159 203 244 291 351
#
# _framework density 19.023050000000001
#
# number of rings (size 3 to 8) (size 9 to 14) (size 15 to 20)
#    0.000    1.778    2.222    3.000    0.000    3.556 
#    0.000    0.000    0.000    0.000    0.000    6.222 
#    0.000    0.000    0.000    0.000    0.000    0.000 
#
# Total GULP energy -446309.561682 kJ/mol
# GULP energy per Si atom -12397.487825 kJ/mol
# Density = 1.897975 g / cm^3
# Si number density = 19.023050 Si / 1000 Ang^3
#
#
#
# Elastic Constant Matrix: (Units=GPa)
#
#
# Indices 1 2 3 4 5 6 
#
# 1 108.2342 43.8434 43.4729 0.0000 0.0000 0.0000
# 2 43.8434 97.4074 61.4017 0.0000 0.0000 0.0000
# 3 43.4729 61.4017 100.5153 0.0000 0.0000 0.0000
# 4 0.0000 0.0000 0.0000 18.8229 0.0000 0.0000
# 5 0.0000 0.0000 0.0000 0.0000 26.2736 0.0000
# 6 0.0000 0.0000 0.0000 0.0000 0.0000 21.7187
#
#
#
# Elastic Compliance Matrix: (Units=1/GPa)
#
#
# Indices 1 2 3 4 5 6 
#
# 1 0.011842 -0.003418 -0.003034 0.000000 0.000000 0.000000
# 2 -0.003418 0.017681 -0.009323 0.000000 0.000000 0.000000
# 3 -0.003034 -0.009323 0.016956 0.000000 0.000000 0.000000
# 4 0.000000 0.000000 0.000000 0.053127 0.000000 0.000000
# 5 0.000000 0.000000 0.000000 0.000000 0.038061 0.000000
# 6 0.000000 0.000000 0.000000 0.000000 0.000000 0.046043
#
#
# Mechanical properties :
#
#
# Convention : Reuss Voigt Hill
#
# Bulk Modulus (GPa) = 66.97718 67.06586 67.02152
# Shear Modulus (GPa) = 22.70292 23.85898 23.28095
#
# Velocity S-wave (km/s) = 3.45837 3.54533 3.50212
# Velocity P-wave (km/s) = 7.15765 7.21739 7.18758
#
# Compressibility (1/GPa) = 0.01493046
#
# Stress axis : x y z
#
# Youngs Moduli (GPa) = 84.44302 56.55745 58.97654
#
# Poissons Ratio (x) = 0.19330 0.17894
# Poissons Ratio (y) = 0.28860 0.54982
# Poissons Ratio (z) = 0.25620 0.52727
#
# Static dielectric constant tensor:
#      x y z
#    x 3.768350 0.000000 0.000000 
#    y 0.000000 3.251370 0.000000 
#    z 0.000000 0.000000 3.289120 
# 
# 
# High freq. dielectric constant tensor:
#      x y z
#    x 1.758000 0.000000 0.000000 
#    y 0.000000 1.721920 0.000000 
#    z 0.000000 0.000000 1.721480 
# 
# From -- ./inp_files/31250.got.cif
#   From: 2010.03.12/outbox.cif.g09.slc.cpg/sg72_16_cif.got.tgz:31250.got - 2010.04.16 14:54:00.
