data_PCOD8293235
_publ_section_title
;
Structure prediction by ZEFSAII (Michael W. Deem and Ramdas Pophale) SiO2 
 PCOD8293235
Probable space group: I B A M
;
_chemical_formula_sum "Si O2"
_cell_formula_units_Z 64
_cell_length_a 21.656595
_cell_length_b 9.220029
_cell_length_c 13.419090
_cell_angle_alpha 90.000000
_cell_angle_beta 90.000000
_cell_angle_gamma 90.000000
_cell_volume 2679.449200
_symmetry_space_group_name_H-M "I B A M"
_symmetry_group_IT_number 72
_symmetry_cell_setting 'orthorhombic'
loop_
_space_group_symop_operation_xyz
x,y,z
-x,-y,z
x,-y,1/2-z
-x,y,1/2-z
-x,-y,-z
x,y,-z
-x,y,1/2+z
x,-y,1/2+z
1/2+x,1/2+y,1/2+z
1/2-x,1/2-y,1/2+z
1/2+x,1/2-y,-z
1/2-x,1/2+y,-z
1/2-x,1/2-y,1/2-z
1/2+x,1/2+y,1/2-z
1/2-x,1/2+y,z
1/2+x,1/2-y,z
loop_
_atom_site_type_symbol
_atom_site_label
_atom_site_fract_x
_atom_site_fract_y
_atom_site_fract_z
Si Si1 0.668589 0.599476 0.379849
Si Si2 0.387942 0.036013 0.113124
Si Si3 0.931376 0.734618 0.224195
Si Si4 0.737357 0.876266 0.614630
O O1 0.660284 0.608986 0.500000
O O2 0.603008 0.627814 0.326653
O O3 0.716206 0.723585 0.339199
O O4 0.698663 0.446669 0.343393
O O5 0.398480 0.183683 0.173930
O O6 0.431572 0.903319 0.149246
O O7 0.316728 0.994104 0.128551
O O8 0.404497 0.070197 0.000000
O O9 0.000000 0.786149 0.250000
O O10 0.750222 0.846758 0.500000
#
# Coordination Sequence:
#
# PCOD8293235 Si02
#       4
#    16  16  16  16
#     4   9  17  31  50  75 105 132 164 209 253 300
#     4   9  17  29  44  65  95 128 164 207 248 291
#     4  10  19  28  43  69  98 133 168 200 247 301
#     4   8  15  28  47  71  99 129 162 204 257 303
#
# _framework density 23.885508000000002
#
# number of rings (size 3 to 8) (size 9 to 14) (size 15 to 20)
#    0.000    3.000    0.000    3.750    0.000    4.000 
#    0.000    0.000    0.000    0.000    0.000   10.500 
#    0.000   10.000    0.000    0.000    0.000    2.000 
#
# Total GULP energy -396584.501760 kJ/mol
# GULP energy per Si atom -12393.265680 kJ/mol
# Density = 2.383114 g / cm^3
# Si number density = 23.885508 Si / 1000 Ang^3
#
#
#
# Elastic Constant Matrix: (Units=GPa)
#
#
# Indices 1 2 3 4 5 6 
#
# 1 112.6632 47.9515 20.8823 0.0000 0.0000 0.0000
# 2 47.9515 55.4626 20.3762 0.0000 0.0000 0.0000
# 3 20.8823 20.3762 94.7742 0.0000 0.0000 0.0000
# 4 0.0000 0.0000 0.0000 11.4299 0.0000 0.0000
# 5 0.0000 0.0000 0.0000 0.0000 32.1368 0.0000
# 6 0.0000 0.0000 0.0000 0.0000 0.0000 22.8947
#
#
#
# Elastic Compliance Matrix: (Units=1/GPa)
#
#
# Indices 1 2 3 4 5 6 
#
# 1 0.014068 -0.011969 -0.000526 0.000000 0.000000 0.000000
# 2 -0.011969 0.029760 -0.003761 0.000000 0.000000 0.000000
# 3 -0.000526 -0.003761 0.011476 0.000000 0.000000 0.000000
# 4 0.000000 0.000000 0.000000 0.087490 0.000000 0.000000
# 5 0.000000 0.000000 0.000000 0.000000 0.031117 0.000000
# 6 0.000000 0.000000 0.000000 0.000000 0.000000 0.043678
#
#
# Mechanical properties :
#
#
# Convention : Reuss Voigt Hill
#
# Bulk Modulus (GPa) = 43.87757 49.03557 46.45657
# Shear Modulus (GPa) = 19.40240 24.87161 22.13701
#
# Velocity S-wave (km/s) = 2.85319 3.23039 3.04764
# Velocity P-wave (km/s) = 5.40963 5.87264 5.64589
#
# Compressibility (1/GPa) = 0.02279069
#
# Stress axis : x y z
#
# Youngs Moduli (GPa) = 71.08347 33.60169 87.13848
#
# Poissons Ratio (x) = 0.40219 0.04586
# Poissons Ratio (y) = 0.85083 0.32774
# Poissons Ratio (z) = 0.03741 0.12638
#
# Static dielectric constant tensor:
#      x y z
#    x 4.124930 0.000000 0.000000 
#    y 0.000000 4.049490 0.000000 
#    z 0.000000 0.000000 4.395140 
# 
# 
# High freq. dielectric constant tensor:
#      x y z
#    x 1.922460 0.000000 0.000000 
#    y 0.000000 1.921270 0.000000 
#    z 0.000000 0.000000 1.958110 
# 
# From -- ./inp_files/19846.got.cif
#   From: 2010.03.12/outbox.cif.g09.slc.cpg/sg72_10_cif.got.tgz:19846.got - 2010.04.16 14:54:00.
