data_PCOD8293207
_publ_section_title
;
Structure prediction by ZEFSAII (Michael W. Deem and Ramdas Pophale) SiO2 
 PCOD8293207
Probable space group: I B A M
;
_chemical_formula_sum "Si O2"
_cell_formula_units_Z 88
_cell_length_a 13.829706
_cell_length_b 12.576708
_cell_length_c 23.442677
_cell_angle_alpha 90.000000
_cell_angle_beta 90.000000
_cell_angle_gamma 90.000000
_cell_volume 4077.435777
_symmetry_space_group_name_H-M "I B A M"
_symmetry_group_IT_number 72
_symmetry_cell_setting 'orthorhombic'
loop_
_space_group_symop_operation_xyz
x,y,z
-x,-y,z
x,-y,1/2-z
-x,y,1/2-z
-x,-y,-z
x,y,-z
-x,y,1/2+z
x,-y,1/2+z
1/2+x,1/2+y,1/2+z
1/2-x,1/2-y,1/2+z
1/2+x,1/2-y,-z
1/2-x,1/2+y,-z
1/2-x,1/2-y,1/2-z
1/2+x,1/2+y,1/2-z
1/2-x,1/2+y,z
1/2+x,1/2-y,z
loop_
_atom_site_type_symbol
_atom_site_label
_atom_site_fract_x
_atom_site_fract_y
_atom_site_fract_z
Si Si1 0.886401 0.483444 0.000000
Si Si2 0.108887 0.176364 0.230785
Si Si3 0.734759 0.095285 0.909223
Si Si4 0.024457 0.876227 0.500000
Si Si5 0.700363 0.894575 0.280688
Si Si6 0.904674 0.067311 0.613213
Si Si7 0.674630 0.740992 0.000000
O O1 0.850245 0.540796 0.943732
O O2 0.000000 0.500000 0.000000
O O3 0.840412 0.366239 0.000000
O O4 0.184546 0.108620 0.267941
O O5 0.137071 0.298132 0.244171
O O6 0.123812 0.143991 0.165082
O O7 0.000000 0.151983 0.250000
O O8 0.687225 0.115822 0.848172
O O9 0.823082 0.015780 0.902351
O O10 0.770472 0.201525 0.942493
O O11 0.083746 0.854439 0.558208
O O12 0.931544 0.805279 0.500000
O O13 0.000000 0.000000 0.500000
O O14 0.658103 0.000000 0.250000
O O15 0.000000 0.000000 0.628389
#
# Coordination Sequence:
#
# PCOD8293207 Si02
#       7
#     8  16  16   8  16  16   8
#     4  11  29  50  65 102 147 185 233 276 353 431
#     4  11  26  42  69 105 132 185 235 281 349 413
#     4  11  23  46  70 101 136 184 229 290 347 408
#     4  10  18  35  62 107 133 161 221 286 349 405
#     4  11  25  47  68  98 144 179 231 287 345 417
#     4  11  20  39  69 106 138 167 230 301 345 408
#     4  11  23  43  73  95 136 180 225 286 354 417
#
# _framework density 21.582191000000002
#
# number of rings (size 3 to 8) (size 9 to 14) (size 15 to 20)
#    0.000    1.091    5.455    1.636    2.545    1.818 
#    6.545    0.000    0.000    0.000    0.000    0.000 
#    0.000    0.000    0.000    0.000    0.000    0.000 
#
# Total GULP energy -545499.158997 kJ/mol
# GULP energy per Si atom -12397.708159 kJ/mol
# Density = 2.153307 g / cm^3
# Si number density = 21.582191 Si / 1000 Ang^3
#
#
#
# Elastic Constant Matrix: (Units=GPa)
#
#
# Indices 1 2 3 4 5 6 
#
# 1 89.5728 19.8783 15.1663 0.0000 0.0000 0.0000
# 2 19.8783 103.5068 38.7094 0.0000 0.0000 0.0000
# 3 15.1663 38.7094 149.6440 0.0000 0.0000 0.0000
# 4 0.0000 0.0000 0.0000 -39.4206 0.0000 0.0000
# 5 0.0000 0.0000 0.0000 0.0000 -14.9361 0.0000
# 6 0.0000 0.0000 0.0000 0.0000 0.0000 24.1445
#
#
#
# Elastic Compliance Matrix: (Units=1/GPa)
#
#
# Indices 1 2 3 4 5 6 
#
# 1 0.011722 -0.002000 -0.000671 0.000000 0.000000 0.000000
# 2 -0.002000 0.011037 -0.002652 0.000000 0.000000 0.000000
# 3 -0.000671 -0.002652 0.007437 0.000000 0.000000 0.000000
# 4 0.000000 0.000000 0.000000 -0.025367 0.000000 0.000000
# 5 0.000000 0.000000 0.000000 0.000000 -0.066952 0.000000
# 6 0.000000 0.000000 0.000000 0.000000 0.000000 0.041417
#
#
# Mechanical properties :
#
#
# Convention : Reuss Voigt Hill
#
# Bulk Modulus (GPa) = 51.15356 54.47019 52.81188
# Shear Modulus (GPa) = -1410.92651 11.88885 -699.51883
#
# Velocity S-wave (km/s) = -25.59619 2.34960 -18.02282
# Velocity P-wave (km/s) = 29.15133 5.71437 20.21319
#
# Compressibility (1/GPa) = 0.01954898
#
# Stress axis : x y z
#
# Youngs Moduli (GPa) = 85.31287 90.60198 134.47031
#
# Poissons Ratio (x) = 0.18123 0.09017
# Poissons Ratio (y) = 0.17065 0.35666
# Poissons Ratio (z) = 0.05721 0.24031
#
# Static dielectric constant tensor:
#      x y z
#    x 3.700420 0.000000 0.000000 
#    y 0.000000 3.790170 0.000000 
#    z 0.000000 0.000000 4.230800 
# 
# 
# High freq. dielectric constant tensor:
#      x y z
#    x 1.843620 0.000000 0.000000 
#    y 0.000000 1.845560 0.000000 
#    z 0.000000 0.000000 1.861770 
# 
# From -- ./inp_files/44168.got.cif
#   From: 2010.03.12/outbox.cif.g09.slc.cpg/sg72_23_cif.got.tgz:44168.got - 2010.04.16 14:54:00.
