data_PCOD8293399
_publ_section_title
;
Structure prediction by ZEFSAII (Michael W. Deem and Ramdas Pophale) SiO2 
 PCOD8293399
Probable space group: I B A M
;
_chemical_formula_sum "Si O2"
_cell_formula_units_Z 128
_cell_length_a 11.270879
_cell_length_b 26.969288
_cell_length_c 24.056880
_cell_angle_alpha 90.000000
_cell_angle_beta 90.000000
_cell_angle_gamma 90.000000
_cell_volume 7312.511638
_symmetry_space_group_name_H-M "I B A M"
_symmetry_group_IT_number 72
_symmetry_cell_setting 'orthorhombic'
loop_
_space_group_symop_operation_xyz
x,y,z
-x,-y,z
x,-y,1/2-z
-x,y,1/2-z
-x,-y,-z
x,y,-z
-x,y,1/2+z
x,-y,1/2+z
1/2+x,1/2+y,1/2+z
1/2-x,1/2-y,1/2+z
1/2+x,1/2-y,-z
1/2-x,1/2+y,-z
1/2-x,1/2-y,1/2-z
1/2+x,1/2+y,1/2-z
1/2-x,1/2+y,z
1/2+x,1/2-y,z
loop_
_atom_site_type_symbol
_atom_site_label
_atom_site_fract_x
_atom_site_fract_y
_atom_site_fract_z
Si Si1 0.848617 0.609985 0.938198
Si Si2 0.673099 0.449718 0.372968
Si Si3 0.429410 0.949882 0.561152
Si Si4 0.367827 0.441365 0.248097
Si Si5 0.460030 0.723140 0.564498
Si Si6 0.306359 0.220134 0.433527
Si Si7 0.022570 0.110582 0.064943
Si Si8 0.211450 0.937537 0.634150
O O1 0.793545 0.564993 0.903368
O O2 0.823458 0.663818 0.912116
O O3 0.987808 0.598711 0.940087
O O4 0.792440 0.608613 0.000000
O O5 0.686130 0.425944 0.311285
O O6 0.564566 0.428303 0.407280
O O7 0.651113 0.508519 0.371652
O O8 0.366269 0.953869 0.500000
O O9 0.344655 0.941170 0.613071
O O10 0.500000 0.000000 0.572496
O O11 0.372078 0.500000 0.250000
O O12 0.500000 0.418947 0.250000
O O13 0.292698 0.420871 0.300873
O O14 0.462440 0.736104 0.500000
O O15 0.578329 0.749722 0.590806
O O16 0.326441 0.738919 0.586940
O O17 0.472432 0.665027 0.575622
O O18 0.308622 0.222582 0.500000
O O19 0.147847 0.103355 0.095709
O O20 0.038750 0.099401 0.000000
#
# Coordination Sequence:
#
# PCOD8293399 Si02
#       8
#    16  16  16  16  16  16  16  16
#     4  10  19  32  52  74 102 140 172 203 257 322
#     4  11  19  32  52  72 101 138 174 212 253 303
#     4  10  20  33  48  71 108 145 173 204 252 314
#     4   9  18  33  49  69  97 135 173 218 258 293
#     4   9  18  31  47  71 102 133 168 213 260 318
#     4   9  17  31  50  71 100 136 170 209 261 318
#     4  11  21  30  47  78 107 130 168 215 260 315
#     4  11  21  33  50  73 105 141 178 214 252 298
#
# _framework density 17.504245000000001
#
# number of rings (size 3 to 8) (size 9 to 14) (size 15 to 20)
#    0.000    2.000    3.750    1.125    0.000    3.000 
#    0.000    4.375    0.000    0.000    0.000    0.875 
#    3.750    0.000    0.000    0.000    0.000    0.000 
#
# Total GULP energy -792906.156111 kJ/mol
# GULP energy per Si atom -12389.158689 kJ/mol
# Density = 1.746440 g / cm^3
# Si number density = 17.504245 Si / 1000 Ang^3
#
#
#
# Elastic Constant Matrix: (Units=GPa)
#
#
# Indices 1 2 3 4 5 6 
#
# 1 106.9394 23.6149 36.3982 0.0000 0.0000 0.0000
# 2 23.6149 37.2079 9.7722 0.0000 0.0000 0.0000
# 3 36.3982 9.7722 88.3307 0.0000 0.0000 0.0000
# 4 0.0000 0.0000 0.0000 5.0944 0.0000 0.0000
# 5 0.0000 0.0000 0.0000 0.0000 17.8705 0.0000
# 6 0.0000 0.0000 0.0000 0.0000 0.0000 23.9099
#
#
#
# Elastic Compliance Matrix: (Units=1/GPa)
#
#
# Indices 1 2 3 4 5 6 
#
# 1 0.012297 -0.006668 -0.004330 0.000000 0.000000 0.000000
# 2 -0.006668 0.031295 -0.000715 0.000000 0.000000 0.000000
# 3 -0.004330 -0.000715 0.013184 0.000000 0.000000 0.000000
# 4 0.000000 0.000000 0.000000 0.196293 0.000000 0.000000
# 5 0.000000 0.000000 0.000000 0.000000 0.055958 0.000000
# 6 0.000000 0.000000 0.000000 0.000000 0.000000 0.041824
#
#
# Mechanical properties :
#
#
# Convention : Reuss Voigt Hill
#
# Bulk Modulus (GPa) = 29.98233 41.33874 35.66053
# Shear Modulus (GPa) = 12.97377 20.22116 16.59746
#
# Velocity S-wave (km/s) = 2.72541 3.40253 3.08262
# Velocity P-wave (km/s) = 5.20285 6.25332 5.75211
#
# Compressibility (1/GPa) = 0.03335298
#
# Stress axis : x y z
#
# Youngs Moduli (GPa) = 81.32015 31.95348 75.84813
#
# Poissons Ratio (x) = 0.21305 0.32839
# Poissons Ratio (y) = 0.54221 0.05422
# Poissons Ratio (z) = 0.35208 0.02284
#
# Static dielectric constant tensor:
#      x y z
#    x 3.495660 0.000000 0.000000 
#    y 0.000000 3.712430 0.000000 
#    z 0.000000 0.000000 3.257990 
# 
# 
# High freq. dielectric constant tensor:
#      x y z
#    x 1.682050 0.000000 0.000000 
#    y 0.000000 1.652320 0.000000 
#    z 0.000000 0.000000 1.642990 
# 
# From -- ./inp_files/43771.got.cif
#   From: 2010.03.12/outbox.cif.g09.slc.cpg/sg72_22_cif.got.tgz:43771.got - 2010.04.16 14:54:00.
