data_PCOD8293612
_publ_section_title
;
Structure prediction by ZEFSAII (Michael W. Deem and Ramdas Pophale) SiO2 
 PCOD8293612
Probable space group: I B A M
;
_chemical_formula_sum "Si O2"
_cell_formula_units_Z 116
_cell_length_a 21.042648
_cell_length_b 30.098608
_cell_length_c 9.352219
_cell_angle_alpha 90.000000
_cell_angle_beta 90.000000
_cell_angle_gamma 90.000000
_cell_volume 5923.269179
_symmetry_space_group_name_H-M "I B A M"
_symmetry_group_IT_number 72
_symmetry_cell_setting 'orthorhombic'
loop_
_space_group_symop_operation_xyz
x,y,z
-x,-y,z
x,-y,1/2-z
-x,y,1/2-z
-x,-y,-z
x,y,-z
-x,y,1/2+z
x,-y,1/2+z
1/2+x,1/2+y,1/2+z
1/2-x,1/2-y,1/2+z
1/2+x,1/2-y,-z
1/2-x,1/2+y,-z
1/2-x,1/2-y,1/2-z
1/2+x,1/2+y,1/2-z
1/2-x,1/2+y,z
1/2+x,1/2-y,z
loop_
_atom_site_type_symbol
_atom_site_label
_atom_site_fract_x
_atom_site_fract_y
_atom_site_fract_z
Si Si1 0.059564 0.859827 0.330631
Si Si2 0.109396 0.065843 0.659336
Si Si3 0.263369 0.708649 0.344332
Si Si4 0.176564 0.629941 0.669559
Si Si5 0.592743 0.721576 0.842124
Si Si6 0.000000 0.000000 0.250000
Si Si7 0.933729 0.676956 0.329756
Si Si8 0.247522 0.458724 0.836064
O O1 0.054669 0.861379 0.500000
O O2 0.112974 0.893663 0.274302
O O3 0.060713 0.808400 0.279810
O O4 0.000000 0.882097 0.250000
O O5 0.109113 0.086702 0.500000
O O6 0.176635 0.042484 0.688423
O O7 0.049293 0.031678 0.663941
O O8 0.235068 0.719407 0.500000
O O9 0.250000 0.750000 0.250000
O O10 0.229916 0.665240 0.283114
O O11 0.337804 0.700929 0.351862
O O12 0.161342 0.631454 0.500000
O O13 0.113752 0.640862 0.761291
O O14 0.207651 0.583772 0.717735
O O15 0.591558 0.773165 0.796448
O O16 0.560372 0.716054 0.000000
O O17 0.940131 0.668995 0.500000
O O18 0.000000 0.670245 0.250000
O O19 0.219309 0.500000 0.750000
O O20 0.231697 0.466524 0.000000
#
# Coordination Sequence:
#
# PCOD8293612 Si02
#       8
#    16  16  16  16  16   4  16  16
#     4  12  25  38  55  79 110 152 202 249 300 354
#     4  11  23  40  61  86 121 158 204 256 307 358
#     4  10  19  34  57  85 119 156 195 240 287 345
#     4  10  21  38  62  89 124 164 203 249 309 365
#     4  10  21  38  58  83 119 158 199 245 297 351
#     4  12  22  36  68  90 118 164 212 256 306 356
#     4  11  23  39  62  90 122 159 202 249 303 368
#     4  10  22  41  64  91 122 159 199 251 309 365
#
# _framework density 19.583780000000001
#
# number of rings (size 3 to 8) (size 9 to 14) (size 15 to 20)
#    0.000    1.379    2.759    3.103    0.000    6.621 
#    0.000    1.379    0.000    0.414    0.000    2.897 
#    0.000    0.000    0.000    0.000    0.000    0.000 
#
# Total GULP energy -718673.882958 kJ/mol
# GULP energy per Si atom -12390.929017 kJ/mol
# Density = 1.953921 g / cm^3
# Si number density = 19.583780 Si / 1000 Ang^3
#
#
#
# Elastic Constant Matrix: (Units=GPa)
#
#
# Indices 1 2 3 4 5 6 
#
# 1 104.4834 52.8889 45.2774 0.0000 0.0000 0.0000
# 2 52.8889 144.2298 69.4940 0.0000 0.0000 0.0000
# 3 45.2774 69.4940 122.9471 0.0000 0.0000 0.0000
# 4 0.0000 0.0000 0.0000 35.2273 0.0000 0.0000
# 5 0.0000 0.0000 0.0000 0.0000 26.9727 0.0000
# 6 0.0000 0.0000 0.0000 0.0000 0.0000 29.6614
#
#
#
# Elastic Compliance Matrix: (Units=1/GPa)
#
#
# Indices 1 2 3 4 5 6 
#
# 1 0.012390 -0.003223 -0.002741 0.000000 0.000000 0.000000
# 2 -0.003223 0.010367 -0.004673 0.000000 0.000000 0.000000
# 3 -0.002741 -0.004673 0.011784 0.000000 0.000000 0.000000
# 4 0.000000 0.000000 0.000000 0.028387 0.000000 0.000000
# 5 0.000000 0.000000 0.000000 0.000000 0.037074 0.000000
# 6 0.000000 0.000000 0.000000 0.000000 0.000000 0.033714
#
#
# Mechanical properties :
#
#
# Convention : Reuss Voigt Hill
#
# Bulk Modulus (GPa) = 75.37156 78.55341 76.96249
# Shear Modulus (GPa) = 31.36521 31.97230 31.66875
#
# Velocity S-wave (km/s) = 4.00633 4.04492 4.02567
# Velocity P-wave (km/s) = 7.74411 7.87488 7.80977
#
# Compressibility (1/GPa) = 0.01326760
#
# Stress axis : x y z
#
# Youngs Moduli (GPa) = 80.70960 96.46394 84.85835
#
# Poissons Ratio (x) = 0.31086 0.23263
# Poissons Ratio (y) = 0.26009 0.39652
# Poissons Ratio (z) = 0.22125 0.45075
#
# Static dielectric constant tensor:
#      x y z
#    x 3.817990 0.000000 0.000000 
#    y 0.000000 3.485850 0.000000 
#    z 0.000000 0.000000 3.603420 
# 
# 
# High freq. dielectric constant tensor:
#      x y z
#    x 1.751810 0.000000 0.000000 
#    y 0.000000 1.758110 0.000000 
#    z 0.000000 0.000000 1.762230 
# 
# From -- ./inp_files/7529.got.cif
#   From: 2010.03.12/outbox.cif.g09.slc.cpg/sg72_4_cif.got.tgz:7529.got - 2010.04.16 14:54:00.
