data_PCOD8293032
_publ_section_title
;
Structure prediction by ZEFSAII (Michael W. Deem and Ramdas Pophale) SiO2 
 PCOD8293032
Probable space group: I B A M
;
_chemical_formula_sum "Si O2"
_cell_formula_units_Z 112
_cell_length_a 16.259721
_cell_length_b 27.175168
_cell_length_c 13.914149
_cell_angle_alpha 90.000000
_cell_angle_beta 90.000000
_cell_angle_gamma 90.000000
_cell_volume 6148.114919
_symmetry_space_group_name_H-M "I B A M"
_symmetry_group_IT_number 72
_symmetry_cell_setting 'orthorhombic'
loop_
_space_group_symop_operation_xyz
x,y,z
-x,-y,z
x,-y,1/2-z
-x,y,1/2-z
-x,-y,-z
x,y,-z
-x,y,1/2+z
x,-y,1/2+z
1/2+x,1/2+y,1/2+z
1/2-x,1/2-y,1/2+z
1/2+x,1/2-y,-z
1/2-x,1/2+y,-z
1/2-x,1/2-y,1/2-z
1/2+x,1/2+y,1/2-z
1/2-x,1/2+y,z
1/2+x,1/2-y,z
loop_
_atom_site_type_symbol
_atom_site_label
_atom_site_fract_x
_atom_site_fract_y
_atom_site_fract_z
Si Si1 0.852504 0.533730 0.891705
Si Si2 0.223926 0.155950 0.887508
Si Si3 0.590779 0.294272 0.226587
Si Si4 0.961969 0.704163 0.106520
Si Si5 0.646348 0.238266 0.607287
Si Si6 0.668015 0.072165 0.307585
Si Si7 0.503277 0.901231 0.108865
O O1 0.841475 0.476163 0.873371
O O2 0.807371 0.562010 0.803805
O O3 0.948284 0.549532 0.884744
O O4 0.819106 0.546593 0.000000
O O5 0.135319 0.165738 0.839585
O O6 0.283712 0.200560 0.859142
O O7 0.259084 0.104752 0.849412
O O8 0.210493 0.151502 0.000000
O O9 0.500000 0.314996 0.250000
O O10 0.585817 0.240280 0.177639
O O11 0.643948 0.285938 0.323518
O O12 0.059650 0.710832 0.112971
O O13 0.946399 0.646790 0.132041
O O14 0.929246 0.716677 0.000000
O O15 0.664633 0.257533 0.500000
O O16 0.578286 0.097673 0.315321
O O17 0.539081 0.895540 0.000000
#
# Coordination Sequence:
#
# PCOD8293032 Si02
#       7
#    16  16  16  16  16  16  16
#     4  10  22  35  49  76 109 141 181 224 265 312
#     4  11  21  35  55  78 103 137 182 220 260 319
#     4  10  21  34  52  75 104 140 176 224 270 316
#     4   9  17  30  49  74 104 144 186 226 263 306
#     4   9  18  32  49  72 103 139 180 220 259 311
#     4  11  21  34  55  76 106 147 182 220 265 315
#     4  10  18  30  50  75 107 146 190 227 260 310
#
# _framework density 18.216964999999998
#
# number of rings (size 3 to 8) (size 9 to 14) (size 15 to 20)
#    0.000    2.000    1.429    3.000    2.000    4.000 
#    0.000    0.714    0.000    0.000    0.000    2.000 
#    0.000    5.714    0.000    0.000    0.000    0.000 
#
# Total GULP energy -694199.521849 kJ/mol
# GULP energy per Si atom -12396.420033 kJ/mol
# Density = 1.817550 g / cm^3
# Si number density = 18.216965 Si / 1000 Ang^3
#
#
#
# Elastic Constant Matrix: (Units=GPa)
#
#
# Indices 1 2 3 4 5 6 
#
# 1 69.9435 49.6883 39.0087 0.0000 0.0000 0.0000
# 2 49.6883 84.0157 44.7574 0.0000 0.0000 0.0000
# 3 39.0087 44.7574 116.8917 -0.0001 0.0000 0.0000
# 4 0.0000 0.0000 -0.0001 26.8147 0.0000 0.0000
# 5 0.0000 0.0000 0.0000 0.0000 23.0328 0.0000
# 6 0.0000 0.0000 0.0000 0.0000 0.0000 25.1822
#
#
#
# Elastic Compliance Matrix: (Units=1/GPa)
#
#
# Indices 1 2 3 4 5 6 
#
# 1 0.025728 -0.013369 -0.003467 0.000000 0.000000 0.000000
# 2 -0.013369 0.021900 -0.003924 0.000000 0.000000 0.000000
# 3 -0.003467 -0.003924 0.011214 0.000000 0.000000 0.000000
# 4 0.000000 0.000000 0.000000 0.037293 0.000000 0.000000
# 5 0.000000 0.000000 0.000000 0.000000 0.043416 0.000000
# 6 0.000000 0.000000 0.000000 0.000000 0.000000 0.039711
#
#
# Mechanical properties :
#
#
# Convention : Reuss Voigt Hill
#
# Bulk Modulus (GPa) = 57.72867 59.75107 58.73987
# Shear Modulus (GPa) = 22.06954 24.16570 23.11762
#
# Velocity S-wave (km/s) = 3.48441 3.64613 3.56619
# Velocity P-wave (km/s) = 6.92434 7.11313 7.01937
#
# Compressibility (1/GPa) = 0.01732241
#
# Stress axis : x y z
#
# Youngs Moduli (GPa) = 38.86742 45.66279 89.17189
#
# Poissons Ratio (x) = 0.61048 0.30915
# Poissons Ratio (y) = 0.51963 0.34989
# Poissons Ratio (z) = 0.13475 0.17917
#
# Static dielectric constant tensor:
#      x y z
#    x 2.952100 0.000000 0.000000 
#    y 0.000000 3.178980 0.000000 
#    z 0.000000 0.000000 3.815900 
# 
# 
# High freq. dielectric constant tensor:
#      x y z
#    x 1.651860 0.000000 0.000000 
#    y 0.000000 1.681040 0.000000 
#    z 0.000000 0.000000 1.735780 
# 
# From -- ./inp_files/22261.got.cif
#   From: 2010.03.12/outbox.cif.g09.slc.cpg/sg72_12_cif.got.tgz:22261.got - 2010.04.16 14:54:00.
