data_PCOD8293999
_publ_section_title
;
Structure prediction by ZEFSAII (Michael W. Deem and Ramdas Pophale) SiO2 
 PCOD8293999
Probable space group: I B A M
;
_chemical_formula_sum "Si O2"
_cell_formula_units_Z 64
_cell_length_a 16.754368
_cell_length_b 9.200396
_cell_length_c 19.023586
_cell_angle_alpha 90.000000
_cell_angle_beta 90.000000
_cell_angle_gamma 90.000000
_cell_volume 2932.425293
_symmetry_space_group_name_H-M "I B A M"
_symmetry_group_IT_number 72
_symmetry_cell_setting 'orthorhombic'
loop_
_space_group_symop_operation_xyz
x,y,z
-x,-y,z
x,-y,1/2-z
-x,y,1/2-z
-x,-y,-z
x,y,-z
-x,y,1/2+z
x,-y,1/2+z
1/2+x,1/2+y,1/2+z
1/2-x,1/2-y,1/2+z
1/2+x,1/2-y,-z
1/2-x,1/2+y,-z
1/2-x,1/2-y,1/2-z
1/2+x,1/2+y,1/2-z
1/2-x,1/2+y,z
1/2+x,1/2-y,z
loop_
_atom_site_type_symbol
_atom_site_label
_atom_site_fract_x
_atom_site_fract_y
_atom_site_fract_z
Si Si1 0.200954 0.642879 0.655219
Si Si2 0.768598 0.614231 0.000000
Si Si3 0.859870 0.670144 0.500000
Si Si4 0.577147 0.096527 0.353341
Si Si5 0.365775 0.346013 0.768121
O O1 0.192711 0.677594 0.571813
O O2 0.155472 0.491684 0.672012
O O3 0.292108 0.624389 0.678882
O O4 0.161861 0.777634 0.694698
O O5 0.782858 0.439803 0.000000
O O6 0.675697 0.665748 0.000000
O O7 0.917037 0.643275 0.565874
O O8 0.570582 0.241180 0.306047
O O9 0.500000 0.000000 0.340146
O O10 0.406734 0.500000 0.750000
#
# Coordination Sequence:
#
# PCOD8293999 Si02
#       5
#    16   8   8  16  16
#     4  10  21  38  60  92 128 169 213 263 317 387
#     4  10  20  34  62  92 124 162 217 264 320 373
#     4  10  21  38  64  98 125 166 218 270 323 388
#     4  11  23  41  64  93 131 173 211 266 333 391
#     4  11  22  37  62  91 126 168 219 267 316 381
#
# _framework density 21.824939000000001
#
# number of rings (size 3 to 8) (size 9 to 14) (size 15 to 20)
#    0.000    1.500    2.500    4.125    3.500    2.000 
#    0.000    2.500    0.000    0.000    0.000   10.500 
#    0.000    0.000    0.000    0.000    0.000    0.000 
#
# Total GULP energy -396753.898632 kJ/mol
# GULP energy per Si atom -12398.559332 kJ/mol
# Density = 2.177526 g / cm^3
# Si number density = 21.824939 Si / 1000 Ang^3
#
#
#
# Elastic Constant Matrix: (Units=GPa)
#
#
# Indices 1 2 3 4 5 6 
#
# 1 70.7117 41.2923 28.6452 0.0000 0.0000 0.0000
# 2 41.2923 145.5070 70.2936 0.0000 0.0000 0.0000
# 3 28.6452 70.2936 152.6966 0.0000 0.0000 0.0000
# 4 0.0000 0.0000 0.0000 30.4964 0.0000 0.0000
# 5 0.0000 0.0000 0.0000 0.0000 7.6369 0.0000
# 6 0.0000 0.0000 0.0000 0.0000 0.0000 35.3622
#
#
#
# Elastic Compliance Matrix: (Units=1/GPa)
#
#
# Indices 1 2 3 4 5 6 
#
# 1 0.017136 -0.004257 -0.001255 0.000000 0.000000 0.000000
# 2 -0.004257 0.009895 -0.003757 0.000000 0.000000 0.000000
# 3 -0.001255 -0.003757 0.008514 0.000000 0.000000 0.000000
# 4 0.000000 0.000000 0.000000 0.032791 0.000000 0.000000
# 5 0.000000 0.000000 0.000000 0.000000 0.130943 0.000000
# 6 0.000000 0.000000 0.000000 0.000000 0.000000 0.028279
#
#
# Mechanical properties :
#
#
# Convention : Reuss Voigt Hill
#
# Bulk Modulus (GPa) = 58.79515 72.15308 65.47412
# Shear Modulus (GPa) = 19.85990 29.94473 24.90231
#
# Velocity S-wave (km/s) = 3.01983 3.70813 3.38154
# Velocity P-wave (km/s) = 6.25756 7.17393 6.73136
#
# Compressibility (1/GPa) = 0.01700821
#
# Stress axis : x y z
#
# Youngs Moduli (GPa) = 58.35664 101.05768 117.45602
#
# Poissons Ratio (x) = 0.43016 0.14742
# Poissons Ratio (y) = 0.24840 0.44126
# Poissons Ratio (z) = 0.07325 0.37965
#
# Static dielectric constant tensor:
#      x y z
#    x 3.516450 0.000000 0.000000 
#    y 0.000000 4.063000 0.000000 
#    z 0.000000 0.000000 4.220200 
# 
# 
# High freq. dielectric constant tensor:
#      x y z
#    x 1.813530 0.000000 0.000000 
#    y 0.000000 1.855890 0.000000 
#    z 0.000000 0.000000 1.883590 
# 
# From -- ./inp_files/38659.got.cif
#   From: 2010.03.12/outbox.cif.g09.slc.cpg/sg72_20_cif.got.tgz:38659.got - 2010.04.16 14:54:00.
