data_PCOD8293306
_publ_section_title
;
Structure prediction by ZEFSAII (Michael W. Deem and Ramdas Pophale) SiO2 
 PCOD8293306
Probable space group: I B A M
;
_chemical_formula_sum "Si O2"
_cell_formula_units_Z 80
_cell_length_a 18.652320
_cell_length_b 26.900330
_cell_length_c 8.769078
_cell_angle_alpha 90.000000
_cell_angle_beta 90.000000
_cell_angle_gamma 90.000000
_cell_volume 4399.916133
_symmetry_space_group_name_H-M "I B A M"
_symmetry_group_IT_number 72
_symmetry_cell_setting 'orthorhombic'
loop_
_space_group_symop_operation_xyz
x,y,z
-x,-y,z
x,-y,1/2-z
-x,y,1/2-z
-x,-y,-z
x,y,-z
-x,y,1/2+z
x,-y,1/2+z
1/2+x,1/2+y,1/2+z
1/2-x,1/2-y,1/2+z
1/2+x,1/2-y,-z
1/2-x,1/2+y,-z
1/2-x,1/2-y,1/2-z
1/2+x,1/2+y,1/2-z
1/2-x,1/2+y,z
1/2+x,1/2-y,z
loop_
_atom_site_type_symbol
_atom_site_label
_atom_site_fract_x
_atom_site_fract_y
_atom_site_fract_z
Si Si1 0.924985 0.148316 0.181545
Si Si2 0.571583 0.053428 0.178625
Si Si3 0.720573 0.098239 0.177309
Si Si4 0.216216 0.201914 0.676495
Si Si5 0.854742 0.052554 0.319367
O O1 0.864595 0.188610 0.231679
O O2 0.906058 0.094513 0.249198
O O3 0.000000 0.167124 0.250000
O O4 0.928872 0.143584 0.000000
O O5 0.500000 0.077899 0.250000
O O6 0.638453 0.088121 0.219489
O O7 0.585957 0.000000 0.250000
O O8 0.560640 0.047248 0.000000
O O9 0.733173 0.155588 0.217750
O O10 0.772007 0.063041 0.276254
O O11 0.737726 0.087364 0.000000
O O12 0.214742 0.212911 0.500000
O O13 0.250000 0.250000 0.750000
O O14 0.863751 0.051594 0.500000
O O15 0.878994 0.000000 0.250000
#
# Coordination Sequence:
#
# PCOD8293306 Si02
#       5
#    16  16  16  16  16
#     4  10  21  38  57  80 109 139 173 215 259 307
#     4  10  19  31  48  70 100 135 170 209 255 304
#     4   9  19  35  52  73 102 135 173 220 263 305
#     4   9  19  36  57  79 104 132 168 213 259 306
#     4  11  21  33  52  78 107 141 177 213 254 306
#
# _framework density 18.182165000000001
#
# number of rings (size 3 to 8) (size 9 to 14) (size 15 to 20)
#    0.000    2.200    0.000    5.400    0.000    7.600 
#    0.000    3.000    0.000    4.800    0.000    0.000 
#    0.000    0.000    0.000    0.000    0.000    0.000 
#
# Total GULP energy -495991.901601 kJ/mol
# GULP energy per Si atom -12399.797540 kJ/mol
# Density = 1.814078 g / cm^3
# Si number density = 18.182165 Si / 1000 Ang^3
#
#
#
# Elastic Constant Matrix: (Units=GPa)
#
#
# Indices 1 2 3 4 5 6 
#
# 1 162.0834 68.0920 54.9137 0.0000 0.0000 0.0000
# 2 68.0920 108.3626 42.8960 0.0000 0.0000 0.0000
# 3 54.9137 42.8960 94.7268 0.0000 0.0000 0.0000
# 4 0.0000 0.0000 0.0000 29.2380 0.0000 0.0000
# 5 0.0000 0.0000 0.0000 0.0000 32.8941 0.0000
# 6 0.0000 0.0000 0.0000 0.0000 0.0000 18.3463
#
#
#
# Elastic Compliance Matrix: (Units=1/GPa)
#
#
# Indices 1 2 3 4 5 6 
#
# 1 0.009154 -0.004449 -0.003292 0.000000 0.000000 0.000000
# 2 -0.004449 0.013406 -0.003492 0.000000 0.000000 0.000000
# 3 -0.003292 -0.003492 0.014046 0.000000 0.000000 0.000000
# 4 0.000000 0.000000 0.000000 0.034202 0.000000 0.000000
# 5 0.000000 0.000000 0.000000 0.000000 0.030401 0.000000
# 6 0.000000 0.000000 0.000000 0.000000 0.000000 0.054507
#
#
# Mechanical properties :
#
#
# Convention : Reuss Voigt Hill
#
# Bulk Modulus (GPa) = 70.71613 77.44179 74.07896
# Shear Modulus (GPa) = 27.33811 29.38042 28.35926
#
# Velocity S-wave (km/s) = 3.88179 4.02418 3.95363
# Velocity P-wave (km/s) = 7.68561 8.01727 7.85319
#
# Compressibility (1/GPa) = 0.01414104
#
# Stress axis : x y z
#
# Youngs Moduli (GPa) = 109.24163 74.59286 71.19351
#
# Poissons Ratio (x) = 0.33186 0.23437
# Poissons Ratio (y) = 0.48601 0.24859
# Poissons Ratio (z) = 0.35962 0.26046
#
# Static dielectric constant tensor:
#      x y z
#    x 3.780740 0.000000 0.000000 
#    y 0.000000 3.278210 0.000000 
#    z 0.000000 0.000000 3.407720 
# 
# 
# High freq. dielectric constant tensor:
#      x y z
#    x 1.712760 0.000000 0.000000 
#    y 0.000000 1.686130 0.000000 
#    z 0.000000 0.000000 1.712300 
# 
# From -- ./inp_files/4819.got.cif
#   From: 2010.03.12/outbox.cif.g09.slc.cpg/sg72_3_cif.got.tgz:4819.got - 2010.04.16 14:54:00.
