data_PCOD8293150
_publ_section_title
;
Structure prediction by ZEFSAII (Michael W. Deem and Ramdas Pophale) SiO2 
 PCOD8293150
Probable space group: I B A M
;
_chemical_formula_sum "Si O2"
_cell_formula_units_Z 64
_cell_length_a 9.928073
_cell_length_b 20.221367
_cell_length_c 16.908076
_cell_angle_alpha 90.000000
_cell_angle_beta 90.000000
_cell_angle_gamma 90.000000
_cell_volume 3394.451942
_symmetry_space_group_name_H-M "I B A M"
_symmetry_group_IT_number 72
_symmetry_cell_setting 'orthorhombic'
loop_
_space_group_symop_operation_xyz
x,y,z
-x,-y,z
x,-y,1/2-z
-x,y,1/2-z
-x,-y,-z
x,y,-z
-x,y,1/2+z
x,-y,1/2+z
1/2+x,1/2+y,1/2+z
1/2-x,1/2-y,1/2+z
1/2+x,1/2-y,-z
1/2-x,1/2+y,-z
1/2-x,1/2-y,1/2-z
1/2+x,1/2+y,1/2-z
1/2-x,1/2+y,z
1/2+x,1/2-y,z
loop_
_atom_site_type_symbol
_atom_site_label
_atom_site_fract_x
_atom_site_fract_y
_atom_site_fract_z
Si Si1 0.959036 0.354748 0.658764
Si Si2 0.651811 0.025212 0.088235
Si Si3 0.238377 0.386441 0.408518
Si Si4 0.370938 0.721061 0.802074
O O1 0.841174 0.409396 0.643281
O O2 0.905992 0.281411 0.639007
O O3 0.000000 0.360111 0.750000
O O4 0.083965 0.364603 0.600557
O O5 0.500000 0.000000 0.091032
O O6 0.748353 0.964552 0.116111
O O7 0.693228 0.046417 0.000000
O O8 0.280226 0.376943 0.500000
O O9 0.333353 0.343644 0.351963
O O10 0.500000 0.701100 0.750000
O O11 0.250000 0.750000 0.750000
#
# Coordination Sequence:
#
# PCOD8293150 Si02
#       4
#    16  16  16  16
#     4  10  18  32  57  84 120 148 193 241 293 343
#     4   8  16  30  50  81 115 141 182 240 283 330
#     4  10  20  35  56  86 117 150 194 245 293 344
#     4  11  21  39  56  82 119 154 191 245 289 347
#
# _framework density 18.854296000000001
#
# number of rings (size 3 to 8) (size 9 to 14) (size 15 to 20)
#    0.000    2.250    5.000    2.250    0.000    6.500 
#    0.000    0.000    0.000    3.000    0.000    3.500 
#    0.000    0.000    0.000    0.000    0.000    0.000 
#
# Total GULP energy -396458.675696 kJ/mol
# GULP energy per Si atom -12389.333615 kJ/mol
# Density = 1.881138 g / cm^3
# Si number density = 18.854296 Si / 1000 Ang^3
#
#
#
# Elastic Constant Matrix: (Units=GPa)
#
#
# Indices 1 2 3 4 5 6 
#
# 1 68.0172 44.8148 30.0136 0.0000 0.0000 0.0000
# 2 44.8148 176.7317 64.0591 0.0000 0.0000 0.0000
# 3 30.0136 64.0591 73.2246 0.0000 0.0000 0.0000
# 4 0.0000 0.0000 0.0000 26.5853 0.0000 0.0000
# 5 0.0000 0.0000 0.0000 0.0000 25.5672 0.0000
# 6 0.0000 0.0000 0.0000 0.0000 0.0000 35.9485
#
#
#
# Elastic Compliance Matrix: (Units=1/GPa)
#
#
# Indices 1 2 3 4 5 6 
#
# 1 0.018917 -0.002909 -0.005209 0.000000 0.000000 0.000000
# 2 -0.002909 0.008733 -0.006448 0.000000 0.000000 0.000000
# 3 -0.005209 -0.006448 0.021432 0.000000 0.000000 0.000000
# 4 0.000000 0.000000 0.000000 0.037615 0.000000 0.000000
# 5 0.000000 0.000000 0.000000 0.000000 0.039113 0.000000
# 6 0.000000 0.000000 0.000000 0.000000 0.000000 0.027818
#
#
# Mechanical properties :
#
#
# Convention : Reuss Voigt Hill
#
# Bulk Modulus (GPa) = 50.12172 66.19429 58.15800
# Shear Modulus (GPa) = 26.39789 29.55927 27.97858
#
# Velocity S-wave (km/s) = 3.74585 3.96381 3.85637
# Velocity P-wave (km/s) = 6.73424 7.49223 7.12333
#
# Compressibility (1/GPa) = 0.01995143
#
# Stress axis : x y z
#
# Youngs Moduli (GPa) = 52.86147 114.50948 46.65861
#
# Poissons Ratio (x) = 0.33309 0.24305
# Poissons Ratio (y) = 0.15376 0.30083
# Poissons Ratio (z) = 0.27537 0.73830
#
# Static dielectric constant tensor:
#      x y z
#    x 3.269130 0.000000 0.000000 
#    y 0.000000 4.145030 0.000000 
#    z 0.000000 0.000000 3.374120 
# 
# 
# High freq. dielectric constant tensor:
#      x y z
#    x 1.685200 0.000000 0.000000 
#    y 0.000000 1.751010 0.000000 
#    z 0.000000 0.000000 1.721760 
# 
# From -- ./inp_files/18653.got.cif
#   From: 2010.03.12/outbox.cif.g09.slc.cpg/sg72_10_cif.got.tgz:18653.got - 2010.04.16 14:54:00.
