data_PCOD8293645
_publ_section_title
;
Structure prediction by ZEFSAII (Michael W. Deem and Ramdas Pophale) SiO2 
 PCOD8293645
Probable space group: I B A M
;
_chemical_formula_sum "Si O2"
_cell_formula_units_Z 96
_cell_length_a 25.323170
_cell_length_b 20.033342
_cell_length_c 9.586758
_cell_angle_alpha 90.000000
_cell_angle_beta 90.000000
_cell_angle_gamma 90.000000
_cell_volume 4863.436392
_symmetry_space_group_name_H-M "I B A M"
_symmetry_group_IT_number 72
_symmetry_cell_setting 'orthorhombic'
loop_
_space_group_symop_operation_xyz
x,y,z
-x,-y,z
x,-y,1/2-z
-x,y,1/2-z
-x,-y,-z
x,y,-z
-x,y,1/2+z
x,-y,1/2+z
1/2+x,1/2+y,1/2+z
1/2-x,1/2-y,1/2+z
1/2+x,1/2-y,-z
1/2-x,1/2+y,-z
1/2-x,1/2-y,1/2-z
1/2+x,1/2+y,1/2-z
1/2-x,1/2+y,z
1/2+x,1/2-y,z
loop_
_atom_site_type_symbol
_atom_site_label
_atom_site_fract_x
_atom_site_fract_y
_atom_site_fract_z
Si Si1 0.210645 0.212369 0.652296
Si Si2 0.608106 0.200835 0.654663
Si Si3 0.947912 0.192578 0.334037
Si Si4 0.721221 0.403634 0.845963
Si Si5 0.659878 0.061992 0.662480
Si Si6 0.391114 0.557007 0.847638
O O1 0.235911 0.199424 0.500000
O O2 0.250000 0.250000 0.750000
O O3 0.158972 0.254828 0.634695
O O4 0.198791 0.143338 0.726048
O O5 0.580754 0.195757 0.500000
O O6 0.571263 0.236313 0.769617
O O7 0.626957 0.127759 0.707145
O O8 0.957692 0.202323 0.500000
O O9 0.906278 0.132918 0.303508
O O10 0.000000 0.171626 0.250000
O O11 0.777741 0.432800 0.801152
O O12 0.672543 0.455277 0.854933
O O13 0.728253 0.369172 0.000000
O O14 0.651968 0.047161 0.500000
O O15 0.636751 0.000000 0.750000
O O16 0.416319 0.500000 0.750000
O O17 0.415669 0.544348 0.000000
#
# Coordination Sequence:
#
# PCOD8293645 Si02
#       6
#    16  16  16  16  16  16
#     4  11  20  31  52  81 113 151 193 236 282 332
#     4  10  21  38  59  83 114 151 191 240 291 342
#     4  11  24  42  64  88 112 143 188 243 297 352
#     4  10  19  35  53  79 119 156 197 236 271 326
#     4  10  21  36  55  83 121 158 193 234 278 335
#     4  10  22  37  57  83 117 157 196 238 280 333
#
# _framework density 19.739128999999998
#
# number of rings (size 3 to 8) (size 9 to 14) (size 15 to 20)
#    0.000    1.667    3.333    1.500    0.000    4.333 
#    0.000    1.667    0.000    0.500    0.000    3.500 
#    0.000    0.000    0.000    0.000    0.000    0.000 
#
# Total GULP energy -594684.950388 kJ/mol
# GULP energy per Si atom -12389.269800 kJ/mol
# Density = 1.969420 g / cm^3
# Si number density = 19.739129 Si / 1000 Ang^3
#
#
#
# Elastic Constant Matrix: (Units=GPa)
#
#
# Indices 1 2 3 4 5 6 
#
# 1 54.5970 17.6104 29.8703 0.0000 0.0000 0.0000
# 2 17.6104 124.1704 68.7404 0.0000 0.0000 0.0000
# 3 29.8703 68.7404 125.5977 0.0000 0.0000 0.0000
# 4 0.0000 0.0000 0.0000 31.2415 0.0000 0.0000
# 5 0.0000 0.0000 0.0000 0.0000 25.4279 0.0000
# 6 0.0000 0.0000 0.0000 0.0000 0.0000 12.8477
#
#
#
# Elastic Compliance Matrix: (Units=1/GPa)
#
#
# Indices 1 2 3 4 5 6 
#
# 1 0.021064 -0.000307 -0.004841 0.000000 0.000000 0.000000
# 2 -0.000307 0.011559 -0.006253 0.000000 0.000000 0.000000
# 3 -0.004841 -0.006253 0.012536 0.000000 0.000000 0.000000
# 4 0.000000 0.000000 0.000000 0.032009 0.000000 0.000000
# 5 0.000000 0.000000 0.000000 0.000000 0.039327 0.000000
# 6 0.000000 0.000000 0.000000 0.000000 0.000000 0.077835
#
#
# Mechanical properties :
#
#
# Convention : Reuss Voigt Hill
#
# Bulk Modulus (GPa) = 44.73290 59.64527 52.18908
# Shear Modulus (GPa) = 22.26339 26.44634 24.35487
#
# Velocity S-wave (km/s) = 3.36204 3.66429 3.51641
# Velocity P-wave (km/s) = 6.14673 6.94155 6.55619
#
# Compressibility (1/GPa) = 0.02235491
#
# Stress axis : x y z
#
# Youngs Moduli (GPa) = 47.47462 86.51490 79.77226
#
# Poissons Ratio (x) = 0.02658 0.38621
# Poissons Ratio (y) = 0.01458 0.49882
# Poissons Ratio (z) = 0.22984 0.54099
#
# Static dielectric constant tensor:
#      x y z
#    x 3.293460 0.000000 0.000000 
#    y 0.000000 4.246190 0.000000 
#    z 0.000000 0.000000 3.685380 
# 
# 
# High freq. dielectric constant tensor:
#      x y z
#    x 1.738170 0.000000 0.000000 
#    y 0.000000 1.757460 0.000000 
#    z 0.000000 0.000000 1.783080 
# 
# From -- ./inp_files/5951.got.cif
#   From: 2010.03.12/outbox.cif.g09.slc.cpg/sg72_3_cif.got.tgz:5951.got - 2010.04.16 14:54:00.
