data_PCOD8293722
_publ_section_title
;
Structure prediction by ZEFSAII (Michael W. Deem and Ramdas Pophale) SiO2 
 PCOD8293722
Probable space group: I B A M
;
_chemical_formula_sum "Si O2"
_cell_formula_units_Z 112
_cell_length_a 13.926843
_cell_length_b 14.519037
_cell_length_c 25.798377
_cell_angle_alpha 90.000000
_cell_angle_beta 90.000000
_cell_angle_gamma 90.000000
_cell_volume 5216.544022
_symmetry_space_group_name_H-M "I B A M"
_symmetry_group_IT_number 72
_symmetry_cell_setting 'orthorhombic'
loop_
_space_group_symop_operation_xyz
x,y,z
-x,-y,z
x,-y,1/2-z
-x,y,1/2-z
-x,-y,-z
x,y,-z
-x,y,1/2+z
x,-y,1/2+z
1/2+x,1/2+y,1/2+z
1/2-x,1/2-y,1/2+z
1/2+x,1/2-y,-z
1/2-x,1/2+y,-z
1/2-x,1/2-y,1/2-z
1/2+x,1/2+y,1/2-z
1/2-x,1/2+y,z
1/2+x,1/2-y,z
loop_
_atom_site_type_symbol
_atom_site_label
_atom_site_fract_x
_atom_site_fract_y
_atom_site_fract_z
Si Si1 0.711127 0.946924 0.699801
Si Si2 0.927600 0.279622 0.941037
Si Si3 0.583757 0.931870 0.131045
Si Si4 0.893913 0.032185 0.439120
Si Si5 0.954614 0.308834 0.300567
Si Si6 0.123387 0.234033 0.099437
Si Si7 0.697387 0.637322 0.108284
O O1 0.622850 0.884431 0.718937
O O2 0.792184 0.886394 0.669957
O O3 0.753932 0.000000 0.750000
O O4 0.674412 0.016843 0.655442
O O5 0.883100 0.375575 0.920147
O O6 0.897435 0.196153 0.903126
O O7 0.042730 0.280070 0.937032
O O8 0.893796 0.263390 0.000000
O O9 0.542651 0.859640 0.172064
O O10 0.500000 0.000000 0.113157
O O11 0.896624 0.047941 0.500000
O O12 0.859826 0.127644 0.413304
O O13 0.813556 0.956844 0.424245
O O14 0.000000 0.000000 0.419649
O O15 0.904538 0.237315 0.339454
O O16 0.000000 0.258817 0.250000
O O17 0.214690 0.299276 0.088645
#
# Coordination Sequence:
#
# PCOD8293722 Si02
#       7
#    16  16  16  16  16  16  16
#     4  10  19  36  62  95 133 172 220 272 334 401
#     4  11  23  42  62  87 134 177 215 276 337 389
#     4   9  19  34  60  94 122 160 217 272 322 395
#     4  11  23  44  72  92 124 185 233 274 339 405
#     4   9  16  33  64  97 129 172 215 269 339 395
#     4  10  23  42  66  97 132 169 226 280 326 404
#     4  11  25  42  64 100 134 169 228 281 326 402
#
# _framework density 21.470154000000001
#
# number of rings (size 3 to 8) (size 9 to 14) (size 15 to 20)
#    0.000    1.857    2.857    1.714    2.000    2.571 
#    0.000    4.286    0.000    0.000    0.000    0.000 
#    0.000    0.000    0.000    0.000    0.000    0.000 
#
# Total GULP energy -694128.278129 kJ/mol
# GULP energy per Si atom -12395.147824 kJ/mol
# Density = 2.142129 g / cm^3
# Si number density = 21.470154 Si / 1000 Ang^3
#
#
#
# Elastic Constant Matrix: (Units=GPa)
#
#
# Indices 1 2 3 4 5 6 
#
# 1 60.8737 38.7300 36.5967 0.0000 0.0000 0.0000
# 2 38.7300 144.8311 62.5895 0.0000 0.0000 0.0000
# 3 36.5967 62.5895 121.8117 0.0000 0.0000 0.0000
# 4 0.0000 0.0000 0.0000 36.2103 0.0000 0.0000
# 5 0.0000 0.0000 0.0000 0.0000 3.5092 0.0000
# 6 0.0000 0.0000 0.0000 0.0000 0.0000 32.9107
#
#
#
# Elastic Compliance Matrix: (Units=1/GPa)
#
#
# Indices 1 2 3 4 5 6 
#
# 1 0.021573 -0.003815 -0.004521 0.000000 0.000000 0.000000
# 2 -0.003815 0.009550 -0.003761 0.000000 0.000000 0.000000
# 3 -0.004521 -0.003761 0.011500 0.000000 0.000000 0.000000
# 4 0.000000 0.000000 0.000000 0.027616 0.000000 0.000000
# 5 0.000000 0.000000 0.000000 0.000000 0.284967 0.000000
# 6 0.000000 0.000000 0.000000 0.000000 0.000000 0.030385
#
#
# Mechanical properties :
#
#
# Convention : Reuss Voigt Hill
#
# Bulk Modulus (GPa) = 54.26216 67.03876 60.65046
# Shear Modulus (GPa) = 12.02129 27.16606 19.59367
#
# Velocity S-wave (km/s) = 2.36880 3.56096 3.02421
# Velocity P-wave (km/s) = 5.72798 6.94256 6.36431
#
# Compressibility (1/GPa) = 0.01842905
#
# Stress axis : x y z
#
# Youngs Moduli (GPa) = 46.35482 104.71117 86.95606
#
# Poissons Ratio (x) = 0.39948 0.39312
# Poissons Ratio (y) = 0.17685 0.32703
# Poissons Ratio (z) = 0.20957 0.39380
#
# Static dielectric constant tensor:
#      x y z
#    x 3.726340 0.000000 0.000000 
#    y 0.000000 4.012190 0.000000 
#    z 0.000000 0.000000 3.782430 
# 
# 
# High freq. dielectric constant tensor:
#      x y z
#    x 1.826670 0.000000 0.000000 
#    y 0.000000 1.841980 0.000000 
#    z 0.000000 0.000000 1.831380 
# 
# From -- ./inp_files/44370.got.cif
#   From: 2010.03.12/outbox.cif.g09.slc.cpg/sg72_23_cif.got.tgz:44370.got - 2010.04.16 14:54:00.
