data_PCOD8293293
_publ_section_title
;
Structure prediction by ZEFSAII (Michael W. Deem and Ramdas Pophale) SiO2 
 PCOD8293293
Probable space group: I B A M
;
_chemical_formula_sum "Si O2"
_cell_formula_units_Z 88
_cell_length_a 26.174364
_cell_length_b 10.008609
_cell_length_c 13.924180
_cell_angle_alpha 90.000000
_cell_angle_beta 90.000000
_cell_angle_gamma 90.000000
_cell_volume 3647.703164
_symmetry_space_group_name_H-M "I B A M"
_symmetry_group_IT_number 72
_symmetry_cell_setting 'orthorhombic'
loop_
_space_group_symop_operation_xyz
x,y,z
-x,-y,z
x,-y,1/2-z
-x,y,1/2-z
-x,-y,-z
x,y,-z
-x,y,1/2+z
x,-y,1/2+z
1/2+x,1/2+y,1/2+z
1/2-x,1/2-y,1/2+z
1/2+x,1/2-y,-z
1/2-x,1/2+y,-z
1/2-x,1/2-y,1/2-z
1/2+x,1/2+y,1/2-z
1/2-x,1/2+y,z
1/2+x,1/2-y,z
loop_
_atom_site_type_symbol
_atom_site_label
_atom_site_fract_x
_atom_site_fract_y
_atom_site_fract_z
Si Si1 0.232849 0.154223 0.392671
Si Si2 0.414806 0.146883 0.887392
Si Si3 0.536440 0.383358 0.104507
Si Si4 0.304026 0.930466 0.385153
Si Si5 0.500000 0.178068 0.250000
Si Si6 0.623814 0.442322 0.644813
O O1 0.252820 0.179042 0.500000
O O2 0.223699 0.297302 0.341125
O O3 0.179738 0.073739 0.399406
O O4 0.276170 0.061895 0.341249
O O5 0.363675 0.066316 0.857521
O O6 0.461553 0.093242 0.819731
O O7 0.407710 0.303987 0.864945
O O8 0.427166 0.124379 0.000000
O O9 0.500000 0.500000 0.144854
O O10 0.536282 0.264158 0.180255
O O11 0.593038 0.443022 0.088917
O O12 0.517147 0.331649 0.000000
O O13 0.298580 0.921301 0.500000
O O14 0.629175 0.500000 0.750000
#
# Coordination Sequence:
#
# PCOD8293293 Si02
#       6
#    16  16  16  16   8  16
#     4   9  17  31  51  73 102 142 184 224 269 324
#     4  10  19  31  45  66 102 141 175 218 273 330
#     4  11  19  27  40  62  96 137 174 215 266 328
#     4   8  16  31  52  76 105 144 182 221 271 326
#     4  12  19  28  42  66  98 133 182 213 274 333
#     4  11  18  29  43  67 100 139 175 213 266 322
#
# _framework density 24.124770000000002
#
# number of rings (size 3 to 8) (size 9 to 14) (size 15 to 20)
#    0.000    2.000    3.636    3.545    0.000    0.000 
#    0.000    3.636    0.000    0.000    0.000    0.000 
#    0.000   11.636    0.000   15.636    0.000    0.727 
#
# Total GULP energy -545208.081355 kJ/mol
# GULP energy per Si atom -12391.092758 kJ/mol
# Density = 2.406986 g / cm^3
# Si number density = 24.124770 Si / 1000 Ang^3
#
#
#
# Elastic Constant Matrix: (Units=GPa)
#
#
# Indices 1 2 3 4 5 6 
#
# 1 145.3882 58.6619 26.0218 0.0000 0.0000 0.0000
# 2 58.6619 65.3872 31.0285 0.0000 0.0000 0.0000
# 3 26.0218 31.0285 88.3795 0.0000 0.0000 0.0000
# 4 0.0000 0.0000 0.0000 55.4696 0.0000 0.0000
# 5 0.0000 0.0000 0.0000 0.0000 4.2260 0.0000
# 6 0.0000 0.0000 0.0000 0.0000 0.0000 21.4425
#
#
#
# Elastic Compliance Matrix: (Units=1/GPa)
#
#
# Indices 1 2 3 4 5 6 
#
# 1 0.010786 -0.009803 0.000266 0.000000 0.000000 0.000000
# 2 -0.009803 0.027260 -0.006684 0.000000 0.000000 0.000000
# 3 0.000266 -0.006684 0.013583 0.000000 0.000000 0.000000
# 4 0.000000 0.000000 0.000000 0.018028 0.000000 0.000000
# 5 0.000000 0.000000 0.000000 0.000000 0.236630 0.000000
# 6 0.000000 0.000000 0.000000 0.000000 0.000000 0.046636
#
#
# Mechanical properties :
#
#
# Convention : Reuss Voigt Hill
#
# Bulk Modulus (GPa) = 52.11894 58.95325 55.53610
# Shear Modulus (GPa) = 12.76290 28.45714 20.61002
#
# Velocity S-wave (km/s) = 2.30258 3.43823 2.92603
# Velocity P-wave (km/s) = 5.35910 6.34443 5.87247
#
# Compressibility (1/GPa) = 0.01918688
#
# Stress axis : x y z
#
# Youngs Moduli (GPa) = 92.71519 36.68420 73.61983
#
# Poissons Ratio (x) = 0.35960 -0.01957
# Poissons Ratio (y) = 0.90884 0.49209
# Poissons Ratio (z) = -0.02465 0.24521
#
# Static dielectric constant tensor:
#      x y z
#    x 4.532230 0.000000 0.000000 
#    y 0.000000 4.160890 0.000000 
#    z 0.000000 0.000000 4.196780 
# 
# 
# High freq. dielectric constant tensor:
#      x y z
#    x 1.954740 0.000000 0.000000 
#    y 0.000000 1.926250 0.000000 
#    z 0.000000 0.000000 1.959360 
# 
# From -- ./inp_files/25009.got.cif
#   From: 2010.03.12/outbox.cif.g09.slc.cpg/sg72_13_cif.got.tgz:25009.got - 2010.04.16 14:54:00.
