data_PCOD8293730
_publ_section_title
;
Structure prediction by ZEFSAII (Michael W. Deem and Ramdas Pophale) SiO2 
 PCOD8293730
Probable space group: I B A M
;
_chemical_formula_sum "Si O2"
_cell_formula_units_Z 68
_cell_length_a 23.697455
_cell_length_b 8.946229
_cell_length_c 14.146576
_cell_angle_alpha 90.000000
_cell_angle_beta 90.000000
_cell_angle_gamma 90.000000
_cell_volume 2999.114559
_symmetry_space_group_name_H-M "I B A M"
_symmetry_group_IT_number 72
_symmetry_cell_setting 'orthorhombic'
loop_
_space_group_symop_operation_xyz
x,y,z
-x,-y,z
x,-y,1/2-z
-x,y,1/2-z
-x,-y,-z
x,y,-z
-x,y,1/2+z
x,-y,1/2+z
1/2+x,1/2+y,1/2+z
1/2-x,1/2-y,1/2+z
1/2+x,1/2-y,-z
1/2-x,1/2+y,-z
1/2-x,1/2-y,1/2-z
1/2+x,1/2+y,1/2-z
1/2-x,1/2+y,z
1/2+x,1/2-y,z
loop_
_atom_site_type_symbol
_atom_site_label
_atom_site_fract_x
_atom_site_fract_y
_atom_site_fract_z
Si Si1 0.000000 0.000000 0.750000
Si Si2 0.779905 0.261892 0.000000
Si Si3 0.338797 0.858943 0.692925
Si Si4 0.561805 0.988665 0.393981
Si Si5 0.327459 0.560028 0.000000
Si Si6 0.602231 0.674633 0.338633
O O1 0.042376 0.103945 0.809541
O O2 0.805005 0.330807 0.903369
O O3 0.788033 0.085252 0.000000
O O4 0.713247 0.294842 0.000000
O O5 0.350459 0.711254 0.756962
O O6 0.310187 0.000000 0.750000
O O7 0.402822 0.901176 0.670402
O O8 0.561590 0.052076 0.500000
O O9 0.588122 0.824233 0.395225
O O10 0.500000 0.000000 0.349722
O O11 0.367067 0.558198 0.092022
#
# Coordination Sequence:
#
# PCOD8293730 Si02
#       6
#     4   8  16  16   8  16
#     4  12  24  42  70  96 156 186 228 288 386 436
#     4  12  28  50  71 104 139 200 241 308 362 414
#     4  10  23  43  76 101 144 181 248 294 366 428
#     4  10  19  36  68 103 138 181 229 290 358 432
#     4  12  30  47  75 100 153 187 261 293 363 422
#     4  11  24  45  67 108 142 189 236 303 351 452
#
# _framework density 22.673356999999999
#
# number of rings (size 3 to 8) (size 9 to 14) (size 15 to 20)
#    0.000    1.176    2.353    2.824    6.588    4.706 
#    2.118    0.000    0.000    0.000    0.000    0.000 
#    0.000    0.000    0.000    0.000    0.000    0.000 
#
# Total GULP energy -421443.297359 kJ/mol
# GULP energy per Si atom -12395.391099 kJ/mol
# Density = 2.262175 g / cm^3
# Si number density = 22.673357 Si / 1000 Ang^3
#
#
#
# Elastic Constant Matrix: (Units=GPa)
#
#
# Indices 1 2 3 4 5 6 
#
# 1 104.4577 25.4530 41.7711 0.0000 0.0000 0.0000
# 2 25.4530 79.7402 35.3844 0.0000 0.0000 0.0000
# 3 41.7711 35.3844 137.8574 0.0000 0.0000 0.0000
# 4 0.0000 0.0000 0.0000 18.1621 0.0000 0.0000
# 5 0.0000 0.0000 0.0000 0.0000 16.5080 0.0000
# 6 0.0000 0.0000 0.0000 0.0000 0.0000 33.4769
#
#
#
# Elastic Compliance Matrix: (Units=1/GPa)
#
#
# Indices 1 2 3 4 5 6 
#
# 1 0.011270 -0.002350 -0.002812 0.000000 0.000000 0.000000
# 2 -0.002350 0.014643 -0.003046 0.000000 0.000000 0.000000
# 3 -0.002812 -0.003046 0.008888 0.000000 0.000000 0.000000
# 4 0.000000 0.000000 0.000000 0.055060 0.000000 0.000000
# 5 0.000000 0.000000 0.000000 0.000000 0.060577 0.000000
# 6 0.000000 0.000000 0.000000 0.000000 0.000000 0.029871
#
#
# Mechanical properties :
#
#
# Convention : Reuss Voigt Hill
#
# Bulk Modulus (GPa) = 54.39289 58.58582 56.48936
# Shear Modulus (GPa) = 24.64847 28.25919 26.45383
#
# Velocity S-wave (km/s) = 3.30071 3.53421 3.41946
# Velocity P-wave (km/s) = 6.21033 6.52299 6.36858
#
# Compressibility (1/GPa) = 0.01838476
#
# Stress axis : x y z
#
# Youngs Moduli (GPa) = 88.72963 68.29398 112.51401
#
# Poissons Ratio (x) = 0.16047 0.31637
# Poissons Ratio (y) = 0.20849 0.34276
# Poissons Ratio (z) = 0.24949 0.20805
#
# Static dielectric constant tensor:
#      x y z
#    x 3.946550 0.000000 0.000000 
#    y 0.000000 4.094520 0.000000 
#    z 0.000000 0.000000 4.282710 
# 
# 
# High freq. dielectric constant tensor:
#      x y z
#    x 1.890960 0.000000 0.000000 
#    y 0.000000 1.885690 0.000000 
#    z 0.000000 0.000000 1.914330 
# 
# From -- ./inp_files/32323.got.cif
#   From: 2010.03.12/outbox.cif.g09.slc.cpg/sg72_17_cif.got.tgz:32323.got - 2010.04.16 14:54:00.
