data_PCOD8293214
_publ_section_title
;
Structure prediction by ZEFSAII (Michael W. Deem and Ramdas Pophale) SiO2 
 PCOD8293214
Probable space group: I B A M
;
_chemical_formula_sum "Si O2"
_cell_formula_units_Z 88
_cell_length_a 20.929273
_cell_length_b 12.882068
_cell_length_c 17.187414
_cell_angle_alpha 90.000000
_cell_angle_beta 90.000000
_cell_angle_gamma 90.000000
_cell_volume 4633.938529
_symmetry_space_group_name_H-M "I B A M"
_symmetry_group_IT_number 72
_symmetry_cell_setting 'orthorhombic'
loop_
_space_group_symop_operation_xyz
x,y,z
-x,-y,z
x,-y,1/2-z
-x,y,1/2-z
-x,-y,-z
x,y,-z
-x,y,1/2+z
x,-y,1/2+z
1/2+x,1/2+y,1/2+z
1/2-x,1/2-y,1/2+z
1/2+x,1/2-y,-z
1/2-x,1/2+y,-z
1/2-x,1/2-y,1/2-z
1/2+x,1/2+y,1/2-z
1/2-x,1/2+y,z
1/2+x,1/2-y,z
loop_
_atom_site_type_symbol
_atom_site_label
_atom_site_fract_x
_atom_site_fract_y
_atom_site_fract_z
Si Si1 0.561478 0.440927 0.327334
Si Si2 0.802376 0.500336 0.909663
Si Si3 0.904409 0.408677 0.302147
Si Si4 0.176592 0.870494 0.911901
Si Si5 0.000000 0.248930 0.250000
Si Si6 0.299874 0.809783 0.303553
O O1 0.500000 0.500000 0.363722
O O2 0.583831 0.500000 0.250000
O O3 0.619970 0.449522 0.387607
O O4 0.544218 0.322063 0.305126
O O5 0.871580 0.546103 0.881280
O O6 0.747420 0.585842 0.899416
O O7 0.775643 0.403119 0.859389
O O8 0.809997 0.468383 0.000000
O O9 0.934800 0.500000 0.250000
O O10 0.847345 0.358808 0.256071
O O11 0.959134 0.320775 0.310814
O O12 0.165392 0.770499 0.859551
O O13 0.165723 0.837650 0.000000
O O14 0.250000 0.750000 0.250000
#
# Coordination Sequence:
#
# PCOD8293214 Si02
#       6
#    16  16  16  16   8  16
#     4   9  21  36  58  83 116 153 198 241 285 350
#     4  10  23  39  55  87 124 149 186 245 300 347
#     4  10  20  34  59  83 108 148 193 238 283 341
#     4  11  22  37  59  85 119 155 188 238 299 350
#     4  10  18  36  58  86 108 150 202 246 272 338
#     4  11  21  35  61  85 111 150 197 237 284 343
#
# _framework density 18.990326
#
# number of rings (size 3 to 8) (size 9 to 14) (size 15 to 20)
#    0.000    2.000    3.636    0.818    2.545    0.364 
#    0.000    0.909    0.000    2.182    0.000    0.000 
#    0.000    0.000    0.000    0.000    0.000    0.000 
#
# Total GULP energy -545141.207714 kJ/mol
# GULP energy per Si atom -12389.572903 kJ/mol
# Density = 1.894710 g / cm^3
# Si number density = 18.990326 Si / 1000 Ang^3
#
#
#
# Elastic Constant Matrix: (Units=GPa)
#
#
# Indices 1 2 3 4 5 6 
#
# 1 62.4643 22.2620 31.0426 0.0000 0.0000 0.0000
# 2 22.2620 92.7161 36.9610 0.0000 0.0000 0.0000
# 3 31.0426 36.9610 100.3920 0.0000 0.0000 0.0000
# 4 0.0000 0.0000 0.0000 4.5084 0.0000 0.0000
# 5 0.0000 0.0000 0.0000 0.0000 17.5277 0.0000
# 6 0.0000 0.0000 0.0000 0.0000 0.0000 51.8741
#
#
#
# Elastic Compliance Matrix: (Units=1/GPa)
#
#
# Indices 1 2 3 4 5 6 
#
# 1 0.019462 -0.002665 -0.005037 0.000000 0.000000 0.000000
# 2 -0.002665 0.013006 -0.003964 0.000000 0.000000 0.000000
# 3 -0.005037 -0.003964 0.012978 0.000000 0.000000 0.000000
# 4 0.000000 0.000000 0.000000 0.221806 0.000000 0.000000
# 5 0.000000 0.000000 0.000000 0.000000 0.057053 0.000000
# 6 0.000000 0.000000 0.000000 0.000000 0.000000 0.019277
#
#
# Mechanical properties :
#
#
# Convention : Reuss Voigt Hill
#
# Bulk Modulus (GPa) = 45.22101 48.45596 46.83848
# Shear Modulus (GPa) = 13.35879 25.80249 19.58064
#
# Velocity S-wave (km/s) = 2.65515 3.69008 3.21453
# Velocity P-wave (km/s) = 5.76750 6.61265 6.20448
#
# Compressibility (1/GPa) = 0.02211362
#
# Stress axis : x y z
#
# Youngs Moduli (GPa) = 51.38200 76.88839 77.05429
#
# Poissons Ratio (x) = 0.20492 0.38810
# Poissons Ratio (y) = 0.13694 0.30546
# Poissons Ratio (z) = 0.25880 0.30480
#
# Static dielectric constant tensor:
#      x y z
#    x 3.730240 0.000000 0.000000 
#    y 0.000000 3.561380 0.000000 
#    z 0.000000 0.000000 3.480890 
# 
# 
# High freq. dielectric constant tensor:
#      x y z
#    x 1.735760 0.000000 0.000000 
#    y 0.000000 1.750320 0.000000 
#    z 0.000000 0.000000 1.719040 
# 
# From -- ./inp_files/32462.got.cif
#   From: 2010.03.12/outbox.cif.g09.slc.cpg/sg72_17_cif.got.tgz:32462.got - 2010.04.16 14:54:00.
