data_PCOD8293114
_publ_section_title
;
Structure prediction by ZEFSAII (Michael W. Deem and Ramdas Pophale) SiO2 
 PCOD8293114
Probable space group: I B A M
;
_chemical_formula_sum "Si O2"
_cell_formula_units_Z 128
_cell_length_a 18.453433
_cell_length_b 22.246914
_cell_length_c 18.326905
_cell_angle_alpha 90.000000
_cell_angle_beta 90.000000
_cell_angle_gamma 90.000000
_cell_volume 7523.779808
_symmetry_space_group_name_H-M "I B A M"
_symmetry_group_IT_number 72
_symmetry_cell_setting 'orthorhombic'
loop_
_space_group_symop_operation_xyz
x,y,z
-x,-y,z
x,-y,1/2-z
-x,y,1/2-z
-x,-y,-z
x,y,-z
-x,y,1/2+z
x,-y,1/2+z
1/2+x,1/2+y,1/2+z
1/2-x,1/2-y,1/2+z
1/2+x,1/2-y,-z
1/2-x,1/2+y,-z
1/2-x,1/2-y,1/2-z
1/2+x,1/2+y,1/2-z
1/2-x,1/2+y,z
1/2+x,1/2-y,z
loop_
_atom_site_type_symbol
_atom_site_label
_atom_site_fract_x
_atom_site_fract_y
_atom_site_fract_z
Si Si1 0.878477 0.786001 0.417162
Si Si2 0.126232 0.440490 0.341427
Si Si3 0.270497 0.334552 0.809213
Si Si4 0.347298 0.070150 0.675108
Si Si5 0.804233 0.334019 0.082830
Si Si6 0.533302 0.252956 0.915491
Si Si7 0.679404 0.717979 0.338155
Si Si8 0.010871 0.367177 0.163791
O O1 0.851164 0.793513 0.500000
O O2 0.834190 0.833010 0.368708
O O3 0.858992 0.718260 0.390566
O O4 0.964554 0.798312 0.411103
O O5 0.125750 0.443302 0.255392
O O6 0.150322 0.506865 0.369888
O O7 0.184997 0.392701 0.368425
O O8 0.045556 0.418423 0.364361
O O9 0.231898 0.398987 0.821881
O O10 0.309277 0.326378 0.730847
O O11 0.208372 0.284246 0.818620
O O12 0.408145 0.113203 0.641296
O O13 0.722864 0.309921 0.093955
O O14 0.817452 0.352446 0.000000
O O15 0.596162 0.278112 0.863078
O O16 0.499714 0.191748 0.884407
O O17 0.558787 0.245598 0.000000
O O18 0.000000 0.352848 0.250000
#
# Coordination Sequence:
#
# PCOD8293114 Si02
#       8
#    16  16  16  16  16  16  16  16
#     4   9  20  33  49  72 105 139 167 208 266 320
#     4  10  19  32  52  71 103 139 179 212 257 305
#     4  10  19  32  52  75 102 133 174 222 266 310
#     4  10  19  34  49  75 101 137 176 223 259 301
#     4  10  18  32  49  71 101 136 173 212 256 310
#     4  11  21  33  50  76 107 141 172 212 267 320
#     4  10  20  31  51  75 100 134 175 219 263 314
#     4  10  20  31  50  74 104 141 180 211 246 307
#
# _framework density 17.012725
#
# number of rings (size 3 to 8) (size 9 to 14) (size 15 to 20)
#    0.000    2.000    3.750    0.750    1.750    2.000 
#    0.000    1.250    0.000    1.500    0.000    0.875 
#    0.000    3.000    0.000    0.000    0.000    0.000 
#
# Total GULP energy -793169.774035 kJ/mol
# GULP energy per Si atom -12393.277719 kJ/mol
# Density = 1.697400 g / cm^3
# Si number density = 17.012725 Si / 1000 Ang^3
#
#
#
# Elastic Constant Matrix: (Units=GPa)
#
#
# Indices 1 2 3 4 5 6 
#
# 1 113.8616 43.8147 38.2518 0.0000 0.0000 0.0000
# 2 43.8147 63.1189 23.3094 0.0000 0.0000 0.0000
# 3 38.2518 23.3094 49.8276 0.0001 0.0000 0.0000
# 4 0.0000 0.0000 0.0001 13.5925 0.0000 0.0000
# 5 0.0000 0.0000 0.0000 0.0000 26.1968 0.0000
# 6 0.0000 0.0000 0.0000 0.0000 0.0000 24.0484
#
#
#
# Elastic Compliance Matrix: (Units=1/GPa)
#
#
# Indices 1 2 3 4 5 6 
#
# 1 0.013961 -0.006930 -0.007475 0.000000 0.000000 0.000000
# 2 -0.006930 0.022592 -0.005248 0.000000 0.000000 0.000000
# 3 -0.007475 -0.005248 0.028263 0.000000 0.000000 0.000000
# 4 0.000000 0.000000 0.000000 0.073570 0.000000 0.000000
# 5 0.000000 0.000000 0.000000 0.000000 0.038173 0.000000
# 6 0.000000 0.000000 0.000000 0.000000 0.000000 0.041583
#
#
# Mechanical properties :
#
#
# Convention : Reuss Voigt Hill
#
# Bulk Modulus (GPa) = 39.20361 48.61776 43.91069
# Shear Modulus (GPa) = 18.80035 20.86301 19.83168
#
# Velocity S-wave (km/s) = 3.32787 3.50568 3.41793
# Velocity P-wave (km/s) = 6.15305 6.71012 6.43762
#
# Compressibility (1/GPa) = 0.02550785
#
# Stress axis : x y z
#
# Youngs Moduli (GPa) = 71.62878 44.26326 35.38182
#
# Poissons Ratio (x) = 0.30677 0.26450
# Poissons Ratio (y) = 0.49642 0.18569
# Poissons Ratio (z) = 0.53546 0.23230
#
# Static dielectric constant tensor:
#      x y z
#    x 3.141580 0.000000 0.000000 
#    y 0.000000 3.086410 0.000000 
#    z 0.000000 0.000000 3.088890 
# 
# 
# High freq. dielectric constant tensor:
#      x y z
#    x 1.653980 0.000000 0.000000 
#    y 0.000000 1.620670 0.000000 
#    z 0.000000 0.000000 1.648920 
# 
# From -- ./inp_files/32060.got.cif
#   From: 2010.03.12/outbox.cif.g09.slc.cpg/sg72_17_cif.got.tgz:32060.got - 2010.04.16 14:54:00.
