data_PCOD8293805
_publ_section_title
;
Structure prediction by ZEFSAII (Michael W. Deem and Ramdas Pophale) SiO2 
 PCOD8293805
Probable space group: I B A M
;
_chemical_formula_sum "Si O2"
_cell_formula_units_Z 96
_cell_length_a 29.116876
_cell_length_b 20.731704
_cell_length_c 9.316176
_cell_angle_alpha 90.000000
_cell_angle_beta 90.000000
_cell_angle_gamma 90.000000
_cell_volume 5623.639348
_symmetry_space_group_name_H-M "I B A M"
_symmetry_group_IT_number 72
_symmetry_cell_setting 'orthorhombic'
loop_
_space_group_symop_operation_xyz
x,y,z
-x,-y,z
x,-y,1/2-z
-x,y,1/2-z
-x,-y,-z
x,y,-z
-x,y,1/2+z
x,-y,1/2+z
1/2+x,1/2+y,1/2+z
1/2-x,1/2-y,1/2+z
1/2+x,1/2-y,-z
1/2-x,1/2+y,-z
1/2-x,1/2-y,1/2-z
1/2+x,1/2+y,1/2-z
1/2-x,1/2+y,z
1/2+x,1/2-y,z
loop_
_atom_site_type_symbol
_atom_site_label
_atom_site_fract_x
_atom_site_fract_y
_atom_site_fract_z
Si Si1 0.547784 0.299108 0.667259
Si Si2 0.781605 0.299571 0.668479
Si Si3 0.548004 0.442402 0.332741
Si Si4 0.387666 0.797828 0.168822
Si Si5 0.110704 0.441827 0.842209
Si Si6 0.280335 0.941964 0.841724
O O1 0.500000 0.292141 0.750000
O O2 0.539407 0.282955 0.500000
O O3 0.569745 0.371095 0.683200
O O4 0.583860 0.250477 0.734403
O O5 0.772362 0.294439 0.500000
O O6 0.750000 0.250000 0.750000
O O7 0.834475 0.284571 0.702697
O O8 0.768381 0.371644 0.722971
O O9 0.576463 0.500000 0.250000
O O10 0.500000 0.438890 0.250000
O O11 0.541895 0.460429 0.500000
O O12 0.401469 0.870600 0.217120
O O13 0.397752 0.787830 0.000000
O O14 0.088905 0.500000 0.750000
O O15 0.165180 0.448944 0.849658
O O16 0.089495 0.449384 0.000000
O O17 0.258365 0.000000 0.750000
O O18 0.259103 0.948311 0.000000
#
# Coordination Sequence:
#
# PCOD8293805 Si02
#       6
#    16  16  16  16  16  16
#     4  10  20  32  48  71  96 123 155 190 229 274
#     4   9  18  31  47  69  96 124 154 190 231 274
#     4   9  16  26  42  65  90 115 147 186 226 267
#     4   9  18  32  48  68  96 126 154 188 231 275
#     4   8  14  25  42  64  89 116 147 185 227 268
#     4   8  14  25  41  63  89 115 147 187 227 267
#
# _framework density 17.070796999999999
#
# number of rings (size 3 to 8) (size 9 to 14) (size 15 to 20)
#    0.000    3.167    0.000    3.500    0.000    4.000 
#    0.000    3.333    0.000    1.500    0.000    3.500 
#    0.000    0.000    0.000    0.000    0.000    0.000 
#
# Total GULP energy -594645.295627 kJ/mol
# GULP energy per Si atom -12388.443659 kJ/mol
# Density = 1.703194 g / cm^3
# Si number density = 17.070797 Si / 1000 Ang^3
#
#
#
# Elastic Constant Matrix: (Units=GPa)
#
#
# Indices 1 2 3 4 5 6 
#
# 1 41.3065 52.7375 39.3418 0.0000 0.0000 0.0000
# 2 52.7375 176.0032 89.2572 0.0000 0.0000 0.0000
# 3 39.3418 89.2572 107.2668 0.0000 0.0000 0.0000
# 4 0.0000 0.0000 0.0000 37.3712 0.0000 0.0000
# 5 0.0000 0.0000 0.0000 0.0000 22.6417 0.0000
# 6 0.0000 0.0000 0.0000 0.0000 0.0000 22.9249
#
#
#
# Elastic Compliance Matrix: (Units=1/GPa)
#
#
# Indices 1 2 3 4 5 6 
#
# 1 0.043582 -0.008569 -0.008855 0.000000 0.000000 0.000000
# 2 -0.008569 0.011514 -0.006439 0.000000 0.000000 0.000000
# 3 -0.008855 -0.006439 0.017928 0.000000 0.000000 0.000000
# 4 0.000000 0.000000 0.000000 0.026759 0.000000 0.000000
# 5 0.000000 0.000000 0.000000 0.000000 0.044166 0.000000
# 6 0.000000 0.000000 0.000000 0.000000 0.000000 0.043621
#
#
# Mechanical properties :
#
#
# Convention : Reuss Voigt Hill
#
# Bulk Modulus (GPa) = 39.52397 76.36105 57.94251
# Shear Modulus (GPa) = 20.51475 26.13690 23.32583
#
# Velocity S-wave (km/s) = 3.47038 3.91716 3.70052
# Velocity P-wave (km/s) = 6.26588 8.08009 7.23012
#
# Compressibility (1/GPa) = 0.02530110
#
# Stress axis : x y z
#
# Youngs Moduli (GPa) = 22.94502 86.84787 55.77974
#
# Poissons Ratio (x) = 0.74416 0.49391
# Poissons Ratio (y) = 0.19661 0.35914
# Poissons Ratio (z) = 0.20317 0.55917
#
# Static dielectric constant tensor:
#      x y z
#    x 2.629660 0.000000 0.000000 
#    y 0.000000 3.866480 0.000000 
#    z 0.000000 0.000000 3.411380 
# 
# 
# High freq. dielectric constant tensor:
#      x y z
#    x 1.591770 0.000000 0.000000 
#    y 0.000000 1.682000 0.000000 
#    z 0.000000 0.000000 1.663280 
# 
# From -- ./inp_files/8040.got.cif
#   From: 2010.03.12/outbox.cif.g09.slc.cpg/sg72_5_cif.got.tgz:8040.got - 2010.04.16 14:54:00.
