data_PCOD8293785
_publ_section_title
;
Structure prediction by ZEFSAII (Michael W. Deem and Ramdas Pophale) SiO2 
 PCOD8293785
Probable space group: I B A M
;
_chemical_formula_sum "Si O2"
_cell_formula_units_Z 96
_cell_length_a 21.086520
_cell_length_b 15.214561
_cell_length_c 15.493277
_cell_angle_alpha 90.000000
_cell_angle_beta 90.000000
_cell_angle_gamma 90.000000
_cell_volume 4970.586357
_symmetry_space_group_name_H-M "I B A M"
_symmetry_group_IT_number 72
_symmetry_cell_setting 'orthorhombic'
loop_
_space_group_symop_operation_xyz
x,y,z
-x,-y,z
x,-y,1/2-z
-x,y,1/2-z
-x,-y,-z
x,y,-z
-x,y,1/2+z
x,-y,1/2+z
1/2+x,1/2+y,1/2+z
1/2-x,1/2-y,1/2+z
1/2+x,1/2-y,-z
1/2-x,1/2+y,-z
1/2-x,1/2-y,1/2-z
1/2+x,1/2+y,1/2-z
1/2-x,1/2+y,z
1/2+x,1/2-y,z
loop_
_atom_site_type_symbol
_atom_site_label
_atom_site_fract_x
_atom_site_fract_y
_atom_site_fract_z
Si Si1 0.501822 0.138385 0.000000
Si Si2 0.697927 0.027265 0.342484
Si Si3 0.470356 0.764253 0.338786
Si Si4 0.330160 0.787356 0.396652
Si Si5 0.107002 0.506414 0.000000
Si Si6 0.309797 0.588663 0.599703
Si Si7 0.954017 0.078843 0.899708
O O1 0.512389 0.196543 0.915454
O O2 0.556367 0.068730 0.000000
O O3 0.430748 0.098168 0.000000
O O4 0.710911 0.132397 0.355795
O O5 0.668289 0.000000 0.250000
O O6 0.649166 0.996296 0.415079
O O7 0.763584 0.973645 0.346688
O O8 0.500000 0.799805 0.250000
O O9 0.397988 0.794179 0.350117
O O10 0.476388 0.659425 0.341612
O O11 0.336412 0.799127 0.500000
O O12 0.299902 0.691942 0.375758
O O13 0.293768 0.574838 0.500000
O O14 0.380979 0.556232 0.620759
O O15 0.959745 0.105828 0.000000
O O16 0.000000 0.000000 0.874595
#
# Coordination Sequence:
#
# PCOD8293785 Si02
#       7
#     8  16  16  16   8  16  16
#     4  11  22  40  60  87 119 155 199 253 294 360
#     4  12  23  39  62  90 121 161 200 249 298 361
#     4  11  20  35  60  89 118 159 197 245 303 361
#     4  10  19  41  65  83 118 165 204 243 303 365
#     4  11  24  40  61  85 124 155 198 247 301 356
#     4   9  19  38  65  84 113 161 204 244 300 357
#     4   9  18  37  63  87 117 157 202 250 301 354
#
# _framework density 19.313616
#
# number of rings (size 3 to 8) (size 9 to 14) (size 15 to 20)
#    0.000    1.667    5.000    1.000    2.333    1.000 
#    6.000    3.333    0.000    0.000    0.000    0.000 
#    0.000    0.000    0.000    0.000    0.000    0.000 
#
# Total GULP energy -595067.846603 kJ/mol
# GULP energy per Si atom -12397.246804 kJ/mol
# Density = 1.926966 g / cm^3
# Si number density = 19.313616 Si / 1000 Ang^3
#
#
#
# Elastic Constant Matrix: (Units=GPa)
#
#
# Indices 1 2 3 4 5 6 
#
# 1 84.7894 63.1108 45.8872 0.0000 0.0000 0.0000
# 2 63.1108 129.0280 45.6191 0.0000 0.0000 0.0000
# 3 45.8872 45.6191 127.2985 0.0000 0.0000 0.0000
# 4 0.0000 0.0000 0.0000 20.3212 0.0000 0.0000
# 5 0.0000 0.0000 0.0000 0.0000 14.5215 0.0000
# 6 0.0000 0.0000 0.0000 0.0000 0.0000 29.7509
#
#
#
# Elastic Compliance Matrix: (Units=1/GPa)
#
#
# Indices 1 2 3 4 5 6 
#
# 1 0.020441 -0.008466 -0.004335 0.000000 0.000000 0.000000
# 2 -0.008466 0.012381 -0.001385 0.000000 0.000000 0.000000
# 3 -0.004335 -0.001385 0.009914 0.000000 0.000000 0.000000
# 4 0.000000 0.000000 0.000000 0.049210 0.000000 0.000000
# 5 0.000000 0.000000 0.000000 0.000000 0.068863 0.000000
# 6 0.000000 0.000000 0.000000 0.000000 0.000000 0.033612
#
#
# Mechanical properties :
#
#
# Convention : Reuss Voigt Hill
#
# Bulk Modulus (GPa) = 69.61210 72.26114 70.93662
# Shear Modulus (GPa) = 21.97022 25.35199 23.66110
#
# Velocity S-wave (km/s) = 3.37642 3.62698 3.50394
# Velocity P-wave (km/s) = 7.16390 7.41861 7.29237
#
# Compressibility (1/GPa) = 0.01436532
#
# Stress axis : x y z
#
# Youngs Moduli (GPa) = 48.92142 80.77043 100.86303
#
# Poissons Ratio (x) = 0.68377 0.43720
# Poissons Ratio (y) = 0.41415 0.13972
# Poissons Ratio (z) = 0.21205 0.11188
#
# Static dielectric constant tensor:
#      x y z
#    x 3.306300 0.000000 0.000000 
#    y 0.000000 3.692820 0.000000 
#    z 0.000000 0.000000 3.431440 
# 
# 
# High freq. dielectric constant tensor:
#      x y z
#    x 1.733380 0.000000 0.000000 
#    y 0.000000 1.761340 0.000000 
#    z 0.000000 0.000000 1.747140 
# 
# From -- ./inp_files/24189.got.cif
#   From: 2010.03.12/outbox.cif.g09.slc.cpg/sg72_13_cif.got.tgz:24189.got - 2010.04.16 14:54:00.
