data_PCOD8293424
_publ_section_title
;
Structure prediction by ZEFSAII (Michael W. Deem and Ramdas Pophale) SiO2 
 PCOD8293424
Probable space group: I B A M
;
_chemical_formula_sum "Si O2"
_cell_formula_units_Z 88
_cell_length_a 20.845465
_cell_length_b 21.793178
_cell_length_c 9.050048
_cell_angle_alpha 90.000000
_cell_angle_beta 90.000000
_cell_angle_gamma 90.000000
_cell_volume 4111.336615
_symmetry_space_group_name_H-M "I B A M"
_symmetry_group_IT_number 72
_symmetry_cell_setting 'orthorhombic'
loop_
_space_group_symop_operation_xyz
x,y,z
-x,-y,z
x,-y,1/2-z
-x,y,1/2-z
-x,-y,-z
x,y,-z
-x,y,1/2+z
x,-y,1/2+z
1/2+x,1/2+y,1/2+z
1/2-x,1/2-y,1/2+z
1/2+x,1/2-y,-z
1/2-x,1/2+y,-z
1/2-x,1/2-y,1/2-z
1/2+x,1/2+y,1/2-z
1/2-x,1/2+y,z
1/2+x,1/2-y,z
loop_
_atom_site_type_symbol
_atom_site_label
_atom_site_fract_x
_atom_site_fract_y
_atom_site_fract_z
Si Si1 0.905321 0.557175 0.163988
Si Si2 0.887960 0.264203 0.163680
Si Si3 0.310172 0.435516 0.172275
Si Si4 0.934209 0.862804 0.671728
Si Si5 0.200285 0.369931 0.677277
Si Si6 0.000000 0.653888 0.750000
O O1 0.937025 0.500000 0.250000
O O2 0.844705 0.575900 0.263450
O O3 0.957334 0.611073 0.144281
O O4 0.882302 0.538542 0.000000
O O5 0.903779 0.199637 0.244623
O O6 0.829843 0.304581 0.234377
O O7 0.952823 0.304235 0.153437
O O8 0.865164 0.247287 0.000000
O O9 0.295992 0.500000 0.250000
O O10 0.384700 0.418442 0.193630
O O11 0.269571 0.380936 0.249659
O O12 0.291863 0.439959 0.000000
O O13 0.949416 0.851022 0.500000
O O14 0.000000 0.881571 0.750000
O O15 0.203755 0.372280 0.500000
#
# Coordination Sequence:
#
# PCOD8293424 Si02
#       6
#    16  16  16  16  16   8
#     4  11  22  34  51  78 114 157 202 248 295 347
#     4   9  18  35  58  86 120 154 192 240 295 352
#     4  11  24  42  64  89 121 158 201 251 303 360
#     4  10  22  41  65  93 123 157 197 246 301 360
#     4  10  21  38  61  87 119 157 197 244 296 356
#     4  10  19  32  54  78 113 152 198 242 292 350
#
# _framework density 21.404232
#
# number of rings (size 3 to 8) (size 9 to 14) (size 15 to 20)
#    0.000    1.818    0.909    3.000    0.000    5.455 
#    0.000    2.727    0.000    0.000    0.000    0.000 
#    0.000    0.000    0.000    0.000    0.000    0.000 
#
# Total GULP energy -545370.446940 kJ/mol
# GULP energy per Si atom -12394.782885 kJ/mol
# Density = 2.135552 g / cm^3
# Si number density = 21.404232 Si / 1000 Ang^3
#
#
#
# Elastic Constant Matrix: (Units=GPa)
#
#
# Indices 1 2 3 4 5 6 
#
# 1 105.4781 19.8187 35.8613 0.0000 0.0000 0.0000
# 2 19.8187 47.4421 17.8320 0.0000 0.0000 0.0000
# 3 35.8613 17.8320 105.4496 0.0000 0.0000 0.0000
# 4 0.0000 0.0000 0.0000 21.7401 0.0000 0.0000
# 5 0.0000 0.0000 0.0000 0.0000 27.4389 0.0000
# 6 0.0000 0.0000 0.0000 0.0000 0.0000 26.1031
#
#
#
# Elastic Compliance Matrix: (Units=1/GPa)
#
#
# Indices 1 2 3 4 5 6 
#
# 1 0.011233 -0.003478 -0.003232 0.000000 0.000000 0.000000
# 2 -0.003478 0.023586 -0.002806 0.000000 0.000000 0.000000
# 3 -0.003232 -0.002806 0.011057 0.000000 0.000000 0.000000
# 4 0.000000 0.000000 0.000000 0.045998 0.000000 0.000000
# 5 0.000000 0.000000 0.000000 0.000000 0.036445 0.000000
# 6 0.000000 0.000000 0.000000 0.000000 0.000000 0.038310
#
#
# Mechanical properties :
#
#
# Convention : Reuss Voigt Hill
#
# Bulk Modulus (GPa) = 37.25151 45.04375 41.14763
# Shear Modulus (GPa) = 25.69284 27.38026 26.53655
#
# Velocity S-wave (km/s) = 3.46838 3.58047 3.52487
# Velocity P-wave (km/s) = 5.78629 6.17924 5.98599
#
# Compressibility (1/GPa) = 0.02684455
#
# Stress axis : x y z
#
# Youngs Moduli (GPa) = 89.02401 42.39859 90.44198
#
# Poissons Ratio (x) = 0.14745 0.29231
# Poissons Ratio (y) = 0.30960 0.25376
# Poissons Ratio (z) = 0.28773 0.11896
#
# Static dielectric constant tensor:
#      x y z
#    x 3.776550 0.000000 0.000000 
#    y 0.000000 3.852390 0.000000 
#    z 0.000000 0.000000 3.576440 
# 
# 
# High freq. dielectric constant tensor:
#      x y z
#    x 1.836690 0.000000 0.000000 
#    y 0.000000 1.838320 0.000000 
#    z 0.000000 0.000000 1.820570 
# 
# From -- ./inp_files/5795.got.cif
#   From: 2010.03.12/outbox.cif.g09.slc.cpg/sg72_3_cif.got.tgz:5795.got - 2010.04.16 14:54:00.
