data_PCOD8293629
_publ_section_title
;
Structure prediction by ZEFSAII (Michael W. Deem and Ramdas Pophale) SiO2 
 PCOD8293629
Probable space group: I B A M
;
_chemical_formula_sum "Si O2"
_cell_formula_units_Z 96
_cell_length_a 16.915943
_cell_length_b 18.411752
_cell_length_c 13.982286
_cell_angle_alpha 90.000000
_cell_angle_beta 90.000000
_cell_angle_gamma 90.000000
_cell_volume 4354.813000
_symmetry_space_group_name_H-M "I B A M"
_symmetry_group_IT_number 72
_symmetry_cell_setting 'orthorhombic'
loop_
_space_group_symop_operation_xyz
x,y,z
-x,-y,z
x,-y,1/2-z
-x,y,1/2-z
-x,-y,-z
x,y,-z
-x,y,1/2+z
x,-y,1/2+z
1/2+x,1/2+y,1/2+z
1/2-x,1/2-y,1/2+z
1/2+x,1/2-y,-z
1/2-x,1/2+y,-z
1/2-x,1/2-y,1/2-z
1/2+x,1/2+y,1/2-z
1/2-x,1/2+y,z
1/2+x,1/2-y,z
loop_
_atom_site_type_symbol
_atom_site_label
_atom_site_fract_x
_atom_site_fract_y
_atom_site_fract_z
Si Si1 0.671613 0.440984 0.386723
Si Si2 0.918401 0.310194 0.768973
Si Si3 0.370632 0.401156 0.613649
Si Si4 0.036268 0.167171 0.385352
Si Si5 0.703645 0.828604 0.391126
Si Si6 0.720500 0.818873 0.892823
O O1 0.670247 0.446674 0.500000
O O2 0.653426 0.520289 0.342434
O O3 0.601637 0.389739 0.351560
O O4 0.756536 0.404890 0.356948
O O5 0.950085 0.238858 0.823466
O O6 0.871973 0.301581 0.668782
O O7 0.855715 0.350106 0.837680
O O8 0.000000 0.355550 0.750000
O O9 0.373386 0.405348 0.500000
O O10 0.453572 0.368670 0.648466
O O11 0.301360 0.348983 0.652048
O O12 0.038907 0.183615 0.500000
O O13 0.673114 0.833175 0.500000
O O14 0.774273 0.768637 0.384410
O O15 0.710849 0.846841 0.000000
#
# Coordination Sequence:
#
# PCOD8293629 Si02
#       6
#    16  16  16  16  16  16
#     4   9  17  33  59  89 122 164 201 243 303 366
#     4  12  24  36  58  85 119 159 204 254 308 360
#     4   9  18  33  59  92 126 161 199 243 303 374
#     4  10  19  34  58  92 130 160 194 243 304 372
#     4  10  21  38  60  84 118 163 211 256 303 360
#     4  10  20  37  59  85 117 155 198 247 303 365
#
# _framework density 22.044575999999999
#
# number of rings (size 3 to 8) (size 9 to 14) (size 15 to 20)
#    0.000    2.000    1.667    2.500    0.000    4.667 
#    0.000    0.833    0.000    3.000    0.000    4.667 
#    0.000    2.667    0.000    0.000    0.000    0.000 
#
# Total GULP energy -594711.748598 kJ/mol
# GULP energy per Si atom -12389.828096 kJ/mol
# Density = 2.199440 g / cm^3
# Si number density = 22.044576 Si / 1000 Ang^3
#
#
#
# Elastic Constant Matrix: (Units=GPa)
#
#
# Indices 1 2 3 4 5 6 
#
# 1 183.9842 44.8902 52.7510 0.0000 0.0000 0.0000
# 2 44.8902 80.1324 17.4715 0.0000 0.0000 0.0000
# 3 52.7510 17.4715 75.7228 0.0000 0.0000 0.0000
# 4 0.0000 0.0000 0.0000 8.0077 0.0000 0.0000
# 5 0.0000 0.0000 0.0000 0.0000 44.2736 0.0000
# 6 0.0000 0.0000 0.0000 0.0000 0.0000 29.8500
#
#
#
# Elastic Compliance Matrix: (Units=1/GPa)
#
#
# Indices 1 2 3 4 5 6 
#
# 1 0.007509 -0.003229 -0.004486 0.000000 0.000000 0.000000
# 2 -0.003229 0.014528 -0.001103 0.000000 0.000000 0.000000
# 3 -0.004486 -0.001103 0.016586 0.000000 0.000000 0.000000
# 4 0.000000 0.000000 0.000000 0.124879 0.000000 0.000000
# 5 0.000000 0.000000 0.000000 0.000000 0.022587 0.000000
# 6 0.000000 0.000000 0.000000 0.000000 0.000000 0.033501
#
#
# Mechanical properties :
#
#
# Convention : Reuss Voigt Hill
#
# Bulk Modulus (GPa) = 47.64657 63.34055 55.49356
# Shear Modulus (GPa) = 20.47317 31.40805 25.94061
#
# Velocity S-wave (km/s) = 3.05079 3.77868 3.43408
# Velocity P-wave (km/s) = 5.83699 6.91616 6.39936
#
# Compressibility (1/GPa) = 0.02098787
#
# Stress axis : x y z
#
# Youngs Moduli (GPa) = 133.16880 68.83037 60.29235
#
# Poissons Ratio (x) = 0.22222 0.27049
# Poissons Ratio (y) = 0.42994 0.06650
# Poissons Ratio (z) = 0.59743 0.07592
#
# Static dielectric constant tensor:
#      x y z
#    x 4.275010 0.000000 0.000000 
#    y 0.000000 3.853250 0.000000 
#    z 0.000000 0.000000 4.042820 
# 
# 
# High freq. dielectric constant tensor:
#      x y z
#    x 1.871410 0.000000 0.000000 
#    y 0.000000 1.824170 0.000000 
#    z 0.000000 0.000000 1.882430 
# 
# From -- ./inp_files/21796.got.cif
#   From: 2010.03.12/outbox.cif.g09.slc.cpg/sg72_11_cif.got.tgz:21796.got - 2010.04.16 14:54:00.
