data_PCOD8293802
_publ_section_title
;
Structure prediction by ZEFSAII (Michael W. Deem and Ramdas Pophale) SiO2 
 PCOD8293802
Probable space group: I B A M
;
_chemical_formula_sum "Si O2"
_cell_formula_units_Z 96
_cell_length_a 28.968848
_cell_length_b 26.129886
_cell_length_c 9.342925
_cell_angle_alpha 90.000000
_cell_angle_beta 90.000000
_cell_angle_gamma 90.000000
_cell_volume 7072.152265
_symmetry_space_group_name_H-M "I B A M"
_symmetry_group_IT_number 72
_symmetry_cell_setting 'orthorhombic'
loop_
_space_group_symop_operation_xyz
x,y,z
-x,-y,z
x,-y,1/2-z
-x,y,1/2-z
-x,-y,-z
x,y,-z
-x,y,1/2+z
x,-y,1/2+z
1/2+x,1/2+y,1/2+z
1/2-x,1/2-y,1/2+z
1/2+x,1/2-y,-z
1/2-x,1/2+y,-z
1/2-x,1/2-y,1/2-z
1/2+x,1/2+y,1/2-z
1/2-x,1/2+y,z
1/2+x,1/2-y,z
loop_
_atom_site_type_symbol
_atom_site_label
_atom_site_fract_x
_atom_site_fract_y
_atom_site_fract_z
Si Si1 0.202055 0.354142 0.331898
Si Si2 0.271047 0.297927 0.167785
Si Si3 0.543914 0.779346 0.835066
Si Si4 0.357579 0.240640 0.834426
Si Si5 0.955927 0.600421 0.664838
Si Si6 0.639253 0.948831 0.832398
O O1 0.212475 0.347280 0.500000
O O2 0.250441 0.348884 0.243344
O O3 0.168238 0.309510 0.272309
O O4 0.179550 0.408509 0.297286
O O5 0.250000 0.250000 0.250000
O O6 0.326810 0.292139 0.187498
O O7 0.258143 0.296675 0.000000
O O8 0.500000 0.757610 0.750000
O O9 0.590653 0.752805 0.771455
O O10 0.550339 0.839540 0.809405
O O11 0.535291 0.766007 0.000000
O O12 0.365259 0.227766 0.000000
O O13 0.964490 0.587878 0.500000
O O14 0.909950 0.572536 0.721687
O O15 0.000000 0.578824 0.750000
O O16 0.652347 0.000000 0.750000
O O17 0.637180 0.960165 0.000000
#
# Coordination Sequence:
#
# PCOD8293802 Si02
#       6
#    16  16  16  16  16  16
#     4   9  16  29  43  54  73  98 121 153 195 233
#     4   9  16  25  40  60  77  96 120 148 185 227
#     4   9  15  25  39  54  72  97 125 152 185 225
#     4   8  13  24  41  55  72  97 120 144 183 229
#     4   9  17  29  43  54  68  93 125 161 201 239
#     4  10  20  32  44  56  72  98 127 160 204 244
#
# _framework density 13.574368
#
# number of rings (size 3 to 8) (size 9 to 14) (size 15 to 20)
#    0.000    3.000    1.667    1.500    0.000    1.667 
#    0.000    5.833    0.000    0.000    0.000    0.000 
#    0.000    0.000    0.000    0.000    0.000    0.833 
#
# Total GULP energy -594764.965531 kJ/mol
# GULP energy per Si atom -12390.936782 kJ/mol
# Density = 1.354347 g / cm^3
# Si number density = 13.574368 Si / 1000 Ang^3
#
#
#
# Elastic Constant Matrix: (Units=GPa)
#
#
# Indices 1 2 3 4 5 6 
#
# 1 113.3432 49.6877 46.8529 0.0000 0.0000 0.0000
# 2 49.6877 45.1255 30.2197 0.0000 0.0000 0.0000
# 3 46.8529 30.2197 50.7966 0.0000 0.0000 0.0000
# 4 0.0000 0.0000 0.0000 18.1112 0.0000 0.0000
# 5 0.0000 0.0000 0.0000 0.0000 22.6430 0.0000
# 6 0.0000 0.0000 0.0000 0.0000 0.0000 18.7614
#
#
#
# Elastic Compliance Matrix: (Units=1/GPa)
#
#
# Indices 1 2 3 4 5 6 
#
# 1 0.019012 -0.015277 -0.008447 0.000000 0.000000 0.000000
# 2 -0.015277 0.049112 -0.015127 0.000000 0.000000 0.000000
# 3 -0.008447 -0.015127 0.036477 0.000000 0.000000 0.000000
# 4 0.000000 0.000000 0.000000 0.055215 0.000000 0.000000
# 5 0.000000 0.000000 0.000000 0.000000 0.044164 0.000000
# 6 0.000000 0.000000 0.000000 0.000000 0.000000 0.053301
#
#
# Mechanical properties :
#
#
# Convention : Reuss Voigt Hill
#
# Bulk Modulus (GPa) = 37.17613 51.42064 44.29839
# Shear Modulus (GPa) = 14.53711 17.40344 15.97027
#
# Velocity S-wave (km/s) = 3.27605 3.58450 3.43374
# Velocity P-wave (km/s) = 6.46192 7.42256 6.95884
#
# Compressibility (1/GPa) = 0.02689898
#
# Stress axis : x y z
#
# Youngs Moduli (GPa) = 52.59901 20.36170 27.41468
#
# Poissons Ratio (x) = 0.31106 0.23158
# Poissons Ratio (y) = 0.80355 0.41469
# Poissons Ratio (z) = 0.44432 0.30800
#
# Static dielectric constant tensor:
#      x y z
#    x 3.063290 0.000000 0.000000 
#    y 0.000000 2.436120 0.000000 
#    z 0.000000 0.000000 2.697090 
# 
# 
# High freq. dielectric constant tensor:
#      x y z
#    x 1.518280 0.000000 0.000000 
#    y 0.000000 1.464860 0.000000 
#    z 0.000000 0.000000 1.510620 
# 
# From -- ./inp_files/14026.got.cif
#   From: 2010.03.12/outbox.cif.g09.slc.cpg/sg72_8_cif.got.tgz:14026.got - 2010.04.16 14:54:00.
