data_PCOD8293403
_publ_section_title
;
Structure prediction by ZEFSAII (Michael W. Deem and Ramdas Pophale) SiO2 
 PCOD8293403
Probable space group: I B A M
;
_chemical_formula_sum "Si O2"
_cell_formula_units_Z 116
_cell_length_a 26.365351
_cell_length_b 26.837882
_cell_length_c 9.154593
_cell_angle_alpha 90.000000
_cell_angle_beta 90.000000
_cell_angle_gamma 90.000000
_cell_volume 6477.700100
_symmetry_space_group_name_H-M "I B A M"
_symmetry_group_IT_number 72
_symmetry_cell_setting 'orthorhombic'
loop_
_space_group_symop_operation_xyz
x,y,z
-x,-y,z
x,-y,1/2-z
-x,y,1/2-z
-x,-y,-z
x,y,-z
-x,y,1/2+z
x,-y,1/2+z
1/2+x,1/2+y,1/2+z
1/2-x,1/2-y,1/2+z
1/2+x,1/2-y,-z
1/2-x,1/2+y,-z
1/2-x,1/2-y,1/2-z
1/2+x,1/2+y,1/2-z
1/2-x,1/2+y,z
1/2+x,1/2-y,z
loop_
_atom_site_type_symbol
_atom_site_label
_atom_site_fract_x
_atom_site_fract_y
_atom_site_fract_z
Si Si1 0.923948 0.821997 0.668273
Si Si2 0.187020 0.791234 0.837212
Si Si3 0.244523 0.639454 0.170036
Si Si4 0.313165 0.550258 0.172849
Si Si5 0.075177 0.918015 0.663065
Si Si6 0.950009 0.720156 0.174694
Si Si7 0.356185 0.184618 0.831163
Si Si8 0.000000 0.000000 0.750000
O O1 0.941830 0.815320 0.500000
O O2 0.863356 0.824737 0.680125
O O3 0.945594 0.873939 0.732268
O O4 0.944013 0.776069 0.763851
O O5 0.230400 0.810539 0.731415
O O6 0.174309 0.734834 0.797792
O O7 0.208517 0.795584 0.000000
O O8 0.272473 0.590714 0.232490
O O9 0.183699 0.639847 0.203223
O O10 0.254243 0.642280 0.000000
O O11 0.296147 0.500000 0.250000
O O12 0.370131 0.564153 0.221863
O O13 0.309896 0.543229 0.000000
O O14 0.081111 0.896271 0.500000
O O15 0.036256 0.964282 0.655171
O O16 0.904482 0.683350 0.224458
O O17 0.000000 0.697225 0.250000
O O18 0.953911 0.720925 0.000000
O O19 0.374682 0.183700 0.000000
#
# Coordination Sequence:
#
# PCOD8293403 Si02
#       8
#    16  16  16  16  16  16  16   4
#     4  10  21  36  54  75 100 132 172 218 269 318
#     4   9  17  29  47  73 102 132 165 204 257 317
#     4  10  19  32  52  75 102 135 170 214 266 319
#     4  10  21  37  55  75  98 133 177 222 275 328
#     4  11  23  39  55  71  94 129 178 231 286 333
#     4  11  22  37  56  77 105 140 175 209 249 300
#     4   9  19  34  50  75 108 136 169 211 256 311
#     4  12  26  40  52  70  98 132 180 246 296 320
#
# _framework density 17.907592000000001
#
# number of rings (size 3 to 8) (size 9 to 14) (size 15 to 20)
#    0.000    1.931    2.069    3.103    0.966    4.966 
#    0.000    0.000    0.000    0.000    0.000    0.000 
#    0.000    0.552    0.000    6.345    0.000    1.931 
#
# Total GULP energy -719026.425414 kJ/mol
# GULP energy per Si atom -12397.007335 kJ/mol
# Density = 1.786683 g / cm^3
# Si number density = 17.907592 Si / 1000 Ang^3
#
#
#
# Elastic Constant Matrix: (Units=GPa)
#
#
# Indices 1 2 3 4 5 6 
#
# 1 114.2829 45.2476 49.2846 0.0000 0.0000 0.0000
# 2 45.2476 52.7970 23.0401 0.0000 0.0000 0.0000
# 3 49.2846 23.0401 80.8539 0.0000 0.0000 0.0000
# 4 0.0000 0.0000 0.0000 19.9331 0.0000 0.0000
# 5 0.0000 0.0000 0.0000 0.0000 26.4733 0.0000
# 6 0.0000 0.0000 0.0000 0.0000 0.0000 28.2569
#
#
#
# Elastic Compliance Matrix: (Units=1/GPa)
#
#
# Indices 1 2 3 4 5 6 
#
# 1 0.015828 -0.010683 -0.006604 0.000000 0.000000 0.000000
# 2 -0.010683 0.028840 -0.001707 0.000000 0.000000 0.000000
# 3 -0.006604 -0.001707 0.016880 0.000000 0.000000 0.000000
# 4 0.000000 0.000000 0.000000 0.050168 0.000000 0.000000
# 5 0.000000 0.000000 0.000000 0.000000 0.037774 0.000000
# 6 0.000000 0.000000 0.000000 0.000000 0.000000 0.035390
#
#
# Mechanical properties :
#
#
# Convention : Reuss Voigt Hill
#
# Bulk Modulus (GPa) = 42.44191 53.67537 48.05864
# Shear Modulus (GPa) = 21.67140 23.62341 22.64741
#
# Velocity S-wave (km/s) = 3.48254 3.63600 3.56009
# Velocity P-wave (km/s) = 6.31844 6.90405 6.61773
#
# Compressibility (1/GPa) = 0.02356161
#
# Stress axis : x y z
#
# Youngs Moduli (GPa) = 63.18092 34.67354 59.24321
#
# Poissons Ratio (x) = 0.37041 0.39122
# Poissons Ratio (y) = 0.67494 0.10111
# Poissons Ratio (z) = 0.41722 0.05918
#
# Static dielectric constant tensor:
#      x y z
#    x 3.533050 0.000000 0.000000 
#    y 0.000000 3.129720 0.000000 
#    z 0.000000 0.000000 3.218260 
# 
# 
# High freq. dielectric constant tensor:
#      x y z
#    x 1.693240 0.000000 0.000000 
#    y 0.000000 1.652470 0.000000 
#    z 0.000000 0.000000 1.693190 
# 
# From -- ./inp_files/7556.got.cif
#   From: 2010.03.12/outbox.cif.g09.slc.cpg/sg72_4_cif.got.tgz:7556.got - 2010.04.16 14:54:00.
