data_PCOD8293814
_publ_section_title
;
Structure prediction by ZEFSAII (Michael W. Deem and Ramdas Pophale) SiO2 
 PCOD8293814
Probable space group: I B A M
;
_chemical_formula_sum "Si O2"
_cell_formula_units_Z 112
_cell_length_a 14.606862
_cell_length_b 29.439719
_cell_length_c 14.432524
_cell_angle_alpha 90.000000
_cell_angle_beta 90.000000
_cell_angle_gamma 90.000000
_cell_volume 6206.301576
_symmetry_space_group_name_H-M "I B A M"
_symmetry_group_IT_number 72
_symmetry_cell_setting 'orthorhombic'
loop_
_space_group_symop_operation_xyz
x,y,z
-x,-y,z
x,-y,1/2-z
-x,y,1/2-z
-x,-y,-z
x,y,-z
-x,y,1/2+z
x,-y,1/2+z
1/2+x,1/2+y,1/2+z
1/2-x,1/2-y,1/2+z
1/2+x,1/2-y,-z
1/2-x,1/2+y,-z
1/2-x,1/2-y,1/2-z
1/2+x,1/2+y,1/2-z
1/2-x,1/2+y,z
1/2+x,1/2-y,z
loop_
_atom_site_type_symbol
_atom_site_label
_atom_site_fract_x
_atom_site_fract_y
_atom_site_fract_z
Si Si1 0.151454 0.450312 0.252761
Si Si2 0.996806 0.429309 0.393352
Si Si3 0.230937 0.644563 0.765414
Si Si4 0.162483 0.199062 0.898516
Si Si5 0.565690 0.166511 0.603435
Si Si6 0.769387 0.211263 0.893501
Si Si7 0.977656 0.764639 0.355557
O O1 0.199913 0.500000 0.250000
O O2 0.088503 0.447852 0.344447
O O3 0.226494 0.410076 0.254226
O O4 0.091745 0.447246 0.159430
O O5 0.995676 0.445835 0.500000
O O6 0.994696 0.374726 0.384842
O O7 0.319316 0.657824 0.827117
O O8 0.143613 0.663983 0.819584
O O9 0.236368 0.668007 0.665278
O O10 0.215424 0.243752 0.859551
O O11 0.054307 0.207127 0.910139
O O12 0.201405 0.186467 0.000000
O O13 0.609311 0.165364 0.500000
O O14 0.508431 0.212128 0.617782
O O15 0.877616 0.218330 0.882460
O O16 0.745522 0.200792 0.000000
O O17 0.000000 0.773027 0.250000
#
# Coordination Sequence:
#
# PCOD8293814 Si02
#       7
#    16  16  16  16  16  16  16
#     4  10  22  36  53  76 105 140 183 235 280 325
#     4   9  19  33  53  78 108 144 184 224 268 321
#     4  11  21  37  53  74 107 145 184 222 273 323
#     4  11  22  35  55  80 109 147 185 219 266 323
#     4  10  20  32  50  79 113 149 183 222 259 311
#     4  11  23  38  53  79 114 145 184 229 265 318
#     4  12  22  34  54  78 115 152 186 218 263 320
#
# _framework density 18.046175000000002
#
# number of rings (size 3 to 8) (size 9 to 14) (size 15 to 20)
#    0.000    1.429    2.857    3.857    6.000    2.286 
#    0.000    0.000    0.000    0.000    0.000    2.000 
#    0.000    2.286    0.000    0.000    0.000    0.000 
#
# Total GULP energy -694351.649749 kJ/mol
# GULP energy per Si atom -12399.136603 kJ/mol
# Density = 1.800510 g / cm^3
# Si number density = 18.046175 Si / 1000 Ang^3
#
#
#
# Elastic Constant Matrix: (Units=GPa)
#
#
# Indices 1 2 3 4 5 6 
#
# 1 70.3638 35.8672 12.6537 0.0001 0.0002 0.0000
# 2 35.8672 135.9564 40.7922 -0.0001 0.0006 0.0000
# 3 12.6537 40.7922 112.6034 0.0003 0.0023 0.0000
# 4 0.0001 -0.0001 0.0003 5.2570 0.0004 0.0000
# 5 0.0002 0.0006 0.0023 0.0004 32.9294 0.0000
# 6 0.0000 0.0000 0.0000 0.0000 0.0000 18.9707
#
#
#
# Elastic Compliance Matrix: (Units=1/GPa)
#
#
# Indices 1 2 3 4 5 6 
#
# 1 0.016430 -0.004241 -0.000310 0.000000 0.000000 0.000000
# 2 -0.004241 0.009347 -0.002910 0.000000 0.000000 0.000000
# 3 -0.000310 -0.002910 0.009970 -0.000001 -0.000001 0.000000
# 4 0.000000 0.000000 -0.000001 0.190222 -0.000002 0.000000
# 5 0.000000 0.000000 -0.000001 -0.000002 0.030368 0.000000
# 6 0.000000 0.000000 0.000000 0.000000 0.000000 0.052713
#
#
# Mechanical properties :
#
#
# Convention : Reuss Voigt Hill
#
# Bulk Modulus (GPa) = 48.01935 55.28334 51.65134
# Shear Modulus (GPa) = 15.10976 26.73880 20.92428
#
# Velocity S-wave (km/s) = 2.89672 3.85345 3.40882
# Velocity P-wave (km/s) = 6.15264 7.10631 6.64660
#
# Compressibility (1/GPa) = 0.02082494
#
# Stress axis : x y z
#
# Youngs Moduli (GPa) = 60.86589 106.98369 100.30532
#
# Poissons Ratio (x) = 0.45376 0.03107
# Poissons Ratio (y) = 0.25816 0.29184
# Poissons Ratio (z) = 0.01885 0.31127
#
# Static dielectric constant tensor:
#      x y z
#    x 3.226850 0.000000 0.000000 
#    y 0.000000 3.344080 0.000000 
#    z 0.000000 0.000000 3.642230 
# 
# 
# High freq. dielectric constant tensor:
#      x y z
#    x 1.664330 0.000000 0.000000 
#    y 0.000000 1.674100 0.000000 
#    z 0.000000 0.000000 1.724440 
# 
# From -- ./inp_files/22257.got.cif
#   From: 2010.03.12/outbox.cif.g09.slc.cpg/sg72_12_cif.got.tgz:22257.got - 2010.04.16 14:54:00.
