data_PCOD8293601
_publ_section_title
;
Structure prediction by ZEFSAII (Michael W. Deem and Ramdas Pophale) SiO2 
 PCOD8293601
Probable space group: I B A M
;
_chemical_formula_sum "Si O2"
_cell_formula_units_Z 96
_cell_length_a 21.899018
_cell_length_b 9.502318
_cell_length_c 24.931668
_cell_angle_alpha 90.000000
_cell_angle_beta 90.000000
_cell_angle_gamma 90.000000
_cell_volume 5188.066519
_symmetry_space_group_name_H-M "I B A M"
_symmetry_group_IT_number 72
_symmetry_cell_setting 'orthorhombic'
loop_
_space_group_symop_operation_xyz
x,y,z
-x,-y,z
x,-y,1/2-z
-x,y,1/2-z
-x,-y,-z
x,y,-z
-x,y,1/2+z
x,-y,1/2+z
1/2+x,1/2+y,1/2+z
1/2-x,1/2-y,1/2+z
1/2+x,1/2-y,-z
1/2-x,1/2+y,-z
1/2-x,1/2-y,1/2-z
1/2+x,1/2+y,1/2-z
1/2-x,1/2+y,z
1/2+x,1/2-y,z
loop_
_atom_site_type_symbol
_atom_site_label
_atom_site_fract_x
_atom_site_fract_y
_atom_site_fract_z
Si Si1 0.173396 0.800333 0.441117
Si Si2 0.228766 0.779431 0.138830
Si Si3 0.372235 0.405295 0.061407
Si Si4 0.090601 0.570027 0.401749
Si Si5 0.680779 0.003480 0.687900
Si Si6 0.527233 0.197271 0.438651
O O1 0.203161 0.812949 0.500000
O O2 0.226062 0.812861 0.397542
O O3 0.140182 0.651069 0.437130
O O4 0.124439 0.926037 0.432320
O O5 0.179653 0.851155 0.100726
O O6 0.263631 0.897939 0.173517
O O7 0.197010 0.665944 0.176922
O O8 0.438932 0.342873 0.076627
O O9 0.356502 0.361526 0.000000
O O10 0.118893 0.541758 0.343088
O O11 0.077645 0.425033 0.432325
O O12 0.028912 0.665205 0.398323
O O13 0.664909 0.000000 0.750000
O O14 0.502975 0.199011 0.500000
#
# Coordination Sequence:
#
# PCOD8293601 Si02
#       6
#    16  16  16  16  16  16
#     4  10  20  33  52  83 116 147 176 212 273 337
#     4  11  20  38  54  80 114 139 182 229 281 327
#     4  10  20  33  53  81 115 150 180 215 271 342
#     4  10  20  35  55  77 111 139 183 228 267 323
#     4  11  23  38  59  80 103 143 191 235 281 320
#     4  10  19  34  56  82 110 147 180 215 274 334
#
# _framework density 18.504003000000001
#
# number of rings (size 3 to 8) (size 9 to 14) (size 15 to 20)
#    0.000    1.667    3.333    3.000    0.000    0.667 
#    0.000    4.167    0.000    0.000    0.000    0.000 
#   10.000    0.000    0.000    0.000    0.000    0.000 
#
# Total GULP energy -595052.112950 kJ/mol
# GULP energy per Si atom -12396.919020 kJ/mol
# Density = 1.846189 g / cm^3
# Si number density = 18.504003 Si / 1000 Ang^3
#
#
#
# Elastic Constant Matrix: (Units=GPa)
#
#
# Indices 1 2 3 4 5 6 
#
# 1 69.9606 12.4303 35.6318 0.0000 0.0000 0.0000
# 2 12.4303 61.9461 28.3108 0.0000 0.0000 0.0000
# 3 35.6318 28.3108 91.8648 0.0000 0.0000 0.0000
# 4 0.0000 0.0000 0.0000 22.3150 0.0000 0.0000
# 5 0.0000 0.0000 0.0000 0.0000 21.5752 0.0000
# 6 0.0000 0.0000 0.0000 0.0000 0.0000 29.2770
#
#
#
# Elastic Compliance Matrix: (Units=1/GPa)
#
#
# Indices 1 2 3 4 5 6 
#
# 1 0.017825 -0.000485 -0.006764 0.000000 0.000000 0.000000
# 2 -0.000485 0.018803 -0.005606 0.000000 0.000000 0.000000
# 3 -0.006764 -0.005606 0.015237 0.000000 0.000000 0.000000
# 4 0.000000 0.000000 0.000000 0.044813 0.000000 0.000000
# 5 0.000000 0.000000 0.000000 0.000000 0.046349 0.000000
# 6 0.000000 0.000000 0.000000 0.000000 0.000000 0.034157
#
#
# Mechanical properties :
#
#
# Convention : Reuss Voigt Hill
#
# Bulk Modulus (GPa) = 38.23686 41.83526 40.03606
# Shear Modulus (GPa) = 23.62800 24.46001 24.04400
#
# Velocity S-wave (km/s) = 3.57727 3.63971 3.60862
# Velocity P-wave (km/s) = 6.14585 6.34989 6.24870
#
# Compressibility (1/GPa) = 0.02615278
#
# Stress axis : x y z
#
# Youngs Moduli (GPa) = 56.10059 53.18394 65.62976
#
# Poissons Ratio (x) = 0.02582 0.44394
# Poissons Ratio (y) = 0.02723 0.36794
# Poissons Ratio (z) = 0.37948 0.29817
#
# Static dielectric constant tensor:
#      x y z
#    x 3.401920 0.000000 0.000000 
#    y 0.000000 3.600670 0.000000 
#    z 0.000000 0.000000 3.192170 
# 
# 
# High freq. dielectric constant tensor:
#      x y z
#    x 1.711080 0.000000 0.000000 
#    y 0.000000 1.733670 0.000000 
#    z 0.000000 0.000000 1.689700 
# 
# From -- ./inp_files/42380.got.cif
#   From: 2010.03.12/outbox.cif.g09.slc.cpg/sg72_22_cif.got.tgz:42380.got - 2010.04.16 14:54:00.
