data_PCOD8293957
_publ_section_title
;
Structure prediction by ZEFSAII (Michael W. Deem and Ramdas Pophale) SiO2 
 PCOD8293957
Probable space group: I B A M
;
_chemical_formula_sum "Si O2"
_cell_formula_units_Z 116
_cell_length_a 21.819891
_cell_length_b 32.060399
_cell_length_c 9.083861
_cell_angle_alpha 90.000000
_cell_angle_beta 90.000000
_cell_angle_gamma 90.000000
_cell_volume 6354.655037
_symmetry_space_group_name_H-M "I B A M"
_symmetry_group_IT_number 72
_symmetry_cell_setting 'orthorhombic'
loop_
_space_group_symop_operation_xyz
x,y,z
-x,-y,z
x,-y,1/2-z
-x,y,1/2-z
-x,-y,-z
x,y,-z
-x,y,1/2+z
x,-y,1/2+z
1/2+x,1/2+y,1/2+z
1/2-x,1/2-y,1/2+z
1/2+x,1/2-y,-z
1/2-x,1/2+y,-z
1/2-x,1/2-y,1/2-z
1/2+x,1/2+y,1/2-z
1/2-x,1/2+y,z
1/2+x,1/2-y,z
loop_
_atom_site_type_symbol
_atom_site_label
_atom_site_fract_x
_atom_site_fract_y
_atom_site_fract_z
Si Si1 0.180606 0.043080 0.326041
Si Si2 0.837555 0.227617 0.166685
Si Si3 0.619177 0.037356 0.161177
Si Si4 0.000000 0.500000 0.250000
Si Si5 0.725935 0.189566 0.668172
Si Si6 0.707682 0.894254 0.329176
Si Si7 0.565122 0.584323 0.325966
Si Si8 0.061877 0.179757 0.830372
O O1 0.170266 0.036670 0.500000
O O2 0.232921 0.077482 0.295986
O O3 0.116999 0.056981 0.251395
O O4 0.201254 0.000000 0.250000
O O5 0.776646 0.204568 0.218261
O O6 0.830210 0.277670 0.175857
O O7 0.890663 0.213617 0.273990
O O8 0.851415 0.213276 0.000000
O O9 0.544647 0.031641 0.159849
O O10 0.644752 0.081531 0.217003
O O11 0.650726 0.000000 0.250000
O O12 0.646307 0.031948 0.000000
O O13 0.751026 0.187055 0.500000
O O14 0.704296 0.144603 0.720603
O O15 0.706812 0.880143 0.500000
O O16 0.500000 0.574189 0.250000
O O17 0.560992 0.574146 0.500000
O O18 0.583552 0.632535 0.298962
O O19 0.000000 0.190169 0.750000
O O20 0.050634 0.187508 0.000000
#
# Coordination Sequence:
#
# PCOD8293957 Si02
#       8
#    16  16  16   4  16  16  16  16
#     4  11  23  37  54  77 107 141 179 222 271 322
#     4  10  20  35  55  79 109 141 179 222 266 320
#     4   9  18  32  53  79 106 137 177 218 263 313
#     4   8  18  32  58  80 110 136 180 220 258 312
#     4  10  21  35  54  81 108 140 179 219 268 323
#     4  10  21  36  54  79 110 142 177 221 272 323
#     4  10  21  37  56  79 107 139 180 223 265 316
#     4  10  20  34  56  83 110 142 180 223 269 318
#
# _framework density 18.254335000000001
#
# number of rings (size 3 to 8) (size 9 to 14) (size 15 to 20)
#    0.414    1.655    0.000    3.517    0.000    7.448 
#    0.000    1.379    1.517    0.000    0.000    0.000 
#    0.000    0.000    0.000    0.000    0.000    0.000 
#
# Total GULP energy -718836.399393 kJ/mol
# GULP energy per Si atom -12393.731024 kJ/mol
# Density = 1.821279 g / cm^3
# Si number density = 18.254335 Si / 1000 Ang^3
#
#
#
# Elastic Constant Matrix: (Units=GPa)
#
#
# Indices 1 2 3 4 5 6 
#
# 1 75.8975 36.6096 25.1139 0.0000 0.0000 0.0000
# 2 36.6096 101.8239 37.9676 0.0000 0.0000 0.0000
# 3 25.1139 37.9676 75.4955 0.0000 -0.0002 0.0000
# 4 0.0000 0.0000 0.0000 31.7107 0.0000 0.0000
# 5 0.0000 0.0000 -0.0002 0.0000 25.8641 0.0000
# 6 0.0000 0.0000 0.0000 0.0000 0.0000 31.1603
#
#
#
# Elastic Compliance Matrix: (Units=1/GPa)
#
#
# Indices 1 2 3 4 5 6 
#
# 1 0.016504 -0.004784 -0.003084 0.000000 0.000000 0.000000
# 2 -0.004784 0.013474 -0.005185 0.000000 0.000000 0.000000
# 3 -0.003084 -0.005185 0.016879 0.000000 0.000000 0.000000
# 4 0.000000 0.000000 0.000000 0.031535 0.000000 0.000000
# 5 0.000000 0.000000 0.000000 0.000000 0.038664 0.000000
# 6 0.000000 0.000000 0.000000 0.000000 0.000000 0.032092
#
#
# Mechanical properties :
#
#
# Convention : Reuss Voigt Hill
#
# Bulk Modulus (GPa) = 48.18957 50.28879 49.23918
# Shear Modulus (GPa) = 27.44674 27.98208 27.71441
#
# Velocity S-wave (km/s) = 3.88180 3.91947 3.90068
# Velocity P-wave (km/s) = 6.82257 6.93483 6.87893
#
# Compressibility (1/GPa) = 0.02075138
#
# Stress axis : x y z
#
# Youngs Moduli (GPa) = 60.59266 74.21625 59.24370
#
# Poissons Ratio (x) = 0.35502 0.18272
# Poissons Ratio (y) = 0.28985 0.30718
# Poissons Ratio (z) = 0.18688 0.38481
#
# Static dielectric constant tensor:
#      x y z
#    x 2.802300 0.000000 0.000000 
#    y 0.000000 3.434390 0.000000 
#    z 0.000000 0.000000 3.461800 
# 
# 
# High freq. dielectric constant tensor:
#      x y z
#    x 1.697890 0.000000 0.000000 
#    y 0.000000 1.701780 0.000000 
#    z 0.000000 0.000000 1.722050 
# 
# From -- ./inp_files/7267.got.cif
#   From: 2010.03.12/outbox.cif.g09.slc.cpg/sg72_4_cif.got.tgz:7267.got - 2010.04.16 14:54:00.
