data_PCOD8293478
_publ_section_title
;
Structure prediction by ZEFSAII (Michael W. Deem and Ramdas Pophale) SiO2 
 PCOD8293478
Probable space group: I B A M
;
_chemical_formula_sum "Si O2"
_cell_formula_units_Z 64
_cell_length_a 22.640724
_cell_length_b 18.948019
_cell_length_c 8.729144
_cell_angle_alpha 90.000000
_cell_angle_beta 90.000000
_cell_angle_gamma 90.000000
_cell_volume 3744.775441
_symmetry_space_group_name_H-M "I B A M"
_symmetry_group_IT_number 72
_symmetry_cell_setting 'orthorhombic'
loop_
_space_group_symop_operation_xyz
x,y,z
-x,-y,z
x,-y,1/2-z
-x,y,1/2-z
-x,-y,-z
x,y,-z
-x,y,1/2+z
x,-y,1/2+z
1/2+x,1/2+y,1/2+z
1/2-x,1/2-y,1/2+z
1/2+x,1/2-y,-z
1/2-x,1/2+y,-z
1/2-x,1/2-y,1/2-z
1/2+x,1/2+y,1/2-z
1/2-x,1/2+y,z
1/2+x,1/2-y,z
loop_
_atom_site_type_symbol
_atom_site_label
_atom_site_fract_x
_atom_site_fract_y
_atom_site_fract_z
Si Si1 0.678001 0.295414 0.174977
Si Si2 0.439306 0.226297 0.328359
Si Si3 0.839213 0.654665 0.680112
Si Si4 0.740250 0.573731 0.181318
O O1 0.605870 0.292744 0.173509
O O2 0.698877 0.224528 0.267882
O O3 0.695813 0.366467 0.259514
O O4 0.702407 0.293737 0.000000
O O5 0.500000 0.248914 0.250000
O O6 0.452827 0.200977 0.500000
O O7 0.406825 0.161196 0.239663
O O8 0.838243 0.645017 0.500000
O O9 0.806808 0.588486 0.758789
O O10 0.718046 0.500000 0.250000
O O11 0.739238 0.570674 0.000000
#
# Coordination Sequence:
#
# PCOD8293478 Si02
#       4
#    16  16  16  16
#     4   9  19  34  52  76 104 134 170 210 254 301
#     4   9  18  31  52  78 104 131 169 213 255 296
#     4  10  19  33  53  76 104 135 170 210 254 300
#     4  12  23  35  51  74 105 138 171 209 257 307
#
# _framework density 17.090478000000001
#
# number of rings (size 3 to 8) (size 9 to 14) (size 15 to 20)
#    1.500    0.500    0.000    6.000    0.000    0.000 
#    0.000    0.000    0.000    1.500    0.000   10.500 
#    0.000    0.000    0.000    0.000    0.000    0.000 
#
# Total GULP energy -396530.874732 kJ/mol
# GULP energy per Si atom -12391.589835 kJ/mol
# Density = 1.705158 g / cm^3
# Si number density = 17.090478 Si / 1000 Ang^3
#
#
#
# Elastic Constant Matrix: (Units=GPa)
#
#
# Indices 1 2 3 4 5 6 
#
# 1 45.5991 5.9145 24.5209 0.0000 0.0000 0.0000
# 2 5.9145 53.4968 26.3620 0.0000 0.0000 0.0000
# 3 24.5209 26.3620 167.0931 0.0000 0.0000 0.0000
# 4 0.0000 0.0000 0.0000 27.8610 0.0000 0.0000
# 5 0.0000 0.0000 0.0000 0.0000 31.0672 0.0000
# 6 0.0000 0.0000 0.0000 0.0000 0.0000 7.1303
#
#
#
# Elastic Compliance Matrix: (Units=1/GPa)
#
#
# Indices 1 2 3 4 5 6 
#
# 1 0.023857 -0.000989 -0.003345 0.000000 0.000000 0.000000
# 2 -0.000989 0.020309 -0.003059 0.000000 0.000000 0.000000
# 3 -0.003345 -0.003059 0.006958 0.000000 0.000000 0.000000
# 4 0.000000 0.000000 0.000000 0.035893 0.000000 0.000000
# 5 0.000000 0.000000 0.000000 0.000000 0.032188 0.000000
# 6 0.000000 0.000000 0.000000 0.000000 0.000000 0.140247
#
#
# Mechanical properties :
#
#
# Convention : Reuss Voigt Hill
#
# Bulk Modulus (GPa) = 27.51910 42.19821 34.85866
# Shear Modulus (GPa) = 17.46103 27.17113 22.31608
#
# Velocity S-wave (km/s) = 3.19984 3.99161 3.61745
# Velocity P-wave (km/s) = 5.45793 6.78149 6.15538
#
# Compressibility (1/GPa) = 0.03633839
#
# Stress axis : x y z
#
# Youngs Moduli (GPa) = 41.91585 49.23807 143.71578
#
# Poissons Ratio (x) = 0.04871 0.48073
# Poissons Ratio (y) = 0.04147 0.43963
# Poissons Ratio (z) = 0.14021 0.15062
#
# Static dielectric constant tensor:
#      x y z
#    x 3.146390 0.000000 0.000000 
#    y 0.000000 2.936690 0.000000 
#    z 0.000000 0.000000 3.287810 
# 
# 
# High freq. dielectric constant tensor:
#      x y z
#    x 1.650070 0.000000 0.000000 
#    y 0.000000 1.620570 0.000000 
#    z 0.000000 0.000000 1.684740 
# 
# From -- ./inp_files/4321.got.cif
#   From: 2010.03.12/outbox.cif.g09.slc.cpg/sg72_3_cif.got.tgz:4321.got - 2010.04.16 14:54:00.
