data_PCOD8293304
_publ_section_title
;
Structure prediction by ZEFSAII (Michael W. Deem and Ramdas Pophale) SiO2 
 PCOD8293304
Probable space group: I B A M
;
_chemical_formula_sum "Si O2"
_cell_formula_units_Z 52
_cell_length_a 13.649228
_cell_length_b 25.577158
_cell_length_c 9.122803
_cell_angle_alpha 90.000000
_cell_angle_beta 90.000000
_cell_angle_gamma 90.000000
_cell_volume 3184.847717
_symmetry_space_group_name_H-M "I B A M"
_symmetry_group_IT_number 72
_symmetry_cell_setting 'orthorhombic'
loop_
_space_group_symop_operation_xyz
x,y,z
-x,-y,z
x,-y,1/2-z
-x,y,1/2-z
-x,-y,-z
x,y,-z
-x,y,1/2+z
x,-y,1/2+z
1/2+x,1/2+y,1/2+z
1/2-x,1/2-y,1/2+z
1/2+x,1/2-y,-z
1/2-x,1/2+y,-z
1/2-x,1/2-y,1/2-z
1/2+x,1/2+y,1/2-z
1/2-x,1/2+y,z
1/2+x,1/2-y,z
loop_
_atom_site_type_symbol
_atom_site_label
_atom_site_fract_x
_atom_site_fract_y
_atom_site_fract_z
Si Si1 0.401130 0.765530 0.170552
Si Si2 0.710088 0.326666 0.669873
Si Si3 0.408682 0.600373 0.163818
Si Si4 0.500000 0.500000 0.750000
O O1 0.500000 0.783798 0.250000
O O2 0.358984 0.713981 0.245849
O O3 0.323924 0.812833 0.190162
O O4 0.420752 0.753972 0.000000
O O5 0.680415 0.327805 0.500000
O O6 0.688825 0.383194 0.745183
O O7 0.500000 0.627203 0.250000
O O8 0.427050 0.537484 0.156582
O O9 0.401249 0.622534 0.000000
#
# Coordination Sequence:
#
# PCOD8293304 Si02
#       4
#    16  16  16   4
#     4  10  20  33  48  68  95 128 164 202 238 283
#     4  10  20  32  48  69  95 128 164 198 240 288
#     4  10  19  31  48  69  97 127 157 195 238 286
#     4   8  22  32  50  72 100 128 162 196 246 290
#
# _framework density 16.327311000000002
#
# number of rings (size 3 to 8) (size 9 to 14) (size 15 to 20)
#    0.923    1.231    0.000    4.154    0.000    3.692 
#    0.000    0.000    0.000    0.000    0.000    1.077 
#    0.000    7.385    0.000    0.000    0.000    0.000 
#
# Total GULP energy -322147.062931 kJ/mol
# GULP energy per Si atom -12390.271651 kJ/mol
# Density = 1.629015 g / cm^3
# Si number density = 16.327311 Si / 1000 Ang^3
#
#
#
# Elastic Constant Matrix: (Units=GPa)
#
#
# Indices 1 2 3 4 5 6 
#
# 1 98.2373 42.2001 67.9820 0.0001 0.0002 0.0001
# 2 42.2001 73.3756 42.2706 -0.0005 0.0001 0.0003
# 3 67.9820 42.2706 159.2353 -0.0039 0.0001 0.0014
# 4 0.0001 -0.0005 -0.0039 21.5943 0.0001 0.0006
# 5 0.0002 0.0001 0.0001 0.0001 29.6695 0.0000
# 6 0.0001 0.0003 0.0014 0.0006 0.0000 28.4779
#
#
#
# Elastic Compliance Matrix: (Units=1/GPa)
#
#
# Indices 1 2 3 4 5 6 
#
# 1 0.016715 -0.006495 -0.005412 -0.000001 0.000000 0.000000
# 2 -0.006495 0.018613 -0.002168 0.000000 0.000000 0.000000
# 3 -0.005412 -0.002168 0.009166 0.000002 0.000000 0.000000
# 4 -0.000001 0.000000 0.000002 0.046308 0.000000 -0.000001
# 5 0.000000 0.000000 0.000000 0.000000 0.033705 0.000000
# 6 0.000000 0.000000 0.000000 -0.000001 0.000000 0.035115
#
#
# Mechanical properties :
#
#
# Convention : Reuss Voigt Hill
#
# Bulk Modulus (GPa) = 61.18614 70.63929 65.91272
# Shear Modulus (GPa) = 25.87726 27.84137 26.85931
#
# Velocity S-wave (km/s) = 3.98541 4.13389 4.06033
# Velocity P-wave (km/s) = 7.66381 8.13288 7.90183
#
# Compressibility (1/GPa) = 0.01634357
#
# Stress axis : x y z
#
# Youngs Moduli (GPa) = 59.82757 53.72552 109.09969
#
# Poissons Ratio (x) = 0.34897 0.59041
# Poissons Ratio (y) = 0.38861 0.23652
# Poissons Ratio (z) = 0.32377 0.11647
#
# Static dielectric constant tensor:
#      x y z
#    x 3.050160 0.000000 0.000000 
#    y 0.000000 2.864880 0.000000 
#    z 0.000000 0.000000 3.188520 
# 
# 
# High freq. dielectric constant tensor:
#      x y z
#    x 1.607640 0.000000 0.000000 
#    y 0.000000 1.598790 0.000000 
#    z 0.000000 0.000000 1.650440 
# 
# From -- ./inp_files/2292.got.cif
#   From: 2010.03.12/outbox.cif.g09.slc.cpg/sg72_2_cif.got.tgz:2292.got - 2010.04.16 14:54:00.
