data_PCOD8293291
_publ_section_title
;
Structure prediction by ZEFSAII (Michael W. Deem and Ramdas Pophale) SiO2 
 PCOD8293291
Probable space group: I B A M
;
_chemical_formula_sum "Si O2"
_cell_formula_units_Z 96
_cell_length_a 24.638419
_cell_length_b 25.064123
_cell_length_c 9.189732
_cell_angle_alpha 90.000000
_cell_angle_beta 90.000000
_cell_angle_gamma 90.000000
_cell_volume 5675.030447
_symmetry_space_group_name_H-M "I B A M"
_symmetry_group_IT_number 72
_symmetry_cell_setting 'orthorhombic'
loop_
_space_group_symop_operation_xyz
x,y,z
-x,-y,z
x,-y,1/2-z
-x,y,1/2-z
-x,-y,-z
x,y,-z
-x,y,1/2+z
x,-y,1/2+z
1/2+x,1/2+y,1/2+z
1/2-x,1/2-y,1/2+z
1/2+x,1/2-y,-z
1/2-x,1/2+y,-z
1/2-x,1/2-y,1/2-z
1/2+x,1/2+y,1/2-z
1/2-x,1/2+y,z
1/2+x,1/2-y,z
loop_
_atom_site_type_symbol
_atom_site_label
_atom_site_fract_x
_atom_site_fract_y
_atom_site_fract_z
Si Si1 0.164635 0.254544 0.170761
Si Si2 0.949219 0.879677 0.661877
Si Si3 0.116830 0.951017 0.339109
Si Si4 0.743882 0.450554 0.840206
Si Si5 0.052498 0.245943 0.335681
Si Si6 0.746690 0.169831 0.328552
O O1 0.107198 0.259299 0.250039
O O2 0.194708 0.197835 0.200298
O O3 0.201339 0.301772 0.233124
O O4 0.155259 0.263353 0.000000
O O5 0.947661 0.904018 0.500000
O O6 0.895557 0.896851 0.750499
O O7 0.953234 0.816871 0.654054
O O8 0.000000 0.903882 0.750000
O O9 0.091038 0.947600 0.500000
O O10 0.180309 0.959449 0.352707
O O11 0.090402 0.000000 0.250000
O O12 0.769785 0.500000 0.750000
O O13 0.753485 0.391577 0.773609
O O14 0.770510 0.453210 0.000000
O O15 0.054452 0.269902 0.500000
O O16 0.000000 0.269474 0.250000
O O17 0.732994 0.174118 0.500000
#
# Coordination Sequence:
#
# PCOD8293291 Si02
#       6
#    16  16  16  16  16  16
#     4  10  19  31  49  72  97 126 161 198 237 283
#     4  10  20  32  45  61  80 107 144 185 229 273
#     4  10  19  31  45  61  82 109 144 186 230 273
#     4   9  18  31  47  66  90 120 152 188 229 275
#     4  10  20  33  49  68  92 121 153 190 232 280
#     4   9  18  32  48  69  98 129 159 194 239 285
#
# _framework density 16.916208999999998
#
# number of rings (size 3 to 8) (size 9 to 14) (size 15 to 20)
#    0.000    2.333    0.000    3.000    0.000    5.667 
#    0.000    1.667    0.000    0.000    0.000    0.000 
#    0.000    0.667    0.000    7.000    0.000    3.833 
#
# Total GULP energy -594904.744883 kJ/mol
# GULP energy per Si atom -12393.848852 kJ/mol
# Density = 1.687771 g / cm^3
# Si number density = 16.916209 Si / 1000 Ang^3
#
#
#
# Elastic Constant Matrix: (Units=GPa)
#
#
# Indices 1 2 3 4 5 6 
#
# 1 81.9033 20.8201 51.7775 0.0000 0.0000 0.0000
# 2 20.8201 86.4001 41.4342 0.0000 0.0000 0.0000
# 3 51.7775 41.4342 131.0432 0.0000 0.0000 0.0000
# 4 0.0000 0.0000 0.0000 24.2275 0.0000 0.0000
# 5 0.0000 0.0000 0.0000 0.0000 26.4713 0.0000
# 6 0.0000 0.0000 0.0000 0.0000 0.0000 19.1621
#
#
#
# Elastic Compliance Matrix: (Units=1/GPa)
#
#
# Indices 1 2 3 4 5 6 
#
# 1 0.016347 -0.000992 -0.006145 0.000000 0.000000 0.000000
# 2 -0.000992 0.013703 -0.003941 0.000000 0.000000 0.000000
# 3 -0.006145 -0.003941 0.011305 0.000000 0.000000 0.000000
# 4 0.000000 0.000000 0.000000 0.041275 0.000000 0.000000
# 5 0.000000 0.000000 0.000000 0.000000 0.037777 0.000000
# 6 0.000000 0.000000 0.000000 0.000000 0.000000 0.052186
#
#
# Mechanical properties :
#
#
# Convention : Reuss Voigt Hill
#
# Bulk Modulus (GPa) = 52.08677 58.60114 55.34396
# Shear Modulus (GPa) = 24.85726 26.32650 25.59188
#
# Velocity S-wave (km/s) = 3.83748 3.94926 3.89377
# Velocity P-wave (km/s) = 7.10583 7.45069 7.28030
#
# Compressibility (1/GPa) = 0.01919873
#
# Stress axis : x y z
#
# Youngs Moduli (GPa) = 61.17513 72.97704 88.45563
#
# Poissons Ratio (x) = 0.07240 0.54357
# Poissons Ratio (y) = 0.06069 0.34858
# Poissons Ratio (z) = 0.37593 0.28758
#
# Static dielectric constant tensor:
#      x y z
#    x 2.929740 0.000000 0.000000 
#    y 0.000000 2.998050 0.000000 
#    z 0.000000 0.000000 3.607250 
# 
# 
# High freq. dielectric constant tensor:
#      x y z
#    x 1.620130 0.000000 0.000000 
#    y 0.000000 1.624380 0.000000 
#    z 0.000000 0.000000 1.671150 
# 
# From -- ./inp_files/5934.got.cif
#   From: 2010.03.12/outbox.cif.g09.slc.cpg/sg72_3_cif.got.tgz:5934.got - 2010.04.16 14:54:00.
