data_PCOD8293888
_publ_section_title
;
Structure prediction by ZEFSAII (Michael W. Deem and Ramdas Pophale) SiO2 
 PCOD8293888
Probable space group: I B A M
;
_chemical_formula_sum "Si O2"
_cell_formula_units_Z 96
_cell_length_a 28.102571
_cell_length_b 10.587873
_cell_length_c 16.239067
_cell_angle_alpha 90.000000
_cell_angle_beta 90.000000
_cell_angle_gamma 90.000000
_cell_volume 4831.876781
_symmetry_space_group_name_H-M "I B A M"
_symmetry_group_IT_number 72
_symmetry_cell_setting 'orthorhombic'
loop_
_space_group_symop_operation_xyz
x,y,z
-x,-y,z
x,-y,1/2-z
-x,y,1/2-z
-x,-y,-z
x,y,-z
-x,y,1/2+z
x,-y,1/2+z
1/2+x,1/2+y,1/2+z
1/2-x,1/2-y,1/2+z
1/2+x,1/2-y,-z
1/2-x,1/2+y,-z
1/2-x,1/2-y,1/2-z
1/2+x,1/2+y,1/2-z
1/2-x,1/2+y,z
1/2+x,1/2-y,z
loop_
_atom_site_type_symbol
_atom_site_label
_atom_site_fract_x
_atom_site_fract_y
_atom_site_fract_z
Si Si1 0.110269 0.272039 0.404520
Si Si2 0.517781 0.872407 0.843381
Si Si3 0.785481 0.995392 0.845145
Si Si4 0.478065 0.622262 0.158410
Si Si5 0.281154 0.773024 0.402995
Si Si6 0.888907 0.017736 0.405983
O O1 0.102669 0.304510 0.500000
O O2 0.074996 0.359266 0.350268
O O3 0.164279 0.299143 0.377937
O O4 0.098246 0.126759 0.385754
O O5 0.500000 0.877485 0.750000
O O6 0.493331 0.751277 0.887517
O O7 0.500000 0.000000 0.888405
O O8 0.765506 0.132194 0.874137
O O9 0.798191 0.000000 0.750000
O O10 0.748056 0.883813 0.859829
O O11 0.833195 0.957799 0.893299
O O12 0.500000 0.500000 0.111547
O O13 0.500000 0.626327 0.250000
O O14 0.420665 0.606739 0.154206
O O15 0.273524 0.780161 0.500000
O O16 0.901047 0.051704 0.500000
#
# Coordination Sequence:
#
# PCOD8293888 Si02
#       6
#    16  16  16  16  16  16
#     4   9  19  36  59  81 112 156 194 230 289 359
#     4  10  21  37  53  79 113 153 188 233 292 348
#     4  11  23  39  64  94 124 156 202 256 308 365
#     4  10  20  33  58  84 112 149 194 243 291 342
#     4  10  21  42  65  88 122 164 201 246 308 369
#     4  10  21  37  60  89 117 154 199 246 301 359
#
# _framework density 19.868055999999999
#
# number of rings (size 3 to 8) (size 9 to 14) (size 15 to 20)
#    0.000    2.000    1.667    3.000    2.333    2.667 
#    6.000    0.000    0.000    0.000    0.000    0.000 
#    0.000    0.000    0.000    0.000    0.000    0.000 
#
# Total GULP energy -594938.185491 kJ/mol
# GULP energy per Si atom -12394.545531 kJ/mol
# Density = 1.982284 g / cm^3
# Si number density = 19.868056 Si / 1000 Ang^3
#
#
#
# Elastic Constant Matrix: (Units=GPa)
#
#
# Indices 1 2 3 4 5 6 
#
# 1 125.4858 76.9251 29.8978 0.0000 0.0000 0.0000
# 2 76.9251 157.5669 16.4316 0.0000 0.0000 0.0000
# 3 29.8978 16.4316 64.3312 0.0000 0.0000 0.0000
# 4 0.0000 0.0000 0.0000 11.9414 0.0000 0.0000
# 5 0.0000 0.0000 0.0000 0.0000 31.5578 0.0000
# 6 0.0000 0.0000 0.0000 0.0000 0.0000 36.2945
#
#
#
# Elastic Compliance Matrix: (Units=1/GPa)
#
#
# Indices 1 2 3 4 5 6 
#
# 1 0.012455 -0.005627 -0.004351 0.000000 0.000000 0.000000
# 2 -0.005627 0.009062 0.000300 0.000000 0.000000 0.000000
# 3 -0.004351 0.000300 0.017490 0.000000 0.000000 0.000000
# 4 0.000000 0.000000 0.000000 0.083742 0.000000 0.000000
# 5 0.000000 0.000000 0.000000 0.000000 0.031688 0.000000
# 6 0.000000 0.000000 0.000000 0.000000 0.000000 0.027552
#
#
# Mechanical properties :
#
#
# Convention : Reuss Voigt Hill
#
# Bulk Modulus (GPa) = 50.88562 65.98810 58.43686
# Shear Modulus (GPa) = 24.05045 30.90069 27.47557
#
# Velocity S-wave (km/s) = 3.48301 3.94800 3.72277
# Velocity P-wave (km/s) = 6.46858 7.35306 6.92496
#
# Compressibility (1/GPa) = 0.01965192
#
# Stress axis : x y z
#
# Youngs Moduli (GPa) = 80.28804 110.34757 57.17527
#
# Poissons Ratio (x) = 0.62092 0.24879
# Poissons Ratio (y) = 0.45177 -0.01718
# Poissons Ratio (z) = 0.34936 -0.03315
#
# Static dielectric constant tensor:
#      x y z
#    x 3.657020 0.000000 0.000000 
#    y 0.000000 5.026720 0.000000 
#    z 0.000000 0.000000 3.357830 
# 
# 
# High freq. dielectric constant tensor:
#      x y z
#    x 1.777130 0.000000 0.000000 
#    y 0.000000 1.774320 0.000000 
#    z 0.000000 0.000000 1.758200 
# 
# From -- ./inp_files/33892.got.cif
#   From: 2010.03.12/outbox.cif.g09.slc.cpg/sg72_17_cif.got.tgz:33892.got - 2010.04.16 14:54:00.
