data_PCOD8293813
_publ_section_title
;
Structure prediction by ZEFSAII (Michael W. Deem and Ramdas Pophale) SiO2 
 PCOD8293813
Probable space group: I B A M
;
_chemical_formula_sum "Si O2"
_cell_formula_units_Z 72
_cell_length_a 16.806001
_cell_length_b 22.127194
_cell_length_c 10.035581
_cell_angle_alpha 90.000000
_cell_angle_beta 90.000000
_cell_angle_gamma 90.000000
_cell_volume 3731.927939
_symmetry_space_group_name_H-M "I B A M"
_symmetry_group_IT_number 72
_symmetry_cell_setting 'orthorhombic'
loop_
_space_group_symop_operation_xyz
x,y,z
-x,-y,z
x,-y,1/2-z
-x,y,1/2-z
-x,-y,-z
x,y,-z
-x,y,1/2+z
x,-y,1/2+z
1/2+x,1/2+y,1/2+z
1/2-x,1/2-y,1/2+z
1/2+x,1/2-y,-z
1/2-x,1/2+y,-z
1/2-x,1/2-y,1/2-z
1/2+x,1/2+y,1/2-z
1/2-x,1/2+y,z
1/2+x,1/2-y,z
loop_
_atom_site_type_symbol
_atom_site_label
_atom_site_fract_x
_atom_site_fract_y
_atom_site_fract_z
Si Si1 0.342843 0.814052 0.346919
Si Si2 0.703393 0.000000 0.250000
Si Si3 0.426444 0.309889 0.847719
Si Si4 0.563591 0.070621 0.355752
Si Si5 0.773690 0.120853 0.848628
O O1 0.311758 0.815343 0.500000
O O2 0.375418 0.748748 0.306538
O O3 0.416432 0.859719 0.327575
O O4 0.272283 0.833307 0.248526
O O5 0.645566 0.967303 0.144305
O O6 0.758598 0.949743 0.318761
O O7 0.500000 0.319372 0.750000
O O8 0.367913 0.367349 0.832524
O O9 0.457441 0.303755 0.000000
O O10 0.500000 0.046575 0.250000
O O11 0.523211 0.063122 0.500000
O O12 0.746462 0.135158 0.000000
#
# Coordination Sequence:
#
# PCOD8293813 Si02
#       5
#    16   8  16  16  16
#     4   9  19  35  55  82 114 143 173 214 268 329
#     4  10  21  36  53  72 104 142 182 228 271 314
#     4  10  21  37  57  83 112 142 180 225 274 327
#     4  10  20  32  49  75 106 139 172 208 256 315
#     4  10  21  37  58  82 107 141 186 229 270 321
#
# _framework density 19.292978000000002
#
# number of rings (size 3 to 8) (size 9 to 14) (size 15 to 20)
#    0.000    2.222    0.000    2.333    0.000    8.000 
#    0.000    0.556    0.000    2.667    0.000    0.000 
#    0.000    0.000    0.000    0.000    0.000    0.000 
#
# Total GULP energy -446312.777600 kJ/mol
# GULP energy per Si atom -12397.577156 kJ/mol
# Density = 1.924907 g / cm^3
# Si number density = 19.292978 Si / 1000 Ang^3
#
#
#
# Elastic Constant Matrix: (Units=GPa)
#
#
# Indices 1 2 3 4 5 6 
#
# 1 103.6123 57.3227 77.6427 0.0000 0.0000 0.0000
# 2 57.3227 106.1917 39.8982 0.0000 0.0000 0.0000
# 3 77.6427 39.8982 138.2450 0.0000 0.0000 0.0000
# 4 0.0000 0.0000 0.0000 -20.1216 0.0000 0.0000
# 5 0.0000 0.0000 0.0000 0.0000 36.2027 0.0000
# 6 0.0000 0.0000 0.0000 0.0000 0.0000 24.7561
#
#
#
# Elastic Compliance Matrix: (Units=1/GPa)
#
#
# Indices 1 2 3 4 5 6 
#
# 1 0.021218 -0.007825 -0.009658 0.000000 0.000000 0.000000
# 2 -0.007825 0.013448 0.000513 0.000000 0.000000 0.000000
# 3 -0.009658 0.000513 0.012510 0.000000 0.000000 0.000000
# 4 0.000000 0.000000 0.000000 -0.049698 0.000000 0.000000
# 5 0.000000 0.000000 0.000000 0.000000 0.027622 0.000000
# 6 0.000000 0.000000 0.000000 0.000000 0.000000 0.040394
#
#
# Mechanical properties :
#
#
# Convention : Reuss Voigt Hill
#
# Bulk Modulus (GPa) = 75.54970 77.53069 76.54020
# Shear Modulus (GPa) = 48.14854 19.71311 33.93083
#
# Velocity S-wave (km/s) = 5.00107 3.19999 4.19825
# Velocity P-wave (km/s) = 8.52008 7.34346 7.95356
#
# Compressibility (1/GPa) = 0.01323632
#
# Stress axis : x y z
#
# Youngs Moduli (GPa) = 47.13005 74.36155 79.93738
#
# Poissons Ratio (x) = 0.58185 0.77207
# Poissons Ratio (y) = 0.36878 -0.04105
# Poissons Ratio (z) = 0.45520 -0.03818
#
# Static dielectric constant tensor:
#      x y z
#    x 3.263340 0.000000 0.000000 
#    y 0.000000 3.665780 0.000000 
#    z 0.000000 0.000000 3.577020 
# 
# 
# High freq. dielectric constant tensor:
#      x y z
#    x 1.724430 0.000000 0.000000 
#    y 0.000000 1.760140 0.000000 
#    z 0.000000 0.000000 1.756500 
# 
# From -- ./inp_files/3680.got.cif
#   From: 2010.03.12/outbox.cif.g09.slc.cpg/sg72_2_cif.got.tgz:3680.got - 2010.04.16 14:54:00.
