data_PCOD8293837
_publ_section_title
;
Structure prediction by ZEFSAII (Michael W. Deem and Ramdas Pophale) SiO2 
 PCOD8293837
Probable space group: I B A M
;
_chemical_formula_sum "Si O2"
_cell_formula_units_Z 80
_cell_length_a 20.559359
_cell_length_b 27.659330
_cell_length_c 8.749223
_cell_angle_alpha 90.000000
_cell_angle_beta 90.000000
_cell_angle_gamma 90.000000
_cell_volume 4975.316485
_symmetry_space_group_name_H-M "I B A M"
_symmetry_group_IT_number 72
_symmetry_cell_setting 'orthorhombic'
loop_
_space_group_symop_operation_xyz
x,y,z
-x,-y,z
x,-y,1/2-z
-x,y,1/2-z
-x,-y,-z
x,y,-z
-x,y,1/2+z
x,-y,1/2+z
1/2+x,1/2+y,1/2+z
1/2-x,1/2-y,1/2+z
1/2+x,1/2-y,-z
1/2-x,1/2+y,-z
1/2-x,1/2-y,1/2-z
1/2+x,1/2+y,1/2-z
1/2-x,1/2+y,z
1/2+x,1/2-y,z
loop_
_atom_site_type_symbol
_atom_site_label
_atom_site_fract_x
_atom_site_fract_y
_atom_site_fract_z
Si Si1 0.686837 0.138385 0.320173
Si Si2 0.568316 0.691990 0.680535
Si Si3 0.931746 0.705113 0.681064
Si Si4 0.737719 0.050839 0.827586
Si Si5 0.815837 0.140295 0.172620
O O1 0.696773 0.139444 0.500000
O O2 0.621965 0.166096 0.270104
O O3 0.682673 0.082518 0.261494
O O4 0.749755 0.164307 0.242101
O O5 0.500000 0.674501 0.750000
O O6 0.561503 0.696173 0.500000
O O7 0.588889 0.743570 0.749163
O O8 0.622483 0.652810 0.724084
O O9 0.938050 0.710421 0.500000
O O10 0.000000 0.687303 0.750000
O O11 0.805121 0.081912 0.824611
O O12 0.750769 0.000000 0.750000
O O13 0.713488 0.042470 0.000000
O O14 0.826337 0.159333 0.000000
#
# Coordination Sequence:
#
# PCOD8293837 Si02
#       5
#    16  16  16  16  16
#     4   9  18  32  50  74  99 128 165 203 245 288
#     4  11  21  33  51  71  99 135 167 203 242 290
#     4  10  20  33  50  71 100 135 168 203 241 292
#     4   9  18  31  52  75  99 127 158 201 247 296
#     4   9  19  33  50  74  99 128 164 203 244 289
#
# _framework density 16.079378999999999
#
# number of rings (size 3 to 8) (size 9 to 14) (size 15 to 20)
#    1.200    1.200    0.000    4.800    0.000    4.000 
#    0.000    0.000    0.000    1.200    0.000    8.400 
#    0.000    0.000    0.000    0.000    0.000    0.000 
#
# Total GULP energy -495686.347146 kJ/mol
# GULP energy per Si atom -12392.158679 kJ/mol
# Density = 1.604278 g / cm^3
# Si number density = 16.079379 Si / 1000 Ang^3
#
#
#
# Elastic Constant Matrix: (Units=GPa)
#
#
# Indices 1 2 3 4 5 6 
#
# 1 89.1236 47.3351 40.1830 0.0000 0.0000 0.0000
# 2 47.3351 73.4594 32.6916 0.0000 0.0000 0.0000
# 3 40.1830 32.6916 101.6122 0.0000 0.0000 0.0000
# 4 0.0000 0.0000 0.0000 27.8483 0.0000 0.0000
# 5 0.0000 0.0000 0.0000 0.0000 29.2456 0.0000
# 6 0.0000 0.0000 0.0000 0.0000 0.0000 9.5074
#
#
#
# Elastic Compliance Matrix: (Units=1/GPa)
#
#
# Indices 1 2 3 4 5 6 
#
# 1 0.018374 -0.010044 -0.004035 0.000000 0.000000 0.000000
# 2 -0.010044 0.021378 -0.002906 0.000000 0.000000 0.000000
# 3 -0.004035 -0.002906 0.012372 0.000000 0.000000 0.000000
# 4 0.000000 0.000000 0.000000 0.035909 0.000000 0.000000
# 5 0.000000 0.000000 0.000000 0.000000 0.034193 0.000000
# 6 0.000000 0.000000 0.000000 0.000000 0.000000 0.105181
#
#
# Mechanical properties :
#
#
# Convention : Reuss Voigt Hill
#
# Bulk Modulus (GPa) = 55.08238 56.06827 55.57532
# Shear Modulus (GPa) = 18.69659 22.91930 20.80794
#
# Velocity S-wave (km/s) = 3.41364 3.77952 3.60123
# Velocity P-wave (km/s) = 7.06174 7.34791 7.20624
#
# Compressibility (1/GPa) = 0.01815463
#
# Stress axis : x y z
#
# Youngs Moduli (GPa) = 54.42436 46.77604 80.82904
#
# Poissons Ratio (x) = 0.46983 0.32611
# Poissons Ratio (y) = 0.54665 0.23489
# Poissons Ratio (z) = 0.21958 0.13593
#
# Static dielectric constant tensor:
#      x y z
#    x 2.933720 0.000000 0.000000 
#    y 0.000000 2.847050 0.000000 
#    z 0.000000 0.000000 3.178270 
# 
# 
# High freq. dielectric constant tensor:
#      x y z
#    x 1.602520 0.000000 0.000000 
#    y 0.000000 1.594850 0.000000 
#    z 0.000000 0.000000 1.642260 
# 
# From -- ./inp_files/5031.got.cif
#   From: 2010.03.12/outbox.cif.g09.slc.cpg/sg72_3_cif.got.tgz:5031.got - 2010.04.16 14:54:00.
