data_PCOD8293228
_publ_section_title
;
Structure prediction by ZEFSAII (Michael W. Deem and Ramdas Pophale) SiO2 
 PCOD8293228
Probable space group: I B A M
;
_chemical_formula_sum "Si O2"
_cell_formula_units_Z 80
_cell_length_a 22.868112
_cell_length_b 28.562087
_cell_length_c 8.782781
_cell_angle_alpha 90.000000
_cell_angle_beta 90.000000
_cell_angle_gamma 90.000000
_cell_volume 5736.570060
_symmetry_space_group_name_H-M "I B A M"
_symmetry_group_IT_number 72
_symmetry_cell_setting 'orthorhombic'
loop_
_space_group_symop_operation_xyz
x,y,z
-x,-y,z
x,-y,1/2-z
-x,y,1/2-z
-x,-y,-z
x,y,-z
-x,y,1/2+z
x,-y,1/2+z
1/2+x,1/2+y,1/2+z
1/2-x,1/2-y,1/2+z
1/2+x,1/2-y,-z
1/2-x,1/2+y,-z
1/2-x,1/2-y,1/2-z
1/2+x,1/2+y,1/2-z
1/2-x,1/2+y,z
1/2+x,1/2-y,z
loop_
_atom_site_type_symbol
_atom_site_label
_atom_site_fract_x
_atom_site_fract_y
_atom_site_fract_z
Si Si1 0.368579 0.631073 0.321963
Si Si2 0.063163 0.224888 0.321605
Si Si3 0.938364 0.950244 0.180632
Si Si4 0.164855 0.274930 0.829017
Si Si5 0.734569 0.678586 0.328838
O O1 0.370540 0.619396 0.500000
O O2 0.410464 0.674366 0.279673
O O3 0.389014 0.586741 0.225070
O O4 0.302218 0.642292 0.273200
O O5 0.058778 0.231955 0.500000
O O6 0.103765 0.266103 0.255894
O O7 0.000000 0.229413 0.250000
O O8 0.000000 0.933374 0.250000
O O9 0.920041 0.000000 0.250000
O O10 0.944214 0.954271 0.000000
O O11 0.200951 0.315555 0.742855
O O12 0.202601 0.228089 0.829667
O O13 0.151828 0.291849 0.000000
O O14 0.740520 0.658979 0.500000
#
# Coordination Sequence:
#
# PCOD8293228 Si02
#       5
#    16  16  16  16  16
#     4  10  19  30  43  59  77  98 127 162 198 234
#     4  10  19  28  39  55  76 101 129 161 195 231
#     4  11  21  33  46  59  76  99 127 160 199 240
#     4   9  16  26  39  54  74  98 124 155 190 227
#     4   9  16  26  40  57  75  96 123 155 191 228
#
# _framework density 13.945615
#
# number of rings (size 3 to 8) (size 9 to 14) (size 15 to 20)
#    0.000    2.200    0.000    5.400    0.000    8.800 
#    0.000    0.000    0.000    0.000    0.000    0.000 
#    0.000    0.000    0.000    0.000    0.000    1.000 
#
# Total GULP energy -496044.512186 kJ/mol
# GULP energy per Si atom -12401.112805 kJ/mol
# Density = 1.391387 g / cm^3
# Si number density = 13.945615 Si / 1000 Ang^3
#
#
#
# Elastic Constant Matrix: (Units=GPa)
#
#
# Indices 1 2 3 4 5 6 
#
# 1 91.1698 41.7515 50.6226 0.0000 0.0000 0.0000
# 2 41.7515 45.6092 32.0576 0.0000 0.0000 0.0000
# 3 50.6226 32.0576 103.7016 0.0000 0.0000 0.0000
# 4 0.0000 0.0000 0.0000 19.4669 0.0000 0.0000
# 5 0.0000 0.0000 0.0000 0.0000 27.8848 0.0000
# 6 0.0000 0.0000 0.0000 0.0000 0.0000 18.9761
#
#
#
# Elastic Compliance Matrix: (Units=1/GPa)
#
#
# Indices 1 2 3 4 5 6 
#
# 1 0.021109 -0.015435 -0.005533 0.000000 0.000000 0.000000
# 2 -0.015435 0.039297 -0.004614 0.000000 0.000000 0.000000
# 3 -0.005533 -0.004614 0.013770 0.000000 0.000000 0.000000
# 4 0.000000 0.000000 0.000000 0.051369 0.000000 0.000000
# 5 0.000000 0.000000 0.000000 0.000000 0.035862 0.000000
# 6 0.000000 0.000000 0.000000 0.000000 0.000000 0.052698
#
#
# Mechanical properties :
#
#
# Convention : Reuss Voigt Hill
#
# Bulk Modulus (GPa) = 43.45182 54.37154 48.91168
# Shear Modulus (GPa) = 18.31903 21.00215 19.66059
#
# Velocity S-wave (km/s) = 3.62830 3.88494 3.75881
# Velocity P-wave (km/s) = 6.98416 7.69393 7.34762
#
# Compressibility (1/GPa) = 0.02301400
#
# Stress axis : x y z
#
# Youngs Moduli (GPa) = 47.37261 25.44702 72.61972
#
# Poissons Ratio (x) = 0.39276 0.40182
# Poissons Ratio (y) = 0.73118 0.33504
# Poissons Ratio (z) = 0.26212 0.11740
#
# Static dielectric constant tensor:
#      x y z
#    x 2.718200 0.000000 0.000000 
#    y 0.000000 2.453590 0.000000 
#    z 0.000000 0.000000 2.957050 
# 
# 
# High freq. dielectric constant tensor:
#      x y z
#    x 1.519310 0.000000 0.000000 
#    y 0.000000 1.481160 0.000000 
#    z 0.000000 0.000000 1.557070 
# 
# From -- ./inp_files/4985.got.cif
#   From: 2010.03.12/outbox.cif.g09.slc.cpg/sg72_3_cif.got.tgz:4985.got - 2010.04.16 14:54:00.
