data_PCOD8293382
_publ_section_title
;
Structure prediction by ZEFSAII (Michael W. Deem and Ramdas Pophale) SiO2 
 PCOD8293382
Probable space group: I B A M
;
_chemical_formula_sum "Si O2"
_cell_formula_units_Z 104
_cell_length_a 12.740837
_cell_length_b 18.060586
_cell_length_c 24.352371
_cell_angle_alpha 90.000000
_cell_angle_beta 90.000000
_cell_angle_gamma 90.000000
_cell_volume 5603.650604
_symmetry_space_group_name_H-M "I B A M"
_symmetry_group_IT_number 72
_symmetry_cell_setting 'orthorhombic'
loop_
_space_group_symop_operation_xyz
x,y,z
-x,-y,z
x,-y,1/2-z
-x,y,1/2-z
-x,-y,-z
x,y,-z
-x,y,1/2+z
x,-y,1/2+z
1/2+x,1/2+y,1/2+z
1/2-x,1/2-y,1/2+z
1/2+x,1/2-y,-z
1/2-x,1/2+y,-z
1/2-x,1/2-y,1/2-z
1/2+x,1/2+y,1/2-z
1/2-x,1/2+y,z
1/2+x,1/2-y,z
loop_
_atom_site_type_symbol
_atom_site_label
_atom_site_fract_x
_atom_site_fract_y
_atom_site_fract_z
Si Si1 0.652488 0.780703 0.874153
Si Si2 0.463157 0.728214 0.190138
Si Si3 0.000000 0.500000 0.847783
Si Si4 0.715202 0.610277 0.300705
Si Si5 0.172094 0.325719 0.885401
Si Si6 0.279885 0.953058 0.815365
Si Si7 0.481207 0.880748 0.560865
O O1 0.568504 0.723959 0.846843
O O2 0.695660 0.838407 0.828370
O O3 0.744958 0.735212 0.902764
O O4 0.605410 0.818791 0.928000
O O5 0.500000 0.751542 0.250000
O O6 0.398128 0.650522 0.192121
O O7 0.393296 0.795582 0.167173
O O8 0.097351 0.477084 0.809169
O O9 0.036105 0.563764 0.889218
O O10 0.711158 0.527356 0.326656
O O11 0.743534 0.594898 0.237096
O O12 0.231990 0.400857 0.868078
O O13 0.096635 0.343690 0.936405
O O14 0.465262 0.915122 0.500000
#
# Coordination Sequence:
#
# PCOD8293382 Si02
#       7
#    16  16   8  16  16  16  16
#     4  10  19  36  52  75 105 141 173 209 265 309
#     4  10  19  32  51  73 104 142 174 205 250 305
#     4  10  19  35  52  76 106 136 162 214 276 314
#     4  10  20  32  50  76 107 137 178 208 246 305
#     4   9  20  34  52  74 105 135 173 214 258 311
#     4  10  19  33  50  76 106 140 173 211 248 305
#     4  10  20  34  54  79 101 129 172 221 272 316
#
# _framework density 18.559329999999999
#
# number of rings (size 3 to 8) (size 9 to 14) (size 15 to 20)
#    0.000    2.154    1.538    2.077    0.000    4.308 
#    0.000    5.385    0.000    0.000    0.000    0.000 
#    0.000    7.077    0.000    0.000    0.000    0.000 
#
# Total GULP energy -644239.044361 kJ/mol
# GULP energy per Si atom -12389.212392 kJ/mol
# Density = 1.851709 g / cm^3
# Si number density = 18.559330 Si / 1000 Ang^3
#
#
#
# Elastic Constant Matrix: (Units=GPa)
#
#
# Indices 1 2 3 4 5 6 
#
# 1 66.0661 28.4476 18.9527 0.0000 0.0000 0.0000
# 2 28.4476 78.7994 12.4759 0.0000 0.0000 0.0000
# 3 18.9527 12.4759 48.0743 0.0000 0.0000 0.0000
# 4 0.0000 0.0000 0.0000 -9.1271 0.0000 0.0000
# 5 0.0000 0.0000 0.0000 0.0000 9.8983 0.0000
# 6 0.0000 0.0000 0.0000 0.0000 0.0000 25.1121
#
#
#
# Elastic Compliance Matrix: (Units=1/GPa)
#
#
# Indices 1 2 3 4 5 6 
#
# 1 0.019506 -0.006074 -0.006114 0.000000 0.000000 0.000000
# 2 -0.006074 0.015126 -0.001531 0.000000 0.000000 0.000000
# 3 -0.006114 -0.001531 0.023609 0.000000 0.000000 0.000000
# 4 0.000000 0.000000 0.000000 -0.109564 0.000000 0.000000
# 5 0.000000 0.000000 0.000000 0.000000 0.101028 0.000000
# 6 0.000000 0.000000 0.000000 0.000000 0.000000 0.039821
#
#
# Mechanical properties :
#
#
# Convention : Reuss Voigt Hill
#
# Bulk Modulus (GPa) = 32.46399 34.74357 33.60378
# Shear Modulus (GPa) = 39.29917 14.04757 26.67337
#
# Velocity S-wave (km/s) = 4.60661 2.75417 3.79515
# Velocity P-wave (km/s) = 6.76938 5.37353 6.11144
#
# Compressibility (1/GPa) = 0.03080336
#
# Stress axis : x y z
#
# Youngs Moduli (GPa) = 51.26748 66.11337 42.35751
#
# Poissons Ratio (x) = 0.40156 0.25896
# Poissons Ratio (y) = 0.31139 0.06484
# Poissons Ratio (z) = 0.31343 0.10120
#
# Static dielectric constant tensor:
#      x y z
#    x 3.492280 0.000000 0.000000 
#    y 0.000000 3.637960 0.000000 
#    z 0.000000 0.000000 3.008340 
# 
# 
# High freq. dielectric constant tensor:
#      x y z
#    x 1.714480 0.000000 0.000000 
#    y 0.000000 1.728550 0.000000 
#    z 0.000000 0.000000 1.685540 
# 
# From -- ./inp_files/48181.got.cif
#   From: 2010.03.12/outbox.cif.g09.slc.cpg/sg72_25_cif.got.tgz:48181.got - 2010.04.16 14:54:00.
