data_PCOD8293918
_publ_section_title
;
Structure prediction by ZEFSAII (Michael W. Deem and Ramdas Pophale) SiO2 
 PCOD8293918
Probable space group: I B A M
;
_chemical_formula_sum "Si O2"
_cell_formula_units_Z 48
_cell_length_a 18.339757
_cell_length_b 11.259218
_cell_length_c 9.014370
_cell_angle_alpha 90.000000
_cell_angle_beta 90.000000
_cell_angle_gamma 90.000000
_cell_volume 1861.389179
_symmetry_space_group_name_H-M "I B A M"
_symmetry_group_IT_number 72
_symmetry_cell_setting 'orthorhombic'
loop_
_space_group_symop_operation_xyz
x,y,z
-x,-y,z
x,-y,1/2-z
-x,y,1/2-z
-x,-y,-z
x,y,-z
-x,y,1/2+z
x,-y,1/2+z
1/2+x,1/2+y,1/2+z
1/2-x,1/2-y,1/2+z
1/2+x,1/2-y,-z
1/2-x,1/2+y,-z
1/2-x,1/2-y,1/2-z
1/2+x,1/2+y,1/2-z
1/2-x,1/2+y,z
1/2+x,1/2-y,z
loop_
_atom_site_type_symbol
_atom_site_label
_atom_site_fract_x
_atom_site_fract_y
_atom_site_fract_z
Si Si1 0.457920 0.842910 0.000000
Si Si2 0.595699 0.397890 0.000000
Si Si3 0.625447 0.831272 0.000000
Si Si4 0.500000 0.500000 0.250000
Si Si5 0.684960 0.000000 0.750000
Si Si6 0.282138 0.409385 0.000000
Si Si7 0.000000 0.500000 0.750000
O O1 0.393905 0.744823 0.000000
O O2 0.540430 0.791734 0.000000
O O3 0.445786 0.923368 0.854053
O O4 0.550341 0.418500 0.850967
O O5 0.669827 0.469754 0.000000
O O6 0.639233 0.909738 0.854001
O O7 0.670171 0.709151 0.000000
O O8 0.734271 0.914155 0.647912
#
# Coordination Sequence:
#
# PCOD8293918 Si02
#       7
#     8   8   8   4   8   8   4
#     4  11  23  41  65  95 132 179 233 285 343 414
#     4  11  22  38  64  96 137 178 220 284 350 414
#     4  11  22  43  68  93 136 179 233 291 339 415
#     4  10  20  34  52  90 128 170 216 254 348 414
#     4  10  24  42  66 100 132 184 238 284 346 404
#     4  11  23  41  65 100 137 175 228 288 352 414
#     4  10  24  42  60  94 132 178 232 268 336 416
#
# _framework density 25.787192000000001
#
# number of rings (size 3 to 8) (size 9 to 14) (size 15 to 20)
#    0.000    1.333    0.000    6.000    0.000    2.667 
#    0.000   13.333    0.000    8.000    0.000    0.000 
#    0.000    0.000    0.000    0.000    0.000    0.000 
#
# Total GULP energy -297601.239817 kJ/mol
# GULP energy per Si atom -12400.051659 kJ/mol
# Density = 2.572850 g / cm^3
# Si number density = 25.787192 Si / 1000 Ang^3
#
#
#
# Elastic Constant Matrix: (Units=GPa)
#
#
# Indices 1 2 3 4 5 6 
#
# 1 89.1870 37.2348 31.5904 0.0000 0.0000 0.0000
# 2 37.2348 179.7814 56.3320 0.0000 0.0000 0.0000
# 3 31.5904 56.3320 195.9552 0.0000 0.0000 0.0000
# 4 0.0000 0.0000 0.0000 -18.8581 0.0000 0.0000
# 5 0.0000 0.0000 0.0000 0.0000 27.2569 0.0000
# 6 0.0000 0.0000 0.0000 0.0000 0.0000 32.4034
#
#
#
# Elastic Compliance Matrix: (Units=1/GPa)
#
#
# Indices 1 2 3 4 5 6 
#
# 1 0.012618 -0.002172 -0.001410 0.000000 0.000000 0.000000
# 2 -0.002172 0.006487 -0.001515 0.000000 0.000000 0.000000
# 3 -0.001410 -0.001515 0.005766 0.000000 0.000000 0.000000
# 4 0.000000 0.000000 0.000000 -0.053028 0.000000 0.000000
# 5 0.000000 0.000000 0.000000 0.000000 0.036688 0.000000
# 6 0.000000 0.000000 0.000000 0.000000 0.000000 0.030861
#
#
# Mechanical properties :
#
#
# Convention : Reuss Voigt Hill
#
# Bulk Modulus (GPa) = 68.12660 79.47091 73.79875
# Shear Modulus (GPa) = 91.78076 30.81154 61.29615
#
# Velocity S-wave (km/s) = 5.97234 3.46039 4.88074
# Velocity P-wave (km/s) = 8.60434 6.84475 7.77449
#
# Compressibility (1/GPa) = 0.01467855
#
# Stress axis : x y z
#
# Youngs Moduli (GPa) = 79.24902 154.16216 173.43248
#
# Poissons Ratio (x) = 0.33478 0.24453
# Poissons Ratio (y) = 0.17210 0.26269
# Poissons Ratio (z) = 0.11174 0.23350
#
# Static dielectric constant tensor:
#      x y z
#    x 4.752200 0.000000 0.000000 
#    y 0.000000 4.599370 0.000000 
#    z 0.000000 0.000000 5.700490 
# 
# 
# High freq. dielectric constant tensor:
#      x y z
#    x 2.038590 0.000000 0.000000 
#    y 0.000000 2.032300 0.000000 
#    z 0.000000 0.000000 2.066510 
# 
# From -- ./inp_files/6545.got.cif
#   From: 2010.03.12/outbox.cif.g09.slc.cpg/sg72_4_cif.got.tgz:6545.got - 2010.04.16 14:54:00.
