data_PCOD8293297
_publ_section_title
;
Structure prediction by ZEFSAII (Michael W. Deem and Ramdas Pophale) SiO2 
 PCOD8293297
Probable space group: I B A M
;
_chemical_formula_sum "Si O2"
_cell_formula_units_Z 72
_cell_length_a 22.983809
_cell_length_b 13.899292
_cell_length_c 13.476978
_cell_angle_alpha 90.000000
_cell_angle_beta 90.000000
_cell_angle_gamma 90.000000
_cell_volume 4305.337502
_symmetry_space_group_name_H-M "I B A M"
_symmetry_group_IT_number 72
_symmetry_cell_setting 'orthorhombic'
loop_
_space_group_symop_operation_xyz
x,y,z
-x,-y,z
x,-y,1/2-z
-x,y,1/2-z
-x,-y,-z
x,y,-z
-x,y,1/2+z
x,-y,1/2+z
1/2+x,1/2+y,1/2+z
1/2-x,1/2-y,1/2+z
1/2+x,1/2-y,-z
1/2-x,1/2+y,-z
1/2-x,1/2-y,1/2-z
1/2+x,1/2+y,1/2-z
1/2-x,1/2+y,z
1/2+x,1/2-y,z
loop_
_atom_site_type_symbol
_atom_site_label
_atom_site_fract_x
_atom_site_fract_y
_atom_site_fract_z
Si Si1 0.281201 0.104190 0.283151
Si Si2 0.410211 0.174831 0.891378
Si Si3 0.500000 0.121529 0.750000
Si Si4 0.209027 0.249254 0.611437
Si Si5 0.601890 0.954589 0.384108
O O1 0.237657 0.145652 0.366877
O O2 0.270378 0.170059 0.187583
O O3 0.346798 0.104651 0.328938
O O4 0.260060 0.000000 0.250000
O O5 0.460885 0.194236 0.813324
O O6 0.361116 0.256154 0.879169
O O7 0.382405 0.067707 0.874819
O O8 0.438574 0.179256 0.000000
O O9 0.459354 0.058428 0.674641
O O10 0.226061 0.281423 0.500000
O O11 0.596227 0.923319 0.500000
#
# Coordination Sequence:
#
# PCOD8293297 Si02
#       5
#    16  16   8  16  16
#     4  11  20  35  53  74 102 135 170 212 257 305
#     4  10  19  31  46  69 102 134 166 204 244 296
#     4  12  19  30  44  70 101 142 177 204 242 300
#     4  10  21  34  51  74 102 133 169 210 256 305
#     4  11  20  30  47  71 102 140 174 204 245 299
#
# _framework density 16.723427999999998
#
# number of rings (size 3 to 8) (size 9 to 14) (size 15 to 20)
#    0.000    1.333    4.444    3.333    0.000    2.667 
#    0.000    0.000    0.000    0.000    0.000    0.778 
#    0.000    3.556    0.000    0.000    0.000    0.000 
#
# Total GULP energy -446102.093852 kJ/mol
# GULP energy per Si atom -12391.724829 kJ/mol
# Density = 1.668537 g / cm^3
# Si number density = 16.723428 Si / 1000 Ang^3
#
#
#
# Elastic Constant Matrix: (Units=GPa)
#
#
# Indices 1 2 3 4 5 6 
#
# 1 102.5849 45.1993 58.5741 0.0000 0.0000 0.0000
# 2 45.1993 57.5934 37.7940 0.0000 0.0000 0.0000
# 3 58.5741 37.7940 130.3086 0.0000 0.0000 0.0000
# 4 0.0000 0.0000 0.0000 22.0440 0.0000 0.0000
# 5 0.0000 0.0000 0.0000 0.0000 32.6499 0.0000
# 6 0.0000 0.0000 0.0000 0.0000 0.0000 22.3731
#
#
#
# Elastic Compliance Matrix: (Units=1/GPa)
#
#
# Indices 1 2 3 4 5 6 
#
# 1 0.016895 -0.010221 -0.004630 0.000000 0.000000 0.000000
# 2 -0.010221 0.027628 -0.003419 0.000000 0.000000 0.000000
# 3 -0.004630 -0.003419 0.010747 0.000000 0.000000 0.000000
# 4 0.000000 0.000000 0.000000 0.045364 0.000000 0.000000
# 5 0.000000 0.000000 0.000000 0.000000 0.030628 0.000000
# 6 0.000000 0.000000 0.000000 0.000000 0.000000 0.044697
#
#
# Mechanical properties :
#
#
# Convention : Reuss Voigt Hill
#
# Bulk Modulus (GPa) = 53.38868 63.73576 58.56222
# Shear Modulus (GPa) = 22.85811 25.34136 24.09974
#
# Velocity S-wave (km/s) = 3.70108 3.89694 3.80027
# Velocity P-wave (km/s) = 7.08927 7.64477 7.37226
#
# Compressibility (1/GPa) = 0.01873056
#
# Stress axis : x y z
#
# Youngs Moduli (GPa) = 59.18912 36.19532 93.05086
#
# Poissons Ratio (x) = 0.36995 0.43082
# Poissons Ratio (y) = 0.60497 0.31811
# Poissons Ratio (z) = 0.27404 0.12374
#
# Static dielectric constant tensor:
#      x y z
#    x 3.211590 0.000000 0.000000 
#    y 0.000000 2.821600 0.000000 
#    z 0.000000 0.000000 3.661100 
# 
# 
# High freq. dielectric constant tensor:
#      x y z
#    x 1.638890 0.000000 0.000000 
#    y 0.000000 1.583280 0.000000 
#    z 0.000000 0.000000 1.681550 
# 
# From -- ./inp_files/23992.got.cif
#   From: 2010.03.12/outbox.cif.g09.slc.cpg/sg72_12_cif.got.tgz:23992.got - 2010.04.16 14:54:00.
