data_PCOD8293672
_publ_section_title
;
Structure prediction by ZEFSAII (Michael W. Deem and Ramdas Pophale) SiO2 
 PCOD8293672
Probable space group: I B A M
;
_chemical_formula_sum "Si O2"
_cell_formula_units_Z 116
_cell_length_a 21.915079
_cell_length_b 27.039704
_cell_length_c 9.390052
_cell_angle_alpha 90.000000
_cell_angle_beta 90.000000
_cell_angle_gamma 90.000000
_cell_volume 5564.331185
_symmetry_space_group_name_H-M "I B A M"
_symmetry_group_IT_number 72
_symmetry_cell_setting 'orthorhombic'
loop_
_space_group_symop_operation_xyz
x,y,z
-x,-y,z
x,-y,1/2-z
-x,y,1/2-z
-x,-y,-z
x,y,-z
-x,y,1/2+z
x,-y,1/2+z
1/2+x,1/2+y,1/2+z
1/2-x,1/2-y,1/2+z
1/2+x,1/2-y,-z
1/2-x,1/2+y,-z
1/2-x,1/2-y,1/2-z
1/2+x,1/2+y,1/2-z
1/2-x,1/2+y,z
1/2+x,1/2-y,z
loop_
_atom_site_type_symbol
_atom_site_label
_atom_site_fract_x
_atom_site_fract_y
_atom_site_fract_z
Si Si1 0.773901 0.704193 0.338485
Si Si2 0.670694 0.546317 0.663825
Si Si3 0.849661 0.154463 0.660601
Si Si4 0.810478 0.452315 0.168165
Si Si5 0.557289 0.713679 0.162762
Si Si6 0.500000 0.000000 0.750000
Si Si7 0.907909 0.324643 0.836658
Si Si8 0.085240 0.587266 0.337862
O O1 0.783513 0.722718 0.500000
O O2 0.750000 0.750000 0.250000
O O3 0.723572 0.660687 0.330519
O O4 0.838075 0.683338 0.282575
O O5 0.642742 0.500000 0.750000
O O6 0.666493 0.531340 0.500000
O O7 0.634618 0.597032 0.696307
O O8 0.740516 0.556428 0.708114
O O9 0.871719 0.167120 0.500000
O O10 0.881445 0.190429 0.772245
O O11 0.835260 0.500000 0.250000
O O12 0.854709 0.411793 0.236210
O O13 0.821762 0.456740 0.000000
O O14 0.500000 0.692325 0.250000
O O15 0.558024 0.772501 0.175845
O O16 0.551979 0.696302 0.000000
O O17 0.542906 0.037910 0.838151
O O18 0.944290 0.363188 0.732294
O O19 0.909940 0.344073 0.000000
O O20 0.103957 0.597315 0.500000
#
# Coordination Sequence:
#
# PCOD8293672 Si02
#       8
#    16  16  16  16  16   4  16  16
#     4  10  19  35  60  92 127 161 197 248 309 368
#     4   9  19  35  58  90 125 160 194 236 293 355
#     4  10  20  36  61  90 125 164 199 244 301 360
#     4  10  19  35  58  83 117 153 192 240 295 357
#     4  11  24  42  63  88 120 160 204 249 299 357
#     4  12  30  48  60  82 118 152 214 280 330 368
#     4  10  23  42  63  89 123 158 197 254 314 369
#     4  12  26  42  62  83 108 151 205 258 316 370
#
# _framework density 20.847069999999999
#
# number of rings (size 3 to 8) (size 9 to 14) (size 15 to 20)
#    0.000    1.655    2.069    2.276    0.966    6.621 
#    0.000    1.379    0.000    0.414    0.000    2.897 
#    0.000    0.000    0.000    0.000    0.000    0.000 
#
# Total GULP energy -718864.258136 kJ/mol
# GULP energy per Si atom -12394.211347 kJ/mol
# Density = 2.079962 g / cm^3
# Si number density = 20.847070 Si / 1000 Ang^3
#
#
#
# Elastic Constant Matrix: (Units=GPa)
#
#
# Indices 1 2 3 4 5 6 
#
# 1 54.7505 2.8846 26.3193 0.0000 0.0000 0.0000
# 2 2.8846 101.9369 48.3484 0.0000 0.0000 0.0000
# 3 26.3193 48.3484 125.0444 0.0000 0.0000 0.0000
# 4 0.0000 0.0000 0.0000 36.3970 0.0000 0.0000
# 5 0.0000 0.0000 0.0000 0.0000 17.0790 0.0000
# 6 0.0000 0.0000 0.0000 0.0000 0.0000 15.9997
#
#
#
# Elastic Compliance Matrix: (Units=1/GPa)
#
#
# Indices 1 2 3 4 5 6 
#
# 1 0.020588 0.001803 -0.005031 0.000000 0.000000 0.000000
# 2 0.001803 0.012171 -0.005085 0.000000 0.000000 0.000000
# 3 -0.005031 -0.005085 0.011022 0.000000 0.000000 0.000000
# 4 0.000000 0.000000 0.000000 0.027475 0.000000 0.000000
# 5 0.000000 0.000000 0.000000 0.000000 0.058552 0.000000
# 6 0.000000 0.000000 0.000000 0.000000 0.000000 0.062501
#
#
# Mechanical properties :
#
#
# Convention : Reuss Voigt Hill
#
# Bulk Modulus (GPa) = 36.82451 48.53737 42.68094
# Shear Modulus (GPa) = 22.93726 27.50712 25.22219
#
# Velocity S-wave (km/s) = 3.32062 3.63639 3.48209
# Velocity P-wave (km/s) = 5.69249 6.40033 6.05676
#
# Compressibility (1/GPa) = 0.02715583
#
# Stress axis : x y z
#
# Youngs Moduli (GPa) = 48.57212 82.16263 90.72518
#
# Poissons Ratio (x) = -0.14817 0.45640
# Poissons Ratio (y) = -0.08760 0.46138
# Poissons Ratio (z) = 0.24435 0.41784
#
# Static dielectric constant tensor:
#      x y z
#    x 3.522300 0.000000 0.000000 
#    y 0.000000 4.307180 0.000000 
#    z 0.000000 0.000000 3.721170 
# 
# 
# High freq. dielectric constant tensor:
#      x y z
#    x 1.795770 0.000000 0.000000 
#    y 0.000000 1.821870 0.000000 
#    z 0.000000 0.000000 1.810560 
# 
# From -- ./inp_files/7293.got.cif
#   From: 2010.03.12/outbox.cif.g09.slc.cpg/sg72_4_cif.got.tgz:7293.got - 2010.04.16 14:54:00.
