data_PCOD8293945
_publ_section_title
;
Structure prediction by ZEFSAII (Michael W. Deem and Ramdas Pophale) SiO2 
 PCOD8293945
Probable space group: I B A M
;
_chemical_formula_sum "Si O2"
_cell_formula_units_Z 112
_cell_length_a 31.773862
_cell_length_b 11.408575
_cell_length_c 14.214967
_cell_angle_alpha 90.000000
_cell_angle_beta 90.000000
_cell_angle_gamma 90.000000
_cell_volume 5152.847180
_symmetry_space_group_name_H-M "I B A M"
_symmetry_group_IT_number 72
_symmetry_cell_setting 'orthorhombic'
loop_
_space_group_symop_operation_xyz
x,y,z
-x,-y,z
x,-y,1/2-z
-x,y,1/2-z
-x,-y,-z
x,y,-z
-x,y,1/2+z
x,-y,1/2+z
1/2+x,1/2+y,1/2+z
1/2-x,1/2-y,1/2+z
1/2+x,1/2-y,-z
1/2-x,1/2+y,-z
1/2-x,1/2-y,1/2-z
1/2+x,1/2+y,1/2-z
1/2-x,1/2+y,z
1/2+x,1/2-y,z
loop_
_atom_site_type_symbol
_atom_site_label
_atom_site_fract_x
_atom_site_fract_y
_atom_site_fract_z
Si Si1 0.731367 0.807619 0.894138
Si Si2 0.583439 0.038202 0.894155
Si Si3 0.050945 0.707669 0.892684
Si Si4 0.822555 0.534942 0.896696
Si Si5 0.477306 0.381892 0.391478
Si Si6 0.810670 0.760955 0.786982
Si Si7 0.406166 0.726117 0.784001
O O1 0.779402 0.825590 0.859221
O O2 0.706187 0.724607 0.820240
O O3 0.711213 0.934048 0.894002
O O4 0.730124 0.753291 0.000000
O O5 0.550450 0.932905 0.872230
O O6 0.630365 0.983507 0.882504
O O7 0.579539 0.147605 0.824838
O O8 0.575650 0.085305 0.000000
O O9 0.085213 0.771335 0.827285
O O10 0.005491 0.765547 0.872337
O O11 0.064831 0.731450 0.000000
O O12 0.811228 0.623569 0.813435
O O13 0.820644 0.597157 0.000000
O O14 0.500000 0.500000 0.356408
O O15 0.465354 0.393573 0.500000
O O16 0.434254 0.372608 0.333497
O O17 0.857752 0.810059 0.800031
#
# Coordination Sequence:
#
# PCOD8293945 Si02
#       7
#    16  16  16  16  16  16  16
#     4  10  20  34  55  81 116 156 191 233 291 352
#     4   9  18  33  56  90 123 150 187 240 298 352
#     4  10  21  36  57  86 120 153 192 240 298 360
#     4   9  17  32  56  81 111 150 185 230 290 349
#     4  10  23  43  65  85 111 154 202 250 301 356
#     4  10  21  35  56  86 114 149 195 242 285 349
#     4  11  21  36  62  90 117 153 197 248 298 354
#
# _framework density 21.735555999999999
#
# number of rings (size 3 to 8) (size 9 to 14) (size 15 to 20)
#    0.000    2.143    0.000    3.000    0.000    7.429 
#    0.000    3.571   15.714    0.000    0.000    0.000 
#    0.000    0.000    0.000    0.000    0.000    0.000 
#
# Total GULP energy -694186.561442 kJ/mol
# GULP energy per Si atom -12396.188597 kJ/mol
# Density = 2.168609 g / cm^3
# Si number density = 21.735556 Si / 1000 Ang^3
#
#
#
# Elastic Constant Matrix: (Units=GPa)
#
#
# Indices 1 2 3 4 5 6 
#
# 1 141.7333 49.4318 58.2812 0.0000 0.0000 0.0000
# 2 49.4318 55.2468 23.0726 0.0000 0.0000 0.0000
# 3 58.2812 23.0726 135.3807 0.0000 0.0000 0.0000
# 4 0.0000 0.0000 0.0000 22.9482 0.0000 0.0000
# 5 0.0000 0.0000 0.0000 0.0000 23.9951 0.0000
# 6 0.0000 0.0000 0.0000 0.0000 0.0000 37.8294
#
#
#
# Elastic Compliance Matrix: (Units=1/GPa)
#
#
# Indices 1 2 3 4 5 6 
#
# 1 0.011596 -0.008926 -0.003471 0.000000 0.000000 0.000000
# 2 -0.008926 0.026358 -0.000650 0.000000 0.000000 0.000000
# 3 -0.003471 -0.000650 0.008991 0.000000 0.000000 0.000000
# 4 0.000000 0.000000 0.000000 0.043576 0.000000 0.000000
# 5 0.000000 0.000000 0.000000 0.000000 0.041675 0.000000
# 6 0.000000 0.000000 0.000000 0.000000 0.000000 0.026434
#
#
# Mechanical properties :
#
#
# Convention : Reuss Voigt Hill
#
# Bulk Modulus (GPa) = 47.95460 65.99246 56.97353
# Shear Modulus (GPa) = 26.08590 30.39288 28.23939
#
# Velocity S-wave (km/s) = 3.46807 3.74345 3.60839
# Velocity P-wave (km/s) = 6.17635 7.00799 6.60527
#
# Compressibility (1/GPa) = 0.02085306
#
# Stress axis : x y z
#
# Youngs Moduli (GPa) = 86.23917 37.93900 111.21689
#
# Poissons Ratio (x) = 0.33863 0.38600
# Poissons Ratio (y) = 0.76974 0.07225
# Poissons Ratio (z) = 0.29931 0.02465
#
# Static dielectric constant tensor:
#      x y z
#    x 3.989020 0.000000 0.000000 
#    y 0.000000 3.534820 0.000000 
#    z 0.000000 0.000000 4.390250 
# 
# 
# High freq. dielectric constant tensor:
#      x y z
#    x 1.850880 0.000000 0.000000 
#    y 0.000000 1.811680 0.000000 
#    z 0.000000 0.000000 1.876980 
# 
# From -- ./inp_files/26390.got.cif
#   From: 2010.03.12/outbox.cif.g09.slc.cpg/sg72_14_cif.got.tgz:26390.got - 2010.04.16 14:54:00.
