data_PCOD8293126
_publ_section_title
;
Structure prediction by ZEFSAII (Michael W. Deem and Ramdas Pophale) SiO2 
 PCOD8293126
Probable space group: I B A M
;
_chemical_formula_sum "Si O2"
_cell_formula_units_Z 116
_cell_length_a 27.349014
_cell_length_b 26.361963
_cell_length_c 8.825272
_cell_angle_alpha 90.000000
_cell_angle_beta 90.000000
_cell_angle_gamma 90.000000
_cell_volume 6362.788965
_symmetry_space_group_name_H-M "I B A M"
_symmetry_group_IT_number 72
_symmetry_cell_setting 'orthorhombic'
loop_
_space_group_symop_operation_xyz
x,y,z
-x,-y,z
x,-y,1/2-z
-x,y,1/2-z
-x,-y,-z
x,y,-z
-x,y,1/2+z
x,-y,1/2+z
1/2+x,1/2+y,1/2+z
1/2-x,1/2-y,1/2+z
1/2+x,1/2-y,-z
1/2-x,1/2+y,-z
1/2-x,1/2-y,1/2-z
1/2+x,1/2+y,1/2-z
1/2-x,1/2+y,z
1/2+x,1/2-y,z
loop_
_atom_site_type_symbol
_atom_site_label
_atom_site_fract_x
_atom_site_fract_y
_atom_site_fract_z
Si Si1 0.714110 0.689094 0.326302
Si Si2 0.316755 0.576179 0.828656
Si Si3 0.865373 0.744036 0.679344
Si Si4 0.500000 0.500000 0.750000
Si Si5 0.718287 0.049811 0.823239
Si Si6 0.422288 0.580063 0.831129
Si Si7 0.050312 0.810489 0.680481
Si Si8 0.686071 0.841344 0.319904
O O1 0.720894 0.707577 0.500000
O O2 0.684458 0.636849 0.323378
O O3 0.684679 0.729330 0.227758
O O4 0.765577 0.684867 0.243908
O O5 0.275145 0.552571 0.723910
O O6 0.370585 0.560481 0.760607
O O7 0.308050 0.556284 0.000000
O O8 0.873389 0.745292 0.500000
O O9 0.909414 0.771372 0.763587
O O10 0.860466 0.685801 0.739944
O O11 0.464048 0.536857 0.842583
O O12 0.687773 0.099332 0.771786
O O13 0.693700 0.000000 0.750000
O O14 0.716266 0.043483 0.000000
O O15 0.440624 0.632224 0.753228
O O16 0.407505 0.595814 0.000000
O O17 0.047570 0.809844 0.500000
O O18 0.000000 0.790649 0.750000
O O19 0.683395 0.835006 0.500000
#
# Coordination Sequence:
#
# PCOD8293126 Si02
#       8
#    16  16  16   4  16  16  16  16
#     4  10  18  32  53  76 105 141 175 220 271 327
#     4   9  18  34  52  71  98 136 178 222 273 324
#     4  12  23  35  54  81 107 141 179 220 274 331
#     4  12  22  36  52  78  96 132 182 240 292 332
#     4  10  21  36  54  78 106 141 179 216 263 315
#     4  10  21  37  53  71  98 132 174 228 287 333
#     4  11  22  41  60  79 105 139 180 227 282 337
#     4  10  21  36  53  78 110 143 179 221 264 324
#
# _framework density 18.231000000000002
#
# number of rings (size 3 to 8) (size 9 to 14) (size 15 to 20)
#    0.000    1.655    2.069    3.517    0.966    2.207 
#    0.000    0.690    0.000    0.000    0.000    0.000 
#    0.000    0.552    0.000    5.793    0.000    3.172 
#
# Total GULP energy -718896.801382 kJ/mol
# GULP energy per Si atom -12394.772438 kJ/mol
# Density = 1.818950 g / cm^3
# Si number density = 18.231000 Si / 1000 Ang^3
#
#
#
# Elastic Constant Matrix: (Units=GPa)
#
#
# Indices 1 2 3 4 5 6 
#
# 1 65.3651 57.3679 25.1544 0.0000 0.0000 0.0000
# 2 57.3679 121.5297 35.6600 0.0000 0.0000 0.0000
# 3 25.1544 35.6600 77.8711 0.0000 0.0000 0.0000
# 4 0.0000 0.0000 0.0000 26.2469 0.0000 0.0000
# 5 0.0000 0.0000 0.0000 0.0000 25.6307 0.0000
# 6 0.0000 0.0000 0.0000 0.0000 0.0000 17.2517
#
#
#
# Elastic Compliance Matrix: (Units=1/GPa)
#
#
# Indices 1 2 3 4 5 6 
#
# 1 0.026840 -0.011698 -0.003313 0.000000 0.000000 0.000000
# 2 -0.011698 0.014604 -0.002909 0.000000 0.000000 0.000000
# 3 -0.003313 -0.002909 0.015244 0.000000 0.000000 0.000000
# 4 0.000000 0.000000 0.000000 0.038100 0.000000 0.000000
# 5 0.000000 0.000000 0.000000 0.000000 0.039016 0.000000
# 6 0.000000 0.000000 0.000000 0.000000 0.000000 0.057965
#
#
# Mechanical properties :
#
#
# Convention : Reuss Voigt Hill
#
# Bulk Modulus (GPa) = 47.96549 55.68116 51.82332
# Shear Modulus (GPa) = 21.31666 23.59811 22.45739
#
# Velocity S-wave (km/s) = 3.42314 3.60167 3.51354
# Velocity P-wave (km/s) = 6.48004 6.92130 6.70430
#
# Compressibility (1/GPa) = 0.02084832
#
# Stress axis : x y z
#
# Youngs Moduli (GPa) = 37.25747 68.47493 65.59897
#
# Poissons Ratio (x) = 0.80100 0.21735
# Poissons Ratio (y) = 0.43583 0.19083
# Poissons Ratio (z) = 0.12345 0.19919
#
# Static dielectric constant tensor:
#      x y z
#    x 3.267990 0.000000 0.000000 
#    y 0.000000 3.796940 0.000000 
#    z 0.000000 0.000000 3.305660 
# 
# 
# High freq. dielectric constant tensor:
#      x y z
#    x 1.674900 0.000000 0.000000 
#    y 0.000000 1.708680 0.000000 
#    z 0.000000 0.000000 1.706270 
# 
# From -- ./inp_files/8715.got.cif
#   From: 2010.03.12/outbox.cif.g09.slc.cpg/sg72_5_cif.got.tgz:8715.got - 2010.04.16 14:54:00.
