data_PCOD8293288
_publ_section_title
;
Structure prediction by ZEFSAII (Michael W. Deem and Ramdas Pophale) SiO2 
 PCOD8293288
Probable space group: I B A M
;
_chemical_formula_sum "Si O2"
_cell_formula_units_Z 96
_cell_length_a 28.701983
_cell_length_b 26.333667
_cell_length_c 9.357987
_cell_angle_alpha 90.000000
_cell_angle_beta 90.000000
_cell_angle_gamma 90.000000
_cell_volume 7073.032927
_symmetry_space_group_name_H-M "I B A M"
_symmetry_group_IT_number 72
_symmetry_cell_setting 'orthorhombic'
loop_
_space_group_symop_operation_xyz
x,y,z
-x,-y,z
x,-y,1/2-z
-x,y,1/2-z
-x,-y,-z
x,y,-z
-x,y,1/2+z
x,-y,1/2+z
1/2+x,1/2+y,1/2+z
1/2-x,1/2-y,1/2+z
1/2+x,1/2-y,-z
1/2-x,1/2+y,-z
1/2-x,1/2-y,1/2-z
1/2+x,1/2+y,1/2-z
1/2-x,1/2+y,z
1/2+x,1/2-y,z
loop_
_atom_site_type_symbol
_atom_site_label
_atom_site_fract_x
_atom_site_fract_y
_atom_site_fract_z
Si Si1 0.855674 0.251066 0.167884
Si Si2 0.220659 0.208130 0.166836
Si Si3 0.955395 0.599499 0.665929
Si Si4 0.455923 0.784049 0.334939
Si Si5 0.141892 0.550810 0.831435
Si Si6 0.693761 0.852218 0.164519
O O1 0.830198 0.205748 0.257316
O O2 0.910699 0.249910 0.200162
O O3 0.834809 0.304295 0.227178
O O4 0.845105 0.243783 0.000000
O O5 0.250000 0.250000 0.250000
O O6 0.250276 0.155689 0.183970
O O7 0.215537 0.222197 0.000000
O O8 0.966814 0.594923 0.500000
O O9 0.945454 0.657864 0.709372
O O10 0.910728 0.566420 0.708026
O O11 0.000000 0.577894 0.750000
O O12 0.500000 0.761753 0.250000
O O13 0.468689 0.780688 0.500000
O O14 0.155768 0.500000 0.750000
O O15 0.176777 0.594414 0.769844
O O16 0.147894 0.542052 0.000000
O O17 0.678921 0.854386 0.000000
#
# Coordination Sequence:
#
# PCOD8293288 Si02
#       6
#    16  16  16  16  16  16
#     4   9  15  26  42  57  75  98 121 149 187 226
#     4   9  16  25  40  59  75  94 118 146 183 226
#     4   9  17  29  43  53  67  92 123 158 196 234
#     4   9  16  26  40  56  74 100 127 153 188 226
#     4  10  19  31  43  54  69  94 124 156 195 235
#     4   8  14  27  42  52  70  97 119 144 187 235
#
# _framework density 13.572678
#
# number of rings (size 3 to 8) (size 9 to 14) (size 15 to 20)
#    0.000    3.000    1.667    1.500    0.000    1.667 
#    0.000    5.833    0.000    0.000    0.000    0.000 
#    0.000    0.000    0.000    0.000    0.000    0.833 
#
# Total GULP energy -594794.137868 kJ/mol
# GULP energy per Si atom -12391.544539 kJ/mol
# Density = 1.354179 g / cm^3
# Si number density = 13.572678 Si / 1000 Ang^3
#
#
#
# Elastic Constant Matrix: (Units=GPa)
#
#
# Indices 1 2 3 4 5 6 
#
# 1 95.1768 44.8223 44.2740 0.0000 0.0000 0.0000
# 2 44.8223 47.0202 25.7901 0.0000 0.0000 0.0000
# 3 44.2740 25.7901 48.9695 0.0000 0.0000 0.0000
# 4 0.0000 0.0000 0.0000 15.8521 0.0000 0.0000
# 5 0.0000 0.0000 0.0000 0.0000 24.8637 0.0000
# 6 0.0000 0.0000 0.0000 0.0000 0.0000 18.3933
#
#
#
# Elastic Compliance Matrix: (Units=1/GPa)
#
#
# Indices 1 2 3 4 5 6 
#
# 1 0.024203 -0.015566 -0.013684 0.000000 0.000000 0.000000
# 2 -0.015566 0.039917 -0.006949 0.000000 0.000000 0.000000
# 3 -0.013684 -0.006949 0.036453 0.000000 0.000000 0.000000
# 4 0.000000 0.000000 0.000000 0.063083 0.000000 0.000000
# 5 0.000000 0.000000 0.000000 0.000000 0.040219 0.000000
# 6 0.000000 0.000000 0.000000 0.000000 0.000000 0.054367
#
#
# Mechanical properties :
#
#
# Convention : Reuss Voigt Hill
#
# Bulk Modulus (GPa) = 35.49364 46.77104 41.13234
# Shear Modulus (GPa) = 14.70440 16.90716 15.80578
#
# Velocity S-wave (km/s) = 3.29505 3.53324 3.41622
# Velocity P-wave (km/s) = 6.37840 7.15399 6.77730
#
# Compressibility (1/GPa) = 0.02817406
#
# Stress axis : x y z
#
# Youngs Moduli (GPa) = 41.31729 25.05172 27.43250
#
# Poissons Ratio (x) = 0.38995 0.37540
# Poissons Ratio (y) = 0.64314 0.19064
# Poissons Ratio (z) = 0.56540 0.17410
#
# Static dielectric constant tensor:
#      x y z
#    x 2.977600 0.000000 0.000000 
#    y 0.000000 2.507370 0.000000 
#    z 0.000000 0.000000 2.676080 
# 
# 
# High freq. dielectric constant tensor:
#      x y z
#    x 1.515270 0.000000 0.000000 
#    y 0.000000 1.465200 0.000000 
#    z 0.000000 0.000000 1.511020 
# 
# From -- ./inp_files/14025.got.cif
#   From: 2010.03.12/outbox.cif.g09.slc.cpg/sg72_8_cif.got.tgz:14025.got - 2010.04.16 14:54:00.
