data_PCOD8293588
_publ_section_title
;
Structure prediction by ZEFSAII (Michael W. Deem and Ramdas Pophale) SiO2 
 PCOD8293588
Probable space group: I B A M
;
_chemical_formula_sum "Si O2"
_cell_formula_units_Z 96
_cell_length_a 8.903607
_cell_length_b 31.057603
_cell_length_c 15.955987
_cell_angle_alpha 90.000000
_cell_angle_beta 90.000000
_cell_angle_gamma 90.000000
_cell_volume 4412.224382
_symmetry_space_group_name_H-M "I B A M"
_symmetry_group_IT_number 72
_symmetry_cell_setting 'orthorhombic'
loop_
_space_group_symop_operation_xyz
x,y,z
-x,-y,z
x,-y,1/2-z
-x,y,1/2-z
-x,-y,-z
x,y,-z
-x,y,1/2+z
x,-y,1/2+z
1/2+x,1/2+y,1/2+z
1/2-x,1/2-y,1/2+z
1/2+x,1/2-y,-z
1/2-x,1/2+y,-z
1/2-x,1/2-y,1/2-z
1/2+x,1/2+y,1/2-z
1/2-x,1/2+y,z
1/2+x,1/2-y,z
loop_
_atom_site_type_symbol
_atom_site_label
_atom_site_fract_x
_atom_site_fract_y
_atom_site_fract_z
Si Si1 0.422016 0.542859 0.900148
Si Si2 0.942999 0.214253 0.658766
Si Si3 0.073211 0.628702 0.599749
Si Si4 0.881134 0.290723 0.904558
Si Si5 0.912394 0.871838 0.400374
Si Si6 0.417081 0.042531 0.900001
O O1 0.500000 0.500000 0.864441
O O2 0.515268 0.583819 0.867296
O O3 0.252468 0.544223 0.865791
O O4 0.421777 0.542281 0.000000
O O5 0.015543 0.248286 0.594689
O O6 0.989902 0.166132 0.637314
O O7 0.000000 0.227705 0.750000
O O8 0.763295 0.216807 0.653447
O O9 0.075409 0.628608 0.500000
O O10 0.242815 0.632260 0.633845
O O11 0.975825 0.669078 0.632152
O O12 0.002457 0.584565 0.634556
O O13 0.829528 0.300034 0.000000
O O14 0.917535 0.869621 0.500000
O O15 0.500000 0.000000 0.865109
O O16 0.418873 0.042110 0.000000
#
# Coordination Sequence:
#
# PCOD8293588 Si02
#       6
#    16  16  16  16  16  16
#     4   9  16  26  45  76 111 146 186 235 287 338
#     4  12  25  40  58  84 116 147 185 235 291 346
#     4   9  18  31  51  79 107 140 183 229 274 329
#     4  11  22  39  61  83 110 148 193 235 282 342
#     4  10  19  34  55  79 110 148 191 235 285 347
#     4   9  15  24  40  68 108 145 176 219 279 337
#
# _framework density 21.757733000000002
#
# number of rings (size 3 to 8) (size 9 to 14) (size 15 to 20)
#    0.000    2.000    0.000    5.000    0.000    8.000 
#    0.000    0.000    0.000    0.500    0.000    0.000 
#    0.000    4.667    0.000    0.000    0.000    0.000 
#
# Total GULP energy -595369.380602 kJ/mol
# GULP energy per Si atom -12403.528763 kJ/mol
# Density = 2.170821 g / cm^3
# Si number density = 21.757733 Si / 1000 Ang^3
#
#
#
# Elastic Constant Matrix: (Units=GPa)
#
#
# Indices 1 2 3 4 5 6 
#
# 1 186.8012 75.7109 13.2103 0.0000 0.0000 0.0000
# 2 75.7109 175.9551 6.6181 0.0001 0.0000 0.0000
# 3 13.2103 6.6181 24.5565 0.0004 0.0001 0.0000
# 4 0.0000 0.0001 0.0004 1.9582 0.0000 0.0000
# 5 0.0000 0.0000 0.0001 0.0000 15.5235 0.0001
# 6 0.0000 0.0000 0.0000 0.0000 0.0001 50.9749
#
#
#
# Elastic Compliance Matrix: (Units=1/GPa)
#
#
# Indices 1 2 3 4 5 6 
#
# 1 0.006675 -0.002765 -0.002846 0.000000 0.000000 0.000000
# 2 -0.002765 0.006887 -0.000368 0.000000 0.000000 0.000000
# 3 -0.002846 -0.000368 0.042353 -0.000008 0.000000 0.000000
# 4 0.000000 0.000000 -0.000008 0.510676 -0.000001 0.000000
# 5 0.000000 0.000000 0.000000 -0.000001 0.064418 0.000000
# 6 0.000000 0.000000 0.000000 0.000000 0.000000 0.019617
#
#
# Mechanical properties :
#
#
# Convention : Reuss Voigt Hill
#
# Bulk Modulus (GPa) = 22.75009 64.26574 43.50791
# Shear Modulus (GPa) = 7.38294 33.14289 20.26291
#
# Velocity S-wave (km/s) = 1.84408 3.90714 3.05503
# Velocity P-wave (km/s) = 3.87465 7.06792 5.69949
#
# Compressibility (1/GPa) = 0.04395588
#
# Stress axis : x y z
#
# Youngs Moduli (GPa) = 149.80609 145.20170 23.61128
#
# Poissons Ratio (x) = 0.40152 0.06719
# Poissons Ratio (y) = 0.41425 0.00870
# Poissons Ratio (z) = 0.42631 0.05351
#
# Static dielectric constant tensor:
#      x y z
#    x 4.102900 0.000000 0.000000 
#    y 0.000000 4.101900 0.000000 
#    z 0.000000 0.000000 3.277690 
# 
# 
# High freq. dielectric constant tensor:
#      x y z
#    x 1.870760 0.000000 0.000000 
#    y 0.000000 1.872640 0.000000 
#    z 0.000000 0.000000 1.797980 
# 
# From -- ./inp_files/35991.got.cif
#   From: 2010.03.12/outbox.cif.g09.slc.cpg/sg72_18_cif.got.tgz:35991.got - 2010.04.16 14:54:00.
