data_PCOD8293045
_publ_section_title
;
Structure prediction by ZEFSAII (Michael W. Deem and Ramdas Pophale) SiO2 
 PCOD8293045
Probable space group: I B A M
;
_chemical_formula_sum "Si O2"
_cell_formula_units_Z 96
_cell_length_a 24.163119
_cell_length_b 13.140057
_cell_length_c 17.904628
_cell_angle_alpha 90.000000
_cell_angle_beta 90.000000
_cell_angle_gamma 90.000000
_cell_volume 5684.804633
_symmetry_space_group_name_H-M "I B A M"
_symmetry_group_IT_number 72
_symmetry_cell_setting 'orthorhombic'
loop_
_space_group_symop_operation_xyz
x,y,z
-x,-y,z
x,-y,1/2-z
-x,y,1/2-z
-x,-y,-z
x,y,-z
-x,y,1/2+z
x,-y,1/2+z
1/2+x,1/2+y,1/2+z
1/2-x,1/2-y,1/2+z
1/2+x,1/2-y,-z
1/2-x,1/2+y,-z
1/2-x,1/2-y,1/2-z
1/2+x,1/2+y,1/2-z
1/2-x,1/2+y,z
1/2+x,1/2-y,z
loop_
_atom_site_type_symbol
_atom_site_label
_atom_site_fract_x
_atom_site_fract_y
_atom_site_fract_z
Si Si1 0.223677 0.947387 0.829020
Si Si2 0.063418 0.602139 0.659839
Si Si3 0.325623 0.197299 0.660495
Si Si4 0.744691 0.358366 0.914265
Si Si5 0.661028 0.750948 0.171206
Si Si6 0.557665 0.875586 0.836213
O O1 0.284198 0.896699 0.826833
O O2 0.176985 0.863989 0.852388
O O3 0.210164 0.000000 0.750000
O O4 0.222196 0.030168 0.894515
O O5 0.115617 0.662068 0.626666
O O6 0.069308 0.486917 0.628523
O O7 0.064797 0.606007 0.748801
O O8 0.004575 0.654356 0.637454
O O9 0.303282 0.276574 0.600188
O O10 0.334309 0.251326 0.739689
O O11 0.796572 0.333063 0.861832
O O12 0.762930 0.354334 0.000000
O O13 0.600546 0.786021 0.140649
#
# Coordination Sequence:
#
# PCOD8293045 Si02
#       6
#    16  16  16  16  16  16
#     4  11  18  30  48  72  95 131 168 197 240 289
#     4   8  14  24  45  73 102 121 155 197 247 281
#     4  10  18  30  52  72  96 131 162 197 240 295
#     4  11  22  33  46  72 102 128 161 203 247 290
#     4  10  18  31  52  71  98 131 164 198 240 292
#     4   8  14  25  43  75 100 124 153 201 241 284
#
# _framework density 16.887124
#
# number of rings (size 3 to 8) (size 9 to 14) (size 15 to 20)
#    0.000    2.333    3.333    3.000    2.333    2.667 
#    0.000    0.000    0.000    2.000    0.000    4.667 
#    0.000    0.000    0.000    0.000    0.000    0.000 
#
# Total GULP energy -594822.404897 kJ/mol
# GULP energy per Si atom -12392.133435 kJ/mol
# Density = 1.684869 g / cm^3
# Si number density = 16.887124 Si / 1000 Ang^3
#
#
#
# Elastic Constant Matrix: (Units=GPa)
#
#
# Indices 1 2 3 4 5 6 
#
# 1 137.5651 57.8935 3.1317 0.0000 0.0000 0.0000
# 2 57.8935 100.4812 12.5216 0.0000 0.0000 0.0000
# 3 3.1317 12.5216 34.0176 0.0000 0.0000 0.0000
# 4 0.0000 0.0000 0.0000 13.0130 0.0000 0.0000
# 5 0.0000 0.0000 0.0000 0.0000 2.7418 0.0000
# 6 0.0000 0.0000 0.0000 0.0000 0.0000 26.3705
#
#
#
# Elastic Compliance Matrix: (Units=1/GPa)
#
#
# Indices 1 2 3 4 5 6 
#
# 1 0.009644 -0.005707 0.001213 0.000000 0.000000 0.000000
# 2 -0.005707 0.013808 -0.004557 0.000000 0.000000 0.000000
# 3 0.001213 -0.004557 0.030962 0.000000 0.000000 0.000000
# 4 0.000000 0.000000 0.000000 0.076846 0.000000 0.000000
# 5 0.000000 0.000000 0.000000 0.000000 0.364719 0.000000
# 6 0.000000 0.000000 0.000000 0.000000 0.000000 0.037921
#
#
# Mechanical properties :
#
#
# Convention : Reuss Voigt Hill
#
# Bulk Modulus (GPa) = 27.53988 46.57307 37.05648
# Shear Modulus (GPa) = 8.86354 21.65953 15.26153
#
# Velocity S-wave (km/s) = 2.29349 3.58523 3.00948
# Velocity P-wave (km/s) = 4.83292 6.69160 5.83672
#
# Compressibility (1/GPa) = 0.03631097
#
# Stress axis : x y z
#
# Youngs Moduli (GPa) = 103.69541 72.41939 32.29726
#
# Poissons Ratio (x) = 0.41333 -0.03918
# Poissons Ratio (y) = 0.59184 0.14719
# Poissons Ratio (z) = -0.12579 0.33004
#
# Static dielectric constant tensor:
#      x y z
#    x 3.436250 0.000000 0.000000 
#    y 0.000000 3.220630 0.000000 
#    z 0.000000 0.000000 2.686850 
# 
# 
# High freq. dielectric constant tensor:
#      x y z
#    x 1.647220 0.000000 0.000000 
#    y 0.000000 1.644680 0.000000 
#    z 0.000000 0.000000 1.606990 
# 
# From -- ./inp_files/33894.got.cif
#   From: 2010.03.12/outbox.cif.g09.slc.cpg/sg72_17_cif.got.tgz:33894.got - 2010.04.16 14:54:00.
