data_PCOD8293959
_publ_section_title
;
Structure prediction by ZEFSAII (Michael W. Deem and Ramdas Pophale) SiO2 
 PCOD8293959
Probable space group: I B A M
;
_chemical_formula_sum "Si O2"
_cell_formula_units_Z 64
_cell_length_a 21.083312
_cell_length_b 8.932939
_cell_length_c 16.410155
_cell_angle_alpha 90.000000
_cell_angle_beta 90.000000
_cell_angle_gamma 90.000000
_cell_volume 3090.621968
_symmetry_space_group_name_H-M "I B A M"
_symmetry_group_IT_number 72
_symmetry_cell_setting 'orthorhombic'
loop_
_space_group_symop_operation_xyz
x,y,z
-x,-y,z
x,-y,1/2-z
-x,y,1/2-z
-x,-y,-z
x,y,-z
-x,y,1/2+z
x,-y,1/2+z
1/2+x,1/2+y,1/2+z
1/2-x,1/2-y,1/2+z
1/2+x,1/2-y,-z
1/2-x,1/2+y,-z
1/2-x,1/2-y,1/2-z
1/2+x,1/2+y,1/2-z
1/2-x,1/2+y,z
1/2+x,1/2-y,z
loop_
_atom_site_type_symbol
_atom_site_label
_atom_site_fract_x
_atom_site_fract_y
_atom_site_fract_z
Si Si1 0.301476 0.438305 0.658948
Si Si2 0.807231 0.374421 0.407911
Si Si3 0.062456 0.574617 0.662510
Si Si4 0.940162 0.927165 0.161986
O O1 0.292624 0.500000 0.750000
O O2 0.249111 0.506852 0.599937
O O3 0.293903 0.258339 0.656659
O O4 0.372165 0.470091 0.622373
O O5 0.808528 0.312471 0.500000
O O6 0.874376 0.455930 0.390028
O O7 0.073147 0.500000 0.750000
O O8 0.050204 0.750650 0.670039
O O9 0.000000 0.500000 0.620891
O O10 0.939598 0.000000 0.250000
O O11 0.000000 0.000000 0.112647
#
# Coordination Sequence:
#
# PCOD8293959 Si02
#       4
#    16  16  16  16
#     4  10  21  37  59  83 109 147 191 231 271 330
#     4  11  23  38  56  82 117 148 182 232 285 331
#     4  10  20  34  56  83 111 145 189 230 269 330
#     4   9  17  31  53  82 109 134 176 232 277 315
#
# _framework density 20.707806000000001
#
# number of rings (size 3 to 8) (size 9 to 14) (size 15 to 20)
#    0.000    2.000    0.000    5.250    0.000    6.500 
#    0.000    0.000    0.000   18.750    0.000    0.000 
#    0.000    1.000    0.000    0.000    0.000    0.000 
#
# Total GULP energy -396540.125144 kJ/mol
# GULP energy per Si atom -12391.878911 kJ/mol
# Density = 2.066067 g / cm^3
# Si number density = 20.707806 Si / 1000 Ang^3
#
#
#
# Elastic Constant Matrix: (Units=GPa)
#
#
# Indices 1 2 3 4 5 6 
#
# 1 212.2986 87.5463 36.4291 0.0000 0.0000 0.0000
# 2 87.5463 110.1735 25.4830 0.0000 0.0000 0.0000
# 3 36.4291 25.4830 64.7436 0.0000 0.0000 0.0000
# 4 0.0000 0.0000 0.0000 16.8961 0.0000 0.0000
# 5 0.0000 0.0000 0.0000 0.0000 8.6061 0.0000
# 6 0.0000 0.0000 0.0000 0.0000 0.0000 41.2009
#
#
#
# Elastic Compliance Matrix: (Units=1/GPa)
#
#
# Indices 1 2 3 4 5 6 
#
# 1 0.007231 -0.005286 -0.001988 0.000000 0.000000 0.000000
# 2 -0.005286 0.013850 -0.002477 0.000000 0.000000 0.000000
# 3 -0.001988 -0.002477 0.017539 0.000000 0.000000 0.000000
# 4 0.000000 0.000000 0.000000 0.059185 0.000000 0.000000
# 5 0.000000 0.000000 0.000000 0.000000 0.116197 0.000000
# 6 0.000000 0.000000 0.000000 0.000000 0.000000 0.024271
#
#
# Mechanical properties :
#
#
# Convention : Reuss Voigt Hill
#
# Bulk Modulus (GPa) = 52.30739 76.23694 64.27217
# Shear Modulus (GPa) = 18.92860 29.19110 24.05985
#
# Velocity S-wave (km/s) = 3.02666 3.75863 3.41232
# Velocity P-wave (km/s) = 6.12607 7.46538 6.82864
#
# Compressibility (1/GPa) = 0.01911776
#
# Stress axis : x y z
#
# Youngs Moduli (GPa) = 138.28397 72.20101 57.01537
#
# Poissons Ratio (x) = 0.38169 0.11336
# Poissons Ratio (y) = 0.73103 0.14122
# Poissons Ratio (z) = 0.27493 0.17884
#
# Static dielectric constant tensor:
#      x y z
#    x 5.331350 0.000000 0.000000 
#    y 0.000000 3.703080 0.000000 
#    z 0.000000 0.000000 3.214920 
# 
# 
# High freq. dielectric constant tensor:
#      x y z
#    x 1.845500 0.000000 0.000000 
#    y 0.000000 1.810660 0.000000 
#    z 0.000000 0.000000 1.761550 
# 
# From -- ./inp_files/18666.got.cif
#   From: 2010.03.12/outbox.cif.g09.slc.cpg/sg72_10_cif.got.tgz:18666.got - 2010.04.16 14:54:00.
