data_PCOD8293463
_publ_section_title
;
Structure prediction by ZEFSAII (Michael W. Deem and Ramdas Pophale) SiO2 
 PCOD8293463
Probable space group: I B A M
;
_chemical_formula_sum "Si O2"
_cell_formula_units_Z 116
_cell_length_a 26.351472
_cell_length_b 26.968846
_cell_length_c 9.037093
_cell_angle_alpha 90.000000
_cell_angle_beta 90.000000
_cell_angle_gamma 90.000000
_cell_volume 6422.379950
_symmetry_space_group_name_H-M "I B A M"
_symmetry_group_IT_number 72
_symmetry_cell_setting 'orthorhombic'
loop_
_space_group_symop_operation_xyz
x,y,z
-x,-y,z
x,-y,1/2-z
-x,y,1/2-z
-x,-y,-z
x,y,-z
-x,y,1/2+z
x,-y,1/2+z
1/2+x,1/2+y,1/2+z
1/2-x,1/2-y,1/2+z
1/2+x,1/2-y,-z
1/2-x,1/2+y,-z
1/2-x,1/2-y,1/2-z
1/2+x,1/2+y,1/2-z
1/2-x,1/2+y,z
1/2+x,1/2-y,z
loop_
_atom_site_type_symbol
_atom_site_label
_atom_site_fract_x
_atom_site_fract_y
_atom_site_fract_z
Si Si1 0.000000 0.500000 0.250000
Si Si2 0.951183 0.216396 0.825747
Si Si3 0.080411 0.314228 0.826374
Si Si4 0.189933 0.550125 0.676327
Si Si5 0.322452 0.789827 0.334694
Si Si6 0.241713 0.129783 0.831957
Si Si7 0.842553 0.820664 0.330815
Si Si8 0.919490 0.422115 0.665043
O O1 0.963355 0.463820 0.341952
O O2 0.948643 0.272825 0.767249
O O3 0.901219 0.185436 0.780736
O O4 0.000000 0.190503 0.750000
O O5 0.958341 0.218009 0.000000
O O6 0.140209 0.312324 0.788719
O O7 0.061070 0.369054 0.771749
O O8 0.071512 0.304323 0.000000
O O9 0.210015 0.500000 0.750000
O O10 0.191210 0.545201 0.500000
O O11 0.228016 0.592527 0.727944
O O12 0.132727 0.559653 0.741962
O O13 0.346423 0.797031 0.500000
O O14 0.268875 0.816985 0.324127
O O15 0.314002 0.731589 0.308139
O O16 0.184771 0.137973 0.769999
O O17 0.238933 0.109653 0.000000
O O18 0.839526 0.838491 0.500000
O O19 0.902384 0.409641 0.500000
#
# Coordination Sequence:
#
# PCOD8293463 Si02
#       8
#     4  16  16  16  16  16  16  16
#     4  12  22  40  52  70  96 128 182 236 292 328
#     4  10  21  37  54  77 106 142 179 214 262 311
#     4  10  19  33  51  73  98 132 177 221 271 324
#     4  11  22  40  58  77 103 136 178 224 278 334
#     4   9  18  32  49  74 105 137 173 213 264 320
#     4  11  21  33  53  81 106 138 176 216 271 325
#     4   9  19  34  51  75 109 142 175 216 259 314
#     4  10  22  37  52  71  95 128 172 226 284 331
#
# _framework density 18.061838999999999
#
# number of rings (size 3 to 8) (size 9 to 14) (size 15 to 20)
#    0.000    1.931    2.069    3.103    0.966    3.310 
#    0.000    2.069    0.000    0.000    0.000    0.000 
#    0.000    0.552    0.000    5.793    0.000    3.172 
#
# Total GULP energy -718857.010074 kJ/mol
# GULP energy per Si atom -12394.086381 kJ/mol
# Density = 1.802073 g / cm^3
# Si number density = 18.061839 Si / 1000 Ang^3
#
#
#
# Elastic Constant Matrix: (Units=GPa)
#
#
# Indices 1 2 3 4 5 6 
#
# 1 112.0398 44.3449 42.7974 0.0000 0.0000 0.0000
# 2 44.3449 54.1565 26.0679 0.0000 0.0000 0.0000
# 3 42.7974 26.0679 78.8553 0.0000 0.0000 0.0000
# 4 0.0000 0.0000 0.0000 24.3868 0.0000 0.0000
# 5 0.0000 0.0000 0.0000 0.0000 26.9651 0.0000
# 6 0.0000 0.0000 0.0000 0.0000 0.0000 24.4450
#
#
#
# Elastic Compliance Matrix: (Units=1/GPa)
#
#
# Indices 1 2 3 4 5 6 
#
# 1 0.014537 -0.009640 -0.004703 0.000000 0.000000 0.000000
# 2 -0.009640 0.028351 -0.004141 0.000000 0.000000 0.000000
# 3 -0.004703 -0.004141 0.016603 0.000000 0.000000 0.000000
# 4 0.000000 0.000000 0.000000 0.041006 0.000000 0.000000
# 5 0.000000 0.000000 0.000000 0.000000 0.037085 0.000000
# 6 0.000000 0.000000 0.000000 0.000000 0.000000 0.040908
#
#
# Mechanical properties :
#
#
# Convention : Reuss Voigt Hill
#
# Bulk Modulus (GPa) = 44.39604 52.38578 48.39091
# Shear Modulus (GPa) = 22.42499 23.94880 23.18690
#
# Velocity S-wave (km/s) = 3.52741 3.64529 3.58683
# Velocity P-wave (km/s) = 6.42056 6.83989 6.63354
#
# Compressibility (1/GPa) = 0.02252453
#
# Stress axis : x y z
#
# Youngs Moduli (GPa) = 68.78852 35.27170 60.23077
#
# Poissons Ratio (x) = 0.34001 0.28328
# Poissons Ratio (y) = 0.66310 0.24939
# Poissons Ratio (z) = 0.32353 0.14604
#
# Static dielectric constant tensor:
#      x y z
#    x 3.271200 0.000000 0.000000 
#    y 0.000000 3.070810 0.000000 
#    z 0.000000 0.000000 3.302590 
# 
# 
# High freq. dielectric constant tensor:
#      x y z
#    x 1.690070 0.000000 0.000000 
#    y 0.000000 1.665000 0.000000 
#    z 0.000000 0.000000 1.699670 
# 
# From -- ./inp_files/8418.got.cif
#   From: 2010.03.12/outbox.cif.g09.slc.cpg/sg72_5_cif.got.tgz:8418.got - 2010.04.16 14:54:00.
