data_PCOD8293239
_publ_section_title
;
Structure prediction by ZEFSAII (Michael W. Deem and Ramdas Pophale) SiO2 
 PCOD8293239
Probable space group: I B A M
;
_chemical_formula_sum "Si O2"
_cell_formula_units_Z 96
_cell_length_a 24.161063
_cell_length_b 23.491307
_cell_length_c 9.175305
_cell_angle_alpha 90.000000
_cell_angle_beta 90.000000
_cell_angle_gamma 90.000000
_cell_volume 5207.673262
_symmetry_space_group_name_H-M "I B A M"
_symmetry_group_IT_number 72
_symmetry_cell_setting 'orthorhombic'
loop_
_space_group_symop_operation_xyz
x,y,z
-x,-y,z
x,-y,1/2-z
-x,y,1/2-z
-x,-y,-z
x,y,-z
-x,y,1/2+z
x,-y,1/2+z
1/2+x,1/2+y,1/2+z
1/2-x,1/2-y,1/2+z
1/2+x,1/2-y,-z
1/2-x,1/2+y,-z
1/2-x,1/2-y,1/2-z
1/2+x,1/2+y,1/2-z
1/2-x,1/2+y,z
1/2+x,1/2-y,z
loop_
_atom_site_type_symbol
_atom_site_label
_atom_site_fract_x
_atom_site_fract_y
_atom_site_fract_z
Si Si1 0.554787 0.146928 0.669055
Si Si2 0.056944 0.778222 0.171185
Si Si3 0.729616 0.441928 0.172091
Si Si4 0.359084 0.645368 0.162026
Si Si5 0.856113 0.556415 0.670705
Si Si6 0.547666 0.443371 0.160594
O O1 0.500000 0.125632 0.750000
O O2 0.543207 0.138284 0.500000
O O3 0.568122 0.212308 0.705275
O O4 0.606794 0.109623 0.721969
O O5 0.112168 0.809496 0.230597
O O6 0.000000 0.797811 0.250000
O O7 0.050364 0.790989 0.000000
O O8 0.708464 0.500000 0.250000
O O9 0.697497 0.383813 0.222410
O O10 0.793093 0.430344 0.215775
O O11 0.721393 0.450788 0.000000
O O12 0.397198 0.591019 0.148075
O O13 0.350642 0.672698 0.000000
O O14 0.878079 0.500000 0.750000
O O15 0.861310 0.545635 0.500000
O O16 0.560452 0.500000 0.250000
O O17 0.500000 0.408901 0.250000
O O18 0.525176 0.457767 0.000000
#
# Coordination Sequence:
#
# PCOD8293239 Si02
#       6
#    16  16  16  16  16  16
#     4   9  19  35  54  77 104 133 164 201 247 297
#     4  10  20  34  52  72  97 131 169 209 252 297
#     4   9  18  33  52  73 100 134 169 207 250 295
#     4  10  20  32  47  69  95 127 167 206 247 293
#     4   9  18  34  55  78 105 134 164 200 244 296
#     4  10  19  29  41  59  85 115 150 195 245 291
#
# _framework density 18.434335999999998
#
# number of rings (size 3 to 8) (size 9 to 14) (size 15 to 20)
#    0.000    2.500    0.000    2.500    0.000    5.000 
#    0.000    2.500    0.000    0.000    0.000    0.000 
#    0.000    0.000    0.000    0.000    0.000    0.000 
#
# Total GULP energy -594863.701247 kJ/mol
# GULP energy per Si atom -12392.993776 kJ/mol
# Density = 1.839238 g / cm^3
# Si number density = 18.434336 Si / 1000 Ang^3
#
#
#
# Elastic Constant Matrix: (Units=GPa)
#
#
# Indices 1 2 3 4 5 6 
#
# 1 101.6039 62.0909 38.0817 0.0000 0.0000 0.0000
# 2 62.0909 95.3696 44.3687 0.0000 0.0000 0.0000
# 3 38.0817 44.3687 78.6865 0.0000 0.0000 0.0000
# 4 0.0000 0.0000 0.0000 20.5898 0.0000 0.0000
# 5 0.0000 0.0000 0.0000 0.0000 25.6665 0.0000
# 6 0.0000 0.0000 0.0000 0.0000 0.0000 28.3339
#
#
#
# Elastic Compliance Matrix: (Units=1/GPa)
#
#
# Indices 1 2 3 4 5 6 
#
# 1 0.016744 -0.009667 -0.002653 0.000000 0.000000 0.000000
# 2 -0.009667 0.019796 -0.006484 0.000000 0.000000 0.000000
# 3 -0.002653 -0.006484 0.017648 0.000000 0.000000 0.000000
# 4 0.000000 0.000000 0.000000 0.048568 0.000000 0.000000
# 5 0.000000 0.000000 0.000000 0.000000 0.038961 0.000000
# 6 0.000000 0.000000 0.000000 0.000000 0.000000 0.035293
#
#
# Mechanical properties :
#
#
# Convention : Reuss Voigt Hill
#
# Bulk Modulus (GPa) = 60.30850 62.74919 61.52885
# Shear Modulus (GPa) = 22.71236 23.65928 23.18582
#
# Velocity S-wave (km/s) = 3.51389 3.58639 3.55033
# Velocity P-wave (km/s) = 7.01780 7.15981 7.08916
#
# Compressibility (1/GPa) = 0.01658141
#
# Stress axis : x y z
#
# Youngs Moduli (GPa) = 59.72264 50.51576 56.66283
#
# Poissons Ratio (x) = 0.48835 0.15030
# Poissons Ratio (y) = 0.57736 0.36738
# Poissons Ratio (z) = 0.15842 0.32752
#
# Static dielectric constant tensor:
#      x y z
#    x 3.620580 0.000000 0.000000 
#    y 0.000000 3.360810 0.000000 
#    z 0.000000 0.000000 3.506090 
# 
# 
# High freq. dielectric constant tensor:
#      x y z
#    x 1.711010 0.000000 0.000000 
#    y 0.000000 1.704650 0.000000 
#    z 0.000000 0.000000 1.715050 
# 
# From -- ./inp_files/6961.got.cif
#   From: 2010.03.12/outbox.cif.g09.slc.cpg/sg72_4_cif.got.tgz:6961.got - 2010.04.16 14:54:00.
