data_PCOD8293448
_publ_section_title
;
Structure prediction by ZEFSAII (Michael W. Deem and Ramdas Pophale) SiO2 
 PCOD8293448
Probable space group: I B A M
;
_chemical_formula_sum "Si O2"
_cell_formula_units_Z 96
_cell_length_a 20.341875
_cell_length_b 28.592634
_cell_length_c 8.620330
_cell_angle_alpha 90.000000
_cell_angle_beta 90.000000
_cell_angle_gamma 90.000000
_cell_volume 5013.823459
_symmetry_space_group_name_H-M "I B A M"
_symmetry_group_IT_number 72
_symmetry_cell_setting 'orthorhombic'
loop_
_space_group_symop_operation_xyz
x,y,z
-x,-y,z
x,-y,1/2-z
-x,y,1/2-z
-x,-y,-z
x,y,-z
-x,y,1/2+z
x,-y,1/2+z
1/2+x,1/2+y,1/2+z
1/2-x,1/2-y,1/2+z
1/2+x,1/2-y,-z
1/2-x,1/2+y,-z
1/2-x,1/2-y,1/2-z
1/2+x,1/2+y,1/2-z
1/2-x,1/2+y,z
1/2+x,1/2-y,z
loop_
_atom_site_type_symbol
_atom_site_label
_atom_site_fract_x
_atom_site_fract_y
_atom_site_fract_z
Si Si1 0.671044 0.947908 0.817025
Si Si2 0.302144 0.405765 0.820572
Si Si3 0.935931 0.948971 0.316720
Si Si4 0.199265 0.811269 0.325679
Si Si5 0.927468 0.627452 0.182111
Si Si6 0.332815 0.210832 0.678114
O O1 0.740277 0.924263 0.774899
O O2 0.612657 0.915665 0.753461
O O3 0.665516 0.000000 0.750000
O O4 0.664772 0.951263 0.000000
O O5 0.367504 0.429329 0.754284
O O6 0.316933 0.351019 0.798384
O O7 0.288906 0.416909 0.000000
O O8 0.938312 0.947808 0.500000
O O9 0.000000 0.921064 0.250000
O O10 0.940325 0.000000 0.250000
O O11 0.192489 0.830990 0.500000
O O12 0.275045 0.797978 0.299503
O O13 0.150945 0.766297 0.304340
O O14 0.893878 0.677504 0.222069
O O15 0.000000 0.628228 0.250000
O O16 0.931051 0.619181 0.000000
O O17 0.310541 0.200407 0.500000
#
# Coordination Sequence:
#
# PCOD8293448 Si02
#       6
#    16  16  16  16  16  16
#     4  12  25  41  62  89 118 154 200 250 303 359
#     4  11  22  37  57  87 121 156 193 242 296 347
#     4  10  21  36  56  79 109 148 191 233 285 343
#     4  10  19  32  57  88 115 149 191 235 284 342
#     4  11  23  41  63  87 120 159 200 250 303 360
#     4   9  19  36  57  83 116 150 189 236 286 341
#
# _framework density 19.147064
#
# number of rings (size 3 to 8) (size 9 to 14) (size 15 to 20)
#    0.000    1.500    1.667    4.500    0.000    5.667 
#    0.000    2.500    0.000    4.000    0.000    0.000 
#    0.000    0.000    0.000    0.000    0.000    0.000 
#
# Total GULP energy -594969.649078 kJ/mol
# GULP energy per Si atom -12395.201022 kJ/mol
# Density = 1.910348 g / cm^3
# Si number density = 19.147064 Si / 1000 Ang^3
#
#
#
# Elastic Constant Matrix: (Units=GPa)
#
#
# Indices 1 2 3 4 5 6 
#
# 1 136.2904 71.5462 43.0342 0.0000 0.0000 0.0000
# 2 71.5462 131.4467 40.8057 0.0000 0.0000 0.0000
# 3 43.0342 40.8057 86.4235 0.0000 0.0000 0.0000
# 4 0.0000 0.0000 0.0000 26.8911 0.0000 0.0000
# 5 0.0000 0.0000 0.0000 0.0000 32.2782 0.0000
# 6 0.0000 0.0000 0.0000 0.0000 0.0000 28.0404
#
#
#
# Elastic Compliance Matrix: (Units=1/GPa)
#
#
# Indices 1 2 3 4 5 6 
#
# 1 0.010933 -0.004992 -0.003087 0.000000 0.000000 0.000000
# 2 -0.004992 0.011194 -0.002799 0.000000 0.000000 0.000000
# 3 -0.003087 -0.002799 0.014430 0.000000 0.000000 0.000000
# 4 0.000000 0.000000 0.000000 0.037187 0.000000 0.000000
# 5 0.000000 0.000000 0.000000 0.000000 0.030981 0.000000
# 6 0.000000 0.000000 0.000000 0.000000 0.000000 0.035663
#
#
# Mechanical properties :
#
#
# Convention : Reuss Voigt Hill
#
# Bulk Modulus (GPa) = 67.57027 73.88142 70.72585
# Shear Modulus (GPa) = 29.92631 30.69359 30.30995
#
# Velocity S-wave (km/s) = 3.95773 4.00815 3.98302
# Velocity P-wave (km/s) = 7.50011 7.75180 7.62699
#
# Compressibility (1/GPa) = 0.01479941
#
# Stress axis : x y z
#
# Youngs Moduli (GPa) = 91.46874 89.33309 69.30159
#
# Poissons Ratio (x) = 0.44599 0.21391
# Poissons Ratio (y) = 0.45665 0.19400
# Poissons Ratio (z) = 0.28233 0.25008
#
# Static dielectric constant tensor:
#      x y z
#    x 2.680020 0.000000 0.000000 
#    y 0.000000 3.782190 0.000000 
#    z 0.000000 0.000000 3.623410 
# 
# 
# High freq. dielectric constant tensor:
#      x y z
#    x 1.733200 0.000000 0.000000 
#    y 0.000000 1.750450 0.000000 
#    z 0.000000 0.000000 1.756680 
# 
# From -- ./inp_files/5968.got.cif
#   From: 2010.03.12/outbox.cif.g09.slc.cpg/sg72_3_cif.got.tgz:5968.got - 2010.04.16 14:54:00.
