data_PCOD8293090
_publ_section_title
;
Structure prediction by ZEFSAII (Michael W. Deem and Ramdas Pophale) SiO2 
 PCOD8293090
Probable space group: I B A M
;
_chemical_formula_sum "Si O2"
_cell_formula_units_Z 64
_cell_length_a 8.975316
_cell_length_b 21.635159
_cell_length_c 14.095605
_cell_angle_alpha 90.000000
_cell_angle_beta 90.000000
_cell_angle_gamma 90.000000
_cell_volume 2737.118250
_symmetry_space_group_name_H-M "I B A M"
_symmetry_group_IT_number 72
_symmetry_cell_setting 'orthorhombic'
loop_
_space_group_symop_operation_xyz
x,y,z
-x,-y,z
x,-y,1/2-z
-x,y,1/2-z
-x,-y,-z
x,y,-z
-x,y,1/2+z
x,-y,1/2+z
1/2+x,1/2+y,1/2+z
1/2-x,1/2-y,1/2+z
1/2+x,1/2-y,-z
1/2-x,1/2+y,-z
1/2-x,1/2-y,1/2-z
1/2+x,1/2+y,1/2-z
1/2-x,1/2+y,z
1/2+x,1/2-y,z
loop_
_atom_site_type_symbol
_atom_site_label
_atom_site_fract_x
_atom_site_fract_y
_atom_site_fract_z
Si Si1 0.735289 0.067607 0.727825
Si Si2 0.136114 0.169152 0.107135
Si Si3 0.565403 0.773655 0.852448
Si Si4 0.958367 0.400855 0.395682
O O1 0.861542 0.110405 0.678217
O O2 0.687049 0.096084 0.829006
O O3 0.594669 0.062984 0.655860
O O4 0.801580 0.000000 0.750000
O O5 0.255624 0.220432 0.143056
O O6 0.978836 0.205352 0.110698
O O7 0.166989 0.146215 0.000000
O O8 0.500000 0.786207 0.750000
O O9 0.502016 0.829709 0.915130
O O10 0.926890 0.430127 0.500000
#
# Coordination Sequence:
#
# PCOD8293090 Si02
#       4
#    16  16  16  16
#     4  10  20  33  51  79 114 157 198 243 291 345
#     4  11  22  38  60  92 123 157 196 246 303 364
#     4  11  20  36  59  87 123 155 190 245 305 362
#     4  10  18  31  52  81 114 150 191 245 303 350
#
# _framework density 23.382256999999999
#
# number of rings (size 3 to 8) (size 9 to 14) (size 15 to 20)
#    0.000    1.500    5.000    6.750    0.000    3.000 
#    0.000    0.000    0.000    0.750    0.000    1.750 
#    0.000    0.000    0.000    0.000    0.000    0.000 
#
# Total GULP energy -396618.989526 kJ/mol
# GULP energy per Si atom -12394.343423 kJ/mol
# Density = 2.332904 g / cm^3
# Si number density = 23.382257 Si / 1000 Ang^3
#
#
#
# Elastic Constant Matrix: (Units=GPa)
#
#
# Indices 1 2 3 4 5 6 
#
# 1 22.0364 35.4211 4.6376 0.0000 0.0000 0.0000
# 2 35.4211 156.0160 27.1484 0.0000 0.0000 0.0000
# 3 4.6376 27.1484 166.8564 -0.0003 0.0002 0.0001
# 4 0.0000 0.0000 -0.0003 10.6505 0.0000 0.0000
# 5 0.0000 0.0000 0.0002 0.0000 3.0735 0.0000
# 6 0.0000 0.0000 0.0001 0.0000 0.0000 26.2725
#
#
#
# Elastic Compliance Matrix: (Units=1/GPa)
#
#
# Indices 1 2 3 4 5 6 
#
# 1 0.071530 -0.016357 0.000673 0.000000 0.000000 0.000000
# 2 -0.016357 0.010337 -0.001227 0.000000 0.000000 0.000000
# 3 0.000673 -0.001227 0.006174 0.000000 0.000000 0.000000
# 4 0.000000 0.000000 0.000000 0.093892 0.000000 0.000000
# 5 0.000000 0.000000 0.000000 0.000000 0.325359 0.000000
# 6 0.000000 0.000000 0.000000 0.000000 0.000000 0.038063
#
#
# Mechanical properties :
#
#
# Convention : Reuss Voigt Hill
#
# Bulk Modulus (GPa) = 18.44378 53.25811 35.85094
# Shear Modulus (GPa) = 8.37172 26.51276 17.44224
#
# Velocity S-wave (km/s) = 1.89424 3.37097 2.73419
# Velocity P-wave (km/s) = 3.56220 6.16262 5.03325
#
# Compressibility (1/GPa) = 0.05421883
#
# Stress axis : x y z
#
# Youngs Moduli (GPa) = 13.98022 96.74237 161.96583
#
# Poissons Ratio (x) = 1.58240 -0.10905
# Poissons Ratio (y) = 0.22867 0.19877
# Poissons Ratio (z) = -0.00941 0.11872
#
# Static dielectric constant tensor:
#      x y z
#    x 3.716940 0.000000 0.000000 
#    y 0.000000 4.056190 0.000000 
#    z 0.000000 0.000000 4.314910 
# 
# 
# High freq. dielectric constant tensor:
#      x y z
#    x 1.873680 0.000000 0.000000 
#    y 0.000000 1.908580 0.000000 
#    z 0.000000 0.000000 1.943050 
# 
# From -- ./inp_files/18619.got.cif
#   From: 2010.03.12/outbox.cif.g09.slc.cpg/sg72_10_cif.got.tgz:18619.got - 2010.04.16 14:54:00.
