data_PCOD8293522
_publ_section_title
;
Structure prediction by ZEFSAII (Michael W. Deem and Ramdas Pophale) SiO2 
 PCOD8293522
Probable space group: I B A M
;
_chemical_formula_sum "Si O2"
_cell_formula_units_Z 112
_cell_length_a 18.002437
_cell_length_b 20.653798
_cell_length_c 15.545482
_cell_angle_alpha 90.000000
_cell_angle_beta 90.000000
_cell_angle_gamma 90.000000
_cell_volume 5780.100866
_symmetry_space_group_name_H-M "I B A M"
_symmetry_group_IT_number 72
_symmetry_cell_setting 'orthorhombic'
loop_
_space_group_symop_operation_xyz
x,y,z
-x,-y,z
x,-y,1/2-z
-x,y,1/2-z
-x,-y,-z
x,y,-z
-x,y,1/2+z
x,-y,1/2+z
1/2+x,1/2+y,1/2+z
1/2-x,1/2-y,1/2+z
1/2+x,1/2-y,-z
1/2-x,1/2+y,-z
1/2-x,1/2-y,1/2-z
1/2+x,1/2+y,1/2-z
1/2-x,1/2+y,z
1/2+x,1/2-y,z
loop_
_atom_site_type_symbol
_atom_site_label
_atom_site_fract_x
_atom_site_fract_y
_atom_site_fract_z
Si Si1 0.931256 0.460389 0.595321
Si Si2 0.108226 0.871913 0.099504
Si Si3 0.324485 0.045262 0.171542
Si Si4 0.087664 0.789086 0.257899
Si Si5 0.675260 0.492239 0.097779
Si Si6 0.587165 0.855684 0.268459
Si Si7 0.936238 0.884069 0.096771
O O1 0.954069 0.438038 0.500000
O O2 0.863494 0.511778 0.589507
O O3 0.904211 0.395798 0.643841
O O4 0.000000 0.500000 0.639229
O O5 0.125235 0.815151 0.168734
O O6 0.023272 0.892783 0.114177
O O7 0.161292 0.932716 0.122165
O O8 0.120886 0.848996 0.000000
O O9 0.235957 0.043509 0.157815
O O10 0.360535 0.115286 0.192057
O O11 0.349039 0.000000 0.250000
O O12 0.117821 0.717345 0.278673
O O13 0.105545 0.835278 0.338465
O O14 0.000000 0.785197 0.250000
O O15 0.597993 0.454990 0.110489
O O16 0.702772 0.487350 0.000000
O O17 0.500000 0.856756 0.250000
O O18 0.921850 0.858229 0.000000
#
# Coordination Sequence:
#
# PCOD8293522 Si02
#       7
#    16  16  16  16  16  16  16
#     4  10  19  33  56  82 104 133 176 226 277 328
#     4   9  18  34  55  81 111 144 187 231 274 328
#     4  10  21  33  54  78 105 138 172 227 271 330
#     4   9  19  33  54  80 110 146 183 225 277 333
#     4  10  20  34  54  79 110 143 181 232 281 322
#     4  10  19  36  55  79 110 142 177 226 281 331
#     4   9  18  33  54  81 112 145 185 230 273 326
#
# _framework density 19.376823999999999
#
# number of rings (size 3 to 8) (size 9 to 14) (size 15 to 20)
#    0.000    2.429    1.429    0.857    2.000    2.286 
#    0.000    6.429    0.000    0.000    0.000    0.000 
#    0.000    0.000    0.000    0.000    0.000    0.000 
#
# Total GULP energy -693923.938566 kJ/mol
# GULP energy per Si atom -12391.498903 kJ/mol
# Density = 1.933272 g / cm^3
# Si number density = 19.376824 Si / 1000 Ang^3
#
#
#
# Elastic Constant Matrix: (Units=GPa)
#
#
# Indices 1 2 3 4 5 6 
#
# 1 62.3781 24.1863 17.6327 0.0000 0.0000 0.0000
# 2 24.1863 128.8067 56.3110 0.0000 0.0000 0.0000
# 3 17.6327 56.3110 93.8337 0.0000 0.0000 0.0000
# 4 0.0000 0.0000 0.0000 23.2079 0.0000 0.0000
# 5 0.0000 0.0000 0.0000 0.0000 24.4645 0.0000
# 6 0.0000 0.0000 0.0000 0.0000 0.0000 9.9378
#
#
#
# Elastic Compliance Matrix: (Units=1/GPa)
#
#
# Indices 1 2 3 4 5 6 
#
# 1 0.017508 -0.002507 -0.001786 0.000000 0.000000 0.000000
# 2 -0.002507 0.010884 -0.006060 0.000000 0.000000 0.000000
# 3 -0.001786 -0.006060 0.014630 0.000000 0.000000 0.000000
# 4 0.000000 0.000000 0.000000 0.043089 0.000000 0.000000
# 5 0.000000 0.000000 0.000000 0.000000 0.040876 0.000000
# 6 0.000000 0.000000 0.000000 0.000000 0.000000 0.100626
#
#
# Mechanical properties :
#
#
# Convention : Reuss Voigt Hill
#
# Bulk Modulus (GPa) = 44.81171 53.47539 49.14355
# Shear Modulus (GPa) = 19.54987 23.98126 21.76556
#
# Velocity S-wave (km/s) = 3.17981 3.52181 3.35517
# Velocity P-wave (km/s) = 6.05461 6.64793 6.35819
#
# Compressibility (1/GPa) = 0.02231560
#
# Stress axis : x y z
#
# Youngs Moduli (GPa) = 57.11669 91.88001 68.35442
#
# Poissons Ratio (x) = 0.23033 0.12205
# Poissons Ratio (y) = 0.14319 0.41426
# Poissons Ratio (z) = 0.10199 0.55683
#
# Static dielectric constant tensor:
#      x y z
#    x 3.286430 0.000000 0.000000 
#    y 0.000000 3.607250 0.000000 
#    z 0.000000 0.000000 3.627390 
# 
# 
# High freq. dielectric constant tensor:
#      x y z
#    x 1.734010 0.000000 0.000000 
#    y 0.000000 1.738380 0.000000 
#    z 0.000000 0.000000 1.754330 
# 
# From -- ./inp_files/31911.got.cif
#   From: 2010.03.12/outbox.cif.g09.slc.cpg/sg72_16_cif.got.tgz:31911.got - 2010.04.16 14:54:00.
