data_PCOD8293227
_publ_section_title
;
Structure prediction by ZEFSAII (Michael W. Deem and Ramdas Pophale) SiO2 
 PCOD8293227
Probable space group: I B A M
;
_chemical_formula_sum "Si O2"
_cell_formula_units_Z 80
_cell_length_a 23.060584
_cell_length_b 28.269765
_cell_length_c 8.993430
_cell_angle_alpha 90.000000
_cell_angle_beta 90.000000
_cell_angle_gamma 90.000000
_cell_volume 5862.972517
_symmetry_space_group_name_H-M "I B A M"
_symmetry_group_IT_number 72
_symmetry_cell_setting 'orthorhombic'
loop_
_space_group_symop_operation_xyz
x,y,z
-x,-y,z
x,-y,1/2-z
-x,y,1/2-z
-x,-y,-z
x,y,-z
-x,y,1/2+z
x,-y,1/2+z
1/2+x,1/2+y,1/2+z
1/2-x,1/2-y,1/2+z
1/2+x,1/2-y,-z
1/2-x,1/2+y,-z
1/2-x,1/2-y,1/2-z
1/2+x,1/2+y,1/2-z
1/2-x,1/2+y,z
1/2+x,1/2-y,z
loop_
_atom_site_type_symbol
_atom_site_label
_atom_site_fract_x
_atom_site_fract_y
_atom_site_fract_z
Si Si1 0.626681 0.858138 0.827591
Si Si2 0.670233 0.720349 0.335702
Si Si3 0.732102 0.820836 0.335045
Si Si4 0.059974 0.452331 0.326589
Si Si5 0.060478 0.274662 0.176762
O O1 0.692273 0.854183 0.767263
O O2 0.607427 0.911864 0.802245
O O3 0.582544 0.824542 0.739588
O O4 0.625379 0.843474 0.000000
O O5 0.668422 0.697918 0.500000
O O6 0.704925 0.769156 0.340480
O O7 0.702475 0.682852 0.229404
O O8 0.605232 0.732507 0.280310
O O9 0.735655 0.842746 0.500000
O O10 0.083988 0.500000 0.250000
O O11 0.048386 0.461549 0.500000
O O12 0.000000 0.436695 0.250000
O O13 0.000000 0.260529 0.250000
O O14 0.054563 0.279960 0.000000
#
# Coordination Sequence:
#
# PCOD8293227 Si02
#       5
#    16  16  16  16  16
#     4  10  19  29  41  56  73  94 121 154 190 225
#     4   8  15  26  37  51  72  95 119 147 180 217
#     4   9  16  25  39  56  71  91 118 149 184 217
#     4  10  20  31  43  56  71  94 121 152 190 228
#     4  10  19  28  39  55  74  98 125 154 187 219
#
# _framework density 13.644955
#
# number of rings (size 3 to 8) (size 9 to 14) (size 15 to 20)
#    0.000    2.600    0.000    4.800    0.000   10.400 
#    0.000    0.000    0.000    0.000    0.000    0.000 
#    0.000    0.000    0.000    0.000    0.000    1.000 
#
# Total GULP energy -495860.679510 kJ/mol
# GULP energy per Si atom -12396.516988 kJ/mol
# Density = 1.361390 g / cm^3
# Si number density = 13.644955 Si / 1000 Ang^3
#
#
#
# Elastic Constant Matrix: (Units=GPa)
#
#
# Indices 1 2 3 4 5 6 
#
# 1 104.1703 41.8132 56.8507 0.0000 0.0000 0.0000
# 2 41.8132 42.8231 35.9407 0.0000 0.0000 0.0000
# 3 56.8507 35.9407 102.9172 0.0000 0.0000 0.0000
# 4 0.0000 0.0000 0.0000 16.0753 0.0000 0.0000
# 5 0.0000 0.0000 0.0000 0.0000 24.9858 0.0000
# 6 0.0000 0.0000 0.0000 0.0000 0.0000 18.6533
#
#
#
# Elastic Compliance Matrix: (Units=1/GPa)
#
#
# Indices 1 2 3 4 5 6 
#
# 1 0.017594 -0.012763 -0.005262 0.000000 0.000000 0.000000
# 2 -0.012763 0.042293 -0.007719 0.000000 0.000000 0.000000
# 3 -0.005262 -0.007719 0.015319 0.000000 0.000000 0.000000
# 4 0.000000 0.000000 0.000000 0.062207 0.000000 0.000000
# 5 0.000000 0.000000 0.000000 0.000000 0.040023 0.000000
# 6 0.000000 0.000000 0.000000 0.000000 0.000000 0.053610
#
#
# Mechanical properties :
#
#
# Convention : Reuss Voigt Hill
#
# Bulk Modulus (GPa) = 42.16302 57.67996 49.92149
# Shear Modulus (GPa) = 17.21527 19.62995 18.42261
#
# Velocity S-wave (km/s) = 3.55584 3.79703 3.67841
# Velocity P-wave (km/s) = 6.91562 7.84774 7.39638
#
# Compressibility (1/GPa) = 0.02371747
#
# Stress axis : x y z
#
# Youngs Moduli (GPa) = 56.83632 23.64478 65.27926
#
# Poissons Ratio (x) = 0.30178 0.34349
# Poissons Ratio (y) = 0.72542 0.50390
# Poissons Ratio (z) = 0.29906 0.18252
#
# Static dielectric constant tensor:
#      x y z
#    x 2.820760 0.000000 0.000000 
#    y 0.000000 2.373570 0.000000 
#    z 0.000000 0.000000 2.973650 
# 
# 
# High freq. dielectric constant tensor:
#      x y z
#    x 1.510590 0.000000 0.000000 
#    y 0.000000 1.465530 0.000000 
#    z 0.000000 0.000000 1.541820 
# 
# From -- ./inp_files/6244.got.cif
#   From: 2010.03.12/outbox.cif.g09.slc.cpg/sg72_4_cif.got.tgz:6244.got - 2010.04.16 14:54:00.
