data_PCOD8293004
_publ_section_title
;
Structure prediction by ZEFSAII (Michael W. Deem and Ramdas Pophale) SiO2 
 PCOD8293004
Probable space group: I B A M
;
_chemical_formula_sum "Si O2"
_cell_formula_units_Z 116
_cell_length_a 31.516103
_cell_length_b 31.152235
_cell_length_c 9.079032
_cell_angle_alpha 90.000000
_cell_angle_beta 90.000000
_cell_angle_gamma 90.000000
_cell_volume 8913.766807
_symmetry_space_group_name_H-M "I B A M"
_symmetry_group_IT_number 72
_symmetry_cell_setting 'orthorhombic'
loop_
_space_group_symop_operation_xyz
x,y,z
-x,-y,z
x,-y,1/2-z
-x,y,1/2-z
-x,-y,-z
x,y,-z
-x,y,1/2+z
x,-y,1/2+z
1/2+x,1/2+y,1/2+z
1/2-x,1/2-y,1/2+z
1/2+x,1/2-y,-z
1/2-x,1/2+y,-z
1/2-x,1/2-y,1/2-z
1/2+x,1/2+y,1/2-z
1/2-x,1/2+y,z
1/2+x,1/2-y,z
loop_
_atom_site_type_symbol
_atom_site_label
_atom_site_fract_x
_atom_site_fract_y
_atom_site_fract_z
Si Si1 0.458411 0.653655 0.173056
Si Si2 0.185397 0.257045 0.334314
Si Si3 0.063948 0.068987 0.336710
Si Si4 0.803301 0.876344 0.172561
Si Si5 0.628390 0.303948 0.830044
Si Si6 0.658172 0.543757 0.174400
Si Si7 0.000000 0.000000 0.750000
Si Si8 0.743634 0.184247 0.833295
O O1 0.500000 0.673386 0.250000
O O2 0.451606 0.604906 0.224100
O O3 0.419237 0.684005 0.216582
O O4 0.465498 0.652142 0.000000
O O5 0.175412 0.272055 0.500000
O O6 0.142843 0.237070 0.264299
O O7 0.221745 0.221523 0.332519
O O8 0.200420 0.298159 0.240272
O O9 0.068052 0.089167 0.500000
O O10 0.109415 0.052269 0.281659
O O11 0.030563 0.029986 0.347461
O O12 0.842880 0.845226 0.203021
O O13 0.811613 0.919810 0.259932
O O14 0.760385 0.855593 0.237223
O O15 0.797195 0.885444 0.000000
O O16 0.631906 0.290869 0.000000
O O17 0.673060 0.500000 0.250000
O O18 0.664484 0.540933 0.000000
O O19 0.734004 0.169347 0.000000
#
# Coordination Sequence:
#
# PCOD8293004 Si02
#       8
#    16  16  16  16  16  16   4  16
#     4  11  22  34  46  59  75  95 123 156 195 237
#     4   9  16  25  40  61  81 101 122 145 172 214
#     4  11  23  34  46  59  72  89 116 153 198 245
#     4  10  18  30  45  60  77  99 124 152 186 228
#     4   9  18  30  43  58  77 100 121 149 187 230
#     4  11  22  34  45  59  75  95 123 156 195 239
#     4  12  22  36  48  62  70  88 114 160 206 248
#     4   9  16  26  40  60  83 103 120 143 175 217
#
# _framework density 13.013578000000001
#
# number of rings (size 3 to 8) (size 9 to 14) (size 15 to 20)
#    0.000    1.931    2.759    2.276    0.000    6.069 
#    0.000    0.000    0.000    0.000    0.000    0.000 
#    0.000    0.000    0.000    0.000    0.000    0.000 
#
# Total GULP energy -719242.528997 kJ/mol
# GULP energy per Si atom -12400.733259 kJ/mol
# Density = 1.298396 g / cm^3
# Si number density = 13.013578 Si / 1000 Ang^3
#
#
#
# Elastic Constant Matrix: (Units=GPa)
#
#
# Indices 1 2 3 4 5 6 
#
# 1 63.1630 47.2948 42.1107 0.0000 0.0000 0.0000
# 2 47.2948 56.9992 37.8356 0.0000 0.0000 0.0000
# 3 42.1107 37.8356 88.6324 0.0000 0.0000 0.0000
# 4 0.0000 0.0000 0.0000 20.4705 0.0000 0.0000
# 5 0.0000 0.0000 0.0000 0.0000 19.4412 0.0000
# 6 0.0000 0.0000 0.0000 0.0000 0.0000 22.4037
#
#
#
# Elastic Compliance Matrix: (Units=1/GPa)
#
#
# Indices 1 2 3 4 5 6 
#
# 1 0.045224 -0.032459 -0.007630 0.000000 0.000000 0.000000
# 2 -0.032459 0.047779 -0.004974 0.000000 0.000000 0.000000
# 3 -0.007630 -0.004974 0.017031 0.000000 0.000000 0.000000
# 4 0.000000 0.000000 0.000000 0.048851 0.000000 0.000000
# 5 0.000000 0.000000 0.000000 0.000000 0.051437 0.000000
# 6 0.000000 0.000000 0.000000 0.000000 0.000000 0.044635
#
#
# Mechanical properties :
#
#
# Convention : Reuss Voigt Hill
#
# Bulk Modulus (GPa) = 50.23460 51.47521 50.85490
# Shear Modulus (GPa) = 14.21586 17.89998 16.05792
#
# Velocity S-wave (km/s) = 3.30871 3.71278 3.51655
# Velocity P-wave (km/s) = 7.29947 7.61712 7.45998
#
# Compressibility (1/GPa) = 0.01990660
#
# Stress axis : x y z
#
# Youngs Moduli (GPa) = 22.11223 20.92980 58.71609
#
# Poissons Ratio (x) = 0.67937 0.44802
# Poissons Ratio (y) = 0.71775 0.29205
# Poissons Ratio (z) = 0.16872 0.10410
#
# Static dielectric constant tensor:
#      x y z
#    x 2.538600 0.000000 0.000000 
#    y 0.000000 2.416640 0.000000 
#    z 0.000000 0.000000 2.740730 
# 
# 
# High freq. dielectric constant tensor:
#      x y z
#    x 1.463660 0.000000 0.000000 
#    y 0.000000 1.458860 0.000000 
#    z 0.000000 0.000000 1.514130 
# 
# From -- ./inp_files/9495.got.cif
#   From: 2010.03.12/outbox.cif.g09.slc.cpg/sg72_5_cif.got.tgz:9495.got - 2010.04.16 14:54:00.
