data_PCOD8293440
_publ_section_title
;
Structure prediction by ZEFSAII (Michael W. Deem and Ramdas Pophale) SiO2 
 PCOD8293440
Probable space group: I B A M
;
_chemical_formula_sum "Si O2"
_cell_formula_units_Z 112
_cell_length_a 24.973822
_cell_length_b 12.554516
_cell_length_c 18.762010
_cell_angle_alpha 90.000000
_cell_angle_beta 90.000000
_cell_angle_gamma 90.000000
_cell_volume 5882.532694
_symmetry_space_group_name_H-M "I B A M"
_symmetry_group_IT_number 72
_symmetry_cell_setting 'orthorhombic'
loop_
_space_group_symop_operation_xyz
x,y,z
-x,-y,z
x,-y,1/2-z
-x,y,1/2-z
-x,-y,-z
x,y,-z
-x,y,1/2+z
x,-y,1/2+z
1/2+x,1/2+y,1/2+z
1/2-x,1/2-y,1/2+z
1/2+x,1/2-y,-z
1/2-x,1/2+y,-z
1/2-x,1/2-y,1/2-z
1/2+x,1/2+y,1/2-z
1/2-x,1/2+y,z
1/2+x,1/2-y,z
loop_
_atom_site_type_symbol
_atom_site_label
_atom_site_fract_x
_atom_site_fract_y
_atom_site_fract_z
Si Si1 0.812286 0.761867 0.329213
Si Si2 0.886172 0.396289 0.082449
Si Si3 0.504709 0.794220 0.082403
Si Si4 0.048635 0.922952 0.078199
Si Si5 0.354865 0.490531 0.831448
Si Si6 0.389917 0.135634 0.415348
Si Si7 0.308311 0.283411 0.664062
O O1 0.854866 0.687881 0.369126
O O2 0.753457 0.731934 0.355909
O O3 0.819481 0.745783 0.244707
O O4 0.820567 0.885404 0.348431
O O5 0.950249 0.384363 0.092312
O O6 0.873821 0.516107 0.108195
O O7 0.869994 0.377442 0.000000
O O8 0.528259 0.685246 0.117088
O O9 0.448263 0.831246 0.116946
O O10 0.493534 0.769126 0.000000
O O11 0.091278 0.987087 0.123882
O O12 0.073366 0.895222 0.000000
O O13 0.000000 0.000000 0.067425
O O14 0.372565 0.500000 0.750000
O O15 0.319867 0.592985 0.851595
O O16 0.392159 0.141303 0.500000
O O17 0.344728 0.213879 0.387382
#
# Coordination Sequence:
#
# PCOD8293440 Si02
#       7
#    16  16  16  16  16  16  16
#     4  10  22  40  60  82 111 149 195 235 281 341
#     4  10  20  36  60  87 115 150 188 231 281 336
#     4   9  17  33  56  83 115 148 182 223 278 338
#     4  10  19  32  55  84 113 148 185 224 276 336
#     4  10  21  38  57  83 112 145 191 233 280 333
#     4  10  21  37  58  87 118 148 188 233 282 335
#     4  10  23  39  59  83 112 152 189 237 287 331
#
# _framework density 19.039418999999999
#
# number of rings (size 3 to 8) (size 9 to 14) (size 15 to 20)
#    0.000    2.143    1.429    1.286    2.000    4.857 
#    0.000    0.714    0.000    1.714    0.000    0.000 
#    0.000    0.000    0.000    0.000    0.000    0.000 
#
# Total GULP energy -694336.917975 kJ/mol
# GULP energy per Si atom -12398.873535 kJ/mol
# Density = 1.899608 g / cm^3
# Si number density = 19.039419 Si / 1000 Ang^3
#
#
#
# Elastic Constant Matrix: (Units=GPa)
#
#
# Indices 1 2 3 4 5 6 
#
# 1 112.7878 61.2097 33.4535 0.0000 0.0000 0.0000
# 2 61.2097 133.9090 43.2381 0.0000 0.0000 0.0000
# 3 33.4535 43.2381 36.3681 0.0000 0.0000 0.0000
# 4 0.0000 0.0000 0.0000 26.4331 0.0000 0.0000
# 5 0.0000 0.0000 0.0000 0.0000 -0.9045 0.0000
# 6 0.0000 0.0000 0.0000 0.0000 0.0000 30.6582
#
#
#
# Elastic Compliance Matrix: (Units=1/GPa)
#
#
# Indices 1 2 3 4 5 6 
#
# 1 0.013081 -0.003399 -0.007992 0.000000 0.000000 0.000000
# 2 -0.003399 0.013004 -0.012334 0.000000 0.000000 0.000000
# 3 -0.007992 -0.012334 0.049512 0.000000 0.000000 0.000000
# 4 0.000000 0.000000 0.000000 0.037831 0.000000 0.000000
# 5 0.000000 0.000000 0.000000 0.000000 -1.105615 0.000000
# 6 0.000000 0.000000 0.000000 0.000000 0.000000 0.032618
#
#
# Mechanical properties :
#
#
# Convention : Reuss Voigt Hill
#
# Bulk Modulus (GPa) = 35.52706 62.09638 48.81172
# Shear Modulus (GPa) = -5.53871 20.91494 7.68812
#
# Velocity S-wave (km/s) = -1.70745 3.31797 2.01166
# Velocity P-wave (km/s) = 3.84877 6.88215 5.57571
#
# Compressibility (1/GPa) = 0.02814756
#
# Stress axis : x y z
#
# Youngs Moduli (GPa) = 76.44544 76.90024 20.19725
#
# Poissons Ratio (x) = 0.26138 0.16141
# Poissons Ratio (y) = 0.25983 0.24911
# Poissons Ratio (z) = 0.61095 0.94847
#
# Static dielectric constant tensor:
#      x y z
#    x 3.466990 0.000000 0.000000 
#    y 0.000000 3.736170 0.000000 
#    z 0.000000 0.000000 3.276440 
# 
# 
# High freq. dielectric constant tensor:
#      x y z
#    x 1.742430 0.000000 0.000000 
#    y 0.000000 1.759190 0.000000 
#    z 0.000000 0.000000 1.711270 
# 
# From -- ./inp_files/37282.got.cif
#   From: 2010.03.12/outbox.cif.g09.slc.cpg/sg72_19_cif.got.tgz:37282.got - 2010.04.16 14:54:00.
