data_PCOD8293563
_publ_section_title
;
Structure prediction by ZEFSAII (Michael W. Deem and Ramdas Pophale) SiO2 
 PCOD8293563
Probable space group: I B A M
;
_chemical_formula_sum "Si O2"
_cell_formula_units_Z 88
_cell_length_a 20.810011
_cell_length_b 21.992542
_cell_length_c 9.058624
_cell_angle_alpha 90.000000
_cell_angle_beta 90.000000
_cell_angle_gamma 90.000000
_cell_volume 4145.815524
_symmetry_space_group_name_H-M "I B A M"
_symmetry_group_IT_number 72
_symmetry_cell_setting 'orthorhombic'
loop_
_space_group_symop_operation_xyz
x,y,z
-x,-y,z
x,-y,1/2-z
-x,y,1/2-z
-x,-y,-z
x,y,-z
-x,y,1/2+z
x,-y,1/2+z
1/2+x,1/2+y,1/2+z
1/2-x,1/2-y,1/2+z
1/2+x,1/2-y,-z
1/2-x,1/2+y,-z
1/2-x,1/2-y,1/2-z
1/2+x,1/2+y,1/2-z
1/2-x,1/2+y,z
1/2+x,1/2-y,z
loop_
_atom_site_type_symbol
_atom_site_label
_atom_site_fract_x
_atom_site_fract_y
_atom_site_fract_z
Si Si1 0.908157 0.555906 0.162132
Si Si2 0.885573 0.265935 0.163558
Si Si3 0.324905 0.437536 0.325890
Si Si4 0.930709 0.861584 0.678275
Si Si5 0.195566 0.373661 0.672270
Si Si6 0.000000 0.654733 0.750000
O O1 0.940283 0.500000 0.250000
O O2 0.843184 0.573790 0.246010
O O3 0.957789 0.611582 0.144810
O O4 0.888900 0.533575 0.000000
O O5 0.898654 0.201137 0.241368
O O6 0.828392 0.307368 0.235693
O O7 0.952165 0.303501 0.155808
O O8 0.863380 0.249507 0.000000
O O9 0.301921 0.500000 0.250000
O O10 0.337953 0.447269 0.500000
O O11 0.388650 0.416803 0.240508
O O12 0.270721 0.385543 0.300975
O O13 0.935562 0.863457 0.500000
O O14 0.000000 0.868708 0.750000
O O15 0.177349 0.376652 0.500000
#
# Coordination Sequence:
#
# PCOD8293563 Si02
#       6
#    16  16  16  16  16   8
#     4  11  22  33  51  79 115 159 207 255 301 355
#     4   9  18  35  59  87 122 160 198 244 300 357
#     4  11  24  43  66  92 123 161 206 255 311 368
#     4  11  23  41  66  95 127 162 202 250 307 367
#     4   9  20  39  62  88 122 161 201 248 300 360
#     4  10  19  34  52  78 115 156 204 248 300 352
#
# _framework density 21.226220999999999
#
# number of rings (size 3 to 8) (size 9 to 14) (size 15 to 20)
#    0.000    1.818    0.909    3.000    0.000    6.909 
#    0.000    2.727    0.000    0.000    0.000    0.000 
#    0.000    0.000    0.000    0.000    0.000    0.000 
#
# Total GULP energy -545312.888848 kJ/mol
# GULP energy per Si atom -12393.474747 kJ/mol
# Density = 2.117791 g / cm^3
# Si number density = 21.226221 Si / 1000 Ang^3
#
#
#
# Elastic Constant Matrix: (Units=GPa)
#
#
# Indices 1 2 3 4 5 6 
#
# 1 109.6258 39.8960 38.2217 0.0000 0.0000 0.0000
# 2 39.8960 66.9087 23.6591 0.0000 0.0000 0.0000
# 3 38.2217 23.6591 102.8619 0.0000 0.0000 0.0000
# 4 0.0000 0.0000 0.0000 24.0116 0.0000 0.0000
# 5 0.0000 0.0000 0.0000 0.0000 21.3741 0.0000
# 6 0.0000 0.0000 0.0000 0.0000 0.0000 28.6765
#
#
#
# Elastic Compliance Matrix: (Units=1/GPa)
#
#
# Indices 1 2 3 4 5 6 
#
# 1 0.012550 -0.006351 -0.003203 0.000000 0.000000 0.000000
# 2 -0.006351 0.019483 -0.002121 0.000000 0.000000 0.000000
# 3 -0.003203 -0.002121 0.011400 0.000000 0.000000 0.000000
# 4 0.000000 0.000000 0.000000 0.041647 0.000000 0.000000
# 5 0.000000 0.000000 0.000000 0.000000 0.046786 0.000000
# 6 0.000000 0.000000 0.000000 0.000000 0.000000 0.034872
#
#
# Mechanical properties :
#
#
# Convention : Reuss Voigt Hill
#
# Bulk Modulus (GPa) = 49.79366 53.66112 51.72739
# Shear Modulus (GPa) = 25.40915 26.65373 26.03144
#
# Velocity S-wave (km/s) = 3.46362 3.54743 3.50577
# Velocity P-wave (km/s) = 6.28530 6.48957 6.38825
#
# Compressibility (1/GPa) = 0.02008288
#
# Stress axis : x y z
#
# Youngs Moduli (GPa) = 79.68298 51.32780 87.72139
#
# Poissons Ratio (x) = 0.32597 0.28093
# Poissons Ratio (y) = 0.50604 0.18609
# Poissons Ratio (z) = 0.25519 0.10889
#
# Static dielectric constant tensor:
#      x y z
#    x 3.679100 0.000000 0.000000 
#    y 0.000000 3.944240 0.000000 
#    z 0.000000 0.000000 3.588000 
# 
# 
# High freq. dielectric constant tensor:
#      x y z
#    x 1.826080 0.000000 0.000000 
#    y 0.000000 1.835190 0.000000 
#    z 0.000000 0.000000 1.815320 
# 
# From -- ./inp_files/5796.got.cif
#   From: 2010.03.12/outbox.cif.g09.slc.cpg/sg72_3_cif.got.tgz:5796.got - 2010.04.16 14:54:00.
