data_PCOD8293338
_publ_section_title
;
Structure prediction by ZEFSAII (Michael W. Deem and Ramdas Pophale) SiO2 
 PCOD8293338
Probable space group: I B A M
;
_chemical_formula_sum "Si O2"
_cell_formula_units_Z 96
_cell_length_a 25.305025
_cell_length_b 10.261149
_cell_length_c 19.030542
_cell_angle_alpha 90.000000
_cell_angle_beta 90.000000
_cell_angle_gamma 90.000000
_cell_volume 4941.444501
_symmetry_space_group_name_H-M "I B A M"
_symmetry_group_IT_number 72
_symmetry_cell_setting 'orthorhombic'
loop_
_space_group_symop_operation_xyz
x,y,z
-x,-y,z
x,-y,1/2-z
-x,y,1/2-z
-x,-y,-z
x,y,-z
-x,y,1/2+z
x,-y,1/2+z
1/2+x,1/2+y,1/2+z
1/2-x,1/2-y,1/2+z
1/2+x,1/2-y,-z
1/2-x,1/2+y,-z
1/2-x,1/2-y,1/2-z
1/2+x,1/2+y,1/2-z
1/2-x,1/2+y,z
1/2+x,1/2-y,z
loop_
_atom_site_type_symbol
_atom_site_label
_atom_site_fract_x
_atom_site_fract_y
_atom_site_fract_z
Si Si1 0.374981 0.387597 0.798850
Si Si2 0.743492 0.625690 0.420094
Si Si3 0.241246 0.874008 0.163457
Si Si4 0.439775 0.495090 0.080587
Si Si5 0.647993 0.136542 0.781612
Si Si6 0.870354 0.763122 0.922090
O O1 0.400373 0.500000 0.750000
O O2 0.312833 0.420517 0.802329
O O3 0.405600 0.393317 0.873040
O O4 0.381382 0.246029 0.764191
O O5 0.762762 0.627312 0.500000
O O6 0.772105 0.744023 0.380260
O O7 0.762015 0.488589 0.387728
O O8 0.680508 0.643614 0.413304
O O9 0.287602 0.849558 0.221559
O O10 0.500000 0.500000 0.106197
O O11 0.419912 0.643000 0.089170
O O12 0.434794 0.447416 0.000000
O O13 0.630198 0.150106 0.863289
O O14 0.629031 0.000000 0.750000
O O15 0.871255 0.698717 0.000000
#
# Coordination Sequence:
#
# PCOD8293338 Si02
#       6
#    16  16  16  16  16  16
#     4  12  21  37  58  86 114 152 194 245 295 338
#     4  10  19  31  51  78 114 155 198 235 279 340
#     4  11  20  33  50  79 115 161 194 234 284 342
#     4  10  21  39  65  92 113 142 194 258 311 350
#     4  11  22  36  53  85 122 162 197 233 282 354
#     4   9  18  37  58  81 115 155 194 242 301 348
#
# _framework density 19.427517000000002
#
# number of rings (size 3 to 8) (size 9 to 14) (size 15 to 20)
#    0.000    1.500    3.333    3.500    0.000    1.667 
#    0.000    0.833    0.000    2.000    0.000    3.500 
#    0.000    0.000    0.000    0.000    0.000    0.000 
#
# Total GULP energy -595226.975891 kJ/mol
# GULP energy per Si atom -12400.561998 kJ/mol
# Density = 1.938330 g / cm^3
# Si number density = 19.427517 Si / 1000 Ang^3
#
#
#
# Elastic Constant Matrix: (Units=GPa)
#
#
# Indices 1 2 3 4 5 6 
#
# 1 76.9000 16.9680 35.5884 0.0000 0.0000 0.0000
# 2 16.9680 105.3252 53.8360 0.0000 0.0000 0.0000
# 3 35.5884 53.8360 117.1603 0.0000 0.0000 0.0000
# 4 0.0000 0.0000 0.0000 34.0935 0.0000 0.0000
# 5 0.0000 0.0000 0.0000 0.0000 23.3840 0.0000
# 6 0.0000 0.0000 0.0000 0.0000 0.0000 15.8341
#
#
#
# Elastic Compliance Matrix: (Units=1/GPa)
#
#
# Indices 1 2 3 4 5 6 
#
# 1 0.015132 -0.000115 -0.004543 0.000000 0.000000 0.000000
# 2 -0.000115 0.012410 -0.005667 0.000000 0.000000 0.000000
# 3 -0.004543 -0.005667 0.012520 0.000000 0.000000 0.000000
# 4 0.000000 0.000000 0.000000 0.029331 0.000000 0.000000
# 5 0.000000 0.000000 0.000000 0.000000 0.042764 0.000000
# 6 0.000000 0.000000 0.000000 0.000000 0.000000 0.063155
#
#
# Mechanical properties :
#
#
# Convention : Reuss Voigt Hill
#
# Bulk Modulus (GPa) = 51.52247 56.90782 54.21514
# Shear Modulus (GPa) = 24.69946 27.52854 26.11400
#
# Velocity S-wave (km/s) = 3.56949 3.76837 3.67028
# Velocity P-wave (km/s) = 6.60047 6.94911 6.77704
#
# Compressibility (1/GPa) = 0.01940901
#
# Stress axis : x y z
#
# Youngs Moduli (GPa) = 66.08506 80.58141 79.87476
#
# Poissons Ratio (x) = 0.00930 0.36290
# Poissons Ratio (y) = 0.00763 0.45268
# Poissons Ratio (z) = 0.30025 0.45668
#
# Static dielectric constant tensor:
#      x y z
#    x 3.229410 0.000000 0.000000 
#    y 0.000000 3.380460 0.000000 
#    z 0.000000 0.000000 3.819580 
# 
# 
# High freq. dielectric constant tensor:
#      x y z
#    x 1.712490 0.000000 0.000000 
#    y 0.000000 1.742950 0.000000 
#    z 0.000000 0.000000 1.775080 
# 
# From -- ./inp_files/33889.got.cif
#   From: 2010.03.12/outbox.cif.g09.slc.cpg/sg72_17_cif.got.tgz:33889.got - 2010.04.16 14:54:00.
