data_PCOD8293991
_publ_section_title
;
Structure prediction by ZEFSAII (Michael W. Deem and Ramdas Pophale) SiO2 
 PCOD8293991
Probable space group: I B A M
;
_chemical_formula_sum "Si O2"
_cell_formula_units_Z 68
_cell_length_a 27.533592
_cell_length_b 5.244081
_cell_length_c 23.512998
_cell_angle_alpha 90.000000
_cell_angle_beta 90.000000
_cell_angle_gamma 90.000000
_cell_volume 3395.003847
_symmetry_space_group_name_H-M "I B A M"
_symmetry_group_IT_number 72
_symmetry_cell_setting 'orthorhombic'
loop_
_space_group_symop_operation_xyz
x,y,z
-x,-y,z
x,-y,1/2-z
-x,y,1/2-z
-x,-y,-z
x,y,-z
-x,y,1/2+z
x,-y,1/2+z
1/2+x,1/2+y,1/2+z
1/2-x,1/2-y,1/2+z
1/2+x,1/2-y,-z
1/2-x,1/2+y,-z
1/2-x,1/2-y,1/2-z
1/2+x,1/2+y,1/2-z
1/2-x,1/2+y,z
1/2+x,1/2-y,z
loop_
_atom_site_type_symbol
_atom_site_label
_atom_site_fract_x
_atom_site_fract_y
_atom_site_fract_z
Si Si1 0.218846 0.850893 0.064553
Si Si2 0.081338 0.335940 0.829962
Si Si3 0.875200 0.159443 0.138386
Si Si4 0.500000 0.000000 0.250000
Si Si5 0.945682 0.907109 0.937362
O O1 0.257276 0.626091 0.074150
O O2 0.178341 0.819600 0.112824
O O3 0.197822 0.834186 0.000000
O O4 0.112320 0.594934 0.822672
O O5 0.035116 0.321674 0.787886
O O6 0.060350 0.331331 0.894533
O O7 0.116840 0.090656 0.821206
O O8 0.912190 0.139680 0.085117
O O9 0.928412 0.821341 0.000000
O O10 0.000000 0.000000 0.938675
#
# Coordination Sequence:
#
# PCOD8293991 Si02
#       5
#    16  16  16   4  16
#     4  10  20  34  58  90 125 164 199 245 303 362
#     4  10  24  36  61  83 118 160 202 249 313 333
#     4  10  21  39  54  90 117 162 199 242 298 366
#     4  12  24  46  62  90 120 158 216 276 284 378
#     4   9  19  35  54  83 121 157 193 232 291 373
#
# _framework density 20.029433999999998
#
# number of rings (size 3 to 8) (size 9 to 14) (size 15 to 20)
#    1.412    0.706    0.000    3.529    0.000    3.765 
#    0.000    2.941    0.000    0.000    0.000   16.471 
#    0.000    0.000    0.000    0.000    0.000    0.000 
#
# Total GULP energy -421221.497962 kJ/mol
# GULP energy per Si atom -12388.867587 kJ/mol
# Density = 1.998385 g / cm^3
# Si number density = 20.029434 Si / 1000 Ang^3
#
#
#
# Elastic Constant Matrix: (Units=GPa)
#
#
# Indices 1 2 3 4 5 6 
#
# 1 83.4145 27.3232 19.9513 0.0000 0.0000 0.0000
# 2 27.3232 127.9825 30.3637 0.0000 0.0000 0.0000
# 3 19.9513 30.3637 48.3793 0.0000 0.0000 0.0000
# 4 0.0000 0.0000 0.0000 20.6555 0.0000 0.0000
# 5 0.0000 0.0000 0.0000 0.0000 -451.0909 0.0000
# 6 0.0000 0.0000 0.0000 0.0000 0.0000 22.7128
#
#
#
# Elastic Compliance Matrix: (Units=1/GPa)
#
#
# Indices 1 2 3 4 5 6 
#
# 1 0.013666 -0.001857 -0.004470 0.000000 0.000000 0.000000
# 2 -0.001857 0.009433 -0.005154 0.000000 0.000000 0.000000
# 3 -0.004470 -0.005154 0.025749 0.000000 0.000000 0.000000
# 4 0.000000 0.000000 0.000000 0.048413 0.000000 0.000000
# 5 0.000000 0.000000 0.000000 0.000000 -0.002217 0.000000
# 6 0.000000 0.000000 0.000000 0.000000 0.000000 0.044028
#
#
# Mechanical properties :
#
#
# Convention : Reuss Voigt Hill
#
# Bulk Modulus (GPa) = 38.63404 46.11699 42.37552
# Shear Modulus (GPa) = 29.29752 -69.40199 -20.05224
#
# Velocity S-wave (km/s) = 3.82871 -5.89281 -3.16751
# Velocity P-wave (km/s) = 6.23505 4.81930 2.79733
#
# Compressibility (1/GPa) = 0.02588391
#
# Stress axis : x y z
#
# Youngs Moduli (GPa) = 73.17540 106.01189 38.83720
#
# Poissons Ratio (x) = 0.19686 0.17361
# Poissons Ratio (y) = 0.13589 0.20018
# Poissons Ratio (z) = 0.32711 0.54643
#
# Static dielectric constant tensor:
#      x y z
#    x 3.342860 0.000000 0.000000 
#    y 0.000000 3.520100 0.000000 
#    z 0.000000 0.000000 3.615550 
# 
# 
# High freq. dielectric constant tensor:
#      x y z
#    x 1.763600 0.000000 0.000000 
#    y 0.000000 1.781410 0.000000 
#    z 0.000000 0.000000 1.765120 
# 
# From -- ./inp_files/40991.got.cif
#   From: 2010.03.12/outbox.cif.g09.slc.cpg/sg72_21_cif.got.tgz:40991.got - 2010.04.16 14:54:00.
