data_PCOD8293224
_publ_section_title
;
Structure prediction by ZEFSAII (Michael W. Deem and Ramdas Pophale) SiO2 
 PCOD8293224
Probable space group: I B A M
;
_chemical_formula_sum "Si O2"
_cell_formula_units_Z 96
_cell_length_a 27.558018
_cell_length_b 31.076720
_cell_length_c 8.871648
_cell_angle_alpha 90.000000
_cell_angle_beta 90.000000
_cell_angle_gamma 90.000000
_cell_volume 7597.792985
_symmetry_space_group_name_H-M "I B A M"
_symmetry_group_IT_number 72
_symmetry_cell_setting 'orthorhombic'
loop_
_space_group_symop_operation_xyz
x,y,z
-x,-y,z
x,-y,1/2-z
-x,y,1/2-z
-x,-y,-z
x,y,-z
-x,y,1/2+z
x,-y,1/2+z
1/2+x,1/2+y,1/2+z
1/2-x,1/2-y,1/2+z
1/2+x,1/2-y,-z
1/2-x,1/2+y,-z
1/2-x,1/2-y,1/2-z
1/2+x,1/2+y,1/2-z
1/2-x,1/2+y,z
1/2+x,1/2-y,z
loop_
_atom_site_type_symbol
_atom_site_label
_atom_site_fract_x
_atom_site_fract_y
_atom_site_fract_z
Si Si1 0.608337 0.380894 0.325827
Si Si2 0.220565 0.288222 0.676534
Si Si3 0.364528 0.751698 0.169842
Si Si4 0.309429 0.338374 0.667856
Si Si5 0.947911 0.206284 0.176089
Si Si6 0.449053 0.454567 0.679259
O O1 0.604897 0.393998 0.500000
O O2 0.664408 0.370258 0.285349
O O3 0.574982 0.340086 0.286844
O O4 0.591672 0.420148 0.221876
O O5 0.215012 0.279091 0.500000
O O6 0.250000 0.250000 0.750000
O O7 0.166954 0.289802 0.751015
O O8 0.251924 0.332076 0.705419
O O9 0.333805 0.708235 0.175525
O O10 0.414914 0.744504 0.257193
O O11 0.376257 0.765931 0.000000
O O12 0.315728 0.357572 0.500000
O O13 0.000000 0.208657 0.250000
O O14 0.952845 0.213807 0.000000
O O15 0.433499 0.500000 0.750000
O O16 0.500000 0.439215 0.750000
O O17 0.454167 0.458602 0.500000
#
# Coordination Sequence:
#
# PCOD8293224 Si02
#       6
#    16  16  16  16  16  16
#     4  10  19  29  41  56  71  87 108 135 169 207
#     4   9  15  23  35  50  68  87 108 132 160 195
#     4   9  16  25  36  49  66  87 111 136 164 198
#     4   8  15  25  36  51  69  88 107 130 161 197
#     4  10  19  28  38  51  68  89 113 141 172 206
#     4  11  21  33  46  57  70  86 108 136 168 207
#
# _framework density 12.635248000000001
#
# number of rings (size 3 to 8) (size 9 to 14) (size 15 to 20)
#    0.000    2.500    0.000    5.500    0.000    8.000 
#    0.000    0.000    0.000    0.000    0.000    0.000 
#    0.000    0.000    0.000    0.000    0.000    0.000 
#
# Total GULP energy -594943.181131 kJ/mol
# GULP energy per Si atom -12394.649607 kJ/mol
# Density = 1.260649 g / cm^3
# Si number density = 12.635248 Si / 1000 Ang^3
#
#
#
# Elastic Constant Matrix: (Units=GPa)
#
#
# Indices 1 2 3 4 5 6 
#
# 1 74.4166 36.9909 50.2691 0.0000 0.0000 0.0000
# 2 36.9909 32.8410 30.1534 0.0000 0.0000 0.0000
# 3 50.2691 30.1534 95.1432 0.0000 0.0000 0.0000
# 4 0.0000 0.0000 0.0000 15.5385 0.0000 0.0000
# 5 0.0000 0.0000 0.0000 0.0000 24.4703 0.0000
# 6 0.0000 0.0000 0.0000 0.0000 0.0000 23.0809
#
#
#
# Elastic Compliance Matrix: (Units=1/GPa)
#
#
# Indices 1 2 3 4 5 6 
#
# 1 0.034710 -0.031393 -0.008390 0.000000 0.000000 0.000000
# 2 -0.031393 0.071339 -0.006023 0.000000 0.000000 0.000000
# 3 -0.008390 -0.006023 0.016852 0.000000 0.000000 0.000000
# 4 0.000000 0.000000 0.000000 0.064356 0.000000 0.000000
# 5 0.000000 0.000000 0.000000 0.000000 0.040866 0.000000
# 6 0.000000 0.000000 0.000000 0.000000 0.000000 0.043326
#
#
# Mechanical properties :
#
#
# Convention : Reuss Voigt Hill
#
# Bulk Modulus (GPa) = 31.95876 48.58087 40.26981
# Shear Modulus (GPa) = 13.38721 18.28375 15.83548
#
# Velocity S-wave (km/s) = 3.25855 3.80813 3.54401
# Velocity P-wave (km/s) = 6.28536 7.60710 6.97760
#
# Compressibility (1/GPa) = 0.03129033
#
# Stress axis : x y z
#
# Youngs Moduli (GPa) = 28.81016 14.01750 59.33967
#
# Poissons Ratio (x) = 0.44005 0.49785
# Poissons Ratio (y) = 0.90443 0.35740
# Poissons Ratio (z) = 0.24171 0.08443
#
# Static dielectric constant tensor:
#      x y z
#    x 2.788750 0.000000 0.000000 
#    y 0.000000 2.272250 0.000000 
#    z 0.000000 0.000000 2.746340 
# 
# 
# High freq. dielectric constant tensor:
#      x y z
#    x 1.470430 0.000000 0.000000 
#    y 0.000000 1.419880 0.000000 
#    z 0.000000 0.000000 1.501230 
# 
# From -- ./inp_files/8279.got.cif
#   From: 2010.03.12/outbox.cif.g09.slc.cpg/sg72_5_cif.got.tgz:8279.got - 2010.04.16 14:54:00.
