data_PCOD8293658
_publ_section_title
;
Structure prediction by ZEFSAII (Michael W. Deem and Ramdas Pophale) SiO2 
 PCOD8293658
Probable space group: I B A M
;
_chemical_formula_sum "Si O2"
_cell_formula_units_Z 68
_cell_length_a 9.283759
_cell_length_b 22.807801
_cell_length_c 16.982704
_cell_angle_alpha 90.000000
_cell_angle_beta 90.000000
_cell_angle_gamma 90.000000
_cell_volume 3595.953881
_symmetry_space_group_name_H-M "I B A M"
_symmetry_group_IT_number 72
_symmetry_cell_setting 'orthorhombic'
loop_
_space_group_symop_operation_xyz
x,y,z
-x,-y,z
x,-y,1/2-z
-x,y,1/2-z
-x,-y,-z
x,y,-z
-x,y,1/2+z
x,-y,1/2+z
1/2+x,1/2+y,1/2+z
1/2-x,1/2-y,1/2+z
1/2+x,1/2-y,-z
1/2-x,1/2+y,-z
1/2-x,1/2-y,1/2-z
1/2+x,1/2+y,1/2-z
1/2-x,1/2+y,z
1/2+x,1/2-y,z
loop_
_atom_site_type_symbol
_atom_site_label
_atom_site_fract_x
_atom_site_fract_y
_atom_site_fract_z
Si Si1 0.351257 0.590903 0.642603
Si Si2 0.668026 0.690008 0.739593
Si Si3 0.338348 0.384946 0.589922
Si Si4 0.500000 0.500000 0.250000
Si Si5 0.343421 0.996154 0.411049
O O1 0.284842 0.645479 0.691019
O O2 0.488849 0.607484 0.589820
O O3 0.393759 0.541196 0.703251
O O4 0.227747 0.560865 0.590275
O O5 0.500000 0.701656 0.750000
O O6 0.750000 0.750000 0.750000
O O7 0.795331 0.834615 0.847678
O O8 0.293951 0.367828 0.500000
O O9 0.261840 0.444695 0.621413
O O10 0.372311 0.977555 0.500000
O O11 0.500000 0.000000 0.367520
#
# Coordination Sequence:
#
# PCOD8293658 Si02
#       5
#    16  16  16   4  16
#     4  11  18  34  58  80 110 146 186 231 272 335
#     4  10  22  39  56  77 107 146 191 234 270 331
#     4  10  19  35  57  79 105 144 187 229 279 332
#     4  12  16  32  60  88 108 128 196 234 268 320
#     4  10  20  32  51  86 121 142 172 228 295 343
#
# _framework density 18.910143000000001
#
# number of rings (size 3 to 8) (size 9 to 14) (size 15 to 20)
#    0.000    1.647    5.882    0.706    0.000    3.765 
#    0.000   10.000    0.000    0.000    0.000    0.000 
#    0.000    0.000    0.000    0.000    0.000    0.000 
#
# Total GULP energy -421317.448240 kJ/mol
# GULP energy per Si atom -12391.689654 kJ/mol
# Density = 1.886710 g / cm^3
# Si number density = 18.910143 Si / 1000 Ang^3
#
#
#
# Elastic Constant Matrix: (Units=GPa)
#
#
# Indices 1 2 3 4 5 6 
#
# 1 74.6802 46.1011 23.3368 0.0000 0.0000 0.0000
# 2 46.1011 140.9098 50.1599 0.0000 -0.0001 0.0000
# 3 23.3368 50.1599 82.6352 0.0000 -0.0004 0.0000
# 4 0.0000 0.0000 0.0000 18.9269 -0.0001 0.0000
# 5 0.0000 -0.0001 -0.0004 -0.0001 -62.9072 0.0000
# 6 0.0000 0.0000 0.0000 0.0000 0.0000 39.6316
#
#
#
# Elastic Compliance Matrix: (Units=1/GPa)
#
#
# Indices 1 2 3 4 5 6 
#
# 1 0.016990 -0.004912 -0.001817 0.000000 0.000000 0.000000
# 2 -0.004912 0.010473 -0.004970 0.000000 0.000000 0.000000
# 3 -0.001817 -0.004970 0.015631 0.000000 0.000000 0.000000
# 4 0.000000 0.000000 0.000000 0.052835 0.000000 0.000000
# 5 0.000000 0.000000 0.000000 0.000000 -0.015896 0.000000
# 6 0.000000 0.000000 0.000000 0.000000 0.000000 0.025232
#
#
# Mechanical properties :
#
#
# Convention : Reuss Voigt Hill
#
# Bulk Modulus (GPa) = 50.76817 59.71344 55.24081
# Shear Modulus (GPa) = 36.97454 11.03875 24.00665
#
# Velocity S-wave (km/s) = 4.42665 2.41871 3.56689
# Velocity P-wave (km/s) = 7.28233 6.28062 6.79994
#
# Compressibility (1/GPa) = 0.01969738
#
# Stress axis : x y z
#
# Youngs Moduli (GPa) = 58.85690 95.48407 63.97480
#
# Poissons Ratio (x) = 0.46902 0.11621
# Poissons Ratio (y) = 0.28911 0.31795
# Poissons Ratio (z) = 0.10692 0.47455
#
# Static dielectric constant tensor:
#      x y z
#    x 3.483630 0.000000 0.000000 
#    y 0.000000 3.500440 0.000000 
#    z 0.000000 0.000000 2.130750 
# 
# 
# High freq. dielectric constant tensor:
#      x y z
#    x 1.725460 0.000000 0.000000 
#    y 0.000000 1.719840 0.000000 
#    z 0.000000 0.000000 1.732700 
# 
# From -- ./inp_files/27803.got.cif
#   From: 2010.03.12/outbox.cif.g09.slc.cpg/sg72_14_cif.got.tgz:27803.got - 2010.04.16 14:54:00.
