data_PCOD8293501
_publ_section_title
;
Structure prediction by ZEFSAII (Michael W. Deem and Ramdas Pophale) SiO2 
 PCOD8293501
Probable space group: I B A M
;
_chemical_formula_sum "Si O2"
_cell_formula_units_Z 96
_cell_length_a 31.265051
_cell_length_b 8.937155
_cell_length_c 15.232580
_cell_angle_alpha 90.000000
_cell_angle_beta 90.000000
_cell_angle_gamma 90.000000
_cell_volume 4256.296748
_symmetry_space_group_name_H-M "I B A M"
_symmetry_group_IT_number 72
_symmetry_cell_setting 'orthorhombic'
loop_
_space_group_symop_operation_xyz
x,y,z
-x,-y,z
x,-y,1/2-z
-x,y,1/2-z
-x,-y,-z
x,y,-z
-x,y,1/2+z
x,-y,1/2+z
1/2+x,1/2+y,1/2+z
1/2-x,1/2-y,1/2+z
1/2+x,1/2-y,-z
1/2-x,1/2+y,-z
1/2-x,1/2-y,1/2-z
1/2+x,1/2+y,1/2-z
1/2-x,1/2+y,z
1/2+x,1/2-y,z
loop_
_atom_site_type_symbol
_atom_site_label
_atom_site_fract_x
_atom_site_fract_y
_atom_site_fract_z
Si Si1 0.873278 0.417434 0.400515
Si Si2 0.041115 0.901554 0.896448
Si Si3 0.542932 0.932387 0.153686
Si Si4 0.792224 0.409531 0.894970
Si Si5 0.877634 0.086724 0.604689
Si Si6 0.207578 0.927083 0.895414
O O1 0.859644 0.387086 0.500000
O O2 0.915547 0.518874 0.400367
O O3 0.833638 0.504434 0.355682
O O4 0.880884 0.255229 0.356090
O O5 0.039032 0.746295 0.844012
O O6 0.082308 0.990909 0.861272
O O7 0.043478 0.866749 0.000000
O O8 0.000000 0.000000 0.872894
O O9 0.500000 0.000000 0.109155
O O10 0.547970 0.000000 0.250000
O O11 0.792886 0.241055 0.858534
O O12 0.749705 0.490260 0.859427
O O13 0.793264 0.407302 0.000000
O O14 0.879165 0.089247 0.500000
O O15 0.834108 0.012890 0.640312
O O16 0.207612 0.927753 0.000000
#
# Coordination Sequence:
#
# PCOD8293501 Si02
#       6
#    16  16  16  16  16  16
#     4  10  19  33  54  79 106 139 181 226 272 322
#     4  10  20  36  60  87 112 142 184 234 283 328
#     4  11  24  40  55  78 110 144 181 220 272 335
#     4   9  16  25  42  70 104 140 174 216 268 319
#     4   9  17  29  48  77 109 139 176 222 271 323
#     4   9  15  24  39  67 107 141 171 214 271 326
#
# _framework density 22.554818999999998
#
# number of rings (size 3 to 8) (size 9 to 14) (size 15 to 20)
#    0.000    2.333    0.000    3.500    0.000    9.333 
#    0.000    5.833    0.000    0.000    0.000   10.500 
#    0.000    0.000    0.000    0.000    0.000    0.000 
#
# Total GULP energy -595226.676950 kJ/mol
# GULP energy per Si atom -12400.555770 kJ/mol
# Density = 2.250348 g / cm^3
# Si number density = 22.554819 Si / 1000 Ang^3
#
#
#
# Elastic Constant Matrix: (Units=GPa)
#
#
# Indices 1 2 3 4 5 6 
#
# 1 225.9337 106.7710 -1.6555 0.0000 0.0000 0.0000
# 2 106.7710 234.0244 15.1977 0.0000 0.0000 0.0000
# 3 -1.6555 15.1977 19.0809 0.0000 0.0000 0.0000
# 4 0.0000 0.0000 0.0000 17.4971 0.0000 0.0000
# 5 0.0000 0.0000 0.0000 0.0000 -2.0576 0.0000
# 6 0.0000 0.0000 0.0000 0.0000 0.0000 52.1540
#
#
#
# Elastic Compliance Matrix: (Units=1/GPa)
#
#
# Indices 1 2 3 4 5 6 
#
# 1 0.005776 -0.002813 0.002742 0.000000 0.000000 0.000000
# 2 -0.002813 0.005876 -0.004924 0.000000 0.000000 0.000000
# 3 0.002742 -0.004924 0.056568 0.000000 0.000000 0.000000
# 4 0.000000 0.000000 0.000000 0.057152 0.000000 0.000000
# 5 0.000000 0.000000 0.000000 0.000000 -0.485998 0.000000
# 6 0.000000 0.000000 0.000000 0.000000 0.000000 0.019174
#
#
# Mechanical properties :
#
#
# Convention : Reuss Voigt Hill
#
# Bulk Modulus (GPa) = 17.17368 79.96283 48.56826
# Shear Modulus (GPa) = -16.02307 37.43375 10.70534
#
# Velocity S-wave (km/s) = -2.66824 4.07833 2.18098
# Velocity P-wave (km/s) = 1.36452 7.59649 5.28416
#
# Compressibility (1/GPa) = 0.05822862
#
# Stress axis : x y z
#
# Youngs Moduli (GPa) = 173.14330 170.17526 17.67769
#
# Poissons Ratio (x) = 0.47872 -0.04847
# Poissons Ratio (y) = 0.48707 0.08705
# Poissons Ratio (z) = -0.47471 0.83802
#
# Static dielectric constant tensor:
#      x y z
#    x 4.337890 0.000000 0.000000 
#    y 0.000000 4.265150 0.000000 
#    z 0.000000 0.000000 3.257820 
# 
# 
# High freq. dielectric constant tensor:
#      x y z
#    x 1.906540 0.000000 0.000000 
#    y 0.000000 1.905990 0.000000 
#    z 0.000000 0.000000 1.831080 
# 
# From -- ./inp_files/40672.got.cif
#   From: 2010.03.12/outbox.cif.g09.slc.cpg/sg72_21_cif.got.tgz:40672.got - 2010.04.16 14:54:00.
