data_PCOD8293843
_publ_section_title
;
Structure prediction by ZEFSAII (Michael W. Deem and Ramdas Pophale) SiO2 
 PCOD8293843
Probable space group: I B A M
;
_chemical_formula_sum "Si O2"
_cell_formula_units_Z 52
_cell_length_a 13.582385
_cell_length_b 24.105972
_cell_length_c 9.025102
_cell_angle_alpha 90.000000
_cell_angle_beta 90.000000
_cell_angle_gamma 90.000000
_cell_volume 2954.968144
_symmetry_space_group_name_H-M "I B A M"
_symmetry_group_IT_number 72
_symmetry_cell_setting 'orthorhombic'
loop_
_space_group_symop_operation_xyz
x,y,z
-x,-y,z
x,-y,1/2-z
-x,y,1/2-z
-x,-y,-z
x,y,-z
-x,y,1/2+z
x,-y,1/2+z
1/2+x,1/2+y,1/2+z
1/2-x,1/2-y,1/2+z
1/2+x,1/2-y,-z
1/2-x,1/2+y,-z
1/2-x,1/2-y,1/2-z
1/2+x,1/2+y,1/2-z
1/2-x,1/2+y,z
1/2+x,1/2-y,z
loop_
_atom_site_type_symbol
_atom_site_label
_atom_site_fract_x
_atom_site_fract_y
_atom_site_fract_z
Si Si1 0.598744 0.760738 0.172222
Si Si2 0.500000 0.500000 0.250000
Si Si3 0.189064 0.052111 0.334592
Si Si4 0.712522 0.666589 0.327539
O O1 0.500000 0.782561 0.250000
O O2 0.630439 0.702835 0.245385
O O3 0.680218 0.807587 0.199126
O O4 0.579683 0.749927 0.000000
O O5 0.428917 0.459814 0.153262
O O6 0.232139 0.058745 0.500000
O O7 0.213097 0.105801 0.239569
O O8 0.240323 0.000000 0.250000
O O9 0.685315 0.663908 0.500000
#
# Coordination Sequence:
#
# PCOD8293843 Si02
#       4
#    16   4  16  16
#     4  10  21  36  55  78 105 140 177 219 264 310
#     4   8  22  32  50  76 104 136 174 204 256 316
#     4  10  20  33  51  74 106 139 172 212 257 310
#     4  10  21  36  54  78 108 139 177 218 261 313
#
# _framework density 17.597480999999998
#
# number of rings (size 3 to 8) (size 9 to 14) (size 15 to 20)
#    0.923    1.231    0.000    3.231    2.154    3.692 
#    0.000    0.000    0.000    0.923    0.000    6.462 
#    0.000    0.000    0.000    0.000    0.000    0.000 
#
# Total GULP energy -322299.859290 kJ/mol
# GULP energy per Si atom -12396.148434 kJ/mol
# Density = 1.755743 g / cm^3
# Si number density = 17.597481 Si / 1000 Ang^3
#
#
#
# Elastic Constant Matrix: (Units=GPa)
#
#
# Indices 1 2 3 4 5 6 
#
# 1 68.0484 30.1816 46.6176 -0.0001 0.0003 0.0002
# 2 30.1816 136.6614 60.9930 -0.0012 -0.0004 0.0000
# 3 46.6176 60.9930 140.5071 -0.0090 -0.0025 0.0001
# 4 -0.0001 -0.0012 -0.0090 29.8513 -0.0010 0.0001
# 5 0.0003 -0.0004 -0.0025 -0.0010 18.5123 0.0004
# 6 0.0002 0.0000 0.0001 0.0001 0.0004 15.6362
#
#
#
# Elastic Compliance Matrix: (Units=1/GPa)
#
#
# Indices 1 2 3 4 5 6 
#
# 1 0.019348 -0.001746 -0.005661 -0.000002 -0.000001 0.000000
# 2 -0.001746 0.009233 -0.003429 -0.000001 0.000000 0.000000
# 3 -0.005661 -0.003429 0.010484 0.000003 0.000001 0.000000
# 4 -0.000002 -0.000001 0.000003 0.033499 0.000002 0.000000
# 5 -0.000001 0.000000 0.000001 0.000002 0.054018 -0.000001
# 6 0.000000 0.000000 0.000000 0.000000 -0.000001 0.063954
#
#
# Mechanical properties :
#
#
# Convention : Reuss Voigt Hill
#
# Bulk Modulus (GPa) = 57.49558 68.97793 63.23675
# Shear Modulus (GPa) = 22.93499 26.62826 24.78163
#
# Velocity S-wave (km/s) = 3.61406 3.89419 3.75673
# Velocity P-wave (km/s) = 7.08228 7.71377 7.40476
#
# Compressibility (1/GPa) = 0.01739264
#
# Stress axis : x y z
#
# Youngs Moduli (GPa) = 51.68384 108.30375 95.38554
#
# Poissons Ratio (x) = 0.18914 0.54001
# Poissons Ratio (y) = 0.09026 0.32705
# Poissons Ratio (z) = 0.29260 0.37134
#
# Static dielectric constant tensor:
#      x y z
#    x 3.055180 0.000000 0.000000 
#    y 0.000000 3.154950 0.000000 
#    z 0.000000 0.000000 3.357140 
# 
# 
# High freq. dielectric constant tensor:
#      x y z
#    x 1.650400 0.000000 0.000000 
#    y 0.000000 1.679310 0.000000 
#    z 0.000000 0.000000 1.698800 
# 
# From -- ./inp_files/2304.got.cif
#   From: 2010.03.12/outbox.cif.g09.slc.cpg/sg72_2_cif.got.tgz:2304.got - 2010.04.16 14:54:00.
