data_PCOD8293967
_publ_section_title
;
Structure prediction by ZEFSAII (Michael W. Deem and Ramdas Pophale) SiO2 
 PCOD8293967
Probable space group: I B A M
;
_chemical_formula_sum "Si O2"
_cell_formula_units_Z 72
_cell_length_a 7.448266
_cell_length_b 23.233668
_cell_length_c 20.420760
_cell_angle_alpha 90.000000
_cell_angle_beta 90.000000
_cell_angle_gamma 90.000000
_cell_volume 3533.823533
_symmetry_space_group_name_H-M "I B A M"
_symmetry_group_IT_number 72
_symmetry_cell_setting 'orthorhombic'
loop_
_space_group_symop_operation_xyz
x,y,z
-x,-y,z
x,-y,1/2-z
-x,y,1/2-z
-x,-y,-z
x,y,-z
-x,y,1/2+z
x,-y,1/2+z
1/2+x,1/2+y,1/2+z
1/2-x,1/2-y,1/2+z
1/2+x,1/2-y,-z
1/2-x,1/2+y,-z
1/2-x,1/2-y,1/2-z
1/2+x,1/2+y,1/2-z
1/2-x,1/2+y,z
1/2+x,1/2-y,z
loop_
_atom_site_type_symbol
_atom_site_label
_atom_site_fract_x
_atom_site_fract_y
_atom_site_fract_z
Si Si1 0.000000 0.636449 0.250000
Si Si2 0.031220 0.315481 0.384391
Si Si3 0.421775 0.306504 0.573767
Si Si4 0.788063 0.897523 0.575870
Si Si5 0.813545 0.533997 0.191386
O O1 0.078181 0.674997 0.191753
O O2 0.157482 0.597719 0.280277
O O3 0.214178 0.323799 0.424309
O O4 0.953182 0.251330 0.385750
O O5 0.893904 0.361143 0.415262
O O6 0.481948 0.292796 0.500000
O O7 0.543485 0.359111 0.599438
O O8 0.806080 0.916945 0.500000
O O9 0.787459 0.955456 0.621945
O O10 0.706619 0.500000 0.250000
O O11 0.000000 0.500000 0.177999
#
# Coordination Sequence:
#
# PCOD8293967 Si02
#       5
#     8  16  16  16  16
#     4   8  19  34  54  80 106 148 193 222 276 338
#     4  11  20  35  52  77 119 157 184 227 270 326
#     4  11  21  33  52  80 116 154 186 222 270 327
#     4  10  20  34  56  86 111 147 193 226 274 340
#     4   8  16  36  60  78 106 141 183 239 292 333
#
# _framework density 20.374531999999999
#
# number of rings (size 3 to 8) (size 9 to 14) (size 15 to 20)
#    0.000    2.444    2.222    2.000    0.000    1.333 
#    0.000    0.000    0.000   24.000    0.000   29.556 
#    0.000    0.000    0.000    0.000    0.000    0.000 
#
# Total GULP energy -446142.640540 kJ/mol
# GULP energy per Si atom -12392.851126 kJ/mol
# Density = 2.032816 g / cm^3
# Si number density = 20.374532 Si / 1000 Ang^3
#
#
#
# Elastic Constant Matrix: (Units=GPa)
#
#
# Indices 1 2 3 4 5 6 
#
# 1 88.5596 19.8333 4.1340 0.0000 0.0000 0.0000
# 2 19.8333 83.7668 54.2531 0.0000 0.0000 0.0000
# 3 4.1340 54.2531 121.6119 0.0000 0.0000 0.0000
# 4 0.0000 0.0000 0.0000 38.0033 0.0000 0.0000
# 5 0.0000 0.0000 0.0000 0.0000 14.0794 0.0000
# 6 0.0000 0.0000 0.0000 0.0000 0.0000 20.3113
#
#
#
# Elastic Compliance Matrix: (Units=1/GPa)
#
#
# Indices 1 2 3 4 5 6 
#
# 1 0.012050 -0.003639 0.001214 0.000000 0.000000 0.000000
# 2 -0.003639 0.017888 -0.007856 0.000000 0.000000 0.000000
# 3 0.001214 -0.007856 0.011686 0.000000 0.000000 0.000000
# 4 0.000000 0.000000 0.000000 0.026314 0.000000 0.000000
# 5 0.000000 0.000000 0.000000 0.000000 0.071026 0.000000
# 6 0.000000 0.000000 0.000000 0.000000 0.000000 0.049234
#
#
# Mechanical properties :
#
#
# Convention : Reuss Voigt Hill
#
# Bulk Modulus (GPa) = 47.48104 50.04213 48.76159
# Shear Modulus (GPa) = 23.17163 28.86000 26.01581
#
# Velocity S-wave (km/s) = 3.37602 3.76769 3.57722
# Velocity P-wave (km/s) = 6.20898 6.59862 6.40676
#
# Compressibility (1/GPa) = 0.02106104
#
# Stress axis : x y z
#
# Youngs Moduli (GPa) = 82.98614 55.90374 85.56906
#
# Poissons Ratio (x) = 0.20345 -0.10387
# Poissons Ratio (y) = 0.30201 0.67226
# Poissons Ratio (z) = -0.10074 0.43920
#
# Static dielectric constant tensor:
#      x y z
#    x 3.406920 0.000000 0.000000 
#    y 0.000000 3.643260 0.000000 
#    z 0.000000 0.000000 4.076200 
# 
# 
# High freq. dielectric constant tensor:
#      x y z
#    x 1.771210 0.000000 0.000000 
#    y 0.000000 1.783490 0.000000 
#    z 0.000000 0.000000 1.806330 
# 
# From -- ./inp_files/35631.got.cif
#   From: 2010.03.12/outbox.cif.g09.slc.cpg/sg72_18_cif.got.tgz:35631.got - 2010.04.16 14:54:00.
