data_PCOD8293582
_publ_section_title
;
Structure prediction by ZEFSAII (Michael W. Deem and Ramdas Pophale) SiO2 
 PCOD8293582
Probable space group: I B A M
;
_chemical_formula_sum "Si O2"
_cell_formula_units_Z 112
_cell_length_a 12.442166
_cell_length_b 26.580552
_cell_length_c 18.145812
_cell_angle_alpha 90.000000
_cell_angle_beta 90.000000
_cell_angle_gamma 90.000000
_cell_volume 6001.176419
_symmetry_space_group_name_H-M "I B A M"
_symmetry_group_IT_number 72
_symmetry_cell_setting 'orthorhombic'
loop_
_space_group_symop_operation_xyz
x,y,z
-x,-y,z
x,-y,1/2-z
-x,y,1/2-z
-x,-y,-z
x,y,-z
-x,y,1/2+z
x,-y,1/2+z
1/2+x,1/2+y,1/2+z
1/2-x,1/2-y,1/2+z
1/2+x,1/2-y,-z
1/2-x,1/2+y,-z
1/2-x,1/2-y,1/2-z
1/2+x,1/2+y,1/2-z
1/2-x,1/2+y,z
1/2+x,1/2-y,z
loop_
_atom_site_type_symbol
_atom_site_label
_atom_site_fract_x
_atom_site_fract_y
_atom_site_fract_z
Si Si1 0.392991 0.128305 0.206582
Si Si2 0.027420 0.904143 0.585117
Si Si3 0.828918 0.943797 0.664175
Si Si4 0.499925 0.808817 0.915527
Si Si5 0.217762 0.657909 0.347880
Si Si6 0.578372 0.699634 0.915208
Si Si7 0.715746 0.555048 0.329174
O O1 0.500000 0.111624 0.250000
O O2 0.416819 0.161765 0.135619
O O3 0.317527 0.160593 0.262135
O O4 0.335045 0.077829 0.178350
O O5 0.016793 0.917222 0.500000
O O6 0.148653 0.913893 0.610881
O O7 0.945958 0.941090 0.627557
O O8 0.001999 0.846029 0.601914
O O9 0.752712 0.899414 0.632588
O O10 0.845883 0.939263 0.751646
O O11 0.773312 0.997108 0.645441
O O12 0.378572 0.825860 0.901017
O O13 0.512620 0.749913 0.897124
O O14 0.529592 0.820290 0.000000
O O15 0.317222 0.695376 0.362672
O O16 0.617549 0.698262 0.000000
#
# Coordination Sequence:
#
# PCOD8293582 Si02
#       7
#    16  16  16  16  16  16  16
#     4   9  20  37  54  77 104 133 177 225 263 303
#     4  10  20  33  51  80 114 139 168 213 259 312
#     4   9  19  35  54  76 103 141 178 206 253 317
#     4  10  20  35  54  75 102 136 172 216 267 315
#     4   9  18  36  55  73 101 136 176 216 257 311
#     4   9  19  34  53  77 104 140 178 207 252 316
#     4  10  19  34  55  77 104 140 176 214 260 306
#
# _framework density 18.663008000000001
#
# number of rings (size 3 to 8) (size 9 to 14) (size 15 to 20)
#    0.000    2.571    0.000    1.286    0.000    5.143 
#    0.000   26.429    0.000    0.857    0.000    0.000 
#    0.000    0.000    0.000    0.000    0.000    0.000 
#
# Total GULP energy -694444.227202 kJ/mol
# GULP energy per Si atom -12400.789771 kJ/mol
# Density = 1.862053 g / cm^3
# Si number density = 18.663008 Si / 1000 Ang^3
#
#
#
# Elastic Constant Matrix: (Units=GPa)
#
#
# Indices 1 2 3 4 5 6 
#
# 1 94.2518 59.5118 41.2822 0.0000 0.0000 0.0000
# 2 59.5118 120.3650 51.0908 0.0001 0.0000 0.0000
# 3 41.2822 51.0908 74.4049 0.0003 -0.0001 0.0000
# 4 0.0000 0.0001 0.0003 25.8009 0.0000 0.0000
# 5 0.0000 0.0000 -0.0001 0.0000 29.2234 0.0000
# 6 0.0000 0.0000 0.0000 0.0000 0.0000 27.1823
#
#
#
# Elastic Compliance Matrix: (Units=1/GPa)
#
#
# Indices 1 2 3 4 5 6 
#
# 1 0.016678 -0.006095 -0.005069 0.000000 0.000000 0.000000
# 2 -0.006095 0.013953 -0.006199 0.000000 0.000000 0.000000
# 3 -0.005069 -0.006199 0.020509 0.000000 0.000000 0.000000
# 4 0.000000 0.000000 0.000000 0.038758 0.000000 0.000000
# 5 0.000000 0.000000 0.000000 0.000000 0.034219 0.000000
# 6 0.000000 0.000000 0.000000 0.000000 0.000000 0.036789
#
#
# Mechanical properties :
#
#
# Convention : Reuss Voigt Hill
#
# Bulk Modulus (GPa) = 60.92064 65.86571 63.39318
# Shear Modulus (GPa) = 24.86288 25.58379 25.22334
#
# Velocity S-wave (km/s) = 3.65389 3.70649 3.68028
# Velocity P-wave (km/s) = 7.10736 7.32708 7.21806
#
# Compressibility (1/GPa) = 0.01641480
#
# Stress axis : x y z
#
# Youngs Moduli (GPa) = 59.95845 71.66996 48.75908
#
# Poissons Ratio (x) = 0.43681 0.24714
# Poissons Ratio (y) = 0.36543 0.30227
# Poissons Ratio (z) = 0.30391 0.44430
#
# Static dielectric constant tensor:
#      x y z
#    x 3.359820 0.000000 0.000000 
#    y 0.000000 3.468010 0.000000 
#    z 0.000000 0.000000 3.443410 
# 
# 
# High freq. dielectric constant tensor:
#      x y z
#    x 1.716580 0.000000 0.000000 
#    y 0.000000 1.722900 0.000000 
#    z 0.000000 0.000000 1.722760 
# 
# From -- ./inp_files/37311.got.cif
#   From: 2010.03.12/outbox.cif.g09.slc.cpg/sg72_19_cif.got.tgz:37311.got - 2010.04.16 14:54:00.
