data_PCOD8293420
_publ_section_title
;
Structure prediction by ZEFSAII (Michael W. Deem and Ramdas Pophale) SiO2 
 PCOD8293420
Probable space group: I B A M
;
_chemical_formula_sum "Si O2"
_cell_formula_units_Z 80
_cell_length_a 19.566373
_cell_length_b 25.939015
_cell_length_c 8.671829
_cell_angle_alpha 90.000000
_cell_angle_beta 90.000000
_cell_angle_gamma 90.000000
_cell_volume 4401.234555
_symmetry_space_group_name_H-M "I B A M"
_symmetry_group_IT_number 72
_symmetry_cell_setting 'orthorhombic'
loop_
_space_group_symop_operation_xyz
x,y,z
-x,-y,z
x,-y,1/2-z
-x,y,1/2-z
-x,-y,-z
x,y,-z
-x,y,1/2+z
x,-y,1/2+z
1/2+x,1/2+y,1/2+z
1/2-x,1/2-y,1/2+z
1/2+x,1/2-y,-z
1/2-x,1/2+y,-z
1/2-x,1/2-y,1/2-z
1/2+x,1/2+y,1/2-z
1/2-x,1/2+y,z
1/2+x,1/2-y,z
loop_
_atom_site_type_symbol
_atom_site_label
_atom_site_fract_x
_atom_site_fract_y
_atom_site_fract_z
Si Si1 0.427139 0.554614 0.817406
Si Si2 0.670509 0.137374 0.818984
Si Si3 0.819630 0.859943 0.181121
Si Si4 0.427820 0.945152 0.318677
Si Si5 0.176952 0.251720 0.821847
O O1 0.403077 0.500000 0.750000
O O2 0.500000 0.571262 0.750000
O O3 0.372156 0.596665 0.764113
O O4 0.433093 0.550560 0.000000
O O5 0.750528 0.133353 0.777879
O O6 0.629794 0.096085 0.720252
O O7 0.640614 0.194598 0.769745
O O8 0.660506 0.126050 0.000000
O O9 0.857064 0.804071 0.215105
O O10 0.802208 0.864851 0.000000
O O11 0.500000 0.926650 0.250000
O O12 0.435521 0.950914 0.500000
O O13 0.405429 0.000000 0.250000
O O14 0.250000 0.250000 0.750000
O O15 0.189504 0.258461 0.000000
#
# Coordination Sequence:
#
# PCOD8293420 Si02
#       5
#    16  16  16  16  16
#     4  10  20  34  52  71  97 131 167 207 253 302
#     4  10  19  32  53  80 106 134 168 208 251 300
#     4   9  18  33  52  75 102 135 172 213 255 297
#     4  11  22  38  57  76 102 135 170 209 253 304
#     4   8  15  29  49  72 101 133 167 205 249 297
#
# _framework density 18.176718999999999
#
# number of rings (size 3 to 8) (size 9 to 14) (size 15 to 20)
#    0.000    2.400    0.000    4.200    0.000    3.200 
#    0.000    3.000    0.000    2.400    0.000    0.000 
#    0.000    0.000    0.000    0.000    0.000    0.000 
#
# Total GULP energy -495573.548180 kJ/mol
# GULP energy per Si atom -12389.338704 kJ/mol
# Density = 1.813535 g / cm^3
# Si number density = 18.176719 Si / 1000 Ang^3
#
#
#
# Elastic Constant Matrix: (Units=GPa)
#
#
# Indices 1 2 3 4 5 6 
#
# 1 70.2503 73.6705 29.2974 0.0000 0.0000 0.0000
# 2 73.6705 156.8853 46.5200 0.0000 0.0000 0.0000
# 3 29.2974 46.5200 81.9959 0.0000 0.0000 0.0000
# 4 0.0000 0.0000 0.0000 25.1713 0.0000 0.0000
# 5 0.0000 0.0000 0.0000 0.0000 26.8380 0.0000
# 6 0.0000 0.0000 0.0000 0.0000 0.0000 -0.4595
#
#
#
# Elastic Compliance Matrix: (Units=1/GPa)
#
#
# Indices 1 2 3 4 5 6 
#
# 1 0.028701 -0.012548 -0.003136 0.000000 0.000000 0.000000
# 2 -0.012548 0.013149 -0.002977 0.000000 0.000000 0.000000
# 3 -0.003136 -0.002977 0.015005 0.000000 0.000000 0.000000
# 4 0.000000 0.000000 0.000000 0.039728 0.000000 0.000000
# 5 0.000000 0.000000 0.000000 0.000000 0.037261 0.000000
# 6 0.000000 0.000000 0.000000 0.000000 0.000000 -2.176139
#
#
# Mechanical properties :
#
#
# Convention : Reuss Voigt Hill
#
# Bulk Modulus (GPa) = 51.19212 67.56747 59.37979
# Shear Modulus (GPa) = -2.50192 20.95286 9.22547
#
# Velocity S-wave (km/s) = -1.17449 3.39887 2.25532
# Velocity P-wave (km/s) = 5.13668 7.25647 6.28657
#
# Compressibility (1/GPa) = 0.01953426
#
# Stress axis : x y z
#
# Youngs Moduli (GPa) = 34.84165 76.05214 66.64406
#
# Poissons Ratio (x) = 0.95428 0.20901
# Poissons Ratio (y) = 0.43718 0.19838
# Poissons Ratio (z) = 0.10927 0.22638
#
# Static dielectric constant tensor:
#      x y z
#    x 3.048360 0.000000 0.000000 
#    y 0.000000 4.130390 0.000000 
#    z 0.000000 0.000000 3.700130 
# 
# 
# High freq. dielectric constant tensor:
#      x y z
#    x 1.668060 0.000000 0.000000 
#    y 0.000000 1.729280 0.000000 
#    z 0.000000 0.000000 1.714070 
# 
# From -- ./inp_files/4771.got.cif
#   From: 2010.03.12/outbox.cif.g09.slc.cpg/sg72_3_cif.got.tgz:4771.got - 2010.04.16 14:54:00.
