data_PCOD8293131
_publ_section_title
;
Structure prediction by ZEFSAII (Michael W. Deem and Ramdas Pophale) SiO2 
 PCOD8293131
Probable space group: I B A M
;
_chemical_formula_sum "Si O2"
_cell_formula_units_Z 96
_cell_length_a 9.399290
_cell_length_b 22.446524
_cell_length_c 23.790058
_cell_angle_alpha 90.000000
_cell_angle_beta 90.000000
_cell_angle_gamma 90.000000
_cell_volume 5019.259471
_symmetry_space_group_name_H-M "I B A M"
_symmetry_group_IT_number 72
_symmetry_cell_setting 'orthorhombic'
loop_
_space_group_symop_operation_xyz
x,y,z
-x,-y,z
x,-y,1/2-z
-x,y,1/2-z
-x,-y,-z
x,y,-z
-x,y,1/2+z
x,-y,1/2+z
1/2+x,1/2+y,1/2+z
1/2-x,1/2-y,1/2+z
1/2+x,1/2-y,-z
1/2-x,1/2+y,-z
1/2-x,1/2-y,1/2-z
1/2+x,1/2+y,1/2-z
1/2-x,1/2+y,z
1/2+x,1/2-y,z
loop_
_atom_site_type_symbol
_atom_site_label
_atom_site_fract_x
_atom_site_fract_y
_atom_site_fract_z
Si Si1 0.534780 0.349282 0.934886
Si Si2 0.721400 0.642578 0.863004
Si Si3 0.436614 0.788813 0.061593
Si Si4 0.524933 0.930199 0.686765
Si Si5 0.667066 0.150988 0.618780
Si Si6 0.626672 0.255287 0.291819
O O1 0.394895 0.381874 0.908245
O O2 0.515692 0.278672 0.927713
O O3 0.674533 0.366941 0.899466
O O4 0.548828 0.368683 0.000000
O O5 0.824850 0.691229 0.891513
O O6 0.817668 0.589937 0.835646
O O7 0.627323 0.677661 0.816883
O O8 0.577518 0.830065 0.063522
O O9 0.366318 0.795630 0.000000
O O10 0.500000 0.905984 0.750000
O O11 0.400444 0.906657 0.647032
O O12 0.500000 0.000000 0.684930
O O13 0.644622 0.206612 0.659980
O O14 0.500000 0.242238 0.250000
O O15 0.750000 0.250000 0.250000
#
# Coordination Sequence:
#
# PCOD8293131 Si02
#       6
#    16  16  16  16  16  16
#     4  11  20  33  55  88 124 153 187 232 290 354
#     4  11  21  35  56  85 118 150 192 240 293 347
#     4  10  18  32  53  81 120 158 190 223 276 353
#     4  10  23  44  64  80 105 153 208 246 284 345
#     4  11  20  35  55  85 119 155 188 233 287 348
#     4  12  21  31  49  81 121 149 182 230 296 349
#
# _framework density 19.126327
#
# number of rings (size 3 to 8) (size 9 to 14) (size 15 to 20)
#    0.000    1.167    3.333    5.500    0.000    2.667 
#    0.000    0.833    0.000   21.000    0.000    0.000 
#    0.000    0.000    0.000    0.000    0.000    0.000 
#
# Total GULP energy -594841.569046 kJ/mol
# GULP energy per Si atom -12392.532688 kJ/mol
# Density = 1.908279 g / cm^3
# Si number density = 19.126327 Si / 1000 Ang^3
#
#
#
# Elastic Constant Matrix: (Units=GPa)
#
#
# Indices 1 2 3 4 5 6 
#
# 1 132.9036 19.6334 54.2738 0.0000 0.0000 0.0000
# 2 19.6334 49.1186 27.8599 0.0000 0.0000 0.0000
# 3 54.2738 27.8599 107.1703 0.0000 0.0000 0.0000
# 4 0.0000 0.0000 0.0000 23.9014 0.0000 0.0000
# 5 0.0000 0.0000 0.0000 0.0000 38.1953 0.0000
# 6 0.0000 0.0000 0.0000 0.0000 0.0000 5.5061
#
#
#
# Elastic Compliance Matrix: (Units=1/GPa)
#
#
# Indices 1 2 3 4 5 6 
#
# 1 0.009552 -0.001260 -0.004510 0.000000 0.000000 0.000000
# 2 -0.001260 0.024046 -0.005613 0.000000 0.000000 0.000000
# 3 -0.004510 -0.005613 0.013074 0.000000 0.000000 0.000000
# 4 0.000000 0.000000 0.000000 0.041839 0.000000 0.000000
# 5 0.000000 0.000000 0.000000 0.000000 0.026181 0.000000
# 6 0.000000 0.000000 0.000000 0.000000 0.000000 0.181616
#
#
# Mechanical properties :
#
#
# Convention : Reuss Voigt Hill
#
# Bulk Modulus (GPa) = 41.82956 54.74743 48.28849
# Shear Modulus (GPa) = 15.28852 26.01560 20.65206
#
# Velocity S-wave (km/s) = 2.83033 3.69209 3.28955
# Velocity P-wave (km/s) = 5.70953 6.84555 6.30319
#
# Compressibility (1/GPa) = 0.02390654
#
# Stress axis : x y z
#
# Youngs Moduli (GPa) = 104.68919 41.58666 76.48791
#
# Poissons Ratio (x) = 0.05240 0.34495
# Poissons Ratio (y) = 0.13192 0.42932
# Poissons Ratio (z) = 0.47213 0.23342
#
# Static dielectric constant tensor:
#      x y z
#    x 3.690780 0.000000 0.000000 
#    y 0.000000 3.014430 0.000000 
#    z 0.000000 0.000000 3.869270 
# 
# 
# High freq. dielectric constant tensor:
#      x y z
#    x 1.757960 0.000000 0.000000 
#    y 0.000000 1.688920 0.000000 
#    z 0.000000 0.000000 1.764820 
# 
# From -- ./inp_files/42383.got.cif
#   From: 2010.03.12/outbox.cif.g09.slc.cpg/sg72_22_cif.got.tgz:42383.got - 2010.04.16 14:54:00.
