data_PCOD8293867
_publ_section_title
;
Structure prediction by ZEFSAII (Michael W. Deem and Ramdas Pophale) SiO2 
 PCOD8293867
Probable space group: I B A M
;
_chemical_formula_sum "Si O2"
_cell_formula_units_Z 64
_cell_length_a 8.934428
_cell_length_b 23.281720
_cell_length_c 16.880776
_cell_angle_alpha 90.000000
_cell_angle_beta 90.000000
_cell_angle_gamma 90.000000
_cell_volume 3511.350821
_symmetry_space_group_name_H-M "I B A M"
_symmetry_group_IT_number 72
_symmetry_cell_setting 'orthorhombic'
loop_
_space_group_symop_operation_xyz
x,y,z
-x,-y,z
x,-y,1/2-z
-x,y,1/2-z
-x,-y,-z
x,y,-z
-x,y,1/2+z
x,-y,1/2+z
1/2+x,1/2+y,1/2+z
1/2-x,1/2-y,1/2+z
1/2+x,1/2-y,-z
1/2-x,1/2+y,-z
1/2-x,1/2-y,1/2-z
1/2+x,1/2+y,1/2-z
1/2-x,1/2+y,z
1/2+x,1/2-y,z
loop_
_atom_site_type_symbol
_atom_site_label
_atom_site_fract_x
_atom_site_fract_y
_atom_site_fract_z
Si Si1 0.113171 0.417969 0.821667
Si Si2 0.670683 0.809191 0.764119
Si Si3 0.327190 0.496294 0.590813
Si Si4 0.660254 0.879957 0.911742
O O1 0.211885 0.362429 0.794517
O O2 0.227276 0.467279 0.847727
O O3 0.000000 0.436644 0.750000
O O4 0.007751 0.402842 0.895900
O O5 0.500000 0.795071 0.750000
O O6 0.750000 0.750000 0.750000
O O7 0.704562 0.828081 0.853938
O O8 0.500000 0.500000 0.616219
O O9 0.304704 0.517893 0.500000
O O10 0.279454 0.430634 0.599484
O O11 0.666477 0.855044 0.000000
#
# Coordination Sequence:
#
# PCOD8293867 Si02
#       4
#    16  16  16  16
#     4   9  19  34  53  76 104 139 180 211 253 317
#     4   9  20  36  52  72  99 132 175 219 260 308
#     4  10  20  33  52  82 113 137 168 216 269 314
#     4   9  18  34  54  74 102 139 175 211 256 316
#
# _framework density 18.226603999999998
#
# number of rings (size 3 to 8) (size 9 to 14) (size 15 to 20)
#    0.000    3.250    0.000    1.500    0.000   12.000 
#    0.000   15.000    0.000    0.000    0.000    0.000 
#    0.000    0.000    0.000    0.000    0.000    0.000 
#
# Total GULP energy -396544.911004 kJ/mol
# GULP energy per Si atom -12392.028469 kJ/mol
# Density = 1.818512 g / cm^3
# Si number density = 18.226604 Si / 1000 Ang^3
#
#
#
# Elastic Constant Matrix: (Units=GPa)
#
#
# Indices 1 2 3 4 5 6 
#
# 1 73.2397 56.0025 58.5764 0.0000 0.0000 0.0000
# 2 56.0025 109.0076 81.2439 0.0000 0.0000 0.0000
# 3 58.5764 81.2439 123.8952 0.0001 -0.0001 0.0000
# 4 0.0000 0.0000 0.0001 22.1318 0.0000 0.0000
# 5 0.0000 0.0000 -0.0001 0.0000 22.5083 0.0000
# 6 0.0000 0.0000 0.0000 0.0000 0.0000 38.0944
#
#
#
# Elastic Compliance Matrix: (Units=1/GPa)
#
#
# Indices 1 2 3 4 5 6 
#
# 1 0.025004 -0.007892 -0.006646 0.000000 0.000000 0.000000
# 2 -0.007892 0.020434 -0.009668 0.000000 0.000000 0.000000
# 3 -0.006646 -0.009668 0.017554 0.000000 0.000000 0.000000
# 4 0.000000 0.000000 0.000000 0.045184 0.000000 0.000000
# 5 0.000000 0.000000 0.000000 0.000000 0.044428 0.000000
# 6 0.000000 0.000000 0.000000 0.000000 0.000000 0.026251
#
#
# Mechanical properties :
#
#
# Convention : Reuss Voigt Hill
#
# Bulk Modulus (GPa) = 68.59581 77.53201 73.06391
# Shear Modulus (GPa) = 21.53984 23.90155 22.72070
#
# Velocity S-wave (km/s) = 3.44143 3.62519 3.53451
# Velocity P-wave (km/s) = 7.31491 7.75583 7.53860
#
# Compressibility (1/GPa) = 0.01457815
#
# Stress axis : x y z
#
# Youngs Moduli (GPa) = 39.99297 48.93773 56.96840
#
# Poissons Ratio (x) = 0.38623 0.37864
# Poissons Ratio (y) = 0.31564 0.55078
# Poissons Ratio (z) = 0.26581 0.47314
#
# Static dielectric constant tensor:
#      x y z
#    x 3.276340 0.000000 0.000000 
#    y 0.000000 3.886230 0.000000 
#    z 0.000000 0.000000 3.575840 
# 
# 
# High freq. dielectric constant tensor:
#      x y z
#    x 1.693370 0.000000 0.000000 
#    y 0.000000 1.694840 0.000000 
#    z 0.000000 0.000000 1.713820 
# 
# From -- ./inp_files/18676.got.cif
#   From: 2010.03.12/outbox.cif.g09.slc.cpg/sg72_10_cif.got.tgz:18676.got - 2010.04.16 14:54:00.
