data_PCOD8293607
_publ_section_title
;
Structure prediction by ZEFSAII (Michael W. Deem and Ramdas Pophale) SiO2 
 PCOD8293607
Probable space group: I B A M
;
_chemical_formula_sum "Si O2"
_cell_formula_units_Z 112
_cell_length_a 12.394652
_cell_length_b 22.381217
_cell_length_c 20.022614
_cell_angle_alpha 90.000000
_cell_angle_beta 90.000000
_cell_angle_gamma 90.000000
_cell_volume 5554.421212
_symmetry_space_group_name_H-M "I B A M"
_symmetry_group_IT_number 72
_symmetry_cell_setting 'orthorhombic'
loop_
_space_group_symop_operation_xyz
x,y,z
-x,-y,z
x,-y,1/2-z
-x,y,1/2-z
-x,-y,-z
x,y,-z
-x,y,1/2+z
x,-y,1/2+z
1/2+x,1/2+y,1/2+z
1/2-x,1/2-y,1/2+z
1/2+x,1/2-y,-z
1/2-x,1/2+y,-z
1/2-x,1/2-y,1/2-z
1/2+x,1/2+y,1/2-z
1/2-x,1/2+y,z
1/2+x,1/2-y,z
loop_
_atom_site_type_symbol
_atom_site_label
_atom_site_fract_x
_atom_site_fract_y
_atom_site_fract_z
Si Si1 0.541910 0.438474 0.577166
Si Si2 0.035772 0.716064 0.354159
Si Si3 0.603670 0.666659 0.576256
Si Si4 0.707480 0.899351 0.867777
Si Si5 0.728105 0.976540 0.421872
Si Si6 0.333784 0.800459 0.727723
Si Si7 0.525552 0.101247 0.076010
O O1 0.500000 0.500000 0.610704
O O2 0.507149 0.439532 0.500000
O O3 0.480156 0.381504 0.607525
O O4 0.670526 0.431774 0.586656
O O5 0.091124 0.777447 0.374940
O O6 0.094914 0.685283 0.291916
O O7 0.054047 0.670972 0.415800
O O8 0.909427 0.724027 0.333490
O O9 0.576623 0.684390 0.500000
O O10 0.725735 0.641422 0.579691
O O11 0.719298 0.863864 0.796795
O O12 0.582203 0.909943 0.882845
O O13 0.752913 0.966878 0.873288
O O14 0.719639 0.996816 0.500000
O O15 0.621345 0.941663 0.398198
O O16 0.250000 0.750000 0.750000
O O17 0.501991 0.085918 0.000000
#
# Coordination Sequence:
#
# PCOD8293607 Si02
#       7
#    16  16  16  16  16  16  16
#     4   9  17  30  49  78 117 153 188 230 285 358
#     4  10  22  38  58  82 112 152 202 250 291 353
#     4  11  20  33  58  89 118 152 193 241 300 361
#     4  11  20  34  59  86 116 153 199 242 288 358
#     4  10  19  34  56  85 124 162 190 233 304 366
#     4  10  21  40  59  80 108 153 205 247 293 336
#     4  10  21  36  55  86 122 152 189 242 305 359
#
# _framework density 20.164117000000001
#
# number of rings (size 3 to 8) (size 9 to 14) (size 15 to 20)
#    0.000    1.857    2.857    2.143    0.000    2.286 
#    0.000    0.714    0.000    3.429    0.000    2.000 
#    0.000    0.000    0.000    0.000    0.000    0.000 
#
# Total GULP energy -693892.378418 kJ/mol
# GULP energy per Si atom -12390.935329 kJ/mol
# Density = 2.011822 g / cm^3
# Si number density = 20.164117 Si / 1000 Ang^3
#
#
#
# Elastic Constant Matrix: (Units=GPa)
#
#
# Indices 1 2 3 4 5 6 
#
# 1 98.0298 36.2452 22.7106 0.0000 0.0000 0.0000
# 2 36.2452 112.3674 36.1274 0.0000 0.0000 0.0000
# 3 22.7106 36.1274 55.5796 0.0000 0.0000 0.0000
# 4 0.0000 0.0000 0.0000 33.8184 0.0000 0.0000
# 5 0.0000 0.0000 0.0000 0.0000 20.6537 0.0000
# 6 0.0000 0.0000 0.0000 0.0000 0.0000 36.6814
#
#
#
# Elastic Compliance Matrix: (Units=1/GPa)
#
#
# Indices 1 2 3 4 5 6 
#
# 1 0.011968 -0.002893 -0.003010 0.000000 0.000000 0.000000
# 2 -0.002893 0.011950 -0.006586 0.000000 0.000000 0.000000
# 3 -0.003010 -0.006586 0.023503 0.000000 0.000000 0.000000
# 4 0.000000 0.000000 0.000000 0.029570 0.000000 0.000000
# 5 0.000000 0.000000 0.000000 0.000000 0.048417 0.000000
# 6 0.000000 0.000000 0.000000 0.000000 0.000000 0.027262
#
#
# Mechanical properties :
#
#
# Convention : Reuss Voigt Hill
#
# Bulk Modulus (GPa) = 44.55506 50.68257 47.61881
# Shear Modulus (GPa) = 27.00852 29.62362 28.31607
#
# Velocity S-wave (km/s) = 3.66380 3.83708 3.75144
# Velocity P-wave (km/s) = 6.32788 6.69481 6.51393
#
# Compressibility (1/GPa) = 0.02244414
#
# Stress axis : x y z
#
# Youngs Moduli (GPa) = 83.55756 83.68395 42.54814
#
# Poissons Ratio (x) = 0.24206 0.12807
# Poissons Ratio (y) = 0.24170 0.28020
# Poissons Ratio (z) = 0.25151 0.55110
#
# Static dielectric constant tensor:
#      x y z
#    x 3.827950 0.000000 0.000000 
#    y 0.000000 3.799040 0.000000 
#    z 0.000000 0.000000 3.438000 
# 
# 
# High freq. dielectric constant tensor:
#      x y z
#    x 1.801490 0.000000 0.000000 
#    y 0.000000 1.786330 0.000000 
#    z 0.000000 0.000000 1.744140 
# 
# From -- ./inp_files/37328.got.cif
#   From: 2010.03.12/outbox.cif.g09.slc.cpg/sg72_19_cif.got.tgz:37328.got - 2010.04.16 14:54:00.
