data_PCOD8293372
_publ_section_title
;
Structure prediction by ZEFSAII (Michael W. Deem and Ramdas Pophale) SiO2 
 PCOD8293372
Probable space group: I B A M
;
_chemical_formula_sum "Si O2"
_cell_formula_units_Z 112
_cell_length_a 37.442370
_cell_length_b 18.700107
_cell_length_c 9.664983
_cell_angle_alpha 90.000000
_cell_angle_beta 90.000000
_cell_angle_gamma 90.000000
_cell_volume 6767.192281
_symmetry_space_group_name_H-M "I B A M"
_symmetry_group_IT_number 72
_symmetry_cell_setting 'orthorhombic'
loop_
_space_group_symop_operation_xyz
x,y,z
-x,-y,z
x,-y,1/2-z
-x,y,1/2-z
-x,-y,-z
x,y,-z
-x,y,1/2+z
x,-y,1/2+z
1/2+x,1/2+y,1/2+z
1/2-x,1/2-y,1/2+z
1/2+x,1/2-y,-z
1/2-x,1/2+y,-z
1/2-x,1/2-y,1/2-z
1/2+x,1/2+y,1/2-z
1/2-x,1/2+y,z
1/2+x,1/2-y,z
loop_
_atom_site_type_symbol
_atom_site_label
_atom_site_fract_x
_atom_site_fract_y
_atom_site_fract_z
Si Si1 0.314036 0.567850 0.159796
Si Si2 0.396881 0.434552 0.659287
Si Si3 0.216923 0.778277 0.336352
Si Si4 0.353559 0.795774 0.838270
Si Si5 0.920641 0.784432 0.836703
Si Si6 0.466520 0.841794 0.839288
Si Si7 0.895908 0.568626 0.158402
O O1 0.300868 0.500000 0.250000
O O2 0.355640 0.584637 0.189892
O O3 0.291468 0.638575 0.198246
O O4 0.308407 0.547366 0.000000
O O5 0.410600 0.500000 0.750000
O O6 0.402106 0.455099 0.500000
O O7 0.422305 0.367966 0.701892
O O8 0.223933 0.768766 0.500000
O O9 0.250000 0.750000 0.250000
O O10 0.184664 0.728303 0.280201
O O11 0.384872 0.748526 0.768330
O O12 0.362557 0.878800 0.809747
O O13 0.352943 0.778720 0.000000
O O14 0.955412 0.738944 0.790650
O O15 0.916951 0.773395 0.000000
O O16 0.500000 0.867936 0.750000
O O17 0.433446 0.893684 0.807716
O O18 0.477294 0.844330 0.000000
O O19 0.890302 0.500000 0.250000
O O20 0.895296 0.544312 0.000000
#
# Coordination Sequence:
#
# PCOD8293372 Si02
#       7
#    16  16  16  16  16  16  16
#     4   9  17  29  47  69  93 120 149 188 235 280
#     4   9  15  25  44  69  92 114 145 187 229 270
#     4  10  19  32  50  71  95 126 162 197 236 283
#     4   8  14  29  50  67  86 118 158 191 226 277
#     4   8  13  26  48  67  86 118 157 189 221 272
#     4   9  18  31  48  70  94 123 158 194 234 280
#     4   9  18  32  51  72  93 122 159 197 237 282
#
# _framework density 16.550438
#
# number of rings (size 3 to 8) (size 9 to 14) (size 15 to 20)
#    0.000    3.143    1.429    1.714    0.000    1.429 
#    0.000    3.571    0.000    5.571    0.000    3.000 
#    0.000    0.000    0.000    0.000    0.000    0.000 
#
# Total GULP energy -693949.088052 kJ/mol
# GULP energy per Si atom -12391.948001 kJ/mol
# Density = 1.651277 g / cm^3
# Si number density = 16.550438 Si / 1000 Ang^3
#
#
#
# Elastic Constant Matrix: (Units=GPa)
#
#
# Indices 1 2 3 4 5 6 
#
# 1 73.9784 38.0462 29.7931 0.0000 0.0000 0.0000
# 2 38.0462 100.5048 46.4595 0.0000 0.0000 0.0000
# 3 29.7931 46.4595 46.4998 0.0000 0.0000 0.0000
# 4 0.0000 0.0000 0.0000 30.4852 0.0000 0.0000
# 5 0.0000 0.0000 0.0000 0.0000 11.1381 0.0000
# 6 0.0000 0.0000 0.0000 0.0000 0.0000 18.5631
#
#
#
# Elastic Compliance Matrix: (Units=1/GPa)
#
#
# Indices 1 2 3 4 5 6 
#
# 1 0.018649 -0.002855 -0.009097 0.000000 0.000000 0.000000
# 2 -0.002855 0.018926 -0.017081 0.000000 0.000000 0.000000
# 3 -0.009097 -0.017081 0.044400 0.000000 0.000000 0.000000
# 4 0.000000 0.000000 0.000000 0.032803 0.000000 0.000000
# 5 0.000000 0.000000 0.000000 0.000000 0.089782 0.000000
# 6 0.000000 0.000000 0.000000 0.000000 0.000000 0.053870
#
#
# Mechanical properties :
#
#
# Convention : Reuss Voigt Hill
#
# Bulk Modulus (GPa) = 41.82171 49.95342 45.88756
# Shear Modulus (GPa) = 15.41003 19.14956 17.27979
#
# Velocity S-wave (km/s) = 3.05470 3.40522 3.23471
# Velocity P-wave (km/s) = 6.14538 6.76083 6.46043
#
# Compressibility (1/GPa) = 0.02391103
#
# Stress axis : x y z
#
# Youngs Moduli (GPa) = 53.62227 52.83686 22.52266
#
# Poissons Ratio (x) = 0.15083 0.20488
# Poissons Ratio (y) = 0.15307 0.38470
# Poissons Ratio (z) = 0.48778 0.90250
#
# Static dielectric constant tensor:
#      x y z
#    x 3.001920 0.000000 0.000000 
#    y 0.000000 3.227560 0.000000 
#    z 0.000000 0.000000 2.815660 
# 
# 
# High freq. dielectric constant tensor:
#      x y z
#    x 1.615850 0.000000 0.000000 
#    y 0.000000 1.644010 0.000000 
#    z 0.000000 0.000000 1.607020 
# 
# From -- ./inp_files/13139.got.cif
#   From: 2010.03.12/outbox.cif.g09.slc.cpg/sg72_7_cif.got.tgz:13139.got - 2010.04.16 14:54:00.
