data_PCOD8293387
_publ_section_title
;
Structure prediction by ZEFSAII (Michael W. Deem and Ramdas Pophale) SiO2 
 PCOD8293387
Probable space group: I B A M
;
_chemical_formula_sum "Si O2"
_cell_formula_units_Z 116
_cell_length_a 26.402999
_cell_length_b 26.787402
_cell_length_c 9.048063
_cell_angle_alpha 90.000000
_cell_angle_beta 90.000000
_cell_angle_gamma 90.000000
_cell_volume 6399.403144
_symmetry_space_group_name_H-M "I B A M"
_symmetry_group_IT_number 72
_symmetry_cell_setting 'orthorhombic'
loop_
_space_group_symop_operation_xyz
x,y,z
-x,-y,z
x,-y,1/2-z
-x,y,1/2-z
-x,-y,-z
x,y,-z
-x,y,1/2+z
x,-y,1/2+z
1/2+x,1/2+y,1/2+z
1/2-x,1/2-y,1/2+z
1/2+x,1/2-y,-z
1/2-x,1/2+y,-z
1/2-x,1/2-y,1/2-z
1/2+x,1/2+y,1/2-z
1/2-x,1/2+y,z
1/2+x,1/2-y,z
loop_
_atom_site_type_symbol
_atom_site_label
_atom_site_fract_x
_atom_site_fract_y
_atom_site_fract_z
Si Si1 0.186647 0.550212 0.825992
Si Si2 0.000000 0.500000 0.750000
Si Si3 0.548094 0.279644 0.671247
Si Si4 0.259762 0.639228 0.825510
Si Si5 0.076234 0.581551 0.164963
Si Si6 0.312604 0.787863 0.169963
Si Si7 0.076740 0.321106 0.168846
Si Si8 0.156900 0.187467 0.327503
O O1 0.205499 0.500000 0.750000
O O2 0.227416 0.591459 0.777117
O O3 0.130183 0.563505 0.769577
O O4 0.186161 0.542456 0.000000
O O5 0.036420 0.535944 0.844912
O O6 0.500000 0.305699 0.750000
O O7 0.536740 0.272413 0.500000
O O8 0.554831 0.224835 0.739596
O O9 0.596391 0.315620 0.696982
O O10 0.231052 0.688318 0.768790
O O11 0.314676 0.639127 0.742736
O O12 0.267678 0.641737 0.000000
O O13 0.055672 0.626721 0.266209
O O14 0.084533 0.602507 0.000000
O O15 0.362558 0.821996 0.181646
O O16 0.322941 0.734090 0.236080
O O17 0.295014 0.782878 0.000000
O O18 0.058552 0.316126 0.000000
O O19 0.169829 0.193126 0.500000
#
# Coordination Sequence:
#
# PCOD8293387 Si02
#       8
#    16   4  16  16  16  16  16  16
#     4  10  22  39  58  77 100 135 175 221 277 329
#     4  12  26  40  56  74  94 132 180 238 292 328
#     4  10  21  37  56  77 106 141 176 212 255 304
#     4  11  21  34  53  77 104 137 173 215 267 321
#     4  11  23  40  56  72  97 129 173 230 285 328
#     4  10  19  32  51  76 104 137 173 213 260 318
#     4  10  21  35  54  76  99 133 176 218 267 319
#     4  10  21  35  52  77 108 140 173 213 257 310
#
# _framework density 18.12669
#
# number of rings (size 3 to 8) (size 9 to 14) (size 15 to 20)
#    0.000    1.655    2.069    2.690    0.966    5.517 
#    0.000    0.000    0.000    0.000    0.000    0.000 
#    0.000    0.552    0.000    6.069    0.000    4.414 
#
# Total GULP energy -719167.102076 kJ/mol
# GULP energy per Si atom -12399.432794 kJ/mol
# Density = 1.808543 g / cm^3
# Si number density = 18.126690 Si / 1000 Ang^3
#
#
#
# Elastic Constant Matrix: (Units=GPa)
#
#
# Indices 1 2 3 4 5 6 
#
# 1 119.5454 44.1626 48.3028 0.0000 0.0000 0.0000
# 2 44.1626 55.1575 24.2558 0.0000 0.0000 0.0000
# 3 48.3028 24.2558 85.3983 0.0000 0.0000 0.0000
# 4 0.0000 0.0000 0.0000 24.9278 0.0000 0.0000
# 5 0.0000 0.0000 0.0000 0.0000 29.5273 0.0000
# 6 0.0000 0.0000 0.0000 0.0000 0.0000 28.0218
#
#
#
# Elastic Compliance Matrix: (Units=1/GPa)
#
#
# Indices 1 2 3 4 5 6 
#
# 1 0.013694 -0.008637 -0.005292 0.000000 0.000000 0.000000
# 2 -0.008637 0.026165 -0.002546 0.000000 0.000000 0.000000
# 3 -0.005292 -0.002546 0.015427 0.000000 0.000000 0.000000
# 4 0.000000 0.000000 0.000000 0.040116 0.000000 0.000000
# 5 0.000000 0.000000 0.000000 0.000000 0.033867 0.000000
# 6 0.000000 0.000000 0.000000 0.000000 0.000000 0.035687
#
#
# Mechanical properties :
#
#
# Convention : Reuss Voigt Hill
#
# Bulk Modulus (GPa) = 44.77489 54.83818 49.80653
# Shear Modulus (GPa) = 24.34846 26.05404 25.20125
#
# Velocity S-wave (km/s) = 3.66900 3.79533 3.73270
# Velocity P-wave (km/s) = 6.53479 7.03736 6.79072
#
# Compressibility (1/GPa) = 0.02233395
#
# Stress axis : x y z
#
# Youngs Moduli (GPa) = 73.02378 38.21891 64.82301
#
# Poissons Ratio (x) = 0.33010 0.34307
# Poissons Ratio (y) = 0.63071 0.16507
# Poissons Ratio (z) = 0.38648 0.09732
#
# Static dielectric constant tensor:
#      x y z
#    x 3.739050 0.000000 0.000000 
#    y 0.000000 3.093780 0.000000 
#    z 0.000000 0.000000 3.415870 
# 
# 
# High freq. dielectric constant tensor:
#      x y z
#    x 1.707000 0.000000 0.000000 
#    y 0.000000 1.657740 0.000000 
#    z 0.000000 0.000000 1.714320 
# 
# From -- ./inp_files/7551.got.cif
#   From: 2010.03.12/outbox.cif.g09.slc.cpg/sg72_4_cif.got.tgz:7551.got - 2010.04.16 14:54:00.
