data_PCOD8293575
_publ_section_title
;
Structure prediction by ZEFSAII (Michael W. Deem and Ramdas Pophale) SiO2 
 PCOD8293575
Probable space group: I B A M
;
_chemical_formula_sum "Si O2"
_cell_formula_units_Z 72
_cell_length_a 24.773848
_cell_length_b 5.104621
_cell_length_c 30.392143
_cell_angle_alpha 90.000000
_cell_angle_beta 90.000000
_cell_angle_gamma 90.000000
_cell_volume 3843.423980
_symmetry_space_group_name_H-M "I B A M"
_symmetry_group_IT_number 72
_symmetry_cell_setting 'orthorhombic'
loop_
_space_group_symop_operation_xyz
x,y,z
-x,-y,z
x,-y,1/2-z
-x,y,1/2-z
-x,-y,-z
x,y,-z
-x,y,1/2+z
x,-y,1/2+z
1/2+x,1/2+y,1/2+z
1/2-x,1/2-y,1/2+z
1/2+x,1/2-y,-z
1/2-x,1/2+y,-z
1/2-x,1/2-y,1/2-z
1/2+x,1/2+y,1/2-z
1/2-x,1/2+y,z
1/2+x,1/2-y,z
loop_
_atom_site_type_symbol
_atom_site_label
_atom_site_fract_x
_atom_site_fract_y
_atom_site_fract_z
Si Si1 0.942196 0.879483 0.371015
Si Si2 0.715414 0.031880 0.949202
Si Si3 0.439896 0.747601 0.730092
Si Si4 0.537556 0.249092 0.000000
Si Si5 0.898951 0.361886 0.586319
O O1 0.940578 0.763465 0.322156
O O2 0.930550 0.628141 0.401331
O O3 0.901680 0.125411 0.377779
O O4 0.000000 0.000000 0.383471
O O5 0.759652 0.250712 0.938026
O O6 0.663512 0.067217 0.918780
O O7 0.697529 0.050008 0.000000
O O8 0.408083 0.500000 0.750000
O O9 0.500000 0.748315 0.750000
O O10 0.409295 0.000000 0.750000
O O11 0.500000 0.500000 0.000000
O O12 0.576279 0.256156 0.042031
O O13 0.500000 0.000000 0.000000
#
# Coordination Sequence:
#
# PCOD8293575 Si02
#       5
#    16  16  16   8  16
#     4  12  23  36  56  86 123 163 191 233 282 341
#     4  10  21  40  64  82 106 148 202 266 310 330
#     4  10  19  34  54  76 111 155 191 232 275 326
#     4  12  24  40  50  74 120 170 194 220 261 334
#     4  12  24  38  57  85 118 153 212 237 281 358
#
# _framework density 18.733298000000001
#
# number of rings (size 3 to 8) (size 9 to 14) (size 15 to 20)
#    0.000    0.889    3.333    6.667    3.111    0.000 
#    0.000    0.000    0.000    0.000    0.000    0.000 
#    0.000   62.222    0.000    0.000    0.000    0.000 
#
# Total GULP energy -446314.749411 kJ/mol
# GULP energy per Si atom -12397.631928 kJ/mol
# Density = 1.869066 g / cm^3
# Si number density = 18.733298 Si / 1000 Ang^3
#
#
#
# Elastic Constant Matrix: (Units=GPa)
#
#
# Indices 1 2 3 4 5 6 
#
# 1 59.2874 18.1159 38.6272 0.0000 0.0000 0.0000
# 2 18.1159 151.4931 39.2060 0.0000 0.0000 0.0000
# 3 38.6272 39.2060 88.8225 0.0000 0.0000 0.0000
# 4 0.0000 0.0000 0.0000 39.0939 0.0000 0.0000
# 5 0.0000 0.0000 0.0000 0.0000 9.2653 0.0000
# 6 0.0000 0.0000 0.0000 0.0000 0.0000 15.5263
#
#
#
# Elastic Compliance Matrix: (Units=1/GPa)
#
#
# Indices 1 2 3 4 5 6 
#
# 1 0.023540 -0.000187 -0.010155 0.000000 0.000000 0.000000
# 2 -0.000187 0.007454 -0.003209 0.000000 0.000000 0.000000
# 3 -0.010155 -0.003209 0.017091 0.000000 0.000000 0.000000
# 4 0.000000 0.000000 0.000000 0.025579 0.000000 0.000000
# 5 0.000000 0.000000 0.000000 0.000000 0.107930 0.000000
# 6 0.000000 0.000000 0.000000 0.000000 0.000000 0.064407
#
#
# Mechanical properties :
#
#
# Convention : Reuss Voigt Hill
#
# Bulk Modulus (GPa) = 47.65550 54.61125 51.13337
# Shear Modulus (GPa) = 17.85101 26.35402 22.10251
#
# Velocity S-wave (km/s) = 3.09026 3.75480 3.43862
# Velocity P-wave (km/s) = 6.18281 6.92916 6.56660
#
# Compressibility (1/GPa) = 0.02098394
#
# Stress axis : x y z
#
# Youngs Moduli (GPa) = 42.48067 134.16093 58.51102
#
# Poissons Ratio (x) = 0.02509 0.59416
# Poissons Ratio (y) = 0.00794 0.18775
# Poissons Ratio (z) = 0.43138 0.43049
#
# Static dielectric constant tensor:
#      x y z
#    x 3.090180 0.000000 0.000000 
#    y 0.000000 2.841270 0.000000 
#    z 0.000000 0.000000 3.428560 
# 
# 
# High freq. dielectric constant tensor:
#      x y z
#    x 1.680350 0.000000 0.000000 
#    y 0.000000 1.766960 0.000000 
#    z 0.000000 0.000000 1.719320 
# 
# From -- ./inp_files/49590.got.cif
#   From: 2010.03.12/outbox.cif.g09.slc.cpg/sg72_25_cif.got.tgz:49590.got - 2010.04.16 14:54:00.
