data_PCOD8293008
_publ_section_title
;
Structure prediction by ZEFSAII (Michael W. Deem and Ramdas Pophale) SiO2 
 PCOD8293008
Probable space group: I B A M
;
_chemical_formula_sum "Si O2"
_cell_formula_units_Z 128
_cell_length_a 21.573841
_cell_length_b 21.772984
_cell_length_c 16.913148
_cell_angle_alpha 90.000000
_cell_angle_beta 90.000000
_cell_angle_gamma 90.000000
_cell_volume 7944.560493
_symmetry_space_group_name_H-M "I B A M"
_symmetry_group_IT_number 72
_symmetry_cell_setting 'orthorhombic'
loop_
_space_group_symop_operation_xyz
x,y,z
-x,-y,z
x,-y,1/2-z
-x,y,1/2-z
-x,-y,-z
x,y,-z
-x,y,1/2+z
x,-y,1/2+z
1/2+x,1/2+y,1/2+z
1/2-x,1/2-y,1/2+z
1/2+x,1/2-y,-z
1/2-x,1/2+y,-z
1/2-x,1/2-y,1/2-z
1/2+x,1/2+y,1/2-z
1/2-x,1/2+y,z
1/2+x,1/2-y,z
loop_
_atom_site_type_symbol
_atom_site_label
_atom_site_fract_x
_atom_site_fract_y
_atom_site_fract_z
Si Si1 0.387348 0.073395 0.411179
Si Si2 0.892025 0.560563 0.594661
Si Si3 0.732280 0.043367 0.678417
Si Si4 0.727430 0.653707 0.776322
Si Si5 0.739809 0.432565 0.588770
Si Si6 0.568843 0.202363 0.906904
Si Si7 0.456650 0.170379 0.177022
Si Si8 0.149705 0.266846 0.771390
O O1 0.410489 0.079896 0.500000
O O2 0.313615 0.073398 0.405392
O O3 0.415531 0.133892 0.370714
O O4 0.413077 0.008362 0.378738
O O5 0.889326 0.566701 0.500000
O O6 0.823862 0.572802 0.629197
O O7 0.939673 0.608418 0.630928
O O8 0.771942 0.100470 0.710253
O O9 0.707124 0.000000 0.750000
O O10 0.776157 0.000498 0.622918
O O11 0.710264 0.622398 0.860243
O O12 0.793906 0.686266 0.782400
O O13 0.673291 0.700793 0.756488
O O14 0.714566 0.426410 0.500000
O O15 0.496735 0.212950 0.884225
O O16 0.614739 0.245086 0.855321
O O17 0.581709 0.212588 0.000000
O O18 0.500000 0.152627 0.250000
O O19 0.396419 0.207957 0.203995
#
# Coordination Sequence:
#
# PCOD8293008 Si02
#       8
#    16  16  16  16  16  16  16  16
#     4   8  15  26  43  63  87 119 158 198 232 269
#     4  10  18  30  45  65  92 120 157 204 242 268
#     4   9  17  28  48  71  94 122 152 188 239 286
#     4  10  18  31  51  68  96 128 159 197 239 285
#     4   9  16  29  49  72  96 125 157 192 234 285
#     4  10  19  34  50  63  87 127 171 210 239 275
#     4  10  21  33  46  63  90 126 164 204 243 274
#     4  10  20  33  47  67  94 127 167 201 235 282
#
# _framework density 16.111653
#
# number of rings (size 3 to 8) (size 9 to 14) (size 15 to 20)
#    0.000    2.500    2.500    1.500    0.000    0.500 
#    0.000    6.250    0.000    0.000    0.000    0.000 
#    0.000   40.500    0.000   20.250    0.000    0.000 
#
# Total GULP energy -793071.457022 kJ/mol
# GULP energy per Si atom -12391.741516 kJ/mol
# Density = 1.607498 g / cm^3
# Si number density = 16.111653 Si / 1000 Ang^3
#
#
#
# Elastic Constant Matrix: (Units=GPa)
#
#
# Indices 1 2 3 4 5 6 
#
# 1 53.3131 33.5808 31.8977 0.0000 0.0000 0.0000
# 2 33.5808 79.0481 48.0601 0.0000 0.0000 0.0000
# 3 31.8977 48.0601 105.0864 0.0000 0.0000 0.0000
# 4 0.0000 0.0000 0.0000 21.1075 0.0000 0.0000
# 5 0.0000 0.0000 0.0000 0.0000 14.6633 0.0000
# 6 0.0000 0.0000 0.0000 0.0000 0.0000 24.3314
#
#
#
# Elastic Compliance Matrix: (Units=1/GPa)
#
#
# Indices 1 2 3 4 5 6 
#
# 1 0.026802 -0.008920 -0.004056 0.000000 0.000000 0.000000
# 2 -0.008920 0.020492 -0.006664 0.000000 0.000000 0.000000
# 3 -0.004056 -0.006664 0.013795 0.000000 0.000000 0.000000
# 4 0.000000 0.000000 0.000000 0.047377 0.000000 0.000000
# 5 0.000000 0.000000 0.000000 0.000000 0.068197 0.000000
# 6 0.000000 0.000000 0.000000 0.000000 0.000000 0.041099
#
#
# Mechanical properties :
#
#
# Convention : Reuss Voigt Hill
#
# Bulk Modulus (GPa) = 45.85348 51.61385 48.73367
# Shear Modulus (GPa) = 18.91705 20.28103 19.59904
#
# Velocity S-wave (km/s) = 3.43026 3.55178 3.49155
# Velocity P-wave (km/s) = 6.64910 6.99463 6.82405
#
# Compressibility (1/GPa) = 0.02180860
#
# Stress axis : x y z
#
# Youngs Moduli (GPa) = 37.31001 48.80067 72.49075
#
# Poissons Ratio (x) = 0.43530 0.29403
# Poissons Ratio (y) = 0.33281 0.48308
# Poissons Ratio (z) = 0.15133 0.32521
#
# Static dielectric constant tensor:
#      x y z
#    x 2.762770 0.000000 0.000000 
#    y 0.000000 2.989540 0.000000 
#    z 0.000000 0.000000 3.250660 
# 
# 
# High freq. dielectric constant tensor:
#      x y z
#    x 1.577970 0.000000 0.000000 
#    y 0.000000 1.599530 0.000000 
#    z 0.000000 0.000000 1.631310 
# 
# From -- ./inp_files/32941.got.cif
#   From: 2010.03.12/outbox.cif.g09.slc.cpg/sg72_17_cif.got.tgz:32941.got - 2010.04.16 14:54:00.
