data_PCOD8293017
_publ_section_title
;
Structure prediction by ZEFSAII (Michael W. Deem and Ramdas Pophale) SiO2 
 PCOD8293017
Probable space group: I B A M
;
_chemical_formula_sum "Si O2"
_cell_formula_units_Z 104
_cell_length_a 22.092799
_cell_length_b 21.000852
_cell_length_c 14.424532
_cell_angle_alpha 90.000000
_cell_angle_beta 90.000000
_cell_angle_gamma 90.000000
_cell_volume 6692.515523
_symmetry_space_group_name_H-M "I B A M"
_symmetry_group_IT_number 72
_symmetry_cell_setting 'orthorhombic'
loop_
_space_group_symop_operation_xyz
x,y,z
-x,-y,z
x,-y,1/2-z
-x,y,1/2-z
-x,-y,-z
x,y,-z
-x,y,1/2+z
x,-y,1/2+z
1/2+x,1/2+y,1/2+z
1/2-x,1/2-y,1/2+z
1/2+x,1/2-y,-z
1/2-x,1/2+y,-z
1/2-x,1/2-y,1/2-z
1/2+x,1/2+y,1/2-z
1/2-x,1/2+y,z
1/2+x,1/2-y,z
loop_
_atom_site_type_symbol
_atom_site_label
_atom_site_fract_x
_atom_site_fract_y
_atom_site_fract_z
Si Si1 0.047878 0.554138 0.398110
Si Si2 0.712354 0.861221 0.603436
Si Si3 0.128869 0.296874 0.746102
Si Si4 0.000000 0.651046 0.250000
Si Si5 0.675936 0.994947 0.646293
Si Si6 0.207996 0.811601 0.250222
Si Si7 0.788243 0.633950 0.395929
O O1 0.066594 0.581578 0.500000
O O2 0.016844 0.608896 0.338282
O O3 0.104799 0.520959 0.349200
O O4 0.000000 0.500000 0.412996
O O5 0.711656 0.831319 0.500000
O O6 0.655194 0.834619 0.663530
O O7 0.776618 0.847018 0.653739
O O8 0.708961 0.937310 0.594236
O O9 0.141022 0.219874 0.754476
O O10 0.159191 0.326381 0.654297
O O11 0.057486 0.303985 0.732096
O O12 0.691619 0.060572 0.595573
O O13 0.700938 0.000000 0.750000
O O14 0.250000 0.750000 0.250000
O O15 0.225148 0.856240 0.338435
O O16 0.778855 0.660084 0.500000
#
# Coordination Sequence:
#
# PCOD8293017 Si02
#       7
#    16  16  16   8  16  16  16
#     4  11  22  31  42  63  90 126 166 190 220 268
#     4  10  18  31  49  66  89 117 150 189 235 281
#     4  10  21  32  46  64  87 122 164 194 233 266
#     4  12  21  34  46  60  92 131 158 204 226 254
#     4  12  18  30  46  68  95 123 147 187 232 284
#     4   8  18  32  45  66  85 114 157 196 237 274
#     4  10  18  30  48  68  92 119 151 193 238 279
#
# _framework density 15.539745999999999
#
# number of rings (size 3 to 8) (size 9 to 14) (size 15 to 20)
#    0.000    2.000    4.615    3.462    0.000    7.385 
#    0.000    0.000    0.000    0.000    0.000    0.000 
#    0.000    2.462    0.000    2.923    0.000    0.000 
#
# Total GULP energy -644255.363358 kJ/mol
# GULP energy per Si atom -12389.526218 kJ/mol
# Density = 1.550438 g / cm^3
# Si number density = 15.539746 Si / 1000 Ang^3
#
#
#
# Elastic Constant Matrix: (Units=GPa)
#
#
# Indices 1 2 3 4 5 6 
#
# 1 74.7566 53.5567 26.3116 0.0000 0.0000 0.0000
# 2 53.5567 66.5923 27.1175 0.0000 0.0000 0.0000
# 3 26.3116 27.1175 123.8456 0.0000 0.0000 0.0000
# 4 0.0000 0.0000 0.0000 4.7789 0.0000 0.0000
# 5 0.0000 0.0000 0.0000 0.0000 7.3825 0.0000
# 6 0.0000 0.0000 0.0000 0.0000 0.0000 30.4057
#
#
#
# Elastic Compliance Matrix: (Units=1/GPa)
#
#
# Indices 1 2 3 4 5 6 
#
# 1 0.031742 -0.025013 -0.001267 0.000000 0.000000 0.000000
# 2 -0.025013 0.036197 -0.002612 0.000000 0.000000 0.000000
# 3 -0.001267 -0.002612 0.008916 0.000000 0.000000 0.000000
# 4 0.000000 0.000000 0.000000 0.209252 0.000000 0.000000
# 5 0.000000 0.000000 0.000000 0.000000 0.135456 0.000000
# 6 0.000000 0.000000 0.000000 0.000000 0.000000 0.032889
#
#
# Mechanical properties :
#
#
# Convention : Reuss Voigt Hill
#
# Bulk Modulus (GPa) = 52.43314 53.24068 52.83691
# Shear Modulus (GPa) = 9.64151 19.06065 14.35108
#
# Velocity S-wave (km/s) = 2.49357 3.50605 3.04222
# Velocity P-wave (km/s) = 6.48884 7.12216 6.81287
#
# Compressibility (1/GPa) = 0.01907191
#
# Stress axis : x y z
#
# Youngs Moduli (GPa) = 31.50401 27.62694 112.16310
#
# Poissons Ratio (x) = 0.69102 0.14210
# Poissons Ratio (y) = 0.78799 0.29293
# Poissons Ratio (z) = 0.03991 0.07215
#
# Static dielectric constant tensor:
#      x y z
#    x 3.343430 0.000000 0.000000 
#    y 0.000000 3.420630 0.000000 
#    z 0.000000 0.000000 3.288560 
# 
# 
# High freq. dielectric constant tensor:
#      x y z
#    x 1.553300 0.000000 0.000000 
#    y 0.000000 1.579700 0.000000 
#    z 0.000000 0.000000 1.612960 
# 
# From -- ./inp_files/25422.got.cif
#   From: 2010.03.12/outbox.cif.g09.slc.cpg/sg72_13_cif.got.tgz:25422.got - 2010.04.16 14:54:00.
