data_PCOD8293963
_publ_section_title
;
Structure prediction by ZEFSAII (Michael W. Deem and Ramdas Pophale) SiO2 
 PCOD8293963
Probable space group: I B A M
;
_chemical_formula_sum "Si O2"
_cell_formula_units_Z 96
_cell_length_a 11.113737
_cell_length_b 21.327954
_cell_length_c 22.977130
_cell_angle_alpha 90.000000
_cell_angle_beta 90.000000
_cell_angle_gamma 90.000000
_cell_volume 5446.344294
_symmetry_space_group_name_H-M "I B A M"
_symmetry_group_IT_number 72
_symmetry_cell_setting 'orthorhombic'
loop_
_space_group_symop_operation_xyz
x,y,z
-x,-y,z
x,-y,1/2-z
-x,y,1/2-z
-x,-y,-z
x,y,-z
-x,y,1/2+z
x,-y,1/2+z
1/2+x,1/2+y,1/2+z
1/2-x,1/2-y,1/2+z
1/2+x,1/2-y,-z
1/2-x,1/2+y,-z
1/2-x,1/2-y,1/2-z
1/2+x,1/2+y,1/2-z
1/2-x,1/2+y,z
1/2+x,1/2-y,z
loop_
_atom_site_type_symbol
_atom_site_label
_atom_site_fract_x
_atom_site_fract_y
_atom_site_fract_z
Si Si1 0.743877 0.180328 0.773526
Si Si2 0.589213 0.409215 0.798380
Si Si3 0.000000 0.500000 0.663978
Si Si4 0.756927 0.004404 0.378929
Si Si5 0.000000 0.609536 0.250000
Si Si6 0.380087 0.628300 0.376014
Si Si7 0.066256 0.893579 0.000000
Si Si8 0.665563 0.534642 0.500000
O O1 0.750000 0.250000 0.750000
O O2 0.834440 0.142460 0.734125
O O3 0.609413 0.153951 0.768617
O O4 0.790624 0.174831 0.840738
O O5 0.500000 0.440862 0.750000
O O6 0.684249 0.457221 0.825863
O O7 0.512753 0.374119 0.848083
O O8 0.881860 0.485461 0.627259
O O9 0.963328 0.562731 0.698465
O O10 0.760482 0.041637 0.440064
O O11 0.832697 0.941860 0.377089
O O12 0.392787 0.647677 0.443975
O O13 0.924087 0.906247 0.000000
O O14 0.114945 0.964374 0.000000
#
# Coordination Sequence:
#
# PCOD8293963 Si02
#       8
#    16  16   8  16   8  16   8   8
#     4  11  24  38  55  82 108 144 190 239 288 334
#     4  10  21  32  52  81 109 139 176 232 282 334
#     4  11  22  35  54  78 116 155 182 219 284 354
#     4  11  19  35  51  82 117 146 184 220 279 343
#     4  11  22  38  54  78 116 151 178 226 286 345
#     4  10  20  34  56  84 108 144 182 231 278 336
#     4   9  16  32  54  81 113 145 180 220 284 328
#     4   9  18  29  52  81 115 150 173 223 271 334
#
# _framework density 17.626503
#
# number of rings (size 3 to 8) (size 9 to 14) (size 15 to 20)
#    0.000    1.667    5.000    0.500    3.500    5.000 
#    0.000    0.000    0.000    2.000    0.000    0.000 
#    0.000    0.000    0.000    0.000    0.000    0.000 
#
# Total GULP energy -594746.000868 kJ/mol
# GULP energy per Si atom -12390.541685 kJ/mol
# Density = 1.758638 g / cm^3
# Si number density = 17.626503 Si / 1000 Ang^3
#
#
#
# Elastic Constant Matrix: (Units=GPa)
#
#
# Indices 1 2 3 4 5 6 
#
# 1 94.9642 8.5383 39.9656 0.0000 0.0000 0.0000
# 2 8.5383 57.4111 29.5768 0.0000 0.0000 0.0000
# 3 39.9656 29.5768 143.6382 0.0000 0.0000 0.0000
# 4 0.0000 0.0000 0.0000 16.2278 0.0000 0.0000
# 5 0.0000 0.0000 0.0000 0.0000 -12.4680 0.0000
# 6 0.0000 0.0000 0.0000 0.0000 0.0000 12.4016
#
#
#
# Elastic Compliance Matrix: (Units=1/GPa)
#
#
# Indices 1 2 3 4 5 6 
#
# 1 0.011927 -0.000072 -0.003304 0.000000 0.000000 0.000000
# 2 -0.000072 0.019486 -0.003992 0.000000 0.000000 0.000000
# 3 -0.003304 -0.003992 0.008703 0.000000 0.000000 0.000000
# 4 0.000000 0.000000 0.000000 0.061623 0.000000 0.000000
# 5 0.000000 0.000000 0.000000 0.000000 -0.080205 0.000000
# 6 0.000000 0.000000 0.000000 0.000000 0.000000 0.080635
#
#
# Mechanical properties :
#
#
# Convention : Reuss Voigt Hill
#
# Bulk Modulus (GPa) = 39.40082 50.24164 44.82123
# Shear Modulus (GPa) = 39.88385 17.76114 28.82250
#
# Velocity S-wave (km/s) = 4.76197 3.17778 4.04812
# Velocity P-wave (km/s) = 7.25512 6.48303 6.87992
#
# Compressibility (1/GPa) = 0.02538018
#
# Stress axis : x y z
#
# Youngs Moduli (GPa) = 83.84244 51.31976 114.89964
#
# Poissons Ratio (x) = 0.00368 0.37961
# Poissons Ratio (y) = 0.00602 0.45872
# Poissons Ratio (z) = 0.27700 0.20489
#
# Static dielectric constant tensor:
#      x y z
#    x 3.611420 0.000000 0.000000 
#    y 0.000000 2.882820 0.000000 
#    z 0.000000 0.000000 3.825960 
# 
# 
# High freq. dielectric constant tensor:
#      x y z
#    x 1.688610 0.000000 0.000000 
#    y 0.000000 1.637750 0.000000 
#    z 0.000000 0.000000 1.689200 
# 
# From -- ./inp_files/43499.got.cif
#   From: 2010.03.12/outbox.cif.g09.slc.cpg/sg72_22_cif.got.tgz:43499.got - 2010.04.16 14:54:00.
