data_PCOD8293527
_publ_section_title
;
Structure prediction by ZEFSAII (Michael W. Deem and Ramdas Pophale) SiO2 
 PCOD8293527
Probable space group: I B A M
;
_chemical_formula_sum "Si O2"
_cell_formula_units_Z 112
_cell_length_a 14.218454
_cell_length_b 28.978523
_cell_length_c 14.598136
_cell_angle_alpha 90.000000
_cell_angle_beta 90.000000
_cell_angle_gamma 90.000000
_cell_volume 6014.867002
_symmetry_space_group_name_H-M "I B A M"
_symmetry_group_IT_number 72
_symmetry_cell_setting 'orthorhombic'
loop_
_space_group_symop_operation_xyz
x,y,z
-x,-y,z
x,-y,1/2-z
-x,y,1/2-z
-x,-y,-z
x,y,-z
-x,y,1/2+z
x,-y,1/2+z
1/2+x,1/2+y,1/2+z
1/2-x,1/2-y,1/2+z
1/2+x,1/2-y,-z
1/2-x,1/2+y,-z
1/2-x,1/2-y,1/2-z
1/2+x,1/2+y,1/2-z
1/2-x,1/2+y,z
1/2+x,1/2-y,z
loop_
_atom_site_type_symbol
_atom_site_label
_atom_site_fract_x
_atom_site_fract_y
_atom_site_fract_z
Si Si1 0.133466 0.320958 0.396940
Si Si2 0.606019 0.115801 0.235418
Si Si3 0.833168 0.208707 0.394838
Si Si4 0.427289 0.799326 0.893270
Si Si5 0.127083 0.107514 0.103679
Si Si6 0.966115 0.951896 0.647250
Si Si7 0.776353 0.947087 0.734528
O O1 0.133801 0.340704 0.500000
O O2 0.143278 0.365204 0.332248
O O3 0.220936 0.286646 0.381511
O O4 0.038553 0.292773 0.376757
O O5 0.500000 0.096172 0.250000
O O6 0.608962 0.156046 0.160085
O O7 0.678935 0.076728 0.202980
O O8 0.864159 0.210262 0.500000
O O9 0.880061 0.253673 0.348541
O O10 0.869284 0.159600 0.355096
O O11 0.401748 0.806098 0.000000
O O12 0.185408 0.074058 0.170263
O O13 0.018239 0.090824 0.098094
O O14 0.169735 0.106884 0.000000
O O15 0.853298 0.943447 0.651528
O O16 0.000000 0.954720 0.750000
O O17 0.000000 0.000000 0.599015
O O18 0.751791 0.000000 0.750000
#
# Coordination Sequence:
#
# PCOD8293527 Si02
#       7
#    16  16  16  16  16  16  16
#     4   9  17  33  55  75 103 139 176 225 270 313
#     4  10  21  36  56  81 103 142 194 224 267 329
#     4   9  17  32  54  80 105 136 178 220 266 315
#     4   9  19  36  53  74 112 146 173 222 276 322
#     4  10  19  33  56  84 105 135 183 223 257 323
#     4   9  16  33  51  72 105 139 166 201 270 329
#     4  11  20  37  55  75 111 143 174 225 279 319
#
# _framework density 18.620528
#
# number of rings (size 3 to 8) (size 9 to 14) (size 15 to 20)
#    0.000    2.429    4.286    0.000    0.000    1.143 
#    2.571    6.429    0.000    0.000    0.000    5.000 
#    0.000    0.000    0.000    0.000    0.000    0.000 
#
# Total GULP energy -693933.024530 kJ/mol
# GULP energy per Si atom -12391.661152 kJ/mol
# Density = 1.857815 g / cm^3
# Si number density = 18.620528 Si / 1000 Ang^3
#
#
#
# Elastic Constant Matrix: (Units=GPa)
#
#
# Indices 1 2 3 4 5 6 
#
# 1 140.1280 90.3750 23.4908 -0.0001 0.0000 0.0000
# 2 90.3750 141.4748 31.4808 0.0003 0.0000 0.0000
# 3 23.4908 31.4808 46.3892 -0.0019 0.0001 0.0000
# 4 -0.0001 0.0003 -0.0019 1.0345 0.0001 -0.0001
# 5 0.0000 0.0000 0.0001 0.0001 16.4891 0.0000
# 6 0.0000 0.0000 0.0000 -0.0001 0.0000 36.4248
#
#
#
# Elastic Compliance Matrix: (Units=1/GPa)
#
#
# Indices 1 2 3 4 5 6 
#
# 1 0.012179 -0.007548 -0.001045 0.000001 0.000000 0.000000
# 2 -0.007548 0.013003 -0.005002 -0.000013 0.000000 0.000000
# 3 -0.001045 -0.005002 0.025481 0.000049 0.000000 0.000000
# 4 0.000001 -0.000013 0.000049 0.966692 -0.000006 0.000002
# 5 0.000000 0.000000 0.000000 -0.000006 0.060646 0.000000
# 6 0.000000 0.000000 0.000000 0.000002 0.000000 0.027454
#
#
# Mechanical properties :
#
#
# Convention : Reuss Voigt Hill
#
# Bulk Modulus (GPa) = 42.60278 68.74280 55.67279
# Shear Modulus (GPa) = 4.38416 22.96602 13.67509
#
# Velocity S-wave (km/s) = 1.53609 3.51575 2.71294
# Velocity P-wave (km/s) = 5.10639 7.31290 6.30689
#
# Compressibility (1/GPa) = 0.02347264
#
# Stress axis : x y z
#
# Youngs Moduli (GPa) = 82.10568 76.90564 39.24540
#
# Poissons Ratio (x) = 0.58046 0.04103
# Poissons Ratio (y) = 0.61971 0.19631
# Poissons Ratio (z) = 0.08584 0.38469
#
# Static dielectric constant tensor:
#      x y z
#    x 3.764860 0.000000 0.000000 
#    y 0.000000 3.532460 0.000000 
#    z 0.000000 0.000000 3.391340 
# 
# 
# High freq. dielectric constant tensor:
#      x y z
#    x 1.725980 0.000000 0.000000 
#    y 0.000000 1.708430 0.000000 
#    z 0.000000 0.000000 1.703260 
# 
# From -- ./inp_files/22441.got.cif
#   From: 2010.03.12/outbox.cif.g09.slc.cpg/sg72_12_cif.got.tgz:22441.got - 2010.04.16 14:54:00.
