data_PCOD8293622
_publ_section_title
;
Structure prediction by ZEFSAII (Michael W. Deem and Ramdas Pophale) SiO2 
 PCOD8293622
Probable space group: I B A M
;
_chemical_formula_sum "Si O2"
_cell_formula_units_Z 116
_cell_length_a 22.573857
_cell_length_b 26.274613
_cell_length_c 9.615329
_cell_angle_alpha 90.000000
_cell_angle_beta 90.000000
_cell_angle_gamma 90.000000
_cell_volume 5703.037750
_symmetry_space_group_name_H-M "I B A M"
_symmetry_group_IT_number 72
_symmetry_cell_setting 'orthorhombic'
loop_
_space_group_symop_operation_xyz
x,y,z
-x,-y,z
x,-y,1/2-z
-x,y,1/2-z
-x,-y,-z
x,y,-z
-x,y,1/2+z
x,-y,1/2+z
1/2+x,1/2+y,1/2+z
1/2-x,1/2-y,1/2+z
1/2+x,1/2-y,-z
1/2-x,1/2+y,-z
1/2-x,1/2-y,1/2-z
1/2+x,1/2+y,1/2-z
1/2-x,1/2+y,z
1/2+x,1/2-y,z
loop_
_atom_site_type_symbol
_atom_site_label
_atom_site_fract_x
_atom_site_fract_y
_atom_site_fract_z
Si Si1 0.779825 0.594104 0.334528
Si Si2 0.442713 0.805945 0.332762
Si Si3 0.408804 0.083039 0.841742
Si Si4 0.391497 0.724383 0.154705
Si Si5 0.159035 0.047647 0.163240
Si Si6 0.260143 0.297761 0.655339
Si Si7 0.000000 0.500000 0.750000
Si Si8 0.946268 0.121087 0.658907
O O1 0.775651 0.594103 0.500000
O O2 0.843194 0.571435 0.277756
O O3 0.724948 0.561184 0.278571
O O4 0.773117 0.652565 0.283400
O O5 0.500000 0.785888 0.250000
O O6 0.448349 0.800845 0.500000
O O7 0.433246 0.864092 0.279891
O O8 0.391292 0.769018 0.272410
O O9 0.455821 0.036740 0.834511
O O10 0.396364 0.095072 0.000000
O O11 0.330313 0.693087 0.153846
O O12 0.440178 0.681437 0.187635
O O13 0.402097 0.748205 0.000000
O O14 0.114706 0.093308 0.198189
O O15 0.135885 0.000000 0.250000
O O16 0.160223 0.034730 0.000000
O O17 0.236289 0.286487 0.500000
O O18 0.250000 0.250000 0.750000
O O19 0.962837 0.110272 0.500000
O O20 0.000000 0.099303 0.750000
#
# Coordination Sequence:
#
# PCOD8293622 Si02
#       8
#    16  16  16  16  16  16   4  16
#     4   9  18  37  61  84 114 157 197 239 298 365
#     4  11  22  38  57  85 120 158 199 248 302 362
#     4  10  22  38  59  85 115 155 202 245 301 362
#     4  10  20  36  58  86 119 158 198 244 296 356
#     4  10  21  39  62  86 116 153 199 249 298 353
#     4  10  19  34  58  86 120 157 196 243 297 356
#     4  12  22  40  60  86 120 160 204 256 300 348
#     4  10  21  38  59  86 118 157 197 240 295 352
#
# _framework density 20.340038
#
# number of rings (size 3 to 8) (size 9 to 14) (size 15 to 20)
#    0.000    1.931    2.069    1.862    0.966    4.138 
#    0.000    2.069    0.000    2.483    0.000    0.000 
#    0.000    0.000    0.000    0.000    0.000    0.000 
#
# Total GULP energy -718732.482453 kJ/mol
# GULP energy per Si atom -12391.939353 kJ/mol
# Density = 2.029374 g / cm^3
# Si number density = 20.340038 Si / 1000 Ang^3
#
#
#
# Elastic Constant Matrix: (Units=GPa)
#
#
# Indices 1 2 3 4 5 6 
#
# 1 118.4733 40.9452 34.5991 0.0000 0.0000 0.0000
# 2 40.9452 111.5148 41.3973 0.0000 0.0000 0.0000
# 3 34.5991 41.3973 66.7284 0.0000 0.0000 0.0000
# 4 0.0000 0.0000 0.0000 29.4039 0.0000 0.0000
# 5 0.0000 0.0000 0.0000 0.0000 26.3311 0.0000
# 6 0.0000 0.0000 0.0000 0.0000 0.0000 32.2356
#
#
#
# Elastic Compliance Matrix: (Units=1/GPa)
#
#
# Indices 1 2 3 4 5 6 
#
# 1 0.010405 -0.002361 -0.003930 0.000000 0.000000 0.000000
# 2 -0.002361 0.012187 -0.006336 0.000000 0.000000 0.000000
# 3 -0.003930 -0.006336 0.020954 0.000000 0.000000 0.000000
# 4 0.000000 0.000000 0.000000 0.034009 0.000000 0.000000
# 5 0.000000 0.000000 0.000000 0.000000 0.037978 0.000000
# 6 0.000000 0.000000 0.000000 0.000000 0.000000 0.031022
#
#
# Mechanical properties :
#
#
# Convention : Reuss Voigt Hill
#
# Bulk Modulus (GPa) = 54.67113 58.95553 56.81333
# Shear Modulus (GPa) = 28.10482 29.57912 28.84197
#
# Velocity S-wave (km/s) = 3.72122 3.81758 3.76971
# Velocity P-wave (km/s) = 6.73797 6.96274 6.85128
#
# Compressibility (1/GPa) = 0.01829119
#
# Stress axis : x y z
#
# Youngs Moduli (GPa) = 96.11213 82.05787 47.72253
#
# Poissons Ratio (x) = 0.19377 0.18754
# Poissons Ratio (y) = 0.22696 0.30237
# Poissons Ratio (z) = 0.37770 0.51991
#
# Static dielectric constant tensor:
#      x y z
#    x 4.094320 0.000000 0.000000 
#    y 0.000000 3.588440 0.000000 
#    z 0.000000 0.000000 3.417420 
# 
# 
# High freq. dielectric constant tensor:
#      x y z
#    x 1.810910 0.000000 0.000000 
#    y 0.000000 1.792500 0.000000 
#    z 0.000000 0.000000 1.760010 
# 
# From -- ./inp_files/7274.got.cif
#   From: 2010.03.12/outbox.cif.g09.slc.cpg/sg72_4_cif.got.tgz:7274.got - 2010.04.16 14:54:00.
