data_PCOD8293898
_publ_section_title
;
Structure prediction by ZEFSAII (Michael W. Deem and Ramdas Pophale) SiO2 
 PCOD8293898
Probable space group: I B A M
;
_chemical_formula_sum "Si O2"
_cell_formula_units_Z 96
_cell_length_a 10.278835
_cell_length_b 29.387419
_cell_length_c 15.414004
_cell_angle_alpha 90.000000
_cell_angle_beta 90.000000
_cell_angle_gamma 90.000000
_cell_volume 4656.084003
_symmetry_space_group_name_H-M "I B A M"
_symmetry_group_IT_number 72
_symmetry_cell_setting 'orthorhombic'
loop_
_space_group_symop_operation_xyz
x,y,z
-x,-y,z
x,-y,1/2-z
-x,y,1/2-z
-x,-y,-z
x,y,-z
-x,y,1/2+z
x,-y,1/2+z
1/2+x,1/2+y,1/2+z
1/2-x,1/2-y,1/2+z
1/2+x,1/2-y,-z
1/2-x,1/2+y,-z
1/2-x,1/2-y,1/2-z
1/2+x,1/2+y,1/2-z
1/2-x,1/2+y,z
1/2+x,1/2-y,z
loop_
_atom_site_type_symbol
_atom_site_label
_atom_site_fract_x
_atom_site_fract_y
_atom_site_fract_z
Si Si1 0.952749 0.712742 0.397020
Si Si2 0.755364 0.283875 0.396383
Si Si3 0.134923 0.519154 0.845522
Si Si4 0.382774 0.472632 0.097925
Si Si5 0.959354 0.610673 0.397583
Si Si6 0.754124 0.884630 0.396759
O O1 0.955288 0.716807 0.500000
O O2 0.097522 0.725175 0.361841
O O3 0.913980 0.661383 0.370266
O O4 0.844622 0.746783 0.357212
O O5 0.756566 0.281732 0.500000
O O6 0.707061 0.333946 0.365549
O O7 0.158381 0.500000 0.750000
O O8 0.254030 0.503460 0.904482
O O9 0.000000 0.500000 0.885289
O O10 0.129013 0.574192 0.846489
O O11 0.500000 0.500000 0.146447
O O12 0.351171 0.423374 0.142206
O O13 0.428257 0.463152 0.000000
O O14 0.943111 0.603319 0.500000
O O15 0.107896 0.603667 0.367110
O O16 0.757918 0.886768 0.500000
#
# Coordination Sequence:
#
# PCOD8293898 Si02
#       6
#    16  16  16  16  16  16
#     4   8  14  24  40  64  95 128 159 195 246 300
#     4   8  13  23  38  61  93 126 156 193 243 294
#     4  11  22  34  51  74  99 128 174 214 252 302
#     4  10  20  34  51  74 102 132 168 207 255 311
#     4   9  16  29  50  72  97 132 168 208 256 298
#     4   8  14  26  45  66  96 133 162 196 251 303
#
# _framework density 20.618185
#
# number of rings (size 3 to 8) (size 9 to 14) (size 15 to 20)
#    0.000    3.000    1.667    2.500    0.000    1.000 
#    3.000    0.000    0.000    0.000    0.000    1.167 
#    0.000    0.000    0.000    0.000    0.000    0.000 
#
# Total GULP energy -594785.226810 kJ/mol
# GULP energy per Si atom -12391.358892 kJ/mol
# Density = 2.057126 g / cm^3
# Si number density = 20.618185 Si / 1000 Ang^3
#
#
#
# Elastic Constant Matrix: (Units=GPa)
#
#
# Indices 1 2 3 4 5 6 
#
# 1 108.5518 90.3530 1.8257 0.0002 0.0002 0.0001
# 2 90.3530 205.5674 14.4281 0.0001 0.0001 0.0000
# 3 1.8257 14.4281 17.6770 0.0005 0.0005 0.0000
# 4 0.0002 0.0001 0.0005 10.3151 0.0002 0.0000
# 5 0.0002 0.0001 0.0005 0.0002 5.3803 0.0002
# 6 0.0001 0.0000 0.0000 0.0000 0.0002 43.8142
#
#
#
# Elastic Compliance Matrix: (Units=1/GPa)
#
#
# Indices 1 2 3 4 5 6 
#
# 1 0.014790 -0.006782 0.004008 0.000000 -0.000001 0.000000
# 2 -0.006782 0.008270 -0.006050 0.000000 0.000001 0.000000
# 3 0.004008 -0.006050 0.061095 -0.000003 -0.000006 0.000000
# 4 0.000000 0.000000 -0.000003 0.096945 -0.000004 0.000000
# 5 -0.000001 0.000001 -0.000006 -0.000004 0.185862 -0.000001
# 6 0.000000 0.000000 0.000000 0.000000 -0.000001 0.022824
#
#
# Mechanical properties :
#
#
# Convention : Reuss Voigt Hill
#
# Bulk Modulus (GPa) = 15.03598 60.55663 37.79631
# Shear Modulus (GPa) = 11.63872 26.91455 19.27663
#
# Velocity S-wave (km/s) = 2.37847 3.61692 3.06099
# Velocity P-wave (km/s) = 3.85373 6.84669 5.55555
#
# Compressibility (1/GPa) = 0.06650714
#
# Stress axis : x y z
#
# Youngs Moduli (GPa) = 67.61522 120.91941 16.36806
#
# Poissons Ratio (x) = 0.82005 -0.06560
# Poissons Ratio (y) = 0.45855 0.09902
# Poissons Ratio (z) = -0.27099 0.73151
#
# Static dielectric constant tensor:
#      x y z
#    x 3.851080 0.000000 0.000000 
#    y 0.000000 4.243330 0.000000 
#    z 0.000000 0.000000 3.026540 
# 
# 
# High freq. dielectric constant tensor:
#      x y z
#    x 1.785370 0.000000 0.000000 
#    y 0.000000 1.821350 0.000000 
#    z 0.000000 0.000000 1.751280 
# 
# From -- ./inp_files/29599.got.cif
#   From: 2010.03.12/outbox.cif.g09.slc.cpg/sg72_15_cif.got.tgz:29599.got - 2010.04.16 14:54:00.
