data_PCOD8293966
_publ_section_title
;
Structure prediction by ZEFSAII (Michael W. Deem and Ramdas Pophale) SiO2 
 PCOD8293966
Probable space group: I B A M
;
_chemical_formula_sum "Si O2"
_cell_formula_units_Z 116
_cell_length_a 25.428176
_cell_length_b 25.212552
_cell_length_c 9.329335
_cell_angle_alpha 90.000000
_cell_angle_beta 90.000000
_cell_angle_gamma 90.000000
_cell_volume 5981.122589
_symmetry_space_group_name_H-M "I B A M"
_symmetry_group_IT_number 72
_symmetry_cell_setting 'orthorhombic'
loop_
_space_group_symop_operation_xyz
x,y,z
-x,-y,z
x,-y,1/2-z
-x,y,1/2-z
-x,-y,-z
x,y,-z
-x,y,1/2+z
x,-y,1/2+z
1/2+x,1/2+y,1/2+z
1/2-x,1/2-y,1/2+z
1/2+x,1/2-y,-z
1/2-x,1/2+y,-z
1/2-x,1/2-y,1/2-z
1/2+x,1/2+y,1/2-z
1/2-x,1/2+y,z
1/2+x,1/2-y,z
loop_
_atom_site_type_symbol
_atom_site_label
_atom_site_fract_x
_atom_site_fract_y
_atom_site_fract_z
Si Si1 0.000000 0.000000 0.750000
Si Si2 0.845592 0.548905 0.167964
Si Si3 0.853762 0.732910 0.167354
Si Si4 0.397521 0.547629 0.159820
Si Si5 0.548763 0.069975 0.661532
Si Si6 0.666137 0.351959 0.831394
Si Si7 0.951760 0.694543 0.340370
Si Si8 0.729111 0.852769 0.336963
O O1 0.038544 0.039912 0.838535
O O2 0.816694 0.500000 0.250000
O O3 0.901122 0.555385 0.244876
O O4 0.813230 0.602009 0.192071
O O5 0.852847 0.536519 0.000000
O O6 0.851520 0.793760 0.218151
O O7 0.897695 0.705271 0.260718
O O8 0.798196 0.703780 0.198826
O O9 0.868373 0.727127 0.000000
O O10 0.370730 0.500000 0.250000
O O11 0.378201 0.605014 0.218092
O O12 0.376496 0.541121 0.000000
O O13 0.500000 0.045705 0.750000
O O14 0.552454 0.045840 0.500000
O O15 0.541119 0.132345 0.646877
O O16 0.721756 0.365375 0.762449
O O17 0.674317 0.352915 0.000000
O O18 0.951357 0.719929 0.500000
O O19 0.000000 0.719738 0.250000
O O20 0.749097 0.853356 0.500000
#
# Coordination Sequence:
#
# PCOD8293966 Si02
#       8
#     4  16  16  16  16  16  16  16
#     4   8  18  36  66  84 118 156 194 224 282 340
#     4  11  23  39  58  82 112 148 193 244 292 346
#     4  10  20  38  60  83 117 154 193 245 297 349
#     4   9  19  36  59  87 117 153 191 230 285 342
#     4  10  20  35  57  83 111 146 188 234 287 345
#     4  10  22  38  59  88 119 151 192 244 292 345
#     4  10  20  34  56  84 115 153 194 235 285 345
#     4  10  22  39  59  82 112 154 196 241 297 351
#
# _framework density 19.394352999999999
#
# number of rings (size 3 to 8) (size 9 to 14) (size 15 to 20)
#    0.414    1.655    1.379    1.862    0.000    4.690 
#    1.241    4.138    0.000    0.000    0.000    0.000 
#    0.000    0.000    0.000    0.000    0.000    0.000 
#
# Total GULP energy -718893.988281 kJ/mol
# GULP energy per Si atom -12394.723936 kJ/mol
# Density = 1.935021 g / cm^3
# Si number density = 19.394353 Si / 1000 Ang^3
#
#
#
# Elastic Constant Matrix: (Units=GPa)
#
#
# Indices 1 2 3 4 5 6 
#
# 1 89.9190 31.7464 37.5694 0.0000 0.0000 0.0000
# 2 31.7464 105.0093 32.1748 0.0000 0.0000 0.0000
# 3 37.5694 32.1748 92.4073 0.0000 0.0000 0.0000
# 4 0.0000 0.0000 0.0000 25.8050 0.0000 0.0000
# 5 0.0000 0.0000 0.0000 0.0000 20.4256 0.0000
# 6 0.0000 0.0000 0.0000 0.0000 0.0000 29.5575
#
#
#
# Elastic Compliance Matrix: (Units=1/GPa)
#
#
# Indices 1 2 3 4 5 6 
#
# 1 0.014098 -0.002805 -0.004755 0.000000 0.000000 0.000000
# 2 -0.002805 0.011218 -0.002766 0.000000 0.000000 0.000000
# 3 -0.004755 -0.002766 0.013718 0.000000 0.000000 0.000000
# 4 0.000000 0.000000 0.000000 0.038752 0.000000 0.000000
# 5 0.000000 0.000000 0.000000 0.000000 0.048958 0.000000
# 6 0.000000 0.000000 0.000000 0.000000 0.000000 0.033832
#
#
# Mechanical properties :
#
#
# Convention : Reuss Voigt Hill
#
# Bulk Modulus (GPa) = 54.39894 54.47964 54.43929
# Shear Modulus (GPa) = 26.68710 27.54730 27.11720
#
# Velocity S-wave (km/s) = 3.71350 3.77288 3.74331
# Velocity P-wave (km/s) = 6.81884 6.86520 6.84206
#
# Compressibility (1/GPa) = 0.01838271
#
# Stress axis : x y z
#
# Youngs Moduli (GPa) = 70.93074 89.13915 72.89779
#
# Poissons Ratio (x) = 0.25006 0.34664
# Poissons Ratio (y) = 0.19898 0.20160
# Poissons Ratio (z) = 0.33728 0.24652
#
# Static dielectric constant tensor:
#      x y z
#    x 3.338600 0.000000 0.000000 
#    y 0.000000 3.893540 0.000000 
#    z 0.000000 0.000000 3.748110 
# 
# 
# High freq. dielectric constant tensor:
#      x y z
#    x 1.743070 0.000000 0.000000 
#    y 0.000000 1.755040 0.000000 
#    z 0.000000 0.000000 1.760480 
# 
# From -- ./inp_files/8390.got.cif
#   From: 2010.03.12/outbox.cif.g09.slc.cpg/sg72_5_cif.got.tgz:8390.got - 2010.04.16 14:54:00.
