data_PCOD8293562
_publ_section_title
;
Structure prediction by ZEFSAII (Michael W. Deem and Ramdas Pophale) SiO2 
 PCOD8293562
Probable space group: I B A M
;
_chemical_formula_sum "Si O2"
_cell_formula_units_Z 64
_cell_length_a 7.260036
_cell_length_b 22.143438
_cell_length_c 14.662509
_cell_angle_alpha 90.000000
_cell_angle_beta 90.000000
_cell_angle_gamma 90.000000
_cell_volume 2357.176575
_symmetry_space_group_name_H-M "I B A M"
_symmetry_group_IT_number 72
_symmetry_cell_setting 'orthorhombic'
loop_
_space_group_symop_operation_xyz
x,y,z
-x,-y,z
x,-y,1/2-z
-x,y,1/2-z
-x,-y,-z
x,y,-z
-x,y,1/2+z
x,-y,1/2+z
1/2+x,1/2+y,1/2+z
1/2-x,1/2-y,1/2+z
1/2+x,1/2-y,-z
1/2-x,1/2+y,-z
1/2-x,1/2-y,1/2-z
1/2+x,1/2+y,1/2-z
1/2-x,1/2+y,z
1/2+x,1/2-y,z
loop_
_atom_site_type_symbol
_atom_site_label
_atom_site_fract_x
_atom_site_fract_y
_atom_site_fract_z
Si Si1 0.107309 0.148608 0.351062
Si Si2 0.159683 0.428709 0.500000
Si Si3 0.062393 0.262133 0.103785
Si Si4 0.338294 0.139545 0.185902
Si Si5 0.721253 0.558466 0.000000
O O1 0.921093 0.190223 0.368010
O O2 0.257110 0.197885 0.384135
O O3 0.148446 0.132669 0.244956
O O4 0.124875 0.088809 0.412043
O O5 0.206797 0.395526 0.593503
O O6 0.299384 0.486190 0.500000
O O7 0.940915 0.435743 0.500000
O O8 0.899656 0.291621 0.164965
O O9 0.996084 0.266690 0.000000
O O10 0.500000 0.109713 0.250000
#
# Coordination Sequence:
#
# PCOD8293562 Si02
#       5
#    16   8  16  16   8
#     4  11  21  35  55  85 117 142 184 222 275 332
#     4  11  20  35  53  74 117 144 182 228 282 310
#     4  11  18  34  54  77 114 149 174 227 273 330
#     4  10  19  34  52  78 110 143 183 219 275 325
#     4  11  20  33  53  80 109 148 180 231 267 327
#
# _framework density 27.151128
#
# number of rings (size 3 to 8) (size 9 to 14) (size 15 to 20)
#    0.000    1.250    8.750    0.750    0.000    1.000 
#    0.000    0.000    0.000    0.000    0.000    3.500 
#    0.000   12.000    0.000    0.000    0.000    0.000 
#
# Total GULP energy -396662.346685 kJ/mol
# GULP energy per Si atom -12395.698334 kJ/mol
# Density = 2.708933 g / cm^3
# Si number density = 27.151128 Si / 1000 Ang^3
#
#
#
# Elastic Constant Matrix: (Units=GPa)
#
#
# Indices 1 2 3 4 5 6 
#
# 1 91.8427 18.6181 20.5704 0.0000 0.0000 0.0000
# 2 18.6181 180.0691 82.4799 0.0001 0.0000 0.0000
# 3 20.5704 82.4799 247.5144 0.0004 0.0001 0.0000
# 4 0.0000 0.0001 0.0004 23.3015 0.0000 0.0000
# 5 0.0000 0.0000 0.0001 0.0000 19.5396 0.0000
# 6 0.0000 0.0000 0.0000 0.0000 0.0000 41.8861
#
#
#
# Elastic Compliance Matrix: (Units=1/GPa)
#
#
# Indices 1 2 3 4 5 6 
#
# 1 0.011207 -0.000864 -0.000644 0.000000 0.000000 0.000000
# 2 -0.000864 0.006620 -0.002134 0.000000 0.000000 0.000000
# 3 -0.000644 -0.002134 0.004805 0.000000 0.000000 0.000000
# 4 0.000000 0.000000 0.000000 0.042916 0.000000 0.000000
# 5 0.000000 0.000000 0.000000 0.000000 0.051178 0.000000
# 6 0.000000 0.000000 0.000000 0.000000 0.000000 0.023874
#
#
# Mechanical properties :
#
#
# Convention : Reuss Voigt Hill
#
# Bulk Modulus (GPa) = 65.15080 84.75142 74.95111
# Shear Modulus (GPa) = 32.67954 43.46262 38.07108
#
# Velocity S-wave (km/s) = 3.47308 4.00530 3.74865
# Velocity P-wave (km/s) = 6.33488 7.25757 6.81187
#
# Compressibility (1/GPa) = 0.01534901
#
# Stress axis : x y z
#
# Youngs Moduli (GPa) = 89.22627 151.04886 208.12201
#
# Poissons Ratio (x) = 0.13051 0.13393
# Poissons Ratio (y) = 0.07709 0.44420
# Poissons Ratio (z) = 0.05742 0.32239
#
# Static dielectric constant tensor:
#      x y z
#    x 6.003060 0.000000 0.000000 
#    y 0.000000 5.012090 0.000000 
#    z 0.000000 0.000000 5.233820 
# 
# 
# High freq. dielectric constant tensor:
#      x y z
#    x 2.155700 0.000000 0.000000 
#    y 0.000000 2.057790 0.000000 
#    z 0.000000 0.000000 2.123200 
# 
# From -- ./inp_files/18702.got.cif
#   From: 2010.03.12/outbox.cif.g09.slc.cpg/sg72_10_cif.got.tgz:18702.got - 2010.04.16 14:54:00.
