data_PCOD8293154
_publ_section_title
;
Structure prediction by ZEFSAII (Michael W. Deem and Ramdas Pophale) SiO2 
 PCOD8293154
Probable space group: I B A M
;
_chemical_formula_sum "Si O2"
_cell_formula_units_Z 112
_cell_length_a 15.534250
_cell_length_b 15.560067
_cell_length_c 23.964374
_cell_angle_alpha 90.000000
_cell_angle_beta 90.000000
_cell_angle_gamma 90.000000
_cell_volume 5792.523997
_symmetry_space_group_name_H-M "I B A M"
_symmetry_group_IT_number 72
_symmetry_cell_setting 'orthorhombic'
loop_
_space_group_symop_operation_xyz
x,y,z
-x,-y,z
x,-y,1/2-z
-x,y,1/2-z
-x,-y,-z
x,y,-z
-x,y,1/2+z
x,-y,1/2+z
1/2+x,1/2+y,1/2+z
1/2-x,1/2-y,1/2+z
1/2+x,1/2-y,-z
1/2-x,1/2+y,-z
1/2-x,1/2-y,1/2-z
1/2+x,1/2+y,1/2-z
1/2-x,1/2+y,z
1/2+x,1/2-y,z
loop_
_atom_site_type_symbol
_atom_site_label
_atom_site_fract_x
_atom_site_fract_y
_atom_site_fract_z
Si Si1 0.017473 0.902621 0.185248
Si Si2 0.185015 0.674119 0.260484
Si Si3 0.816523 0.650753 0.061708
Si Si4 0.781597 0.394891 0.146588
Si Si5 0.408410 0.971600 0.561969
Si Si6 0.791276 0.919524 0.653356
Si Si7 0.880629 0.775423 0.854356
O O1 0.116231 0.885237 0.172046
O O2 0.000000 0.884403 0.250000
O O3 0.957962 0.843463 0.145941
O O4 0.000000 0.000000 0.168697
O O5 0.250000 0.750000 0.250000
O O6 0.162123 0.626326 0.202450
O O7 0.225083 0.599547 0.297680
O O8 0.109111 0.718730 0.297094
O O9 0.854316 0.556912 0.056485
O O10 0.730522 0.637524 0.098690
O O11 0.886084 0.713493 0.091643
O O12 0.793898 0.686867 0.000000
O O13 0.854968 0.403119 0.099081
O O14 0.719009 0.478169 0.146980
O O15 0.714050 0.317927 0.138222
O O16 0.422760 0.931182 0.500000
O O17 0.500000 0.000000 0.588858
#
# Coordination Sequence:
#
# PCOD8293154 Si02
#       7
#    16  16  16  16  16  16  16
#     4  11  21  33  56  86 122 158 193 228 282 351
#     4   9  18  31  51  78 110 145 184 228 281 328
#     4   9  20  40  61  79 110 149 191 245 299 343
#     4  10  18  32  58  80 108 150 191 229 281 344
#     4   9  19  38  60  82 105 142 196 245 290 346
#     4  10  19  34  58  82 110 152 194 235 275 347
#     4  10  20  36  52  84 120 149 188 237 284 343
#
# _framework density 19.335267999999999
#
# number of rings (size 3 to 8) (size 9 to 14) (size 15 to 20)
#    0.000    2.286    1.429    2.143    2.000    0.571 
#   10.286    0.714    0.000    8.571    0.000    0.000 
#    0.000    0.000    0.000    0.000    0.000    0.143 
#
# Total GULP energy -693733.112239 kJ/mol
# GULP energy per Si atom -12388.091290 kJ/mol
# Density = 1.929126 g / cm^3
# Si number density = 19.335268 Si / 1000 Ang^3
#
#
#
# Elastic Constant Matrix: (Units=GPa)
#
#
# Indices 1 2 3 4 5 6 
#
# 1 85.7589 12.1355 31.5103 0.0000 0.0000 0.0000
# 2 12.1355 60.5380 38.0613 0.0000 0.0000 0.0000
# 3 31.5103 38.0613 128.4087 0.0000 0.0000 0.0000
# 4 0.0000 0.0000 0.0000 13.4207 0.0000 0.0000
# 5 0.0000 0.0000 0.0000 0.0000 17.4284 0.0000
# 6 0.0000 0.0000 0.0000 0.0000 0.0000 24.1230
#
#
#
# Elastic Compliance Matrix: (Units=1/GPa)
#
#
# Indices 1 2 3 4 5 6 
#
# 1 0.012842 -0.000729 -0.002935 0.000000 0.000000 0.000000
# 2 -0.000729 0.020343 -0.005851 0.000000 0.000000 0.000000
# 3 -0.002935 -0.005851 0.010242 0.000000 0.000000 0.000000
# 4 0.000000 0.000000 0.000000 0.074512 0.000000 0.000000
# 5 0.000000 0.000000 0.000000 0.000000 0.057378 0.000000
# 6 0.000000 0.000000 0.000000 0.000000 0.000000 0.041454
#
#
# Mechanical properties :
#
#
# Convention : Reuss Voigt Hill
#
# Bulk Modulus (GPa) = 40.98816 48.68000 44.83408
# Shear Modulus (GPa) = 20.49732 23.86098 22.17915
#
# Velocity S-wave (km/s) = 3.25945 3.51674 3.39053
# Velocity P-wave (km/s) = 5.95063 6.45921 6.21013
#
# Compressibility (1/GPa) = 0.02439729
#
# Stress axis : x y z
#
# Youngs Moduli (GPa) = 77.86790 49.15616 97.63500
#
# Poissons Ratio (x) = 0.03583 0.28659
# Poissons Ratio (y) = 0.05676 0.57127
# Poissons Ratio (z) = 0.22857 0.28762
#
# Static dielectric constant tensor:
#      x y z
#    x 3.342390 0.000000 0.000000 
#    y 0.000000 3.563020 0.000000 
#    z 0.000000 0.000000 4.147760 
# 
# 
# High freq. dielectric constant tensor:
#      x y z
#    x 1.725600 0.000000 0.000000 
#    y 0.000000 1.760110 0.000000 
#    z 0.000000 0.000000 1.746680 
# 
# From -- ./inp_files/44343.got.cif
#   From: 2010.03.12/outbox.cif.g09.slc.cpg/sg72_23_cif.got.tgz:44343.got - 2010.04.16 14:54:00.
