data_PCOD8293394
_publ_section_title
;
Structure prediction by ZEFSAII (Michael W. Deem and Ramdas Pophale) SiO2 
 PCOD8293394
Probable space group: I B A M
;
_chemical_formula_sum "Si O2"
_cell_formula_units_Z 80
_cell_length_a 13.158623
_cell_length_b 13.131468
_cell_length_c 26.087700
_cell_angle_alpha 90.000000
_cell_angle_beta 90.000000
_cell_angle_gamma 90.000000
_cell_volume 4507.746820
_symmetry_space_group_name_H-M "I B A M"
_symmetry_group_IT_number 72
_symmetry_cell_setting 'orthorhombic'
loop_
_space_group_symop_operation_xyz
x,y,z
-x,-y,z
x,-y,1/2-z
-x,y,1/2-z
-x,-y,-z
x,y,-z
-x,y,1/2+z
x,-y,1/2+z
1/2+x,1/2+y,1/2+z
1/2-x,1/2-y,1/2+z
1/2+x,1/2-y,-z
1/2-x,1/2+y,-z
1/2-x,1/2-y,1/2-z
1/2+x,1/2+y,1/2-z
1/2-x,1/2+y,z
1/2+x,1/2-y,z
loop_
_atom_site_type_symbol
_atom_site_label
_atom_site_fract_x
_atom_site_fract_y
_atom_site_fract_z
Si Si1 0.698936 0.418386 0.058699
Si Si2 0.634095 0.191414 0.617651
Si Si3 0.243002 0.611939 0.386467
Si Si4 0.618697 0.987387 0.808621
Si Si5 0.429105 0.226667 0.559220
O O1 0.804193 0.362396 0.072085
O O2 0.687307 0.521332 0.091281
O O3 0.604732 0.343144 0.070093
O O4 0.701897 0.450217 0.000000
O O5 0.680004 0.300846 0.631690
O O6 0.644522 0.124354 0.669214
O O7 0.519488 0.200843 0.597846
O O8 0.178878 0.575600 0.337856
O O9 0.164969 0.651274 0.429855
O O10 0.500000 0.000000 0.816494
O O11 0.651891 0.000000 0.750000
O O12 0.461877 0.212847 0.500000
#
# Coordination Sequence:
#
# PCOD8293394 Si02
#       5
#    16  16  16  16  16
#     4   9  19  32  49  77 109 144 181 213 251 307
#     4  10  20  34  53  79 106 139 175 216 262 311
#     4  10  20  35  53  77 108 139 174 217 261 309
#     4  10  20  37  59  79 100 130 175 222 266 315
#     4  10  19  32  51  77 110 145 178 212 256 305
#
# _framework density 17.747226999999999
#
# number of rings (size 3 to 8) (size 9 to 14) (size 15 to 20)
#    0.000    2.200    2.000    1.200    0.000    4.000 
#    0.000    5.000    0.000    0.000    0.000    1.400 
#    0.000    0.000    0.000    0.000    0.000    0.000 
#
# Total GULP energy -495982.617347 kJ/mol
# GULP energy per Si atom -12399.565434 kJ/mol
# Density = 1.770683 g / cm^3
# Si number density = 17.747227 Si / 1000 Ang^3
#
#
#
# Elastic Constant Matrix: (Units=GPa)
#
#
# Indices 1 2 3 4 5 6 
#
# 1 46.3644 21.1580 23.6657 0.0000 0.0000 0.0000
# 2 21.1580 113.2325 45.5893 0.0000 0.0000 0.0000
# 3 23.6657 45.5893 105.7911 0.0000 0.0000 0.0000
# 4 0.0000 0.0000 0.0000 21.9917 0.0000 0.0000
# 5 0.0000 0.0000 0.0000 0.0000 21.5621 0.0000
# 6 0.0000 0.0000 0.0000 0.0000 0.0000 25.6904
#
#
#
# Elastic Compliance Matrix: (Units=1/GPa)
#
#
# Indices 1 2 3 4 5 6 
#
# 1 0.025134 -0.002943 -0.004354 0.000000 0.000000 0.000000
# 2 -0.002943 0.011030 -0.004095 0.000000 0.000000 0.000000
# 3 -0.004354 -0.004095 0.012191 0.000000 0.000000 0.000000
# 4 0.000000 0.000000 0.000000 0.045472 0.000000 0.000000
# 5 0.000000 0.000000 0.000000 0.000000 0.046378 0.000000
# 6 0.000000 0.000000 0.000000 0.000000 0.000000 0.038925
#
#
# Mechanical properties :
#
#
# Convention : Reuss Voigt Hill
#
# Bulk Modulus (GPa) = 39.10738 49.57932 44.34335
# Shear Modulus (GPa) = 23.76002 25.51385 24.63694
#
# Velocity S-wave (km/s) = 3.66293 3.79572 3.72992
# Velocity P-wave (km/s) = 6.32242 6.87073 6.60227
#
# Compressibility (1/GPa) = 0.02557062
#
# Stress axis : x y z
#
# Youngs Moduli (GPa) = 39.78686 90.66191 82.02625
#
# Poissons Ratio (x) = 0.26685 0.35715
# Poissons Ratio (y) = 0.11711 0.33588
# Poissons Ratio (z) = 0.17324 0.37124
#
# Static dielectric constant tensor:
#      x y z
#    x 3.185340 0.000000 0.000000 
#    y 0.000000 3.492910 0.000000 
#    z 0.000000 0.000000 3.156440 
# 
# 
# High freq. dielectric constant tensor:
#      x y z
#    x 1.680360 0.000000 0.000000 
#    y 0.000000 1.698660 0.000000 
#    z 0.000000 0.000000 1.671150 
# 
# From -- ./inp_files/43084.got.cif
#   From: 2010.03.12/outbox.cif.g09.slc.cpg/sg72_22_cif.got.tgz:43084.got - 2010.04.16 14:54:00.
