data_PCOD8293427
_publ_section_title
;
Structure prediction by ZEFSAII (Michael W. Deem and Ramdas Pophale) SiO2 
 PCOD8293427
Probable space group: I B A M
;
_chemical_formula_sum "Si O2"
_cell_formula_units_Z 112
_cell_length_a 4.983941
_cell_length_b 32.345613
_cell_length_c 33.546770
_cell_angle_alpha 90.000000
_cell_angle_beta 90.000000
_cell_angle_gamma 90.000000
_cell_volume 5408.028725
_symmetry_space_group_name_H-M "I B A M"
_symmetry_group_IT_number 72
_symmetry_cell_setting 'orthorhombic'
loop_
_space_group_symop_operation_xyz
x,y,z
-x,-y,z
x,-y,1/2-z
-x,y,1/2-z
-x,-y,-z
x,y,-z
-x,y,1/2+z
x,-y,1/2+z
1/2+x,1/2+y,1/2+z
1/2-x,1/2-y,1/2+z
1/2+x,1/2-y,-z
1/2-x,1/2+y,-z
1/2-x,1/2-y,1/2-z
1/2+x,1/2+y,1/2-z
1/2-x,1/2+y,z
1/2+x,1/2-y,z
loop_
_atom_site_type_symbol
_atom_site_label
_atom_site_fract_x
_atom_site_fract_y
_atom_site_fract_z
Si Si1 0.372676 0.410194 0.350161
Si Si2 0.584264 0.364868 0.071895
Si Si3 0.757208 0.724399 0.584723
Si Si4 0.903827 0.411346 0.455224
Si Si5 0.248615 0.858120 0.723661
Si Si6 0.242110 0.724264 0.178487
Si Si7 0.368320 0.955933 0.877424
O O1 0.456368 0.373699 0.380798
O O2 0.364318 0.394247 0.304974
O O3 0.582290 0.448683 0.355107
O O4 0.069858 0.422109 0.360384
O O5 0.678529 0.318277 0.063374
O O6 0.298813 0.372800 0.050852
O O7 0.794970 0.396421 0.052662
O O8 0.549724 0.760192 0.571541
O O9 0.759358 0.716434 0.631604
O O10 0.882562 0.428805 0.500000
O O11 0.827461 0.448620 0.424884
O O12 0.500000 0.874157 0.750000
O O13 0.343099 0.818465 0.698774
O O14 0.000000 0.844082 0.750000
O O15 0.532595 0.740417 0.191770
O O16 0.500000 0.000000 0.868546
#
# Coordination Sequence:
#
# PCOD8293427 Si02
#       7
#    16  16  16  16  16  16  16
#     4  10  21  39  58  85 115 146 196 231 272 348
#     4  10  19  36  58  78 112 155 194 233 278 332
#     4  10  19  32  54  79 105 145 200 250 283 320
#     4  10  21  35  58  89 119 148 178 223 285 352
#     4  12  24  37  57  82 117 158 193 241 293 336
#     4  10  21  35  52  78 114 151 192 242 295 340
#     4  10  21  38  65  90 114 147 180 227 284 340
#
# _framework density 20.709951
#
# number of rings (size 3 to 8) (size 9 to 14) (size 15 to 20)
#    0.000    1.714    1.429    3.429    0.000    2.000 
#    0.000    0.000    0.000   20.143    0.000    0.000 
#    0.000    0.000    0.000    0.000    0.000    0.000 
#
# Total GULP energy -694438.811319 kJ/mol
# GULP energy per Si atom -12400.693059 kJ/mol
# Density = 2.066281 g / cm^3
# Si number density = 20.709951 Si / 1000 Ang^3
#
#
#
# Elastic Constant Matrix: (Units=GPa)
#
#
# Indices 1 2 3 4 5 6 
#
# 1 100.2438 0.9672 24.4915 0.0000 0.0000 0.0000
# 2 0.9672 64.3975 22.4285 0.0000 0.0000 0.0000
# 3 24.4915 22.4285 65.7246 0.0000 0.0000 0.0000
# 4 0.0000 0.0000 0.0000 13.8690 0.0000 0.0000
# 5 0.0000 0.0000 0.0000 0.0000 23.1435 0.0000
# 6 0.0000 0.0000 0.0000 0.0000 0.0000 31.8384
#
#
#
# Elastic Compliance Matrix: (Units=1/GPa)
#
#
# Indices 1 2 3 4 5 6 
#
# 1 0.011092 0.001445 -0.004626 0.000000 0.000000 0.000000
# 2 0.001445 0.017811 -0.006616 0.000000 0.000000 0.000000
# 3 -0.004626 -0.006616 0.019197 0.000000 0.000000 0.000000
# 4 0.000000 0.000000 0.000000 0.072103 0.000000 0.000000
# 5 0.000000 0.000000 0.000000 0.000000 0.043209 0.000000
# 6 0.000000 0.000000 0.000000 0.000000 0.000000 0.031409
#
#
# Mechanical properties :
#
#
# Convention : Reuss Voigt Hill
#
# Bulk Modulus (GPa) = 35.08287 36.23782 35.66035
# Shear Modulus (GPa) = 22.32957 25.93542 24.13250
#
# Velocity S-wave (km/s) = 3.28717 3.54265 3.41730
# Velocity P-wave (km/s) = 5.60216 5.85402 5.72947
#
# Compressibility (1/GPa) = 0.02850394
#
# Stress axis : x y z
#
# Youngs Moduli (GPa) = 90.15477 56.14432 52.09198
#
# Poissons Ratio (x) = -0.08111 0.24099
# Poissons Ratio (y) = -0.13024 0.34466
# Poissons Ratio (z) = 0.41708 0.37148
#
# Static dielectric constant tensor:
#      x y z
#    x 3.909880 0.000000 0.000000 
#    y 0.000000 3.384320 0.000000 
#    z 0.000000 0.000000 3.639130 
# 
# 
# High freq. dielectric constant tensor:
#      x y z
#    x 1.829650 0.000000 0.000000 
#    y 0.000000 1.785190 0.000000 
#    z 0.000000 0.000000 1.789890 
# 
# From -- ./inp_files/50446.got.cif
#   From: 2010.03.12/outbox.cif.g09.slc.cpg/sg72_26_cif.got.tgz:50446.got - 2010.04.16 14:54:00.
