data_PCOD8293177
_publ_section_title
;
Structure prediction by ZEFSAII (Michael W. Deem and Ramdas Pophale) SiO2 
 PCOD8293177
Probable space group: I B A M
;
_chemical_formula_sum "Si O2"
_cell_formula_units_Z 80
_cell_length_a 17.103023
_cell_length_b 25.055011
_cell_length_c 10.011230
_cell_angle_alpha 90.000000
_cell_angle_beta 90.000000
_cell_angle_gamma 90.000000
_cell_volume 4289.976533
_symmetry_space_group_name_H-M "I B A M"
_symmetry_group_IT_number 72
_symmetry_cell_setting 'orthorhombic'
loop_
_space_group_symop_operation_xyz
x,y,z
-x,-y,z
x,-y,1/2-z
-x,y,1/2-z
-x,-y,-z
x,y,-z
-x,y,1/2+z
x,-y,1/2+z
1/2+x,1/2+y,1/2+z
1/2-x,1/2-y,1/2+z
1/2+x,1/2-y,-z
1/2-x,1/2+y,-z
1/2-x,1/2-y,1/2-z
1/2+x,1/2+y,1/2-z
1/2-x,1/2+y,z
1/2+x,1/2-y,z
loop_
_atom_site_type_symbol
_atom_site_label
_atom_site_fract_x
_atom_site_fract_y
_atom_site_fract_z
Si Si1 0.911588 0.619844 0.000000
Si Si2 0.361585 0.185636 0.746135
Si Si3 0.706303 0.625138 0.260467
Si Si4 0.922445 0.796309 0.161449
Si Si5 0.234967 0.441554 0.500000
Si Si6 0.750484 0.433541 0.500000
Si Si7 0.915355 0.374870 0.000000
O O1 0.904551 0.655766 0.128506
O O2 0.999678 0.596594 0.000000
O O3 0.844129 0.575465 0.000000
O O4 0.269790 0.172551 0.755230
O O5 0.369629 0.248018 0.716079
O O6 0.405147 0.165848 0.878022
O O7 0.623040 0.649782 0.299663
O O8 0.726237 0.581546 0.369369
O O9 0.705045 0.592981 0.122775
O O10 0.000000 0.796165 0.250000
O O11 0.937359 0.793271 0.000000
O O12 0.254668 0.503435 0.500000
O O13 0.143416 0.425208 0.500000
#
# Coordination Sequence:
#
# PCOD8293177 Si02
#       7
#     8  16  16  16   8   8   8
#     4  10  18  34  51  88 124 155 192 243 279 339
#     4  10  21  36  58  84 120 165 196 223 280 353
#     4  10  22  41  61  86 119 154 197 246 288 349
#     4  12  25  40  61  89 123 154 192 243 299 356
#     4  10  20  40  60  87 109 160 203 245 299 345
#     4  10  22  36  64  85 113 152 207 247 297 349
#     4  10  20  32  57  84 126 159 196 233 285 341
#
# _framework density 18.648119999999999
#
# number of rings (size 3 to 8) (size 9 to 14) (size 15 to 20)
#    0.000    1.600    2.000    3.000    2.800    0.400 
#    0.000    0.000    0.000   10.800    0.000    0.000 
#    0.000    0.000    0.000    0.000    0.000    0.000 
#
# Total GULP energy -495822.903453 kJ/mol
# GULP energy per Si atom -12395.572586 kJ/mol
# Density = 1.860568 g / cm^3
# Si number density = 18.648120 Si / 1000 Ang^3
#
#
#
# Elastic Constant Matrix: (Units=GPa)
#
#
# Indices 1 2 3 4 5 6 
#
# 1 62.6909 51.7486 43.3632 0.0000 0.0000 0.0000
# 2 51.7486 113.9548 51.8492 0.0000 0.0000 0.0000
# 3 43.3632 51.8492 167.9643 -0.0001 -0.0001 0.0000
# 4 0.0000 0.0000 -0.0001 66.2486 0.0000 0.0000
# 5 0.0000 0.0000 -0.0001 0.0000 37.4567 0.0000
# 6 0.0000 0.0000 0.0000 0.0000 0.0000 13.8534
#
#
#
# Elastic Compliance Matrix: (Units=1/GPa)
#
#
# Indices 1 2 3 4 5 6 
#
# 1 0.027419 -0.010739 -0.003764 0.000000 0.000000 0.000000
# 2 -0.010739 0.014415 -0.001677 0.000000 0.000000 0.000000
# 3 -0.003764 -0.001677 0.007443 0.000000 0.000000 0.000000
# 4 0.000000 0.000000 0.000000 0.015095 0.000000 0.000000
# 5 0.000000 0.000000 0.000000 0.000000 0.026697 0.000000
# 6 0.000000 0.000000 0.000000 0.000000 0.000000 0.072184
#
#
# Mechanical properties :
#
#
# Convention : Reuss Voigt Hill
#
# Bulk Modulus (GPa) = 59.11078 70.94799 65.02939
# Shear Modulus (GPa) = 24.84427 36.68835 30.76631
#
# Velocity S-wave (km/s) = 3.65398 4.44035 4.06622
# Velocity P-wave (km/s) = 7.04052 8.02603 7.54938
#
# Compressibility (1/GPa) = 0.01691739
#
# Stress axis : x y z
#
# Youngs Moduli (GPa) = 36.47077 69.37046 134.35182
#
# Poissons Ratio (x) = 0.74497 0.50567
# Poissons Ratio (y) = 0.39166 0.22537
# Poissons Ratio (z) = 0.13727 0.11636
#
# Static dielectric constant tensor:
#      x y z
#    x 3.360450 0.000000 0.000000 
#    y 0.000000 3.252560 0.000000 
#    z 0.000000 0.000000 3.673940 
# 
# 
# High freq. dielectric constant tensor:
#      x y z
#    x 1.714130 0.000000 0.000000 
#    y 0.000000 1.708710 0.000000 
#    z 0.000000 0.000000 1.750650 
# 
# From -- ./inp_files/4885.got.cif
#   From: 2010.03.12/outbox.cif.g09.slc.cpg/sg72_3_cif.got.tgz:4885.got - 2010.04.16 14:54:00.
