data_PCOD8293258
_publ_section_title
;
Structure prediction by ZEFSAII (Michael W. Deem and Ramdas Pophale) SiO2 
 PCOD8293258
Probable space group: I B A M
;
_chemical_formula_sum "Si O2"
_cell_formula_units_Z 112
_cell_length_a 13.330715
_cell_length_b 27.457265
_cell_length_c 18.523256
_cell_angle_alpha 90.000000
_cell_angle_beta 90.000000
_cell_angle_gamma 90.000000
_cell_volume 6779.974303
_symmetry_space_group_name_H-M "I B A M"
_symmetry_group_IT_number 72
_symmetry_cell_setting 'orthorhombic'
loop_
_space_group_symop_operation_xyz
x,y,z
-x,-y,z
x,-y,1/2-z
-x,y,1/2-z
-x,-y,-z
x,y,-z
-x,y,1/2+z
x,-y,1/2+z
1/2+x,1/2+y,1/2+z
1/2-x,1/2-y,1/2+z
1/2+x,1/2-y,-z
1/2-x,1/2+y,-z
1/2-x,1/2-y,1/2-z
1/2+x,1/2+y,1/2-z
1/2-x,1/2+y,z
1/2+x,1/2-y,z
loop_
_atom_site_type_symbol
_atom_site_label
_atom_site_fract_x
_atom_site_fract_y
_atom_site_fract_z
Si Si1 0.346609 0.743389 0.170824
Si Si2 0.360065 0.798897 0.311739
Si Si3 0.731141 0.676561 0.917627
Si Si4 0.962975 0.230143 0.916180
Si Si5 0.386172 0.017421 0.080022
Si Si6 0.854543 0.586866 0.916140
Si Si7 0.544222 0.097728 0.323398
O O1 0.393261 0.764216 0.245167
O O2 0.261400 0.702485 0.183754
O O3 0.299044 0.789268 0.130899
O O4 0.433577 0.718141 0.124239
O O5 0.411142 0.778763 0.384591
O O6 0.395880 0.853884 0.300848
O O7 0.612795 0.684776 0.903549
O O8 0.758161 0.620571 0.899526
O O9 0.757735 0.689491 0.000000
O O10 0.984986 0.239467 0.000000
O O11 0.376688 0.060915 0.138120
O O12 0.500000 0.000000 0.076390
O O13 0.325934 0.968868 0.106078
O O14 0.350456 0.034841 0.000000
O O15 0.951384 0.608931 0.875961
O O16 0.884041 0.587462 0.000000
O O17 0.500000 0.073998 0.250000
#
# Coordination Sequence:
#
# PCOD8293258 Si02
#       7
#    16  16  16  16  16  16  16
#     4  10  19  33  46  61  91 122 150 186 224 266
#     4  10  21  32  45  64  88 122 154 179 221 278
#     4   9  17  28  45  67  87 115 155 190 224 268
#     4  10  19  30  45  66  89 114 150 193 230 263
#     4   8  16  29  42  59  86 119 147 172 214 267
#     4   9  17  30  45  61  88 122 149 177 217 267
#     4  11  19  27  42  66  90 113 146 185 223 262
#
# _framework density 16.519235999999999
#
# number of rings (size 3 to 8) (size 9 to 14) (size 15 to 20)
#    0.000    2.429    0.000    4.714    0.000    5.429 
#    0.000    0.000    0.000    0.000    0.000    1.000 
#    0.000    4.571    0.000   18.857    0.000   21.000 
#
# Total GULP energy -694123.803617 kJ/mol
# GULP energy per Si atom -12395.067922 kJ/mol
# Density = 1.648164 g / cm^3
# Si number density = 16.519236 Si / 1000 Ang^3
#
#
#
# Elastic Constant Matrix: (Units=GPa)
#
#
# Indices 1 2 3 4 5 6 
#
# 1 76.5208 37.9547 42.4192 0.0000 0.0000 0.0000
# 2 37.9547 87.7087 42.8822 0.0000 0.0000 0.0000
# 3 42.4192 42.8822 89.1817 -0.0001 0.0000 0.0000
# 4 0.0000 0.0000 -0.0001 20.8605 0.0000 0.0000
# 5 0.0000 0.0000 0.0000 0.0000 24.8539 0.0000
# 6 0.0000 0.0000 0.0000 0.0000 0.0000 21.9101
#
#
#
# Elastic Compliance Matrix: (Units=1/GPa)
#
#
# Indices 1 2 3 4 5 6 
#
# 1 0.019324 -0.005057 -0.006760 0.000000 0.000000 0.000000
# 2 -0.005057 0.016229 -0.005398 0.000000 0.000000 0.000000
# 3 -0.006760 -0.005398 0.017024 0.000000 0.000000 0.000000
# 4 0.000000 0.000000 0.000000 0.047937 0.000000 0.000000
# 5 0.000000 0.000000 0.000000 0.000000 0.040235 0.000000
# 6 0.000000 0.000000 0.000000 0.000000 0.000000 0.045641
#
#
# Mechanical properties :
#
#
# Convention : Reuss Voigt Hill
#
# Bulk Modulus (GPa) = 55.10599 55.54703 55.32651
# Shear Modulus (GPa) = 22.03907 22.20190 22.12049
#
# Velocity S-wave (km/s) = 3.65656 3.67004 3.66331
# Velocity P-wave (km/s) = 7.15949 7.18732 7.17342
#
# Compressibility (1/GPa) = 0.01814685
#
# Stress axis : x y z
#
# Youngs Moduli (GPa) = 51.74912 61.61787 58.74072
#
# Poissons Ratio (x) = 0.31162 0.39707
# Poissons Ratio (y) = 0.26171 0.31709
# Poissons Ratio (z) = 0.34981 0.33262
#
# Static dielectric constant tensor:
#      x y z
#    x 3.028350 0.000000 0.000000 
#    y 0.000000 3.290570 0.000000 
#    z 0.000000 0.000000 3.366510 
# 
# 
# High freq. dielectric constant tensor:
#      x y z
#    x 1.602660 0.000000 0.000000 
#    y 0.000000 1.614160 0.000000 
#    z 0.000000 0.000000 1.654190 
# 
# From -- ./inp_files/37419.got.cif
#   From: 2010.03.12/outbox.cif.g09.slc.cpg/sg72_19_cif.got.tgz:37419.got - 2010.04.16 14:54:00.
