data_PCOD8293884
_publ_section_title
;
Structure prediction by ZEFSAII (Michael W. Deem and Ramdas Pophale) SiO2 
 PCOD8293884
Probable space group: I B A M
;
_chemical_formula_sum "Si O2"
_cell_formula_units_Z 116
_cell_length_a 23.611586
_cell_length_b 26.164264
_cell_length_c 9.433965
_cell_angle_alpha 90.000000
_cell_angle_beta 90.000000
_cell_angle_gamma 90.000000
_cell_volume 5828.112724
_symmetry_space_group_name_H-M "I B A M"
_symmetry_group_IT_number 72
_symmetry_cell_setting 'orthorhombic'
loop_
_space_group_symop_operation_xyz
x,y,z
-x,-y,z
x,-y,1/2-z
-x,y,1/2-z
-x,-y,-z
x,y,-z
-x,y,1/2+z
x,-y,1/2+z
1/2+x,1/2+y,1/2+z
1/2-x,1/2-y,1/2+z
1/2+x,1/2-y,-z
1/2-x,1/2+y,-z
1/2-x,1/2-y,1/2-z
1/2+x,1/2+y,1/2-z
1/2-x,1/2+y,z
1/2+x,1/2-y,z
loop_
_atom_site_type_symbol
_atom_site_label
_atom_site_fract_x
_atom_site_fract_y
_atom_site_fract_z
Si Si1 0.399855 0.187767 0.339433
Si Si2 0.054523 0.221579 0.668202
Si Si3 0.157236 0.850861 0.162305
Si Si4 0.802940 0.567244 0.341600
Si Si5 0.000000 0.500000 0.750000
Si Si6 0.720135 0.837808 0.342380
Si Si7 0.323072 0.547025 0.162703
Si Si8 0.597072 0.930527 0.343066
O O1 0.421158 0.199007 0.500000
O O2 0.433684 0.221791 0.227578
O O3 0.332191 0.201835 0.328415
O O4 0.412199 0.128667 0.297910
O O5 0.044474 0.224251 0.500000
O O6 0.106065 0.184827 0.710449
O O7 0.000000 0.199249 0.750000
O O8 0.215551 0.817035 0.176279
O O9 0.159312 0.900277 0.262418
O O10 0.148942 0.869176 0.000000
O O11 0.825675 0.573086 0.500000
O O12 0.789004 0.622261 0.280804
O O13 0.744491 0.536008 0.335839
O O14 0.854950 0.542582 0.254051
O O15 0.039058 0.462531 0.842580
O O16 0.715676 0.863208 0.500000
O O17 0.351101 0.500000 0.250000
O O18 0.345080 0.547938 0.000000
O O19 0.622231 0.931498 0.500000
#
# Coordination Sequence:
#
# PCOD8293884 Si02
#       8
#    16  16  16  16   4  16  16  16
#     4   9  19  37  60  85 112 147 188 237 296 351
#     4  11  24  40  60  86 114 152 196 237 286 340
#     4   9  19  37  59  85 119 153 190 236 284 341
#     4   9  18  32  52  80 111 145 186 229 275 337
#     4  12  26  40  56  82 102 148 208 254 298 340
#     4   8  15  32  57  84 114 148 181 227 292 344
#     4  10  20  33  55  88 120 153 188 224 276 337
#     4  10  23  41  57  76 107 146 191 246 300 343
#
# _framework density 19.903528000000001
#
# number of rings (size 3 to 8) (size 9 to 14) (size 15 to 20)
#    0.000    2.483    0.000    2.276    1.931    6.621 
#    0.000    0.000    0.000    0.414    0.000    2.897 
#    0.000    0.000    0.000    0.000    0.000    0.000 
#
# Total GULP energy -718532.852858 kJ/mol
# GULP energy per Si atom -12388.497463 kJ/mol
# Density = 1.985823 g / cm^3
# Si number density = 19.903528 Si / 1000 Ang^3
#
#
#
# Elastic Constant Matrix: (Units=GPa)
#
#
# Indices 1 2 3 4 5 6 
#
# 1 121.2828 44.3838 40.6674 0.0000 0.0000 0.0000
# 2 44.3838 71.8167 45.2162 0.0000 0.0000 0.0000
# 3 40.6674 45.2162 116.4724 0.0000 0.0000 0.0000
# 4 0.0000 0.0000 0.0000 14.8897 0.0000 0.0000
# 5 0.0000 0.0000 0.0000 0.0000 29.0939 0.0000
# 6 0.0000 0.0000 0.0000 0.0000 0.0000 25.2919
#
#
#
# Elastic Compliance Matrix: (Units=1/GPa)
#
#
# Indices 1 2 3 4 5 6 
#
# 1 0.010868 -0.005727 -0.001571 0.000000 0.000000 0.000000
# 2 -0.005727 0.021447 -0.006326 0.000000 0.000000 0.000000
# 3 -0.001571 -0.006326 0.011590 0.000000 0.000000 0.000000
# 4 0.000000 0.000000 0.000000 0.067160 0.000000 0.000000
# 5 0.000000 0.000000 0.000000 0.000000 0.034371 0.000000
# 6 0.000000 0.000000 0.000000 0.000000 0.000000 0.039538
#
#
# Mechanical properties :
#
#
# Convention : Reuss Voigt Hill
#
# Bulk Modulus (GPa) = 60.03990 63.34520 61.69255
# Shear Modulus (GPa) = 22.95927 25.80874 24.38401
#
# Velocity S-wave (km/s) = 3.40005 3.60487 3.50395
# Velocity P-wave (km/s) = 6.75609 7.01584 6.88719
#
# Compressibility (1/GPa) = 0.01665559
#
# Stress axis : x y z
#
# Youngs Moduli (GPa) = 92.01344 46.62659 86.27922
#
# Poissons Ratio (x) = 0.26705 0.13556
# Poissons Ratio (y) = 0.52699 0.54583
# Poissons Ratio (z) = 0.14457 0.29497
#
# Static dielectric constant tensor:
#      x y z
#    x 3.783910 0.000000 0.000000 
#    y 0.000000 3.243150 0.000000 
#    z 0.000000 0.000000 3.655910 
# 
# 
# High freq. dielectric constant tensor:
#      x y z
#    x 1.765530 0.000000 0.000000 
#    y 0.000000 1.748600 0.000000 
#    z 0.000000 0.000000 1.784690 
# 
# From -- ./inp_files/7283.got.cif
#   From: 2010.03.12/outbox.cif.g09.slc.cpg/sg72_4_cif.got.tgz:7283.got - 2010.04.16 14:54:00.
