data_PCOD8293980
_publ_section_title
;
Structure prediction by ZEFSAII (Michael W. Deem and Ramdas Pophale) SiO2 
 PCOD8293980
Probable space group: I B A M
;
_chemical_formula_sum "Si O2"
_cell_formula_units_Z 96
_cell_length_a 23.282325
_cell_length_b 10.852864
_cell_length_c 17.322371
_cell_angle_alpha 90.000000
_cell_angle_beta 90.000000
_cell_angle_gamma 90.000000
_cell_volume 4377.015090
_symmetry_space_group_name_H-M "I B A M"
_symmetry_group_IT_number 72
_symmetry_cell_setting 'orthorhombic'
loop_
_space_group_symop_operation_xyz
x,y,z
-x,-y,z
x,-y,1/2-z
-x,y,1/2-z
-x,-y,-z
x,y,-z
-x,y,1/2+z
x,-y,1/2+z
1/2+x,1/2+y,1/2+z
1/2-x,1/2-y,1/2+z
1/2+x,1/2-y,-z
1/2-x,1/2+y,-z
1/2-x,1/2-y,1/2-z
1/2+x,1/2+y,1/2-z
1/2-x,1/2+y,z
1/2+x,1/2-y,z
loop_
_atom_site_type_symbol
_atom_site_label
_atom_site_fract_x
_atom_site_fract_y
_atom_site_fract_z
Si Si1 0.479958 0.695899 0.586001
Si Si2 0.195101 0.747541 0.847225
Si Si3 0.627668 0.542000 0.087447
Si Si4 0.818361 0.820044 0.823377
Si Si5 0.073376 0.672007 0.321342
Si Si6 0.412890 0.101568 0.151364
O O1 0.503823 0.671364 0.500000
O O2 0.437939 0.582315 0.611207
O O3 0.533387 0.720362 0.642902
O O4 0.441158 0.819546 0.583292
O O5 0.169332 0.839061 0.911108
O O6 0.195169 0.826445 0.767718
O O7 0.259147 0.704456 0.869508
O O8 0.155882 0.623353 0.843834
O O9 0.650787 0.443340 0.147956
O O10 0.627956 0.490280 0.000000
O O11 0.861027 0.707292 0.837760
O O12 0.068068 0.538846 0.361931
O O13 0.059757 0.656707 0.230706
#
# Coordination Sequence:
#
# PCOD8293980 Si02
#       6
#    16  16  16  16  16  16
#     4  10  21  37  56  80 116 159 196 239 292 350
#     4   9  20  38  61  85 115 150 197 251 298 351
#     4  10  22  39  57  81 120 161 196 240 299 359
#     4  10  21  36  61  88 112 151 199 246 298 357
#     4  10  20  34  57  88 115 147 195 247 297 347
#     4   9  19  36  57  85 116 148 190 248 300 343
#
# _framework density 21.932755
#
# number of rings (size 3 to 8) (size 9 to 14) (size 15 to 20)
#    0.000    2.333    0.000    1.500    2.333    4.667 
#    0.000    1.667    0.000    6.000    0.000    0.000 
#    0.000    0.000    0.000    0.000    0.000    0.000 
#
# Total GULP energy -594861.542518 kJ/mol
# GULP energy per Si atom -12392.948802 kJ/mol
# Density = 2.188283 g / cm^3
# Si number density = 21.932755 Si / 1000 Ang^3
#
#
#
# Elastic Constant Matrix: (Units=GPa)
#
#
# Indices 1 2 3 4 5 6 
#
# 1 126.8059 20.2153 29.5324 0.0000 0.0000 0.0000
# 2 20.2153 70.6094 25.1621 0.0000 0.0000 0.0000
# 3 29.5324 25.1621 53.2597 0.0000 0.0000 0.0000
# 4 0.0000 0.0000 0.0000 19.6676 0.0000 0.0000
# 5 0.0000 0.0000 0.0000 0.0000 17.9066 0.0000
# 6 0.0000 0.0000 0.0000 0.0000 0.0000 33.1334
#
#
#
# Elastic Compliance Matrix: (Units=1/GPa)
#
#
# Indices 1 2 3 4 5 6 
#
# 1 0.009111 -0.000972 -0.004593 0.000000 0.000000 0.000000
# 2 -0.000972 0.017133 -0.007556 0.000000 0.000000 0.000000
# 3 -0.004593 -0.007556 0.024892 0.000000 0.000000 0.000000
# 4 0.000000 0.000000 0.000000 0.050845 0.000000 0.000000
# 5 0.000000 0.000000 0.000000 0.000000 0.055845 0.000000
# 6 0.000000 0.000000 0.000000 0.000000 0.000000 0.030181
#
#
# Mechanical properties :
#
#
# Convention : Reuss Voigt Hill
#
# Bulk Modulus (GPa) = 40.16740 44.49941 42.33341
# Shear Modulus (GPa) = 22.46726 25.85918 24.16322
#
# Velocity S-wave (km/s) = 3.20405 3.43741 3.32278
# Velocity P-wave (km/s) = 5.66053 6.00729 5.83648
#
# Compressibility (1/GPa) = 0.02489581
#
# Stress axis : x y z
#
# Youngs Moduli (GPa) = 109.76221 58.36661 40.17334
#
# Poissons Ratio (x) = 0.05671 0.18451
# Poissons Ratio (y) = 0.10666 0.30353
# Poissons Ratio (z) = 0.50411 0.44099
#
# Static dielectric constant tensor:
#      x y z
#    x 4.139300 0.000000 0.000000 
#    y 0.000000 3.786860 0.000000 
#    z 0.000000 0.000000 3.628450 
# 
# 
# High freq. dielectric constant tensor:
#      x y z
#    x 1.875620 0.000000 0.000000 
#    y 0.000000 1.853960 0.000000 
#    z 0.000000 0.000000 1.832170 
# 
# From -- ./inp_files/33241.got.cif
#   From: 2010.03.12/outbox.cif.g09.slc.cpg/sg72_17_cif.got.tgz:33241.got - 2010.04.16 14:54:00.
