data_PCOD8293302
_publ_section_title
;
Structure prediction by ZEFSAII (Michael W. Deem and Ramdas Pophale) SiO2 
 PCOD8293302
Probable space group: I B A M
;
_chemical_formula_sum "Si O2"
_cell_formula_units_Z 80
_cell_length_a 44.284919
_cell_length_b 5.230214
_cell_length_c 14.827281
_cell_angle_alpha 90.000000
_cell_angle_beta 90.000000
_cell_angle_gamma 90.000000
_cell_volume 3434.288944
_symmetry_space_group_name_H-M "I B A M"
_symmetry_group_IT_number 72
_symmetry_cell_setting 'orthorhombic'
loop_
_space_group_symop_operation_xyz
x,y,z
-x,-y,z
x,-y,1/2-z
-x,y,1/2-z
-x,-y,-z
x,y,-z
-x,y,1/2+z
x,-y,1/2+z
1/2+x,1/2+y,1/2+z
1/2-x,1/2-y,1/2+z
1/2+x,1/2-y,-z
1/2-x,1/2+y,-z
1/2-x,1/2-y,1/2-z
1/2+x,1/2+y,1/2-z
1/2-x,1/2+y,z
1/2+x,1/2-y,z
loop_
_atom_site_type_symbol
_atom_site_label
_atom_site_fract_x
_atom_site_fract_y
_atom_site_fract_z
Si Si1 0.762327 0.805440 0.349821
Si Si2 0.364381 0.905304 0.892959
Si Si3 0.033582 0.953037 0.107274
Si Si4 0.170659 0.905032 0.892669
Si Si5 0.567942 0.047231 0.107343
O O1 0.750000 0.750000 0.250000
O O2 0.757120 0.531864 0.399447
O O3 0.796675 0.897947 0.347305
O O4 0.347904 0.650143 0.856138
O O5 0.398095 0.940581 0.854112
O O6 0.346296 0.151782 0.859790
O O7 0.365871 0.887411 0.000000
O O8 0.049270 0.695688 0.146253
O O9 0.052589 0.193823 0.141053
O O10 0.032572 0.934590 0.000000
O O11 0.000000 0.000000 0.145673
O O12 0.174274 0.912848 0.000000
O O13 0.568317 0.028964 0.000000
#
# Coordination Sequence:
#
# PCOD8293302 Si02
#       5
#    16  16  16  16  16
#     4  10  21  36  52  70  93 120 148 183 225 283
#     4   9  17  28  42  62  86 113 147 191 242 284
#     4   9  15  21  30  46  69 102 146 191 230 268
#     4  10  19  31  48  69  91 115 149 193 236 279
#     4   9  15  23  34  48  72 105 140 185 236 274
#
# _framework density 23.294487
#
# number of rings (size 3 to 8) (size 9 to 14) (size 15 to 20)
#    0.000    2.600    0.000    3.000    0.000    8.000 
#    0.000    0.000    0.000    0.000    0.000    0.000 
#    0.000    0.000    0.000    0.000    0.000    0.000 
#
# Total GULP energy -495771.687567 kJ/mol
# GULP energy per Si atom -12394.292189 kJ/mol
# Density = 2.324147 g / cm^3
# Si number density = 23.294487 Si / 1000 Ang^3
#
#
#
# Elastic Constant Matrix: (Units=GPa)
#
#
# Indices 1 2 3 4 5 6 
#
# 1 223.9111 113.7340 2.5168 0.0000 0.0000 0.0000
# 2 113.7340 258.7652 2.9131 0.0000 0.0000 0.0000
# 3 2.5168 2.9131 15.5631 0.0000 0.0000 0.0000
# 4 0.0000 0.0000 0.0000 2.8634 0.0000 0.0000
# 5 0.0000 0.0000 0.0000 0.0000 -65.2355 0.0000
# 6 0.0000 0.0000 0.0000 0.0000 0.0000 56.5885
#
#
#
# Elastic Compliance Matrix: (Units=1/GPa)
#
#
# Indices 1 2 3 4 5 6 
#
# 1 0.005753 -0.002523 -0.000458 0.000000 0.000000 0.000000
# 2 -0.002523 0.004980 -0.000524 0.000000 0.000000 0.000000
# 3 -0.000458 -0.000524 0.064427 0.000000 0.000000 0.000000
# 4 0.000000 0.000000 0.000000 0.349238 0.000000 0.000000
# 5 0.000000 0.000000 0.000000 0.000000 -0.015329 0.000000
# 6 0.000000 0.000000 0.000000 0.000000 0.000000 0.017671
#
#
# Mechanical properties :
#
#
# Convention : Reuss Voigt Hill
#
# Bulk Modulus (GPa) = 14.67383 81.84080 48.25732
# Shear Modulus (GPa) = 10.95371 24.11496 17.53433
#
# Velocity S-wave (km/s) = 2.17083 3.22098 2.74656
# Velocity P-wave (km/s) = 3.54912 7.00302 5.55151
#
# Compressibility (1/GPa) = 0.06814852
#
# Stress axis : x y z
#
# Youngs Moduli (GPa) = 173.82357 200.82277 15.52147
#
# Poissons Ratio (x) = 0.50676 0.00711
# Poissons Ratio (y) = 0.43863 0.00813
# Poissons Ratio (z) = 0.07961 0.10523
#
# Static dielectric constant tensor:
#      x y z
#    x 4.343490 0.000000 0.000000 
#    y 0.000000 0.930480 0.000000 
#    z 0.000000 0.000000 3.261630 
# 
# 
# High freq. dielectric constant tensor:
#      x y z
#    x 1.931180 0.000000 0.000000 
#    y 0.000000 1.947120 0.000000 
#    z 0.000000 0.000000 1.869220 
# 
# From -- ./inp_files/46104.got.cif
#   From: 2010.03.12/outbox.cif.g09.slc.cpg/sg72_24_cif.got.tgz:46104.got - 2010.04.16 14:54:00.
