data_PCOD8293135
_publ_section_title
;
Structure prediction by ZEFSAII (Michael W. Deem and Ramdas Pophale) SiO2 
 PCOD8293135
Probable space group: I B A M
;
_chemical_formula_sum "Si O2"
_cell_formula_units_Z 64
_cell_length_a 10.124201
_cell_length_b 19.071307
_cell_length_c 17.970030
_cell_angle_alpha 90.000000
_cell_angle_beta 90.000000
_cell_angle_gamma 90.000000
_cell_volume 3469.684757
_symmetry_space_group_name_H-M "I B A M"
_symmetry_group_IT_number 72
_symmetry_cell_setting 'orthorhombic'
loop_
_space_group_symop_operation_xyz
x,y,z
-x,-y,z
x,-y,1/2-z
-x,y,1/2-z
-x,-y,-z
x,y,-z
-x,y,1/2+z
x,-y,1/2+z
1/2+x,1/2+y,1/2+z
1/2-x,1/2-y,1/2+z
1/2+x,1/2-y,-z
1/2-x,1/2+y,-z
1/2-x,1/2-y,1/2-z
1/2+x,1/2+y,1/2-z
1/2-x,1/2+y,z
1/2+x,1/2-y,z
loop_
_atom_site_type_symbol
_atom_site_label
_atom_site_fract_x
_atom_site_fract_y
_atom_site_fract_z
Si Si1 0.366853 0.163850 0.709022
Si Si2 0.615278 0.681111 0.691679
Si Si3 0.113324 0.053400 0.087521
Si Si4 0.647492 0.981874 0.664042
O O1 0.500000 0.139345 0.750000
O O2 0.388693 0.237286 0.665602
O O3 0.256992 0.168641 0.772499
O O4 0.329481 0.101806 0.651854
O O5 0.500000 0.666230 0.750000
O O6 0.591341 0.630202 0.622347
O O7 0.254680 0.023461 0.110745
O O8 0.107486 0.063507 0.000000
O O9 0.000000 0.000000 0.115547
O O10 0.500000 0.000000 0.639128
O O11 0.677117 0.000000 0.750000
#
# Coordination Sequence:
#
# PCOD8293135 Si02
#       4
#    16  16  16  16
#     4  10  18  32  54  86 109 132 188 235 274 322
#     4  10  20  33  56  81 108 146 186 233 276 325
#     4  11  24  38  54  83 118 152 189 229 282 340
#     4  11  19  34  60  85 111 143 187 236 275 329
#
# _framework density 18.445478999999999
#
# number of rings (size 3 to 8) (size 9 to 14) (size 15 to 20)
#    0.000    1.500    5.000    1.500    0.000    0.500 
#    0.000    1.250    0.000   22.500    0.000    0.000 
#    0.000    0.000    0.000    0.000    0.000    0.000 
#
# Total GULP energy -396786.903685 kJ/mol
# GULP energy per Si atom -12399.590740 kJ/mol
# Density = 1.840350 g / cm^3
# Si number density = 18.445479 Si / 1000 Ang^3
#
#
#
# Elastic Constant Matrix: (Units=GPa)
#
#
# Indices 1 2 3 4 5 6 
#
# 1 94.3042 20.7165 27.1588 0.0000 0.0000 0.0000
# 2 20.7165 167.0330 51.6506 0.0000 0.0000 0.0000
# 3 27.1588 51.6506 57.8819 0.0000 0.0000 0.0000
# 4 0.0000 0.0000 0.0000 23.5337 0.0000 0.0000
# 5 0.0000 0.0000 0.0000 0.0000 20.7808 0.0000
# 6 0.0000 0.0000 0.0000 0.0000 0.0000 36.0117
#
#
#
# Elastic Compliance Matrix: (Units=1/GPa)
#
#
# Indices 1 2 3 4 5 6 
#
# 1 0.012276 0.000357 -0.006079 0.000000 0.000000 0.000000
# 2 0.000357 0.008279 -0.007555 0.000000 0.000000 0.000000
# 3 -0.006079 -0.007555 0.026871 0.000000 0.000000 0.000000
# 4 0.000000 0.000000 0.000000 0.042492 0.000000 0.000000
# 5 0.000000 0.000000 0.000000 0.000000 0.048121 0.000000
# 6 0.000000 0.000000 0.000000 0.000000 0.000000 0.027769
#
#
# Mechanical properties :
#
#
# Convention : Reuss Voigt Hill
#
# Bulk Modulus (GPa) = 47.91111 57.58564 52.74838
# Shear Modulus (GPa) = 25.08549 30.71147 27.89848
#
# Velocity S-wave (km/s) = 3.69179 4.08485 3.89328
# Velocity P-wave (km/s) = 6.64855 7.31677 6.99065
#
# Compressibility (1/GPa) = 0.02087199
#
# Stress axis : x y z
#
# Youngs Moduli (GPa) = 81.45864 120.79108 37.21549
#
# Poissons Ratio (x) = -0.04314 0.22623
# Poissons Ratio (y) = -0.02909 0.28117
# Poissons Ratio (z) = 0.49517 0.91259
#
# Static dielectric constant tensor:
#      x y z
#    x 3.540090 0.000000 0.000000 
#    y 0.000000 3.949820 0.000000 
#    z 0.000000 0.000000 3.339170 
# 
# 
# High freq. dielectric constant tensor:
#      x y z
#    x 1.737930 0.000000 0.000000 
#    y 0.000000 1.744570 0.000000 
#    z 0.000000 0.000000 1.654810 
# 
# From -- ./inp_files/18667.got.cif
#   From: 2010.03.12/outbox.cif.g09.slc.cpg/sg72_10_cif.got.tgz:18667.got - 2010.04.16 14:54:00.
