data_PCOD8293103
_publ_section_title
;
Structure prediction by ZEFSAII (Michael W. Deem and Ramdas Pophale) SiO2 
 PCOD8293103
Probable space group: I B A M
;
_chemical_formula_sum "Si O2"
_cell_formula_units_Z 96
_cell_length_a 25.502999
_cell_length_b 22.793664
_cell_length_c 8.741589
_cell_angle_alpha 90.000000
_cell_angle_beta 90.000000
_cell_angle_gamma 90.000000
_cell_volume 5081.545043
_symmetry_space_group_name_H-M "I B A M"
_symmetry_group_IT_number 72
_symmetry_cell_setting 'orthorhombic'
loop_
_space_group_symop_operation_xyz
x,y,z
-x,-y,z
x,-y,1/2-z
-x,y,1/2-z
-x,-y,-z
x,y,-z
-x,y,1/2+z
x,-y,1/2+z
1/2+x,1/2+y,1/2+z
1/2-x,1/2-y,1/2+z
1/2+x,1/2-y,-z
1/2-x,1/2+y,-z
1/2-x,1/2-y,1/2-z
1/2+x,1/2+y,1/2-z
1/2-x,1/2+y,z
1/2+x,1/2-y,z
loop_
_atom_site_type_symbol
_atom_site_label
_atom_site_fract_x
_atom_site_fract_y
_atom_site_fract_z
Si Si1 0.943962 0.937868 0.317592
Si Si2 0.554719 0.857255 0.177894
Si Si3 0.736235 0.437566 0.317300
Si Si4 0.853755 0.138626 0.681714
Si Si5 0.879714 0.267470 0.328333
Si Si6 0.345865 0.889810 0.827746
O O1 0.946764 0.941884 0.500000
O O2 0.903204 0.889582 0.264590
O O3 0.000000 0.919831 0.250000
O O4 0.925440 0.000000 0.250000
O O5 0.500000 0.876907 0.250000
O O6 0.570672 0.790627 0.228426
O O7 0.601069 0.902488 0.230711
O O8 0.547903 0.860461 0.000000
O O9 0.718962 0.500000 0.250000
O O10 0.731207 0.437596 0.500000
O O11 0.699374 0.387982 0.247473
O O12 0.795290 0.423147 0.260939
O O13 0.856416 0.129033 0.500000
O O14 0.854802 0.207012 0.730726
O O15 0.901181 0.258270 0.500000
O O16 0.835384 0.318987 0.324212
O O17 0.356196 0.911389 0.000000
#
# Coordination Sequence:
#
# PCOD8293103 Si02
#       6
#    16  16  16  16  16  16
#     4  11  22  38  57  77 105 142 188 235 284 332
#     4  10  18  31  55  83 113 147 183 223 271 332
#     4  11  23  39  60  83 113 148 189 236 282 335
#     4  11  22  37  57  82 113 147 188 233 278 332
#     4   8  18  36  54  78 110 144 180 222 272 326
#     4   8  18  38  57  80 112 149 187 229 280 331
#
# _framework density 18.891891999999999
#
# number of rings (size 3 to 8) (size 9 to 14) (size 15 to 20)
#    1.000    1.167    0.000    4.500    0.000    4.000 
#    0.000    0.000    0.000    0.500    0.000    3.500 
#    0.000    0.000    0.000    0.000    0.000    0.000 
#
# Total GULP energy -594834.509052 kJ/mol
# GULP energy per Si atom -12392.385605 kJ/mol
# Density = 1.884889 g / cm^3
# Si number density = 18.891892 Si / 1000 Ang^3
#
#
#
# Elastic Constant Matrix: (Units=GPa)
#
#
# Indices 1 2 3 4 5 6 
#
# 1 88.6918 7.9805 36.3529 0.0000 0.0000 0.0000
# 2 7.9805 23.7217 10.3546 0.0000 0.0000 0.0000
# 3 36.3529 10.3546 117.2280 0.0000 0.0000 0.0000
# 4 0.0000 0.0000 0.0000 20.8447 0.0000 0.0000
# 5 0.0000 0.0000 0.0000 0.0000 34.1934 0.0000
# 6 0.0000 0.0000 0.0000 0.0000 0.0000 30.9078
#
#
#
# Elastic Compliance Matrix: (Units=1/GPa)
#
#
# Indices 1 2 3 4 5 6 
#
# 1 0.013085 -0.002736 -0.003816 0.000000 0.000000 0.000000
# 2 -0.002736 0.044418 -0.003075 0.000000 0.000000 0.000000
# 3 -0.003816 -0.003075 0.009985 0.000000 0.000000 0.000000
# 4 0.000000 0.000000 0.000000 0.047974 0.000000 0.000000
# 5 0.000000 0.000000 0.000000 0.000000 0.029245 0.000000
# 6 0.000000 0.000000 0.000000 0.000000 0.000000 0.032354
#
#
# Mechanical properties :
#
#
# Convention : Reuss Voigt Hill
#
# Bulk Modulus (GPa) = 20.73216 37.66861 29.20039
# Shear Modulus (GPa) = 23.54099 28.85274 26.19686
#
# Velocity S-wave (km/s) = 3.53383 3.91225 3.72784
# Velocity P-wave (km/s) = 5.25819 6.35531 5.83260
#
# Compressibility (1/GPa) = 0.04823423
#
# Stress axis : x y z
#
# Youngs Moduli (GPa) = 76.42121 22.51325 100.14637
#
# Poissons Ratio (x) = 0.06161 0.38217
# Poissons Ratio (y) = 0.20912 0.30793
# Poissons Ratio (z) = 0.29163 0.06922
#
# Static dielectric constant tensor:
#      x y z
#    x 3.439750 0.000000 0.000000 
#    y 0.000000 3.379760 0.000000 
#    z 0.000000 0.000000 3.470040 
# 
# 
# High freq. dielectric constant tensor:
#      x y z
#    x 1.729620 0.000000 0.000000 
#    y 0.000000 1.716050 0.000000 
#    z 0.000000 0.000000 1.741660 
# 
# From -- ./inp_files/8276.got.cif
#   From: 2010.03.12/outbox.cif.g09.slc.cpg/sg72_5_cif.got.tgz:8276.got - 2010.04.16 14:54:00.
