data_PCOD8293476
_publ_section_title
;
Structure prediction by ZEFSAII (Michael W. Deem and Ramdas Pophale) SiO2 
 PCOD8293476
Probable space group: I B A M
;
_chemical_formula_sum "Si O2"
_cell_formula_units_Z 96
_cell_length_a 9.605062
_cell_length_b 22.233486
_cell_length_c 25.880161
_cell_angle_alpha 90.000000
_cell_angle_beta 90.000000
_cell_angle_gamma 90.000000
_cell_volume 5526.812200
_symmetry_space_group_name_H-M "I B A M"
_symmetry_group_IT_number 72
_symmetry_cell_setting 'orthorhombic'
loop_
_space_group_symop_operation_xyz
x,y,z
-x,-y,z
x,-y,1/2-z
-x,y,1/2-z
-x,-y,-z
x,y,-z
-x,y,1/2+z
x,-y,1/2+z
1/2+x,1/2+y,1/2+z
1/2-x,1/2-y,1/2+z
1/2+x,1/2-y,-z
1/2-x,1/2+y,-z
1/2-x,1/2-y,1/2-z
1/2+x,1/2+y,1/2-z
1/2-x,1/2+y,z
1/2+x,1/2-y,z
loop_
_atom_site_type_symbol
_atom_site_label
_atom_site_fract_x
_atom_site_fract_y
_atom_site_fract_z
Si Si1 0.166809 0.801371 0.439835
Si Si2 0.517873 0.642333 0.136405
Si Si3 0.495651 0.123424 0.190302
Si Si4 0.699281 0.576813 0.700318
Si Si5 0.227645 0.058459 0.681216
Si Si6 0.044439 0.272565 0.386019
O O1 0.188413 0.811767 0.500000
O O2 0.317355 0.797533 0.413163
O O3 0.076226 0.857441 0.416294
O O4 0.077063 0.740562 0.428593
O O5 0.417930 0.622889 0.182745
O O6 0.647250 0.596109 0.136639
O O7 0.576441 0.710149 0.144843
O O8 0.500000 0.143437 0.250000
O O9 0.346412 0.096720 0.177909
O O10 0.607599 0.071379 0.176299
O O11 0.520250 0.181184 0.154715
O O12 0.685402 0.579376 0.761671
O O13 0.681715 0.510501 0.675945
#
# Coordination Sequence:
#
# PCOD8293476 Si02
#       6
#    16  16  16  16  16  16
#     4  10  21  37  57  77 103 135 179 226 271 319
#     4  10  21  33  52  80 104 133 180 217 271 307
#     4  10  19  33  52  82 115 144 172 211 259 313
#     4  10  19  35  51  78 109 150 183 210 245 305
#     4  10  20  32  55  76 110 148 184 209 245 312
#     4  10  20  36  54  82 107 135 174 215 276 322
#
# _framework density 17.369869000000001
#
# number of rings (size 3 to 8) (size 9 to 14) (size 15 to 20)
#    1.000    1.000    1.667    3.000    0.000    4.667 
#    0.000    4.167    0.000    2.000    0.000    1.167 
#    0.000    0.000    0.000    0.000    0.000    0.000 
#
# Total GULP energy -594662.487346 kJ/mol
# GULP energy per Si atom -12388.801820 kJ/mol
# Density = 1.733033 g / cm^3
# Si number density = 17.369869 Si / 1000 Ang^3
#
#
#
# Elastic Constant Matrix: (Units=GPa)
#
#
# Indices 1 2 3 4 5 6 
#
# 1 69.8035 1.7909 18.1083 0.0000 0.0000 0.0000
# 2 1.7909 63.8035 30.8205 0.0000 0.0000 0.0000
# 3 18.1083 30.8205 52.7210 0.0000 0.0000 0.0000
# 4 0.0000 0.0000 0.0000 10.2693 0.0000 0.0000
# 5 0.0000 0.0000 0.0000 0.0000 24.1230 0.0000
# 6 0.0000 0.0000 0.0000 0.0000 0.0000 24.4066
#
#
#
# Elastic Compliance Matrix: (Units=1/GPa)
#
#
# Indices 1 2 3 4 5 6 
#
# 1 0.016157 0.003104 -0.007364 0.000000 0.000000 0.000000
# 2 0.003104 0.022437 -0.014183 0.000000 0.000000 0.000000
# 3 -0.007364 -0.014183 0.029788 0.000000 0.000000 0.000000
# 4 0.000000 0.000000 0.000000 0.097378 0.000000 0.000000
# 5 0.000000 0.000000 0.000000 0.000000 0.041454 0.000000
# 6 0.000000 0.000000 0.000000 0.000000 0.000000 0.040972
#
#
# Mechanical properties :
#
#
# Convention : Reuss Voigt Hill
#
# Bulk Modulus (GPa) = 31.74984 31.97417 31.86201
# Shear Modulus (GPa) = 16.91645 20.80033 18.85839
#
# Velocity S-wave (km/s) = 3.12412 3.46424 3.29856
# Velocity P-wave (km/s) = 5.59749 5.86933 5.73502
#
# Compressibility (1/GPa) = 0.03149622
#
# Stress axis : x y z
#
# Youngs Moduli (GPa) = 61.89421 44.56932 33.57038
#
# Poissons Ratio (x) = -0.13832 0.24720
# Poissons Ratio (y) = -0.19209 0.47612
# Poissons Ratio (z) = 0.45577 0.63211
#
# Static dielectric constant tensor:
#      x y z
#    x 3.402630 0.000000 0.000000 
#    y 0.000000 3.174510 0.000000 
#    z 0.000000 0.000000 2.921240 
# 
# 
# High freq. dielectric constant tensor:
#      x y z
#    x 1.693160 0.000000 0.000000 
#    y 0.000000 1.658290 0.000000 
#    z 0.000000 0.000000 1.634160 
# 
# From -- ./inp_files/47492.got.cif
#   From: 2010.03.12/outbox.cif.g09.slc.cpg/sg72_24_cif.got.tgz:47492.got - 2010.04.16 14:54:00.
