data_PCOD8293349
_publ_section_title
;
Structure prediction by ZEFSAII (Michael W. Deem and Ramdas Pophale) SiO2 
 PCOD8293349
Probable space group: I B A M
;
_chemical_formula_sum "Si O2"
_cell_formula_units_Z 80
_cell_length_a 9.969671
_cell_length_b 24.931398
_cell_length_c 17.266303
_cell_angle_alpha 90.000000
_cell_angle_beta 90.000000
_cell_angle_gamma 90.000000
_cell_volume 4291.674903
_symmetry_space_group_name_H-M "I B A M"
_symmetry_group_IT_number 72
_symmetry_cell_setting 'orthorhombic'
loop_
_space_group_symop_operation_xyz
x,y,z
-x,-y,z
x,-y,1/2-z
-x,y,1/2-z
-x,-y,-z
x,y,-z
-x,y,1/2+z
x,-y,1/2+z
1/2+x,1/2+y,1/2+z
1/2-x,1/2-y,1/2+z
1/2+x,1/2-y,-z
1/2-x,1/2+y,-z
1/2-x,1/2-y,1/2-z
1/2+x,1/2+y,1/2-z
1/2-x,1/2+y,z
1/2+x,1/2-y,z
loop_
_atom_site_type_symbol
_atom_site_label
_atom_site_fract_x
_atom_site_fract_y
_atom_site_fract_z
Si Si1 0.764800 0.406996 0.410481
Si Si2 0.132835 0.174792 0.706332
Si Si3 0.575338 0.112349 0.588717
Si Si4 0.653652 0.990307 0.839595
Si Si5 0.618580 0.794590 0.191573
O O1 0.724962 0.398484 0.500000
O O2 0.672462 0.368875 0.357933
O O3 0.747632 0.469869 0.387104
O O4 0.918702 0.394075 0.393048
O O5 0.243659 0.186877 0.770338
O O6 0.107855 0.232535 0.665978
O O7 0.000000 0.153781 0.750000
O O8 0.609070 0.102143 0.500000
O O9 0.608892 0.172906 0.611814
O O10 0.672694 0.072078 0.637552
O O11 0.500000 0.000000 0.863348
O O12 0.682529 0.000000 0.750000
O O13 0.500000 0.810504 0.250000
#
# Coordination Sequence:
#
# PCOD8293349 Si02
#       5
#    16  16  16  16  16
#     4  10  19  33  53  80 115 145 178 231 291 336
#     4  10  21  35  55  81 108 151 191 225 272 340
#     4  10  19  31  53  84 113 139 181 239 288 329
#     4   9  17  28  51  82 110 142 178 227 280 333
#     4  10  19  35  57  78 107 143 191 235 273 323
#
# _framework density 18.640740999999998
#
# number of rings (size 3 to 8) (size 9 to 14) (size 15 to 20)
#    0.000    2.200    2.000    1.800    2.800    3.200 
#    0.000    1.000    0.000    5.400    0.000    7.000 
#    0.000    0.000    0.000    0.000    0.000    0.000 
#
# Total GULP energy -495790.017272 kJ/mol
# GULP energy per Si atom -12394.750432 kJ/mol
# Density = 1.859831 g / cm^3
# Si number density = 18.640741 Si / 1000 Ang^3
#
#
#
# Elastic Constant Matrix: (Units=GPa)
#
#
# Indices 1 2 3 4 5 6 
#
# 1 68.5514 36.5005 43.7918 0.0001 0.0000 0.0000
# 2 36.5005 135.2849 72.0636 0.0000 0.0000 0.0000
# 3 43.7918 72.0636 105.0298 0.0004 -0.0001 -0.0001
# 4 0.0001 0.0000 0.0004 25.1733 -0.0001 -0.0001
# 5 0.0000 0.0000 -0.0001 -0.0001 19.1526 0.0001
# 6 0.0000 0.0000 -0.0001 -0.0001 0.0001 16.9360
#
#
#
# Elastic Compliance Matrix: (Units=1/GPa)
#
#
# Indices 1 2 3 4 5 6 
#
# 1 0.020077 -0.001509 -0.007335 0.000000 0.000000 0.000000
# 2 -0.001509 0.011763 -0.007442 0.000000 0.000000 0.000000
# 3 -0.007335 -0.007442 0.017685 0.000000 0.000000 0.000000
# 4 0.000000 0.000000 0.000000 0.039725 0.000000 0.000000
# 5 0.000000 0.000000 0.000000 0.000000 0.052212 0.000000
# 6 0.000000 0.000000 0.000000 0.000000 0.000000 0.059046
#
#
# Mechanical properties :
#
#
# Convention : Reuss Voigt Hill
#
# Bulk Modulus (GPa) = 58.98729 68.17532 63.58131
# Shear Modulus (GPa) = 20.94392 22.68637 21.81515
#
# Velocity S-wave (km/s) = 3.35559 3.49238 3.42467
# Velocity P-wave (km/s) = 6.83566 7.27427 7.05837
#
# Compressibility (1/GPa) = 0.01695280
#
# Stress axis : x y z
#
# Youngs Moduli (GPa) = 49.80730 85.01200 56.54363
#
# Poissons Ratio (x) = 0.12833 0.41478
# Poissons Ratio (y) = 0.07518 0.42077
# Poissons Ratio (z) = 0.36536 0.63262
#
# Static dielectric constant tensor:
#      x y z
#    x 3.178190 0.000000 0.000000 
#    y 0.000000 3.763290 0.000000 
#    z 0.000000 0.000000 3.183510 
# 
# 
# High freq. dielectric constant tensor:
#      x y z
#    x 1.685040 0.000000 0.000000 
#    y 0.000000 1.738450 0.000000 
#    z 0.000000 0.000000 1.714240 
# 
# From -- ./inp_files/28181.got.cif
#   From: 2010.03.12/outbox.cif.g09.slc.cpg/sg72_15_cif.got.tgz:28181.got - 2010.04.16 14:54:00.
