data_PCOD8293824
_publ_section_title
;
Structure prediction by ZEFSAII (Michael W. Deem and Ramdas Pophale) SiO2 
 PCOD8293824
Probable space group: I B A M
;
_chemical_formula_sum "Si O2"
_cell_formula_units_Z 84
_cell_length_a 11.470381
_cell_length_b 19.253502
_cell_length_c 19.060778
_cell_angle_alpha 90.000000
_cell_angle_beta 90.000000
_cell_angle_gamma 90.000000
_cell_volume 4209.477585
_symmetry_space_group_name_H-M "I B A M"
_symmetry_group_IT_number 72
_symmetry_cell_setting 'orthorhombic'
loop_
_space_group_symop_operation_xyz
x,y,z
-x,-y,z
x,-y,1/2-z
-x,y,1/2-z
-x,-y,-z
x,y,-z
-x,y,1/2+z
x,-y,1/2+z
1/2+x,1/2+y,1/2+z
1/2-x,1/2-y,1/2+z
1/2+x,1/2-y,-z
1/2-x,1/2+y,-z
1/2-x,1/2-y,1/2-z
1/2+x,1/2+y,1/2-z
1/2-x,1/2+y,z
1/2+x,1/2-y,z
loop_
_atom_site_type_symbol
_atom_site_label
_atom_site_fract_x
_atom_site_fract_y
_atom_site_fract_z
Si Si1 0.000000 0.000000 0.250000
Si Si2 0.049246 0.828926 0.923234
Si Si3 0.835235 0.806054 0.164879
Si Si4 0.677460 0.608977 0.196339
Si Si5 0.581238 0.150771 0.182886
Si Si6 0.394761 0.829672 0.578084
O O1 0.909753 0.956088 0.297237
O O2 0.157536 0.858525 0.880163
O O3 0.061372 0.747527 0.932434
O O4 0.931670 0.845067 0.881231
O O5 0.044977 0.864335 0.000000
O O6 0.848085 0.835127 0.243186
O O7 0.851311 0.723431 0.168781
O O8 0.715464 0.829757 0.129310
O O9 0.817428 0.592627 0.196126
O O10 0.500000 0.159620 0.250000
O O11 0.500290 0.129020 0.116750
O O12 0.369166 0.861377 0.500000
#
# Coordination Sequence:
#
# PCOD8293824 Si02
#       6
#     4  16  16  16  16  16
#     4  12  28  44  64  84 112 156 218 268 296 352
#     4  10  20  33  54  88 126 158 193 241 300 359
#     4  11  18  34  60  90 125 160 193 242 299 366
#     4  12  22  40  61  82 117 160 209 254 296 351
#     4  11  21  33  59  93 119 159 198 246 306 359
#     4  10  20  32  54  94 133 159 185 233 307 375
#
# _framework density 19.954968999999998
#
# number of rings (size 3 to 8) (size 9 to 14) (size 15 to 20)
#    0.000    1.143    5.714    3.429    0.000    1.524 
#    0.000    0.952    0.000    0.000    0.000    1.333 
#    0.000    0.000    0.000    0.000    0.000    0.000 
#
# Total GULP energy -520455.028500 kJ/mol
# GULP energy per Si atom -12391.786393 kJ/mol
# Density = 1.990955 g / cm^3
# Si number density = 19.954969 Si / 1000 Ang^3
#
#
#
# Elastic Constant Matrix: (Units=GPa)
#
#
# Indices 1 2 3 4 5 6 
#
# 1 150.4818 28.8400 53.5215 0.0000 0.0000 0.0000
# 2 28.8400 23.7225 12.7018 0.0000 0.0000 0.0000
# 3 53.5215 12.7018 149.7846 0.0000 0.0000 0.0000
# 4 0.0000 0.0000 0.0000 1.8319 0.0000 0.0000
# 5 0.0000 0.0000 0.0000 0.0000 60.1212 0.0000
# 6 0.0000 0.0000 0.0000 0.0000 0.0000 26.2740
#
#
#
# Elastic Compliance Matrix: (Units=1/GPa)
#
#
# Indices 1 2 3 4 5 6 
#
# 1 0.009499 -0.010193 -0.002530 0.000000 0.000000 0.000000
# 2 -0.010193 0.055098 -0.001030 0.000000 0.000000 0.000000
# 3 -0.002530 -0.001030 0.007668 0.000000 0.000000 0.000000
# 4 0.000000 0.000000 0.000000 0.545891 0.000000 0.000000
# 5 0.000000 0.000000 0.000000 0.000000 0.016633 0.000000
# 6 0.000000 0.000000 0.000000 0.000000 0.000000 0.038060
#
#
# Mechanical properties :
#
#
# Convention : Reuss Voigt Hill
#
# Bulk Modulus (GPa) = 22.34244 57.12396 39.73320
# Shear Modulus (GPa) = 6.99033 32.90713 19.94873
#
# Velocity S-wave (km/s) = 1.87368 4.06528 3.16521
# Velocity P-wave (km/s) = 3.98768 7.12207 5.77172
#
# Compressibility (1/GPa) = 0.04475788
#
# Stress axis : x y z
#
# Youngs Moduli (GPa) = 105.27899 18.14964 130.42036
#
# Poissons Ratio (x) = 0.18500 0.32992
# Poissons Ratio (y) = 1.07312 0.13434
# Poissons Ratio (z) = 0.26632 0.01870
#
# Static dielectric constant tensor:
#      x y z
#    x 4.060820 0.000000 0.000000 
#    y 0.000000 3.055900 0.000000 
#    z 0.000000 0.000000 4.245530 
# 
# 
# High freq. dielectric constant tensor:
#      x y z
#    x 1.804770 0.000000 0.000000 
#    y 0.000000 1.698460 0.000000 
#    z 0.000000 0.000000 1.792890 
# 
# From -- ./inp_files/33211.got.cif
#   From: 2010.03.12/outbox.cif.g09.slc.cpg/sg72_17_cif.got.tgz:33211.got - 2010.04.16 14:54:00.
