data_PCOD8293668
_publ_section_title
;
Structure prediction by ZEFSAII (Michael W. Deem and Ramdas Pophale) SiO2 
 PCOD8293668
Probable space group: I B A M
;
_chemical_formula_sum "Si O2"
_cell_formula_units_Z 72
_cell_length_a 7.993175
_cell_length_b 18.218413
_cell_length_c 24.776685
_cell_angle_alpha 90.000000
_cell_angle_beta 90.000000
_cell_angle_gamma 90.000000
_cell_volume 3608.054291
_symmetry_space_group_name_H-M "I B A M"
_symmetry_group_IT_number 72
_symmetry_cell_setting 'orthorhombic'
loop_
_space_group_symop_operation_xyz
x,y,z
-x,-y,z
x,-y,1/2-z
-x,y,1/2-z
-x,-y,-z
x,y,-z
-x,y,1/2+z
x,-y,1/2+z
1/2+x,1/2+y,1/2+z
1/2-x,1/2-y,1/2+z
1/2+x,1/2-y,-z
1/2-x,1/2+y,-z
1/2-x,1/2-y,1/2-z
1/2+x,1/2+y,1/2-z
1/2-x,1/2+y,z
1/2+x,1/2-y,z
loop_
_atom_site_type_symbol
_atom_site_label
_atom_site_fract_x
_atom_site_fract_y
_atom_site_fract_z
Si Si1 0.808180 0.221043 0.129173
Si Si2 0.314156 0.517863 0.938823
Si Si3 0.401033 0.321973 0.439355
Si Si4 0.009443 0.348106 0.186339
Si Si5 0.000000 0.500000 0.369282
O O1 0.705217 0.251775 0.078342
O O2 0.880629 0.289059 0.162829
O O3 0.697581 0.171290 0.168472
O O4 0.947338 0.168500 0.103005
O O5 0.500000 0.500000 0.915744
O O6 0.287229 0.605474 0.937185
O O7 0.163994 0.481320 0.905145
O O8 0.302070 0.487243 0.000000
O O9 0.468043 0.308595 0.500000
O O10 0.960277 0.429554 0.167286
O O11 0.000000 0.345484 0.250000
#
# Coordination Sequence:
#
# PCOD8293668 Si02
#       5
#    16  16  16  16   8
#     4  10  21  38  60  87 117 160 197 250 301 361
#     4  10  21  37  58  86 123 161 194 238 303 375
#     4  10  19  35  57  89 121 153 193 242 300 366
#     4  11  23  40  62  84 117 158 208 256 301 350
#     4  12  22  40  62  92 122 156 206 254 312 352
#
# _framework density 19.955352999999999
#
# number of rings (size 3 to 8) (size 9 to 14) (size 15 to 20)
#    0.000    1.556    2.222    3.333    0.000    0.000 
#    0.000    2.222    0.000    1.333    0.000    0.000 
#    0.000    0.000    0.000    0.000    0.000    0.000 
#
# Total GULP energy -446443.579450 kJ/mol
# GULP energy per Si atom -12401.210540 kJ/mol
# Density = 1.990993 g / cm^3
# Si number density = 19.955353 Si / 1000 Ang^3
#
#
#
# Elastic Constant Matrix: (Units=GPa)
#
#
# Indices 1 2 3 4 5 6 
#
# 1 92.4290 11.0206 40.4407 0.0000 0.0000 0.0000
# 2 11.0206 62.4549 34.7162 0.0000 0.0000 0.0000
# 3 40.4407 34.7162 128.6285 0.0000 0.0000 0.0000
# 4 0.0000 0.0000 0.0000 22.6938 0.0000 0.0000
# 5 0.0000 0.0000 0.0000 0.0000 20.4676 0.0000
# 6 0.0000 0.0000 0.0000 0.0000 0.0000 28.2815
#
#
#
# Elastic Compliance Matrix: (Units=1/GPa)
#
#
# Indices 1 2 3 4 5 6 
#
# 1 0.012545 -0.000025 -0.003937 0.000000 0.000000 0.000000
# 2 -0.000025 0.018838 -0.005076 0.000000 0.000000 0.000000
# 3 -0.003937 -0.005076 0.010382 0.000000 0.000000 0.000000
# 4 0.000000 0.000000 0.000000 0.044065 0.000000 0.000000
# 5 0.000000 0.000000 0.000000 0.000000 0.048858 0.000000
# 6 0.000000 0.000000 0.000000 0.000000 0.000000 0.035359
#
#
# Mechanical properties :
#
#
# Convention : Reuss Voigt Hill
#
# Bulk Modulus (GPa) = 42.21643 50.65193 46.43418
# Shear Modulus (GPa) = 25.50771 27.44426 26.47598
#
# Velocity S-wave (km/s) = 3.57913 3.71250 3.64642
# Velocity P-wave (km/s) = 6.18721 6.61926 6.40688
#
# Compressibility (1/GPa) = 0.02368746
#
# Stress axis : x y z
#
# Youngs Moduli (GPa) = 79.71421 53.08500 96.31778
#
# Poissons Ratio (x) = 0.00133 0.37924
# Poissons Ratio (y) = 0.00199 0.48894
# Poissons Ratio (z) = 0.31386 0.26948
#
# Static dielectric constant tensor:
#      x y z
#    x 3.791740 0.000000 0.000000 
#    y 0.000000 3.506130 0.000000 
#    z 0.000000 0.000000 3.523560 
# 
# 
# High freq. dielectric constant tensor:
#      x y z
#    x 1.780030 0.000000 0.000000 
#    y 0.000000 1.780620 0.000000 
#    z 0.000000 0.000000 1.771070 
# 
# From -- ./inp_files/42080.got.cif
#   From: 2010.03.12/outbox.cif.g09.slc.cpg/sg72_22_cif.got.tgz:42080.got - 2010.04.16 14:54:00.
