data_PCOD8293473
_publ_section_title
;
Structure prediction by ZEFSAII (Michael W. Deem and Ramdas Pophale) SiO2 
 PCOD8293473
Probable space group: I B A M
;
_chemical_formula_sum "Si O2"
_cell_formula_units_Z 80
_cell_length_a 9.891657
_cell_length_b 27.447645
_cell_length_c 14.960065
_cell_angle_alpha 90.000000
_cell_angle_beta 90.000000
_cell_angle_gamma 90.000000
_cell_volume 4061.697887
_symmetry_space_group_name_H-M "I B A M"
_symmetry_group_IT_number 72
_symmetry_cell_setting 'orthorhombic'
loop_
_space_group_symop_operation_xyz
x,y,z
-x,-y,z
x,-y,1/2-z
-x,y,1/2-z
-x,-y,-z
x,y,-z
-x,y,1/2+z
x,-y,1/2+z
1/2+x,1/2+y,1/2+z
1/2-x,1/2-y,1/2+z
1/2+x,1/2-y,-z
1/2-x,1/2+y,-z
1/2-x,1/2-y,1/2-z
1/2+x,1/2+y,1/2-z
1/2-x,1/2+y,z
1/2+x,1/2-y,z
loop_
_atom_site_type_symbol
_atom_site_label
_atom_site_fract_x
_atom_site_fract_y
_atom_site_fract_z
Si Si1 0.335388 0.370054 0.602548
Si Si2 0.644616 0.379071 0.604440
Si Si3 0.845301 0.203914 0.246590
Si Si4 0.832925 0.535577 0.164940
Si Si5 0.895674 0.440613 0.097364
O O1 0.309488 0.355531 0.500000
O O2 0.486294 0.390663 0.615304
O O3 0.310718 0.323152 0.661933
O O4 0.229254 0.410135 0.637601
O O5 0.685218 0.371946 0.500000
O O6 0.682498 0.330211 0.659677
O O7 0.714920 0.425915 0.648802
O O8 0.750000 0.250000 0.250000
O O9 0.000000 0.221607 0.250000
O O10 0.810956 0.500000 0.250000
O O11 0.844795 0.496550 0.084449
O O12 0.022230 0.564029 0.334382
O O13 0.936727 0.420127 0.000000
#
# Coordination Sequence:
#
# PCOD8293473 Si02
#       5
#    16  16  16  16  16
#     4   9  20  38  59  82 112 146 187 237 288 340
#     4  10  21  39  59  82 114 152 190 234 284 339
#     4  10  22  39  58  83 112 142 183 234 289 348
#     4  11  21  33  51  79 114 150 189 229 272 325
#     4  10  19  33  52  78 110 145 185 231 278 330
#
# _framework density 19.696196
#
# number of rings (size 3 to 8) (size 9 to 14) (size 15 to 20)
#    0.000    2.000    0.000    4.800    0.000    3.200 
#    0.000    5.000    0.000    0.000    0.000    0.000 
#    0.000    0.000    0.000    0.000    0.000    0.000 
#
# Total GULP energy -495612.579934 kJ/mol
# GULP energy per Si atom -12390.314498 kJ/mol
# Density = 1.965137 g / cm^3
# Si number density = 19.696196 Si / 1000 Ang^3
#
#
#
# Elastic Constant Matrix: (Units=GPa)
#
#
# Indices 1 2 3 4 5 6 
#
# 1 130.1339 99.2183 62.1000 0.0000 -0.0001 0.0000
# 2 99.2183 125.5381 58.6623 -0.0001 -0.0001 0.0000
# 3 62.1000 58.6623 127.5659 -0.0004 -0.0001 0.0000
# 4 0.0000 -0.0001 -0.0004 25.1560 0.0000 0.0000
# 5 -0.0001 -0.0001 -0.0001 0.0000 23.2908 0.0000
# 6 0.0000 0.0000 0.0000 0.0000 0.0000 49.5312
#
#
#
# Elastic Compliance Matrix: (Units=1/GPa)
#
#
# Indices 1 2 3 4 5 6 
#
# 1 0.020307 -0.014558 -0.003191 0.000000 0.000000 0.000000
# 2 -0.014558 0.020583 -0.002378 0.000000 0.000000 0.000000
# 3 -0.003191 -0.002378 0.010486 0.000000 0.000000 0.000000
# 4 0.000000 0.000000 0.000000 0.039752 0.000000 0.000000
# 5 0.000000 0.000000 0.000000 0.000000 0.042935 0.000000
# 6 0.000000 0.000000 0.000000 0.000000 0.000000 0.020189
#
#
# Mechanical properties :
#
#
# Convention : Reuss Voigt Hill
#
# Bulk Modulus (GPa) = 89.91725 91.46658 90.69191
# Shear Modulus (GPa) = 25.22523 30.47942 27.85232
#
# Velocity S-wave (km/s) = 3.58259 3.93807 3.76453
# Velocity P-wave (km/s) = 7.92871 8.19862 8.06479
#
# Compressibility (1/GPa) = 0.01112134
#
# Stress axis : x y z
#
# Youngs Moduli (GPa) = 49.24466 48.58348 95.36544
#
# Poissons Ratio (x) = 0.70730 0.30428
# Poissons Ratio (y) = 0.71692 0.22680
# Poissons Ratio (z) = 0.15712 0.11554
#
# Static dielectric constant tensor:
#      x y z
#    x 3.691280 0.000000 0.000000 
#    y 0.000000 3.379920 0.000000 
#    z 0.000000 0.000000 3.986260 
# 
# 
# High freq. dielectric constant tensor:
#      x y z
#    x 1.770010 0.000000 0.000000 
#    y 0.000000 1.742780 0.000000 
#    z 0.000000 0.000000 1.790030 
# 
# From -- ./inp_files/20214.got.cif
#   From: 2010.03.12/outbox.cif.g09.slc.cpg/sg72_11_cif.got.tgz:20214.got - 2010.04.16 14:54:00.
