data_PCOD8293061
_publ_section_title
;
Structure prediction by ZEFSAII (Michael W. Deem and Ramdas Pophale) SiO2 
 PCOD8293061
Probable space group: I B A M
;
_chemical_formula_sum "Si O2"
_cell_formula_units_Z 128
_cell_length_a 13.184381
_cell_length_b 24.168450
_cell_length_c 25.985692
_cell_angle_alpha 90.000000
_cell_angle_beta 90.000000
_cell_angle_gamma 90.000000
_cell_volume 8280.238190
_symmetry_space_group_name_H-M "I B A M"
_symmetry_group_IT_number 72
_symmetry_cell_setting 'orthorhombic'
loop_
_space_group_symop_operation_xyz
x,y,z
-x,-y,z
x,-y,1/2-z
-x,y,1/2-z
-x,-y,-z
x,y,-z
-x,y,1/2+z
x,-y,1/2+z
1/2+x,1/2+y,1/2+z
1/2-x,1/2-y,1/2+z
1/2+x,1/2-y,-z
1/2-x,1/2+y,-z
1/2-x,1/2-y,1/2-z
1/2+x,1/2+y,1/2-z
1/2-x,1/2+y,z
1/2+x,1/2-y,z
loop_
_atom_site_type_symbol
_atom_site_label
_atom_site_fract_x
_atom_site_fract_y
_atom_site_fract_z
Si Si1 0.187111 0.418377 0.060505
Si Si2 0.209687 0.153199 0.940804
Si Si3 0.810230 0.314121 0.377374
Si Si4 0.984537 0.560953 0.381965
Si Si5 0.713320 0.039890 0.441234
Si Si6 0.006022 0.660961 0.689386
Si Si7 0.047346 0.761539 0.559731
Si Si8 0.359091 0.228278 0.121638
O O1 0.234490 0.370470 0.096850
O O2 0.243504 0.476967 0.074731
O O3 0.068872 0.423681 0.075442
O O4 0.198839 0.404064 0.000000
O O5 0.198906 0.086349 0.933044
O O6 0.101360 0.180042 0.926041
O O7 0.300294 0.178804 0.906883
O O8 0.236165 0.167219 0.000000
O O9 0.880321 0.287727 0.421506
O O10 0.719066 0.274914 0.359082
O O11 0.879582 0.323167 0.327130
O O12 0.878310 0.565298 0.409775
O O13 0.982780 0.600933 0.333329
O O14 0.000000 0.500000 0.359123
O O15 0.677689 0.036674 0.500000
O O16 0.922093 0.704606 0.669714
O O17 0.000000 0.658668 0.750000
O O18 0.031977 0.753739 0.500000
O O19 0.936600 0.759285 0.583982
#
# Coordination Sequence:
#
# PCOD8293061 Si02
#       8
#    16  16  16  16  16  16  16  16
#     4   9  16  25  40  64  92 118 144 173 204 253
#     4   9  16  26  42  65  89 116 148 174 206 258
#     4   9  19  31  44  63  86 117 147 180 218 267
#     4   9  16  27  42  63  90 119 145 172 209 263
#     4   9  15  24  41  63  89 120 145 170 205 252
#     4  10  20  32  45  64  86 111 147 189 230 265
#     4   9  17  27  42  65  90 115 144 179 213 253
#     4  10  18  31  46  61  86 116 147 183 221 262
#
# _framework density 15.458492
#
# number of rings (size 3 to 8) (size 9 to 14) (size 15 to 20)
#    0.000    2.750    1.250    1.125    0.000    3.750 
#    0.000    0.000    0.000    0.750    0.000    3.500 
#    0.000    0.000    0.000    0.250    0.000    0.000 
#
# Total GULP energy -793129.689894 kJ/mol
# GULP energy per Si atom -12392.651405 kJ/mol
# Density = 1.542331 g / cm^3
# Si number density = 15.458492 Si / 1000 Ang^3
#
#
#
# Elastic Constant Matrix: (Units=GPa)
#
#
# Indices 1 2 3 4 5 6 
#
# 1 46.0100 32.9593 21.1847 0.0000 0.0000 0.0000
# 2 32.9593 115.5900 38.2891 0.0000 0.0000 0.0000
# 3 21.1847 38.2891 77.9989 0.0000 0.0000 0.0000
# 4 0.0000 0.0000 0.0000 15.4707 0.0000 0.0000
# 5 0.0000 0.0000 0.0000 0.0000 10.9280 0.0000
# 6 0.0000 0.0000 0.0000 0.0000 0.0000 21.4225
#
#
#
# Elastic Compliance Matrix: (Units=1/GPa)
#
#
# Indices 1 2 3 4 5 6 
#
# 1 0.028573 -0.006660 -0.004491 0.000000 0.000000 0.000000
# 2 -0.006660 0.011883 -0.004025 0.000000 0.000000 0.000000
# 3 -0.004491 -0.004025 0.016016 0.000000 0.000000 0.000000
# 4 0.000000 0.000000 0.000000 0.064638 0.000000 0.000000
# 5 0.000000 0.000000 0.000000 0.000000 0.091508 0.000000
# 6 0.000000 0.000000 0.000000 0.000000 0.000000 0.046680
#
#
# Mechanical properties :
#
#
# Convention : Reuss Voigt Hill
#
# Bulk Modulus (GPa) = 38.28287 47.16280 42.72284
# Shear Modulus (GPa) = 16.75844 19.37529 18.06687
#
# Velocity S-wave (km/s) = 3.29613 3.54415 3.42238
# Velocity P-wave (km/s) = 6.26934 6.87921 6.58134
#
# Compressibility (1/GPa) = 0.02612134
#
# Stress axis : x y z
#
# Youngs Moduli (GPa) = 34.99818 84.15150 62.43655
#
# Poissons Ratio (x) = 0.56041 0.28043
# Poissons Ratio (y) = 0.23307 0.25129
# Poissons Ratio (z) = 0.15719 0.33868
#
# Static dielectric constant tensor:
#      x y z
#    x 2.801690 0.000000 0.000000 
#    y 0.000000 3.300700 0.000000 
#    z 0.000000 0.000000 2.630500 
# 
# 
# High freq. dielectric constant tensor:
#      x y z
#    x 1.565880 0.000000 0.000000 
#    y 0.000000 1.608390 0.000000 
#    z 0.000000 0.000000 1.563770 
# 
# From -- ./inp_files/43775.got.cif
#   From: 2010.03.12/outbox.cif.g09.slc.cpg/sg72_22_cif.got.tgz:43775.got - 2010.04.16 14:54:00.
