data_PCOD8293217
_publ_section_title
;
Structure prediction by ZEFSAII (Michael W. Deem and Ramdas Pophale) SiO2 
 PCOD8293217
Probable space group: I B A M
;
_chemical_formula_sum "Si O2"
_cell_formula_units_Z 72
_cell_length_a 10.774823
_cell_length_b 24.231341
_cell_length_c 14.015615
_cell_angle_alpha 90.000000
_cell_angle_beta 90.000000
_cell_angle_gamma 90.000000
_cell_volume 3659.314640
_symmetry_space_group_name_H-M "I B A M"
_symmetry_group_IT_number 72
_symmetry_cell_setting 'orthorhombic'
loop_
_space_group_symop_operation_xyz
x,y,z
-x,-y,z
x,-y,1/2-z
-x,y,1/2-z
-x,-y,-z
x,y,-z
-x,y,1/2+z
x,-y,1/2+z
1/2+x,1/2+y,1/2+z
1/2-x,1/2-y,1/2+z
1/2+x,1/2-y,-z
1/2-x,1/2+y,-z
1/2-x,1/2-y,1/2-z
1/2+x,1/2+y,1/2-z
1/2-x,1/2+y,z
1/2+x,1/2-y,z
loop_
_atom_site_type_symbol
_atom_site_label
_atom_site_fract_x
_atom_site_fract_y
_atom_site_fract_z
Si Si1 0.616057 0.438174 0.000000
Si Si2 0.272239 0.142766 0.344844
Si Si3 0.181287 0.060257 0.500000
Si Si4 0.402003 0.629338 0.178453
Si Si5 0.922646 0.774415 0.394029
Si Si6 0.500000 0.187624 0.250000
O O1 0.695616 0.494425 0.000000
O O2 0.466818 0.434463 0.000000
O O3 0.655175 0.408306 0.903661
O O4 0.244221 0.087263 0.405918
O O5 0.217569 0.143444 0.239090
O O6 0.209868 0.194262 0.399824
O O7 0.418334 0.151197 0.324234
O O8 0.500000 0.598474 0.250000
O O9 0.468348 0.683546 0.136595
O O10 0.952248 0.751720 0.500000
O O11 0.913535 0.725244 0.317964
#
# Coordination Sequence:
#
# PCOD8293217 Si02
#       6
#     8  16   8  16  16   8
#     4  11  20  38  64 100 114 163 196 261 352 348
#     4  11  22  42  56  90 132 162 205 262 297 384
#     4  11  22  38  66  90 128 151 204 272 317 379
#     4  10  18  36  60  88 129 151 201 263 313 372
#     4  11  20  36  60  90 123 167 203 261 304 367
#     4  12  26  38  60  87 125 184 210 228 324 374
#
# _framework density 19.675815
#
# number of rings (size 3 to 8) (size 9 to 14) (size 15 to 20)
#    0.000    1.111   10.000    0.667    1.556    0.889 
#    2.000    0.000    0.000    4.000    0.000    0.000 
#    0.000    0.000    0.000    0.000    0.000    0.000 
#
# Total GULP energy -446008.977670 kJ/mol
# GULP energy per Si atom -12389.138269 kJ/mol
# Density = 1.963103 g / cm^3
# Si number density = 19.675815 Si / 1000 Ang^3
#
#
#
# Elastic Constant Matrix: (Units=GPa)
#
#
# Indices 1 2 3 4 5 6 
#
# 1 69.9321 33.1002 24.2578 0.0000 0.0000 0.0000
# 2 33.1002 84.6541 41.6394 0.0002 -0.0001 0.0000
# 3 24.2578 41.6394 136.4876 0.0004 -0.0004 -0.0001
# 4 0.0000 0.0002 0.0004 30.2830 -0.0001 0.0000
# 5 0.0000 -0.0001 -0.0004 -0.0001 20.1537 0.0001
# 6 0.0000 0.0000 -0.0001 0.0000 0.0001 20.7915
#
#
#
# Elastic Compliance Matrix: (Units=1/GPa)
#
#
# Indices 1 2 3 4 5 6 
#
# 1 0.017718 -0.006328 -0.001218 0.000000 0.000000 0.000000
# 2 -0.006328 0.016159 -0.003805 0.000000 0.000000 0.000000
# 3 -0.001218 -0.003805 0.008704 0.000000 0.000000 0.000000
# 4 0.000000 0.000000 0.000000 0.033022 0.000000 0.000000
# 5 0.000000 0.000000 0.000000 0.000000 0.049619 0.000000
# 6 0.000000 0.000000 0.000000 0.000000 0.000000 0.048097
#
#
# Mechanical properties :
#
#
# Convention : Reuss Voigt Hill
#
# Bulk Modulus (GPa) = 50.30923 54.34096 52.32510
# Shear Modulus (GPa) = 24.67353 27.05074 25.86214
#
# Velocity S-wave (km/s) = 3.54503 3.71188 3.62942
# Velocity P-wave (km/s) = 6.51006 6.78593 6.64943
#
# Compressibility (1/GPa) = 0.01987707
#
# Stress axis : x y z
#
# Youngs Moduli (GPa) = 56.44124 61.88584 114.88976
#
# Poissons Ratio (x) = 0.39164 0.13997
# Poissons Ratio (y) = 0.35718 0.43715
# Poissons Ratio (z) = 0.06876 0.23547
#
# Static dielectric constant tensor:
#      x y z
#    x 3.273280 0.000000 0.000000 
#    y 0.000000 3.381670 0.000000 
#    z 0.000000 0.000000 3.975680 
# 
# 
# High freq. dielectric constant tensor:
#      x y z
#    x 1.729850 0.000000 0.000000 
#    y 0.000000 1.729240 0.000000 
#    z 0.000000 0.000000 1.793420 
# 
# From -- ./inp_files/18949.got.cif
#   From: 2010.03.12/outbox.cif.g09.slc.cpg/sg72_10_cif.got.tgz:18949.got - 2010.04.16 14:54:00.
