data_PCOD8293619
_publ_section_title
;
Structure prediction by ZEFSAII (Michael W. Deem and Ramdas Pophale) SiO2 
 PCOD8293619
Probable space group: I B A M
;
_chemical_formula_sum "Si O2"
_cell_formula_units_Z 128
_cell_length_a 12.289481
_cell_length_b 23.189489
_cell_length_c 23.061910
_cell_angle_alpha 90.000000
_cell_angle_beta 90.000000
_cell_angle_gamma 90.000000
_cell_volume 6572.339575
_symmetry_space_group_name_H-M "I B A M"
_symmetry_group_IT_number 72
_symmetry_cell_setting 'orthorhombic'
loop_
_space_group_symop_operation_xyz
x,y,z
-x,-y,z
x,-y,1/2-z
-x,y,1/2-z
-x,-y,-z
x,y,-z
-x,y,1/2+z
x,-y,1/2+z
1/2+x,1/2+y,1/2+z
1/2-x,1/2-y,1/2+z
1/2+x,1/2-y,-z
1/2-x,1/2+y,-z
1/2-x,1/2-y,1/2-z
1/2+x,1/2+y,1/2-z
1/2-x,1/2+y,z
1/2+x,1/2-y,z
loop_
_atom_site_type_symbol
_atom_site_label
_atom_site_fract_x
_atom_site_fract_y
_atom_site_fract_z
Si Si1 0.484841 0.066258 0.656014
Si Si2 0.064393 0.341398 0.064860
Si Si3 0.622469 0.490916 0.317977
Si Si4 0.763832 0.387966 0.705143
Si Si5 0.229179 0.178780 0.067539
Si Si6 0.277365 0.907500 0.667405
Si Si7 0.276084 0.303958 0.110494
Si Si8 0.493850 0.717107 0.434181
O O1 0.477043 0.102879 0.597589
O O2 0.381846 0.080805 0.697166
O O3 0.598483 0.081409 0.686446
O O4 0.500000 0.000000 0.638559
O O5 0.196060 0.337060 0.066163
O O6 0.016904 0.281414 0.091670
O O7 0.023721 0.348936 0.000000
O O8 0.500000 0.500000 0.343694
O O9 0.620428 0.500000 0.250000
O O10 0.672004 0.426937 0.327588
O O11 0.706521 0.535789 0.346852
O O12 0.733058 0.378247 0.772940
O O13 0.759655 0.324840 0.674986
O O14 0.274573 0.128409 0.108002
O O15 0.270684 0.236073 0.099027
O O16 0.099306 0.177037 0.069195
O O17 0.269554 0.174051 0.000000
O O18 0.402656 0.318576 0.100567
O O19 0.454975 0.725137 0.500000
#
# Coordination Sequence:
#
# PCOD8293619 Si02
#       8
#    16  16  16  16  16  16  16  16
#     4  11  21  35  56  82 113 149 190 232 278 332
#     4   9  19  34  53  81 112 146 191 233 275 328
#     4   9  19  36  58  83 112 147 185 227 276 330
#     4  10  22  37  57  88 113 146 191 229 280 338
#     4  10  22  38  57  84 113 149 191 227 279 340
#     4  11  22  37  61  82 114 151 184 236 281 328
#     4  10  19  34  58  82 114 145 185 232 280 335
#     4   9  17  33  57  80 107 150 190 224 274 336
#
# _framework density 19.475560999999999
#
# number of rings (size 3 to 8) (size 9 to 14) (size 15 to 20)
#    0.000    2.125    1.250    3.000    1.750    2.750 
#    0.000    0.000    0.000    0.375    0.000    0.000 
#    0.000    0.000    0.000    0.000    0.000    0.000 
#
# Total GULP energy -792869.188826 kJ/mol
# GULP energy per Si atom -12388.581075 kJ/mol
# Density = 1.943123 g / cm^3
# Si number density = 19.475561 Si / 1000 Ang^3
#
#
#
# Elastic Constant Matrix: (Units=GPa)
#
#
# Indices 1 2 3 4 5 6 
#
# 1 118.1082 23.8660 24.6242 0.0000 0.0000 0.0000
# 2 23.8660 82.5018 51.0471 0.0000 0.0000 0.0000
# 3 24.6242 51.0471 85.2840 0.0000 0.0000 0.0000
# 4 0.0000 0.0000 0.0000 17.4642 0.0000 0.0000
# 5 0.0000 0.0000 0.0000 0.0000 17.2292 0.0000
# 6 0.0000 0.0000 0.0000 0.0000 0.0000 22.8744
#
#
#
# Elastic Compliance Matrix: (Units=1/GPa)
#
#
# Indices 1 2 3 4 5 6 
#
# 1 0.009141 -0.001606 -0.001678 0.000000 0.000000 0.000000
# 2 -0.001606 0.019532 -0.011227 0.000000 0.000000 0.000000
# 3 -0.001678 -0.011227 0.018930 0.000000 0.000000 0.000000
# 4 0.000000 0.000000 0.000000 0.057260 0.000000 0.000000
# 5 0.000000 0.000000 0.000000 0.000000 0.058041 0.000000
# 6 0.000000 0.000000 0.000000 0.000000 0.000000 0.043717
#
#
# Mechanical properties :
#
#
# Convention : Reuss Voigt Hill
#
# Bulk Modulus (GPa) = 53.81923 53.88539 53.85231
# Shear Modulus (GPa) = 20.67493 23.93734 22.30613
#
# Velocity S-wave (km/s) = 3.26173 3.50965 3.38796
# Velocity P-wave (km/s) = 6.47143 6.64468 6.55863
#
# Compressibility (1/GPa) = 0.01858072
#
# Stress axis : x y z
#
# Youngs Moduli (GPa) = 109.39480 51.19691 52.82541
#
# Poissons Ratio (x) = 0.08223 0.08864
# Poissons Ratio (y) = 0.17570 0.59310
# Poissons Ratio (z) = 0.18357 0.57481
#
# Static dielectric constant tensor:
#      x y z
#    x 4.025540 0.000000 0.000000 
#    y 0.000000 3.407320 0.000000 
#    z 0.000000 0.000000 3.291150 
# 
# 
# High freq. dielectric constant tensor:
#      x y z
#    x 1.780290 0.000000 0.000000 
#    y 0.000000 1.738570 0.000000 
#    z 0.000000 0.000000 1.732390 
# 
# From -- ./inp_files/43682.got.cif
#   From: 2010.03.12/outbox.cif.g09.slc.cpg/sg72_22_cif.got.tgz:43682.got - 2010.04.16 14:54:00.
