data_PCOD8293710
_publ_section_title
;
Structure prediction by ZEFSAII (Michael W. Deem and Ramdas Pophale) SiO2 
 PCOD8293710
Probable space group: I B A M
;
_chemical_formula_sum "Si O2"
_cell_formula_units_Z 128
_cell_length_a 21.017265
_cell_length_b 17.625998
_cell_length_c 19.163010
_cell_angle_alpha 90.000000
_cell_angle_beta 90.000000
_cell_angle_gamma 90.000000
_cell_volume 7098.942245
_symmetry_space_group_name_H-M "I B A M"
_symmetry_group_IT_number 72
_symmetry_cell_setting 'orthorhombic'
loop_
_space_group_symop_operation_xyz
x,y,z
-x,-y,z
x,-y,1/2-z
-x,y,1/2-z
-x,-y,-z
x,y,-z
-x,y,1/2+z
x,-y,1/2+z
1/2+x,1/2+y,1/2+z
1/2-x,1/2-y,1/2+z
1/2+x,1/2-y,-z
1/2-x,1/2+y,-z
1/2-x,1/2-y,1/2-z
1/2+x,1/2+y,1/2-z
1/2-x,1/2+y,z
1/2+x,1/2-y,z
loop_
_atom_site_type_symbol
_atom_site_label
_atom_site_fract_x
_atom_site_fract_y
_atom_site_fract_z
Si Si1 0.364551 0.837027 0.581724
Si Si2 0.409569 0.305886 0.696759
Si Si3 0.701679 0.202621 0.795716
Si Si4 0.611336 0.584239 0.923924
Si Si5 0.308712 0.068611 0.801701
Si Si6 0.951315 0.788474 0.648639
Si Si7 0.222998 0.798531 0.925422
Si Si8 0.660266 0.541108 0.678513
O O1 0.375761 0.859326 0.500000
O O2 0.352416 0.913919 0.628893
O O3 0.424486 0.785555 0.607767
O O4 0.300043 0.787523 0.590001
O O5 0.354674 0.250621 0.670888
O O6 0.412392 0.299170 0.780111
O O7 0.474051 0.277262 0.661275
O O8 0.388069 0.389048 0.673143
O O9 0.750000 0.250000 0.750000
O O10 0.674538 0.138176 0.747489
O O11 0.735486 0.167084 0.863373
O O12 0.552565 0.628987 0.889037
O O13 0.661551 0.650810 0.931286
O O14 0.641561 0.514025 0.883832
O O15 0.590741 0.553869 0.000000
O O16 0.234803 0.063591 0.824891
O O17 0.329263 0.000000 0.750000
O O18 0.259840 0.800806 0.000000
O O19 0.645171 0.500000 0.750000
#
# Coordination Sequence:
#
# PCOD8293710 Si02
#       8
#    16  16  16  16  16  16  16  16
#     4  10  19  36  59  81 112 148 192 242 289 341
#     4  11  21  33  58  81 110 147 197 244 277 339
#     4  12  18  35  58  81 115 149 184 246 303 343
#     4  10  20  36  54  77 119 160 193 231 284 345
#     4  11  22  33  57  90 120 145 191 245 299 356
#     4  10  20  37  54  83 107 150 204 237 273 335
#     4   9  17  30  53  80 105 148 191 229 288 349
#     4  11  20  33  51  84 119 155 191 238 289 344
#
# _framework density 18.030854999999999
#
# number of rings (size 3 to 8) (size 9 to 14) (size 15 to 20)
#    0.000    1.500    5.000    3.375    0.000    1.000 
#    0.000    4.375    0.000    1.500    0.000    0.875 
#    0.000    0.000    0.000    0.000    0.000    0.000 
#
# Total GULP energy -792961.465163 kJ/mol
# GULP energy per Si atom -12390.022893 kJ/mol
# Density = 1.798982 g / cm^3
# Si number density = 18.030855 Si / 1000 Ang^3
#
#
#
# Elastic Constant Matrix: (Units=GPa)
#
#
# Indices 1 2 3 4 5 6 
#
# 1 65.6929 24.1742 27.4347 0.0000 0.0000 0.0000
# 2 24.1742 78.3171 34.1729 0.0000 0.0000 0.0000
# 3 27.4347 34.1729 125.9639 0.0000 0.0000 0.0000
# 4 0.0000 0.0000 0.0000 21.1878 0.0000 0.0000
# 5 0.0000 0.0000 0.0000 0.0000 13.7968 0.0000
# 6 0.0000 0.0000 0.0000 0.0000 0.0000 19.7981
#
#
#
# Elastic Compliance Matrix: (Units=1/GPa)
#
#
# Indices 1 2 3 4 5 6 
#
# 1 0.017965 -0.004353 -0.002732 0.000000 0.000000 0.000000
# 2 -0.004353 0.015538 -0.003267 0.000000 0.000000 0.000000
# 3 -0.002732 -0.003267 0.009420 0.000000 0.000000 0.000000
# 4 0.000000 0.000000 0.000000 0.047197 0.000000 0.000000
# 5 0.000000 0.000000 0.000000 0.000000 0.072481 0.000000
# 6 0.000000 0.000000 0.000000 0.000000 0.000000 0.050510
#
#
# Mechanical properties :
#
#
# Convention : Reuss Voigt Hill
#
# Bulk Modulus (GPa) = 45.00712 49.05971 47.03341
# Shear Modulus (GPa) = 20.72783 23.23601 21.98192
#
# Velocity S-wave (km/s) = 3.39422 3.59371 3.49539
# Velocity P-wave (km/s) = 6.35424 6.66990 6.51398
#
# Compressibility (1/GPa) = 0.02221871
#
# Stress axis : x y z
#
# Youngs Moduli (GPa) = 55.66328 64.35866 106.15590
#
# Poissons Ratio (x) = 0.28017 0.28999
# Poissons Ratio (y) = 0.24232 0.34683
# Poissons Ratio (z) = 0.15206 0.21027
#
# Static dielectric constant tensor:
#      x y z
#    x 3.129360 0.000000 0.000000 
#    y 0.000000 2.959830 0.000000 
#    z 0.000000 0.000000 3.707830 
# 
# 
# High freq. dielectric constant tensor:
#      x y z
#    x 1.669410 0.000000 0.000000 
#    y 0.000000 1.686250 0.000000 
#    z 0.000000 0.000000 1.710420 
# 
# From -- ./inp_files/39933.got.cif
#   From: 2010.03.12/outbox.cif.g09.slc.cpg/sg72_20_cif.got.tgz:39933.got - 2010.04.16 14:54:00.
