data_PCOD8293539
_publ_section_title
;
Structure prediction by ZEFSAII (Michael W. Deem and Ramdas Pophale) SiO2 
 PCOD8293539
Probable space group: I B A M
;
_chemical_formula_sum "Si O2"
_cell_formula_units_Z 64
_cell_length_a 12.239475
_cell_length_b 11.697233
_cell_length_c 17.925422
_cell_angle_alpha 90.000000
_cell_angle_beta 90.000000
_cell_angle_gamma 90.000000
_cell_volume 2566.346653
_symmetry_space_group_name_H-M "I B A M"
_symmetry_group_IT_number 72
_symmetry_cell_setting 'orthorhombic'
loop_
_space_group_symop_operation_xyz
x,y,z
-x,-y,z
x,-y,1/2-z
-x,y,1/2-z
-x,-y,-z
x,y,-z
-x,y,1/2+z
x,-y,1/2+z
1/2+x,1/2+y,1/2+z
1/2-x,1/2-y,1/2+z
1/2+x,1/2-y,-z
1/2-x,1/2+y,-z
1/2-x,1/2-y,1/2-z
1/2+x,1/2+y,1/2-z
1/2-x,1/2+y,z
1/2+x,1/2-y,z
loop_
_atom_site_type_symbol
_atom_site_label
_atom_site_fract_x
_atom_site_fract_y
_atom_site_fract_z
Si Si1 0.105139 0.192090 0.703038
Si Si2 0.446996 0.327347 0.584540
Si Si3 0.745067 0.594623 0.327873
Si Si4 0.110619 0.431339 0.915577
O O1 0.172783 0.299299 0.673653
O O2 0.178935 0.099175 0.748375
O O3 0.000000 0.235045 0.750000
O O4 0.053871 0.130024 0.630348
O O5 0.479742 0.345696 0.500000
O O6 0.339313 0.397379 0.604285
O O7 0.417206 0.197494 0.605815
O O8 0.810731 0.478803 0.348972
O O9 0.000000 0.500000 0.914029
O O10 0.161104 0.439185 0.000000
#
# Coordination Sequence:
#
# PCOD8293539 Si02
#       4
#    16  16  16  16
#     4   9  19  35  54  83 122 164 207 258 314 388
#     4  10  20  34  58  91 125 168 215 269 326 381
#     4  10  19  35  57  84 128 168 207 261 324 386
#     4  10  19  33  57  92 125 160 214 267 316 381
#
# _framework density 24.938175000000001
#
# number of rings (size 3 to 8) (size 9 to 14) (size 15 to 20)
#    0.000    2.250    2.500    0.750    0.000    1.000 
#    0.000   15.000    0.000   10.500    0.000   15.750 
#    0.000    1.000    0.000    0.000    0.000    0.000 
#
# Total GULP energy -396534.242672 kJ/mol
# GULP energy per Si atom -12391.695084 kJ/mol
# Density = 2.488141 g / cm^3
# Si number density = 24.938175 Si / 1000 Ang^3
#
#
#
# Elastic Constant Matrix: (Units=GPa)
#
#
# Indices 1 2 3 4 5 6 
#
# 1 120.1992 11.4671 70.1860 0.0000 0.0000 0.0000
# 2 11.4671 55.3782 10.3121 0.0000 0.0000 0.0000
# 3 70.1860 10.3121 164.0838 0.0000 0.0000 0.0000
# 4 0.0000 0.0000 0.0000 33.9625 0.0000 0.0000
# 5 0.0000 0.0000 0.0000 0.0000 67.5048 0.0000
# 6 0.0000 0.0000 0.0000 0.0000 0.0000 27.6344
#
#
#
# Elastic Compliance Matrix: (Units=1/GPa)
#
#
# Indices 1 2 3 4 5 6 
#
# 1 0.011202 -0.001444 -0.004701 0.000000 0.000000 0.000000
# 2 -0.001444 0.018458 -0.000542 0.000000 0.000000 0.000000
# 3 -0.004701 -0.000542 0.008139 0.000000 0.000000 0.000000
# 4 0.000000 0.000000 0.000000 0.029444 0.000000 0.000000
# 5 0.000000 0.000000 0.000000 0.000000 0.014814 0.000000
# 6 0.000000 0.000000 0.000000 0.000000 0.000000 0.036187
#
#
# Mechanical properties :
#
#
# Convention : Reuss Voigt Hill
#
# Bulk Modulus (GPa) = 40.94265 58.17684 49.55974
# Shear Modulus (GPa) = 35.77552 42.33341 39.05447
#
# Velocity S-wave (km/s) = 3.79168 4.12458 3.96163
# Velocity P-wave (km/s) = 5.96845 6.78690 6.39079
#
# Compressibility (1/GPa) = 0.02442441
#
# Stress axis : x y z
#
# Youngs Moduli (GPa) = 89.26772 54.17796 122.86026
#
# Poissons Ratio (x) = 0.07825 0.57756
# Poissons Ratio (y) = 0.12893 0.06662
# Poissons Ratio (z) = 0.41964 0.02938
#
# Static dielectric constant tensor:
#      x y z
#    x 4.838170 0.000000 0.000000 
#    y 0.000000 4.884720 0.000000 
#    z 0.000000 0.000000 4.826500 
# 
# 
# High freq. dielectric constant tensor:
#      x y z
#    x 2.005090 0.000000 0.000000 
#    y 0.000000 1.987630 0.000000 
#    z 0.000000 0.000000 2.003510 
# 
# From -- ./inp_files/28780.got.cif
#   From: 2010.03.12/outbox.cif.g09.slc.cpg/sg72_15_cif.got.tgz:28780.got - 2010.04.16 14:54:00.
