data_PCOD8293660
_publ_section_title
;
Structure prediction by ZEFSAII (Michael W. Deem and Ramdas Pophale) SiO2 
 PCOD8293660
Probable space group: I B A M
;
_chemical_formula_sum "Si O2"
_cell_formula_units_Z 116
_cell_length_a 24.899524
_cell_length_b 28.062304
_cell_length_c 9.130782
_cell_angle_alpha 90.000000
_cell_angle_beta 90.000000
_cell_angle_gamma 90.000000
_cell_volume 6380.024462
_symmetry_space_group_name_H-M "I B A M"
_symmetry_group_IT_number 72
_symmetry_cell_setting 'orthorhombic'
loop_
_space_group_symop_operation_xyz
x,y,z
-x,-y,z
x,-y,1/2-z
-x,y,1/2-z
-x,-y,-z
x,y,-z
-x,y,1/2+z
x,-y,1/2+z
1/2+x,1/2+y,1/2+z
1/2-x,1/2-y,1/2+z
1/2+x,1/2-y,-z
1/2-x,1/2+y,-z
1/2-x,1/2-y,1/2-z
1/2+x,1/2+y,1/2-z
1/2-x,1/2+y,z
1/2+x,1/2-y,z
loop_
_atom_site_type_symbol
_atom_site_label
_atom_site_fract_x
_atom_site_fract_y
_atom_site_fract_z
Si Si1 0.168107 0.622882 0.168433
Si Si2 0.370228 0.544186 0.338225
Si Si3 0.803294 0.729573 0.325476
Si Si4 0.712132 0.600641 0.665286
Si Si5 0.858551 0.190171 0.671397
Si Si6 0.945672 0.133189 0.166583
Si Si7 0.895048 0.544966 0.164839
Si Si8 0.000000 0.500000 0.750000
O O1 0.178720 0.676675 0.224510
O O2 0.224455 0.595838 0.188157
O O3 0.121995 0.594888 0.258831
O O4 0.149339 0.623408 0.000000
O O5 0.393953 0.500000 0.250000
O O6 0.356112 0.526901 0.500000
O O7 0.314643 0.562475 0.270573
O O8 0.415387 0.583617 0.337757
O O9 0.795083 0.731574 0.500000
O O10 0.750000 0.750000 0.250000
O O11 0.850851 0.762880 0.268481
O O12 0.695222 0.588264 0.500000
O O13 0.691333 0.654216 0.699664
O O14 0.864155 0.202550 0.500000
O O15 0.913822 0.169903 0.732710
O O16 0.000000 0.123311 0.250000
O O17 0.953788 0.152248 0.000000
O O18 0.868006 0.500000 0.250000
O O19 0.960137 0.535892 0.160575
O O20 0.873151 0.546212 0.000000
#
# Coordination Sequence:
#
# PCOD8293660 Si02
#       8
#    16  16  16  16  16  16  16   4
#     4  10  21  36  55  85 120 150 189 234 277 332
#     4  10  21  35  52  76 105 141 183 227 281 334
#     4  11  21  35  56  85 119 156 191 232 280 336
#     4   9  18  34  52  74 108 148 183 221 273 329
#     4  10  19  35  57  81 109 148 189 229 279 336
#     4  10  21  37  57  81 105 139 185 235 284 338
#     4  10  21  37  61  87 112 146 187 234 288 344
#     4   8  22  40  66  88 110 148 194 236 292 348
#
# _framework density 18.181747999999999
#
# number of rings (size 3 to 8) (size 9 to 14) (size 15 to 20)
#    0.414    1.655    1.379    2.276    0.000    4.690 
#    0.000    1.379    1.517    0.000    0.000    0.000 
#    0.000    0.000    0.000    0.000    0.000    0.000 
#
# Total GULP energy -718867.438835 kJ/mol
# GULP energy per Si atom -12394.266187 kJ/mol
# Density = 1.814037 g / cm^3
# Si number density = 18.181748 Si / 1000 Ang^3
#
#
#
# Elastic Constant Matrix: (Units=GPa)
#
#
# Indices 1 2 3 4 5 6 
#
# 1 71.0583 34.5331 35.2657 0.0000 0.0000 0.0000
# 2 34.5331 102.6743 55.4477 0.0000 0.0000 0.0000
# 3 35.2657 55.4477 117.1198 0.0000 0.0000 0.0000
# 4 0.0000 0.0000 0.0000 32.4506 0.0000 0.0000
# 5 0.0000 0.0000 0.0000 0.0000 24.6811 0.0000
# 6 0.0000 0.0000 0.0000 0.0000 0.0000 14.6473
#
#
#
# Elastic Compliance Matrix: (Units=1/GPa)
#
#
# Indices 1 2 3 4 5 6 
#
# 1 0.017769 -0.004147 -0.003387 0.000000 0.000000 0.000000
# 2 -0.004147 0.014053 -0.005404 0.000000 0.000000 0.000000
# 3 -0.003387 -0.005404 0.012117 0.000000 0.000000 0.000000
# 4 0.000000 0.000000 0.000000 0.030816 0.000000 0.000000
# 5 0.000000 0.000000 0.000000 0.000000 0.040517 0.000000
# 6 0.000000 0.000000 0.000000 0.000000 0.000000 0.068272
#
#
# Mechanical properties :
#
#
# Convention : Reuss Voigt Hill
#
# Bulk Modulus (GPa) = 55.36570 60.14948 57.75759
# Shear Modulus (GPa) = 23.20813 25.39619 24.30216
#
# Velocity S-wave (km/s) = 3.57662 3.74143 3.65995
# Velocity P-wave (km/s) = 6.89737 7.19851 7.04955
#
# Compressibility (1/GPa) = 0.01806172
#
# Stress axis : x y z
#
# Youngs Moduli (GPa) = 56.27623 71.15958 82.53116
#
# Poissons Ratio (x) = 0.29513 0.27954
# Poissons Ratio (y) = 0.23340 0.44602
# Poissons Ratio (z) = 0.19061 0.38456
#
# Static dielectric constant tensor:
#      x y z
#    x 3.157940 0.000000 0.000000 
#    y 0.000000 3.382380 0.000000 
#    z 0.000000 0.000000 3.521610 
# 
# 
# High freq. dielectric constant tensor:
#      x y z
#    x 1.686640 0.000000 0.000000 
#    y 0.000000 1.697510 0.000000 
#    z 0.000000 0.000000 1.714980 
# 
# From -- ./inp_files/8601.got.cif
#   From: 2010.03.12/outbox.cif.g09.slc.cpg/sg72_5_cif.got.tgz:8601.got - 2010.04.16 14:54:00.
