data_PCOD8293301
_publ_section_title
;
Structure prediction by ZEFSAII (Michael W. Deem and Ramdas Pophale) SiO2 
 PCOD8293301
Probable space group: I B A M
;
_chemical_formula_sum "Si O2"
_cell_formula_units_Z 80
_cell_length_a 23.835410
_cell_length_b 7.334938
_cell_length_c 17.193927
_cell_angle_alpha 90.000000
_cell_angle_beta 90.000000
_cell_angle_gamma 90.000000
_cell_volume 3006.035828
_symmetry_space_group_name_H-M "I B A M"
_symmetry_group_IT_number 72
_symmetry_cell_setting 'orthorhombic'
loop_
_space_group_symop_operation_xyz
x,y,z
-x,-y,z
x,-y,1/2-z
-x,y,1/2-z
-x,-y,-z
x,y,-z
-x,y,1/2+z
x,-y,1/2+z
1/2+x,1/2+y,1/2+z
1/2-x,1/2-y,1/2+z
1/2+x,1/2-y,-z
1/2-x,1/2+y,-z
1/2-x,1/2-y,1/2-z
1/2+x,1/2+y,1/2-z
1/2-x,1/2+y,z
1/2+x,1/2-y,z
loop_
_atom_site_type_symbol
_atom_site_label
_atom_site_fract_x
_atom_site_fract_y
_atom_site_fract_z
Si Si1 0.058880 0.241227 0.412219
Si Si2 0.738261 0.439603 0.590001
Si Si3 0.332337 0.878806 0.656013
Si Si4 0.336698 0.671809 0.195511
Si Si5 0.933838 0.188713 0.411566
O O1 0.065203 0.311485 0.500000
O O2 0.100897 0.364099 0.360351
O O3 0.994421 0.265090 0.385078
O O4 0.072770 0.028829 0.407018
O O5 0.741471 0.493332 0.500000
O O6 0.698587 0.267500 0.600069
O O7 0.802336 0.429915 0.627312
O O8 0.712310 0.613870 0.636078
O O9 0.318792 0.836422 0.746315
O O10 0.354573 0.500000 0.250000
O O11 0.389127 0.761807 0.149989
O O12 0.921174 0.251422 0.500000
#
# Coordination Sequence:
#
# PCOD8293301 Si02
#       5
#    16  16  16  16  16
#     4   9  16  28  47  73 104 134 168 213 260 305
#     4  11  21  35  53  71 100 141 179 213 254 307
#     4  11  22  35  51  77 108 138 173 216 258 305
#     4  10  19  31  47  73 105 133 168 213 258 309
#     4   9  16  28  48  72 104 136 166 210 266 314
#
# _framework density 26.613121
#
# number of rings (size 3 to 8) (size 9 to 14) (size 15 to 20)
#    0.000    2.000    4.000    4.200    0.000    0.800 
#    0.000    0.000    0.000    0.000    0.000    1.400 
#    0.000   16.000    0.000    2.000    0.000    0.000 
#
# Total GULP energy -495929.815066 kJ/mol
# GULP energy per Si atom -12398.245377 kJ/mol
# Density = 2.655255 g / cm^3
# Si number density = 26.613121 Si / 1000 Ang^3
#
#
#
# Elastic Constant Matrix: (Units=GPa)
#
#
# Indices 1 2 3 4 5 6 
#
# 1 168.0612 10.6856 72.4352 0.0000 0.0000 0.0000
# 2 10.6856 69.9405 -1.3201 0.0000 0.0000 0.0000
# 3 72.4352 -1.3201 178.6143 0.0000 0.0000 0.0000
# 4 0.0000 0.0000 0.0000 10.2471 0.0000 0.0000
# 5 0.0000 0.0000 0.0000 0.0000 53.4540 0.0000
# 6 0.0000 0.0000 0.0000 0.0000 0.0000 31.4686
#
#
#
# Elastic Compliance Matrix: (Units=1/GPa)
#
#
# Indices 1 2 3 4 5 6 
#
# 1 0.007305 -0.001172 -0.002971 0.000000 0.000000 0.000000
# 2 -0.001172 0.014488 0.000582 0.000000 0.000000 0.000000
# 3 -0.002971 0.000582 0.006808 0.000000 0.000000 0.000000
# 4 0.000000 0.000000 0.000000 0.097589 0.000000 0.000000
# 5 0.000000 0.000000 0.000000 0.000000 0.018708 0.000000
# 6 0.000000 0.000000 0.000000 0.000000 0.000000 0.031778
#
#
# Mechanical properties :
#
#
# Convention : Reuss Voigt Hill
#
# Bulk Modulus (GPa) = 46.55668 64.46861 55.51265
# Shear Modulus (GPa) = 26.18386 41.35495 33.76941
#
# Velocity S-wave (km/s) = 3.14007 3.94627 3.56603
# Velocity P-wave (km/s) = 5.53883 6.71126 6.15303
#
# Compressibility (1/GPa) = 0.02147919
#
# Stress axis : x y z
#
# Youngs Moduli (GPa) = 136.88534 69.02284 146.88733
#
# Poissons Ratio (x) = 0.08091 0.43644
# Poissons Ratio (y) = 0.16046 -0.08556
# Poissons Ratio (z) = 0.40673 -0.04020
#
# Static dielectric constant tensor:
#      x y z
#    x 5.134420 0.000000 0.000000 
#    y 0.000000 5.108300 0.000000 
#    z 0.000000 0.000000 4.859730 
# 
# 
# High freq. dielectric constant tensor:
#      x y z
#    x 2.075510 0.000000 0.000000 
#    y 0.000000 2.089730 0.000000 
#    z 0.000000 0.000000 2.069010 
# 
# From -- ./inp_files/33794.got.cif
#   From: 2010.03.12/outbox.cif.g09.slc.cpg/sg72_17_cif.got.tgz:33794.got - 2010.04.16 14:54:00.
