data_PCOD8293854
_publ_section_title
;
Structure prediction by ZEFSAII (Michael W. Deem and Ramdas Pophale) SiO2 
 PCOD8293854
Probable space group: I B A M
;
_chemical_formula_sum "Si O2"
_cell_formula_units_Z 96
_cell_length_a 30.763290
_cell_length_b 19.680180
_cell_length_c 8.780641
_cell_angle_alpha 90.000000
_cell_angle_beta 90.000000
_cell_angle_gamma 90.000000
_cell_volume 5316.037881
_symmetry_space_group_name_H-M "I B A M"
_symmetry_group_IT_number 72
_symmetry_cell_setting 'orthorhombic'
loop_
_space_group_symop_operation_xyz
x,y,z
-x,-y,z
x,-y,1/2-z
-x,y,1/2-z
-x,-y,-z
x,y,-z
-x,y,1/2+z
x,-y,1/2+z
1/2+x,1/2+y,1/2+z
1/2-x,1/2-y,1/2+z
1/2+x,1/2-y,-z
1/2-x,1/2+y,-z
1/2-x,1/2-y,1/2-z
1/2+x,1/2+y,1/2-z
1/2-x,1/2+y,z
1/2+x,1/2-y,z
loop_
_atom_site_type_symbol
_atom_site_label
_atom_site_fract_x
_atom_site_fract_y
_atom_site_fract_z
Si Si1 0.797035 0.570436 0.821911
Si Si2 0.957242 0.328494 0.829738
Si Si3 0.041722 0.832719 0.833175
Si Si4 0.131036 0.317281 0.177277
Si Si5 0.205572 0.072108 0.180732
Si Si6 0.637011 0.326640 0.318257
O O1 0.813597 0.500000 0.750000
O O2 0.832869 0.626691 0.790034
O O3 0.752596 0.594247 0.742266
O O4 0.788030 0.559747 0.000000
O O5 0.962395 0.247971 0.838283
O O6 0.914884 0.348041 0.732210
O O7 0.000000 0.360205 0.750000
O O8 0.952830 0.358621 0.000000
O O9 0.088849 0.850634 0.761348
O O10 0.000000 0.865194 0.750000
O O11 0.040061 0.864443 0.000000
O O12 0.144611 0.251408 0.273149
O O13 0.127811 0.298135 0.000000
O O14 0.171584 0.128317 0.231696
O O15 0.191372 0.000000 0.250000
O O16 0.206650 0.066856 0.000000
O O17 0.641520 0.333173 0.500000
#
# Coordination Sequence:
#
# PCOD8293854 Si02
#       6
#    16  16  16  16  16  16
#     4  10  21  37  56  76 101 134 172 212 255 309
#     4   9  16  27  45  70 101 136 170 207 251 300
#     4   8  15  26  43  68  98 131 164 200 242 290
#     4  10  20  33  51  78 107 135 170 212 258 304
#     4  11  22  37  57  77 100 133 171 211 256 308
#     4  10  20  34  52  77 107 137 171 211 255 301
#
# _framework density 18.058561999999998
#
# number of rings (size 3 to 8) (size 9 to 14) (size 15 to 20)
#    0.000    2.333    0.000    5.500    0.000    8.000 
#    0.000    0.000    0.000    1.000    0.000    7.000 
#    0.000    0.000    0.000    0.000    0.000    0.000 
#
# Total GULP energy -595056.101210 kJ/mol
# GULP energy per Si atom -12397.002109 kJ/mol
# Density = 1.801746 g / cm^3
# Si number density = 18.058562 Si / 1000 Ang^3
#
#
#
# Elastic Constant Matrix: (Units=GPa)
#
#
# Indices 1 2 3 4 5 6 
#
# 1 143.6871 64.3074 66.5242 0.0000 0.0000 0.0000
# 2 64.3074 57.4769 38.5411 0.0000 0.0000 0.0000
# 3 66.5242 38.5411 117.0952 0.0000 0.0000 0.0000
# 4 0.0000 0.0000 0.0000 24.8504 0.0000 0.0000
# 5 0.0000 0.0000 0.0000 0.0000 36.4784 0.0000
# 6 0.0000 0.0000 0.0000 0.0000 0.0000 -21.5239
#
#
#
# Elastic Compliance Matrix: (Units=1/GPa)
#
#
# Indices 1 2 3 4 5 6 
#
# 1 0.015213 -0.014404 -0.003901 0.000000 0.000000 0.000000
# 2 -0.014404 0.035965 -0.003654 0.000000 0.000000 0.000000
# 3 -0.003901 -0.003654 0.011959 0.000000 0.000000 0.000000
# 4 0.000000 0.000000 0.000000 0.040241 0.000000 0.000000
# 5 0.000000 0.000000 0.000000 0.000000 0.027413 0.000000
# 6 0.000000 0.000000 0.000000 0.000000 0.000000 -0.046460
#
#
# Mechanical properties :
#
#
# Convention : Reuss Voigt Hill
#
# Bulk Modulus (GPa) = 52.03813 73.00052 62.51933
# Shear Modulus (GPa) = 37.13161 17.88674 27.50917
#
# Velocity S-wave (km/s) = 4.53943 3.15061 3.90722
# Velocity P-wave (km/s) = 7.50694 7.33125 7.41961
#
# Compressibility (1/GPa) = 0.01921668
#
# Stress axis : x y z
#
# Youngs Moduli (GPa) = 65.73541 27.80510 83.61672
#
# Poissons Ratio (x) = 0.40051 0.32623
# Poissons Ratio (y) = 0.94687 0.30555
# Poissons Ratio (z) = 0.25647 0.10161
#
# Static dielectric constant tensor:
#      x y z
#    x 3.599370 0.000000 0.000000 
#    y 0.000000 2.939410 0.000000 
#    z 0.000000 0.000000 3.591010 
# 
# 
# High freq. dielectric constant tensor:
#      x y z
#    x 1.715650 0.000000 0.000000 
#    y 0.000000 1.652720 0.000000 
#    z 0.000000 0.000000 1.716070 
# 
# From -- ./inp_files/5946.got.cif
#   From: 2010.03.12/outbox.cif.g09.slc.cpg/sg72_3_cif.got.tgz:5946.got - 2010.04.16 14:54:00.
