data_PCOD8293029
_publ_section_title
;
Structure prediction by ZEFSAII (Michael W. Deem and Ramdas Pophale) SiO2 
 PCOD8293029
Probable space group: I B A M
;
_chemical_formula_sum "Si O2"
_cell_formula_units_Z 80
_cell_length_a 24.042744
_cell_length_b 23.404840
_cell_length_c 8.887120
_cell_angle_alpha 90.000000
_cell_angle_beta 90.000000
_cell_angle_gamma 90.000000
_cell_volume 5000.929741
_symmetry_space_group_name_H-M "I B A M"
_symmetry_group_IT_number 72
_symmetry_cell_setting 'orthorhombic'
loop_
_space_group_symop_operation_xyz
x,y,z
-x,-y,z
x,-y,1/2-z
-x,y,1/2-z
-x,-y,-z
x,y,-z
-x,y,1/2+z
x,-y,1/2+z
1/2+x,1/2+y,1/2+z
1/2-x,1/2-y,1/2+z
1/2+x,1/2-y,-z
1/2-x,1/2+y,-z
1/2-x,1/2-y,1/2-z
1/2+x,1/2+y,1/2-z
1/2-x,1/2+y,z
1/2+x,1/2-y,z
loop_
_atom_site_type_symbol
_atom_site_label
_atom_site_fract_x
_atom_site_fract_y
_atom_site_fract_z
Si Si1 0.737230 0.666135 0.174813
Si Si2 0.335597 0.441459 0.822418
Si Si3 0.943075 0.243375 0.676275
Si Si4 0.442644 0.611262 0.822582
Si Si5 0.166159 0.275575 0.675926
O O1 0.710634 0.605649 0.217230
O O2 0.793882 0.673281 0.269077
O O3 0.693575 0.715159 0.220867
O O4 0.752273 0.670968 0.000000
O O5 0.313661 0.500000 0.750000
O O6 0.394150 0.425947 0.748911
O O7 0.343905 0.447461 0.000000
O O8 0.947327 0.252807 0.500000
O O9 0.932759 0.177365 0.719042
O O10 0.892748 0.280880 0.741137
O O11 0.000000 0.265529 0.750000
O O12 0.500000 0.589678 0.750000
O O13 0.444545 0.601159 0.000000
O O14 0.155778 0.281136 0.500000
#
# Coordination Sequence:
#
# PCOD8293029 Si02
#       5
#    16  16  16  16  16
#     4   9  19  33  48  68  94 123 156 195 239 284
#     4  11  22  36  51  68  93 123 161 204 243 284
#     4  10  19  30  47  70  98 127 158 194 237 284
#     4  10  20  33  49  67  90 123 162 203 243 282
#     4  10  18  30  50  72  95 122 156 194 236 287
#
# _framework density 15.997026
#
# number of rings (size 3 to 8) (size 9 to 14) (size 15 to 20)
#    0.000    2.000    2.000    2.400    0.000    4.400 
#    0.000    2.000    0.000    0.000    0.000    0.000 
#    0.000    0.800    0.000    8.400    0.000    4.600 
#
# Total GULP energy -496172.147327 kJ/mol
# GULP energy per Si atom -12404.303683 kJ/mol
# Density = 1.596062 g / cm^3
# Si number density = 15.997026 Si / 1000 Ang^3
#
#
#
# Elastic Constant Matrix: (Units=GPa)
#
#
# Indices 1 2 3 4 5 6 
#
# 1 121.4456 52.9910 55.6409 0.0000 0.0000 0.0000
# 2 52.9910 68.0932 37.1217 0.0000 0.0000 0.0000
# 3 55.6409 37.1217 78.7880 0.0000 0.0000 0.0000
# 4 0.0000 0.0000 0.0000 22.4819 0.0000 0.0000
# 5 0.0000 0.0000 0.0000 0.0000 32.9878 0.0000
# 6 0.0000 0.0000 0.0000 0.0000 0.0000 21.4705
#
#
#
# Elastic Compliance Matrix: (Units=1/GPa)
#
#
# Indices 1 2 3 4 5 6 
#
# 1 0.014709 -0.007783 -0.006721 0.000000 0.000000 0.000000
# 2 -0.007783 0.023880 -0.005755 0.000000 0.000000 0.000000
# 3 -0.006721 -0.005755 0.020150 0.000000 0.000000 0.000000
# 4 0.000000 0.000000 0.000000 0.044480 0.000000 0.000000
# 5 0.000000 0.000000 0.000000 0.000000 0.030314 0.000000
# 6 0.000000 0.000000 0.000000 0.000000 0.000000 0.046576
#
#
# Mechanical properties :
#
#
# Convention : Reuss Voigt Hill
#
# Bulk Modulus (GPa) = 54.87885 62.20377 58.54131
# Shear Modulus (GPa) = 22.05554 23.55961 22.80757
#
# Velocity S-wave (km/s) = 3.71715 3.84180 3.77999
# Velocity P-wave (km/s) = 7.26657 7.65822 7.46496
#
# Compressibility (1/GPa) = 0.01822196
#
# Stress axis : x y z
#
# Youngs Moduli (GPa) = 67.98400 41.87622 49.62781
#
# Poissons Ratio (x) = 0.32593 0.33354
# Poissons Ratio (y) = 0.52912 0.28560
# Poissons Ratio (z) = 0.45691 0.24099
#
# Static dielectric constant tensor:
#      x y z
#    x 3.037430 0.000000 0.000000 
#    y 0.000000 2.809010 0.000000 
#    z 0.000000 0.000000 3.098170 
# 
# 
# High freq. dielectric constant tensor:
#      x y z
#    x 1.613480 0.000000 0.000000 
#    y 0.000000 1.571690 0.000000 
#    z 0.000000 0.000000 1.631940 
# 
# From -- ./inp_files/7925.got.cif
#   From: 2010.03.12/outbox.cif.g09.slc.cpg/sg72_4_cif.got.tgz:7925.got - 2010.04.16 14:54:00.
