data_PCOD8293208
_publ_section_title
;
Structure prediction by ZEFSAII (Michael W. Deem and Ramdas Pophale) SiO2 
 PCOD8293208
Probable space group: I B A M
;
_chemical_formula_sum "Si O2"
_cell_formula_units_Z 92
_cell_length_a 18.480887
_cell_length_b 18.128450
_cell_length_c 14.434102
_cell_angle_alpha 90.000000
_cell_angle_beta 90.000000
_cell_angle_gamma 90.000000
_cell_volume 4835.854825
_symmetry_space_group_name_H-M "I B A M"
_symmetry_group_IT_number 72
_symmetry_cell_setting 'orthorhombic'
loop_
_space_group_symop_operation_xyz
x,y,z
-x,-y,z
x,-y,1/2-z
-x,y,1/2-z
-x,-y,-z
x,y,-z
-x,y,1/2+z
x,-y,1/2+z
1/2+x,1/2+y,1/2+z
1/2-x,1/2-y,1/2+z
1/2+x,1/2-y,-z
1/2-x,1/2+y,-z
1/2-x,1/2-y,1/2-z
1/2+x,1/2+y,1/2-z
1/2-x,1/2+y,z
1/2+x,1/2-y,z
loop_
_atom_site_type_symbol
_atom_site_label
_atom_site_fract_x
_atom_site_fract_y
_atom_site_fract_z
Si Si1 0.457594 0.746529 0.341539
Si Si2 0.243154 0.343973 0.354320
Si Si3 0.196024 0.814178 0.159984
Si Si4 0.000000 0.500000 0.750000
Si Si5 0.156584 0.086888 0.000000
Si Si6 0.410465 0.096980 0.895601
Si Si7 0.157554 0.082828 0.500000
Si Si8 0.999543 0.143674 0.500000
O O1 0.500000 0.766810 0.250000
O O2 0.384610 0.706577 0.308273
O O3 0.443494 0.821469 0.396560
O O4 0.503156 0.693751 0.408440
O O5 0.230632 0.259224 0.386149
O O6 0.257302 0.344286 0.244973
O O7 0.312130 0.374643 0.408577
O O8 0.174905 0.396650 0.374203
O O9 0.195020 0.880492 0.088151
O O10 0.948830 0.547861 0.682793
O O11 0.178428 0.001945 0.000000
O O12 0.070021 0.091682 0.000000
O O13 0.420919 0.064089 0.000000
O O14 0.071263 0.093817 0.500000
#
# Coordination Sequence:
#
# PCOD8293208 Si02
#       8
#    16  16  16   4   8  16   8   8
#     4  10  18  35  62  87 114 154 202 247 288 345
#     4  10  21  39  63  85 116 158 200 251 288 353
#     4   9  20  38  61  86 116 156 205 244 296 347
#     4  12  26  40  64  86 124 152 194 252 296 370
#     4  12  22  35  59  89 123 155 198 241 299 360
#     4  11  22  41  61  86 120 157 193 239 311 355
#     4  10  22  37  57  86 124 164 188 248 304 351
#     4  10  21  36  58  85 121 157 202 247 284 348
#
# _framework density 19.024557000000001
#
# number of rings (size 3 to 8) (size 9 to 14) (size 15 to 20)
#    0.000    1.739    2.609    2.087    2.435    2.087 
#    0.000    0.000    5.739    3.130    0.000    0.000 
#    0.000    0.000    0.000    0.000    0.000    0.000 
#
# Total GULP energy -570395.001396 kJ/mol
# GULP energy per Si atom -12399.891335 kJ/mol
# Density = 1.898126 g / cm^3
# Si number density = 19.024557 Si / 1000 Ang^3
#
#
#
# Elastic Constant Matrix: (Units=GPa)
#
#
# Indices 1 2 3 4 5 6 
#
# 1 73.7886 37.6277 48.4614 0.0000 0.0000 0.0000
# 2 37.6277 96.6987 45.4264 0.0000 0.0000 0.0000
# 3 48.4614 45.4264 117.8449 0.0000 0.0000 0.0000
# 4 0.0000 0.0000 0.0000 26.5307 0.0000 0.0000
# 5 0.0000 0.0000 0.0000 0.0000 -74.8073 0.0000
# 6 0.0000 0.0000 0.0000 0.0000 0.0000 24.9481
#
#
#
# Elastic Compliance Matrix: (Units=1/GPa)
#
#
# Indices 1 2 3 4 5 6 
#
# 1 0.020273 -0.004851 -0.006467 0.000000 0.000000 0.000000
# 2 -0.004851 0.013789 -0.003320 0.000000 0.000000 0.000000
# 3 -0.006467 -0.003320 0.012425 0.000000 0.000000 0.000000
# 4 0.000000 0.000000 0.000000 0.037692 0.000000 0.000000
# 5 0.000000 0.000000 0.000000 0.000000 -0.013368 0.000000
# 6 0.000000 0.000000 0.000000 0.000000 0.000000 0.040083
#
#
# Mechanical properties :
#
#
# Convention : Reuss Voigt Hill
#
# Bulk Modulus (GPa) = 58.10401 61.26259 59.68330
# Shear Modulus (GPa) = 34.26812 5.78876 20.02844
#
# Velocity S-wave (km/s) = 4.24873 1.74625 3.24816
# Velocity P-wave (km/s) = 7.39438 6.02807 6.74590
#
# Compressibility (1/GPa) = 0.01721052
#
# Stress axis : x y z
#
# Youngs Moduli (GPa) = 49.32635 72.52263 80.48178
#
# Poissons Ratio (x) = 0.35178 0.52048
# Poissons Ratio (y) = 0.23927 0.26724
# Poissons Ratio (z) = 0.31900 0.24081
#
# Static dielectric constant tensor:
#      x y z
#    x 3.439710 0.000000 0.000000 
#    y 0.000000 3.352020 0.000000 
#    z 0.000000 0.000000 3.501340 
# 
# 
# High freq. dielectric constant tensor:
#      x y z
#    x 1.739710 0.000000 0.000000 
#    y 0.000000 1.730420 0.000000 
#    z 0.000000 0.000000 1.749050 
# 
# From -- ./inp_files/24210.got.cif
#   From: 2010.03.12/outbox.cif.g09.slc.cpg/sg72_13_cif.got.tgz:24210.got - 2010.04.16 14:54:00.
