data_PCOD8293500
_publ_section_title
;
Structure prediction by ZEFSAII (Michael W. Deem and Ramdas Pophale) SiO2 
 PCOD8293500
Probable space group: I B A M
;
_chemical_formula_sum "Si O2"
_cell_formula_units_Z 80
_cell_length_a 17.952218
_cell_length_b 25.662568
_cell_length_c 8.986354
_cell_angle_alpha 90.000000
_cell_angle_beta 90.000000
_cell_angle_gamma 90.000000
_cell_volume 4140.013424
_symmetry_space_group_name_H-M "I B A M"
_symmetry_group_IT_number 72
_symmetry_cell_setting 'orthorhombic'
loop_
_space_group_symop_operation_xyz
x,y,z
-x,-y,z
x,-y,1/2-z
-x,y,1/2-z
-x,-y,-z
x,y,-z
-x,y,1/2+z
x,-y,1/2+z
1/2+x,1/2+y,1/2+z
1/2-x,1/2-y,1/2+z
1/2+x,1/2-y,-z
1/2-x,1/2+y,-z
1/2-x,1/2-y,1/2-z
1/2+x,1/2+y,1/2-z
1/2-x,1/2+y,z
1/2+x,1/2-y,z
loop_
_atom_site_type_symbol
_atom_site_label
_atom_site_fract_x
_atom_site_fract_y
_atom_site_fract_z
Si Si1 0.861539 0.448822 0.168755
Si Si2 0.811714 0.153769 0.827060
Si Si3 0.424631 0.743565 0.676099
Si Si4 0.359680 0.156368 0.675763
Si Si5 0.184144 0.949464 0.333436
O O1 0.894198 0.500000 0.250000
O O2 0.888693 0.398602 0.260658
O O3 0.772850 0.451221 0.169417
O O4 0.891849 0.446212 0.000000
O O5 0.859084 0.203905 0.780272
O O6 0.726645 0.165191 0.782140
O O7 0.844181 0.103389 0.743409
O O8 0.818127 0.141061 0.000000
O O9 0.500000 0.722020 0.750000
O O10 0.434171 0.748693 0.500000
O O11 0.407295 0.799492 0.744971
O O12 0.373212 0.158032 0.500000
O O13 0.152838 0.950315 0.500000
O O14 0.151364 0.000000 0.250000
#
# Coordination Sequence:
#
# PCOD8293500 Si02
#       5
#    16  16  16  16  16
#     4   9  16  27  45  73 106 137 168 206 251 300
#     4   9  19  34  53  77 105 135 171 213 257 304
#     4  11  23  38  54  74 102 137 174 215 260 308
#     4  10  19  33  54  79 105 135 171 213 257 304
#     4   9  16  26  45  73 105 136 167 205 252 302
#
# _framework density 19.323609000000001
#
# number of rings (size 3 to 8) (size 9 to 14) (size 15 to 20)
#    0.000    2.400    0.000    3.000    0.000    7.200 
#    0.000    0.000    0.000    1.200    0.000    8.400 
#    0.000    0.000    0.000    0.000    0.000    0.000 
#
# Total GULP energy -496085.700745 kJ/mol
# GULP energy per Si atom -12402.142519 kJ/mol
# Density = 1.927963 g / cm^3
# Si number density = 19.323609 Si / 1000 Ang^3
#
#
#
# Elastic Constant Matrix: (Units=GPa)
#
#
# Indices 1 2 3 4 5 6 
#
# 1 27.2464 8.4335 17.7187 0.0000 0.0000 0.0000
# 2 8.4335 111.4619 47.9874 0.0000 0.0000 0.0000
# 3 17.7187 47.9874 104.9597 0.0000 0.0000 0.0000
# 4 0.0000 0.0000 0.0000 42.2381 0.0000 0.0000
# 5 0.0000 0.0000 0.0000 0.0000 21.0267 0.0000
# 6 0.0000 0.0000 0.0000 0.0000 0.0000 2.1570
#
#
#
# Elastic Compliance Matrix: (Units=1/GPa)
#
#
# Indices 1 2 3 4 5 6 
#
# 1 0.041230 -0.000153 -0.006890 0.000000 0.000000 0.000000
# 2 -0.000153 0.011171 -0.005081 0.000000 0.000000 0.000000
# 3 -0.006890 -0.005081 0.013014 0.000000 0.000000 0.000000
# 4 0.000000 0.000000 0.000000 0.023675 0.000000 0.000000
# 5 0.000000 0.000000 0.000000 0.000000 0.047559 0.000000
# 6 0.000000 0.000000 0.000000 0.000000 0.000000 0.463597
#
#
# Mechanical properties :
#
#
# Convention : Reuss Voigt Hill
#
# Bulk Modulus (GPa) = 24.29224 43.54968 33.92096
# Shear Modulus (GPa) = 7.83432 24.38627 16.11029
#
# Velocity S-wave (km/s) = 2.01571 3.55631 2.89054
# Velocity P-wave (km/s) = 4.24453 6.28085 5.36027
#
# Compressibility (1/GPa) = 0.04116542
#
# Stress axis : x y z
#
# Youngs Moduli (GPa) = 24.25400 89.51762 76.84102
#
# Poissons Ratio (x) = 0.01371 0.52945
# Poissons Ratio (y) = 0.00371 0.39047
# Poissons Ratio (z) = 0.16712 0.45488
#
# Static dielectric constant tensor:
#      x y z
#    x 3.162990 0.000000 0.000000 
#    y 0.000000 3.673840 0.000000 
#    z 0.000000 0.000000 3.655000 
# 
# 
# High freq. dielectric constant tensor:
#      x y z
#    x 1.702090 0.000000 0.000000 
#    y 0.000000 1.766080 0.000000 
#    z 0.000000 0.000000 1.765280 
# 
# From -- ./inp_files/4751.got.cif
#   From: 2010.03.12/outbox.cif.g09.slc.cpg/sg72_3_cif.got.tgz:4751.got - 2010.04.16 14:54:00.
