data_PCOD8293196
_publ_section_title
;
Structure prediction by ZEFSAII (Michael W. Deem and Ramdas Pophale) SiO2 
 PCOD8293196
Probable space group: I B A M
;
_chemical_formula_sum "Si O2"
_cell_formula_units_Z 112
_cell_length_a 18.673637
_cell_length_b 18.692080
_cell_length_c 18.395289
_cell_angle_alpha 90.000000
_cell_angle_beta 90.000000
_cell_angle_gamma 90.000000
_cell_volume 6420.859377
_symmetry_space_group_name_H-M "I B A M"
_symmetry_group_IT_number 72
_symmetry_cell_setting 'orthorhombic'
loop_
_space_group_symop_operation_xyz
x,y,z
-x,-y,z
x,-y,1/2-z
-x,y,1/2-z
-x,-y,-z
x,y,-z
-x,y,1/2+z
x,-y,1/2+z
1/2+x,1/2+y,1/2+z
1/2-x,1/2-y,1/2+z
1/2+x,1/2-y,-z
1/2-x,1/2+y,-z
1/2-x,1/2-y,1/2-z
1/2+x,1/2+y,1/2-z
1/2-x,1/2+y,z
1/2+x,1/2-y,z
loop_
_atom_site_type_symbol
_atom_site_label
_atom_site_fract_x
_atom_site_fract_y
_atom_site_fract_z
Si Si1 0.944285 0.437120 0.086133
Si Si2 0.449921 0.214239 0.847901
Si Si3 0.601121 0.753920 0.688450
Si Si4 0.806355 0.512675 0.331401
Si Si5 0.779440 0.645893 0.150050
Si Si6 0.725467 0.350496 0.190344
Si Si7 0.811429 0.746008 0.580927
O O1 0.969475 0.366636 0.128793
O O2 0.865978 0.455582 0.115990
O O3 0.000000 0.500000 0.104290
O O4 0.939446 0.422968 0.000000
O O5 0.411672 0.216222 0.769479
O O6 0.523994 0.258747 0.848719
O O7 0.396516 0.250636 0.905345
O O8 0.643697 0.814897 0.643146
O O9 0.643686 0.677929 0.684623
O O10 0.837543 0.500000 0.250000
O O11 0.782357 0.437870 0.365726
O O12 0.736531 0.564927 0.326184
O O13 0.751068 0.667638 0.229126
O O14 0.723963 0.676222 0.090942
O O15 0.776543 0.310342 0.134817
O O16 0.797860 0.718380 0.500000
#
# Coordination Sequence:
#
# PCOD8293196 Si02
#       7
#    16  16  16  16  16  16  16
#     4  11  23  36  49  74 116 153 179 218 270 333
#     4  11  19  33  53  79 103 146 182 222 272 326
#     4  10  19  32  56  78 107 135 184 230 271 310
#     4  10  20  33  57  80 107 142 179 224 275 324
#     4  10  18  35  53  82 108 135 178 231 268 320
#     4  10  18  36  54  80 106 140 182 228 268 323
#     4  11  20  33  54  77 107 146 183 221 271 325
#
# _framework density 17.443148000000001
#
# number of rings (size 3 to 8) (size 9 to 14) (size 15 to 20)
#    0.000    1.571    4.286    3.000    0.000    2.000 
#    0.000    7.143    0.000    0.857    0.000    1.000 
#    0.000    0.000    0.000    0.000    0.000    0.000 
#
# Total GULP energy -694209.047541 kJ/mol
# GULP energy per Si atom -12396.590135 kJ/mol
# Density = 1.740345 g / cm^3
# Si number density = 17.443148 Si / 1000 Ang^3
#
#
#
# Elastic Constant Matrix: (Units=GPa)
#
#
# Indices 1 2 3 4 5 6 
#
# 1 118.5526 46.3234 33.8564 0.0000 0.0000 0.0000
# 2 46.3234 73.7527 15.2918 0.0000 0.0000 0.0000
# 3 33.8564 15.2918 64.1382 0.0000 0.0000 0.0000
# 4 0.0000 0.0000 0.0000 8.4831 0.0000 0.0000
# 5 0.0000 0.0000 0.0000 0.0000 19.9586 0.0000
# 6 0.0000 0.0000 0.0000 0.0000 0.0000 26.2544
#
#
#
# Elastic Compliance Matrix: (Units=1/GPa)
#
#
# Indices 1 2 3 4 5 6 
#
# 1 0.012530 -0.006836 -0.004984 0.000000 0.000000 0.000000
# 2 -0.006836 0.017994 -0.000681 0.000000 0.000000 0.000000
# 3 -0.004984 -0.000681 0.018385 0.000000 0.000000 0.000000
# 4 0.000000 0.000000 0.000000 0.117881 0.000000 0.000000
# 5 0.000000 0.000000 0.000000 0.000000 0.050104 0.000000
# 6 0.000000 0.000000 0.000000 0.000000 0.000000 0.038089
#
#
# Mechanical properties :
#
#
# Convention : Reuss Voigt Hill
#
# Bulk Modulus (GPa) = 41.83289 49.70963 45.77126
# Shear Modulus (GPa) = 17.36386 21.67067 19.51726
#
# Velocity S-wave (km/s) = 3.15851 3.52854 3.34864
# Velocity P-wave (km/s) = 6.11032 6.72017 6.42249
#
# Compressibility (1/GPa) = 0.02390464
#
# Stress axis : x y z
#
# Youngs Moduli (GPa) = 79.81033 55.57411 54.39292
#
# Poissons Ratio (x) = 0.37993 0.27110
# Poissons Ratio (y) = 0.54562 0.03706
# Poissons Ratio (z) = 0.39778 0.03787
#
# Static dielectric constant tensor:
#      x y z
#    x 3.410170 0.000000 0.000000 
#    y 0.000000 3.358120 0.000000 
#    z 0.000000 0.000000 3.200290 
# 
# 
# High freq. dielectric constant tensor:
#      x y z
#    x 1.667140 0.000000 0.000000 
#    y 0.000000 1.662870 0.000000 
#    z 0.000000 0.000000 1.667460 
# 
# From -- ./inp_files/39222.got.cif
#   From: 2010.03.12/outbox.cif.g09.slc.cpg/sg72_20_cif.got.tgz:39222.got - 2010.04.16 14:54:00.
