data_PCOD8293533
_publ_section_title
;
Structure prediction by ZEFSAII (Michael W. Deem and Ramdas Pophale) SiO2 
 PCOD8293533
Probable space group: I B A M
;
_chemical_formula_sum "Si O2"
_cell_formula_units_Z 64
_cell_length_a 12.973373
_cell_length_b 14.574779
_cell_length_c 19.075199
_cell_angle_alpha 90.000000
_cell_angle_beta 90.000000
_cell_angle_gamma 90.000000
_cell_volume 3606.815774
_symmetry_space_group_name_H-M "I B A M"
_symmetry_group_IT_number 72
_symmetry_cell_setting 'orthorhombic'
loop_
_space_group_symop_operation_xyz
x,y,z
-x,-y,z
x,-y,1/2-z
-x,y,1/2-z
-x,-y,-z
x,y,-z
-x,y,1/2+z
x,-y,1/2+z
1/2+x,1/2+y,1/2+z
1/2-x,1/2-y,1/2+z
1/2+x,1/2-y,-z
1/2-x,1/2+y,-z
1/2-x,1/2-y,1/2-z
1/2+x,1/2+y,1/2-z
1/2-x,1/2+y,z
1/2+x,1/2-y,z
loop_
_atom_site_type_symbol
_atom_site_label
_atom_site_fract_x
_atom_site_fract_y
_atom_site_fract_z
Si Si1 0.695741 0.643521 0.820088
Si Si2 0.489108 0.392250 0.920030
Si Si3 0.624932 0.278480 0.176881
Si Si4 0.671063 0.000000 0.750000
Si Si5 0.000000 0.636869 0.250000
O O1 0.616387 0.635342 0.882797
O O2 0.635587 0.662255 0.747740
O O3 0.767009 0.729922 0.840872
O O4 0.759761 0.548305 0.810062
O O5 0.500000 0.500000 0.913565
O O6 0.589120 0.344834 0.885312
O O7 0.483307 0.359347 0.000000
O O8 0.538845 0.199605 0.186172
O O9 0.594817 0.077582 0.717609
#
# Coordination Sequence:
#
# PCOD8293533 Si02
#       5
#    16  16  16   8   8
#     4  10  19  33  57  83 105 136 176 222 264 310
#     4  11  23  37  52  75 110 147 178 214 261 313
#     4  10  19  34  57  80 106 135 179 220 266 310
#     4   9  18  28  53  84 106 130 167 218 271 310
#     4   9  16  32  51  80 110 130 163 224 268 311
#
# _framework density 17.744184000000001
#
# number of rings (size 3 to 8) (size 9 to 14) (size 15 to 20)
#    0.000    2.000    2.500    1.500    0.000    2.000 
#    0.000    0.000    0.000    0.000    0.000    7.000 
#    0.000    0.000    0.000    0.000    0.000    0.000 
#
# Total GULP energy -396696.955196 kJ/mol
# GULP energy per Si atom -12396.779850 kJ/mol
# Density = 1.770380 g / cm^3
# Si number density = 17.744184 Si / 1000 Ang^3
#
#
#
# Elastic Constant Matrix: (Units=GPa)
#
#
# Indices 1 2 3 4 5 6 
#
# 1 104.2519 44.7928 70.1030 0.0000 0.0000 0.0000
# 2 44.7928 87.4414 57.3276 0.0000 0.0000 0.0000
# 3 70.1030 57.3276 131.1920 0.0000 0.0000 0.0000
# 4 0.0000 0.0000 0.0000 22.6141 0.0000 0.0000
# 5 0.0000 0.0000 0.0000 0.0000 6.7646 0.0000
# 6 0.0000 0.0000 0.0000 0.0000 0.0000 35.3937
#
#
#
# Elastic Compliance Matrix: (Units=1/GPa)
#
#
# Indices 1 2 3 4 5 6 
#
# 1 0.015729 -0.003570 -0.006845 0.000000 0.000000 0.000000
# 2 -0.003570 0.016838 -0.005450 0.000000 0.000000 0.000000
# 3 -0.006845 -0.005450 0.013662 0.000000 0.000000 0.000000
# 4 0.000000 0.000000 0.000000 0.044220 0.000000 0.000000
# 5 0.000000 0.000000 0.000000 0.000000 0.147829 0.000000
# 6 0.000000 0.000000 0.000000 0.000000 0.000000 0.028254
#
#
# Mechanical properties :
#
#
# Convention : Reuss Voigt Hill
#
# Bulk Modulus (GPa) = 68.97146 74.14800 71.55973
# Shear Modulus (GPa) = 16.49655 22.99860 19.74758
#
# Velocity S-wave (km/s) = 3.05239 3.60407 3.33964
# Velocity P-wave (km/s) = 7.16778 7.69396 7.43553
#
# Compressibility (1/GPa) = 0.01449875
#
# Stress axis : x y z
#
# Youngs Moduli (GPa) = 63.57853 59.38891 73.19743
#
# Poissons Ratio (x) = 0.21199 0.50102
# Poissons Ratio (y) = 0.22695 0.39896
# Poissons Ratio (z) = 0.43518 0.32370
#
# Static dielectric constant tensor:
#      x y z
#    x 3.533950 0.000000 0.000000 
#    y 0.000000 3.639310 0.000000 
#    z 0.000000 0.000000 2.959560 
# 
# 
# High freq. dielectric constant tensor:
#      x y z
#    x 1.707860 0.000000 0.000000 
#    y 0.000000 1.706220 0.000000 
#    z 0.000000 0.000000 1.631870 
# 
# From -- ./inp_files/30241.got.cif
#   From: 2010.03.12/outbox.cif.g09.slc.cpg/sg72_16_cif.got.tgz:30241.got - 2010.04.16 14:54:00.
