data_PCOD8293412
_publ_section_title
;
Structure prediction by ZEFSAII (Michael W. Deem and Ramdas Pophale) SiO2 
 PCOD8293412
Probable space group: I B A M
;
_chemical_formula_sum "Si O2"
_cell_formula_units_Z 56
_cell_length_a 31.853889
_cell_length_b 5.094532
_cell_length_c 17.435210
_cell_angle_alpha 90.000000
_cell_angle_beta 90.000000
_cell_angle_gamma 90.000000
_cell_volume 2829.397331
_symmetry_space_group_name_H-M "I B A M"
_symmetry_group_IT_number 72
_symmetry_cell_setting 'orthorhombic'
loop_
_space_group_symop_operation_xyz
x,y,z
-x,-y,z
x,-y,1/2-z
-x,y,1/2-z
-x,-y,-z
x,y,-z
-x,y,1/2+z
x,-y,1/2+z
1/2+x,1/2+y,1/2+z
1/2-x,1/2-y,1/2+z
1/2+x,1/2-y,-z
1/2-x,1/2+y,-z
1/2-x,1/2-y,1/2-z
1/2+x,1/2+y,1/2-z
1/2-x,1/2+y,z
1/2+x,1/2-y,z
loop_
_atom_site_type_symbol
_atom_site_label
_atom_site_fract_x
_atom_site_fract_y
_atom_site_fract_z
Si Si1 0.519039 0.747030 0.664761
Si Si2 0.222489 0.725736 0.000000
Si Si3 0.114672 0.900676 0.666575
Si Si4 0.355462 0.095383 0.915563
O O1 0.500000 0.500000 0.619199
O O2 0.500000 0.748136 0.750000
O O3 0.568940 0.731739 0.667383
O O4 0.500000 0.000000 0.621328
O O5 0.193385 0.683669 0.924282
O O6 0.260842 0.522224 0.000000
O O7 0.143986 0.660927 0.638757
O O8 0.128765 0.000000 0.750000
O O9 0.117300 0.157354 0.613484
O O10 0.373530 0.017641 0.000000
#
# Coordination Sequence:
#
# PCOD8293412 Si02
#       4
#    16   8  16  16
#     4  10  19  32  52  86 113 163 217 247 284 351
#     4  10  20  42  72  90 114 168 216 238 292 418
#     4  12  21  37  64  93 128 161 211 271 302 364
#     4  10  24  39  62  97 122 163 204 255 322 378
#
# _framework density 19.792199
#
# number of rings (size 3 to 8) (size 9 to 14) (size 15 to 20)
#    0.857    0.571    2.857    5.143    4.000    0.000 
#    0.000    0.000    0.000   34.286    0.000    0.000 
#    0.000    0.000    0.000    0.000    0.000    0.000 
#
# Total GULP energy -346882.159862 kJ/mol
# GULP energy per Si atom -12388.648566 kJ/mol
# Density = 1.974715 g / cm^3
# Si number density = 19.792199 Si / 1000 Ang^3
#
#
#
# Elastic Constant Matrix: (Units=GPa)
#
#
# Indices 1 2 3 4 5 6 
#
# 1 72.4237 22.9081 33.0916 0.0000 0.0000 0.0000
# 2 22.9081 160.8653 35.0312 0.0000 0.0000 0.0000
# 3 33.0916 35.0312 72.0578 0.0000 0.0000 0.0000
# 4 0.0000 0.0000 0.0000 10.9211 0.0000 0.0000
# 5 0.0000 0.0000 0.0000 0.0000 20.3877 0.0000
# 6 0.0000 0.0000 0.0000 0.0000 0.0000 49.4451
#
#
#
# Elastic Compliance Matrix: (Units=1/GPa)
#
#
# Indices 1 2 3 4 5 6 
#
# 1 0.017574 -0.000833 -0.007665 0.000000 0.000000 0.000000
# 2 -0.000833 0.006992 -0.003016 0.000000 0.000000 0.000000
# 3 -0.007665 -0.003016 0.018864 0.000000 0.000000 0.000000
# 4 0.000000 0.000000 0.000000 0.091566 0.000000 0.000000
# 5 0.000000 0.000000 0.000000 0.000000 0.049049 0.000000
# 6 0.000000 0.000000 0.000000 0.000000 0.000000 0.020224
#
#
# Mechanical properties :
#
#
# Convention : Reuss Voigt Hill
#
# Bulk Modulus (GPa) = 49.02024 54.15651 51.58838
# Shear Modulus (GPa) = 21.35838 30.43849 25.89844
#
# Velocity S-wave (km/s) = 3.28858 3.92587 3.62127
# Velocity P-wave (km/s) = 6.26425 6.92617 6.60351
#
# Compressibility (1/GPa) = 0.02039974
#
# Stress axis : x y z
#
# Youngs Moduli (GPa) = 56.90340 143.02181 53.00978
#
# Poissons Ratio (x) = 0.11918 0.40634
# Poissons Ratio (y) = 0.04742 0.15990
# Poissons Ratio (z) = 0.43618 0.43142
#
# Static dielectric constant tensor:
#      x y z
#    x 3.434590 0.000000 0.000000 
#    y 0.000000 2.384190 0.000000 
#    z 0.000000 0.000000 3.326810 
# 
# 
# High freq. dielectric constant tensor:
#      x y z
#    x 1.756960 0.000000 0.000000 
#    y 0.000000 1.808000 0.000000 
#    z 0.000000 0.000000 1.730650 
# 
# From -- ./inp_files/26966.got.cif
#   From: 2010.03.12/outbox.cif.g09.slc.cpg/sg72_14_cif.got.tgz:26966.got - 2010.04.16 14:54:00.
