data_PCOD8293965
_publ_section_title
;
Structure prediction by ZEFSAII (Michael W. Deem and Ramdas Pophale) SiO2 
 PCOD8293965
Probable space group: I B A M
;
_chemical_formula_sum "Si O2"
_cell_formula_units_Z 80
_cell_length_a 17.982160
_cell_length_b 13.378791
_cell_length_c 17.063311
_cell_angle_alpha 90.000000
_cell_angle_beta 90.000000
_cell_angle_gamma 90.000000
_cell_volume 4105.083859
_symmetry_space_group_name_H-M "I B A M"
_symmetry_group_IT_number 72
_symmetry_cell_setting 'orthorhombic'
loop_
_space_group_symop_operation_xyz
x,y,z
-x,-y,z
x,-y,1/2-z
-x,y,1/2-z
-x,-y,-z
x,y,-z
-x,y,1/2+z
x,-y,1/2+z
1/2+x,1/2+y,1/2+z
1/2-x,1/2-y,1/2+z
1/2+x,1/2-y,-z
1/2-x,1/2+y,-z
1/2-x,1/2-y,1/2-z
1/2+x,1/2+y,1/2-z
1/2-x,1/2+y,z
1/2+x,1/2-y,z
loop_
_atom_site_type_symbol
_atom_site_label
_atom_site_fract_x
_atom_site_fract_y
_atom_site_fract_z
Si Si1 0.984742 0.688993 0.409775
Si Si2 0.809074 0.814257 0.091826
Si Si3 0.372564 0.119001 0.335699
Si Si4 0.841405 0.393228 0.157716
Si Si5 0.464212 0.400544 0.407729
O O1 0.010444 0.683259 0.500000
O O2 0.900700 0.652105 0.402606
O O3 0.040441 0.619467 0.359513
O O4 0.990455 0.803186 0.378803
O O5 0.828093 0.700537 0.114099
O O6 0.739050 0.849008 0.141305
O O7 0.877539 0.887179 0.114847
O O8 0.791188 0.819429 0.000000
O O9 0.366577 0.140763 0.243717
O O10 0.337166 0.011848 0.354306
O O11 0.500000 0.500000 0.368056
O O12 0.472239 0.409944 0.500000
#
# Coordination Sequence:
#
# PCOD8293965 Si02
#       5
#    16  16  16  16  16
#     4  10  20  34  56  84 110 142 188 235 278 330
#     4  10  21  36  56  83 112 142 183 237 286 328
#     4  10  22  39  55  76 112 151 181 225 285 341
#     4  11  22  36  57  82 109 147 188 228 282 343
#     4   8  16  33  54  77 108 143 177 219 273 329
#
# _framework density 19.488032
#
# number of rings (size 3 to 8) (size 9 to 14) (size 15 to 20)
#    0.000    2.200    0.000    4.200    0.000    7.200 
#    0.000    2.000    0.000    8.400    0.000    0.000 
#    0.000    0.000    0.000    0.000    0.000    0.200 
#
# Total GULP energy -496055.992232 kJ/mol
# GULP energy per Si atom -12401.399806 kJ/mol
# Density = 1.944368 g / cm^3
# Si number density = 19.488032 Si / 1000 Ang^3
#
#
#
# Elastic Constant Matrix: (Units=GPa)
#
#
# Indices 1 2 3 4 5 6 
#
# 1 113.7211 46.9108 27.1337 0.0000 0.0000 0.0000
# 2 46.9108 79.8800 29.4439 0.0000 0.0000 0.0000
# 3 27.1337 29.4439 66.4315 0.0000 0.0000 0.0000
# 4 0.0000 0.0000 0.0000 25.0582 0.0000 0.0000
# 5 0.0000 0.0000 0.0000 0.0000 26.3824 0.0000
# 6 0.0000 0.0000 0.0000 0.0000 0.0000 27.9696
#
#
#
# Elastic Compliance Matrix: (Units=1/GPa)
#
#
# Indices 1 2 3 4 5 6 
#
# 1 0.011844 -0.006183 -0.002097 0.000000 0.000000 0.000000
# 2 -0.006183 0.018191 -0.005537 0.000000 0.000000 0.000000
# 3 -0.002097 -0.005537 0.018364 0.000000 0.000000 0.000000
# 4 0.000000 0.000000 0.000000 0.039907 0.000000 0.000000
# 5 0.000000 0.000000 0.000000 0.000000 0.037904 0.000000
# 6 0.000000 0.000000 0.000000 0.000000 0.000000 0.035753
#
#
# Mechanical properties :
#
#
# Convention : Reuss Voigt Hill
#
# Bulk Modulus (GPa) = 48.15957 51.88994 50.02475
# Shear Modulus (GPa) = 25.44280 26.31832 25.88056
#
# Velocity S-wave (km/s) = 3.61717 3.67888 3.64816
# Velocity P-wave (km/s) = 6.49702 6.68804 6.59322
#
# Compressibility (1/GPa) = 0.02076431
#
# Stress axis : x y z
#
# Youngs Moduli (GPa) = 84.42898 54.97332 54.45431
#
# Poissons Ratio (x) = 0.33988 0.11422
# Poissons Ratio (y) = 0.52199 0.30153
# Poissons Ratio (z) = 0.17709 0.30440
#
# Static dielectric constant tensor:
#      x y z
#    x 3.508290 0.000000 0.000000 
#    y 0.000000 3.785240 0.000000 
#    z 0.000000 0.000000 3.412900 
# 
# 
# High freq. dielectric constant tensor:
#      x y z
#    x 1.758240 0.000000 0.000000 
#    y 0.000000 1.764900 0.000000 
#    z 0.000000 0.000000 1.748510 
# 
# From -- ./inp_files/31354.got.cif
#   From: 2010.03.12/outbox.cif.g09.slc.cpg/sg72_16_cif.got.tgz:31354.got - 2010.04.16 14:54:00.
