data_PCOD8293913
_publ_section_title
;
Structure prediction by ZEFSAII (Michael W. Deem and Ramdas Pophale) SiO2 
 PCOD8293913
Probable space group: I B A M
;
_chemical_formula_sum "Si O2"
_cell_formula_units_Z 112
_cell_length_a 10.016294
_cell_length_b 27.775753
_cell_length_c 21.559781
_cell_angle_alpha 90.000000
_cell_angle_beta 90.000000
_cell_angle_gamma 90.000000
_cell_volume 5998.149003
_symmetry_space_group_name_H-M "I B A M"
_symmetry_group_IT_number 72
_symmetry_cell_setting 'orthorhombic'
loop_
_space_group_symop_operation_xyz
x,y,z
-x,-y,z
x,-y,1/2-z
-x,y,1/2-z
-x,-y,-z
x,y,-z
-x,y,1/2+z
x,-y,1/2+z
1/2+x,1/2+y,1/2+z
1/2-x,1/2-y,1/2+z
1/2+x,1/2-y,-z
1/2-x,1/2+y,-z
1/2-x,1/2-y,1/2-z
1/2+x,1/2+y,1/2-z
1/2-x,1/2+y,z
1/2+x,1/2-y,z
loop_
_atom_site_type_symbol
_atom_site_label
_atom_site_fract_x
_atom_site_fract_y
_atom_site_fract_z
Si Si1 0.684744 0.848034 0.869516
Si Si2 0.334028 0.950588 0.072926
Si Si3 0.638673 0.057131 0.573378
Si Si4 0.565894 0.299749 0.926461
Si Si5 0.907853 0.307011 0.389152
Si Si6 0.825761 0.862226 0.568767
Si Si7 0.151973 0.705434 0.744728
O O1 0.716498 0.903981 0.884105
O O2 0.788332 0.816415 0.907571
O O3 0.539525 0.838588 0.898514
O O4 0.687328 0.834781 0.796551
O O5 0.485037 0.942656 0.095860
O O6 0.230052 0.911259 0.102411
O O7 0.292556 0.005510 0.088430
O O8 0.333986 0.942085 0.000000
O O9 0.652143 0.068664 0.500000
O O10 0.545152 0.247860 0.895766
O O11 0.453680 0.336635 0.898717
O O12 0.551955 0.294782 0.000000
O O13 0.795837 0.323789 0.437626
O O14 0.836121 0.317938 0.322996
O O15 0.873709 0.875969 0.500000
O O16 0.250000 0.750000 0.750000
O O17 0.000000 0.724472 0.750000
#
# Coordination Sequence:
#
# PCOD8293913 Si02
#       7
#    16  16  16  16  16  16  16
#     4  11  21  35  53  76 105 137 180 225 265 313
#     4   8  15  30  52  78 106 137 176 216 263 330
#     4   9  16  29  54  82 103 134 177 221 270 322
#     4  11  23  33  48  79 114 143 174 217 271 324
#     4  11  21  35  54  74 103 143 186 222 260 313
#     4  10  20  34  52  78 109 143 177 216 271 327
#     4  10  22  37  54  74 101 138 184 222 257 310
#
# _framework density 18.672426999999999
#
# number of rings (size 3 to 8) (size 9 to 14) (size 15 to 20)
#    0.000    2.000    2.857    2.571    2.000    2.857 
#    0.000    0.714    0.000    4.286    0.000    0.000 
#    0.000    2.286    0.000    0.000    0.000    0.000 
#
# Total GULP energy -693932.429523 kJ/mol
# GULP energy per Si atom -12391.650527 kJ/mol
# Density = 1.862993 g / cm^3
# Si number density = 18.672427 Si / 1000 Ang^3
#
#
#
# Elastic Constant Matrix: (Units=GPa)
#
#
# Indices 1 2 3 4 5 6 
#
# 1 63.7412 29.2551 17.9605 0.0000 0.0000 0.0000
# 2 29.2551 140.4645 36.1934 0.0000 0.0000 0.0000
# 3 17.9605 36.1934 58.2067 -0.0001 0.0000 0.0000
# 4 0.0000 0.0000 -0.0001 14.0944 0.0000 0.0000
# 5 0.0000 0.0000 0.0000 0.0000 19.2970 0.0000
# 6 0.0000 0.0000 0.0000 0.0000 0.0000 22.4851
#
#
#
# Elastic Compliance Matrix: (Units=1/GPa)
#
#
# Indices 1 2 3 4 5 6 
#
# 1 0.018042 -0.002766 -0.003847 0.000000 0.000000 0.000000
# 2 -0.002766 0.008902 -0.004682 0.000000 0.000000 0.000000
# 3 -0.003847 -0.004682 0.021278 0.000000 0.000000 0.000000
# 4 0.000000 0.000000 0.000000 0.070950 0.000000 0.000000
# 5 0.000000 0.000000 0.000000 0.000000 0.051822 0.000000
# 6 0.000000 0.000000 0.000000 0.000000 0.000000 0.044474
#
#
# Mechanical properties :
#
#
# Convention : Reuss Voigt Hill
#
# Bulk Modulus (GPa) = 39.01349 47.69227 43.35288
# Shear Modulus (GPa) = 20.27562 23.10885 21.69223
#
# Velocity S-wave (km/s) = 3.29881 3.52176 3.41211
# Velocity P-wave (km/s) = 5.95387 6.49107 6.22827
#
# Compressibility (1/GPa) = 0.02563216
#
# Stress axis : x y z
#
# Youngs Moduli (GPa) = 55.42583 112.33805 46.99647
#
# Poissons Ratio (x) = 0.31078 0.18079
# Poissons Ratio (y) = 0.15333 0.22001
# Poissons Ratio (z) = 0.21322 0.52591
#
# Static dielectric constant tensor:
#      x y z
#    x 3.494890 0.000000 0.000000 
#    y 0.000000 3.675830 0.000000 
#    z 0.000000 0.000000 3.305750 
# 
# 
# High freq. dielectric constant tensor:
#      x y z
#    x 1.716850 0.000000 0.000000 
#    y 0.000000 1.726600 0.000000 
#    z 0.000000 0.000000 1.690030 
# 
# From -- ./inp_files/43730.got.cif
#   From: 2010.03.12/outbox.cif.g09.slc.cpg/sg72_22_cif.got.tgz:43730.got - 2010.04.16 14:54:00.
