data_PCOD8293487
_publ_section_title
;
Structure prediction by ZEFSAII (Michael W. Deem and Ramdas Pophale) SiO2 
 PCOD8293487
Probable space group: I B A M
;
_chemical_formula_sum "Si O2"
_cell_formula_units_Z 116
_cell_length_a 25.842192
_cell_length_b 16.493678
_cell_length_c 14.562383
_cell_angle_alpha 90.000000
_cell_angle_beta 90.000000
_cell_angle_gamma 90.000000
_cell_volume 6206.965188
_symmetry_space_group_name_H-M "I B A M"
_symmetry_group_IT_number 72
_symmetry_cell_setting 'orthorhombic'
loop_
_space_group_symop_operation_xyz
x,y,z
-x,-y,z
x,-y,1/2-z
-x,y,1/2-z
-x,-y,-z
x,y,-z
-x,y,1/2+z
x,-y,1/2+z
1/2+x,1/2+y,1/2+z
1/2-x,1/2-y,1/2+z
1/2+x,1/2-y,-z
1/2-x,1/2+y,-z
1/2-x,1/2-y,1/2-z
1/2+x,1/2+y,1/2-z
1/2-x,1/2+y,z
1/2+x,1/2-y,z
loop_
_atom_site_type_symbol
_atom_site_label
_atom_site_fract_x
_atom_site_fract_y
_atom_site_fract_z
Si Si1 0.031789 0.928556 0.398879
Si Si2 0.293300 0.617473 0.602196
Si Si3 0.954670 0.238375 0.688980
Si Si4 0.431399 0.099581 0.395628
Si Si5 0.358527 0.533768 0.846378
Si Si6 0.000000 0.500000 0.250000
Si Si7 0.179204 0.348643 0.895284
Si Si8 0.158474 0.799833 0.270141
O O1 0.008220 0.917876 0.500000
O O2 0.021879 0.844147 0.349586
O O3 0.091806 0.952463 0.409388
O O4 0.000000 0.000000 0.347535
O O5 0.303110 0.651784 0.500000
O O6 0.318838 0.529125 0.609657
O O7 0.232248 0.601999 0.618793
O O8 0.316116 0.685594 0.670519
O O9 0.942839 0.303999 0.609943
O O10 0.902602 0.217250 0.745361
O O11 0.000000 0.277706 0.750000
O O12 0.444868 0.070182 0.500000
O O13 0.463279 0.051882 0.317691
O O14 0.369614 0.091492 0.375480
O O15 0.379494 0.500000 0.750000
O O16 0.330669 0.620161 0.831280
O O17 0.183487 0.274779 0.823772
O O18 0.174140 0.315386 0.000000
#
# Coordination Sequence:
#
# PCOD8293487 Si02
#       8
#    16  16  16  16  16   4  16  16
#     4  10  21  31  47  76 107 147 188 227 269 316
#     4  10  19  33  53  79 112 145 179 227 278 321
#     4  10  20  35  56  78 111 148 190 230 271 322
#     4  10  21  40  63  87 114 145 184 227 278 345
#     4   9  19  32  47  72 101 141 182 221 269 314
#     4  12  22  40  64  94 114 140 174 228 298 334
#     4   9  19  36  60  82 105 143 184 223 271 327
#     4   9  19  34  54  78 104 143 189 225 268 322
#
# _framework density 18.688680999999999
#
# number of rings (size 3 to 8) (size 9 to 14) (size 15 to 20)
#    0.000    2.345    0.690    1.448    5.793    3.862 
#    3.724    0.690    0.000    0.000    0.000    0.000 
#    0.000    0.000    0.000    0.000    0.000    0.000 
#
# Total GULP energy -718809.530318 kJ/mol
# GULP energy per Si atom -12393.267764 kJ/mol
# Density = 1.864614 g / cm^3
# Si number density = 18.688681 Si / 1000 Ang^3
#
#
#
# Elastic Constant Matrix: (Units=GPa)
#
#
# Indices 1 2 3 4 5 6 
#
# 1 94.5318 34.6823 51.1413 0.0000 0.0000 0.0000
# 2 34.6823 70.9219 34.0855 0.0000 0.0000 0.0000
# 3 51.1413 34.0855 105.6940 0.0000 0.0000 0.0000
# 4 0.0000 0.0000 0.0000 19.4617 0.0000 0.0000
# 5 0.0000 0.0000 0.0000 0.0000 30.3644 0.0000
# 6 0.0000 0.0000 0.0000 0.0000 0.0000 27.1251
#
#
#
# Elastic Compliance Matrix: (Units=1/GPa)
#
#
# Indices 1 2 3 4 5 6 
#
# 1 0.015560 -0.004723 -0.006006 0.000000 0.000000 0.000000
# 2 -0.004723 0.018120 -0.003558 0.000000 0.000000 0.000000
# 3 -0.006006 -0.003558 0.013515 0.000000 0.000000 0.000000
# 4 0.000000 0.000000 0.000000 0.051383 0.000000 0.000000
# 5 0.000000 0.000000 0.000000 0.000000 0.032933 0.000000
# 6 0.000000 0.000000 0.000000 0.000000 0.000000 0.036866
#
#
# Mechanical properties :
#
#
# Convention : Reuss Voigt Hill
#
# Bulk Modulus (GPa) = 53.70349 56.77397 55.23873
# Shear Modulus (GPa) = 24.61131 25.47282 25.04207
#
# Velocity S-wave (km/s) = 3.63286 3.69590 3.66452
# Velocity P-wave (km/s) = 6.81140 6.97550 6.89394
#
# Compressibility (1/GPa) = 0.01862076
#
# Stress axis : x y z
#
# Youngs Moduli (GPa) = 64.26562 55.18849 73.99261
#
# Poissons Ratio (x) = 0.26065 0.44440
# Poissons Ratio (y) = 0.30352 0.26328
# Poissons Ratio (z) = 0.38598 0.19637
#
# Static dielectric constant tensor:
#      x y z
#    x 3.483790 0.000000 0.000000 
#    y 0.000000 3.318010 0.000000 
#    z 0.000000 0.000000 3.397780 
# 
# 
# High freq. dielectric constant tensor:
#      x y z
#    x 1.729350 0.000000 0.000000 
#    y 0.000000 1.708850 0.000000 
#    z 0.000000 0.000000 1.724550 
# 
# From -- ./inp_files/26048.got.cif
#   From: 2010.03.12/outbox.cif.g09.slc.cpg/sg72_14_cif.got.tgz:26048.got - 2010.04.16 14:54:00.
