data_PCOD8293300
_publ_section_title
;
Structure prediction by ZEFSAII (Michael W. Deem and Ramdas Pophale) SiO2 
 PCOD8293300
Probable space group: I B A M
;
_chemical_formula_sum "Si O2"
_cell_formula_units_Z 80
_cell_length_a 27.303334
_cell_length_b 18.105275
_cell_length_c 9.030634
_cell_angle_alpha 90.000000
_cell_angle_beta 90.000000
_cell_angle_gamma 90.000000
_cell_volume 4464.152773
_symmetry_space_group_name_H-M "I B A M"
_symmetry_group_IT_number 72
_symmetry_cell_setting 'orthorhombic'
loop_
_space_group_symop_operation_xyz
x,y,z
-x,-y,z
x,-y,1/2-z
-x,y,1/2-z
-x,-y,-z
x,y,-z
-x,y,1/2+z
x,-y,1/2+z
1/2+x,1/2+y,1/2+z
1/2-x,1/2-y,1/2+z
1/2+x,1/2-y,-z
1/2-x,1/2+y,-z
1/2-x,1/2-y,1/2-z
1/2+x,1/2+y,1/2-z
1/2-x,1/2+y,z
1/2+x,1/2-y,z
loop_
_atom_site_type_symbol
_atom_site_label
_atom_site_fract_x
_atom_site_fract_y
_atom_site_fract_z
Si Si1 0.191279 0.643429 0.327927
Si Si2 0.451889 0.218261 0.174992
Si Si3 0.087884 0.576306 0.325726
Si Si4 0.150993 0.218720 0.328021
Si Si5 0.207834 0.924311 0.826056
O O1 0.197475 0.659697 0.500000
O O2 0.144983 0.591615 0.293767
O O3 0.185657 0.722795 0.252715
O O4 0.239319 0.602438 0.265529
O O5 0.500000 0.254428 0.250000
O O6 0.444734 0.138479 0.248642
O O7 0.405956 0.270739 0.214606
O O8 0.459004 0.209609 0.000000
O O9 0.072947 0.500000 0.250000
O O10 0.076446 0.574159 0.500000
O O11 0.159437 0.233240 0.500000
O O12 0.167021 0.136400 0.283099
O O13 0.191946 0.000000 0.750000
O O14 0.210142 0.938075 0.000000
#
# Coordination Sequence:
#
# PCOD8293300 Si02
#       5
#    16  16  16  16  16
#     4   9  18  31  49  73 102 134 168 198 230 277
#     4  10  20  35  53  72  93 122 160 205 251 294
#     4  10  19  31  47  71 102 134 165 198 234 279
#     4   9  19  34  52  73  99 128 162 202 243 286
#     4  10  20  33  49  74 104 133 163 198 238 284
#
# _framework density 17.920532999999999
#
# number of rings (size 3 to 8) (size 9 to 14) (size 15 to 20)
#    0.000    2.400    0.000    2.400    0.000    3.600 
#    0.000    2.000    0.000    0.600    0.000    4.200 
#    0.000    0.000    0.000    0.000    0.000    0.000 
#
# Total GULP energy -496080.492495 kJ/mol
# GULP energy per Si atom -12402.012312 kJ/mol
# Density = 1.787975 g / cm^3
# Si number density = 17.920533 Si / 1000 Ang^3
#
#
#
# Elastic Constant Matrix: (Units=GPa)
#
#
# Indices 1 2 3 4 5 6 
#
# 1 95.9295 45.5186 33.1148 0.0000 0.0000 0.0000
# 2 45.5186 110.9864 40.5093 0.0000 0.0000 0.0000
# 3 33.1148 40.5093 60.6019 0.0000 0.0000 0.0000
# 4 0.0000 0.0000 0.0000 29.6630 0.0000 0.0000
# 5 0.0000 0.0000 0.0000 0.0000 25.0424 0.0000
# 6 0.0000 0.0000 0.0000 0.0000 0.0000 14.9401
#
#
#
# Elastic Compliance Matrix: (Units=1/GPa)
#
#
# Indices 1 2 3 4 5 6 
#
# 1 0.014022 -0.003907 -0.005050 0.000000 0.000000 0.000000
# 2 -0.003907 0.013007 -0.006559 0.000000 0.000000 0.000000
# 3 -0.005050 -0.006559 0.023645 0.000000 0.000000 0.000000
# 4 0.000000 0.000000 0.000000 0.033712 0.000000 0.000000
# 5 0.000000 0.000000 0.000000 0.000000 0.039932 0.000000
# 6 0.000000 0.000000 0.000000 0.000000 0.000000 0.066934
#
#
# Mechanical properties :
#
#
# Convention : Reuss Voigt Hill
#
# Bulk Modulus (GPa) = 50.91577 56.20036 53.55806
# Shear Modulus (GPa) = 21.85012 23.82076 22.83544
#
# Velocity S-wave (km/s) = 3.49560 3.64984 3.57355
# Velocity P-wave (km/s) = 6.69074 7.01361 6.85407
#
# Compressibility (1/GPa) = 0.01964028
#
# Stress axis : x y z
#
# Youngs Moduli (GPa) = 71.31830 76.88325 42.29213
#
# Poissons Ratio (x) = 0.30042 0.21357
# Poissons Ratio (y) = 0.27867 0.27740
# Poissons Ratio (z) = 0.36015 0.50429
#
# Static dielectric constant tensor:
#      x y z
#    x 3.503950 0.000000 0.000000 
#    y 0.000000 3.186840 0.000000 
#    z 0.000000 0.000000 3.288920 
# 
# 
# High freq. dielectric constant tensor:
#      x y z
#    x 1.694840 0.000000 0.000000 
#    y 0.000000 1.675960 0.000000 
#    z 0.000000 0.000000 1.696070 
# 
# From -- ./inp_files/4745.got.cif
#   From: 2010.03.12/outbox.cif.g09.slc.cpg/sg72_3_cif.got.tgz:4745.got - 2010.04.16 14:54:00.
