data_PCOD8293520
_publ_section_title
;
Structure prediction by ZEFSAII (Michael W. Deem and Ramdas Pophale) SiO2 
 PCOD8293520
Probable space group: I B A M
;
_chemical_formula_sum "Si O2"
_cell_formula_units_Z 112
_cell_length_a 11.135374
_cell_length_b 30.349459
_cell_length_c 17.055103
_cell_angle_alpha 90.000000
_cell_angle_beta 90.000000
_cell_angle_gamma 90.000000
_cell_volume 5763.816004
_symmetry_space_group_name_H-M "I B A M"
_symmetry_group_IT_number 72
_symmetry_cell_setting 'orthorhombic'
loop_
_space_group_symop_operation_xyz
x,y,z
-x,-y,z
x,-y,1/2-z
-x,y,1/2-z
-x,-y,-z
x,y,-z
-x,y,1/2+z
x,-y,1/2+z
1/2+x,1/2+y,1/2+z
1/2-x,1/2-y,1/2+z
1/2+x,1/2-y,-z
1/2-x,1/2+y,-z
1/2-x,1/2-y,1/2-z
1/2+x,1/2+y,1/2-z
1/2-x,1/2+y,z
1/2+x,1/2-y,z
loop_
_atom_site_type_symbol
_atom_site_label
_atom_site_fract_x
_atom_site_fract_y
_atom_site_fract_z
Si Si1 0.865051 0.900798 0.914000
Si Si2 0.787870 0.671388 0.346143
Si Si3 0.422466 0.735055 0.829132
Si Si4 0.281351 0.873169 0.813779
Si Si5 0.140973 0.949245 0.259530
Si Si6 0.925880 0.163067 0.911058
Si Si7 0.453648 0.822938 0.907892
O O1 0.779482 0.858464 0.909570
O O2 0.828995 0.936532 0.849097
O O3 0.998976 0.882184 0.901720
O O4 0.851242 0.922697 0.000000
O O5 0.706236 0.711795 0.315611
O O6 0.822296 0.642867 0.270851
O O7 0.908005 0.686621 0.388571
O O8 0.500000 0.741220 0.750000
O O9 0.497899 0.706015 0.890182
O O10 0.386810 0.781529 0.868042
O O11 0.223375 0.922018 0.802604
O O12 0.183113 0.840684 0.851022
O O13 0.398909 0.868524 0.870308
O O14 0.000000 0.939346 0.250000
O O15 0.173763 0.000000 0.250000
O O16 0.878612 0.167953 0.000000
O O17 0.431727 0.824700 0.000000
#
# Coordination Sequence:
#
# PCOD8293520 Si02
#       7
#    16  16  16  16  16  16  16
#     4   9  18  34  59  85 117 157 195 239 301 364
#     4  10  22  39  61  82 115 156 212 253 301 364
#     4  11  22  38  60  85 116 161 214 262 305 355
#     4  11  21  39  62  84 117 160 200 248 305 376
#     4  10  20  37  63  95 125 155 195 254 315 384
#     4  10  19  33  55  85 118 157 200 245 297 351
#     4  12  27  40  54  84 124 166 211 260 307 354
#
# _framework density 19.431573
#
# number of rings (size 3 to 8) (size 9 to 14) (size 15 to 20)
#    0.000    1.571    2.857    2.571    2.000    2.857 
#    0.000    2.857    0.000    6.857    0.000    5.000 
#    0.000    0.000    0.000    0.000    0.000    0.000 
#
# Total GULP energy -694103.806851 kJ/mol
# GULP energy per Si atom -12394.710837 kJ/mol
# Density = 1.938735 g / cm^3
# Si number density = 19.431573 Si / 1000 Ang^3
#
#
#
# Elastic Constant Matrix: (Units=GPa)
#
#
# Indices 1 2 3 4 5 6 
#
# 1 84.1606 31.7428 30.3862 0.0001 0.0000 0.0000
# 2 31.7428 100.6304 48.9834 0.0001 -0.0001 0.0000
# 3 30.3862 48.9834 122.1869 0.0007 -0.0002 0.0000
# 4 0.0001 0.0001 0.0007 23.1762 -0.0001 0.0000
# 5 0.0000 -0.0001 -0.0002 -0.0001 25.8546 0.0000
# 6 0.0000 0.0000 0.0000 0.0000 0.0000 20.8687
#
#
#
# Elastic Compliance Matrix: (Units=1/GPa)
#
#
# Indices 1 2 3 4 5 6 
#
# 1 0.013912 -0.003360 -0.002113 0.000000 0.000000 0.000000
# 2 -0.003360 0.013158 -0.004439 0.000000 0.000000 0.000000
# 3 -0.002113 -0.004439 0.010489 0.000000 0.000000 0.000000
# 4 0.000000 0.000000 0.000000 0.043148 0.000000 0.000000
# 5 0.000000 0.000000 0.000000 0.000000 0.038678 0.000000
# 6 0.000000 0.000000 0.000000 0.000000 0.000000 0.047919
#
#
# Mechanical properties :
#
#
# Convention : Reuss Voigt Hill
#
# Bulk Modulus (GPa) = 56.38472 58.80028 57.59250
# Shear Modulus (GPa) = 25.90137 27.03759 26.46948
#
# Velocity S-wave (km/s) = 3.65492 3.73423 3.69479
# Velocity P-wave (km/s) = 6.84773 6.99418 6.92134
#
# Compressibility (1/GPa) = 0.01773530
#
# Stress axis : x y z
#
# Youngs Moduli (GPa) = 71.87961 75.99841 95.33527
#
# Poissons Ratio (x) = 0.25536 0.20142
# Poissons Ratio (y) = 0.24152 0.42323
# Poissons Ratio (z) = 0.15186 0.33739
#
# Static dielectric constant tensor:
#      x y z
#    x 3.539230 0.000000 0.000000 
#    y 0.000000 3.271030 0.000000 
#    z 0.000000 0.000000 3.642850 
# 
# 
# High freq. dielectric constant tensor:
#      x y z
#    x 1.751500 0.000000 0.000000 
#    y 0.000000 1.721480 0.000000 
#    z 0.000000 0.000000 1.768920 
# 
# From -- ./inp_files/20657.got.cif
#   From: 2010.03.12/outbox.cif.g09.slc.cpg/sg72_11_cif.got.tgz:20657.got - 2010.04.16 14:54:00.
