data_PCOD8293188
_publ_section_title
;
Structure prediction by ZEFSAII (Michael W. Deem and Ramdas Pophale) SiO2 
 PCOD8293188
Probable space group: I B A M
;
_chemical_formula_sum "Si O2"
_cell_formula_units_Z 104
_cell_length_a 14.845130
_cell_length_b 18.600737
_cell_length_c 21.246615
_cell_angle_alpha 90.000000
_cell_angle_beta 90.000000
_cell_angle_gamma 90.000000
_cell_volume 5866.835425
_symmetry_space_group_name_H-M "I B A M"
_symmetry_group_IT_number 72
_symmetry_cell_setting 'orthorhombic'
loop_
_space_group_symop_operation_xyz
x,y,z
-x,-y,z
x,-y,1/2-z
-x,y,1/2-z
-x,-y,-z
x,y,-z
-x,y,1/2+z
x,-y,1/2+z
1/2+x,1/2+y,1/2+z
1/2-x,1/2-y,1/2+z
1/2+x,1/2-y,-z
1/2-x,1/2+y,-z
1/2-x,1/2-y,1/2-z
1/2+x,1/2+y,1/2-z
1/2-x,1/2+y,z
1/2+x,1/2-y,z
loop_
_atom_site_type_symbol
_atom_site_label
_atom_site_fract_x
_atom_site_fract_y
_atom_site_fract_z
Si Si1 0.351214 0.440974 0.199734
Si Si2 0.601565 0.670611 0.570380
Si Si3 0.435388 0.698982 0.343374
Si Si4 0.105616 0.007069 0.930015
Si Si5 0.809133 0.643291 0.242599
Si Si6 0.251947 0.235957 0.849066
Si Si7 0.000000 0.318588 0.750000
O O1 0.389307 0.500000 0.250000
O O2 0.412148 0.368403 0.203517
O O3 0.346194 0.466109 0.127178
O O4 0.247960 0.424350 0.218540
O O5 0.582563 0.696501 0.500000
O O6 0.506110 0.674229 0.605066
O O7 0.636531 0.589301 0.573244
O O8 0.680812 0.720773 0.596278
O O9 0.341649 0.724672 0.375942
O O10 0.477555 0.766046 0.307487
O O11 0.130801 0.975898 0.000000
O O12 0.000000 0.000000 0.918895
O O13 0.797284 0.713974 0.200888
O O14 0.778306 0.661703 0.313872
O O15 0.916050 0.627750 0.238318
#
# Coordination Sequence:
#
# PCOD8293188 Si02
#       7
#    16  16  16  16  16  16   8
#     4  11  22  33  52  82 111 139 184 222 253 322
#     4  11  21  35  53  75 108 144 184 217 259 327
#     4  10  21  32  53  81 108 139 171 223 273 318
#     4  10  21  35  48  70 110 149 175 211 268 320
#     4   9  18  33  53  78 106 135 173 225 270 319
#     4   9  18  34  50  76 107 138 170 217 278 318
#     4  10  18  34  58  74 110 134 168 222 288 318
#
# _framework density 17.726762999999998
#
# number of rings (size 3 to 8) (size 9 to 14) (size 15 to 20)
#    0.000    2.000    3.077    1.846    2.154    0.923 
#    0.000    2.692    0.000    0.000    0.000    0.000 
#    0.000    6.769    0.000    0.000    0.000    0.000 
#
# Total GULP energy -644468.871867 kJ/mol
# GULP energy per Si atom -12393.632151 kJ/mol
# Density = 1.768642 g / cm^3
# Si number density = 17.726763 Si / 1000 Ang^3
#
#
#
# Elastic Constant Matrix: (Units=GPa)
#
#
# Indices 1 2 3 4 5 6 
#
# 1 113.3609 25.3509 41.3191 0.0000 0.0000 0.0000
# 2 25.3509 50.6875 28.4640 0.0000 0.0000 0.0000
# 3 41.3191 28.4640 91.2965 0.0000 0.0000 0.0000
# 4 0.0000 0.0000 0.0000 24.6414 0.0000 0.0000
# 5 0.0000 0.0000 0.0000 0.0000 14.1087 0.0000
# 6 0.0000 0.0000 0.0000 0.0000 0.0000 21.3921
#
#
#
# Elastic Compliance Matrix: (Units=1/GPa)
#
#
# Indices 1 2 3 4 5 6 
#
# 1 0.010996 -0.003279 -0.003954 0.000000 0.000000 0.000000
# 2 -0.003279 0.024894 -0.006277 0.000000 0.000000 0.000000
# 3 -0.003954 -0.006277 0.014700 0.000000 0.000000 0.000000
# 4 0.000000 0.000000 0.000000 0.040582 0.000000 0.000000
# 5 0.000000 0.000000 0.000000 0.000000 0.070878 0.000000
# 6 0.000000 0.000000 0.000000 0.000000 0.000000 0.046746
#
#
# Mechanical properties :
#
#
# Convention : Reuss Voigt Hill
#
# Bulk Modulus (GPa) = 42.42910 49.51255 45.97083
# Shear Modulus (GPa) = 20.51924 22.70915 21.61420
#
# Velocity S-wave (km/s) = 3.40594 3.58308 3.49563
# Velocity P-wave (km/s) = 6.28126 6.71636 6.50245
#
# Compressibility (1/GPa) = 0.02356873
#
# Stress axis : x y z
#
# Youngs Moduli (GPa) = 90.94250 40.17079 68.02707
#
# Poissons Ratio (x) = 0.13172 0.26900
# Poissons Ratio (y) = 0.29820 0.42702
# Poissons Ratio (z) = 0.35961 0.25216
#
# Static dielectric constant tensor:
#      x y z
#    x 3.395920 0.000000 0.000000 
#    y 0.000000 3.157650 0.000000 
#    z 0.000000 0.000000 3.232880 
# 
# 
# High freq. dielectric constant tensor:
#      x y z
#    x 1.683250 0.000000 0.000000 
#    y 0.000000 1.666760 0.000000 
#    z 0.000000 0.000000 1.672580 
# 
# From -- ./inp_files/38403.got.cif
#   From: 2010.03.12/outbox.cif.g09.slc.cpg/sg72_20_cif.got.tgz:38403.got - 2010.04.16 14:54:00.
