data_PCOD8293739
_publ_section_title
;
Structure prediction by ZEFSAII (Michael W. Deem and Ramdas Pophale) SiO2 
 PCOD8293739
Probable space group: I B A M
;
_chemical_formula_sum "Si O2"
_cell_formula_units_Z 128
_cell_length_a 12.169773
_cell_length_b 23.900033
_cell_length_c 23.131557
_cell_angle_alpha 90.000000
_cell_angle_beta 90.000000
_cell_angle_gamma 90.000000
_cell_volume 6727.997858
_symmetry_space_group_name_H-M "I B A M"
_symmetry_group_IT_number 72
_symmetry_cell_setting 'orthorhombic'
loop_
_space_group_symop_operation_xyz
x,y,z
-x,-y,z
x,-y,1/2-z
-x,y,1/2-z
-x,-y,-z
x,y,-z
-x,y,1/2+z
x,-y,1/2+z
1/2+x,1/2+y,1/2+z
1/2-x,1/2-y,1/2+z
1/2+x,1/2-y,-z
1/2-x,1/2+y,-z
1/2-x,1/2-y,1/2-z
1/2+x,1/2+y,1/2-z
1/2-x,1/2+y,z
1/2+x,1/2-y,z
loop_
_atom_site_type_symbol
_atom_site_label
_atom_site_fract_x
_atom_site_fract_y
_atom_site_fract_z
Si Si1 0.422741 0.839900 0.802962
Si Si2 0.105128 0.962788 0.566890
Si Si3 0.644223 0.352069 0.867922
Si Si4 0.659037 0.001080 0.563958
Si Si5 0.968864 0.231372 0.852486
Si Si6 0.501655 0.089728 0.095566
Si Si7 0.302324 0.310289 0.240449
Si Si8 0.854913 0.687804 0.564853
O O1 0.500000 0.851399 0.750000
O O2 0.450414 0.778259 0.826690
O O3 0.452219 0.890715 0.843895
O O4 0.293881 0.846541 0.788964
O O5 0.103676 0.940798 0.500000
O O6 0.105189 0.913800 0.614468
O O7 0.212067 0.001566 0.578529
O O8 0.000000 0.000000 0.580096
O O9 0.546402 0.311011 0.887584
O O10 0.662944 0.342308 0.799220
O O11 0.753370 0.341381 0.904208
O O12 0.642330 0.026773 0.500000
O O13 0.595246 0.044191 0.605943
O O14 0.605491 0.939271 0.564094
O O15 0.906308 0.197546 0.801730
O O16 0.883698 0.257355 0.898017
O O17 0.455776 0.143902 0.061607
O O18 0.250000 0.250000 0.250000
O O19 0.824098 0.706457 0.500000
#
# Coordination Sequence:
#
# PCOD8293739 Si02
#       8
#    16  16  16  16  16  16  16  16
#     4  11  20  34  55  85 119 151 189 243 299 361
#     4  10  23  42  64  88 120 165 214 257 309 377
#     4  12  22  37  64  87 120 162 209 254 304 368
#     4  10  19  37  62  85 112 152 199 249 301 365
#     4  11  22  37  58  89 120 163 204 242 300 376
#     4  10  20  33  58  87 117 148 197 249 306 359
#     4  12  20  37  61  85 116 159 207 246 294 370
#     4  11  21  35  57  91 126 157 196 250 312 374
#
# _framework density 19.024977
#
# number of rings (size 3 to 8) (size 9 to 14) (size 15 to 20)
#    0.000    1.125    5.000    3.000    0.000    2.000 
#    0.000    1.250    0.000    9.000    0.000    0.000 
#    0.000    0.000    0.000    0.000    0.000    0.000 
#
# Total GULP energy -793327.130669 kJ/mol
# GULP energy per Si atom -12395.736417 kJ/mol
# Density = 1.898167 g / cm^3
# Si number density = 19.024977 Si / 1000 Ang^3
#
#
#
# Elastic Constant Matrix: (Units=GPa)
#
#
# Indices 1 2 3 4 5 6 
#
# 1 123.4949 64.8701 40.6664 0.0000 0.0000 0.0000
# 2 64.8701 86.0382 61.7139 0.0000 0.0000 0.0000
# 3 40.6664 61.7139 101.4916 0.0000 0.0000 0.0000
# 4 0.0000 0.0000 0.0000 32.0664 0.0000 0.0000
# 5 0.0000 0.0000 0.0000 0.0000 26.6131 0.0000
# 6 0.0000 0.0000 0.0000 0.0000 0.0000 31.3523
#
#
#
# Elastic Compliance Matrix: (Units=1/GPa)
#
#
# Indices 1 2 3 4 5 6 
#
# 1 0.013516 -0.011184 0.001385 0.000000 0.000000 0.000000
# 2 -0.011184 0.029868 -0.013680 0.000000 0.000000 0.000000
# 3 0.001385 -0.013680 0.017617 0.000000 0.000000 0.000000
# 4 0.000000 0.000000 0.000000 0.031185 0.000000 0.000000
# 5 0.000000 0.000000 0.000000 0.000000 0.037575 0.000000
# 6 0.000000 0.000000 0.000000 0.000000 0.000000 0.031896
#
#
# Mechanical properties :
#
#
# Convention : Reuss Voigt Hill
#
# Bulk Modulus (GPa) = 71.21664 71.72506 71.47085
# Shear Modulus (GPa) = 23.44137 27.59132 25.51635
#
# Velocity S-wave (km/s) = 3.51399 3.81237 3.66622
# Velocity P-wave (km/s) = 7.34702 7.56050 7.45452
#
# Compressibility (1/GPa) = 0.01404166
#
# Stress axis : x y z
#
# Youngs Moduli (GPa) = 73.98397 33.48034 56.76419
#
# Poissons Ratio (x) = 0.37446 -0.07862
# Poissons Ratio (y) = 0.82747 0.77656
# Poissons Ratio (z) = -0.10247 0.45803
#
# Static dielectric constant tensor:
#      x y z
#    x 3.969300 0.000000 0.000000 
#    y 0.000000 3.398630 0.000000 
#    z 0.000000 0.000000 3.572850 
# 
# 
# High freq. dielectric constant tensor:
#      x y z
#    x 1.755620 0.000000 0.000000 
#    y 0.000000 1.718460 0.000000 
#    z 0.000000 0.000000 1.730630 
# 
# From -- ./inp_files/43706.got.cif
#   From: 2010.03.12/outbox.cif.g09.slc.cpg/sg72_22_cif.got.tgz:43706.got - 2010.04.16 14:54:00.
