data_PCOD8293912
_publ_section_title
;
Structure prediction by ZEFSAII (Michael W. Deem and Ramdas Pophale) SiO2 
 PCOD8293912
Probable space group: I B A M
;
_chemical_formula_sum "Si O2"
_cell_formula_units_Z 96
_cell_length_a 18.554078
_cell_length_b 32.310440
_cell_length_c 8.640544
_cell_angle_alpha 90.000000
_cell_angle_beta 90.000000
_cell_angle_gamma 90.000000
_cell_volume 5179.923386
_symmetry_space_group_name_H-M "I B A M"
_symmetry_group_IT_number 72
_symmetry_cell_setting 'orthorhombic'
loop_
_space_group_symop_operation_xyz
x,y,z
-x,-y,z
x,-y,1/2-z
-x,y,1/2-z
-x,-y,-z
x,y,-z
-x,y,1/2+z
x,-y,1/2+z
1/2+x,1/2+y,1/2+z
1/2-x,1/2-y,1/2+z
1/2+x,1/2-y,-z
1/2-x,1/2+y,-z
1/2-x,1/2-y,1/2-z
1/2+x,1/2+y,1/2-z
1/2-x,1/2+y,z
1/2+x,1/2-y,z
loop_
_atom_site_type_symbol
_atom_site_label
_atom_site_fract_x
_atom_site_fract_y
_atom_site_fract_z
Si Si1 0.077725 0.830514 0.817178
Si Si2 0.576606 0.243262 0.181077
Si Si3 0.215012 0.543879 0.316752
Si Si4 0.294265 0.379384 0.318942
Si Si5 0.151455 0.668625 0.177681
Si Si6 0.077530 0.416038 0.317882
O O1 0.103782 0.785887 0.756046
O O2 0.132922 0.865439 0.763343
O O3 0.000000 0.842042 0.750000
O O4 0.073128 0.829191 0.000000
O O5 0.500000 0.229334 0.250000
O O6 0.634661 0.207648 0.214346
O O7 0.568280 0.250368 0.000000
O O8 0.239656 0.500000 0.250000
O O9 0.217778 0.543564 0.500000
O O10 0.271271 0.577135 0.252528
O O11 0.134117 0.553444 0.261594
O O12 0.307492 0.385408 0.500000
O O13 0.232938 0.345105 0.288257
O O14 0.097458 0.631346 0.220380
O O15 0.141239 0.681807 0.000000
O O16 0.079811 0.424278 0.500000
O O17 0.000000 0.426649 0.250000
#
# Coordination Sequence:
#
# PCOD8293912 Si02
#       6
#    16  16  16  16  16  16
#     4  11  22  38  59  82 109 141 178 220 269 323
#     4  11  21  33  51  75 107 146 188 230 270 314
#     4  11  22  38  59  83 110 142 179 220 269 323
#     4  10  21  39  60  83 110 140 177 221 269 322
#     4   9  19  34  52  75 107 145 185 227 269 314
#     4  10  20  34  52  77 109 147 189 232 274 318
#
# _framework density 18.533092
#
# number of rings (size 3 to 8) (size 9 to 14) (size 15 to 20)
#    0.000    1.667    0.000    8.000    0.000    6.333 
#    0.000    1.667    0.000    0.500    0.000    3.500 
#    0.000    0.000    0.000    0.000    0.000    0.000 
#
# Total GULP energy -595448.657426 kJ/mol
# GULP energy per Si atom -12405.180363 kJ/mol
# Density = 1.849091 g / cm^3
# Si number density = 18.533092 Si / 1000 Ang^3
#
#
#
# Elastic Constant Matrix: (Units=GPa)
#
#
# Indices 1 2 3 4 5 6 
#
# 1 89.0943 68.3220 55.3846 -0.0007 0.0010 0.0028
# 2 68.3220 115.9879 62.5877 0.0015 -0.0017 0.0014
# 3 55.3846 62.5877 164.4406 0.0250 0.0005 0.0040
# 4 -0.0007 0.0015 0.0250 32.1522 0.0006 -0.0003
# 5 0.0010 -0.0017 0.0005 0.0006 31.8559 0.0008
# 6 0.0028 0.0014 0.0040 -0.0003 0.0008 16.5138
#
#
#
# Elastic Compliance Matrix: (Units=1/GPa)
#
#
# Indices 1 2 3 4 5 6 
#
# 1 0.021633 -0.011089 -0.003066 0.000003 -0.000001 -0.000002
# 2 -0.011089 0.016534 -0.002558 0.000001 0.000001 0.000001
# 3 -0.003066 -0.002558 0.008087 -0.000006 0.000000 -0.000001
# 4 0.000003 0.000001 -0.000006 0.031102 -0.000001 0.000001
# 5 -0.000001 0.000001 0.000000 -0.000001 0.031391 -0.000001
# 6 -0.000002 0.000001 -0.000001 0.000001 -0.000001 0.060556
#
#
# Mechanical properties :
#
#
# Convention : Reuss Voigt Hill
#
# Bulk Modulus (GPa) = 77.94688 82.45680 80.20184
# Shear Modulus (GPa) = 24.15404 28.31960 26.23682
#
# Velocity S-wave (km/s) = 3.61403 3.91328 3.76663
# Velocity P-wave (km/s) = 7.71780 8.06266 7.89212
#
# Compressibility (1/GPa) = 0.01282925
#
# Stress axis : x y z
#
# Youngs Moduli (GPa) = 46.22536 60.48270 123.64832
#
# Poissons Ratio (x) = 0.67067 0.37907
# Poissons Ratio (y) = 0.51257 0.31631
# Poissons Ratio (z) = 0.14172 0.15473
#
# Static dielectric constant tensor:
#      x y z
#    x 3.299230 0.000000 0.000000 
#    y 0.000000 3.324230 -0.000040 
#    z 0.000000 -0.000040 3.500340 
# 
# 
# High freq. dielectric constant tensor:
#      x y z
#    x 1.708080 0.000000 0.000000 
#    y 0.000000 1.712610 0.000000 
#    z 0.000000 0.000000 1.737400 
# 
# From -- ./inp_files/5986.got.cif
#   From: 2010.03.12/outbox.cif.g09.slc.cpg/sg72_3_cif.got.tgz:5986.got - 2010.04.16 14:54:00.
