data_PCOD8293853
_publ_section_title
;
Structure prediction by ZEFSAII (Michael W. Deem and Ramdas Pophale) SiO2 
 PCOD8293853
Probable space group: I B A M
;
_chemical_formula_sum "Si O2"
_cell_formula_units_Z 88
_cell_length_a 16.415777
_cell_length_b 28.461526
_cell_length_c 9.144117
_cell_angle_alpha 90.000000
_cell_angle_beta 90.000000
_cell_angle_gamma 90.000000
_cell_volume 4272.296641
_symmetry_space_group_name_H-M "I B A M"
_symmetry_group_IT_number 72
_symmetry_cell_setting 'orthorhombic'
loop_
_space_group_symop_operation_xyz
x,y,z
-x,-y,z
x,-y,1/2-z
-x,y,1/2-z
-x,-y,-z
x,y,-z
-x,y,1/2+z
x,-y,1/2+z
1/2+x,1/2+y,1/2+z
1/2-x,1/2-y,1/2+z
1/2+x,1/2-y,-z
1/2-x,1/2+y,-z
1/2-x,1/2-y,1/2-z
1/2+x,1/2+y,1/2-z
1/2-x,1/2+y,z
1/2+x,1/2-y,z
loop_
_atom_site_type_symbol
_atom_site_label
_atom_site_fract_x
_atom_site_fract_y
_atom_site_fract_z
Si Si1 0.258282 0.607092 0.325472
Si Si2 0.000000 0.621809 0.750000
Si Si3 0.385544 0.956222 0.841252
Si Si4 0.349058 0.181114 0.833095
Si Si5 0.084515 0.872467 0.669488
Si Si6 0.416223 0.735919 0.831080
O O1 0.265196 0.613802 0.500000
O O2 0.201326 0.562839 0.282867
O O3 0.219484 0.653069 0.253643
O O4 0.346289 0.597756 0.253094
O O5 0.051075 0.587009 0.645638
O O6 0.063339 0.654745 0.836151
O O7 0.418877 0.000000 0.750000
O O8 0.373034 0.977694 0.000000
O O9 0.351500 0.231207 0.751141
O O10 0.320542 0.188594 0.000000
O O11 0.077690 0.887675 0.500000
O O12 0.109914 0.818035 0.683237
O O13 0.000000 0.882991 0.750000
O O14 0.500000 0.744828 0.750000
O O15 0.425038 0.751179 0.000000
#
# Coordination Sequence:
#
# PCOD8293853 Si02
#       6
#    16   8  16  16  16  16
#     4  10  22  39  57  80 111 144 184 233 283 336
#     4  10  21  34  54  82 116 154 200 232 269 326
#     4  10  22  38  57  83 114 148 186 231 281 333
#     4  11  21  33  53  78 111 153 195 235 277 324
#     4  10  21  38  60  84 109 142 184 229 284 342
#     4  10  20  33  51  77 110 147 189 234 276 326
#
# _framework density 20.597821
#
# number of rings (size 3 to 8) (size 9 to 14) (size 15 to 20)
#    0.000    1.818    0.909    3.000    0.000    9.455 
#    0.000    0.000    0.000    0.545    0.000    3.818 
#    0.000    0.000    0.000    0.000    0.000    0.000 
#
# Total GULP energy -545465.771107 kJ/mol
# GULP energy per Si atom -12396.949343 kJ/mol
# Density = 2.055094 g / cm^3
# Si number density = 20.597821 Si / 1000 Ang^3
#
#
#
# Elastic Constant Matrix: (Units=GPa)
#
#
# Indices 1 2 3 4 5 6 
#
# 1 105.9651 13.9175 37.0213 0.0001 -0.0003 0.0001
# 2 13.9175 33.7442 14.5622 0.0022 0.0004 0.0004
# 3 37.0213 14.5622 128.7377 0.0084 0.0039 0.0097
# 4 0.0001 0.0022 0.0084 21.2014 0.0006 0.0004
# 5 -0.0003 0.0004 0.0039 0.0006 30.2317 -0.0106
# 6 0.0001 0.0004 0.0097 0.0004 -0.0106 27.6104
#
#
#
# Elastic Compliance Matrix: (Units=1/GPa)
#
#
# Indices 1 2 3 4 5 6 
#
# 1 0.010826 -0.003282 -0.002742 0.000001 0.000000 0.000001
# 2 -0.003282 0.032150 -0.002693 -0.000002 0.000000 0.000000
# 3 -0.002742 -0.002693 0.008861 -0.000003 -0.000001 -0.000003
# 4 0.000001 -0.000002 -0.000003 0.047167 -0.000001 -0.000001
# 5 0.000000 0.000000 -0.000001 -0.000001 0.033078 0.000013
# 6 0.000001 0.000000 -0.000003 -0.000001 0.000013 0.036218
#
#
# Mechanical properties :
#
#
# Convention : Reuss Voigt Hill
#
# Bulk Modulus (GPa) = 29.06659 44.38321 36.72490
# Shear Modulus (GPa) = 25.35476 29.33845 27.34661
#
# Velocity S-wave (km/s) = 3.51229 3.77815 3.64764
# Velocity P-wave (km/s) = 5.53085 6.37392 5.96729
#
# Compressibility (1/GPa) = 0.03440376
#
# Stress axis : x y z
#
# Youngs Moduli (GPa) = 92.36939 31.10386 112.85559
#
# Poissons Ratio (x) = 0.10208 0.30946
# Poissons Ratio (y) = 0.30314 0.30391
# Poissons Ratio (z) = 0.25328 0.08376
#
# Static dielectric constant tensor:
#      x y z
#    x 4.004960 0.000010 0.000030 
#    y 0.000010 3.518740 -0.000020 
#    z 0.000030 -0.000020 3.714340 
# 
# 
# High freq. dielectric constant tensor:
#      x y z
#    x 1.804870 0.000000 0.000000 
#    y 0.000000 1.778730 0.000000 
#    z 0.000000 0.000000 1.813410 
# 
# From -- ./inp_files/5113.got.cif
#   From: 2010.03.12/outbox.cif.g09.slc.cpg/sg72_3_cif.got.tgz:5113.got - 2010.04.16 14:54:00.
