data_PCOD8293449
_publ_section_title
;
Structure prediction by ZEFSAII (Michael W. Deem and Ramdas Pophale) SiO2 
 PCOD8293449
Probable space group: I B A M
;
_chemical_formula_sum "Si O2"
_cell_formula_units_Z 80
_cell_length_a 15.601646
_cell_length_b 28.517434
_cell_length_c 9.092333
_cell_angle_alpha 90.000000
_cell_angle_beta 90.000000
_cell_angle_gamma 90.000000
_cell_volume 4045.350889
_symmetry_space_group_name_H-M "I B A M"
_symmetry_group_IT_number 72
_symmetry_cell_setting 'orthorhombic'
loop_
_space_group_symop_operation_xyz
x,y,z
-x,-y,z
x,-y,1/2-z
-x,y,1/2-z
-x,-y,-z
x,y,-z
-x,y,1/2+z
x,-y,1/2+z
1/2+x,1/2+y,1/2+z
1/2-x,1/2-y,1/2+z
1/2+x,1/2-y,-z
1/2-x,1/2+y,-z
1/2-x,1/2-y,1/2-z
1/2+x,1/2+y,1/2-z
1/2-x,1/2+y,z
1/2+x,1/2-y,z
loop_
_atom_site_type_symbol
_atom_site_label
_atom_site_fract_x
_atom_site_fract_y
_atom_site_fract_z
Si Si1 0.414632 0.103093 0.829909
Si Si2 0.830729 0.698186 0.332179
Si Si3 0.753996 0.950633 0.173425
Si Si4 0.844359 0.196920 0.169178
Si Si5 0.083927 0.111771 0.826689
O O1 0.500000 0.085433 0.750000
O O2 0.400819 0.158351 0.798989
O O3 0.332882 0.074155 0.770574
O O4 0.427966 0.092674 0.000000
O O5 0.795736 0.692428 0.500000
O O6 0.874023 0.749053 0.310504
O O7 0.753355 0.691392 0.220014
O O8 0.833745 0.918340 0.219970
O O9 0.765185 0.000000 0.250000
O O10 0.752305 0.958040 0.000000
O O11 0.905471 0.164722 0.267605
O O12 0.851018 0.181095 0.000000
O O13 0.000000 0.089388 0.750000
O O14 0.070129 0.112943 0.000000
#
# Coordination Sequence:
#
# PCOD8293449 Si02
#       5
#    16  16  16  16  16
#     4  10  21  39  60  86 119 156 194 238 291 344
#     4   9  18  35  56  82 122 161 198 241 288 341
#     4  10  23  43  65  85 115 152 190 243 303 353
#     4  10  19  32  57  89 118 158 202 240 286 344
#     4  11  23  41  62  87 121 157 194 243 295 352
#
# _framework density 19.775786
#
# number of rings (size 3 to 8) (size 9 to 14) (size 15 to 20)
#    0.000    2.000    2.000    1.200    0.000    5.600 
#    0.000    6.000    0.000    0.000    0.000    0.000 
#    0.000    0.000    0.000    0.000    0.000    0.000 
#
# Total GULP energy -496079.197208 kJ/mol
# GULP energy per Si atom -12401.979930 kJ/mol
# Density = 1.973078 g / cm^3
# Si number density = 19.775786 Si / 1000 Ang^3
#
#
#
# Elastic Constant Matrix: (Units=GPa)
#
#
# Indices 1 2 3 4 5 6 
#
# 1 138.5283 51.8971 51.6114 0.0006 0.0002 -0.0001
# 2 51.8971 107.1929 45.2702 0.0024 0.0003 0.0002
# 3 51.6114 45.2702 69.5196 0.0059 0.0003 0.0006
# 4 0.0006 0.0024 0.0059 31.3716 0.0000 0.0005
# 5 0.0002 0.0003 0.0003 0.0000 36.5904 -0.0007
# 6 -0.0001 0.0002 0.0006 0.0005 -0.0007 10.8851
#
#
#
# Elastic Compliance Matrix: (Units=1/GPa)
#
#
# Indices 1 2 3 4 5 6 
#
# 1 0.010427 -0.002454 -0.006143 0.000001 0.000000 0.000000
# 2 -0.002454 0.013445 -0.006934 0.000000 0.000000 0.000000
# 3 -0.006143 -0.006934 0.023460 -0.000004 0.000000 -0.000001
# 4 0.000001 0.000000 -0.000004 0.031876 0.000000 -0.000002
# 5 0.000000 0.000000 0.000000 0.000000 0.027330 0.000002
# 6 0.000000 0.000000 -0.000001 -0.000002 0.000002 0.091869
#
#
# Mechanical properties :
#
#
# Convention : Reuss Voigt Hill
#
# Bulk Modulus (GPa) = 61.45806 68.08867 64.77337
# Shear Modulus (GPa) = 21.28648 26.86688 24.07668
#
# Velocity S-wave (km/s) = 3.28440 3.68988 3.49303
# Velocity P-wave (km/s) = 6.74744 7.25663 7.00666
#
# Compressibility (1/GPa) = 0.01627126
#
# Stress axis : x y z
#
# Youngs Moduli (GPa) = 95.90815 74.37596 42.62563
#
# Poissons Ratio (x) = 0.18250 0.26185
# Poissons Ratio (y) = 0.23533 0.29555
# Poissons Ratio (z) = 0.58916 0.51570
#
# Static dielectric constant tensor:
#      x y z
#    x 3.522590 0.000000 0.000000 
#    y 0.000000 3.656350 -0.000010 
#    z 0.000000 -0.000010 3.539200 
# 
# 
# High freq. dielectric constant tensor:
#      x y z
#    x 1.764170 0.000000 0.000000 
#    y 0.000000 1.770880 0.000000 
#    z 0.000000 0.000000 1.769150 
# 
# From -- ./inp_files/4807.got.cif
#   From: 2010.03.12/outbox.cif.g09.slc.cpg/sg72_3_cif.got.tgz:4807.got - 2010.04.16 14:54:00.
