data_PCOD8293537
_publ_section_title
;
Structure prediction by ZEFSAII (Michael W. Deem and Ramdas Pophale) SiO2 
 PCOD8293537
Probable space group: I B A M
;
_chemical_formula_sum "Si O2"
_cell_formula_units_Z 112
_cell_length_a 31.674136
_cell_length_b 11.702022
_cell_length_c 15.457923
_cell_angle_alpha 90.000000
_cell_angle_beta 90.000000
_cell_angle_gamma 90.000000
_cell_volume 5729.501362
_symmetry_space_group_name_H-M "I B A M"
_symmetry_group_IT_number 72
_symmetry_cell_setting 'orthorhombic'
loop_
_space_group_symop_operation_xyz
x,y,z
-x,-y,z
x,-y,1/2-z
-x,y,1/2-z
-x,-y,-z
x,y,-z
-x,y,1/2+z
x,-y,1/2+z
1/2+x,1/2+y,1/2+z
1/2-x,1/2-y,1/2+z
1/2+x,1/2-y,-z
1/2-x,1/2+y,-z
1/2-x,1/2-y,1/2-z
1/2+x,1/2+y,1/2-z
1/2-x,1/2+y,z
1/2+x,1/2-y,z
loop_
_atom_site_type_symbol
_atom_site_label
_atom_site_fract_x
_atom_site_fract_y
_atom_site_fract_z
Si Si1 0.231758 0.098300 0.818726
Si Si2 0.446260 0.262535 0.600436
Si Si3 0.188816 0.274116 0.289879
Si Si4 0.044802 0.243390 0.400193
Si Si5 0.674878 0.440030 0.596980
Si Si6 0.583728 0.493937 0.398034
Si Si7 0.903715 0.634572 0.745638
O O1 0.209174 0.219122 0.796838
O O2 0.281945 0.120999 0.824997
O O3 0.220601 0.000000 0.750000
O O4 0.210110 0.041876 0.903131
O O5 0.431941 0.246441 0.500000
O O6 0.495393 0.235694 0.609797
O O7 0.437544 0.390175 0.636588
O O8 0.420896 0.177215 0.662139
O O9 0.190178 0.177581 0.362218
O O10 0.143013 0.319237 0.268996
O O11 0.059120 0.264747 0.500000
O O12 0.067987 0.330417 0.336337
O O13 0.055763 0.114628 0.370327
O O14 0.664513 0.406602 0.500000
O O15 0.631031 0.482482 0.641166
O O16 0.585120 0.504212 0.500000
O O17 0.902654 0.500000 0.750000
#
# Coordination Sequence:
#
# PCOD8293537 Si02
#       7
#    16  16  16  16  16  16  16
#     4   9  19  35  57  81 108 145 185 238 295 349
#     4  10  22  39  60  87 119 153 199 260 315 361
#     4  10  20  37  57  79 113 152 195 239 291 354
#     4  10  21  39  61  87 119 156 197 250 313 374
#     4  10  19  33  57  87 116 148 187 238 301 363
#     4   9  17  34  60  88 118 149 188 243 312 372
#     4  12  25  39  59  84 117 164 213 249 293 367
#
# _framework density 19.547948999999999
#
# number of rings (size 3 to 8) (size 9 to 14) (size 15 to 20)
#    0.000    2.000    1.429    2.143    0.000    4.571 
#    0.000    2.857    0.000   10.286    0.000    0.000 
#    0.000    0.000    0.000    0.000    0.000    0.000 
#
# Total GULP energy -694160.360566 kJ/mol
# GULP energy per Si atom -12395.720724 kJ/mol
# Density = 1.950346 g / cm^3
# Si number density = 19.547949 Si / 1000 Ang^3
#
#
#
# Elastic Constant Matrix: (Units=GPa)
#
#
# Indices 1 2 3 4 5 6 
#
# 1 121.4560 44.2449 37.1065 0.0000 0.0000 0.0000
# 2 44.2449 107.9924 34.9323 0.0000 0.0000 0.0000
# 3 37.1065 34.9323 74.9367 0.0000 0.0000 0.0000
# 4 0.0000 0.0000 0.0000 24.9749 0.0000 0.0000
# 5 0.0000 0.0000 0.0000 0.0000 23.8994 0.0000
# 6 0.0000 0.0000 0.0000 0.0000 0.0000 38.0444
#
#
#
# Elastic Compliance Matrix: (Units=1/GPa)
#
#
# Indices 1 2 3 4 5 6 
#
# 1 0.010508 -0.003088 -0.003764 0.000000 0.000000 0.000000
# 2 -0.003088 0.011811 -0.003977 0.000000 0.000000 0.000000
# 3 -0.003764 -0.003977 0.017062 0.000000 0.000000 0.000000
# 4 0.000000 0.000000 0.000000 0.040040 0.000000 0.000000
# 5 0.000000 0.000000 0.000000 0.000000 0.041842 0.000000
# 6 0.000000 0.000000 0.000000 0.000000 0.000000 0.026285
#
#
# Mechanical properties :
#
#
# Convention : Reuss Voigt Hill
#
# Bulk Modulus (GPa) = 56.41919 59.66140 58.04030
# Shear Modulus (GPa) = 28.55265 29.92380 29.23823
#
# Velocity S-wave (km/s) = 3.82599 3.91678 3.87165
# Velocity P-wave (km/s) = 6.96004 7.14434 7.05279
#
# Compressibility (1/GPa) = 0.01772447
#
# Stress axis : x y z
#
# Youngs Moduli (GPa) = 95.16369 84.66386 58.60857
#
# Poissons Ratio (x) = 0.26142 0.22060
# Poissons Ratio (y) = 0.29384 0.23309
# Poissons Ratio (z) = 0.35820 0.33671
#
# Static dielectric constant tensor:
#      x y z
#    x 3.751440 0.000000 0.000000 
#    y 0.000000 3.628820 0.000000 
#    z 0.000000 0.000000 3.504680 
# 
# 
# High freq. dielectric constant tensor:
#      x y z
#    x 1.772710 0.000000 0.000000 
#    y 0.000000 1.757340 0.000000 
#    z 0.000000 0.000000 1.745300 
# 
# From -- ./inp_files/20735.got.cif
#   From: 2010.03.12/outbox.cif.g09.slc.cpg/sg72_11_cif.got.tgz:20735.got - 2010.04.16 14:54:00.
