data_PCOD8293702
_publ_section_title
;
Structure prediction by ZEFSAII (Michael W. Deem and Ramdas Pophale) SiO2 
 PCOD8293702
Probable space group: I B A M
;
_chemical_formula_sum "Si O2"
_cell_formula_units_Z 112
_cell_length_a 29.296608
_cell_length_b 14.474453
_cell_length_c 14.326461
_cell_angle_alpha 90.000000
_cell_angle_beta 90.000000
_cell_angle_gamma 90.000000
_cell_volume 6075.169820
_symmetry_space_group_name_H-M "I B A M"
_symmetry_group_IT_number 72
_symmetry_cell_setting 'orthorhombic'
loop_
_space_group_symop_operation_xyz
x,y,z
-x,-y,z
x,-y,1/2-z
-x,y,1/2-z
-x,-y,-z
x,y,-z
-x,y,1/2+z
x,-y,1/2+z
1/2+x,1/2+y,1/2+z
1/2-x,1/2-y,1/2+z
1/2+x,1/2-y,-z
1/2-x,1/2+y,-z
1/2-x,1/2-y,1/2-z
1/2+x,1/2+y,1/2-z
1/2-x,1/2+y,z
1/2+x,1/2-y,z
loop_
_atom_site_type_symbol
_atom_site_label
_atom_site_fract_x
_atom_site_fract_y
_atom_site_fract_z
Si Si1 0.108416 0.783663 0.243373
Si Si2 0.057909 0.902180 0.391465
Si Si3 0.952751 0.110739 0.891721
Si Si4 0.192513 0.903249 0.754394
Si Si5 0.764950 0.638828 0.894729
Si Si6 0.160047 0.606432 0.750258
Si Si7 0.237805 0.651902 0.894053
O O1 0.091087 0.831306 0.338677
O O2 0.073735 0.808593 0.161233
O O3 0.158676 0.821341 0.219170
O O4 0.114950 0.672583 0.247749
O O5 0.068455 0.889897 0.500000
O O6 0.005833 0.877293 0.367787
O O7 0.065398 0.009162 0.361371
O O8 0.943801 0.125276 0.000000
O O9 0.230190 0.922722 0.834834
O O10 0.216916 0.884906 0.656005
O O11 0.164856 0.000000 0.750000
O O12 0.814042 0.634026 0.845168
O O13 0.742220 0.738641 0.892901
O O14 0.770053 0.601217 0.000000
O O15 0.143534 0.500000 0.750000
O O16 0.192101 0.621110 0.840479
O O17 0.235564 0.613961 0.000000
#
# Coordination Sequence:
#
# PCOD8293702 Si02
#       7
#    16  16  16  16  16  16  16
#     4  12  21  34  53  80 110 139 170 218 268 306
#     4   9  19  36  58  84 111 139 169 201 253 329
#     4   9  19  36  58  84 111 139 169 201 253 329
#     4  11  21  32  49  78 108 134 169 215 265 318
#     4  10  19  36  56  71  98 142 182 221 267 309
#     4  11  23  38  54  74 104 143 189 228 257 304
#     4  10  19  36  56  71  98 142 182 221 267 309
#
# _framework density 18.435699
#
# number of rings (size 3 to 8) (size 9 to 14) (size 15 to 20)
#    0.000    1.714    2.857    5.143    0.000    5.714 
#    0.000    0.000    0.000    1.714    0.000    2.000 
#    0.000    0.000    0.000    0.000    0.000    0.000 
#
# Total GULP energy -694185.872845 kJ/mol
# GULP energy per Si atom -12396.176301 kJ/mol
# Density = 1.839374 g / cm^3
# Si number density = 18.435699 Si / 1000 Ang^3
#
#
#
# Elastic Constant Matrix: (Units=GPa)
#
#
# Indices 1 2 3 4 5 6 
#
# 1 67.6658 32.7920 28.5531 0.0000 0.0000 0.0000
# 2 32.7920 110.0749 16.8014 0.0000 0.0000 0.0000
# 3 28.5531 16.8014 113.1479 0.0000 0.0000 0.0000
# 4 0.0000 0.0000 0.0000 3.8222 0.0000 0.0000
# 5 0.0000 0.0000 0.0000 0.0000-1008.3237 0.0000
# 6 0.0000 0.0000 0.0000 0.0000 0.0000 30.0477
#
#
#
# Elastic Compliance Matrix: (Units=1/GPa)
#
#
# Indices 1 2 3 4 5 6 
#
# 1 0.018910 -0.005019 -0.004027 0.000000 0.000000 0.000000
# 2 -0.005019 0.010627 -0.000312 0.000000 0.000000 0.000000
# 3 -0.004027 -0.000312 0.009900 0.000000 0.000000 0.000000
# 4 0.000000 0.000000 0.000000 0.261629 0.000000 0.000000
# 5 0.000000 0.000000 0.000000 0.000000 -0.000992 0.000000
# 6 0.000000 0.000000 0.000000 0.000000 0.000000 0.033280
#
#
# Mechanical properties :
#
#
# Convention : Reuss Voigt Hill
#
# Bulk Modulus (GPa) = 48.25419 49.68685 48.97052
# Shear Modulus (GPa) = 13.92845 -180.70795 -83.38975
#
# Velocity S-wave (km/s) = 2.75165 -9.91128 -6.73283
# Velocity P-wave (km/s) = 6.02715 10.19647 5.81556
#
# Compressibility (1/GPa) = 0.02072359
#
# Stress axis : x y z
#
# Youngs Moduli (GPa) = 52.88254 94.09637 101.00595
#
# Poissons Ratio (x) = 0.47225 0.40672
# Poissons Ratio (y) = 0.26540 0.03147
# Poissons Ratio (z) = 0.21294 0.02932
#
# Static dielectric constant tensor:
#      x y z
#    x 3.185400 0.000000 0.000000 
#    y 0.000000 3.380030 0.000000 
#    z 0.000000 0.000000 3.568020 
# 
# 
# High freq. dielectric constant tensor:
#      x y z
#    x 1.687550 0.000000 0.000000 
#    y 0.000000 1.706710 0.000000 
#    z 0.000000 0.000000 1.724640 
# 
# From -- ./inp_files/25968.got.cif
#   From: 2010.03.12/outbox.cif.g09.slc.cpg/sg72_13_cif.got.tgz:25968.got - 2010.04.16 14:54:00.
