data_PCOD8293569
_publ_section_title
;
Structure prediction by ZEFSAII (Michael W. Deem and Ramdas Pophale) SiO2 
 PCOD8293569
Probable space group: I B A M
;
_chemical_formula_sum "Si O2"
_cell_formula_units_Z 88
_cell_length_a 12.128709
_cell_length_b 12.400743
_cell_length_c 29.509387
_cell_angle_alpha 90.000000
_cell_angle_beta 90.000000
_cell_angle_gamma 90.000000
_cell_volume 4438.359447
_symmetry_space_group_name_H-M "I B A M"
_symmetry_group_IT_number 72
_symmetry_cell_setting 'orthorhombic'
loop_
_space_group_symop_operation_xyz
x,y,z
-x,-y,z
x,-y,1/2-z
-x,y,1/2-z
-x,-y,-z
x,y,-z
-x,y,1/2+z
x,-y,1/2+z
1/2+x,1/2+y,1/2+z
1/2-x,1/2-y,1/2+z
1/2+x,1/2-y,-z
1/2-x,1/2+y,-z
1/2-x,1/2-y,1/2-z
1/2+x,1/2+y,1/2-z
1/2-x,1/2+y,z
1/2+x,1/2-y,z
loop_
_atom_site_type_symbol
_atom_site_label
_atom_site_fract_x
_atom_site_fract_y
_atom_site_fract_z
Si Si1 0.595487 0.333118 0.179422
Si Si2 0.121546 0.045371 0.447493
Si Si3 0.216071 0.370911 0.182563
Si Si4 0.606792 0.272181 0.381688
Si Si5 0.284117 0.059798 0.121773
Si Si6 0.636414 0.500000 0.250000
O O1 0.625524 0.215367 0.200766
O O2 0.504760 0.312112 0.141495
O O3 0.699220 0.387495 0.156262
O O4 0.559843 0.421237 0.217994
O O5 0.152138 0.045309 0.500000
O O6 0.121107 0.167921 0.429583
O O7 0.216800 0.976830 0.422662
O O8 0.000000 0.000000 0.438072
O O9 0.296939 0.302987 0.151707
O O10 0.160760 0.460986 0.149713
O O11 0.281797 0.419550 0.224313
O O12 0.618176 0.143713 0.391291
#
# Coordination Sequence:
#
# PCOD8293569 Si02
#       6
#    16  16  16  16  16   8
#     4  10  19  34  53  78 109 145 188 241 284 337
#     4  10  19  34  58  84 110 143 185 232 278 338
#     4   9  20  34  52  77 107 145 192 236 281 339
#     4  10  20  34  55  80 109 145 187 226 288 345
#     4   9  19  35  54  79 108 148 186 230 281 345
#     4  10  20  33  54  77 112 148 196 247 285 336
#
# _framework density 19.827147
#
# number of rings (size 3 to 8) (size 9 to 14) (size 15 to 20)
#    0.000    2.364    1.818    0.545    0.000    2.909 
#    0.000    0.000    0.000    9.818    0.000    5.091 
#    0.000    0.000    0.000    0.000    0.000    0.000 
#
# Total GULP energy -545171.374514 kJ/mol
# GULP energy per Si atom -12390.258512 kJ/mol
# Density = 1.978202 g / cm^3
# Si number density = 19.827147 Si / 1000 Ang^3
#
#
#
# Elastic Constant Matrix: (Units=GPa)
#
#
# Indices 1 2 3 4 5 6 
#
# 1 27.1116 39.4916 22.4539 0.0000 0.0000 0.0000
# 2 39.4916 150.6296 56.5111 0.0000 0.0000 0.0000
# 3 22.4539 56.5111 99.6441 0.0000 0.0000 0.0000
# 4 0.0000 0.0000 0.0000 -0.9531 0.0000 0.0000
# 5 0.0000 0.0000 0.0000 0.0000 23.4839 0.0000
# 6 0.0000 0.0000 0.0000 0.0000 0.0000 41.0401
#
#
#
# Elastic Compliance Matrix: (Units=1/GPa)
#
#
# Indices 1 2 3 4 5 6 
#
# 1 0.062445 -0.014091 -0.006080 0.000000 0.000000 0.000000
# 2 -0.014091 0.011613 -0.003411 0.000000 0.000000 0.000000
# 3 -0.006080 -0.003411 0.013340 0.000000 0.000000 0.000000
# 4 0.000000 0.000000 0.000000 -1.049221 0.000000 0.000000
# 5 0.000000 0.000000 0.000000 0.000000 0.042582 0.000000
# 6 0.000000 0.000000 0.000000 0.000000 0.000000 0.024366
#
#
# Mechanical properties :
#
#
# Convention : Reuss Voigt Hill
#
# Bulk Modulus (GPa) = 24.85415 57.14429 40.99922
# Shear Modulus (GPa) = -5.99305 23.30942 8.65819
#
# Velocity S-wave (km/s) = -1.74046 3.43247 2.09196
# Velocity P-wave (km/s) = 2.91953 6.67779 5.15348
#
# Compressibility (1/GPa) = 0.04023473
#
# Stress axis : x y z
#
# Youngs Moduli (GPa) = 16.01413 86.11346 74.96179
#
# Poissons Ratio (x) = 1.21338 0.45578
# Poissons Ratio (y) = 0.22565 0.25567
# Poissons Ratio (z) = 0.09737 0.29370
#
# Static dielectric constant tensor:
#      x y z
#    x 3.442270 0.000000 0.000000 
#    y 0.000000 4.384580 0.000000 
#    z 0.000000 0.000000 3.452440 
# 
# 
# High freq. dielectric constant tensor:
#      x y z
#    x 1.749510 0.000000 0.000000 
#    y 0.000000 1.794810 0.000000 
#    z 0.000000 0.000000 1.759650 
# 
# From -- ./inp_files/51285.got.cif
#   From: 2010.03.12/outbox.cif.g09.slc.cpg/sg72_26_cif.got.tgz:51285.got - 2010.04.16 14:54:00.
