data_PCOD8293523
_publ_section_title
;
Structure prediction by ZEFSAII (Michael W. Deem and Ramdas Pophale) SiO2 
 PCOD8293523
Probable space group: I B A M
;
_chemical_formula_sum "Si O2"
_cell_formula_units_Z 104
_cell_length_a 11.687701
_cell_length_b 18.328613
_cell_length_c 25.017396
_cell_angle_alpha 90.000000
_cell_angle_beta 90.000000
_cell_angle_gamma 90.000000
_cell_volume 5359.210272
_symmetry_space_group_name_H-M "I B A M"
_symmetry_group_IT_number 72
_symmetry_cell_setting 'orthorhombic'
loop_
_space_group_symop_operation_xyz
x,y,z
-x,-y,z
x,-y,1/2-z
-x,y,1/2-z
-x,-y,-z
x,y,-z
-x,y,1/2+z
x,-y,1/2+z
1/2+x,1/2+y,1/2+z
1/2-x,1/2-y,1/2+z
1/2+x,1/2-y,-z
1/2-x,1/2+y,-z
1/2-x,1/2-y,1/2-z
1/2+x,1/2+y,1/2-z
1/2-x,1/2+y,z
1/2+x,1/2-y,z
loop_
_atom_site_type_symbol
_atom_site_label
_atom_site_fract_x
_atom_site_fract_y
_atom_site_fract_z
Si Si1 0.275400 0.127088 0.559457
Si Si2 0.500000 0.000000 0.370987
Si Si3 0.257850 0.024693 0.346827
Si Si4 0.626153 0.373308 0.824636
Si Si5 0.200812 0.263625 0.374634
Si Si6 0.120282 0.148366 0.299642
Si Si7 0.957657 0.632236 0.560218
O O1 0.226535 0.115441 0.500000
O O2 0.244317 0.053253 0.591952
O O3 0.221610 0.198083 0.585120
O O4 0.408402 0.145856 0.558221
O O5 0.394287 0.023467 0.333472
O O6 0.563261 0.056325 0.410361
O O7 0.215516 0.086910 0.307417
O O8 0.190330 0.949813 0.334970
O O9 0.687800 0.312874 0.861600
O O10 0.489917 0.378618 0.835459
O O11 0.615009 0.345936 0.763803
O O12 0.156325 0.228952 0.319250
O O13 0.101484 0.308509 0.402709
O O14 0.905707 0.631194 0.500000
#
# Coordination Sequence:
#
# PCOD8293523 Si02
#       7
#    16   8  16  16  16  16  16
#     4   9  20  36  55  83 119 154 189 235 295 344
#     4  10  19  36  55  86 114 148 194 245 289 334
#     4  10  20  37  60  82 115 149 193 239 285 340
#     4  11  21  39  59  86 109 151 202 233 285 356
#     4  11  20  36  58  86 115 150 191 245 289 342
#     4  10  23  38  60  81 117 153 188 240 298 344
#     4  10  19  33  56  82 114 152 192 236 286 345
#
# _framework density 19.405844999999999
#
# number of rings (size 3 to 8) (size 9 to 14) (size 15 to 20)
#    0.000    1.846    1.538    3.000    0.000    1.846 
#    0.000    1.538    0.000    9.231    0.000    0.000 
#    0.000    0.000    0.000    0.000    0.000    0.000 
#
# Total GULP energy -644221.256487 kJ/mol
# GULP energy per Si atom -12388.870317 kJ/mol
# Density = 1.936168 g / cm^3
# Si number density = 19.405845 Si / 1000 Ang^3
#
#
#
# Elastic Constant Matrix: (Units=GPa)
#
#
# Indices 1 2 3 4 5 6 
#
# 1 70.1129 39.2143 26.4497 0.0000 0.0000 0.0000
# 2 39.2143 68.8417 8.0284 0.0000 0.0000 0.0000
# 3 26.4497 8.0284 62.9478 0.0000 0.0000 0.0000
# 4 0.0000 0.0000 0.0000 14.4325 0.0000 0.0000
# 5 0.0000 0.0000 0.0000 0.0000 12.3391 0.0000
# 6 0.0000 0.0000 0.0000 0.0000 0.0000 38.3022
#
#
#
# Elastic Compliance Matrix: (Units=1/GPa)
#
#
# Indices 1 2 3 4 5 6 
#
# 1 0.024964 -0.013193 -0.008807 0.000000 0.000000 0.000000
# 2 -0.013193 0.021718 0.002774 0.000000 0.000000 0.000000
# 3 -0.008807 0.002774 0.019233 0.000000 0.000000 0.000000
# 4 0.000000 0.000000 0.000000 0.069288 0.000000 0.000000
# 5 0.000000 0.000000 0.000000 0.000000 0.081043 0.000000
# 6 0.000000 0.000000 0.000000 0.000000 0.000000 0.026108
#
#
# Mechanical properties :
#
#
# Convention : Reuss Voigt Hill
#
# Bulk Modulus (GPa) = 36.41381 38.80966 37.61174
# Shear Modulus (GPa) = 17.24372 21.56211 19.40291
#
# Velocity S-wave (km/s) = 2.98415 3.33695 3.16547
# Velocity P-wave (km/s) = 5.53883 5.90672 5.72573
#
# Compressibility (1/GPa) = 0.02746210
#
# Stress axis : x y z
#
# Youngs Moduli (GPa) = 40.05764 46.04502 51.99421
#
# Poissons Ratio (x) = 0.60748 0.45790
# Poissons Ratio (y) = 0.52849 -0.14422
# Poissons Ratio (z) = 0.35278 -0.12771
#
# Static dielectric constant tensor:
#      x y z
#    x 3.018290 0.000000 0.000000 
#    y 0.000000 3.658190 0.000000 
#    z 0.000000 0.000000 3.682780 
# 
# 
# High freq. dielectric constant tensor:
#      x y z
#    x 1.759020 0.000000 0.000000 
#    y 0.000000 1.762280 0.000000 
#    z 0.000000 0.000000 1.749460 
# 
# From -- ./inp_files/48163.got.cif
#   From: 2010.03.12/outbox.cif.g09.slc.cpg/sg72_25_cif.got.tgz:48163.got - 2010.04.16 14:54:00.
