data_PCOD8293431
_publ_section_title
;
Structure prediction by ZEFSAII (Michael W. Deem and Ramdas Pophale) SiO2 
 PCOD8293431
Probable space group: I B A M
;
_chemical_formula_sum "Si O2"
_cell_formula_units_Z 96
_cell_length_a 17.133852
_cell_length_b 13.391653
_cell_length_c 22.599552
_cell_angle_alpha 90.000000
_cell_angle_beta 90.000000
_cell_angle_gamma 90.000000
_cell_volume 5185.480778
_symmetry_space_group_name_H-M "I B A M"
_symmetry_group_IT_number 72
_symmetry_cell_setting 'orthorhombic'
loop_
_space_group_symop_operation_xyz
x,y,z
-x,-y,z
x,-y,1/2-z
-x,y,1/2-z
-x,-y,-z
x,y,-z
-x,y,1/2+z
x,-y,1/2+z
1/2+x,1/2+y,1/2+z
1/2-x,1/2-y,1/2+z
1/2+x,1/2-y,-z
1/2-x,1/2+y,-z
1/2-x,1/2-y,1/2-z
1/2+x,1/2+y,1/2-z
1/2-x,1/2+y,z
1/2+x,1/2-y,z
loop_
_atom_site_type_symbol
_atom_site_label
_atom_site_fract_x
_atom_site_fract_y
_atom_site_fract_z
Si Si1 0.913704 0.381731 0.240860
Si Si2 0.371229 0.862046 0.864581
Si Si3 0.332062 0.942157 0.432915
Si Si4 0.489381 0.388203 0.431306
Si Si5 0.183902 0.816990 0.432501
Si Si6 0.450159 0.192257 0.118855
O O1 0.912568 0.500000 0.250000
O O2 0.858645 0.342499 0.294096
O O3 0.895199 0.336573 0.176030
O O4 0.000000 0.339108 0.250000
O O5 0.313539 0.785002 0.895836
O O6 0.462867 0.852385 0.880024
O O7 0.347185 0.971700 0.885323
O O8 0.324777 0.984303 0.500000
O O9 0.251620 0.891109 0.411877
O O10 0.402883 0.861923 0.433626
O O11 0.500000 0.500000 0.407047
O O12 0.513818 0.379049 0.500000
O O13 0.398757 0.368020 0.421809
O O14 0.543151 0.311223 0.393628
O O15 0.196802 0.786117 0.500000
#
# Coordination Sequence:
#
# PCOD8293431 Si02
#       6
#    16  16  16  16  16  16
#     4   9  16  30  53  78 102 132 171 215 270 319
#     4  10  19  34  55  74 104 138 176 222 270 324
#     4  11  21  31  49  78 109 137 171 221 278 331
#     4   9  18  34  55  76 104 144 184 220 261 319
#     4   9  20  35  49  73 105 138 176 216 270 326
#     4  10  19  32  54  82 106 134 179 224 267 326
#
# _framework density 18.513228999999999
#
# number of rings (size 3 to 8) (size 9 to 14) (size 15 to 20)
#    0.000    2.333    1.667    1.500    0.000    4.000 
#    0.000    4.167    0.000   12.500    0.000    0.000 
#    0.000    0.000    0.000    0.000    0.000    0.000 
#
# Total GULP energy -594765.277534 kJ/mol
# GULP energy per Si atom -12390.943282 kJ/mol
# Density = 1.847109 g / cm^3
# Si number density = 18.513229 Si / 1000 Ang^3
#
#
#
# Elastic Constant Matrix: (Units=GPa)
#
#
# Indices 1 2 3 4 5 6 
#
# 1 47.0512 38.0727 39.0560 0.0000 0.0000 0.0000
# 2 38.0727 142.6544 63.0833 0.0000 0.0000 0.0000
# 3 39.0560 63.0833 94.2245 0.0000 0.0000 0.0000
# 4 0.0000 0.0000 0.0000 26.1508 0.0000 0.0000
# 5 0.0000 0.0000 0.0000 0.0000 22.3136 0.0000
# 6 0.0000 0.0000 0.0000 0.0000 0.0000 24.0829
#
#
#
# Elastic Compliance Matrix: (Units=1/GPa)
#
#
# Indices 1 2 3 4 5 6 
#
# 1 0.033960 -0.004033 -0.011376 0.000000 0.000000 0.000000
# 2 -0.004033 0.010437 -0.005316 0.000000 0.000000 0.000000
# 3 -0.011376 -0.005316 0.018888 0.000000 0.000000 0.000000
# 4 0.000000 0.000000 0.000000 0.038240 0.000000 0.000000
# 5 0.000000 0.000000 0.000000 0.000000 0.044816 0.000000
# 6 0.000000 0.000000 0.000000 0.000000 0.000000 0.041523
#
#
# Mechanical properties :
#
#
# Convention : Reuss Voigt Hill
#
# Bulk Modulus (GPa) = 45.79987 62.70599 54.25293
# Shear Modulus (GPa) = 21.13345 24.09066 22.61205
#
# Velocity S-wave (km/s) = 3.38232 3.61122 3.49864
# Velocity P-wave (km/s) = 6.32820 7.16466 6.75938
#
# Compressibility (1/GPa) = 0.02183413
#
# Stress axis : x y z
#
# Youngs Moduli (GPa) = 29.44647 95.81267 52.94484
#
# Poissons Ratio (x) = 0.38638 0.60233
# Poissons Ratio (y) = 0.11875 0.28146
# Poissons Ratio (z) = 0.33500 0.50934
#
# Static dielectric constant tensor:
#      x y z
#    x 3.253400 0.000000 0.000000 
#    y 0.000000 3.393450 0.000000 
#    z 0.000000 0.000000 3.612930 
# 
# 
# High freq. dielectric constant tensor:
#      x y z
#    x 1.694940 0.000000 0.000000 
#    y 0.000000 1.711860 0.000000 
#    z 0.000000 0.000000 1.716710 
# 
# From -- ./inp_files/49047.got.cif
#   From: 2010.03.12/outbox.cif.g09.slc.cpg/sg72_25_cif.got.tgz:49047.got - 2010.04.16 14:54:00.
