data_PCOD8293586
_publ_section_title
;
Structure prediction by ZEFSAII (Michael W. Deem and Ramdas Pophale) SiO2 
 PCOD8293586
Probable space group: I B A M
;
_chemical_formula_sum "Si O2"
_cell_formula_units_Z 80
_cell_length_a 8.962755
_cell_length_b 25.428533
_cell_length_c 16.932820
_cell_angle_alpha 90.000000
_cell_angle_beta 90.000000
_cell_angle_gamma 90.000000
_cell_volume 3859.154117
_symmetry_space_group_name_H-M "I B A M"
_symmetry_group_IT_number 72
_symmetry_cell_setting 'orthorhombic'
loop_
_space_group_symop_operation_xyz
x,y,z
-x,-y,z
x,-y,1/2-z
-x,y,1/2-z
-x,-y,-z
x,y,-z
-x,y,1/2+z
x,-y,1/2+z
1/2+x,1/2+y,1/2+z
1/2-x,1/2-y,1/2+z
1/2+x,1/2-y,-z
1/2-x,1/2+y,-z
1/2-x,1/2-y,1/2-z
1/2+x,1/2+y,1/2-z
1/2-x,1/2+y,z
1/2+x,1/2-y,z
loop_
_atom_site_type_symbol
_atom_site_label
_atom_site_fract_x
_atom_site_fract_y
_atom_site_fract_z
Si Si1 0.749311 0.410125 0.907743
Si Si2 0.554989 0.882052 0.338868
Si Si3 0.428853 0.686390 0.906757
Si Si4 0.332002 0.980205 0.088086
Si Si5 0.259978 0.789906 0.093552
O O1 0.627714 0.369647 0.870516
O O2 0.736514 0.470482 0.875191
O O3 0.913655 0.386629 0.895770
O O4 0.722116 0.413985 0.000000
O O5 0.500000 0.885629 0.250000
O O6 0.674599 0.929108 0.355778
O O7 0.633418 0.827386 0.356658
O O8 0.308275 0.730837 0.884336
O O9 0.592040 0.701429 0.874725
O O10 0.438412 0.681479 0.000000
O O11 0.500000 0.000000 0.082041
O O12 0.274437 0.964894 0.000000
O O13 0.276304 0.800985 0.000000
#
# Coordination Sequence:
#
# PCOD8293586 Si02
#       5
#    16  16  16  16  16
#     4   9  17  33  55  78 104 136 179 228 275 324
#     4  11  21  32  49  78 109 146 184 220 265 319
#     4   9  18  33  57  83 105 138 183 231 278 325
#     4   8  15  29  51  76 102 133 173 223 270 315
#     4  10  19  34  55  79 109 143 182 226 273 324
#
# _framework density 20.729932000000002
#
# number of rings (size 3 to 8) (size 9 to 14) (size 15 to 20)
#    0.000    2.600    0.000    4.200    0.000    6.800 
#    0.000    6.000    0.000    4.800    0.000    8.400 
#    0.000    0.000    0.000    0.000    0.000    0.400 
#
# Total GULP energy -495663.235865 kJ/mol
# GULP energy per Si atom -12391.580897 kJ/mol
# Density = 2.068275 g / cm^3
# Si number density = 20.729932 Si / 1000 Ang^3
#
#
#
# Elastic Constant Matrix: (Units=GPa)
#
#
# Indices 1 2 3 4 5 6 
#
# 1 70.3025 30.9409 16.0416 0.0000 0.0000 0.0000
# 2 30.9409 118.6047 50.2809 0.0000 0.0000 0.0000
# 3 16.0416 50.2809 42.1231 0.0001 -0.0001 0.0000
# 4 0.0000 0.0000 0.0001 8.0623 0.0000 0.0000
# 5 0.0000 0.0000 -0.0001 0.0000 8.9408 0.0000
# 6 0.0000 0.0000 0.0000 0.0000 0.0000 35.6089
#
#
#
# Elastic Compliance Matrix: (Units=1/GPa)
#
#
# Indices 1 2 3 4 5 6 
#
# 1 0.016176 -0.003256 -0.002274 0.000000 0.000000 0.000000
# 2 -0.003256 0.017724 -0.019917 0.000000 0.000000 0.000000
# 3 -0.002274 -0.019917 0.048380 0.000000 0.000001 0.000000
# 4 0.000000 0.000000 0.000000 0.124034 0.000000 0.000000
# 5 0.000000 0.000000 0.000001 0.000000 0.111846 0.000000
# 6 0.000000 0.000000 0.000000 0.000000 0.000000 0.028083
#
#
# Mechanical properties :
#
#
# Convention : Reuss Voigt Hill
#
# Bulk Modulus (GPa) = 31.86019 47.28410 39.57215
# Shear Modulus (GPa) = 12.26695 19.44019 15.85357
#
# Velocity S-wave (km/s) = 2.43523 3.06565 2.76844
# Velocity P-wave (km/s) = 4.82801 5.94895 5.41755
#
# Compressibility (1/GPa) = 0.03138713
#
# Stress axis : x y z
#
# Youngs Moduli (GPa) = 61.81974 56.41981 20.66975
#
# Poissons Ratio (x) = 0.18371 0.04700
# Poissons Ratio (y) = 0.20129 0.41168
# Poissons Ratio (z) = 0.14056 1.12371
#
# Static dielectric constant tensor:
#      x y z
#    x 3.770230 0.000000 0.000000 
#    y 0.000000 4.435730 0.000000 
#    z 0.000000 0.000000 3.267240 
# 
# 
# High freq. dielectric constant tensor:
#      x y z
#    x 1.783970 0.000000 0.000000 
#    y 0.000000 1.832600 0.000000 
#    z 0.000000 0.000000 1.761530 
# 
# From -- ./inp_files/28201.got.cif
#   From: 2010.03.12/outbox.cif.g09.slc.cpg/sg72_15_cif.got.tgz:28201.got - 2010.04.16 14:54:00.
