data_PCOD8293021
_publ_section_title
;
Structure prediction by ZEFSAII (Michael W. Deem and Ramdas Pophale) SiO2 
 PCOD8293021
Probable space group: I B A M
;
_chemical_formula_sum "Si O2"
_cell_formula_units_Z 96
_cell_length_a 15.015921
_cell_length_b 22.212033
_cell_length_c 14.755548
_cell_angle_alpha 90.000000
_cell_angle_beta 90.000000
_cell_angle_gamma 90.000000
_cell_volume 4921.478906
_symmetry_space_group_name_H-M "I B A M"
_symmetry_group_IT_number 72
_symmetry_cell_setting 'orthorhombic'
loop_
_space_group_symop_operation_xyz
x,y,z
-x,-y,z
x,-y,1/2-z
-x,y,1/2-z
-x,-y,-z
x,y,-z
-x,y,1/2+z
x,-y,1/2+z
1/2+x,1/2+y,1/2+z
1/2-x,1/2-y,1/2+z
1/2+x,1/2-y,-z
1/2-x,1/2+y,-z
1/2-x,1/2-y,1/2-z
1/2+x,1/2+y,1/2-z
1/2-x,1/2+y,z
1/2+x,1/2-y,z
loop_
_atom_site_type_symbol
_atom_site_label
_atom_site_fract_x
_atom_site_fract_y
_atom_site_fract_z
Si Si1 0.898971 0.684117 0.731643
Si Si2 0.441405 0.712468 0.399206
Si Si3 0.143026 0.245018 0.898008
Si Si4 0.130499 0.029288 0.900179
Si Si5 0.764816 0.630932 0.606125
Si Si6 0.956704 0.915751 0.345960
O O1 0.894098 0.744725 0.672188
O O2 0.849335 0.699552 0.826739
O O3 0.850018 0.631982 0.673521
O O4 0.000000 0.662479 0.750000
O O5 0.412636 0.733045 0.500000
O O6 0.547213 0.714209 0.386569
O O7 0.409196 0.644206 0.382590
O O8 0.214089 0.193519 0.877299
O O9 0.155397 0.270833 0.000000
O O10 0.205286 0.074426 0.860974
O O11 0.036966 0.064569 0.911521
O O12 0.116962 0.969344 0.838807
O O13 0.159822 0.008101 0.000000
O O14 0.791688 0.624290 0.500000
O O15 0.000000 0.902835 0.250000
#
# Coordination Sequence:
#
# PCOD8293021 Si02
#       6
#    16  16  16  16  16  16
#     4  10  20  32  48  73 102 140 181 222 270 319
#     4  10  18  30  48  72 107 148 187 220 256 313
#     4   9  17  30  47  68  96 138 180 217 263 315
#     4  10  19  30  47  69  99 141 182 219 260 314
#     4  10  19  32  49  70  99 137 179 222 270 319
#     4  11  19  30  47  75 107 144 185 213 256 315
#
# _framework density 19.506333000000001
#
# number of rings (size 3 to 8) (size 9 to 14) (size 15 to 20)
#    0.000    2.000    1.667    5.500    0.000    0.667 
#    0.000    0.000    0.000    0.000    0.000    1.167 
#    0.000    2.667    0.000   14.667   10.667    0.000 
#
# Total GULP energy -594999.779388 kJ/mol
# GULP energy per Si atom -12395.828737 kJ/mol
# Density = 1.946194 g / cm^3
# Si number density = 19.506333 Si / 1000 Ang^3
#
#
#
# Elastic Constant Matrix: (Units=GPa)
#
#
# Indices 1 2 3 4 5 6 
#
# 1 71.4822 41.2410 31.9205 -0.0001 0.0000 0.0000
# 2 41.2410 66.4687 22.8056 0.0000 0.0000 0.0000
# 3 31.9205 22.8056 101.7580 0.0000 0.0000 0.0000
# 4 -0.0001 0.0000 0.0000 -40.4412 0.0000 0.0000
# 5 0.0000 0.0000 0.0000 0.0000 16.8169 0.0000
# 6 0.0000 0.0000 0.0000 0.0000 0.0000 29.1466
#
#
#
# Elastic Compliance Matrix: (Units=1/GPa)
#
#
# Indices 1 2 3 4 5 6 
#
# 1 0.023512 -0.013062 -0.004448 0.000000 0.000000 0.000000
# 2 -0.013062 0.023554 -0.001182 0.000000 0.000000 0.000000
# 3 -0.004448 -0.001182 0.011487 0.000000 0.000000 0.000000
# 4 0.000000 0.000000 0.000000 -0.024727 0.000000 0.000000
# 5 0.000000 0.000000 0.000000 0.000000 0.059464 0.000000
# 6 0.000000 0.000000 0.000000 0.000000 0.000000 0.034309
#
#
# Mechanical properties :
#
#
# Convention : Reuss Voigt Hill
#
# Bulk Modulus (GPa) = 47.23537 47.96034 47.59785
# Shear Modulus (GPa) = 29.06318 10.68725 19.87522
#
# Velocity S-wave (km/s) = 3.86416 2.34324 3.19550
# Velocity P-wave (km/s) = 6.64657 5.65345 6.17002
#
# Compressibility (1/GPa) = 0.02117058
#
# Stress axis : x y z
#
# Youngs Moduli (GPa) = 42.53210 42.45497 87.05235
#
# Poissons Ratio (x) = 0.55454 0.38721
# Poissons Ratio (y) = 0.55555 0.10286
# Poissons Ratio (z) = 0.18918 0.05016
#
# Static dielectric constant tensor:
#      x y z
#    x 3.380350 0.000000 0.000000 
#    y 0.000000 3.254480 0.000000 
#    z 0.000000 0.000000 3.792420 
# 
# 
# High freq. dielectric constant tensor:
#      x y z
#    x 1.722250 0.000000 0.000000 
#    y 0.000000 1.719740 0.000000 
#    z 0.000000 0.000000 1.779380 
# 
# From -- ./inp_files/21853.got.cif
#   From: 2010.03.12/outbox.cif.g09.slc.cpg/sg72_11_cif.got.tgz:21853.got - 2010.04.16 14:54:00.
