data_PCOD8293758
_publ_section_title
;
Structure prediction by ZEFSAII (Michael W. Deem and Ramdas Pophale) SiO2 
 PCOD8293758
Probable space group: I B A M
;
_chemical_formula_sum "Si O2"
_cell_formula_units_Z 104
_cell_length_a 16.147646
_cell_length_b 10.070961
_cell_length_c 28.140730
_cell_angle_alpha 90.000000
_cell_angle_beta 90.000000
_cell_angle_gamma 90.000000
_cell_volume 4576.310605
_symmetry_space_group_name_H-M "I B A M"
_symmetry_group_IT_number 72
_symmetry_cell_setting 'orthorhombic'
loop_
_space_group_symop_operation_xyz
x,y,z
-x,-y,z
x,-y,1/2-z
-x,y,1/2-z
-x,-y,-z
x,y,-z
-x,y,1/2+z
x,-y,1/2+z
1/2+x,1/2+y,1/2+z
1/2-x,1/2-y,1/2+z
1/2+x,1/2-y,-z
1/2-x,1/2+y,-z
1/2-x,1/2-y,1/2-z
1/2+x,1/2+y,1/2-z
1/2-x,1/2+y,z
1/2+x,1/2-y,z
loop_
_atom_site_type_symbol
_atom_site_label
_atom_site_fract_x
_atom_site_fract_y
_atom_site_fract_z
Si Si1 0.127217 0.062261 0.500000
Si Si2 0.036173 0.783236 0.500000
Si Si3 0.777207 0.409940 0.175995
Si Si4 0.566034 0.253957 0.898622
Si Si5 0.345674 0.181613 0.307733
Si Si6 0.000000 0.234809 0.750000
Si Si7 0.089052 0.792052 0.838880
Si Si8 0.672630 0.502669 0.900632
O O1 0.185194 0.069800 0.452523
O O2 0.062179 0.183759 0.500000
O O3 0.083742 0.921339 0.500000
O O4 0.062983 0.698987 0.453038
O O5 0.707213 0.317196 0.201432
O O6 0.788933 0.552229 0.202531
O O7 0.865979 0.340787 0.178772
O O8 0.753354 0.427062 0.119697
O O9 0.626182 0.172306 0.863541
O O10 0.472516 0.252943 0.880752
O O11 0.593085 0.407606 0.901564
O O12 0.426649 0.177962 0.274211
O O13 0.039734 0.147917 0.707047
O O14 0.157364 0.891233 0.858744
#
# Coordination Sequence:
#
# PCOD8293758 Si02
#       8
#     8   8  16  16  16   8  16  16
#     4   9  16  28  60  89 128 163 215 257 326 385
#     4   9  14  28  56  96 119 165 209 266 321 380
#     4  11  23  42  68  90 130 172 213 266 332 391
#     4   9  19  34  63  92 129 162 217 269 322 380
#     4  10  23  45  66  94 130 173 215 270 326 390
#     4  10  26  45  65  98 126 171 217 276 324 397
#     4  11  21  39  63  90 125 167 215 265 326 385
#     4  10  19  38  59  95 127 170 212 274 319 391
#
# _framework density 22.725729999999999
#
# number of rings (size 3 to 8) (size 9 to 14) (size 15 to 20)
#    0.000    2.000    3.077    0.462    0.000    4.308 
#    2.769   15.385    0.000    0.923    0.000    0.000 
#    0.000    0.000    0.000    0.000    0.000    0.000 
#
# Total GULP energy -644237.324800 kJ/mol
# GULP energy per Si atom -12389.179323 kJ/mol
# Density = 2.267401 g / cm^3
# Si number density = 22.725730 Si / 1000 Ang^3
#
#
#
# Elastic Constant Matrix: (Units=GPa)
#
#
# Indices 1 2 3 4 5 6 
#
# 1 77.6638 35.3040 37.2573 0.0000 0.0000 0.0000
# 2 35.3040 76.3801 30.2387 0.0000 0.0000 0.0000
# 3 37.2573 30.2387 170.2604 0.0000 0.0000 0.0000
# 4 0.0000 0.0000 0.0000 18.8610 0.0000 0.0000
# 5 0.0000 0.0000 0.0000 0.0000 32.9080 0.0000
# 6 0.0000 0.0000 0.0000 0.0000 0.0000 20.6994
#
#
#
# Elastic Compliance Matrix: (Units=1/GPa)
#
#
# Indices 1 2 3 4 5 6 
#
# 1 0.017265 -0.006975 -0.002539 0.000000 0.000000 0.000000
# 2 -0.006975 0.016900 -0.001475 0.000000 0.000000 0.000000
# 3 -0.002539 -0.001475 0.006691 0.000000 0.000000 0.000000
# 4 0.000000 0.000000 0.000000 0.053020 0.000000 0.000000
# 5 0.000000 0.000000 0.000000 0.000000 0.030388 0.000000
# 6 0.000000 0.000000 0.000000 0.000000 0.000000 0.048311
#
#
# Mechanical properties :
#
#
# Convention : Reuss Voigt Hill
#
# Bulk Modulus (GPa) = 52.97305 58.87827 55.92566
# Shear Modulus (GPa) = 24.89484 29.26062 27.07773
#
# Velocity S-wave (km/s) = 3.31334 3.59214 3.45556
# Velocity P-wave (km/s) = 6.16425 6.57032 6.37052
#
# Compressibility (1/GPa) = 0.01887752
#
# Stress axis : x y z
#
# Youngs Moduli (GPa) = 57.92176 59.17060 149.45402
#
# Poissons Ratio (x) = 0.41270 0.37950
# Poissons Ratio (y) = 0.40399 0.22049
# Poissons Ratio (z) = 0.14708 0.08729
#
# Static dielectric constant tensor:
#      x y z
#    x 4.025480 0.000000 0.000000 
#    y 0.000000 3.668390 0.000000 
#    z 0.000000 0.000000 4.595480 
# 
# 
# High freq. dielectric constant tensor:
#      x y z
#    x 1.891430 0.000000 0.000000 
#    y 0.000000 1.846880 0.000000 
#    z 0.000000 0.000000 1.912260 
# 
# From -- ./inp_files/52107.got.cif
#   From: 2010.03.12/outbox.cif.g09.slc.cpg/sg72_27_cif.got.tgz:52107.got - 2010.04.16 14:54:00.
