data_PCOD8293923
_publ_section_title
;
Structure prediction by ZEFSAII (Michael W. Deem and Ramdas Pophale) SiO2 
 PCOD8293923
Probable space group: I B A M
;
_chemical_formula_sum "Si O2"
_cell_formula_units_Z 72
_cell_length_a 16.592232
_cell_length_b 12.469530
_cell_length_c 17.394647
_cell_angle_alpha 90.000000
_cell_angle_beta 90.000000
_cell_angle_gamma 90.000000
_cell_volume 3598.906102
_symmetry_space_group_name_H-M "I B A M"
_symmetry_group_IT_number 72
_symmetry_cell_setting 'orthorhombic'
loop_
_space_group_symop_operation_xyz
x,y,z
-x,-y,z
x,-y,1/2-z
-x,y,1/2-z
-x,-y,-z
x,y,-z
-x,y,1/2+z
x,-y,1/2+z
1/2+x,1/2+y,1/2+z
1/2-x,1/2-y,1/2+z
1/2+x,1/2-y,-z
1/2-x,1/2+y,-z
1/2-x,1/2-y,1/2-z
1/2+x,1/2+y,1/2-z
1/2-x,1/2+y,z
1/2+x,1/2-y,z
loop_
_atom_site_type_symbol
_atom_site_label
_atom_site_fract_x
_atom_site_fract_y
_atom_site_fract_z
Si Si1 0.406555 0.799663 0.737993
Si Si2 0.301707 0.652052 0.159775
Si Si3 0.160973 0.767398 0.909843
Si Si4 0.587723 0.509847 0.911453
Si Si5 0.314017 0.000000 0.250000
O O1 0.500000 0.777240 0.750000
O O2 0.349582 0.703474 0.768721
O O3 0.393826 0.808179 0.645287
O O4 0.375293 0.907522 0.780899
O O5 0.254058 0.742882 0.111511
O O6 0.365665 0.600178 0.102510
O O7 0.242343 0.556806 0.186911
O O8 0.139781 0.888416 0.883740
O O9 0.144228 0.743818 0.000000
O O10 0.500000 0.500000 0.870034
O O11 0.571935 0.526786 0.000000
#
# Coordination Sequence:
#
# PCOD8293923 Si02
#       5
#    16  16  16  16   8
#     4  11  22  37  59  84 112 145 184 230 276 325
#     4  11  20  35  58  82 107 145 190 227 266 327
#     4  10  21  37  56  81 113 147 184 226 275 329
#     4  10  20  34  53  80 114 145 177 226 280 323
#     4  10  21  36  55  78 108 142 180 226 275 318
#
# _framework density 20.006079
#
# number of rings (size 3 to 8) (size 9 to 14) (size 15 to 20)
#    0.000    1.556    0.000    7.667    0.000    0.000 
#    0.000    3.333    0.000   13.333    0.000    0.000 
#    0.000    0.000    0.000    0.000    0.000    0.000 
#
# Total GULP energy -446021.981293 kJ/mol
# GULP energy per Si atom -12389.499480 kJ/mol
# Density = 1.996054 g / cm^3
# Si number density = 20.006079 Si / 1000 Ang^3
#
#
#
# Elastic Constant Matrix: (Units=GPa)
#
#
# Indices 1 2 3 4 5 6 
#
# 1 163.7110 67.8714 47.7726 0.0000 0.0000 0.0000
# 2 67.8714 116.3598 36.8229 0.0000 0.0000 0.0000
# 3 47.7726 36.8229 75.2405 0.0000 0.0000 0.0000
# 4 0.0000 0.0000 0.0000 22.4934 0.0000 0.0000
# 5 0.0000 0.0000 0.0000 0.0000 19.2637 0.0000
# 6 0.0000 0.0000 0.0000 0.0000 0.0000 19.0020
#
#
#
# Elastic Compliance Matrix: (Units=1/GPa)
#
#
# Indices 1 2 3 4 5 6 
#
# 1 0.008830 -0.003995 -0.003651 0.000000 0.000000 0.000000
# 2 -0.003995 0.011976 -0.003325 0.000000 0.000000 0.000000
# 3 -0.003651 -0.003325 0.017236 0.000000 0.000000 0.000000
# 4 0.000000 0.000000 0.000000 0.044458 0.000000 0.000000
# 5 0.000000 0.000000 0.000000 0.000000 0.051911 0.000000
# 6 0.000000 0.000000 0.000000 0.000000 0.000000 0.052626
#
#
# Mechanical properties :
#
#
# Convention : Reuss Voigt Hill
#
# Bulk Modulus (GPa) = 62.10966 73.36055 67.73511
# Shear Modulus (GPa) = 23.32672 25.67477 24.50074
#
# Velocity S-wave (km/s) = 3.41835 3.58627 3.50332
# Velocity P-wave (km/s) = 6.83322 7.34147 7.09190
#
# Compressibility (1/GPa) = 0.01610056
#
# Stress axis : x y z
#
# Youngs Moduli (GPa) = 113.24934 83.49752 58.01744
#
# Poissons Ratio (x) = 0.33357 0.21184
# Poissons Ratio (y) = 0.45243 0.19289
# Poissons Ratio (z) = 0.41351 0.27761
#
# Static dielectric constant tensor:
#      x y z
#    x 3.927310 0.000000 0.000000 
#    y 0.000000 3.900990 0.000000 
#    z 0.000000 0.000000 3.377640 
# 
# 
# High freq. dielectric constant tensor:
#      x y z
#    x 1.792170 0.000000 0.000000 
#    y 0.000000 1.782110 0.000000 
#    z 0.000000 0.000000 1.760120 
# 
# From -- ./inp_files/31272.got.cif
#   From: 2010.03.12/outbox.cif.g09.slc.cpg/sg72_16_cif.got.tgz:31272.got - 2010.04.16 14:54:00.
