data_PCOD8293804
_publ_section_title
;
Structure prediction by ZEFSAII (Michael W. Deem and Ramdas Pophale) SiO2 
 PCOD8293804
Probable space group: I B A M
;
_chemical_formula_sum "Si O2"
_cell_formula_units_Z 104
_cell_length_a 31.488043
_cell_length_b 20.353581
_cell_length_c 9.045727
_cell_angle_alpha 90.000000
_cell_angle_beta 90.000000
_cell_angle_gamma 90.000000
_cell_volume 5797.356083
_symmetry_space_group_name_H-M "I B A M"
_symmetry_group_IT_number 72
_symmetry_cell_setting 'orthorhombic'
loop_
_space_group_symop_operation_xyz
x,y,z
-x,-y,z
x,-y,1/2-z
-x,y,1/2-z
-x,-y,-z
x,y,-z
-x,y,1/2+z
x,-y,1/2+z
1/2+x,1/2+y,1/2+z
1/2-x,1/2-y,1/2+z
1/2+x,1/2-y,-z
1/2-x,1/2+y,-z
1/2-x,1/2-y,1/2-z
1/2+x,1/2+y,1/2-z
1/2-x,1/2+y,z
1/2+x,1/2-y,z
loop_
_atom_site_type_symbol
_atom_site_label
_atom_site_fract_x
_atom_site_fract_y
_atom_site_fract_z
Si Si1 0.281839 0.697564 0.826512
Si Si2 0.956755 0.256186 0.824506
Si Si3 0.337566 0.108538 0.337738
Si Si4 0.962527 0.403475 0.839621
Si Si5 0.253234 0.569018 0.678279
Si Si6 0.604673 0.000000 0.250000
Si Si7 0.373097 0.758513 0.171152
O O1 0.250000 0.750000 0.750000
O O2 0.281393 0.627706 0.743213
O O3 0.330866 0.716377 0.807189
O O4 0.269612 0.691952 0.000000
O O5 0.951927 0.332150 0.772587
O O6 0.912945 0.225452 0.759163
O O7 0.000000 0.226908 0.750000
O O8 0.958551 0.244553 0.000000
O O9 0.325144 0.135162 0.500000
O O10 0.294011 0.086426 0.260499
O O11 0.361780 0.169112 0.259180
O O12 0.367066 0.044871 0.355866
O O13 0.922697 0.451560 0.850993
O O14 0.000000 0.438710 0.750000
O O15 0.981400 0.390742 0.000000
O O16 0.267777 0.500000 0.750000
O O17 0.256294 0.564544 0.500000
O O18 0.386813 0.763365 0.000000
#
# Coordination Sequence:
#
# PCOD8293804 Si02
#       7
#    16  16  16  16  16   8  16
#     4  11  22  37  58  84 113 149 190 235 283 337
#     4  10  20  35  52  73  98 131 174 223 278 330
#     4  10  20  32  48  70  99 135 174 223 275 320
#     4  10  22  34  45  62  86 122 167 217 269 319
#     4  11  22  39  57  81 113 148 186 229 282 336
#     4  12  19  32  46  66  92 126 174 224 271 316
#     4  10  20  37  55  75 103 138 180 226 275 326
#
# _framework density 17.939212000000001
#
# number of rings (size 3 to 8) (size 9 to 14) (size 15 to 20)
#    0.000    1.538    3.846    2.077    0.000    3.692 
#    0.000    0.000    0.000    0.000    0.000    0.000 
#    0.000    0.615    0.000    6.462    0.000    2.769 
#
# Total GULP energy -644329.228199 kJ/mol
# GULP energy per Si atom -12390.946696 kJ/mol
# Density = 1.789838 g / cm^3
# Si number density = 17.939212 Si / 1000 Ang^3
#
#
#
# Elastic Constant Matrix: (Units=GPa)
#
#
# Indices 1 2 3 4 5 6 
#
# 1 113.2323 32.5406 45.7430 0.0000 0.0000 0.0000
# 2 32.5406 73.0643 31.0748 0.0000 0.0000 0.0000
# 3 45.7430 31.0748 97.4198 0.0000 0.0000 0.0000
# 4 0.0000 0.0000 0.0000 7.1022 0.0000 0.0000
# 5 0.0000 0.0000 0.0000 0.0000 22.5324 0.0000
# 6 0.0000 0.0000 0.0000 0.0000 0.0000 24.1044
#
#
#
# Elastic Compliance Matrix: (Units=1/GPa)
#
#
# Indices 1 2 3 4 5 6 
#
# 1 0.011540 -0.003280 -0.004372 0.000000 0.000000 0.000000
# 2 -0.003280 0.016767 -0.003808 0.000000 0.000000 0.000000
# 3 -0.004372 -0.003808 0.013533 0.000000 0.000000 0.000000
# 4 0.000000 0.000000 0.000000 0.140801 0.000000 0.000000
# 5 0.000000 0.000000 0.000000 0.000000 0.044381 0.000000
# 6 0.000000 0.000000 0.000000 0.000000 0.000000 0.041486
#
#
# Mechanical properties :
#
#
# Convention : Reuss Voigt Hill
#
# Bulk Modulus (GPa) = 52.85790 55.82592 54.34191
# Shear Modulus (GPa) = 16.79343 22.37167 19.58255
#
# Velocity S-wave (km/s) = 3.06294 3.53524 3.30753
# Velocity P-wave (km/s) = 6.48366 6.91744 6.70406
#
# Compressibility (1/GPa) = 0.01891865
#
# Stress axis : x y z
#
# Youngs Moduli (GPa) = 86.65207 59.64066 73.89538
#
# Poissons Ratio (x) = 0.19563 0.32310
# Poissons Ratio (y) = 0.28423 0.28141
# Poissons Ratio (z) = 0.37888 0.22712
#
# Static dielectric constant tensor:
#      x y z
#    x 3.380280 0.000000 0.000000 
#    y 0.000000 3.041530 0.000000 
#    z 0.000000 0.000000 3.263280 
# 
# 
# High freq. dielectric constant tensor:
#      x y z
#    x 1.694860 0.000000 0.000000 
#    y 0.000000 1.652030 0.000000 
#    z 0.000000 0.000000 1.692440 
# 
# From -- ./inp_files/9173.got.cif
#   From: 2010.03.12/outbox.cif.g09.slc.cpg/sg72_5_cif.got.tgz:9173.got - 2010.04.16 14:54:00.
