data_PCOD8293381
_publ_section_title
;
Structure prediction by ZEFSAII (Michael W. Deem and Ramdas Pophale) SiO2 
 PCOD8293381
Probable space group: I B A M
;
_chemical_formula_sum "Si O2"
_cell_formula_units_Z 96
_cell_length_a 10.607833
_cell_length_b 28.640526
_cell_length_c 15.550452
_cell_angle_alpha 90.000000
_cell_angle_beta 90.000000
_cell_angle_gamma 90.000000
_cell_volume 4724.443731
_symmetry_space_group_name_H-M "I B A M"
_symmetry_group_IT_number 72
_symmetry_cell_setting 'orthorhombic'
loop_
_space_group_symop_operation_xyz
x,y,z
-x,-y,z
x,-y,1/2-z
-x,y,1/2-z
-x,-y,-z
x,y,-z
-x,y,1/2+z
x,-y,1/2+z
1/2+x,1/2+y,1/2+z
1/2-x,1/2-y,1/2+z
1/2+x,1/2-y,-z
1/2-x,1/2+y,-z
1/2-x,1/2-y,1/2-z
1/2+x,1/2+y,1/2-z
1/2-x,1/2+y,z
1/2+x,1/2-y,z
loop_
_atom_site_type_symbol
_atom_site_label
_atom_site_fract_x
_atom_site_fract_y
_atom_site_fract_z
Si Si1 0.622108 0.978469 0.345193
Si Si2 0.372417 0.517345 0.846995
Si Si3 0.517342 0.112433 0.099897
Si Si4 0.007696 0.717300 0.397637
Si Si5 0.774258 0.784658 0.897377
Si Si6 0.273318 0.610619 0.099750
O O1 0.751030 0.993472 0.393338
O O2 0.606999 0.922213 0.345260
O O3 0.500000 0.000000 0.394382
O O4 0.626619 0.000000 0.250000
O O5 0.500000 0.500000 0.894465
O O6 0.378247 0.500000 0.750000
O O7 0.359697 0.573511 0.849481
O O8 0.541362 0.164997 0.133332
O O9 0.372601 0.098430 0.115410
O O10 0.553375 0.108134 0.000000
O O11 0.008256 0.718722 0.500000
O O12 0.866135 0.731161 0.365478
O O13 0.115479 0.751458 0.359386
O O14 0.803004 0.837316 0.866015
O O15 0.774754 0.783416 0.000000
O O16 0.307870 0.606868 0.000000
#
# Coordination Sequence:
#
# PCOD8293381 Si02
#       6
#    16  16  16  16  16  16
#     4  10  19  32  51  72  92 122 171 205 231 285
#     4  10  21  36  50  67  96 130 167 200 246 293
#     4   9  17  29  48  75 102 128 159 201 246 280
#     4   8  14  26  43  65  96 128 157 189 232 285
#     4   8  14  26  44  66  95 128 156 189 235 284
#     4   9  17  30  49  73 101 131 161 197 243 288
#
# _framework density 20.319852000000001
#
# number of rings (size 3 to 8) (size 9 to 14) (size 15 to 20)
#    0.000    3.000    1.667    2.000    0.000    1.333 
#    3.000    0.000    0.000    0.000    0.000    9.333 
#    0.000    0.000    0.000    0.000    0.000    0.333 
#
# Total GULP energy -594731.042288 kJ/mol
# GULP energy per Si atom -12390.230048 kJ/mol
# Density = 2.027360 g / cm^3
# Si number density = 20.319852 Si / 1000 Ang^3
#
#
#
# Elastic Constant Matrix: (Units=GPa)
#
#
# Indices 1 2 3 4 5 6 
#
# 1 185.0897 109.0982 8.6931 0.0000 -0.0001 0.0000
# 2 109.0982 174.5113 20.4778 0.0000 0.0001 0.0000
# 3 8.6931 20.4778 27.6937 -0.0018 0.0008 0.0004
# 4 0.0000 0.0000 -0.0018 6.0732 0.0002 0.0001
# 5 -0.0001 0.0001 0.0008 0.0002 4.6830 -0.0002
# 6 0.0000 0.0000 0.0004 0.0001 -0.0002 40.2602
#
#
#
# Elastic Compliance Matrix: (Units=1/GPa)
#
#
# Indices 1 2 3 4 5 6 
#
# 1 0.008605 -0.005543 0.001398 0.000000 0.000000 0.000000
# 2 -0.005543 0.009846 -0.005540 -0.000002 0.000001 0.000000
# 3 0.001398 -0.005540 0.039767 0.000012 -0.000006 0.000000
# 4 0.000000 -0.000002 0.000012 0.164659 -0.000007 0.000000
# 5 0.000000 0.000001 -0.000006 -0.000007 0.213539 0.000001
# 6 0.000000 0.000000 0.000000 0.000000 0.000001 0.024838
#
#
# Mechanical properties :
#
#
# Convention : Reuss Voigt Hill
#
# Bulk Modulus (GPa) = 25.74257 73.75921 49.75089
# Shear Modulus (GPa) = 10.13021 26.80499 18.46760
#
# Velocity S-wave (km/s) = 2.23522 3.63595 3.01798
# Velocity P-wave (km/s) = 4.39975 7.34879 6.05651
#
# Compressibility (1/GPa) = 0.03884616
#
# Stress axis : x y z
#
# Youngs Moduli (GPa) = 116.21791 101.56542 25.14638
#
# Poissons Ratio (x) = 0.56301 -0.03515
# Poissons Ratio (y) = 0.64423 0.13932
# Poissons Ratio (z) = -0.16247 0.56271
#
# Static dielectric constant tensor:
#      x y z
#    x 5.780070 0.000000 0.000080 
#    y 0.000000 3.884630 -0.000010 
#    z 0.000080 -0.000010 2.649190 
# 
# 
# High freq. dielectric constant tensor:
#      x y z
#    x 1.791520 0.000000 0.000000 
#    y 0.000000 1.798890 0.000000 
#    z 0.000000 0.000000 1.740760 
# 
# From -- ./inp_files/29568.got.cif
#   From: 2010.03.12/outbox.cif.g09.slc.cpg/sg72_15_cif.got.tgz:29568.got - 2010.04.16 14:54:00.
