data_PCOD8293751
_publ_section_title
;
Structure prediction by ZEFSAII (Michael W. Deem and Ramdas Pophale) SiO2 
 PCOD8293751
Probable space group: I B A M
;
_chemical_formula_sum "Si O2"
_cell_formula_units_Z 96
_cell_length_a 24.090667
_cell_length_b 10.696845
_cell_length_c 17.285111
_cell_angle_alpha 90.000000
_cell_angle_beta 90.000000
_cell_angle_gamma 90.000000
_cell_volume 4454.271656
_symmetry_space_group_name_H-M "I B A M"
_symmetry_group_IT_number 72
_symmetry_cell_setting 'orthorhombic'
loop_
_space_group_symop_operation_xyz
x,y,z
-x,-y,z
x,-y,1/2-z
-x,y,1/2-z
-x,-y,-z
x,y,-z
-x,y,1/2+z
x,-y,1/2+z
1/2+x,1/2+y,1/2+z
1/2-x,1/2-y,1/2+z
1/2+x,1/2-y,-z
1/2-x,1/2+y,-z
1/2-x,1/2-y,1/2-z
1/2+x,1/2+y,1/2-z
1/2-x,1/2+y,z
1/2+x,1/2-y,z
loop_
_atom_site_type_symbol
_atom_site_label
_atom_site_fract_x
_atom_site_fract_y
_atom_site_fract_z
Si Si1 0.203601 0.948914 0.412516
Si Si2 0.641909 0.777875 0.344598
Si Si3 0.086343 0.266928 0.414827
Si Si4 0.470966 0.125054 0.587415
Si Si5 0.641656 0.387640 0.700868
Si Si6 0.173637 0.472587 0.411389
O O1 0.195407 0.000378 0.500000
O O2 0.162125 0.832221 0.401580
O O3 0.193655 0.059326 0.349185
O O4 0.267316 0.902613 0.400917
O O5 0.577339 0.815211 0.359987
O O6 0.654440 0.730375 0.257024
O O7 0.676556 0.903436 0.358758
O O8 0.109458 0.236626 0.500000
O O9 0.095337 0.149454 0.360286
O O10 0.121696 0.387003 0.384301
O O11 0.020566 0.277335 0.416250
O O12 0.448242 0.095985 0.500000
O O13 0.500000 0.000000 0.622634
O O14 0.615398 0.500000 0.750000
O O15 0.164583 0.514086 0.500000
#
# Coordination Sequence:
#
# PCOD8293751 Si02
#       6
#    16  16  16  16  16  16
#     4  10  22  40  63  89 125 172 216 259 307 375
#     4  11  22  40  61  94 132 162 206 262 331 376
#     4  10  21  40  65  94 122 158 210 265 321 379
#     4  10  19  37  66  96 125 157 205 269 322 379
#     4  10  24  43  58  88 126 174 211 253 314 375
#     4  10  21  37  63  95 123 162 212 264 319 375
#
# _framework density 21.552346
#
# number of rings (size 3 to 8) (size 9 to 14) (size 15 to 20)
#    0.000    1.833    1.667    2.000    2.333    2.000 
#    6.000    6.667    0.000    9.000    0.000    0.000 
#    0.000    0.000    0.000    0.000    0.000    0.000 
#
# Total GULP energy -594744.744062 kJ/mol
# GULP energy per Si atom -12390.515501 kJ/mol
# Density = 2.150329 g / cm^3
# Si number density = 21.552346 Si / 1000 Ang^3
#
#
#
# Elastic Constant Matrix: (Units=GPa)
#
#
# Indices 1 2 3 4 5 6 
#
# 1 131.3986 43.2309 37.6370 0.0000 0.0000 0.0000
# 2 43.2309 83.9365 52.7838 0.0000 0.0000 0.0000
# 3 37.6370 52.7838 102.5388 0.0000 0.0000 0.0000
# 4 0.0000 0.0000 0.0000 45.0443 0.0000 0.0000
# 5 0.0000 0.0000 0.0000 0.0000 -6.2267 0.0000
# 6 0.0000 0.0000 0.0000 0.0000 0.0000 32.3759
#
#
#
# Elastic Compliance Matrix: (Units=1/GPa)
#
#
# Indices 1 2 3 4 5 6 
#
# 1 0.009297 -0.003907 -0.001401 0.000000 0.000000 0.000000
# 2 -0.003907 0.019259 -0.008480 0.000000 0.000000 0.000000
# 3 -0.001401 -0.008480 0.014632 0.000000 0.000000 0.000000
# 4 0.000000 0.000000 0.000000 0.022200 0.000000 0.000000
# 5 0.000000 0.000000 0.000000 0.000000 -0.160600 0.000000
# 6 0.000000 0.000000 0.000000 0.000000 0.000000 0.030887
#
#
# Mechanical properties :
#
#
# Convention : Reuss Voigt Hill
#
# Bulk Modulus (GPa) = 64.05556 65.01972 64.53764
# Shear Modulus (GPa) = -158.50663 26.52019 -65.99322
#
# Velocity S-wave (km/s) = -8.58514 3.51166 -5.53953
# Velocity P-wave (km/s) = 8.27571 6.83199 3.30237
#
# Compressibility (1/GPa) = 0.01561145
#
# Stress axis : x y z
#
# Youngs Moduli (GPa) = 107.55773 51.92481 68.34468
#
# Poissons Ratio (x) = 0.20289 0.09576
# Poissons Ratio (y) = 0.42027 0.57953
# Poissons Ratio (z) = 0.15071 0.44030
#
# Static dielectric constant tensor:
#      x y z
#    x 3.798700 0.000000 0.000000 
#    y 0.000000 3.802990 0.000000 
#    z 0.000000 0.000000 4.010660 
# 
# 
# High freq. dielectric constant tensor:
#      x y z
#    x 1.840720 0.000000 0.000000 
#    y 0.000000 1.833970 0.000000 
#    z 0.000000 0.000000 1.843810 
# 
# From -- ./inp_files/33897.got.cif
#   From: 2010.03.12/outbox.cif.g09.slc.cpg/sg72_17_cif.got.tgz:33897.got - 2010.04.16 14:54:00.
