data_PCOD8293755
_publ_section_title
;
Structure prediction by ZEFSAII (Michael W. Deem and Ramdas Pophale) SiO2 
 PCOD8293755
Probable space group: I B A M
;
_chemical_formula_sum "Si O2"
_cell_formula_units_Z 68
_cell_length_a 10.216342
_cell_length_b 12.370090
_cell_length_c 28.033234
_cell_angle_alpha 90.000000
_cell_angle_beta 90.000000
_cell_angle_gamma 90.000000
_cell_volume 3542.757976
_symmetry_space_group_name_H-M "I B A M"
_symmetry_group_IT_number 72
_symmetry_cell_setting 'orthorhombic'
loop_
_space_group_symop_operation_xyz
x,y,z
-x,-y,z
x,-y,1/2-z
-x,y,1/2-z
-x,-y,-z
x,y,-z
-x,y,1/2+z
x,-y,1/2+z
1/2+x,1/2+y,1/2+z
1/2-x,1/2-y,1/2+z
1/2+x,1/2-y,-z
1/2-x,1/2+y,-z
1/2-x,1/2-y,1/2-z
1/2+x,1/2+y,1/2-z
1/2-x,1/2+y,z
1/2+x,1/2-y,z
loop_
_atom_site_type_symbol
_atom_site_label
_atom_site_fract_x
_atom_site_fract_y
_atom_site_fract_z
Si Si1 0.139747 0.986125 0.913506
Si Si2 0.500000 0.500000 0.250000
Si Si3 0.863342 0.239997 0.865613
Si Si4 0.382081 0.649007 0.827110
Si Si5 0.390828 0.915178 0.553139
O O1 0.127435 0.066749 0.869828
O O2 0.252741 0.022537 0.949185
O O3 0.000000 0.000000 0.940717
O O4 0.176646 0.869520 0.892435
O O5 0.598181 0.422719 0.220272
O O6 0.750034 0.278681 0.828689
O O7 0.892395 0.322209 0.908105
O O8 0.992844 0.227060 0.833663
O O9 0.418451 0.868265 0.500000
O O10 0.500000 0.000000 0.568691
#
# Coordination Sequence:
#
# PCOD8293755 Si02
#       5
#    16   4  16  16  16
#     4   9  18  37  55  79 110 148 185 227 287 335
#     4  12  20  40  60  86 116 144 192 250 280 348
#     4  10  19  38  59  81 110 159 182 225 298 343
#     4  10  21  36  61  82 114 146 189 237 286 336
#     4  10  21  34  53  83 115 146 189 239 274 332
#
# _framework density 19.194084
#
# number of rings (size 3 to 8) (size 9 to 14) (size 15 to 20)
#    0.000    2.118    3.529    1.412    0.000    2.353 
#    0.000   14.118    0.000    1.412    0.000    0.000 
#    0.000    0.000    0.000    0.000    0.000    0.000 
#
# Total GULP energy -421386.656844 kJ/mol
# GULP energy per Si atom -12393.725201 kJ/mol
# Density = 1.915040 g / cm^3
# Si number density = 19.194084 Si / 1000 Ang^3
#
#
#
# Elastic Constant Matrix: (Units=GPa)
#
#
# Indices 1 2 3 4 5 6 
#
# 1 137.3229 74.1921 51.8595 0.0000 0.0000 0.0000
# 2 74.1921 92.6611 26.4927 0.0000 0.0000 0.0000
# 3 51.8595 26.4927 63.7907 0.0000 0.0000 0.0000
# 4 0.0000 0.0000 0.0000 -44.7570 0.0000 0.0000
# 5 0.0000 0.0000 0.0000 0.0000 -186.8149 0.0000
# 6 0.0000 0.0000 0.0000 0.0000 0.0000 29.7306
#
#
#
# Elastic Compliance Matrix: (Units=1/GPa)
#
#
# Indices 1 2 3 4 5 6 
#
# 1 0.016337 -0.010534 -0.008906 0.000000 0.000000 0.000000
# 2 -0.010534 0.019039 0.000657 0.000000 0.000000 0.000000
# 3 -0.008906 0.000657 0.022644 0.000000 0.000000 0.000000
# 4 0.000000 0.000000 0.000000 -0.022343 0.000000 0.000000
# 5 0.000000 0.000000 0.000000 0.000000 -0.005353 0.000000
# 6 0.000000 0.000000 0.000000 0.000000 0.000000 0.033635
#
#
# Mechanical properties :
#
#
# Convention : Reuss Voigt Hill
#
# Bulk Modulus (GPa) = 48.89393 66.54037 57.71715
# Shear Modulus (GPa) = 46.14924 -30.95291 7.59816
#
# Velocity S-wave (km/s) = 4.90873 -4.02011 1.99178
# Velocity P-wave (km/s) = 7.59317 3.63236 5.95190
#
# Compressibility (1/GPa) = 0.02045244
#
# Stress axis : x y z
#
# Youngs Moduli (GPa) = 61.21073 52.52431 44.16192
#
# Poissons Ratio (x) = 0.55331 0.39332
# Poissons Ratio (y) = 0.64481 -0.02902
# Poissons Ratio (z) = 0.54517 -0.03451
#
# Static dielectric constant tensor:
#      x y z
#    x 4.821910 0.000000 0.000000 
#    y 0.000000 3.043570 0.000000 
#    z 0.000000 0.000000 3.252530 
# 
# 
# High freq. dielectric constant tensor:
#      x y z
#    x 1.759400 0.000000 0.000000 
#    y 0.000000 1.752690 0.000000 
#    z 0.000000 0.000000 1.726570 
# 
# From -- ./inp_files/47903.got.cif
#   From: 2010.03.12/outbox.cif.g09.slc.cpg/sg72_24_cif.got.tgz:47903.got - 2010.04.16 14:54:00.
