data_PCOD8293326
_publ_section_title
;
Structure prediction by ZEFSAII (Michael W. Deem and Ramdas Pophale) SiO2 
 PCOD8293326
Probable space group: I B A M
;
_chemical_formula_sum "Si O2"
_cell_formula_units_Z 80
_cell_length_a 17.978321
_cell_length_b 27.541691
_cell_length_c 9.084627
_cell_angle_alpha 90.000000
_cell_angle_beta 90.000000
_cell_angle_gamma 90.000000
_cell_volume 4498.283599
_symmetry_space_group_name_H-M "I B A M"
_symmetry_group_IT_number 72
_symmetry_cell_setting 'orthorhombic'
loop_
_space_group_symop_operation_xyz
x,y,z
-x,-y,z
x,-y,1/2-z
-x,y,1/2-z
-x,-y,-z
x,y,-z
-x,y,1/2+z
x,-y,1/2+z
1/2+x,1/2+y,1/2+z
1/2-x,1/2-y,1/2+z
1/2+x,1/2-y,-z
1/2-x,1/2+y,-z
1/2-x,1/2-y,1/2-z
1/2+x,1/2+y,1/2-z
1/2-x,1/2+y,z
1/2+x,1/2-y,z
loop_
_atom_site_type_symbol
_atom_site_label
_atom_site_fract_x
_atom_site_fract_y
_atom_site_fract_z
Si Si1 0.927178 0.093766 0.826856
Si Si2 0.860795 0.814769 0.825160
Si Si3 0.227689 0.047935 0.330827
Si Si4 0.575885 0.788997 0.670944
Si Si5 0.218078 0.651129 0.327303
O O1 0.912428 0.145773 0.753383
O O2 0.858813 0.057868 0.794717
O O3 0.000000 0.070804 0.750000
O O4 0.940041 0.101080 0.000000
O O5 0.893032 0.762852 0.777837
O O6 0.776722 0.817629 0.765918
O O7 0.861302 0.822715 0.000000
O O8 0.239802 0.037200 0.500000
O O9 0.276230 0.094512 0.281592
O O10 0.256271 0.000000 0.250000
O O11 0.500000 0.802971 0.750000
O O12 0.558594 0.788111 0.500000
O O13 0.635988 0.830329 0.710458
O O14 0.237906 0.657491 0.500000
#
# Coordination Sequence:
#
# PCOD8293326 Si02
#       5
#    16  16  16  16  16
#     4  10  20  33  48  70 102 137 167 202 242 284
#     4  10  19  31  50  76 102 134 170 201 234 282
#     4   9  19  34  52  71  93 123 161 205 252 295
#     4  10  21  34  50  74 104 133 164 201 243 288
#     4   9  19  36  53  72 100 132 163 202 246 289
#
# _framework density 17.784562000000001
#
# number of rings (size 3 to 8) (size 9 to 14) (size 15 to 20)
#    0.000    2.400    0.000    3.600    0.000    8.400 
#    0.000    2.000    0.000    0.600    0.000    4.200 
#    0.000    0.000    0.000    0.000    0.000    0.000 
#
# Total GULP energy -496041.959262 kJ/mol
# GULP energy per Si atom -12401.048982 kJ/mol
# Density = 1.774408 g / cm^3
# Si number density = 17.784562 Si / 1000 Ang^3
#
#
#
# Elastic Constant Matrix: (Units=GPa)
#
#
# Indices 1 2 3 4 5 6 
#
# 1 95.8099 45.6909 36.0829 0.0000 0.0000 0.0000
# 2 45.6909 91.5536 34.7574 0.0000 0.0000 0.0000
# 3 36.0829 34.7574 58.8827 0.0002 0.0002 0.0001
# 4 0.0000 0.0000 0.0002 28.8265 0.0000 0.0000
# 5 0.0000 0.0000 0.0002 0.0000 31.6638 0.0000
# 6 0.0000 0.0000 0.0001 0.0000 0.0000 13.3552
#
#
#
# Elastic Compliance Matrix: (Units=1/GPa)
#
#
# Indices 1 2 3 4 5 6 
#
# 1 0.015309 -0.005256 -0.006278 0.000000 0.000000 0.000000
# 2 -0.005256 0.015882 -0.006154 0.000000 0.000000 0.000000
# 3 -0.006278 -0.006154 0.024463 0.000000 0.000000 0.000000
# 4 0.000000 0.000000 0.000000 0.034690 0.000000 0.000000
# 5 0.000000 0.000000 0.000000 0.000000 0.031582 0.000000
# 6 0.000000 0.000000 0.000000 0.000000 0.000000 0.074877
#
#
# Mechanical properties :
#
#
# Convention : Reuss Voigt Hill
#
# Bulk Modulus (GPa) = 49.31844 53.25651 51.28748
# Shear Modulus (GPa) = 20.92591 23.41676 22.17133
#
# Velocity S-wave (km/s) = 3.43393 3.63256 3.53464
# Velocity P-wave (km/s) = 6.59650 6.89959 6.74974
#
# Compressibility (1/GPa) = 0.02027639
#
# Stress axis : x y z
#
# Youngs Moduli (GPa) = 65.32315 62.96407 40.87873
#
# Poissons Ratio (x) = 0.33097 0.25664
# Poissons Ratio (y) = 0.34337 0.25156
# Poissons Ratio (z) = 0.41011 0.38747
#
# Static dielectric constant tensor:
#      x y z
#    x 3.242780 0.000000 0.000000 
#    y 0.000000 3.239420 0.000000 
#    z 0.000000 0.000000 3.288190 
# 
# 
# High freq. dielectric constant tensor:
#      x y z
#    x 1.675440 0.000000 0.000000 
#    y 0.000000 1.681280 0.000000 
#    z 0.000000 0.000000 1.691530 
# 
# From -- ./inp_files/4760.got.cif
#   From: 2010.03.12/outbox.cif.g09.slc.cpg/sg72_3_cif.got.tgz:4760.got - 2010.04.16 14:54:00.
