data_PCOD8293081
_publ_section_title
;
Structure prediction by ZEFSAII (Michael W. Deem and Ramdas Pophale) SiO2 
 PCOD8293081
Probable space group: I B A M
;
_chemical_formula_sum "Si O2"
_cell_formula_units_Z 52
_cell_length_a 5.316985
_cell_length_b 17.348060
_cell_length_c 25.979878
_cell_angle_alpha 90.000000
_cell_angle_beta 90.000000
_cell_angle_gamma 90.000000
_cell_volume 2396.367704
_symmetry_space_group_name_H-M "I B A M"
_symmetry_group_IT_number 72
_symmetry_cell_setting 'orthorhombic'
loop_
_space_group_symop_operation_xyz
x,y,z
-x,-y,z
x,-y,1/2-z
-x,y,1/2-z
-x,-y,-z
x,y,-z
-x,y,1/2+z
x,-y,1/2+z
1/2+x,1/2+y,1/2+z
1/2-x,1/2-y,1/2+z
1/2+x,1/2-y,-z
1/2-x,1/2+y,-z
1/2-x,1/2-y,1/2-z
1/2+x,1/2+y,1/2-z
1/2-x,1/2+y,z
1/2+x,1/2-y,z
loop_
_atom_site_type_symbol
_atom_site_label
_atom_site_fract_x
_atom_site_fract_y
_atom_site_fract_z
Si Si1 0.000000 0.500000 0.250000
Si Si2 0.747255 0.331857 0.603260
Si Si3 0.759622 0.646809 0.779849
Si Si4 0.252684 0.160748 0.939714
O O1 0.820714 0.554965 0.215122
O O2 0.737106 0.316420 0.664032
O O3 0.754263 0.251174 0.573210
O O4 0.498596 0.378068 0.584599
O O5 0.000637 0.377550 0.586816
O O6 0.500000 0.660859 0.750000
O O7 0.000000 0.686340 0.750000
O O8 0.260725 0.146162 0.000000
#
# Coordination Sequence:
#
# PCOD8293081 Si02
#       4
#     4  16  16  16
#     4   8  22  36  58  64 104 128 170 220 258 294
#     4  10  18  31  51  75 103 136 175 195 246 296
#     4  10  20  35  52  76 100 131 172 210 252 301
#     4  10  19  33  50  76 108 140 168 199 237 296
#
# _framework density 21.699508999999999
#
# number of rings (size 3 to 8) (size 9 to 14) (size 15 to 20)
#    0.923    1.231    0.000    6.923    0.000    0.000 
#    0.000   18.462    0.000    0.000    0.000   11.846 
#    0.000    0.000    0.000    0.000    0.000    0.000 
#
# Total GULP energy -322093.942202 kJ/mol
# GULP energy per Si atom -12388.228546 kJ/mol
# Density = 2.165012 g / cm^3
# Si number density = 21.699509 Si / 1000 Ang^3
#
#
#
# Elastic Constant Matrix: (Units=GPa)
#
#
# Indices 1 2 3 4 5 6 
#
# 1 269.9474 -7.9062 93.4693 0.0000 0.0000 0.0000
# 2 -7.9062 20.6597 -9.3890 0.0000 0.0000 0.0000
# 3 93.4693 -9.3890 181.5868 0.0000 0.0000 0.0000
# 4 0.0000 0.0000 0.0000 0.8292 0.0000 0.0000
# 5 0.0000 0.0000 0.0000 0.0000 48.0393 0.0000
# 6 0.0000 0.0000 0.0000 0.0000 0.0000 -19.7481
#
#
#
# Elastic Compliance Matrix: (Units=1/GPa)
#
#
# Indices 1 2 3 4 5 6 
#
# 1 0.004517 0.000688 -0.002290 0.000000 0.000000 0.000000
# 2 0.000688 0.049673 0.002214 -0.000001 0.000000 0.000000
# 3 -0.002290 0.002214 0.006800 0.000000 0.000000 0.000000
# 4 0.000000 -0.000001 0.000000 1.205977 0.000000 0.000000
# 5 0.000000 0.000000 0.000000 0.000000 0.020816 0.000000
# 6 0.000000 0.000000 0.000000 0.000000 0.000000 -0.050638
#
#
# Mechanical properties :
#
#
# Convention : Reuss Voigt Hill
#
# Bulk Modulus (GPa) = 16.07308 69.39356 42.73332
# Shear Modulus (GPa) = 3.97880 32.22541 18.10211
#
# Velocity S-wave (km/s) = 1.35557 3.85785 2.89142
# Velocity P-wave (km/s) = 3.14218 7.20366 5.55725
#
# Compressibility (1/GPa) = 0.06221583
#
# Stress axis : x y z
#
# Youngs Moduli (GPa) = 221.36723 20.13162 147.05734
#
# Poissons Ratio (x) = -0.01385 0.33671
# Poissons Ratio (y) = -0.15234 -0.32561
# Poissons Ratio (z) = 0.50686 -0.04457
#
# Static dielectric constant tensor:
#      x y z
#    x 8.176640 0.000000 0.000000 
#    y 0.000000 3.142140 0.000000 
#    z 0.000000 0.000000 3.678750 
# 
# 
# High freq. dielectric constant tensor:
#      x y z
#    x 1.897860 0.000000 0.000000 
#    y 0.000000 1.767460 0.000000 
#    z 0.000000 0.000000 1.851350 
# 
# From -- ./inp_files/26950.got.cif
#   From: 2010.03.12/outbox.cif.g09.slc.cpg/sg72_14_cif.got.tgz:26950.got - 2010.04.16 14:54:00.
