data_PCOD8293973
_publ_section_title
;
Structure prediction by ZEFSAII (Michael W. Deem and Ramdas Pophale) SiO2 
 PCOD8293973
Probable space group: I B A M
;
_chemical_formula_sum "Si O2"
_cell_formula_units_Z 116
_cell_length_a 19.150857
_cell_length_b 22.268452
_cell_length_c 14.076425
_cell_angle_alpha 90.000000
_cell_angle_beta 90.000000
_cell_angle_gamma 90.000000
_cell_volume 6003.031359
_symmetry_space_group_name_H-M "I B A M"
_symmetry_group_IT_number 72
_symmetry_cell_setting 'orthorhombic'
loop_
_space_group_symop_operation_xyz
x,y,z
-x,-y,z
x,-y,1/2-z
-x,y,1/2-z
-x,-y,-z
x,y,-z
-x,y,1/2+z
x,-y,1/2+z
1/2+x,1/2+y,1/2+z
1/2-x,1/2-y,1/2+z
1/2+x,1/2-y,-z
1/2-x,1/2+y,-z
1/2-x,1/2-y,1/2-z
1/2+x,1/2+y,1/2-z
1/2-x,1/2+y,z
1/2+x,1/2-y,z
loop_
_atom_site_type_symbol
_atom_site_label
_atom_site_fract_x
_atom_site_fract_y
_atom_site_fract_z
Si Si1 0.563052 0.790624 0.137447
Si Si2 0.734360 0.064843 0.280736
Si Si3 0.703675 0.859858 0.393668
Si Si4 0.203962 0.240879 0.396066
Si Si5 0.903777 0.572903 0.392971
Si Si6 0.911971 0.266337 0.354382
Si Si7 0.192290 0.837734 0.612478
Si Si8 0.000000 0.500000 0.250000
O O1 0.621157 0.745585 0.096143
O O2 0.576976 0.857294 0.101746
O O3 0.488691 0.767002 0.097668
O O4 0.573238 0.787504 0.248906
O O5 0.695875 0.089006 0.185005
O O6 0.676038 0.062508 0.362627
O O7 0.800461 0.101735 0.324459
O O8 0.763540 0.000000 0.250000
O O9 0.715688 0.887190 0.500000
O O10 0.770401 0.821988 0.351820
O O11 0.636825 0.816220 0.401604
O O12 0.239041 0.238451 0.500000
O O13 0.240575 0.299139 0.349424
O O14 0.913037 0.546662 0.500000
O O15 0.953674 0.541017 0.317871
O O16 0.877895 0.199973 0.362286
O O17 0.193828 0.853075 0.500000
#
# Coordination Sequence:
#
# PCOD8293973 Si02
#       8
#    16  16  16  16  16  16  16   4
#     4  11  20  33  56  88 119 151 184 238 300 369
#     4  12  24  40  57  82 112 157 213 248 291 350
#     4  10  21  37  56  80 113 151 190 244 299 351
#     4   9  17  31  54  81 108 143 183 225 296 364
#     4  12  25  41  60  82 117 162 206 251 297 352
#     4  10  20  34  56  88 121 149 191 241 305 369
#     4  10  20  37  59  85 118 156 197 249 307 362
#     4  12  26  48  52  78 112 164 218 254 286 334
#
# _framework density 19.323571999999999
#
# number of rings (size 3 to 8) (size 9 to 14) (size 15 to 20)
#    0.000    1.379    3.448    3.931    0.000    5.517 
#    0.000    0.000    0.000    0.000    0.000    7.724 
#    0.000   12.138    0.000    0.000    0.000    0.000 
#
# Total GULP energy -718677.499112 kJ/mol
# GULP energy per Si atom -12390.991364 kJ/mol
# Density = 1.927959 g / cm^3
# Si number density = 19.323572 Si / 1000 Ang^3
#
#
#
# Elastic Constant Matrix: (Units=GPa)
#
#
# Indices 1 2 3 4 5 6 
#
# 1 97.0950 28.2186 8.1019 0.0000 0.0000 0.0000
# 2 28.2186 72.3589 27.2727 0.0000 0.0000 0.0000
# 3 8.1019 27.2727 113.1658 0.0000 0.0000 0.0000
# 4 0.0000 0.0000 0.0000 12.5100 0.0000 0.0000
# 5 0.0000 0.0000 0.0000 0.0000 12.5431 0.0000
# 6 0.0000 0.0000 0.0000 0.0000 0.0000 31.2262
#
#
#
# Elastic Compliance Matrix: (Units=1/GPa)
#
#
# Indices 1 2 3 4 5 6 
#
# 1 0.011624 -0.004641 0.000286 0.000000 0.000000 0.000000
# 2 -0.004641 0.017054 -0.003778 0.000000 0.000000 0.000000
# 3 0.000286 -0.003778 0.009727 0.000000 0.000000 0.000000
# 4 0.000000 0.000000 0.000000 0.079936 0.000000 0.000000
# 5 0.000000 0.000000 0.000000 0.000000 0.079725 0.000000
# 6 0.000000 0.000000 0.000000 0.000000 0.000000 0.032024
#
#
# Mechanical properties :
#
#
# Convention : Reuss Voigt Hill
#
# Bulk Modulus (GPa) = 45.16818 45.53403 45.35110
# Shear Modulus (GPa) = 19.70558 25.85761 22.78159
#
# Velocity S-wave (km/s) = 3.19685 3.66203 3.43731
# Velocity P-wave (km/s) = 6.08702 6.44172 6.26688
#
# Compressibility (1/GPa) = 0.02213948
#
# Stress axis : x y z
#
# Youngs Moduli (GPa) = 86.02787 58.63806 102.81190
#
# Poissons Ratio (x) = 0.27214 -0.02943
# Poissons Ratio (y) = 0.39926 0.38839
# Poissons Ratio (z) = -0.02463 0.22151
#
# Static dielectric constant tensor:
#      x y z
#    x 3.846600 0.000000 0.000000 
#    y 0.000000 3.407430 0.000000 
#    z 0.000000 0.000000 3.700000 
# 
# 
# High freq. dielectric constant tensor:
#      x y z
#    x 1.732320 0.000000 0.000000 
#    y 0.000000 1.720630 0.000000 
#    z 0.000000 0.000000 1.780010 
# 
# From -- ./inp_files/23539.got.cif
#   From: 2010.03.12/outbox.cif.g09.slc.cpg/sg72_12_cif.got.tgz:23539.got - 2010.04.16 14:54:00.
