data_PCOD8293576
_publ_section_title
;
Structure prediction by ZEFSAII (Michael W. Deem and Ramdas Pophale) SiO2 
 PCOD8293576
Probable space group: I B A M
;
_chemical_formula_sum "Si O2"
_cell_formula_units_Z 96
_cell_length_a 16.696763
_cell_length_b 17.863428
_cell_length_c 18.188272
_cell_angle_alpha 90.000000
_cell_angle_beta 90.000000
_cell_angle_gamma 90.000000
_cell_volume 5424.859901
_symmetry_space_group_name_H-M "I B A M"
_symmetry_group_IT_number 72
_symmetry_cell_setting 'orthorhombic'
loop_
_space_group_symop_operation_xyz
x,y,z
-x,-y,z
x,-y,1/2-z
-x,y,1/2-z
-x,-y,-z
x,y,-z
-x,y,1/2+z
x,-y,1/2+z
1/2+x,1/2+y,1/2+z
1/2-x,1/2-y,1/2+z
1/2+x,1/2-y,-z
1/2-x,1/2+y,-z
1/2-x,1/2-y,1/2-z
1/2+x,1/2+y,1/2-z
1/2-x,1/2+y,z
1/2+x,1/2-y,z
loop_
_atom_site_type_symbol
_atom_site_label
_atom_site_fract_x
_atom_site_fract_y
_atom_site_fract_z
Si Si1 0.907954 0.079119 0.770699
Si Si2 0.064005 0.722100 0.152307
Si Si3 0.015959 0.416816 0.085912
Si Si4 0.394942 0.728790 0.196542
Si Si5 0.174442 0.330091 0.916835
Si Si6 0.644089 0.354485 0.582728
O O1 0.868046 0.146162 0.723376
O O2 0.898868 0.092388 0.858028
O O3 0.000000 0.076157 0.750000
O O4 0.866649 0.000000 0.750000
O O5 0.104943 0.716257 0.232484
O O6 0.120973 0.767374 0.096160
O O7 0.047071 0.638929 0.124037
O O8 0.982908 0.771633 0.159684
O O9 0.106898 0.391689 0.103694
O O10 0.000000 0.500000 0.117282
O O11 0.997880 0.414600 0.000000
O O12 0.331463 0.758869 0.137354
O O13 0.260975 0.366769 0.907877
O O14 0.160949 0.301135 0.000000
O O15 0.617801 0.377147 0.500000
#
# Coordination Sequence:
#
# PCOD8293576 Si02
#       6
#    16  16  16  16  16  16
#     4  10  19  35  53  74 106 138 172 217 269 317
#     4   9  16  29  51  74  96 128 174 212 251 311
#     4   9  17  31  50  73 103 139 169 211 267 318
#     4   9  16  33  50  74  98 132 168 210 259 306
#     4   9  19  33  51  75 106 135 174 222 266 313
#     4  10  19  34  54  77 101 137 177 221 267 316
#
# _framework density 17.69631
#
# number of rings (size 3 to 8) (size 9 to 14) (size 15 to 20)
#    0.000    2.667    3.333    0.500    0.000    3.333 
#    0.000   12.500    0.000    4.000    0.000    0.000 
#    0.000    0.000    0.000    0.000    0.000    0.000 
#
# Total GULP energy -594981.001690 kJ/mol
# GULP energy per Si atom -12395.437535 kJ/mol
# Density = 1.765603 g / cm^3
# Si number density = 17.696310 Si / 1000 Ang^3
#
#
#
# Elastic Constant Matrix: (Units=GPa)
#
#
# Indices 1 2 3 4 5 6 
#
# 1 55.6812 28.7328 41.5253 0.0000 0.0000 0.0000
# 2 28.7328 145.5130 61.5370 0.0000 0.0000 0.0000
# 3 41.5253 61.5370 118.5211 0.0000 0.0000 0.0000
# 4 0.0000 0.0000 0.0000 21.5389 0.0000 0.0000
# 5 0.0000 0.0000 0.0000 0.0000 25.6308 0.0000
# 6 0.0000 0.0000 0.0000 0.0000 0.0000 11.5725
#
#
#
# Elastic Compliance Matrix: (Units=1/GPa)
#
#
# Indices 1 2 3 4 5 6 
#
# 1 0.024583 -0.001553 -0.007807 0.000000 0.000000 0.000000
# 2 -0.001553 0.008904 -0.004079 0.000000 0.000000 0.000000
# 3 -0.007807 -0.004079 0.013290 0.000000 0.000000 0.000000
# 4 0.000000 0.000000 0.000000 0.046428 0.000000 0.000000
# 5 0.000000 0.000000 0.000000 0.000000 0.039016 0.000000
# 6 0.000000 0.000000 0.000000 0.000000 0.000000 0.086412
#
#
# Mechanical properties :
#
#
# Convention : Reuss Voigt Hill
#
# Bulk Modulus (GPa) = 50.25079 64.81170 57.53124
# Shear Modulus (GPa) = 19.83012 24.27644 22.05328
#
# Velocity S-wave (km/s) = 3.35114 3.70785 3.53400
# Velocity P-wave (km/s) = 6.59025 7.41854 7.01663
#
# Compressibility (1/GPa) = 0.01990019
#
# Stress axis : x y z
#
# Youngs Moduli (GPa) = 40.67933 112.31182 75.24303
#
# Poissons Ratio (x) = 0.17438 0.58740
# Poissons Ratio (y) = 0.06316 0.30691
# Poissons Ratio (z) = 0.31757 0.45811
#
# Static dielectric constant tensor:
#      x y z
#    x 3.110230 0.000000 0.000000 
#    y 0.000000 3.587830 0.000000 
#    z 0.000000 0.000000 3.426980 
# 
# 
# High freq. dielectric constant tensor:
#      x y z
#    x 1.663580 0.000000 0.000000 
#    y 0.000000 1.663590 0.000000 
#    z 0.000000 0.000000 1.692160 
# 
# From -- ./inp_files/31603.got.cif
#   From: 2010.03.12/outbox.cif.g09.slc.cpg/sg72_16_cif.got.tgz:31603.got - 2010.04.16 14:54:00.
