data_PCOD8293775
_publ_section_title
;
Structure prediction by ZEFSAII (Michael W. Deem and Ramdas Pophale) SiO2 
 PCOD8293775
Probable space group: I B A M
;
_chemical_formula_sum "Si O2"
_cell_formula_units_Z 64
_cell_length_a 12.326733
_cell_length_b 14.700345
_cell_length_c 16.156494
_cell_angle_alpha 90.000000
_cell_angle_beta 90.000000
_cell_angle_gamma 90.000000
_cell_volume 2927.673489
_symmetry_space_group_name_H-M "I B A M"
_symmetry_group_IT_number 72
_symmetry_cell_setting 'orthorhombic'
loop_
_space_group_symop_operation_xyz
x,y,z
-x,-y,z
x,-y,1/2-z
-x,y,1/2-z
-x,-y,-z
x,y,-z
-x,y,1/2+z
x,-y,1/2+z
1/2+x,1/2+y,1/2+z
1/2-x,1/2-y,1/2+z
1/2+x,1/2-y,-z
1/2-x,1/2+y,-z
1/2-x,1/2-y,1/2-z
1/2+x,1/2+y,1/2-z
1/2-x,1/2+y,z
1/2+x,1/2-y,z
loop_
_atom_site_type_symbol
_atom_site_label
_atom_site_fract_x
_atom_site_fract_y
_atom_site_fract_z
Si Si1 0.001876 0.891055 0.500000
Si Si2 0.676207 0.068359 0.324338
Si Si3 0.887194 0.446874 0.000000
Si Si4 0.500000 0.817359 0.750000
Si Si5 0.351524 0.698848 0.865056
Si Si6 0.310847 0.255464 0.000000
O O1 0.881899 0.846950 0.500000
O O2 0.063012 0.857077 0.418814
O O3 0.000000 0.000000 0.500000
O O4 0.676972 0.023041 0.416498
O O5 0.563338 0.123499 0.318151
O O6 0.782403 0.128563 0.310996
O O7 0.678873 0.000000 0.250000
O O8 0.888389 0.335192 0.000000
O O9 0.000000 0.500000 0.000000
O O10 0.412312 0.760670 0.799883
O O11 0.267391 0.757080 0.920175
#
# Coordination Sequence:
#
# PCOD8293775 Si02
#       6
#     8  16   8   8  16   8
#     4  11  24  43  65  93 127 172 223 270 328 402
#     4  11  24  41  63  98 132 166 216 273 329 394
#     4  10  19  38  66  95 129 168 211 268 329 390
#     4  12  23  40  65  92 126 172 218 268 334 400
#     4  10  23  41  64  91 126 171 218 270 331 394
#     4   9  21  43  64  94 134 170 220 278 331 394
#
# _framework density 21.860361000000001
#
# number of rings (size 3 to 8) (size 9 to 14) (size 15 to 20)
#    0.000    1.500    0.000    6.375    0.000    5.000 
#    0.000   13.750    0.000    1.500    0.000    0.000 
#    0.000    0.000    0.000    0.000    0.000    0.000 
#
# Total GULP energy -396715.889014 kJ/mol
# GULP energy per Si atom -12397.371532 kJ/mol
# Density = 2.181061 g / cm^3
# Si number density = 21.860361 Si / 1000 Ang^3
#
#
#
# Elastic Constant Matrix: (Units=GPa)
#
#
# Indices 1 2 3 4 5 6 
#
# 1 147.2365 68.2633 65.6649 0.0000 0.0000 0.0000
# 2 68.2633 106.8595 70.2840 0.0000 0.0000 0.0000
# 3 65.6649 70.2840 169.4595 0.0000 0.0000 0.0000
# 4 0.0000 0.0000 0.0000 24.4226 0.0000 0.0000
# 5 0.0000 0.0000 0.0000 0.0000 42.5957 0.0000
# 6 0.0000 0.0000 0.0000 0.0000 0.0000 20.1945
#
#
#
# Elastic Compliance Matrix: (Units=1/GPa)
#
#
# Indices 1 2 3 4 5 6 
#
# 1 0.009987 -0.005273 -0.001683 0.000000 0.000000 0.000000
# 2 -0.005273 0.015653 -0.004449 0.000000 0.000000 0.000000
# 3 -0.001683 -0.004449 0.008398 0.000000 0.000000 0.000000
# 4 0.000000 0.000000 0.000000 0.040946 0.000000 0.000000
# 5 0.000000 0.000000 0.000000 0.000000 0.023477 0.000000
# 6 0.000000 0.000000 0.000000 0.000000 0.000000 0.049518
#
#
# Mechanical properties :
#
#
# Convention : Reuss Voigt Hill
#
# Bulk Modulus (GPa) = 89.05726 92.44221 90.74973
# Shear Modulus (GPa) = 28.64825 32.06546 30.35685
#
# Velocity S-wave (km/s) = 3.62403 3.83408 3.73053
# Velocity P-wave (km/s) = 7.63800 7.87271 7.75624
#
# Compressibility (1/GPa) = 0.01122873
#
# Stress axis : x y z
#
# Youngs Moduli (GPa) = 100.12945 63.88745 119.07067
#
# Poissons Ratio (x) = 0.33688 0.20039
# Poissons Ratio (y) = 0.52798 0.52971
# Poissons Ratio (z) = 0.16852 0.28422
#
# Static dielectric constant tensor:
#      x y z
#    x 4.013230 0.000000 0.000000 
#    y 0.000000 3.833900 0.000000 
#    z 0.000000 0.000000 3.659930 
# 
# 
# High freq. dielectric constant tensor:
#      x y z
#    x 1.869680 0.000000 0.000000 
#    y 0.000000 1.842250 0.000000 
#    z 0.000000 0.000000 1.878010 
# 
# From -- ./inp_files/28867.got.cif
#   From: 2010.03.12/outbox.cif.g09.slc.cpg/sg72_15_cif.got.tgz:28867.got - 2010.04.16 14:54:00.
