data_PCOD8293914
_publ_section_title
;
Structure prediction by ZEFSAII (Michael W. Deem and Ramdas Pophale) SiO2 
 PCOD8293914
Probable space group: I B A M
;
_chemical_formula_sum "Si O2"
_cell_formula_units_Z 96
_cell_length_a 23.465557
_cell_length_b 25.228935
_cell_length_c 8.769540
_cell_angle_alpha 90.000000
_cell_angle_beta 90.000000
_cell_angle_gamma 90.000000
_cell_volume 5191.664253
_symmetry_space_group_name_H-M "I B A M"
_symmetry_group_IT_number 72
_symmetry_cell_setting 'orthorhombic'
loop_
_space_group_symop_operation_xyz
x,y,z
-x,-y,z
x,-y,1/2-z
-x,y,1/2-z
-x,-y,-z
x,y,-z
-x,y,1/2+z
x,-y,1/2+z
1/2+x,1/2+y,1/2+z
1/2-x,1/2-y,1/2+z
1/2+x,1/2-y,-z
1/2-x,1/2+y,-z
1/2-x,1/2-y,1/2-z
1/2+x,1/2+y,1/2-z
1/2-x,1/2+y,z
1/2+x,1/2-y,z
loop_
_atom_site_type_symbol
_atom_site_label
_atom_site_fract_x
_atom_site_fract_y
_atom_site_fract_z
Si Si1 0.940236 0.056474 0.819567
Si Si2 0.873247 0.851885 0.178730
Si Si3 0.360126 0.847378 0.179412
Si Si4 0.251006 0.692033 0.821210
Si Si5 0.061005 0.747539 0.320613
Si Si6 0.439773 0.944082 0.819751
O O1 0.890570 0.097067 0.775923
O O2 0.000000 0.076731 0.750000
O O3 0.923438 0.000000 0.750000
O O4 0.946329 0.051611 0.000000
O O5 0.809053 0.837487 0.223460
O O6 0.914157 0.803957 0.229293
O O7 0.879549 0.864113 0.000000
O O8 0.299430 0.845477 0.261883
O O9 0.397256 0.798184 0.240167
O O10 0.391607 0.901692 0.224031
O O11 0.349818 0.842944 0.000000
O O12 0.250000 0.750000 0.750000
O O13 0.246249 0.699856 0.000000
O O14 0.055173 0.743008 0.500000
O O15 0.000000 0.738210 0.250000
O O16 0.500000 0.925580 0.750000
O O17 0.420293 0.000000 0.750000
O O18 0.447305 0.949468 0.000000
#
# Coordination Sequence:
#
# PCOD8293914 Si02
#       6
#    16  16  16  16  16  16
#     4  11  22  38  61  87 116 151 189 232 282 339
#     4  10  21  38  57  81 114 149 188 235 281 332
#     4  10  21  38  56  80 113 150 190 235 281 334
#     4  11  22  38  60  83 113 152 191 234 280 337
#     4  10  20  34  52  78 113 144 180 229 281 335
#     4  10  20  35  58  83 115 150 189 236 284 340
#
# _framework density 18.49118
#
# number of rings (size 3 to 8) (size 9 to 14) (size 15 to 20)
#    0.000    1.667    1.667    4.500    0.000    5.333 
#    0.000    0.833    0.000    2.000    0.000    0.000 
#    0.000    0.000    0.000    0.000    0.000    0.000 
#
# Total GULP energy -595403.332110 kJ/mol
# GULP energy per Si atom -12404.236086 kJ/mol
# Density = 1.844909 g / cm^3
# Si number density = 18.491180 Si / 1000 Ang^3
#
#
#
# Elastic Constant Matrix: (Units=GPa)
#
#
# Indices 1 2 3 4 5 6 
#
# 1 125.8743 67.8168 53.1543 0.0000 0.0000 0.0000
# 2 67.8168 120.1341 54.8376 0.0000 0.0000 0.0000
# 3 53.1543 54.8376 88.5715 0.0000 0.0000 0.0000
# 4 0.0000 0.0000 0.0000 29.8348 0.0000 0.0000
# 5 0.0000 0.0000 0.0000 0.0000 34.7172 0.0000
# 6 0.0000 0.0000 0.0000 0.0000 0.0000 33.0062
#
#
#
# Elastic Compliance Matrix: (Units=1/GPa)
#
#
# Indices 1 2 3 4 5 6 
#
# 1 0.012526 -0.005073 -0.004376 0.000000 0.000000 0.000000
# 2 -0.005073 0.013658 -0.005412 0.000000 0.000000 0.000000
# 3 -0.004376 -0.005412 0.017267 0.000000 0.000000 0.000000
# 4 0.000000 0.000000 0.000000 0.033518 0.000000 0.000000
# 5 0.000000 0.000000 0.000000 0.000000 0.028804 0.000000
# 6 0.000000 0.000000 0.000000 0.000000 0.000000 0.030297
#
#
# Mechanical properties :
#
#
# Convention : Reuss Voigt Hill
#
# Bulk Modulus (GPa) = 72.83820 76.24412 74.54116
# Shear Modulus (GPa) = 29.34819 30.09640 29.72229
#
# Velocity S-wave (km/s) = 3.98822 4.03874 4.01356
# Velocity P-wave (km/s) = 7.79000 7.94171 7.86622
#
# Compressibility (1/GPa) = 0.01372906
#
# Stress axis : x y z
#
# Youngs Moduli (GPa) = 79.83607 73.21597 57.91421
#
# Poissons Ratio (x) = 0.37145 0.25343
# Poissons Ratio (y) = 0.40504 0.31341
# Poissons Ratio (z) = 0.34936 0.39621
#
# Static dielectric constant tensor:
#      x y z
#    x 3.484110 0.000000 0.000000 
#    y 0.000000 3.474190 0.000000 
#    z 0.000000 0.000000 3.370350 
# 
# 
# High freq. dielectric constant tensor:
#      x y z
#    x 1.719470 0.000000 0.000000 
#    y 0.000000 1.721070 0.000000 
#    z 0.000000 0.000000 1.720680 
# 
# From -- ./inp_files/5995.got.cif
#   From: 2010.03.12/outbox.cif.g09.slc.cpg/sg72_3_cif.got.tgz:5995.got - 2010.04.16 14:54:00.
