data_PCOD8293975
_publ_section_title
;
Structure prediction by ZEFSAII (Michael W. Deem and Ramdas Pophale) SiO2 
 PCOD8293975
Probable space group: I B A M
;
_chemical_formula_sum "Si O2"
_cell_formula_units_Z 116
_cell_length_a 16.117221
_cell_length_b 23.612412
_cell_length_c 14.354772
_cell_angle_alpha 90.000000
_cell_angle_beta 90.000000
_cell_angle_gamma 90.000000
_cell_volume 5462.944801
_symmetry_space_group_name_H-M "I B A M"
_symmetry_group_IT_number 72
_symmetry_cell_setting 'orthorhombic'
loop_
_space_group_symop_operation_xyz
x,y,z
-x,-y,z
x,-y,1/2-z
-x,y,1/2-z
-x,-y,-z
x,y,-z
-x,y,1/2+z
x,-y,1/2+z
1/2+x,1/2+y,1/2+z
1/2-x,1/2-y,1/2+z
1/2+x,1/2-y,-z
1/2-x,1/2+y,-z
1/2-x,1/2-y,1/2-z
1/2+x,1/2+y,1/2-z
1/2-x,1/2+y,z
1/2+x,1/2-y,z
loop_
_atom_site_type_symbol
_atom_site_label
_atom_site_fract_x
_atom_site_fract_y
_atom_site_fract_z
Si Si1 0.195388 0.990197 0.609248
Si Si2 0.329672 0.701031 0.602207
Si Si3 0.602728 0.378917 0.890298
Si Si4 0.422683 0.585937 0.391755
Si Si5 0.090269 0.769400 0.278004
Si Si6 0.643209 0.826669 0.601732
Si Si7 0.633740 0.044437 0.110266
Si Si8 0.000000 0.500000 0.750000
O O1 0.193417 0.001711 0.500000
O O2 0.173728 0.925193 0.633243
O O3 0.125423 0.032099 0.654153
O O4 0.288636 0.005268 0.643062
O O5 0.364189 0.719482 0.500000
O O6 0.364470 0.639402 0.628340
O O7 0.358029 0.743013 0.683823
O O8 0.231532 0.703530 0.600319
O O9 0.515000 0.403364 0.851250
O O10 0.628330 0.320197 0.840578
O O11 0.597229 0.366229 0.000000
O O12 0.434524 0.573782 0.500000
O O13 0.084650 0.709380 0.330529
O O14 0.000000 0.789771 0.250000
O O15 0.601339 0.824247 0.500000
O O16 0.657874 0.891025 0.630857
O O17 0.556183 0.035473 0.178505
O O18 0.612085 0.034360 0.000000
#
# Coordination Sequence:
#
# PCOD8293975 Si02
#       8
#    16  16  16  16  16  16  16   4
#     4   9  17  34  62  89 120 164 207 252 308 378
#     4  10  20  38  61  83 115 164 213 258 306 366
#     4  10  20  34  56  91 134 168 200 248 308 369
#     4   9  15  30  56  85 118 162 205 240 297 374
#     4  12  24  36  58  90 129 166 212 258 309 374
#     4  10  22  42  67  87 116 165 217 262 313 377
#     4  10  22  43  67  93 122 158 207 265 327 384
#     4  12  26  40  68  94 122 152 198 272 338 382
#
# _framework density 21.233968000000001
#
# number of rings (size 3 to 8) (size 9 to 14) (size 15 to 20)
#    0.000    1.931    2.759    1.448    0.966    3.310 
#    0.000    0.000    0.000    0.000    0.000    0.000 
#    0.000    0.000    0.000    0.000    0.000    0.000 
#
# Total GULP energy -718832.966326 kJ/mol
# GULP energy per Si atom -12393.671833 kJ/mol
# Density = 2.118564 g / cm^3
# Si number density = 21.233968 Si / 1000 Ang^3
#
#
#
# Elastic Constant Matrix: (Units=GPa)
#
#
# Indices 1 2 3 4 5 6 
#
# 1 83.9761 32.4801 34.4390 0.0000 0.0000 0.0000
# 2 32.4801 81.8796 39.7922 0.0001 0.0000 0.0000
# 3 34.4390 39.7922 96.1471 0.0002 0.0000 0.0000
# 4 0.0000 0.0001 0.0002 15.0820 0.0000 0.0000
# 5 0.0000 0.0000 0.0000 0.0000 22.9364 0.0000
# 6 0.0000 0.0000 0.0000 0.0000 0.0000 9.7214
#
#
#
# Elastic Compliance Matrix: (Units=1/GPa)
#
#
# Indices 1 2 3 4 5 6 
#
# 1 0.015024 -0.004186 -0.003649 0.000000 0.000000 0.000000
# 2 -0.004186 0.016455 -0.005310 0.000000 0.000000 0.000000
# 3 -0.003649 -0.005310 0.013906 0.000000 0.000000 0.000000
# 4 0.000000 0.000000 0.000000 0.066304 0.000000 0.000000
# 5 0.000000 0.000000 0.000000 0.000000 0.043599 0.000000
# 6 0.000000 0.000000 0.000000 0.000000 0.000000 0.102866
#
#
# Mechanical properties :
#
#
# Convention : Reuss Voigt Hill
#
# Bulk Modulus (GPa) = 52.37647 52.82502 52.60074
# Shear Modulus (GPa) = 17.19348 19.90074 18.54711
#
# Velocity S-wave (km/s) = 2.84864 3.06471 2.95865
# Velocity P-wave (km/s) = 5.96151 6.12004 6.04129
#
# Compressibility (1/GPa) = 0.01909254
#
# Stress axis : x y z
#
# Youngs Moduli (GPa) = 66.56139 60.77349 71.91390
#
# Poissons Ratio (x) = 0.25442 0.26239
# Poissons Ratio (y) = 0.27865 0.38190
# Poissons Ratio (z) = 0.24286 0.32274
#
# Static dielectric constant tensor:
#      x y z
#    x 3.777240 0.000000 0.000000 
#    y 0.000000 3.573380 0.000000 
#    z 0.000000 0.000000 4.030810 
# 
# 
# High freq. dielectric constant tensor:
#      x y z
#    x 1.817850 0.000000 0.000000 
#    y 0.000000 1.813000 0.000000 
#    z 0.000000 0.000000 1.837510 
# 
# From -- ./inp_files/23546.got.cif
#   From: 2010.03.12/outbox.cif.g09.slc.cpg/sg72_12_cif.got.tgz:23546.got - 2010.04.16 14:54:00.
