data_PCOD8293416
_publ_section_title
;
Structure prediction by ZEFSAII (Michael W. Deem and Ramdas Pophale) SiO2 
 PCOD8293416
Probable space group: I B A M
;
_chemical_formula_sum "Si O2"
_cell_formula_units_Z 116
_cell_length_a 32.442239
_cell_length_b 21.662238
_cell_length_c 8.980470
_cell_angle_alpha 90.000000
_cell_angle_beta 90.000000
_cell_angle_gamma 90.000000
_cell_volume 6311.218395
_symmetry_space_group_name_H-M "I B A M"
_symmetry_group_IT_number 72
_symmetry_cell_setting 'orthorhombic'
loop_
_space_group_symop_operation_xyz
x,y,z
-x,-y,z
x,-y,1/2-z
-x,y,1/2-z
-x,-y,-z
x,y,-z
-x,y,1/2+z
x,-y,1/2+z
1/2+x,1/2+y,1/2+z
1/2-x,1/2-y,1/2+z
1/2+x,1/2-y,-z
1/2-x,1/2+y,-z
1/2-x,1/2-y,1/2-z
1/2+x,1/2+y,1/2-z
1/2-x,1/2+y,z
1/2+x,1/2-y,z
loop_
_atom_site_type_symbol
_atom_site_label
_atom_site_fract_x
_atom_site_fract_y
_atom_site_fract_z
Si Si1 0.188670 0.710241 0.173698
Si Si2 0.586919 0.564788 0.323029
Si Si3 0.957133 0.810677 0.174618
Si Si4 0.398762 0.199051 0.323973
Si Si5 0.961307 0.619806 0.334122
Si Si6 0.671774 0.438112 0.673457
Si Si7 0.763999 0.833263 0.329900
Si Si8 0.000000 0.500000 0.750000
O O1 0.147220 0.700872 0.264192
O O2 0.206374 0.777087 0.215135
O O3 0.223412 0.661691 0.227261
O O4 0.179526 0.701563 0.000000
O O5 0.572022 0.500000 0.250000
O O6 0.590192 0.556262 0.500000
O O7 0.555974 0.619862 0.279344
O O8 0.630973 0.585244 0.257618
O O9 0.922850 0.761013 0.226840
O O10 0.000000 0.793954 0.250000
O O11 0.963300 0.805983 0.000000
O O12 0.397863 0.191837 0.500000
O O13 0.420305 0.138014 0.255544
O O14 0.958120 0.646532 0.500000
O O15 0.000000 0.652023 0.250000
O O16 0.969384 0.545357 0.342866
O O17 0.687280 0.500000 0.750000
O O18 0.660984 0.447408 0.500000
O O19 0.709682 0.393490 0.698251
O O20 0.749483 0.826281 0.500000
#
# Coordination Sequence:
#
# PCOD8293416 Si02
#       8
#    16  16  16  16  16  16  16   4
#     4  10  20  34  55  81 107 139 177 218 266 319
#     4  10  20  35  53  76 105 139 183 226 268 316
#     4  10  23  38  53  76 106 142 180 222 271 321
#     4  11  22  36  55  80 112 145 178 221 272 320
#     4  10  20  35  57  83 110 140 178 219 263 314
#     4  10  19  32  53  79 106 138 175 216 262 310
#     4   9  19  35  54  78 108 140 175 216 265 321
#     4   8  22  36  62  84 114 140 180 220 262 312
#
# _framework density 18.379968999999999
#
# number of rings (size 3 to 8) (size 9 to 14) (size 15 to 20)
#    0.414    1.655    0.000    4.345    0.000    5.241 
#    0.000    1.379    1.517    0.000    0.000    0.000 
#    0.000    0.000    0.000    0.000    0.000    0.000 
#
# Total GULP energy -719009.670345 kJ/mol
# GULP energy per Si atom -12396.718454 kJ/mol
# Density = 1.833814 g / cm^3
# Si number density = 18.379969 Si / 1000 Ang^3
#
#
#
# Elastic Constant Matrix: (Units=GPa)
#
#
# Indices 1 2 3 4 5 6 
#
# 1 120.6792 48.3055 54.1256 0.0000 0.0000 0.0000
# 2 48.3055 77.4120 36.8295 0.0000 0.0000 0.0000
# 3 54.1256 36.8295 104.0264 0.0000 0.0000 0.0000
# 4 0.0000 0.0000 0.0000 24.1959 0.0000 0.0000
# 5 0.0000 0.0000 0.0000 0.0000 36.5993 0.0000
# 6 0.0000 0.0000 0.0000 0.0000 0.0000 34.8553
#
#
#
# Elastic Compliance Matrix: (Units=1/GPa)
#
#
# Indices 1 2 3 4 5 6 
#
# 1 0.012607 -0.005707 -0.004539 0.000000 0.000000 0.000000
# 2 -0.005707 0.018118 -0.003445 0.000000 0.000000 0.000000
# 3 -0.004539 -0.003445 0.013194 0.000000 0.000000 0.000000
# 4 0.000000 0.000000 0.000000 0.041329 0.000000 0.000000
# 5 0.000000 0.000000 0.000000 0.000000 0.027323 0.000000
# 6 0.000000 0.000000 0.000000 0.000000 0.000000 0.028690
#
#
# Mechanical properties :
#
#
# Convention : Reuss Voigt Hill
#
# Bulk Modulus (GPa) = 60.47055 64.51542 62.49299
# Shear Modulus (GPa) = 28.70996 29.98724 29.34860
#
# Velocity S-wave (km/s) = 3.95653 4.04359 4.00030
# Velocity P-wave (km/s) = 7.33784 7.54837 7.44385
#
# Compressibility (1/GPa) = 0.01653698
#
# Stress axis : x y z
#
# Youngs Moduli (GPa) = 79.32371 55.19294 75.79115
#
# Poissons Ratio (x) = 0.31500 0.34399
# Poissons Ratio (y) = 0.45272 0.26111
# Poissons Ratio (z) = 0.36003 0.19014
#
# Static dielectric constant tensor:
#      x y z
#    x 3.295200 0.000000 0.000000 
#    y 0.000000 3.336690 0.000000 
#    z 0.000000 0.000000 3.455260 
# 
# 
# High freq. dielectric constant tensor:
#      x y z
#    x 1.707810 0.000000 0.000000 
#    y 0.000000 1.704260 0.000000 
#    z 0.000000 0.000000 1.723270 
# 
# From -- ./inp_files/9344.got.cif
#   From: 2010.03.12/outbox.cif.g09.slc.cpg/sg72_5_cif.got.tgz:9344.got - 2010.04.16 14:54:00.
