data_PCOD8293028
_publ_section_title
;
Structure prediction by ZEFSAII (Michael W. Deem and Ramdas Pophale) SiO2 
 PCOD8293028
Probable space group: I B A M
;
_chemical_formula_sum "Si O2"
_cell_formula_units_Z 128
_cell_length_a 19.826295
_cell_length_b 21.688095
_cell_length_c 18.271618
_cell_angle_alpha 90.000000
_cell_angle_beta 90.000000
_cell_angle_gamma 90.000000
_cell_volume 7856.696515
_symmetry_space_group_name_H-M "I B A M"
_symmetry_group_IT_number 72
_symmetry_cell_setting 'orthorhombic'
loop_
_space_group_symop_operation_xyz
x,y,z
-x,-y,z
x,-y,1/2-z
-x,y,1/2-z
-x,-y,-z
x,y,-z
-x,y,1/2+z
x,-y,1/2+z
1/2+x,1/2+y,1/2+z
1/2-x,1/2-y,1/2+z
1/2+x,1/2-y,-z
1/2-x,1/2+y,-z
1/2-x,1/2-y,1/2-z
1/2+x,1/2+y,1/2-z
1/2-x,1/2+y,z
1/2+x,1/2-y,z
loop_
_atom_site_type_symbol
_atom_site_label
_atom_site_fract_x
_atom_site_fract_y
_atom_site_fract_z
Si Si1 0.189920 0.926140 0.581637
Si Si2 0.244978 0.780240 0.862182
Si Si3 0.342266 0.382618 0.821915
Si Si4 0.075564 0.783830 0.730083
Si Si5 0.670243 0.188183 0.721560
Si Si6 0.925987 0.021325 0.084367
Si Si7 0.860345 0.790834 0.080212
Si Si8 0.271195 0.937906 0.279789
O O1 0.217904 0.938556 0.500000
O O2 0.178009 0.854314 0.595479
O O3 0.244852 0.950660 0.638414
O O4 0.119675 0.961230 0.593076
O O5 0.199995 0.840977 0.881357
O O6 0.278244 0.794044 0.784685
O O7 0.197311 0.719820 0.853195
O O8 0.304110 0.763990 0.919406
O O9 0.377871 0.336425 0.765032
O O10 0.396873 0.423720 0.864999
O O11 0.291820 0.423839 0.773824
O O12 0.096478 0.716176 0.760619
O O13 0.082981 0.782459 0.641987
O O14 0.000000 0.798940 0.750000
O O15 0.670546 0.114123 0.715897
O O16 0.928859 0.044324 0.000000
O O17 0.000000 0.000000 0.111560
O O18 0.895091 0.790498 0.000000
O O19 0.306323 0.000000 0.250000
#
# Coordination Sequence:
#
# PCOD8293028 Si02
#       8
#    16  16  16  16  16  16  16  16
#     4  10  19  31  45  64  95 129 158 191 233 279
#     4   8  14  28  46  66  92 118 144 198 248 269
#     4  10  19  30  48  71  94 122 165 202 226 278
#     4  10  20  33  50  70  94 129 163 199 240 276
#     4   8  15  29  46  67  94 114 148 195 242 280
#     4  10  22  35  43  59  98 142 162 189 232 268
#     4  10  18  30  50  71  93 123 160 198 241 293
#     4  11  17  29  51  73  91 118 157 198 240 280
#
# _framework density 16.291834000000001
#
# number of rings (size 3 to 8) (size 9 to 14) (size 15 to 20)
#    0.000    2.375    3.750    1.500    1.750    0.500 
#    0.000    0.625    0.000    1.875    0.000    0.000 
#    0.000    0.000    0.000    7.000    0.000    0.000 
#
# Total GULP energy -793012.382924 kJ/mol
# GULP energy per Si atom -12390.818483 kJ/mol
# Density = 1.625475 g / cm^3
# Si number density = 16.291834 Si / 1000 Ang^3
#
#
#
# Elastic Constant Matrix: (Units=GPa)
#
#
# Indices 1 2 3 4 5 6 
#
# 1 32.7545 21.0513 18.3471 0.0000 0.0000 0.0000
# 2 21.0513 86.6055 24.7282 0.0000 0.0000 0.0000
# 3 18.3471 24.7282 77.0532 0.0000 0.0000 0.0000
# 4 0.0000 0.0000 0.0000 18.6766 0.0000 0.0000
# 5 0.0000 0.0000 0.0000 0.0000 11.3138 0.0000
# 6 0.0000 0.0000 0.0000 0.0000 0.0000 25.0268
#
#
#
# Elastic Compliance Matrix: (Units=1/GPa)
#
#
# Indices 1 2 3 4 5 6 
#
# 1 0.039272 -0.007570 -0.006922 0.000000 0.000000 0.000000
# 2 -0.007570 0.014170 -0.002745 0.000000 0.000000 0.000000
# 3 -0.006922 -0.002745 0.015507 0.000000 0.000000 0.000000
# 4 0.000000 0.000000 0.000000 0.053543 0.000000 0.000000
# 5 0.000000 0.000000 0.000000 0.000000 0.088388 0.000000
# 6 0.000000 0.000000 0.000000 0.000000 0.000000 0.039957
#
#
# Mechanical properties :
#
#
# Convention : Reuss Voigt Hill
#
# Bulk Modulus (GPa) = 29.00519 36.07404 32.53961
# Shear Modulus (GPa) = 16.84616 19.82253 18.33435
#
# Velocity S-wave (km/s) = 3.21911 3.49193 3.35829
# Velocity P-wave (km/s) = 5.62664 6.20069 5.92063
#
# Compressibility (1/GPa) = 0.03447658
#
# Stress axis : x y z
#
# Youngs Moduli (GPa) = 25.46321 70.56966 64.48605
#
# Poissons Ratio (x) = 0.53418 0.44637
# Poissons Ratio (y) = 0.19275 0.17703
# Poissons Ratio (z) = 0.17625 0.19373
#
# Static dielectric constant tensor:
#      x y z
#    x 2.885660 0.000000 0.000000 
#    y 0.000000 3.337940 0.000000 
#    z 0.000000 0.000000 3.033490 
# 
# 
# High freq. dielectric constant tensor:
#      x y z
#    x 1.584550 0.000000 0.000000 
#    y 0.000000 1.627950 0.000000 
#    z 0.000000 0.000000 1.618890 
# 
# From -- ./inp_files/32994.got.cif
#   From: 2010.03.12/outbox.cif.g09.slc.cpg/sg72_17_cif.got.tgz:32994.got - 2010.04.16 14:54:00.
