data_PCOD8293925
_publ_section_title
;
Structure prediction by ZEFSAII (Michael W. Deem and Ramdas Pophale) SiO2 
 PCOD8293925
Probable space group: I B A M
;
_chemical_formula_sum "Si O2"
_cell_formula_units_Z 96
_cell_length_a 9.879345
_cell_length_b 20.927035
_cell_length_c 25.049617
_cell_angle_alpha 90.000000
_cell_angle_beta 90.000000
_cell_angle_gamma 90.000000
_cell_volume 5178.893051
_symmetry_space_group_name_H-M "I B A M"
_symmetry_group_IT_number 72
_symmetry_cell_setting 'orthorhombic'
loop_
_space_group_symop_operation_xyz
x,y,z
-x,-y,z
x,-y,1/2-z
-x,y,1/2-z
-x,-y,-z
x,y,-z
-x,y,1/2+z
x,-y,1/2+z
1/2+x,1/2+y,1/2+z
1/2-x,1/2-y,1/2+z
1/2+x,1/2-y,-z
1/2-x,1/2+y,-z
1/2-x,1/2-y,1/2-z
1/2+x,1/2+y,1/2-z
1/2-x,1/2+y,z
1/2+x,1/2-y,z
loop_
_atom_site_type_symbol
_atom_site_label
_atom_site_fract_x
_atom_site_fract_y
_atom_site_fract_z
Si Si1 0.016254 0.284950 0.688648
Si Si2 0.026987 0.147693 0.346050
Si Si3 0.768190 0.384220 0.180865
Si Si4 0.400947 0.557001 0.438571
Si Si5 0.196555 0.392553 0.800207
Si Si6 0.150744 0.501454 0.616182
O O1 0.004084 0.223868 0.649988
O O2 0.900669 0.337114 0.676968
O O3 0.000000 0.261906 0.750000
O O4 0.163501 0.314453 0.674482
O O5 0.893305 0.117602 0.320369
O O6 0.060032 0.119523 0.404575
O O7 0.149544 0.130246 0.307021
O O8 0.824168 0.408650 0.237966
O O9 0.812704 0.429420 0.132334
O O10 0.500000 0.500000 0.421796
O O11 0.416357 0.576424 0.500000
O O12 0.249210 0.531798 0.428061
O O13 0.160895 0.457192 0.830252
O O14 0.000000 0.500000 0.591977
#
# Coordination Sequence:
#
# PCOD8293925 Si02
#       6
#    16  16  16  16  16  16
#     4  10  20  34  53  80 119 162 187 212 263 334
#     4  11  21  35  56  81 109 147 191 234 274 334
#     4  11  20  33  53  84 117 157 187 218 268 330
#     4  10  22  42  63  82 102 134 186 244 300 337
#     4  10  21  32  52  82 121 156 187 222 263 328
#     4  11  21  36  57  85 113 148 189 233 281 330
#
# _framework density 18.536781000000001
#
# number of rings (size 3 to 8) (size 9 to 14) (size 15 to 20)
#    0.000    1.500    3.333    3.000    0.000    3.667 
#    0.000    1.667    0.000   10.000    0.000    0.000 
#    0.000    0.000    0.000    0.000    0.000    0.000 
#
# Total GULP energy -595214.233035 kJ/mol
# GULP energy per Si atom -12400.296522 kJ/mol
# Density = 1.849459 g / cm^3
# Si number density = 18.536781 Si / 1000 Ang^3
#
#
#
# Elastic Constant Matrix: (Units=GPa)
#
#
# Indices 1 2 3 4 5 6 
#
# 1 125.6538 19.3774 10.1483 0.0000 0.0000 0.0000
# 2 19.3774 82.2526 31.4900 0.0000 0.0000 0.0000
# 3 10.1483 31.4900 60.0979 0.0000 0.0000 0.0000
# 4 0.0000 0.0000 0.0000 21.0296 0.0000 0.0000
# 5 0.0000 0.0000 0.0000 0.0000 17.6476 0.0000
# 6 0.0000 0.0000 0.0000 0.0000 0.0000 27.4009
#
#
#
# Elastic Compliance Matrix: (Units=1/GPa)
#
#
# Indices 1 2 3 4 5 6 
#
# 1 0.008269 -0.001768 -0.000470 0.000000 0.000000 0.000000
# 2 -0.001768 0.015587 -0.007868 0.000000 0.000000 0.000000
# 3 -0.000470 -0.007868 0.020842 0.000000 0.000000 0.000000
# 4 0.000000 0.000000 0.000000 0.047552 0.000000 0.000000
# 5 0.000000 0.000000 0.000000 0.000000 0.056665 0.000000
# 6 0.000000 0.000000 0.000000 0.000000 0.000000 0.036495
#
#
# Mechanical properties :
#
#
# Convention : Reuss Voigt Hill
#
# Bulk Modulus (GPa) = 40.84232 43.33730 42.08981
# Shear Modulus (GPa) = 23.38811 27.01488 25.20149
#
# Velocity S-wave (km/s) = 3.55591 3.82169 3.69119
# Velocity P-wave (km/s) = 6.24022 6.55008 6.39703
#
# Compressibility (1/GPa) = 0.02448441
#
# Stress axis : x y z
#
# Youngs Moduli (GPa) = 120.93375 64.15752 47.98057
#
# Poissons Ratio (x) = 0.11344 0.02254
# Poissons Ratio (y) = 0.21383 0.37753
# Poissons Ratio (z) = 0.05682 0.50482
#
# Static dielectric constant tensor:
#      x y z
#    x 3.698620 0.000000 0.000000 
#    y 0.000000 3.373180 0.000000 
#    z 0.000000 0.000000 2.981740 
# 
# 
# High freq. dielectric constant tensor:
#      x y z
#    x 1.743310 0.000000 0.000000 
#    y 0.000000 1.720380 0.000000 
#    z 0.000000 0.000000 1.675580 
# 
# From -- ./inp_files/42406.got.cif
#   From: 2010.03.12/outbox.cif.g09.slc.cpg/sg72_22_cif.got.tgz:42406.got - 2010.04.16 14:54:00.
