data_PCOD8293794
_publ_section_title
;
Structure prediction by ZEFSAII (Michael W. Deem and Ramdas Pophale) SiO2 
 PCOD8293794
Probable space group: I B A M
;
_chemical_formula_sum "Si O2"
_cell_formula_units_Z 120
_cell_length_a 22.403592
_cell_length_b 14.112226
_cell_length_c 20.221565
_cell_angle_alpha 90.000000
_cell_angle_beta 90.000000
_cell_angle_gamma 90.000000
_cell_volume 6393.342070
_symmetry_space_group_name_H-M "I B A M"
_symmetry_group_IT_number 72
_symmetry_cell_setting 'orthorhombic'
loop_
_space_group_symop_operation_xyz
x,y,z
-x,-y,z
x,-y,1/2-z
-x,y,1/2-z
-x,-y,-z
x,y,-z
-x,y,1/2+z
x,-y,1/2+z
1/2+x,1/2+y,1/2+z
1/2-x,1/2-y,1/2+z
1/2+x,1/2-y,-z
1/2-x,1/2+y,-z
1/2-x,1/2-y,1/2-z
1/2+x,1/2+y,1/2-z
1/2-x,1/2+y,z
1/2+x,1/2-y,z
loop_
_atom_site_type_symbol
_atom_site_label
_atom_site_fract_x
_atom_site_fract_y
_atom_site_fract_z
Si Si1 0.409918 0.367792 0.354708
Si Si2 0.812371 0.753803 0.075592
Si Si3 0.334319 0.543023 0.318885
Si Si4 0.185163 0.345636 0.575257
Si Si5 0.730226 0.950519 0.424983
Si Si6 0.500000 0.289782 0.750000
Si Si7 0.400887 0.276690 0.841887
Si Si8 0.516145 0.599504 0.074092
O O1 0.355863 0.294760 0.367759
O O2 0.384837 0.474461 0.349264
O O3 0.452915 0.352207 0.291473
O O4 0.452595 0.347326 0.418153
O O5 0.747286 0.795192 0.091384
O O6 0.811785 0.640649 0.084302
O O7 0.830337 0.781823 0.000000
O O8 0.309400 0.500000 0.250000
O O9 0.283272 0.552538 0.373080
O O10 0.358868 0.648895 0.301845
O O11 0.165548 0.323293 0.500000
O O12 0.189614 0.457700 0.587362
O O13 0.135311 0.308669 0.625873
O O14 0.756784 0.952660 0.500000
O O15 0.455003 0.230851 0.797828
O O16 0.428631 0.343231 0.897729
O O17 0.500000 0.500000 0.111098
O O18 0.534813 0.579378 0.000000
#
# Coordination Sequence:
#
# PCOD8293794 Si02
#       8
#    16  16  16  16  16   8  16  16
#     4  11  21  36  55  79 119 158 197 232 290 349
#     4  10  20  36  61  89 117 150 192 244 301 354
#     4  12  22  34  55  90 120 161 191 233 286 356
#     4  10  20  36  61  89 117 150 192 244 301 354
#     4  10  22  40  60  88 123 157 190 238 300 360
#     4  10  24  39  56  77 112 168 198 239 282 347
#     4  11  21  36  55  79 119 158 197 232 290 349
#     4  10  20  30  49  81 111 144 191 245 293 339
#
# _framework density 18.769525999999999
#
# number of rings (size 3 to 8) (size 9 to 14) (size 15 to 20)
#    0.000    1.467    5.333    0.800    0.000    1.600 
#    2.400    2.000    0.000    4.000    0.000   12.133 
#    0.000    0.000    0.000    0.000    0.000    0.000 
#
# Total GULP energy -743317.440885 kJ/mol
# GULP energy per Si atom -12388.624015 kJ/mol
# Density = 1.872681 g / cm^3
# Si number density = 18.769526 Si / 1000 Ang^3
#
#
#
# Elastic Constant Matrix: (Units=GPa)
#
#
# Indices 1 2 3 4 5 6 
#
# 1 91.5212 35.2479 47.5012 0.0000 0.0000 0.0000
# 2 35.2479 96.7962 25.1585 0.0000 0.0000 0.0000
# 3 47.5012 25.1585 83.7641 0.0000 0.0000 0.0000
# 4 0.0000 0.0000 0.0000 19.1678 0.0000 0.0000
# 5 0.0000 0.0000 0.0000 0.0000 41.5377 0.0000
# 6 0.0000 0.0000 0.0000 0.0000 0.0000 21.7397
#
#
#
# Elastic Compliance Matrix: (Units=1/GPa)
#
#
# Indices 1 2 3 4 5 6 
#
# 1 0.016764 -0.003941 -0.008323 0.000000 0.000000 0.000000
# 2 -0.003941 0.012132 -0.001409 0.000000 0.000000 0.000000
# 3 -0.008323 -0.001409 0.017081 0.000000 0.000000 0.000000
# 4 0.000000 0.000000 0.000000 0.052171 0.000000 0.000000
# 5 0.000000 0.000000 0.000000 0.000000 0.024075 0.000000
# 6 0.000000 0.000000 0.000000 0.000000 0.000000 0.045999
#
#
# Mechanical properties :
#
#
# Convention : Reuss Voigt Hill
#
# Bulk Modulus (GPa) = 53.67253 54.21075 53.94164
# Shear Modulus (GPa) = 24.77966 27.43399 26.10682
#
# Velocity S-wave (km/s) = 3.63741 3.82727 3.73354
# Velocity P-wave (km/s) = 6.80431 6.96245 6.88383
#
# Compressibility (1/GPa) = 0.01863150
#
# Stress axis : x y z
#
# Youngs Moduli (GPa) = 59.65128 82.42401 58.54386
#
# Poissons Ratio (x) = 0.32486 0.48725
# Poissons Ratio (y) = 0.23511 0.08248
# Poissons Ratio (z) = 0.49647 0.11613
#
# Static dielectric constant tensor:
#      x y z
#    x 3.428010 0.000000 0.000000 
#    y 0.000000 3.335850 0.000000 
#    z 0.000000 0.000000 3.515780 
# 
# 
# High freq. dielectric constant tensor:
#      x y z
#    x 1.724480 0.000000 0.000000 
#    y 0.000000 1.703450 0.000000 
#    z 0.000000 0.000000 1.733260 
# 
# From -- ./inp_files/45510.got.cif
#   From: 2010.03.12/outbox.cif.g09.slc.cpg/sg72_23_cif.got.tgz:45510.got - 2010.04.16 14:54:00.
