data_PCOD8293378
_publ_section_title
;
Structure prediction by ZEFSAII (Michael W. Deem and Ramdas Pophale) SiO2 
 PCOD8293378
Probable space group: I B A M
;
_chemical_formula_sum "Si O2"
_cell_formula_units_Z 80
_cell_length_a 28.275099
_cell_length_b 9.090427
_cell_length_c 16.787290
_cell_angle_alpha 90.000000
_cell_angle_beta 90.000000
_cell_angle_gamma 90.000000
_cell_volume 4314.882867
_symmetry_space_group_name_H-M "I B A M"
_symmetry_group_IT_number 72
_symmetry_cell_setting 'orthorhombic'
loop_
_space_group_symop_operation_xyz
x,y,z
-x,-y,z
x,-y,1/2-z
-x,y,1/2-z
-x,-y,-z
x,y,-z
-x,y,1/2+z
x,-y,1/2+z
1/2+x,1/2+y,1/2+z
1/2-x,1/2-y,1/2+z
1/2+x,1/2-y,-z
1/2-x,1/2+y,-z
1/2-x,1/2-y,1/2-z
1/2+x,1/2+y,1/2-z
1/2-x,1/2+y,z
1/2+x,1/2-y,z
loop_
_atom_site_type_symbol
_atom_site_label
_atom_site_fract_x
_atom_site_fract_y
_atom_site_fract_z
Si Si1 0.291716 0.281982 0.410931
Si Si2 0.444922 0.170086 0.739362
Si Si3 0.779754 0.924827 0.665270
Si Si4 0.599665 0.680695 0.409171
Si Si5 0.884003 0.102849 0.826104
O O1 0.279636 0.229681 0.500000
O O2 0.262803 0.188025 0.346912
O O3 0.277075 0.451605 0.402810
O O4 0.347079 0.265087 0.391980
O O5 0.500000 0.198321 0.750000
O O6 0.432838 0.226361 0.650708
O O7 0.417580 0.258463 0.809174
O O8 0.431373 0.000000 0.750000
O O9 0.830506 0.841674 0.656703
O O10 0.773066 0.000000 0.750000
O O11 0.584250 0.714078 0.500000
O O12 0.595695 0.503288 0.395911
O O13 0.881455 0.000000 0.750000
#
# Coordination Sequence:
#
# PCOD8293378 Si02
#       5
#    16  16  16  16  16
#     4  10  20  33  50  75 108 141 171 211 259 300
#     4  10  21  38  57  79 106 136 169 216 273 323
#     4  10  19  32  50  75 104 139 179 214 247 298
#     4   9  19  36  56  78 106 139 178 219 256 303
#     4   8  17  34  54  76 103 138 178 215 255 305
#
# _framework density 18.540481
#
# number of rings (size 3 to 8) (size 9 to 14) (size 15 to 20)
#    0.000    2.600    0.000    2.400    0.000    6.800 
#    0.000    5.000    0.000    0.000    0.000    0.000 
#    0.000    0.000    0.000    0.000    0.000    0.000 
#
# Total GULP energy -495867.486145 kJ/mol
# GULP energy per Si atom -12396.687154 kJ/mol
# Density = 1.849828 g / cm^3
# Si number density = 18.540481 Si / 1000 Ang^3
#
#
#
# Elastic Constant Matrix: (Units=GPa)
#
#
# Indices 1 2 3 4 5 6 
#
# 1 110.6076 77.7870 52.0916 0.0000 0.0000 0.0000
# 2 77.7870 107.4240 47.6840 0.0000 0.0000 0.0000
# 3 52.0916 47.6840 93.8108 0.0000 0.0000 0.0000
# 4 0.0000 0.0000 0.0000 25.0596 0.0000 0.0000
# 5 0.0000 0.0000 0.0000 0.0000 22.0912 0.0000
# 6 0.0000 0.0000 0.0000 0.0000 0.0000 32.4943
#
#
#
# Elastic Compliance Matrix: (Units=1/GPa)
#
#
# Indices 1 2 3 4 5 6 
#
# 1 0.019986 -0.012327 -0.004832 0.000000 0.000000 0.000000
# 2 -0.012327 0.019625 -0.003130 0.000000 0.000000 0.000000
# 3 -0.004832 -0.003130 0.014934 0.000000 0.000000 0.000000
# 4 0.000000 0.000000 0.000000 0.039905 0.000000 0.000000
# 5 0.000000 0.000000 0.000000 0.000000 0.045267 0.000000
# 6 0.000000 0.000000 0.000000 0.000000 0.000000 0.030775
#
#
# Mechanical properties :
#
#
# Convention : Reuss Voigt Hill
#
# Bulk Modulus (GPa) = 71.60283 74.10751 72.85517
# Shear Modulus (GPa) = 23.17771 24.88103 24.02937
#
# Velocity S-wave (km/s) = 3.53953 3.66728 3.60397
# Velocity P-wave (km/s) = 7.44365 7.61508 7.52985
#
# Compressibility (1/GPa) = 0.01396593
#
# Stress axis : x y z
#
# Youngs Moduli (GPa) = 50.03504 50.95643 66.96195
#
# Poissons Ratio (x) = 0.62815 0.32356
# Poissons Ratio (y) = 0.61679 0.20960
# Poissons Ratio (z) = 0.24177 0.15950
#
# Static dielectric constant tensor:
#      x y z
#    x 3.377160 0.000000 0.000000 
#    y 0.000000 3.398670 0.000000 
#    z 0.000000 0.000000 3.688320 
# 
# 
# High freq. dielectric constant tensor:
#      x y z
#    x 1.714950 0.000000 0.000000 
#    y 0.000000 1.705910 0.000000 
#    z 0.000000 0.000000 1.718270 
# 
# From -- ./inp_files/28118.got.cif
#   From: 2010.03.12/outbox.cif.g09.slc.cpg/sg72_15_cif.got.tgz:28118.got - 2010.04.16 14:54:00.
