data_PCOD8293765
_publ_section_title
;
Structure prediction by ZEFSAII (Michael W. Deem and Ramdas Pophale) SiO2 
 PCOD8293765
Probable space group: I B A M
;
_chemical_formula_sum "Si O2"
_cell_formula_units_Z 96
_cell_length_a 14.467681
_cell_length_b 14.941692
_cell_length_c 22.950362
_cell_angle_alpha 90.000000
_cell_angle_beta 90.000000
_cell_angle_gamma 90.000000
_cell_volume 4961.217242
_symmetry_space_group_name_H-M "I B A M"
_symmetry_group_IT_number 72
_symmetry_cell_setting 'orthorhombic'
loop_
_space_group_symop_operation_xyz
x,y,z
-x,-y,z
x,-y,1/2-z
-x,y,1/2-z
-x,-y,-z
x,y,-z
-x,y,1/2+z
x,-y,1/2+z
1/2+x,1/2+y,1/2+z
1/2-x,1/2-y,1/2+z
1/2+x,1/2-y,-z
1/2-x,1/2+y,-z
1/2-x,1/2-y,1/2-z
1/2+x,1/2+y,1/2-z
1/2-x,1/2+y,z
1/2+x,1/2-y,z
loop_
_atom_site_type_symbol
_atom_site_label
_atom_site_fract_x
_atom_site_fract_y
_atom_site_fract_z
Si Si1 0.758566 0.011075 0.186571
Si Si2 0.313549 0.660726 0.122240
Si Si3 0.171578 0.179389 0.620370
Si Si4 0.987109 0.230351 0.318655
Si Si5 0.898809 0.113392 0.000000
Si Si6 0.054148 0.422817 0.189368
Si Si7 0.884434 0.902411 0.000000
O O1 0.813203 0.082862 0.148756
O O2 0.657917 0.048657 0.199670
O O3 0.807081 0.000000 0.250000
O O4 0.753495 0.917736 0.151826
O O5 0.258523 0.754137 0.127259
O O6 0.411035 0.661417 0.156997
O O7 0.332567 0.638520 0.055316
O O8 0.147507 0.163863 0.553603
O O9 0.085669 0.222440 0.652381
O O10 0.949133 0.326547 0.340408
O O11 0.000000 0.217509 0.250000
O O12 0.008874 0.127207 0.000000
O O13 0.873981 0.009025 0.000000
O O14 0.000000 0.500000 0.152208
O O15 0.000000 0.412762 0.250000
#
# Coordination Sequence:
#
# PCOD8293765 Si02
#       7
#    16  16  16  16   8  16   8
#     4  12  24  39  65 101 134 173 212 262 326 393
#     4  12  25  43  68  96 132 172 223 276 323 388
#     4  12  25  43  68  96 131 172 223 276 323 389
#     4  11  24  40  63  98 136 174 210 266 331 392
#     4  11  23  46  70  88 121 175 228 272 338 384
#     4  10  19  38  62  88 133 175 214 247 309 399
#     4  11  23  46  70  88 121 175 228 274 336 382
#
# _framework density 19.350090000000002
#
# number of rings (size 3 to 8) (size 9 to 14) (size 15 to 20)
#    0.000    0.667    6.667    2.500    2.333    2.000 
#    0.000    1.667    0.000    0.000    0.000    7.000 
#    0.000    0.000    0.000    0.000    0.000    0.000 
#
# Total GULP energy -595126.290568 kJ/mol
# GULP energy per Si atom -12398.464387 kJ/mol
# Density = 1.930605 g / cm^3
# Si number density = 19.350090 Si / 1000 Ang^3
#
#
#
# Elastic Constant Matrix: (Units=GPa)
#
#
# Indices 1 2 3 4 5 6 
#
# 1 85.5274 13.9955 38.2442 0.0000 0.0000 0.0000
# 2 13.9955 87.7137 39.1075 0.0000 0.0000 0.0000
# 3 38.2442 39.1075 141.7508 0.0000 0.0000 0.0000
# 4 0.0000 0.0000 0.0000 28.9118 0.0000 0.0000
# 5 0.0000 0.0000 0.0000 0.0000 29.9738 0.0000
# 6 0.0000 0.0000 0.0000 0.0000 0.0000 32.9743
#
#
#
# Elastic Compliance Matrix: (Units=1/GPa)
#
#
# Indices 1 2 3 4 5 6 
#
# 1 0.013324 -0.000597 -0.003430 0.000000 0.000000 0.000000
# 2 -0.000597 0.013026 -0.003433 0.000000 0.000000 0.000000
# 3 -0.003430 -0.003433 0.008927 0.000000 0.000000 0.000000
# 4 0.000000 0.000000 0.000000 0.034588 0.000000 0.000000
# 5 0.000000 0.000000 0.000000 0.000000 0.033362 0.000000
# 6 0.000000 0.000000 0.000000 0.000000 0.000000 0.030327
#
#
# Mechanical properties :
#
#
# Convention : Reuss Voigt Hill
#
# Bulk Modulus (GPa) = 49.12053 55.29846 52.20950
# Shear Modulus (GPa) = 32.20415 33.28163 32.74289
#
# Velocity S-wave (km/s) = 4.08400 4.15176 4.11802
# Velocity P-wave (km/s) = 6.90500 7.18489 7.04633
#
# Compressibility (1/GPa) = 0.02035808
#
# Stress axis : x y z
#
# Youngs Moduli (GPa) = 75.05495 76.76663 112.01749
#
# Poissons Ratio (x) = 0.04580 0.38423
# Poissons Ratio (y) = 0.04478 0.38455
# Poissons Ratio (z) = 0.25745 0.26353
#
# Static dielectric constant tensor:
#      x y z
#    x 3.510750 0.000000 0.000000 
#    y 0.000000 4.143270 0.000000 
#    z 0.000000 0.000000 3.481900 
# 
# 
# High freq. dielectric constant tensor:
#      x y z
#    x 1.761370 0.000000 0.000000 
#    y 0.000000 1.770950 0.000000 
#    z 0.000000 0.000000 1.744270 
# 
# From -- ./inp_files/38072.got.cif
#   From: 2010.03.12/outbox.cif.g09.slc.cpg/sg72_20_cif.got.tgz:38072.got - 2010.04.16 14:54:00.
