data_PCOD8293115
_publ_section_title
;
Structure prediction by ZEFSAII (Michael W. Deem and Ramdas Pophale) SiO2 
 PCOD8293115
Probable space group: I B A M
;
_chemical_formula_sum "Si O2"
_cell_formula_units_Z 64
_cell_length_a 24.289399
_cell_length_b 15.726891
_cell_length_c 9.434986
_cell_angle_alpha 90.000000
_cell_angle_beta 90.000000
_cell_angle_gamma 90.000000
_cell_volume 3604.133805
_symmetry_space_group_name_H-M "I B A M"
_symmetry_group_IT_number 72
_symmetry_cell_setting 'orthorhombic'
loop_
_space_group_symop_operation_xyz
x,y,z
-x,-y,z
x,-y,1/2-z
-x,y,1/2-z
-x,-y,-z
x,y,-z
-x,y,1/2+z
x,-y,1/2+z
1/2+x,1/2+y,1/2+z
1/2-x,1/2-y,1/2+z
1/2+x,1/2-y,-z
1/2-x,1/2+y,-z
1/2-x,1/2-y,1/2-z
1/2+x,1/2+y,1/2-z
1/2-x,1/2+y,z
1/2+x,1/2-y,z
loop_
_atom_site_type_symbol
_atom_site_label
_atom_site_fract_x
_atom_site_fract_y
_atom_site_fract_z
Si Si1 0.000000 0.892922 0.750000
Si Si2 0.299886 0.452561 0.500000
Si Si3 0.575736 0.532691 0.500000
Si Si4 0.434658 0.338448 0.000000
Si Si5 0.339761 0.792686 0.500000
Si Si6 0.741286 0.639218 0.000000
Si Si7 0.789839 0.593150 0.719753
O O1 0.040486 0.948608 0.643983
O O2 0.968202 0.829517 0.645990
O O3 0.364065 0.421854 0.500000
O O4 0.296810 0.555172 0.500000
O O5 0.268637 0.415643 0.637297
O O6 0.590987 0.433055 0.500000
O O7 0.395757 0.258019 0.000000
O O8 0.291314 0.725612 0.500000
O O9 0.335375 0.853356 0.363857
O O10 0.780271 0.642652 0.864348
O O11 0.814756 0.500000 0.750000
#
# Coordination Sequence:
#
# PCOD8293115 Si02
#       7
#     8   8   8   8   8   8  16
#     4  10  23  36  52  76 111 148 181 214 250 304
#     4   9  19  31  53  75 106 152 182 199 244 313
#     4  11  19  35  53  74 106 150 187 207 244 304
#     4  11  21  35  54  79 107 139 177 220 259 297
#     4  11  21  33  53  79 104 136 171 219 266 305
#     4  10  18  32  49  76 109 135 177 216 247 298
#     4   9  20  36  51  75 107 143 173 209 254 320
#
# _framework density 17.757387000000001
#
# number of rings (size 3 to 8) (size 9 to 14) (size 15 to 20)
#    0.000    2.000    1.250    4.500    3.500    2.000 
#    0.000    1.250    0.000    0.000    0.000    2.625 
#    0.000    0.000    0.000    0.000    0.000    0.000 
#
# Total GULP energy -396498.551384 kJ/mol
# GULP energy per Si atom -12390.579731 kJ/mol
# Density = 1.771697 g / cm^3
# Si number density = 17.757387 Si / 1000 Ang^3
#
#
#
# Elastic Constant Matrix: (Units=GPa)
#
#
# Indices 1 2 3 4 5 6 
#
# 1 98.0942 54.1149 54.8235 0.0000 0.0000 0.0000
# 2 54.1149 95.4637 51.7850 0.0000 0.0000 0.0000
# 3 54.8235 51.7850 163.3706 0.0000 0.0000 0.0000
# 4 0.0000 0.0000 0.0000 -16.5740 0.0000 0.0000
# 5 0.0000 0.0000 0.0000 0.0000 19.7693 0.0000
# 6 0.0000 0.0000 0.0000 0.0000 0.0000 32.4217
#
#
#
# Elastic Compliance Matrix: (Units=1/GPa)
#
#
# Indices 1 2 3 4 5 6 
#
# 1 0.015968 -0.007421 -0.003006 0.000000 0.000000 0.000000
# 2 -0.007421 0.016099 -0.002613 0.000000 0.000000 0.000000
# 3 -0.003006 -0.002613 0.007958 0.000000 0.000000 0.000000
# 4 0.000000 0.000000 0.000000 -0.060335 0.000000 0.000000
# 5 0.000000 0.000000 0.000000 0.000000 0.050583 0.000000
# 6 0.000000 0.000000 0.000000 0.000000 0.000000 0.030844
#
#
# Mechanical properties :
#
#
# Convention : Reuss Voigt Hill
#
# Bulk Modulus (GPa) = 71.70825 75.37503 73.54164
# Shear Modulus (GPa) = 54.43887 20.20374 37.32131
#
# Velocity S-wave (km/s) = 5.54289 3.37674 4.58944
# Velocity P-wave (km/s) = 9.02411 7.59884 8.34197
#
# Compressibility (1/GPa) = 0.01394540
#
# Stress axis : x y z
#
# Youngs Moduli (GPa) = 62.62365 62.11470 125.65826
#
# Poissons Ratio (x) = 0.46096 0.37777
# Poissons Ratio (y) = 0.46474 0.32831
# Poissons Ratio (z) = 0.18827 0.16229
#
# Static dielectric constant tensor:
#      x y z
#    x 3.028790 0.000000 0.000000 
#    y 0.000000 3.163610 0.000000 
#    z 0.000000 0.000000 3.708130 
# 
# 
# High freq. dielectric constant tensor:
#      x y z
#    x 1.646840 0.000000 0.000000 
#    y 0.000000 1.666410 0.000000 
#    z 0.000000 0.000000 1.716530 
# 
# From -- ./inp_files/7812.got.cif
#   From: 2010.03.12/outbox.cif.g09.slc.cpg/sg72_4_cif.got.tgz:7812.got - 2010.04.16 14:54:00.
