data_PCOD8293369
_publ_section_title
;
Structure prediction by ZEFSAII (Michael W. Deem and Ramdas Pophale) SiO2 
 PCOD8293369
Probable space group: I B A M
;
_chemical_formula_sum "Si O2"
_cell_formula_units_Z 112
_cell_length_a 16.368884
_cell_length_b 27.819841
_cell_length_c 14.381636
_cell_angle_alpha 90.000000
_cell_angle_beta 90.000000
_cell_angle_gamma 90.000000
_cell_volume 6549.105810
_symmetry_space_group_name_H-M "I B A M"
_symmetry_group_IT_number 72
_symmetry_cell_setting 'orthorhombic'
loop_
_space_group_symop_operation_xyz
x,y,z
-x,-y,z
x,-y,1/2-z
-x,y,1/2-z
-x,-y,-z
x,y,-z
-x,y,1/2+z
x,-y,1/2+z
1/2+x,1/2+y,1/2+z
1/2-x,1/2-y,1/2+z
1/2+x,1/2-y,-z
1/2-x,1/2+y,-z
1/2-x,1/2-y,1/2-z
1/2+x,1/2+y,1/2-z
1/2-x,1/2+y,z
1/2+x,1/2-y,z
loop_
_atom_site_type_symbol
_atom_site_label
_atom_site_fract_x
_atom_site_fract_y
_atom_site_fract_z
Si Si1 0.672577 0.414512 0.103581
Si Si2 0.547679 0.696821 0.108068
Si Si3 0.407796 0.514003 0.606173
Si Si4 0.293352 0.839876 0.602456
Si Si5 0.091110 0.714107 0.228949
Si Si6 0.866331 0.224848 0.605563
Si Si7 0.587809 0.604272 0.218737
O O1 0.656720 0.470693 0.122601
O O2 0.767211 0.396651 0.105452
O O3 0.633704 0.383090 0.185904
O O4 0.635855 0.401459 0.000000
O O5 0.589749 0.742264 0.156142
O O6 0.450487 0.695980 0.128172
O O7 0.588424 0.649812 0.151492
O O8 0.569009 0.698476 0.000000
O O9 0.500000 0.500000 0.636187
O O10 0.408798 0.530708 0.500000
O O11 0.373515 0.558490 0.665642
O O12 0.329732 0.828208 0.500000
O O13 0.359410 0.829479 0.681920
O O14 0.211419 0.808819 0.619328
O O15 0.137329 0.730120 0.323501
O O16 0.000000 0.695299 0.250000
O O17 0.870340 0.244926 0.500000
O O18 0.500000 0.587155 0.250000
#
# Coordination Sequence:
#
# PCOD8293369 Si02
#       7
#    16  16  16  16  16  16  16
#     4  10  21  33  45  66  96 130 173 213 248 290
#     4  10  20  32  45  68 100 134 173 216 252 292
#     4  10  20  32  46  67  97 135 174 213 245 286
#     4  10  19  32  50  69  93 128 165 205 249 301
#     4  10  19  33  51  72  95 126 166 212 254 300
#     4   9  18  30  45  66  94 126 162 202 248 295
#     4  12  20  28  45  67  96 136 177 210 248 289
#
# _framework density 17.101572000000001
#
# number of rings (size 3 to 8) (size 9 to 14) (size 15 to 20)
#    0.000    1.857    1.429    4.714    0.000    2.286 
#    0.000    0.000    0.000    0.857    0.000    0.000 
#    0.000    2.286    0.000   15.286    0.000    2.000 
#
# Total GULP energy -693968.981811 kJ/mol
# GULP energy per Si atom -12392.303247 kJ/mol
# Density = 1.706265 g / cm^3
# Si number density = 17.101572 Si / 1000 Ang^3
#
#
#
# Elastic Constant Matrix: (Units=GPa)
#
#
# Indices 1 2 3 4 5 6 
#
# 1 50.6771 38.2669 33.9813 0.0000 0.0000 0.0000
# 2 38.2669 79.1141 41.6433 0.0001 0.0000 0.0000
# 3 33.9813 41.6433 110.2156 0.0003 0.0001 -0.0001
# 4 0.0000 0.0001 0.0003 -15.1503 0.0001 0.0000
# 5 0.0000 0.0000 0.0001 0.0001 23.3431 0.0000
# 6 0.0000 0.0000 -0.0001 0.0000 0.0000 22.5939
#
#
#
# Elastic Compliance Matrix: (Units=1/GPa)
#
#
# Indices 1 2 3 4 5 6 
#
# 1 0.033335 -0.013374 -0.005225 0.000000 0.000000 0.000000
# 2 -0.013374 0.021143 -0.003865 0.000000 0.000000 0.000000
# 3 -0.005225 -0.003865 0.012144 0.000000 0.000000 0.000000
# 4 0.000000 0.000000 0.000000 -0.066005 0.000000 0.000000
# 5 0.000000 0.000000 0.000000 0.000000 0.042839 0.000000
# 6 0.000000 0.000000 0.000000 0.000000 0.000000 0.044260
#
#
# Mechanical properties :
#
#
# Convention : Reuss Voigt Hill
#
# Bulk Modulus (GPa) = 46.09317 51.97666 49.03491
# Shear Modulus (GPa) = 35.74615 14.56504 25.15559
#
# Velocity S-wave (km/s) = 4.57686 2.92152 3.83946
# Velocity P-wave (km/s) = 7.41224 6.46833 6.95631
#
# Compressibility (1/GPa) = 0.02169519
#
# Stress axis : x y z
#
# Youngs Moduli (GPa) = 29.99871 47.29614 82.34231
#
# Poissons Ratio (x) = 0.63253 0.43020
# Poissons Ratio (y) = 0.40119 0.31828
# Poissons Ratio (z) = 0.15673 0.18282
#
# Static dielectric constant tensor:
#      x y z
#    x 2.921720 0.000000 0.000000 
#    y 0.000000 3.006930 0.000000 
#    z 0.000000 0.000000 2.982600 
# 
# 
# High freq. dielectric constant tensor:
#      x y z
#    x 1.606540 0.000000 0.000000 
#    y 0.000000 1.633860 0.000000 
#    z 0.000000 0.000000 1.691110 
# 
# From -- ./inp_files/22277.got.cif
#   From: 2010.03.12/outbox.cif.g09.slc.cpg/sg72_12_cif.got.tgz:22277.got - 2010.04.16 14:54:00.
