data_PCOD8293587
_publ_section_title
;
Structure prediction by ZEFSAII (Michael W. Deem and Ramdas Pophale) SiO2 
 PCOD8293587
Probable space group: I B A M
;
_chemical_formula_sum "Si O2"
_cell_formula_units_Z 116
_cell_length_a 21.960226
_cell_length_b 31.310351
_cell_length_c 8.847261
_cell_angle_alpha 90.000000
_cell_angle_beta 90.000000
_cell_angle_gamma 90.000000
_cell_volume 6083.220811
_symmetry_space_group_name_H-M "I B A M"
_symmetry_group_IT_number 72
_symmetry_cell_setting 'orthorhombic'
loop_
_space_group_symop_operation_xyz
x,y,z
-x,-y,z
x,-y,1/2-z
-x,y,1/2-z
-x,-y,-z
x,y,-z
-x,y,1/2+z
x,-y,1/2+z
1/2+x,1/2+y,1/2+z
1/2-x,1/2-y,1/2+z
1/2+x,1/2-y,-z
1/2-x,1/2+y,-z
1/2-x,1/2-y,1/2-z
1/2+x,1/2+y,1/2-z
1/2-x,1/2+y,z
1/2+x,1/2-y,z
loop_
_atom_site_type_symbol
_atom_site_label
_atom_site_fract_x
_atom_site_fract_y
_atom_site_fract_z
Si Si1 0.281238 0.043531 0.179707
Si Si2 0.500000 0.000000 0.750000
Si Si3 0.406189 0.931828 0.168805
Si Si4 0.696613 0.697219 0.321422
Si Si5 0.173900 0.896299 0.679015
Si Si6 0.061253 0.655908 0.820232
Si Si7 0.832393 0.281381 0.177728
Si Si8 0.563343 0.454322 0.180761
O O1 0.348244 0.051630 0.240765
O O2 0.235830 0.080896 0.233724
O O3 0.255107 0.000000 0.250000
O O4 0.284093 0.039511 0.000000
O O5 0.543512 0.030835 0.847854
O O6 0.432367 0.891713 0.258353
O O7 0.387234 0.918067 0.000000
O O8 0.690702 0.700037 0.500000
O O9 0.672175 0.652011 0.258117
O O10 0.766856 0.701130 0.270073
O O11 0.656027 0.734951 0.250674
O O12 0.174375 0.895379 0.500000
O O13 0.114584 0.921297 0.736373
O O14 0.117184 0.685226 0.765241
O O15 0.000000 0.676180 0.750000
O O16 0.056726 0.653955 0.000000
O O17 0.836178 0.275841 0.000000
O O18 0.580391 0.500000 0.250000
O O19 0.500000 0.437714 0.250000
O O20 0.558898 0.457884 0.000000
#
# Coordination Sequence:
#
# PCOD8293587 Si02
#       8
#    16   4  16  16  16  16  16  16
#     4  11  22  37  56  80 114 150 189 235 283 331
#     4  12  26  40  60  78 114 152 192 236 274 320
#     4  12  25  40  59  82 111 151 198 237 280 329
#     4   9  17  34  59  82 105 139 180 220 269 329
#     4   9  19  35  56  82 112 147 182 226 283 335
#     4  11  23  39  59  82 112 146 185 230 277 329
#     4   9  19  36  57  82 110 140 174 221 277 327
#     4  10  19  34  55  79 109 145 186 223 267 326
#
# _framework density 19.068847000000002
#
# number of rings (size 3 to 8) (size 9 to 14) (size 15 to 20)
#    0.000    1.793    1.379    3.517    0.000    4.414 
#    0.000    8.276    0.000    3.310    0.000    0.000 
#    0.000    0.000    0.000    0.000    0.000    0.000 
#
# Total GULP energy -719198.835453 kJ/mol
# GULP energy per Si atom -12399.979922 kJ/mol
# Density = 1.902545 g / cm^3
# Si number density = 19.068847 Si / 1000 Ang^3
#
#
#
# Elastic Constant Matrix: (Units=GPa)
#
#
# Indices 1 2 3 4 5 6 
#
# 1 116.0666 80.0662 33.0717 0.0000 0.0000 0.0000
# 2 80.0662 151.6654 34.7298 0.0000 0.0000 0.0000
# 3 33.0717 34.7298 69.6625 0.0000 0.0000 0.0000
# 4 0.0000 0.0000 0.0000 28.1905 0.0000 0.0000
# 5 0.0000 0.0000 0.0000 0.0000 21.6284 0.0000
# 6 0.0000 0.0000 0.0000 0.0000 0.0000 25.3310
#
#
#
# Elastic Compliance Matrix: (Units=1/GPa)
#
#
# Indices 1 2 3 4 5 6 
#
# 1 0.014229 -0.006734 -0.003398 0.000000 0.000000 0.000000
# 2 -0.006734 0.010630 -0.002103 0.000000 0.000000 0.000000
# 3 -0.003398 -0.002103 0.017016 0.000000 0.000000 0.000000
# 4 0.000000 0.000000 0.000000 0.035473 0.000000 0.000000
# 5 0.000000 0.000000 0.000000 0.000000 0.046236 0.000000
# 6 0.000000 0.000000 0.000000 0.000000 0.000000 0.039477
#
#
# Mechanical properties :
#
#
# Convention : Reuss Voigt Hill
#
# Bulk Modulus (GPa) = 57.45009 70.34779 63.89894
# Shear Modulus (GPa) = 25.86228 27.66510 26.76369
#
# Velocity S-wave (km/s) = 3.68674 3.81307 3.75044
# Velocity P-wave (km/s) = 6.95096 7.50717 7.23441
#
# Compressibility (1/GPa) = 0.01740641
#
# Stress axis : x y z
#
# Youngs Moduli (GPa) = 70.27904 94.07621 58.76677
#
# Poissons Ratio (x) = 0.63347 0.19970
# Poissons Ratio (y) = 0.47323 0.12357
# Poissons Ratio (z) = 0.23882 0.19781
#
# Static dielectric constant tensor:
#      x y z
#    x 3.742140 0.000000 0.000000 
#    y 0.000000 3.386910 0.000000 
#    z 0.000000 0.000000 3.342440 
# 
# 
# High freq. dielectric constant tensor:
#      x y z
#    x 1.741390 0.000000 0.000000 
#    y 0.000000 1.745500 0.000000 
#    z 0.000000 0.000000 1.732210 
# 
# From -- ./inp_files/7330.got.cif
#   From: 2010.03.12/outbox.cif.g09.slc.cpg/sg72_4_cif.got.tgz:7330.got - 2010.04.16 14:54:00.
