data_PCOD8293265
_publ_section_title
;
Structure prediction by ZEFSAII (Michael W. Deem and Ramdas Pophale) SiO2 
 PCOD8293265
Probable space group: I B A M
;
_chemical_formula_sum "Si O2"
_cell_formula_units_Z 104
_cell_length_a 28.482707
_cell_length_b 9.035504
_cell_length_c 19.408477
_cell_angle_alpha 90.000000
_cell_angle_beta 90.000000
_cell_angle_gamma 90.000000
_cell_volume 4994.880496
_symmetry_space_group_name_H-M "I B A M"
_symmetry_group_IT_number 72
_symmetry_cell_setting 'orthorhombic'
loop_
_space_group_symop_operation_xyz
x,y,z
-x,-y,z
x,-y,1/2-z
-x,y,1/2-z
-x,-y,-z
x,y,-z
-x,y,1/2+z
x,-y,1/2+z
1/2+x,1/2+y,1/2+z
1/2-x,1/2-y,1/2+z
1/2+x,1/2-y,-z
1/2-x,1/2+y,-z
1/2-x,1/2-y,1/2-z
1/2+x,1/2+y,1/2-z
1/2-x,1/2+y,z
1/2+x,1/2-y,z
loop_
_atom_site_type_symbol
_atom_site_label
_atom_site_fract_x
_atom_site_fract_y
_atom_site_fract_z
Si Si1 0.876002 0.513338 0.388406
Si Si2 0.968489 0.643193 0.426733
Si Si3 0.077164 0.500000 0.250000
Si Si4 0.783995 0.314550 0.919421
Si Si5 0.303903 0.509155 0.918353
Si Si6 0.603138 0.676312 0.419171
Si Si7 0.976343 0.221537 0.314411
O O1 0.914004 0.601753 0.433432
O O2 0.888064 0.552797 0.309749
O O3 0.824286 0.566917 0.405106
O O4 0.878468 0.341517 0.407834
O O5 0.983008 0.716193 0.500000
O O6 0.000000 0.500000 0.413014
O O7 0.978860 0.750355 0.363556
O O8 0.044969 0.629949 0.280782
O O9 0.735657 0.379884 0.887840
O O10 0.796061 0.154704 0.886314
O O11 0.777697 0.291898 0.000000
O O12 0.355604 0.564299 0.898076
O O13 0.298784 0.504677 0.000000
O O14 0.588043 0.655675 0.500000
O O15 0.561445 0.640072 0.364114
O O16 0.000000 0.130198 0.250000
#
# Coordination Sequence:
#
# PCOD8293265 Si02
#       7
#    16  16   8  16  16  16  16
#     4  11  20  30  52  80 118 146 194 233 285 333
#     4  11  18  26  45  79 112 143 186 243 281 324
#     4  10  19  30  46  78 110 152 190 232 275 324
#     4  10  19  34  57  85 115 148 184 234 292 348
#     4   9  19  35  57  85 117 146 182 233 295 348
#     4  10  19  31  52  84 115 147 189 240 287 337
#     4  11  18  30  48  75 112 151 190 231 283 334
#
# _framework density 20.821318999999999
#
# number of rings (size 3 to 8) (size 9 to 14) (size 15 to 20)
#    0.000    1.692    4.615    3.000    0.000    2.462 
#    0.000    0.000    0.000   12.923    4.000    4.308 
#    0.000    0.000    0.000    0.000    0.000    0.000 
#
# Total GULP energy -644225.888736 kJ/mol
# GULP energy per Si atom -12388.959399 kJ/mol
# Density = 2.077393 g / cm^3
# Si number density = 20.821319 Si / 1000 Ang^3
#
#
#
# Elastic Constant Matrix: (Units=GPa)
#
#
# Indices 1 2 3 4 5 6 
#
# 1 111.4609 30.6096 39.5976 0.0000 0.0000 0.0000
# 2 30.6096 64.0982 14.9125 0.0000 0.0000 0.0000
# 3 39.5976 14.9125 115.4252 0.0000 0.0000 0.0000
# 4 0.0000 0.0000 0.0000 2.3478 0.0000 0.0000
# 5 0.0000 0.0000 0.0000 0.0000 21.0426 0.0000
# 6 0.0000 0.0000 0.0000 0.0000 0.0000 12.8986
#
#
#
# Elastic Compliance Matrix: (Units=1/GPa)
#
#
# Indices 1 2 3 4 5 6 
#
# 1 0.011439 -0.004690 -0.003318 0.000000 0.000000 0.000000
# 2 -0.004690 0.018008 -0.000717 0.000000 0.000000 0.000000
# 3 -0.003318 -0.000717 0.009895 0.000000 0.000000 0.000000
# 4 0.000000 0.000000 0.000000 0.425934 0.000000 0.000000
# 5 0.000000 0.000000 0.000000 0.000000 0.047523 0.000000
# 6 0.000000 0.000000 0.000000 0.000000 0.000000 0.077528
#
#
# Mechanical properties :
#
#
# Convention : Reuss Voigt Hill
#
# Bulk Modulus (GPa) = 45.68494 51.24707 48.46600
# Shear Modulus (GPa) = 8.12910 20.98210 14.55560
#
# Velocity S-wave (km/s) = 1.97805 3.17791 2.64687
# Velocity P-wave (km/s) = 5.21594 6.17509 5.71567
#
# Compressibility (1/GPa) = 0.02188905
#
# Stress axis : x y z
#
# Youngs Moduli (GPa) = 87.42276 55.53126 101.06499
#
# Poissons Ratio (x) = 0.26047 0.33535
# Poissons Ratio (y) = 0.41006 0.07251
# Poissons Ratio (z) = 0.29008 0.03984
#
# Static dielectric constant tensor:
#      x y z
#    x 4.016570 0.000000 0.000000 
#    y 0.000000 3.579420 0.000000 
#    z 0.000000 0.000000 4.006840 
# 
# 
# High freq. dielectric constant tensor:
#      x y z
#    x 1.819430 0.000000 0.000000 
#    y 0.000000 1.784800 0.000000 
#    z 0.000000 0.000000 1.802850 
# 
# From -- ./inp_files/41058.got.cif
#   From: 2010.03.12/outbox.cif.g09.slc.cpg/sg72_21_cif.got.tgz:41058.got - 2010.04.16 14:54:00.
