data_PCOD8293868
_publ_section_title
;
Structure prediction by ZEFSAII (Michael W. Deem and Ramdas Pophale) SiO2 
 PCOD8293868
Probable space group: I B A M
;
_chemical_formula_sum "Si O2"
_cell_formula_units_Z 112
_cell_length_a 14.599774
_cell_length_b 22.897118
_cell_length_c 15.885784
_cell_angle_alpha 90.000000
_cell_angle_beta 90.000000
_cell_angle_gamma 90.000000
_cell_volume 5310.502388
_symmetry_space_group_name_H-M "I B A M"
_symmetry_group_IT_number 72
_symmetry_cell_setting 'orthorhombic'
loop_
_space_group_symop_operation_xyz
x,y,z
-x,-y,z
x,-y,1/2-z
-x,y,1/2-z
-x,-y,-z
x,y,-z
-x,y,1/2+z
x,-y,1/2+z
1/2+x,1/2+y,1/2+z
1/2-x,1/2-y,1/2+z
1/2+x,1/2-y,-z
1/2-x,1/2+y,-z
1/2-x,1/2-y,1/2-z
1/2+x,1/2+y,1/2-z
1/2-x,1/2+y,z
1/2+x,1/2-y,z
loop_
_atom_site_type_symbol
_atom_site_label
_atom_site_fract_x
_atom_site_fract_y
_atom_site_fract_z
Si Si1 0.093913 0.349528 0.199311
Si Si2 0.898589 0.480371 0.657895
Si Si3 0.261174 0.452550 0.404456
Si Si4 0.589351 0.735269 0.599739
Si Si5 0.083982 0.966679 0.097094
Si Si6 0.223403 0.837480 0.704360
Si Si7 0.060662 0.848439 0.175673
O O1 0.117449 0.410515 0.152692
O O2 0.081363 0.302596 0.125643
O O3 0.172876 0.326859 0.263893
O O4 0.000000 0.358226 0.250000
O O5 0.868776 0.500000 0.750000
O O6 0.838952 0.518660 0.593695
O O7 0.000000 0.500000 0.635576
O O8 0.284192 0.431847 0.500000
O O9 0.323597 0.504926 0.367662
O O10 0.277917 0.399913 0.340551
O O11 0.591998 0.729318 0.500000
O O12 0.684516 0.708990 0.636603
O O13 0.497188 0.704427 0.635227
O O14 0.079349 0.897434 0.106866
O O15 0.081966 0.981562 0.000000
O O16 0.000000 0.000000 0.142030
O O17 0.158555 0.830062 0.786338
O O18 0.000000 0.876450 0.250000
#
# Coordination Sequence:
#
# PCOD8293868 Si02
#       7
#    16  16  16  16  16  16  16
#     4  12  23  42  70  93 125 166 220 267 319 388
#     4  11  21  42  67  94 123 162 207 267 324 380
#     4  11  23  37  61  97 133 168 210 264 324 382
#     4  11  25  44  64  93 131 167 211 269 329 380
#     4  10  20  33  52  84 126 165 202 250 310 370
#     4  11  22  41  66  93 126 170 217 261 312 391
#     4  10  21  37  61  87 119 165 216 261 309 378
#
# _framework density 21.090284
#
# number of rings (size 3 to 8) (size 9 to 14) (size 15 to 20)
#    0.000    1.143    2.857    5.143    0.000    3.429 
#    0.000    5.714    0.000    0.000    0.000    0.000 
#    0.000    0.000    0.000    0.000    0.000    0.000 
#
# Total GULP energy -694104.477601 kJ/mol
# GULP energy per Si atom -12394.722814 kJ/mol
# Density = 2.104228 g / cm^3
# Si number density = 21.090284 Si / 1000 Ang^3
#
#
#
# Elastic Constant Matrix: (Units=GPa)
#
#
# Indices 1 2 3 4 5 6 
#
# 1 106.1850 24.4241 35.9515 0.0000 0.0000 0.0000
# 2 24.4241 139.6462 35.0916 0.0004 0.0000 -0.0001
# 3 35.9515 35.0916 73.5738 0.0010 -0.0001 -0.0003
# 4 0.0000 0.0004 0.0010 31.2717 -0.0001 -0.0002
# 5 0.0000 0.0000 -0.0001 -0.0001 20.8857 0.0000
# 6 0.0000 -0.0001 -0.0003 -0.0002 0.0000 26.9705
#
#
#
# Elastic Compliance Matrix: (Units=1/GPa)
#
#
# Indices 1 2 3 4 5 6 
#
# 1 0.011340 -0.000671 -0.005221 0.000000 0.000000 0.000000
# 2 -0.000671 0.008176 -0.003571 0.000000 0.000000 0.000000
# 3 -0.005221 -0.003571 0.017846 -0.000001 0.000000 0.000000
# 4 0.000000 0.000000 -0.000001 0.031978 0.000000 0.000000
# 5 0.000000 0.000000 0.000000 0.000000 0.047880 0.000000
# 6 0.000000 0.000000 0.000000 0.000000 0.000000 0.037078
#
#
# Mechanical properties :
#
#
# Convention : Reuss Voigt Hill
#
# Bulk Modulus (GPa) = 54.24617 56.70438 55.47527
# Shear Modulus (GPa) = 27.87552 30.75477 29.31515
#
# Velocity S-wave (km/s) = 3.63950 3.82284 3.73229
# Velocity P-wave (km/s) = 6.59075 6.81398 6.70329
#
# Compressibility (1/GPa) = 0.01843448
#
# Stress axis : x y z
#
# Youngs Moduli (GPa) = 88.18668 122.31139 56.03378
#
# Poissons Ratio (x) = 0.08211 0.29254
# Poissons Ratio (y) = 0.05920 0.20012
# Poissons Ratio (z) = 0.46041 0.43683
#
# Static dielectric constant tensor:
#      x y z
#    x 4.108650 0.000000 0.000000 
#    y 0.000000 3.813720 0.000000 
#    z 0.000000 0.000000 3.631000 
# 
# 
# High freq. dielectric constant tensor:
#      x y z
#    x 1.838360 0.000000 0.000000 
#    y 0.000000 1.830560 0.000000 
#    z 0.000000 0.000000 1.811330 
# 
# From -- ./inp_files/22138.got.cif
#   From: 2010.03.12/outbox.cif.g09.slc.cpg/sg72_12_cif.got.tgz:22138.got - 2010.04.16 14:54:00.
