data_PCOD8293461
_publ_section_title
;
Structure prediction by ZEFSAII (Michael W. Deem and Ramdas Pophale) SiO2 
 PCOD8293461
Probable space group: I B A M
;
_chemical_formula_sum "Si O2"
_cell_formula_units_Z 96
_cell_length_a 18.389893
_cell_length_b 28.511327
_cell_length_c 9.318461
_cell_angle_alpha 90.000000
_cell_angle_beta 90.000000
_cell_angle_gamma 90.000000
_cell_volume 4885.857827
_symmetry_space_group_name_H-M "I B A M"
_symmetry_group_IT_number 72
_symmetry_cell_setting 'orthorhombic'
loop_
_space_group_symop_operation_xyz
x,y,z
-x,-y,z
x,-y,1/2-z
-x,y,1/2-z
-x,-y,-z
x,y,-z
-x,y,1/2+z
x,-y,1/2+z
1/2+x,1/2+y,1/2+z
1/2-x,1/2-y,1/2+z
1/2+x,1/2-y,-z
1/2-x,1/2+y,-z
1/2-x,1/2-y,1/2-z
1/2+x,1/2+y,1/2-z
1/2-x,1/2+y,z
1/2+x,1/2-y,z
loop_
_atom_site_type_symbol
_atom_site_label
_atom_site_fract_x
_atom_site_fract_y
_atom_site_fract_z
Si Si1 0.722239 0.454206 0.836158
Si Si2 0.106048 0.455433 0.664278
Si Si3 0.059859 0.368522 0.839979
Si Si4 0.686584 0.199994 0.159667
Si Si5 0.191712 0.850715 0.665171
Si Si6 0.924664 0.778105 0.834293
O O1 0.692913 0.500000 0.750000
O O2 0.807920 0.449930 0.821386
O O3 0.691313 0.404289 0.774176
O O4 0.697187 0.461399 0.000000
O O5 0.078159 0.500000 0.750000
O O6 0.081999 0.459513 0.500000
O O7 0.065663 0.413254 0.739115
O O8 0.137940 0.345861 0.850825
O O9 0.000000 0.337359 0.750000
O O10 0.031499 0.380104 0.000000
O O11 0.754729 0.186498 0.257807
O O12 0.636045 0.241431 0.224855
O O13 0.714484 0.214090 0.000000
O O14 0.217267 0.852481 0.500000
O O15 0.110125 0.830095 0.680752
O O16 0.000000 0.775683 0.750000
O O17 0.941206 0.765281 0.000000
#
# Coordination Sequence:
#
# PCOD8293461 Si02
#       6
#    16  16  16  16  16  16
#     4   9  18  32  53  81 110 141 177 223 276 327
#     4  10  19  33  51  71  99 135 177 223 278 327
#     4  11  22  34  49  71 102 140 183 226 271 323
#     4  10  21  36  55  82 111 144 186 229 271 321
#     4  10  20  36  59  86 114 146 185 229 276 328
#     4  10  22  39  58  83 116 150 186 228 276 330
#
# _framework density 19.648544999999999
#
# number of rings (size 3 to 8) (size 9 to 14) (size 15 to 20)
#    0.000    2.000    1.667    2.000    0.000    3.667 
#    0.000    1.667    0.000    0.500    0.000    3.500 
#    0.000    0.000    0.000    0.000    0.000    0.000 
#
# Total GULP energy -594832.116177 kJ/mol
# GULP energy per Si atom -12392.335754 kJ/mol
# Density = 1.960382 g / cm^3
# Si number density = 19.648545 Si / 1000 Ang^3
#
#
#
# Elastic Constant Matrix: (Units=GPa)
#
#
# Indices 1 2 3 4 5 6 
#
# 1 63.2071 47.0221 39.9922 0.0000 0.0000 0.0000
# 2 47.0221 108.9266 43.6943 0.0000 -0.0001 0.0000
# 3 39.9922 43.6943 108.8765 0.0003 0.0005 -0.0005
# 4 0.0000 0.0000 0.0003 28.0295 0.0000 0.0000
# 5 0.0000 -0.0001 0.0005 0.0000 25.3589 0.0000
# 6 0.0000 0.0000 -0.0005 0.0000 0.0000 12.9325
#
#
#
# Elastic Compliance Matrix: (Units=1/GPa)
#
#
# Indices 1 2 3 4 5 6 
#
# 1 0.026301 -0.008914 -0.006084 0.000000 0.000000 0.000000
# 2 -0.008914 0.013963 -0.002329 0.000000 0.000000 0.000000
# 3 -0.006084 -0.002329 0.012354 0.000000 0.000000 0.000000
# 4 0.000000 0.000000 0.000000 0.035677 0.000000 0.000000
# 5 0.000000 0.000000 0.000000 0.000000 0.039434 0.000000
# 6 0.000000 0.000000 0.000000 0.000000 0.000000 0.077325
#
#
# Mechanical properties :
#
#
# Convention : Reuss Voigt Hill
#
# Bulk Modulus (GPa) = 55.66407 60.26973 57.96690
# Shear Modulus (GPa) = 20.35039 23.28428 21.81734
#
# Velocity S-wave (km/s) = 3.22175 3.44617 3.33585
# Velocity P-wave (km/s) = 6.49853 6.82461 6.66357
#
# Compressibility (1/GPa) = 0.01796491
#
# Stress axis : x y z
#
# Youngs Moduli (GPa) = 38.02076 71.61904 80.94379
#
# Poissons Ratio (x) = 0.63838 0.49244
# Poissons Ratio (y) = 0.33890 0.18855
# Poissons Ratio (z) = 0.23131 0.16683
#
# Static dielectric constant tensor:
#      x y z
#    x 3.398590 0.000000 0.000000 
#    y 0.000000 3.892690 0.000000 
#    z 0.000000 0.000000 3.757050 
# 
# 
# High freq. dielectric constant tensor:
#      x y z
#    x 1.740950 0.000000 0.000000 
#    y 0.000000 1.772360 0.000000 
#    z 0.000000 0.000000 1.763920 
# 
# From -- ./inp_files/6036.got.cif
#   From: 2010.03.12/outbox.cif.g09.slc.cpg/sg72_4_cif.got.tgz:6036.got - 2010.04.16 14:54:00.
