data_PCOD8293652
_publ_section_title
;
Structure prediction by ZEFSAII (Michael W. Deem and Ramdas Pophale) SiO2 
 PCOD8293652
Probable space group: I B A M
;
_chemical_formula_sum "Si O2"
_cell_formula_units_Z 56
_cell_length_a 19.250334
_cell_length_b 12.839508
_cell_length_c 13.092193
_cell_angle_alpha 90.000000
_cell_angle_beta 90.000000
_cell_angle_gamma 90.000000
_cell_volume 3235.929492
_symmetry_space_group_name_H-M "I B A M"
_symmetry_group_IT_number 72
_symmetry_cell_setting 'orthorhombic'
loop_
_space_group_symop_operation_xyz
x,y,z
-x,-y,z
x,-y,1/2-z
-x,y,1/2-z
-x,-y,-z
x,y,-z
-x,y,1/2+z
x,-y,1/2+z
1/2+x,1/2+y,1/2+z
1/2-x,1/2-y,1/2+z
1/2+x,1/2-y,-z
1/2-x,1/2+y,-z
1/2-x,1/2-y,1/2-z
1/2+x,1/2+y,1/2-z
1/2-x,1/2+y,z
1/2+x,1/2-y,z
loop_
_atom_site_type_symbol
_atom_site_label
_atom_site_fract_x
_atom_site_fract_y
_atom_site_fract_z
Si Si1 0.196147 0.227844 0.663338
Si Si2 0.078566 0.882984 0.720205
Si Si3 0.210401 0.606563 0.000000
Si Si4 0.782736 0.374809 0.500000
Si Si5 0.865328 0.832488 0.000000
O O1 0.250000 0.250000 0.750000
O O2 0.123724 0.193518 0.710609
O O3 0.182483 0.333122 0.599364
O O4 0.231761 0.137683 0.596387
O O5 0.089944 0.861979 0.599787
O O6 0.000000 0.858690 0.750000
O O7 0.099243 0.000000 0.750000
O O8 0.182228 0.488679 0.000000
O O9 0.294183 0.602156 0.000000
O O10 0.844956 0.290078 0.500000
#
# Coordination Sequence:
#
# PCOD8293652 Si02
#       5
#    16  16   8   8   8
#     4  10  19  35  55  84 113 148 190 234 281 329
#     4  11  23  37  60  85 117 154 182 233 292 344
#     4  10  20  33  59  85 111 151 188 239 285 331
#     4  10  20  33  60  84 114 149 193 241 277 332
#     4  10  20  39  53  86 119 142 191 241 276 332
#
# _framework density 17.305693000000002
#
# number of rings (size 3 to 8) (size 9 to 14) (size 15 to 20)
#    0.000    2.000    5.714    1.714    0.000    5.714 
#    0.000    0.000    0.000    5.143    0.000    0.000 
#    0.000    0.000    0.000    0.000    0.000    0.000 
#
# Total GULP energy -347134.502765 kJ/mol
# GULP energy per Si atom -12397.660813 kJ/mol
# Density = 1.726630 g / cm^3
# Si number density = 17.305693 Si / 1000 Ang^3
#
#
#
# Elastic Constant Matrix: (Units=GPa)
#
#
# Indices 1 2 3 4 5 6 
#
# 1 99.2936 40.1567 58.4255 0.0000 0.0000 0.0000
# 2 40.1567 140.2948 60.4922 0.0000 0.0000 0.0000
# 3 58.4255 60.4922 159.9000 0.0000 0.0000 0.0000
# 4 0.0000 0.0000 0.0000 15.0326 0.0000 0.0000
# 5 0.0000 0.0000 0.0000 0.0000 28.8124 0.0000
# 6 0.0000 0.0000 0.0000 0.0000 0.0000 24.9497
#
#
#
# Elastic Compliance Matrix: (Units=1/GPa)
#
#
# Indices 1 2 3 4 5 6 
#
# 1 0.013303 -0.002046 -0.004087 0.000000 0.000000 0.000000
# 2 -0.002046 0.008832 -0.002594 0.000000 0.000000 0.000000
# 3 -0.004087 -0.002594 0.008728 0.000000 0.000000 0.000000
# 4 0.000000 0.000000 0.000000 0.066522 0.000000 0.000000
# 5 0.000000 0.000000 0.000000 0.000000 0.034707 0.000000
# 6 0.000000 0.000000 0.000000 0.000000 0.000000 0.040081
#
#
# Mechanical properties :
#
#
# Convention : Reuss Voigt Hill
#
# Bulk Modulus (GPa) = 74.56627 79.73746 77.15186
# Shear Modulus (GPa) = 25.76038 29.78652 27.77345
#
# Velocity S-wave (km/s) = 3.86236 4.15323 4.01043
# Velocity P-wave (km/s) = 7.94177 8.31715 8.13163
#
# Compressibility (1/GPa) = 0.01341089
#
# Stress axis : x y z
#
# Youngs Moduli (GPa) = 75.16958 113.22834 114.56751
#
# Poissons Ratio (x) = 0.23162 0.46823
# Poissons Ratio (y) = 0.15377 0.29716
# Poissons Ratio (z) = 0.30722 0.29368
#
# Static dielectric constant tensor:
#      x y z
#    x 2.851990 0.000000 0.000000 
#    y 0.000000 2.939340 0.000000 
#    z 0.000000 0.000000 3.316170 
# 
# 
# High freq. dielectric constant tensor:
#      x y z
#    x 1.643950 0.000000 0.000000 
#    y 0.000000 1.663860 0.000000 
#    z 0.000000 0.000000 1.692090 
# 
# From -- ./inp_files/11116.got.cif
#   From: 2010.03.12/outbox.cif.g09.slc.cpg/sg72_6_cif.got.tgz:11116.got - 2010.04.16 14:54:00.
