data_PCOD8293111
_publ_section_title
;
Structure prediction by ZEFSAII (Michael W. Deem and Ramdas Pophale) SiO2 
 PCOD8293111
Probable space group: I B A M
;
_chemical_formula_sum "Si O2"
_cell_formula_units_Z 128
_cell_length_a 22.334712
_cell_length_b 18.084918
_cell_length_c 18.595641
_cell_angle_alpha 90.000000
_cell_angle_beta 90.000000
_cell_angle_gamma 90.000000
_cell_volume 7511.177999
_symmetry_space_group_name_H-M "I B A M"
_symmetry_group_IT_number 72
_symmetry_cell_setting 'orthorhombic'
loop_
_space_group_symop_operation_xyz
x,y,z
-x,-y,z
x,-y,1/2-z
-x,y,1/2-z
-x,-y,-z
x,y,-z
-x,y,1/2+z
x,-y,1/2+z
1/2+x,1/2+y,1/2+z
1/2-x,1/2-y,1/2+z
1/2+x,1/2-y,-z
1/2-x,1/2+y,-z
1/2-x,1/2-y,1/2-z
1/2+x,1/2+y,1/2-z
1/2-x,1/2+y,z
1/2+x,1/2-y,z
loop_
_atom_site_type_symbol
_atom_site_label
_atom_site_fract_x
_atom_site_fract_y
_atom_site_fract_z
Si Si1 0.929393 0.121026 0.415249
Si Si2 0.394213 0.518711 0.671090
Si Si3 0.782947 0.394835 0.191597
Si Si4 0.035350 0.835927 0.824412
Si Si5 0.761750 0.812785 0.582426
Si Si6 0.678482 0.706794 0.653051
Si Si7 0.856241 0.257480 0.811352
Si Si8 0.243268 0.954707 0.841290
O O1 0.929339 0.114039 0.500000
O O2 0.875821 0.171477 0.388817
O O3 0.988997 0.163438 0.389861
O O4 0.925504 0.038330 0.383442
O O5 0.417462 0.500000 0.750000
O O6 0.415579 0.601667 0.656970
O O7 0.322798 0.511183 0.667278
O O8 0.733363 0.349449 0.148751
O O9 0.844291 0.346417 0.188029
O O10 0.761435 0.404888 0.273309
O O11 0.789088 0.475359 0.153188
O O12 0.073042 0.758983 0.823032
O O13 0.000000 0.848576 0.750000
O O14 0.773006 0.792146 0.500000
O O15 0.699043 0.779723 0.610538
O O16 0.817880 0.783431 0.627776
O O17 0.755115 0.901931 0.589417
O O18 0.662542 0.724193 0.734857
#
# Coordination Sequence:
#
# PCOD8293111 Si02
#       8
#    16  16  16  16  16  16  16  16
#     4  12  26  38  54  81 114 151 195 239 278 324
#     4  12  20  35  55  79 111 150 191 221 265 332
#     4  10  18  31  59  82 104 137 186 232 275 331
#     4  12  23  36  57  76 106 155 194 227 271 325
#     4  11  22  34  53  83 117 147 181 230 288 339
#     4  11  18  38  57  79 107 146 191 231 279 334
#     4  11  20  37  58  80 105 148 194 236 273 331
#     4  11  18  33  54  83 112 146 176 224 284 340
#
# _framework density 17.041267999999999
#
# number of rings (size 3 to 8) (size 9 to 14) (size 15 to 20)
#    0.000    0.750    8.750    1.500    0.000    2.000 
#    0.000    0.625    0.000    0.000    0.000    6.125 
#    0.000    2.000    0.000    0.000    0.000    0.000 
#
# Total GULP energy -793442.199877 kJ/mol
# GULP energy per Si atom -12397.534373 kJ/mol
# Density = 1.700248 g / cm^3
# Si number density = 17.041268 Si / 1000 Ang^3
#
#
#
# Elastic Constant Matrix: (Units=GPa)
#
#
# Indices 1 2 3 4 5 6 
#
# 1 83.7530 50.9320 31.1458 0.0000 0.0000 0.0000
# 2 50.9320 85.9147 35.1862 0.0000 0.0000 0.0000
# 3 31.1458 35.1862 120.0438 0.0000 0.0000 0.0000
# 4 0.0000 0.0000 0.0000 18.1823 0.0000 0.0000
# 5 0.0000 0.0000 0.0000 0.0000 14.8858 0.0000
# 6 0.0000 0.0000 0.0000 0.0000 0.0000 34.9507
#
#
#
# Elastic Compliance Matrix: (Units=1/GPa)
#
#
# Indices 1 2 3 4 5 6 
#
# 1 0.019027 -0.010521 -0.001853 0.000000 0.000000 0.000000
# 2 -0.010521 0.019045 -0.002853 0.000000 0.000000 0.000000
# 3 -0.001853 -0.002853 0.009647 0.000000 0.000000 0.000000
# 4 0.000000 0.000000 0.000000 0.054999 0.000000 0.000000
# 5 0.000000 0.000000 0.000000 0.000000 0.067178 0.000000
# 6 0.000000 0.000000 0.000000 0.000000 0.000000 0.028612
#
#
# Mechanical properties :
#
#
# Convention : Reuss Voigt Hill
#
# Bulk Modulus (GPa) = 57.91601 58.24882 58.08242
# Shear Modulus (GPa) = 21.30250 25.10027 23.20138
#
# Velocity S-wave (km/s) = 3.53945 3.84202 3.69383
# Velocity P-wave (km/s) = 7.12482 7.34416 7.23532
#
# Compressibility (1/GPa) = 0.01726638
#
# Stress axis : x y z
#
# Youngs Moduli (GPa) = 52.55782 52.50856 103.65769
#
# Poissons Ratio (x) = 0.55242 0.19206
# Poissons Ratio (y) = 0.55294 0.29569
# Poissons Ratio (z) = 0.09738 0.14978
#
# Static dielectric constant tensor:
#      x y z
#    x 3.168300 0.000000 0.000000 
#    y 0.000000 3.259050 0.000000 
#    z 0.000000 0.000000 3.091860 
# 
# 
# High freq. dielectric constant tensor:
#      x y z
#    x 1.636690 0.000000 0.000000 
#    y 0.000000 1.654920 0.000000 
#    z 0.000000 0.000000 1.646520 
# 
# From -- ./inp_files/32957.got.cif
#   From: 2010.03.12/outbox.cif.g09.slc.cpg/sg72_17_cif.got.tgz:32957.got - 2010.04.16 14:54:00.
