data_PCOD8293203
_publ_section_title
;
Structure prediction by ZEFSAII (Michael W. Deem and Ramdas Pophale) SiO2 
 PCOD8293203
Probable space group: I B A M
;
_chemical_formula_sum "Si O2"
_cell_formula_units_Z 72
_cell_length_a 25.551806
_cell_length_b 11.300069
_cell_length_c 13.418620
_cell_angle_alpha 90.000000
_cell_angle_beta 90.000000
_cell_angle_gamma 90.000000
_cell_volume 3874.454376
_symmetry_space_group_name_H-M "I B A M"
_symmetry_group_IT_number 72
_symmetry_cell_setting 'orthorhombic'
loop_
_space_group_symop_operation_xyz
x,y,z
-x,-y,z
x,-y,1/2-z
-x,y,1/2-z
-x,-y,-z
x,y,-z
-x,y,1/2+z
x,-y,1/2+z
1/2+x,1/2+y,1/2+z
1/2-x,1/2-y,1/2+z
1/2+x,1/2-y,-z
1/2-x,1/2+y,-z
1/2-x,1/2-y,1/2-z
1/2+x,1/2+y,1/2-z
1/2-x,1/2+y,z
1/2+x,1/2-y,z
loop_
_atom_site_type_symbol
_atom_site_label
_atom_site_fract_x
_atom_site_fract_y
_atom_site_fract_z
Si Si1 0.013027 0.634031 0.886911
Si Si2 0.585968 0.202089 0.213886
Si Si3 0.822022 0.138804 0.736767
Si Si4 0.222964 0.321349 0.618061
Si Si5 0.338994 0.000000 0.250000
O O1 0.060962 0.683469 0.823160
O O2 0.000000 0.500000 0.855315
O O3 0.960050 0.708936 0.867792
O O4 0.030913 0.645193 0.000000
O O5 0.618606 0.323559 0.210428
O O6 0.625419 0.094240 0.191047
O O7 0.803922 0.202531 0.839103
O O8 0.784219 0.179125 0.646561
O O9 0.820573 0.000000 0.750000
O O10 0.215767 0.324512 0.500000
O O11 0.196727 0.436971 0.667270
#
# Coordination Sequence:
#
# PCOD8293203 Si02
#       5
#    16  16  16  16   8
#     4  10  19  34  57  87 115 147 194 247 301 356
#     4  10  19  35  58  82 120 149 186 249 300 347
#     4  10  22  41  57  83 120 161 205 241 290 358
#     4  10  22  39  61  85 119 160 201 249 293 347
#     4  10  18  35  58  92 120 147 198 242 298 360
#
# _framework density 18.583262000000001
#
# number of rings (size 3 to 8) (size 9 to 14) (size 15 to 20)
#    0.000    2.000    3.333    0.667    0.000    6.222 
#    0.000    2.222    0.000    1.333    0.000    0.000 
#    0.000    0.000    0.000    0.000    0.000    0.000 
#
# Total GULP energy -446398.751253 kJ/mol
# GULP energy per Si atom -12399.965313 kJ/mol
# Density = 1.854097 g / cm^3
# Si number density = 18.583262 Si / 1000 Ang^3
#
#
#
# Elastic Constant Matrix: (Units=GPa)
#
#
# Indices 1 2 3 4 5 6 
#
# 1 116.9096 45.5810 31.4529 0.0000 0.0000 0.0000
# 2 45.5810 110.0781 39.8458 0.0000 0.0000 0.0000
# 3 31.4529 39.8458 112.0092 0.0000 0.0000 0.0000
# 4 0.0000 0.0000 0.0000 18.0433 0.0000 0.0000
# 5 0.0000 0.0000 0.0000 0.0000 13.1992 0.0000
# 6 0.0000 0.0000 0.0000 0.0000 0.0000 22.2604
#
#
#
# Elastic Compliance Matrix: (Units=1/GPa)
#
#
# Indices 1 2 3 4 5 6 
#
# 1 0.010445 -0.003746 -0.001600 0.000000 0.000000 0.000000
# 2 -0.003746 0.011770 -0.003135 0.000000 0.000000 0.000000
# 3 -0.001600 -0.003135 0.010493 0.000000 0.000000 0.000000
# 4 0.000000 0.000000 0.000000 0.055422 0.000000 0.000000
# 5 0.000000 0.000000 0.000000 0.000000 0.075762 0.000000
# 6 0.000000 0.000000 0.000000 0.000000 0.000000 0.044923
#
#
# Mechanical properties :
#
#
# Convention : Reuss Voigt Hill
#
# Bulk Modulus (GPa) = 63.51323 63.63960 63.57642
# Shear Modulus (GPa) = 21.64260 25.50839 23.57550
#
# Velocity S-wave (km/s) = 3.41637 3.70895 3.56566
# Velocity P-wave (km/s) = 7.05790 7.25684 7.15806
#
# Compressibility (1/GPa) = 0.01574475
#
# Stress axis : x y z
#
# Youngs Moduli (GPa) = 95.74406 84.95939 95.30504
#
# Poissons Ratio (x) = 0.31822 0.15253
# Poissons Ratio (y) = 0.35861 0.29882
# Poissons Ratio (z) = 0.15324 0.26638
#
# Static dielectric constant tensor:
#      x y z
#    x 3.669110 0.000000 0.000000 
#    y 0.000000 3.298350 0.000000 
#    z 0.000000 0.000000 3.146740 
# 
# 
# High freq. dielectric constant tensor:
#      x y z
#    x 1.738630 0.000000 0.000000 
#    y 0.000000 1.700680 0.000000 
#    z 0.000000 0.000000 1.702350 
# 
# From -- ./inp_files/24854.got.cif
#   From: 2010.03.12/outbox.cif.g09.slc.cpg/sg72_13_cif.got.tgz:24854.got - 2010.04.16 14:54:00.
