data_PCOD8293532
_publ_section_title
;
Structure prediction by ZEFSAII (Michael W. Deem and Ramdas Pophale) SiO2 
 PCOD8293532
Probable space group: I B A M
;
_chemical_formula_sum "Si O2"
_cell_formula_units_Z 96
_cell_length_a 9.966397
_cell_length_b 20.060663
_cell_length_c 27.049482
_cell_angle_alpha 90.000000
_cell_angle_beta 90.000000
_cell_angle_gamma 90.000000
_cell_volume 5408.071413
_symmetry_space_group_name_H-M "I B A M"
_symmetry_group_IT_number 72
_symmetry_cell_setting 'orthorhombic'
loop_
_space_group_symop_operation_xyz
x,y,z
-x,-y,z
x,-y,1/2-z
-x,y,1/2-z
-x,-y,-z
x,y,-z
-x,y,1/2+z
x,-y,1/2+z
1/2+x,1/2+y,1/2+z
1/2-x,1/2-y,1/2+z
1/2+x,1/2-y,-z
1/2-x,1/2+y,-z
1/2-x,1/2-y,1/2-z
1/2+x,1/2+y,1/2-z
1/2-x,1/2+y,z
1/2+x,1/2-y,z
loop_
_atom_site_type_symbol
_atom_site_label
_atom_site_fract_x
_atom_site_fract_y
_atom_site_fract_z
Si Si1 0.858993 0.441399 0.777775
Si Si2 0.606196 0.296930 0.942032
Si Si3 0.857905 0.294528 0.776998
Si Si4 0.111818 0.704699 0.108483
Si Si5 0.610265 0.050677 0.609205
Si Si6 0.387945 0.449334 0.442487
O O1 0.773678 0.500000 0.750000
O O2 0.792854 0.368645 0.774480
O O3 0.876052 0.464952 0.833389
O O4 0.000000 0.435588 0.750000
O O5 0.749373 0.280534 0.918625
O O6 0.499052 0.250160 0.916365
O O7 0.566072 0.373661 0.931784
O O8 0.612264 0.281225 0.000000
O O9 0.750000 0.250000 0.750000
O O10 0.876341 0.274845 0.834149
O O11 0.000000 0.287970 0.750000
O O12 0.068187 0.627661 0.101021
O O13 0.750103 0.033417 0.584048
O O14 0.500000 0.000000 0.586535
O O15 0.500000 0.500000 0.421860
O O16 0.363313 0.461228 0.500000
#
# Coordination Sequence:
#
# PCOD8293532 Si02
#       6
#    16  16  16  16  16  16
#     4   9  16  32  55  77 103 138 178 211 263 327
#     4  10  20  37  57  77 108 144 178 224 271 324
#     4  10  20  34  54  78 109 143 173 220 271 315
#     4  10  21  35  54  82 110 138 183 222 268 326
#     4  10  19  33  57  82 104 136 181 231 263 307
#     4   9  20  38  54  74 109 147 175 214 279 332
#
# _framework density 17.751245000000001
#
# number of rings (size 3 to 8) (size 9 to 14) (size 15 to 20)
#    0.000    2.333    1.667    1.500    0.000    2.333 
#    3.000    1.667    0.000    0.000    0.000    0.000 
#    0.000    0.000    0.000    0.000    0.000    0.000 
#
# Total GULP energy -595012.774353 kJ/mol
# GULP energy per Si atom -12396.099466 kJ/mol
# Density = 1.771084 g / cm^3
# Si number density = 17.751245 Si / 1000 Ang^3
#
#
#
# Elastic Constant Matrix: (Units=GPa)
#
#
# Indices 1 2 3 4 5 6 
#
# 1 115.7500 89.5736 69.2122 0.0000 0.0000 0.0000
# 2 89.5736 121.3049 68.8274 0.0000 0.0000 0.0000
# 3 69.2122 68.8274 115.8556 0.0000 0.0000 0.0000
# 4 0.0000 0.0000 0.0000 36.5695 0.0000 0.0000
# 5 0.0000 0.0000 0.0000 0.0000 27.6211 0.0000
# 6 0.0000 0.0000 0.0000 0.0000 0.0000 31.8291
#
#
#
# Elastic Compliance Matrix: (Units=1/GPa)
#
#
# Indices 1 2 3 4 5 6 
#
# 1 0.022122 -0.013330 -0.005297 0.000000 0.000000 0.000000
# 2 -0.013330 0.020467 -0.004196 0.000000 0.000000 0.000000
# 3 -0.005297 -0.004196 0.014288 0.000000 0.000000 0.000000
# 4 0.000000 0.000000 0.000000 0.027345 0.000000 0.000000
# 5 0.000000 0.000000 0.000000 0.000000 0.036204 0.000000
# 6 0.000000 0.000000 0.000000 0.000000 0.000000 0.031418
#
#
# Mechanical properties :
#
#
# Convention : Reuss Voigt Hill
#
# Bulk Modulus (GPa) = 89.02578 89.79302 89.40940
# Shear Modulus (GPa) = 24.84672 27.55709 26.20190
#
# Velocity S-wave (km/s) = 3.74534 3.94433 3.84612
# Velocity P-wave (km/s) = 8.30447 8.45207 8.37859
#
# Compressibility (1/GPa) = 0.01123270
#
# Stress axis : x y z
#
# Youngs Moduli (GPa) = 45.20450 48.85804 69.98694
#
# Poissons Ratio (x) = 0.65127 0.37069
# Poissons Ratio (y) = 0.60257 0.29367
# Poissons Ratio (z) = 0.23943 0.20501
#
# Static dielectric constant tensor:
#      x y z
#    x 3.053380 0.000000 0.000000 
#    y 0.000000 3.997960 0.000000 
#    z 0.000000 0.000000 3.488930 
# 
# 
# High freq. dielectric constant tensor:
#      x y z
#    x 1.664690 0.000000 0.000000 
#    y 0.000000 1.700100 0.000000 
#    z 0.000000 0.000000 1.699320 
# 
# From -- ./inp_files/48119.got.cif
#   From: 2010.03.12/outbox.cif.g09.slc.cpg/sg72_25_cif.got.tgz:48119.got - 2010.04.16 14:54:00.
