data_PCOD8293769
_publ_section_title
;
Structure prediction by ZEFSAII (Michael W. Deem and Ramdas Pophale) SiO2 
 PCOD8293769
Probable space group: I B A M
;
_chemical_formula_sum "Si O2"
_cell_formula_units_Z 120
_cell_length_a 15.609050
_cell_length_b 29.275272
_cell_length_c 12.746875
_cell_angle_alpha 90.000000
_cell_angle_beta 90.000000
_cell_angle_gamma 90.000000
_cell_volume 5824.801604
_symmetry_space_group_name_H-M "I B A M"
_symmetry_group_IT_number 72
_symmetry_cell_setting 'orthorhombic'
loop_
_space_group_symop_operation_xyz
x,y,z
-x,-y,z
x,-y,1/2-z
-x,y,1/2-z
-x,-y,-z
x,y,-z
-x,y,1/2+z
x,-y,1/2+z
1/2+x,1/2+y,1/2+z
1/2-x,1/2-y,1/2+z
1/2+x,1/2-y,-z
1/2-x,1/2+y,-z
1/2-x,1/2-y,1/2-z
1/2+x,1/2+y,1/2-z
1/2-x,1/2+y,z
1/2+x,1/2-y,z
loop_
_atom_site_type_symbol
_atom_site_label
_atom_site_fract_x
_atom_site_fract_y
_atom_site_fract_z
Si Si1 0.911127 0.980847 0.622767
Si Si2 0.402653 0.160209 0.717184
Si Si3 0.309483 0.212161 0.875757
Si Si4 0.761537 0.000000 0.250000
Si Si5 0.371557 0.617372 0.380904
Si Si6 0.310107 0.081915 0.620905
Si Si7 0.374935 0.745433 0.121377
Si Si8 0.555694 0.711024 0.873372
O O1 0.906597 0.978127 0.500000
O O2 0.830772 0.012840 0.658024
O O3 0.902683 0.929928 0.672024
O O4 0.000000 0.000000 0.665079
O O5 0.500000 0.163689 0.750000
O O6 0.340739 0.165447 0.819665
O O7 0.390599 0.111201 0.660973
O O8 0.378966 0.200215 0.635794
O O9 0.214612 0.225014 0.836105
O O10 0.377174 0.250434 0.832372
O O11 0.315339 0.206128 0.000000
O O12 0.701859 0.960026 0.297031
O O13 0.403553 0.617859 0.500000
O O14 0.268611 0.617495 0.374277
O O15 0.411785 0.662342 0.327679
O O16 0.322959 0.064420 0.500000
O O17 0.459189 0.720474 0.171258
O O18 0.378355 0.734482 0.000000
O O19 0.558163 0.712758 0.000000
#
# Coordination Sequence:
#
# PCOD8293769 Si02
#       8
#    16  16  16   8  16  16  16  16
#     4   9  17  31  55  86 123 163 204 251 309 369
#     4  12  23  38  61  87 119 158 207 259 309 375
#     4  10  21  37  55  80 118 160 207 261 308 357
#     4  10  19  38  63  86 116 150 202 258 305 367
#     4   8  15  30  53  82 115 156 200 239 285 356
#     4  10  22  41  66  92 119 156 202 251 314 382
#     4  10  20  35  57  82 119 167 209 257 310 355
#     4   9  16  30  52  79 114 157 203 246 296 352
#
# _framework density 20.601559999999999
#
# number of rings (size 3 to 8) (size 9 to 14) (size 15 to 20)
#    0.000    2.267    1.333    3.000    0.000    2.667 
#    2.400    1.667    2.933    0.800    0.000    0.000 
#    0.000    0.000    0.000    0.000    0.000    0.000 
#
# Total GULP energy -743503.124931 kJ/mol
# GULP energy per Si atom -12391.718749 kJ/mol
# Density = 2.055467 g / cm^3
# Si number density = 20.601560 Si / 1000 Ang^3
#
#
#
# Elastic Constant Matrix: (Units=GPa)
#
#
# Indices 1 2 3 4 5 6 
#
# 1 119.8464 35.5146 37.4635 -0.0001 0.0000 -0.0001
# 2 35.5146 92.2861 45.1380 0.0002 0.0002 0.0000
# 3 37.4635 45.1380 53.7493 -0.0005 0.0006 -0.0005
# 4 -0.0001 0.0002 -0.0005 30.6472 0.0002 -0.0001
# 5 0.0000 0.0002 0.0006 0.0002 28.6827 -0.0001
# 6 -0.0001 0.0000 -0.0005 -0.0001 -0.0001 44.7059
#
#
#
# Elastic Compliance Matrix: (Units=1/GPa)
#
#
# Indices 1 2 3 4 5 6 
#
# 1 0.010703 -0.000798 -0.006790 0.000000 0.000000 0.000000
# 2 -0.000798 0.018449 -0.014937 0.000000 0.000000 0.000000
# 3 -0.006790 -0.014937 0.035881 0.000001 -0.000001 0.000000
# 4 0.000000 0.000000 0.000001 0.032629 0.000000 0.000000
# 5 0.000000 0.000000 -0.000001 0.000000 0.034864 0.000000
# 6 0.000000 0.000000 0.000000 0.000000 0.000000 0.022368
#
#
# Mechanical properties :
#
#
# Convention : Reuss Voigt Hill
#
# Bulk Modulus (GPa) = 50.04111 55.79046 52.91578
# Shear Modulus (GPa) = 24.20069 30.65820 27.42944
#
# Velocity S-wave (km/s) = 3.43111 3.86184 3.65283
# Velocity P-wave (km/s) = 6.32767 6.85744 6.59788
#
# Compressibility (1/GPa) = 0.01998357
#
# Stress axis : x y z
#
# Youngs Moduli (GPa) = 93.43205 54.20456 27.86962
#
# Poissons Ratio (x) = 0.04324 0.18924
# Poissons Ratio (y) = 0.07454 0.41628
# Poissons Ratio (z) = 0.63441 0.80965
#
# Static dielectric constant tensor:
#      x y z
#    x 3.884650 0.000000 0.000000 
#    y 0.000000 3.791470 0.000000 
#    z 0.000000 0.000000 3.816470 
# 
# 
# High freq. dielectric constant tensor:
#      x y z
#    x 1.804960 0.000000 0.000000 
#    y 0.000000 1.772990 0.000000 
#    z 0.000000 0.000000 1.824220 
# 
# From -- ./inp_files/22482.got.cif
#   From: 2010.03.12/outbox.cif.g09.slc.cpg/sg72_12_cif.got.tgz:22482.got - 2010.04.16 14:54:00.
