data_PCOD8293547
_publ_section_title
;
Structure prediction by ZEFSAII (Michael W. Deem and Ramdas Pophale) SiO2 
 PCOD8293547
Probable space group: I B A M
;
_chemical_formula_sum "Si O2"
_cell_formula_units_Z 120
_cell_length_a 10.355892
_cell_length_b 19.551168
_cell_length_c 27.959126
_cell_angle_alpha 90.000000
_cell_angle_beta 90.000000
_cell_angle_gamma 90.000000
_cell_volume 5660.878210
_symmetry_space_group_name_H-M "I B A M"
_symmetry_group_IT_number 72
_symmetry_cell_setting 'orthorhombic'
loop_
_space_group_symop_operation_xyz
x,y,z
-x,-y,z
x,-y,1/2-z
-x,y,1/2-z
-x,-y,-z
x,y,-z
-x,y,1/2+z
x,-y,1/2+z
1/2+x,1/2+y,1/2+z
1/2-x,1/2-y,1/2+z
1/2+x,1/2-y,-z
1/2-x,1/2+y,-z
1/2-x,1/2-y,1/2-z
1/2+x,1/2+y,1/2-z
1/2-x,1/2+y,z
1/2+x,1/2-y,z
loop_
_atom_site_type_symbol
_atom_site_label
_atom_site_fract_x
_atom_site_fract_y
_atom_site_fract_z
Si Si1 0.799876 0.496930 0.196405
Si Si2 0.879697 0.811186 0.101262
Si Si3 0.177710 0.799927 0.899840
Si Si4 0.628111 0.369699 0.800492
Si Si5 0.116728 0.043600 0.945853
Si Si6 0.830564 0.862787 0.302363
Si Si7 0.183574 0.426911 0.054462
Si Si8 0.000000 0.500000 0.619368
O O1 0.860381 0.500000 0.250000
O O2 0.681590 0.445611 0.193421
O O3 0.756377 0.572989 0.182265
O O4 0.895842 0.468416 0.155936
O O5 0.772576 0.759219 0.079900
O O6 0.846390 0.815599 0.157449
O O7 0.858669 0.886294 0.081040
O O8 0.025818 0.784965 0.089498
O O9 0.195723 0.805441 0.842377
O O10 0.219137 0.869664 0.925896
O O11 0.477679 0.385935 0.800623
O O12 0.692809 0.336789 0.752273
O O13 0.247040 0.000219 0.943341
O O14 0.077287 0.061834 0.000000
O O15 0.000000 0.000000 0.922181
O O16 0.055238 0.437580 0.086702
O O17 0.144154 0.408687 0.000000
#
# Coordination Sequence:
#
# PCOD8293547 Si02
#       8
#    16  16  16  16  16  16  16   8
#     4  10  19  33  58  93 131 169 217 269 330 383
#     4  11  24  39  65  98 131 174 219 271 333 393
#     4  11  24  42  62  93 135 175 215 268 334 400
#     4   9  19  34  61  90 121 165 229 271 313 380
#     4  10  21  42  72  97 115 153 219 276 322 381
#     4   9  18  37  59  89 125 169 215 274 326 381
#     4  11  24  43  68  94 124 168 217 273 332 392
#     4  12  22  36  56  90 132 170 208 266 326 404
#
# _framework density 21.198124
#
# number of rings (size 3 to 8) (size 9 to 14) (size 15 to 20)
#    0.000    1.733    2.667    1.600    0.000    4.800 
#    0.000    0.000    0.000    0.000    0.000    0.000 
#    0.000    0.000    0.000    0.000    0.000    0.000 
#
# Total GULP energy -743575.912734 kJ/mol
# GULP energy per Si atom -12392.931879 kJ/mol
# Density = 2.114988 g / cm^3
# Si number density = 21.198124 Si / 1000 Ang^3
#
#
#
# Elastic Constant Matrix: (Units=GPa)
#
#
# Indices 1 2 3 4 5 6 
#
# 1 85.1650 48.0524 44.2860 0.0000 0.0000 0.0000
# 2 48.0524 89.3546 31.6397 0.0000 0.0000 0.0000
# 3 44.2860 31.6397 103.1252 0.0000 0.0000 0.0000
# 4 0.0000 0.0000 0.0000 9.9079 0.0000 0.0000
# 5 0.0000 0.0000 0.0000 0.0000 30.4852 0.0000
# 6 0.0000 0.0000 0.0000 0.0000 0.0000 36.1191
#
#
#
# Elastic Compliance Matrix: (Units=1/GPa)
#
#
# Indices 1 2 3 4 5 6 
#
# 1 0.019519 -0.008446 -0.005791 0.000000 0.000000 0.000000
# 2 -0.008446 0.016210 -0.001346 0.000000 0.000000 0.000000
# 3 -0.005791 -0.001346 0.012597 0.000000 0.000000 0.000000
# 4 0.000000 0.000000 0.000000 0.100930 0.000000 0.000000
# 5 0.000000 0.000000 0.000000 0.000000 0.032803 0.000000
# 6 0.000000 0.000000 0.000000 0.000000 0.000000 0.027686
#
#
# Mechanical properties :
#
#
# Convention : Reuss Voigt Hill
#
# Bulk Modulus (GPa) = 58.27764 58.40012 58.33888
# Shear Modulus (GPa) = 20.27324 25.54688 22.91006
#
# Velocity S-wave (km/s) = 3.09588 3.47529 3.29106
# Velocity P-wave (km/s) = 6.35066 6.61158 6.48243
#
# Compressibility (1/GPa) = 0.01715924
#
# Stress axis : x y z
#
# Youngs Moduli (GPa) = 51.23312 61.68961 79.38546
#
# Poissons Ratio (x) = 0.52104 0.45970
# Poissons Ratio (y) = 0.43272 0.10688
# Poissons Ratio (z) = 0.29668 0.08305
#
# Static dielectric constant tensor:
#      x y z
#    x 3.759340 0.000000 0.000000 
#    y 0.000000 3.377300 0.000000 
#    z 0.000000 0.000000 4.400660 
# 
# 
# High freq. dielectric constant tensor:
#      x y z
#    x 1.825890 0.000000 0.000000 
#    y 0.000000 1.799540 0.000000 
#    z 0.000000 0.000000 1.846890 
# 
# From -- ./inp_files/48290.got.cif
#   From: 2010.03.12/outbox.cif.g09.slc.cpg/sg72_25_cif.got.tgz:48290.got - 2010.04.16 14:54:00.
