data_PCOD8293852
_publ_section_title
;
Structure prediction by ZEFSAII (Michael W. Deem and Ramdas Pophale) SiO2 
 PCOD8293852
Probable space group: I B A M
;
_chemical_formula_sum "Si O2"
_cell_formula_units_Z 80
_cell_length_a 12.545248
_cell_length_b 9.392203
_cell_length_c 33.622180
_cell_angle_alpha 90.000000
_cell_angle_beta 90.000000
_cell_angle_gamma 90.000000
_cell_volume 3961.617949
_symmetry_space_group_name_H-M "I B A M"
_symmetry_group_IT_number 72
_symmetry_cell_setting 'orthorhombic'
loop_
_space_group_symop_operation_xyz
x,y,z
-x,-y,z
x,-y,1/2-z
-x,y,1/2-z
-x,-y,-z
x,y,-z
-x,y,1/2+z
x,-y,1/2+z
1/2+x,1/2+y,1/2+z
1/2-x,1/2-y,1/2+z
1/2+x,1/2-y,-z
1/2-x,1/2+y,-z
1/2-x,1/2-y,1/2-z
1/2+x,1/2+y,1/2-z
1/2-x,1/2+y,z
1/2+x,1/2-y,z
loop_
_atom_site_type_symbol
_atom_site_label
_atom_site_fract_x
_atom_site_fract_y
_atom_site_fract_z
Si Si1 0.281091 0.981905 0.546229
Si Si2 0.146687 0.763240 0.584089
Si Si3 0.876364 0.002850 0.702953
Si Si4 0.266034 0.759949 0.662501
Si Si5 0.938656 0.359937 0.105007
O O1 0.269480 0.950139 0.500000
O O2 0.174991 0.923456 0.569270
O O3 0.372102 0.881863 0.564736
O O4 0.309749 0.147426 0.552251
O O5 0.199712 0.707508 0.624711
O O6 0.020282 0.764762 0.592224
O O7 0.812336 0.141209 0.688294
O O8 0.877946 0.000000 0.750000
O O9 0.807369 0.869178 0.688859
O O10 0.000000 0.000000 0.687217
O O11 0.371022 0.833885 0.644662
O O12 0.000000 0.500000 0.117077
#
# Coordination Sequence:
#
# PCOD8293852 Si02
#       5
#    16  16  16  16  16
#     4  10  20  33  51  77 109 144 183 232 286 338
#     4  10  20  35  55  79 106 144 192 235 283 339
#     4  11  24  40  61  90 121 154 191 239 301 358
#     4  11  21  39  62  83 116 152 194 243 289 355
#     4   9  19  34  56  82 106 146 196 236 284 342
#
# _framework density 20.193769
#
# number of rings (size 3 to 8) (size 9 to 14) (size 15 to 20)
#    0.000    1.800    0.000    6.000    0.000    4.400 
#    0.000    3.000    0.000   10.800    0.000    0.000 
#    0.000    0.000    0.000    0.000    0.000    0.000 
#
# Total GULP energy -495620.209642 kJ/mol
# GULP energy per Si atom -12390.505241 kJ/mol
# Density = 2.014781 g / cm^3
# Si number density = 20.193769 Si / 1000 Ang^3
#
#
#
# Elastic Constant Matrix: (Units=GPa)
#
#
# Indices 1 2 3 4 5 6 
#
# 1 101.6312 29.0315 25.7811 0.0000 0.0000 0.0000
# 2 29.0315 57.9857 22.5989 0.0000 0.0000 0.0000
# 3 25.7811 22.5989 95.1841 0.0000 0.0000 0.0000
# 4 0.0000 0.0000 0.0000 31.9706 0.0000 0.0000
# 5 0.0000 0.0000 0.0000 0.0000 17.7021 0.0000
# 6 0.0000 0.0000 0.0000 0.0000 0.0000 34.3277
#
#
#
# Elastic Compliance Matrix: (Units=1/GPa)
#
#
# Indices 1 2 3 4 5 6 
#
# 1 0.011810 -0.005142 -0.001978 0.000000 0.000000 0.000000
# 2 -0.005142 0.021243 -0.003651 0.000000 0.000000 0.000000
# 3 -0.001978 -0.003651 0.011908 0.000000 0.000000 0.000000
# 4 0.000000 0.000000 0.000000 0.031279 0.000000 0.000000
# 5 0.000000 0.000000 0.000000 0.000000 0.056490 0.000000
# 6 0.000000 0.000000 0.000000 0.000000 0.000000 0.029131
#
#
# Mechanical properties :
#
#
# Convention : Reuss Voigt Hill
#
# Bulk Modulus (GPa) = 42.69881 45.51375 44.10628
# Shear Modulus (GPa) = 26.14926 28.62605 27.38765
#
# Velocity S-wave (km/s) = 3.60240 3.76915 3.68672
# Velocity P-wave (km/s) = 6.20431 6.44433 6.32546
#
# Compressibility (1/GPa) = 0.02341985
#
# Stress axis : x y z
#
# Youngs Moduli (GPa) = 84.67321 47.07449 83.97375
#
# Poissons Ratio (x) = 0.24206 0.16610
# Poissons Ratio (y) = 0.43539 0.30657
# Poissons Ratio (z) = 0.16748 0.17186
#
# Static dielectric constant tensor:
#      x y z
#    x 4.463140 0.000000 0.000000 
#    y 0.000000 4.072730 0.000000 
#    z 0.000000 0.000000 3.538230 
# 
# 
# High freq. dielectric constant tensor:
#      x y z
#    x 1.803330 0.000000 0.000000 
#    y 0.000000 1.782240 0.000000 
#    z 0.000000 0.000000 1.785570 
# 
# From -- ./inp_files/51224.got.cif
#   From: 2010.03.12/outbox.cif.g09.slc.cpg/sg72_26_cif.got.tgz:51224.got - 2010.04.16 14:54:00.
