data_PCOD8293585
_publ_section_title
;
Structure prediction by ZEFSAII (Michael W. Deem and Ramdas Pophale) SiO2 
 PCOD8293585
Probable space group: I B A M
;
_chemical_formula_sum "Si O2"
_cell_formula_units_Z 72
_cell_length_a 23.601583
_cell_length_b 16.533572
_cell_length_c 9.329657
_cell_angle_alpha 90.000000
_cell_angle_beta 90.000000
_cell_angle_gamma 90.000000
_cell_volume 3640.604497
_symmetry_space_group_name_H-M "I B A M"
_symmetry_group_IT_number 72
_symmetry_cell_setting 'orthorhombic'
loop_
_space_group_symop_operation_xyz
x,y,z
-x,-y,z
x,-y,1/2-z
-x,y,1/2-z
-x,-y,-z
x,y,-z
-x,y,1/2+z
x,-y,1/2+z
1/2+x,1/2+y,1/2+z
1/2-x,1/2-y,1/2+z
1/2+x,1/2-y,-z
1/2-x,1/2+y,-z
1/2-x,1/2-y,1/2-z
1/2+x,1/2+y,1/2-z
1/2-x,1/2+y,z
1/2+x,1/2-y,z
loop_
_atom_site_type_symbol
_atom_site_label
_atom_site_fract_x
_atom_site_fract_y
_atom_site_fract_z
Si Si1 0.353681 0.500000 0.250000
Si Si2 0.551136 0.610873 0.662608
Si Si3 0.275205 0.360840 0.159809
Si Si4 0.177069 0.309625 0.665500
Si Si5 0.054058 0.276878 0.670417
O O1 0.394120 0.446573 0.351418
O O2 0.313933 0.440340 0.160095
O O3 0.500000 0.567029 0.750000
O O4 0.532557 0.633078 0.500000
O O5 0.564479 0.690263 0.756115
O O6 0.218062 0.372145 0.252793
O O7 0.310171 0.282734 0.215341
O O8 0.254179 0.345398 0.000000
O O9 0.190420 0.321146 0.500000
O O10 0.110988 0.329087 0.697977
O O11 0.043409 0.267097 0.500000
O O12 0.000000 0.318627 0.750000
#
# Coordination Sequence:
#
# PCOD8293585 Si02
#       5
#     8  16  16  16  16
#     4  12  23  36  52  78 107 144 182 224 264 314
#     4  11  23  35  51  73 105 146 184 218 259 306
#     4  10  21  36  54  75 104 140 182 225 264 313
#     4   9  19  37  55  75 104 138 176 224 269 312
#     4  10  19  34  55  79 108 138 176 220 263 313
#
# _framework density 19.776937
#
# number of rings (size 3 to 8) (size 9 to 14) (size 15 to 20)
#    0.000    1.778    2.222    3.667    0.000    7.111 
#    0.000    0.000    0.000    0.000    0.000    0.778 
#    0.000    5.333    0.000    0.000    0.000    0.222 
#
# Total GULP energy -446058.223188 kJ/mol
# GULP energy per Si atom -12390.506200 kJ/mol
# Density = 1.973192 g / cm^3
# Si number density = 19.776937 Si / 1000 Ang^3
#
#
#
# Elastic Constant Matrix: (Units=GPa)
#
#
# Indices 1 2 3 4 5 6 
#
# 1 171.6230 28.9033 71.8638 0.0000 0.0000 0.0000
# 2 28.9033 25.9904 12.7475 0.0000 0.0000 0.0000
# 3 71.8638 12.7475 122.8403 0.0000 0.0000 0.0000
# 4 0.0000 0.0000 0.0000 9.9290 0.0000 0.0000
# 5 0.0000 0.0000 0.0000 0.0000 31.4468 0.0000
# 6 0.0000 0.0000 0.0000 0.0000 0.0000 38.6223
#
#
#
# Elastic Compliance Matrix: (Units=1/GPa)
#
#
# Indices 1 2 3 4 5 6 
#
# 1 0.009014 -0.007837 -0.004460 0.000000 0.000000 0.000000
# 2 -0.007837 0.047352 -0.000329 0.000000 0.000000 0.000000
# 3 -0.004460 -0.000329 0.010784 0.000000 0.000000 0.000000
# 4 0.000000 0.000000 0.000000 0.100715 0.000000 0.000000
# 5 0.000000 0.000000 0.000000 0.000000 0.031800 0.000000
# 6 0.000000 0.000000 0.000000 0.000000 0.000000 0.025892
#
#
# Mechanical properties :
#
#
# Convention : Reuss Voigt Hill
#
# Bulk Modulus (GPa) = 23.86736 60.83141 42.34939
# Shear Modulus (GPa) = 18.88392 29.79556 24.33974
#
# Velocity S-wave (km/s) = 3.09341 3.88568 3.51196
# Velocity P-wave (km/s) = 4.98532 7.13841 6.15672
#
# Compressibility (1/GPa) = 0.04189822
#
# Stress axis : x y z
#
# Youngs Moduli (GPa) = 110.93668 21.11825 92.72907
#
# Poissons Ratio (x) = 0.16550 0.41359
# Poissons Ratio (y) = 0.86939 0.03053
# Poissons Ratio (z) = 0.49480 0.00695
#
# Static dielectric constant tensor:
#      x y z
#    x 4.005020 0.000000 0.000000 
#    y 0.000000 3.056520 0.000000 
#    z 0.000000 0.000000 3.488680 
# 
# 
# High freq. dielectric constant tensor:
#      x y z
#    x 1.785860 0.000000 0.000000 
#    y 0.000000 1.709040 0.000000 
#    z 0.000000 0.000000 1.773850 
# 
# From -- ./inp_files/6726.got.cif
#   From: 2010.03.12/outbox.cif.g09.slc.cpg/sg72_4_cif.got.tgz:6726.got - 2010.04.16 14:54:00.
