data_PCOD8293005
_publ_section_title
;
Structure prediction by ZEFSAII (Michael W. Deem and Ramdas Pophale) SiO2 
 PCOD8293005
Probable space group: I B A M
;
_chemical_formula_sum "Si O2"
_cell_formula_units_Z 96
_cell_length_a 24.020569
_cell_length_b 29.576810
_cell_length_c 8.827698
_cell_angle_alpha 90.000000
_cell_angle_beta 90.000000
_cell_angle_gamma 90.000000
_cell_volume 6271.653982
_symmetry_space_group_name_H-M "I B A M"
_symmetry_group_IT_number 72
_symmetry_cell_setting 'orthorhombic'
loop_
_space_group_symop_operation_xyz
x,y,z
-x,-y,z
x,-y,1/2-z
-x,y,1/2-z
-x,-y,-z
x,y,-z
-x,y,1/2+z
x,-y,1/2+z
1/2+x,1/2+y,1/2+z
1/2-x,1/2-y,1/2+z
1/2+x,1/2-y,-z
1/2-x,1/2+y,-z
1/2-x,1/2-y,1/2-z
1/2+x,1/2+y,1/2-z
1/2-x,1/2+y,z
1/2+x,1/2-y,z
loop_
_atom_site_type_symbol
_atom_site_label
_atom_site_fract_x
_atom_site_fract_y
_atom_site_fract_z
Si Si1 0.058862 0.548056 0.179939
Si Si2 0.224919 0.686931 0.324151
Si Si3 0.330333 0.279600 0.322377
Si Si4 0.132030 0.622305 0.326141
Si Si5 0.446947 0.817715 0.668225
Si Si6 0.554692 0.711597 0.167700
O O1 0.075343 0.500000 0.250000
O O2 0.109364 0.582021 0.220976
O O3 0.000000 0.564725 0.250000
O O4 0.053116 0.543925 0.000000
O O5 0.238798 0.695208 0.500000
O O6 0.281825 0.686084 0.229630
O O7 0.185903 0.728857 0.267160
O O8 0.196402 0.637260 0.301359
O O9 0.337818 0.281664 0.500000
O O10 0.387944 0.298051 0.253645
O O11 0.120059 0.609768 0.500000
O O12 0.103147 0.669215 0.278312
O O13 0.500000 0.839827 0.750000
O O14 0.440285 0.839319 0.500000
O O15 0.453520 0.764804 0.654909
O O16 0.500000 0.690777 0.250000
O O17 0.558104 0.690217 0.000000
#
# Coordination Sequence:
#
# PCOD8293005 Si02
#       6
#    16  16  16  16  16  16
#     4  11  22  37  53  69  88 113 144 180 228 277
#     4   9  19  31  44  61  83 112 142 176 217 261
#     4  10  18  30  45  61  83 111 143 179 219 261
#     4  11  20  32  47  64  85 108 140 178 218 264
#     4  10  19  28  39  56  78 104 134 173 216 257
#     4  10  19  29  42  58  80 107 140 177 217 258
#
# _framework density 15.306967999999999
#
# number of rings (size 3 to 8) (size 9 to 14) (size 15 to 20)
#    0.000    1.833    1.667    4.500    0.000    3.333 
#    0.000    0.000    0.000    0.000    0.000    0.000 
#    0.000    0.000    0.000    0.000    0.000    0.833 
#
# Total GULP energy -594835.434987 kJ/mol
# GULP energy per Si atom -12392.404896 kJ/mol
# Density = 1.527213 g / cm^3
# Si number density = 15.306968 Si / 1000 Ang^3
#
#
#
# Elastic Constant Matrix: (Units=GPa)
#
#
# Indices 1 2 3 4 5 6 
#
# 1 109.6494 23.6208 50.8726 0.0000 0.0000 0.0000
# 2 23.6208 39.2811 22.9246 0.0000 0.0000 0.0000
# 3 50.8726 22.9246 96.7667 0.0000 0.0000 0.0000
# 4 0.0000 0.0000 0.0000 15.8914 0.0000 0.0000
# 5 0.0000 0.0000 0.0000 0.0000 28.4116 0.0000
# 6 0.0000 0.0000 0.0000 0.0000 0.0000 19.4394
#
#
#
# Elastic Compliance Matrix: (Units=1/GPa)
#
#
# Indices 1 2 3 4 5 6 
#
# 1 0.012666 -0.004329 -0.005633 0.000000 0.000000 0.000000
# 2 -0.004329 0.031021 -0.005073 0.000000 0.000000 0.000000
# 3 -0.005633 -0.005073 0.014498 0.000000 0.000000 0.000000
# 4 0.000000 0.000000 0.000000 0.062927 0.000000 0.000000
# 5 0.000000 0.000000 0.000000 0.000000 0.035197 0.000000
# 6 0.000000 0.000000 0.000000 0.000000 0.000000 0.051442
#
#
# Mechanical properties :
#
#
# Convention : Reuss Voigt Hill
#
# Bulk Modulus (GPa) = 35.56946 48.94815 42.25880
# Shear Modulus (GPa) = 20.22706 22.63376 21.43041
#
# Velocity S-wave (km/s) = 3.63909 3.84950 3.74577
# Velocity P-wave (km/s) = 6.39884 7.19759 6.80994
#
# Compressibility (1/GPa) = 0.02811401
#
# Stress axis : x y z
#
# Youngs Moduli (GPa) = 78.95074 32.23582 68.97675
#
# Poissons Ratio (x) = 0.13954 0.38857
# Poissons Ratio (y) = 0.34176 0.34995
# Poissons Ratio (z) = 0.44476 0.16355
#
# Static dielectric constant tensor:
#      x y z
#    x 2.968550 0.000000 0.000000 
#    y 0.000000 2.506040 0.000000 
#    z 0.000000 0.000000 3.169800 
# 
# 
# High freq. dielectric constant tensor:
#      x y z
#    x 1.580180 0.000000 0.000000 
#    y 0.000000 1.521380 0.000000 
#    z 0.000000 0.000000 1.607430 
# 
# From -- ./inp_files/7100.got.cif
#   From: 2010.03.12/outbox.cif.g09.slc.cpg/sg72_4_cif.got.tgz:7100.got - 2010.04.16 14:54:00.
