data_PCOD8293441
_publ_section_title
;
Structure prediction by ZEFSAII (Michael W. Deem and Ramdas Pophale) SiO2 
 PCOD8293441
Probable space group: I B A M
;
_chemical_formula_sum "Si O2"
_cell_formula_units_Z 96
_cell_length_a 20.790881
_cell_length_b 16.928018
_cell_length_c 15.316646
_cell_angle_alpha 90.000000
_cell_angle_beta 90.000000
_cell_angle_gamma 90.000000
_cell_volume 5390.669173
_symmetry_space_group_name_H-M "I B A M"
_symmetry_group_IT_number 72
_symmetry_cell_setting 'orthorhombic'
loop_
_space_group_symop_operation_xyz
x,y,z
-x,-y,z
x,-y,1/2-z
-x,y,1/2-z
-x,-y,-z
x,y,-z
-x,y,1/2+z
x,-y,1/2+z
1/2+x,1/2+y,1/2+z
1/2-x,1/2-y,1/2+z
1/2+x,1/2-y,-z
1/2-x,1/2+y,-z
1/2-x,1/2-y,1/2-z
1/2+x,1/2+y,1/2-z
1/2-x,1/2+y,z
1/2+x,1/2-y,z
loop_
_atom_site_type_symbol
_atom_site_label
_atom_site_fract_x
_atom_site_fract_y
_atom_site_fract_z
Si Si1 0.646986 0.843643 0.171206
Si Si2 0.275906 0.409029 0.739650
Si Si3 0.054603 0.274590 0.191069
Si Si4 0.775783 0.796625 0.402368
Si Si5 0.478802 0.914060 0.601411
Si Si6 0.843462 0.189288 0.401505
O O1 0.703045 0.899601 0.207164
O O2 0.615306 0.798998 0.251662
O O3 0.675248 0.776601 0.107592
O O4 0.596474 0.898746 0.119849
O O5 0.292164 0.500000 0.750000
O O6 0.288477 0.364069 0.830955
O O7 0.324763 0.378584 0.666091
O O8 0.082932 0.216578 0.117335
O O9 0.000000 0.231011 0.250000
O O10 0.022568 0.351843 0.150939
O O11 0.784865 0.831948 0.500000
O O12 0.703613 0.764313 0.389989
O O13 0.493314 0.905970 0.500000
O O14 0.500000 0.000000 0.635849
O O15 0.839938 0.155831 0.500000
#
# Coordination Sequence:
#
# PCOD8293441 Si02
#       6
#    16  16  16  16  16  16
#     4  10  19  35  55  77 109 146 189 222 268 329
#     4  11  22  35  56  83 111 144 185 236 288 326
#     4  10  19  32  56  78 107 148 185 219 265 327
#     4  10  19  35  58  79 106 145 187 232 278 326
#     4  10  22  34  48  81 120 151 185 221 266 329
#     4  10  19  36  58  81 110 143 186 229 273 332
#
# _framework density 17.80855
#
# number of rings (size 3 to 8) (size 9 to 14) (size 15 to 20)
#    0.000    1.833    3.333    2.000    2.333    3.667 
#    0.000    0.000    0.000    0.500    0.000    1.167 
#    0.000    0.000    0.000    0.000    0.000    0.000 
#
# Total GULP energy -595178.547304 kJ/mol
# GULP energy per Si atom -12399.553069 kJ/mol
# Density = 1.776802 g / cm^3
# Si number density = 17.808550 Si / 1000 Ang^3
#
#
#
# Elastic Constant Matrix: (Units=GPa)
#
#
# Indices 1 2 3 4 5 6 
#
# 1 101.7017 43.4898 42.6779 0.0000 0.0000 0.0000
# 2 43.4898 97.2251 59.6647 0.0000 0.0000 0.0000
# 3 42.6779 59.6647 131.3488 0.0000 0.0000 0.0000
# 4 0.0000 0.0000 0.0000 18.1107 0.0000 0.0000
# 5 0.0000 0.0000 0.0000 0.0000 24.6978 0.0000
# 6 0.0000 0.0000 0.0000 0.0000 0.0000 22.8554
#
#
#
# Elastic Compliance Matrix: (Units=1/GPa)
#
#
# Indices 1 2 3 4 5 6 
#
# 1 0.012571 -0.004321 -0.002122 0.000000 0.000000 0.000000
# 2 -0.004321 0.015746 -0.005749 0.000000 0.000000 0.000000
# 3 -0.002122 -0.005749 0.010914 0.000000 0.000000 0.000000
# 4 0.000000 0.000000 0.000000 0.055216 0.000000 0.000000
# 5 0.000000 0.000000 0.000000 0.000000 0.040489 0.000000
# 6 0.000000 0.000000 0.000000 0.000000 0.000000 0.043753
#
#
# Mechanical properties :
#
#
# Convention : Reuss Voigt Hill
#
# Bulk Modulus (GPa) = 67.34832 69.10450 68.22641
# Shear Modulus (GPa) = 24.03599 25.42900 24.73249
#
# Velocity S-wave (km/s) = 3.67780 3.78287 3.73070
# Velocity P-wave (km/s) = 7.47897 7.61370 7.54664
#
# Compressibility (1/GPa) = 0.01484818
#
# Stress axis : x y z
#
# Youngs Moduli (GPa) = 79.54962 63.50819 91.62568
#
# Poissons Ratio (x) = 0.27442 0.19440
# Poissons Ratio (y) = 0.34373 0.52672
# Poissons Ratio (z) = 0.16878 0.36508
#
# Static dielectric constant tensor:
#      x y z
#    x 3.456040 0.000000 0.000000 
#    y 0.000000 2.971340 0.000000 
#    z 0.000000 0.000000 3.513790 
# 
# 
# High freq. dielectric constant tensor:
#      x y z
#    x 1.688020 0.000000 0.000000 
#    y 0.000000 1.653670 0.000000 
#    z 0.000000 0.000000 1.707910 
# 
# From -- ./inp_files/21830.got.cif
#   From: 2010.03.12/outbox.cif.g09.slc.cpg/sg72_11_cif.got.tgz:21830.got - 2010.04.16 14:54:00.
