data_PCOD8293777
_publ_section_title
;
Structure prediction by ZEFSAII (Michael W. Deem and Ramdas Pophale) SiO2 
 PCOD8293777
Probable space group: I B A M
;
_chemical_formula_sum "Si O2"
_cell_formula_units_Z 88
_cell_length_a 23.622542
_cell_length_b 12.086114
_cell_length_c 14.680504
_cell_angle_alpha 90.000000
_cell_angle_beta 90.000000
_cell_angle_gamma 90.000000
_cell_volume 4191.353413
_symmetry_space_group_name_H-M "I B A M"
_symmetry_group_IT_number 72
_symmetry_cell_setting 'orthorhombic'
loop_
_space_group_symop_operation_xyz
x,y,z
-x,-y,z
x,-y,1/2-z
-x,y,1/2-z
-x,-y,-z
x,y,-z
-x,y,1/2+z
x,-y,1/2+z
1/2+x,1/2+y,1/2+z
1/2-x,1/2-y,1/2+z
1/2+x,1/2-y,-z
1/2-x,1/2+y,-z
1/2-x,1/2-y,1/2-z
1/2+x,1/2+y,1/2-z
1/2-x,1/2+y,z
1/2+x,1/2-y,z
loop_
_atom_site_type_symbol
_atom_site_label
_atom_site_fract_x
_atom_site_fract_y
_atom_site_fract_z
Si Si1 0.377901 0.639495 0.000000
Si Si2 0.319810 0.785587 0.146115
Si Si3 0.309227 0.246387 0.142215
Si Si4 0.473293 0.891247 0.651824
Si Si5 0.622925 0.616191 0.000000
Si Si6 0.494378 0.714832 0.500000
Si Si7 0.847326 0.476625 0.151374
O O1 0.350729 0.690057 0.909247
O O2 0.361075 0.511634 0.000000
O O3 0.445330 0.655512 0.000000
O O4 0.329634 0.759298 0.252554
O O5 0.253156 0.792972 0.126634
O O6 0.346537 0.901558 0.106337
O O7 0.310136 0.119313 0.102530
O O8 0.352406 0.325388 0.089877
O O9 0.500000 0.867117 0.750000
O O10 0.486514 0.787263 0.590012
O O11 0.407653 0.917929 0.661825
O O12 0.500000 0.000000 0.605842
O O13 0.554906 0.623617 0.000000
O O14 0.819913 0.500000 0.250000
#
# Coordination Sequence:
#
# PCOD8293777 Si02
#       7
#     8  16  16  16   8   8  16
#     4  12  28  43  65  92 135 172 226 262 314 385
#     4  10  24  44  67 101 130 170 212 273 324 386
#     4  10  23  44  70  95 131 170 216 264 330 383
#     4  11  21  37  64  96 131 163 205 268 332 383
#     4  12  26  45  65  92 128 182 221 265 312 391
#     4  12  26  42  62  92 127 173 220 263 322 381
#     4  10  19  38  68  99 128 161 210 268 326 385
#
# _framework density 20.995605999999999
#
# number of rings (size 3 to 8) (size 9 to 14) (size 15 to 20)
#    0.000    1.273    3.636    2.182    5.091    2.182 
#    0.000    0.000    0.000    3.273    0.000    0.000 
#    0.000    0.000    0.000    0.000    0.000    0.000 
#
# Total GULP energy -545341.857339 kJ/mol
# GULP energy per Si atom -12394.133121 kJ/mol
# Density = 2.094782 g / cm^3
# Si number density = 20.995606 Si / 1000 Ang^3
#
#
#
# Elastic Constant Matrix: (Units=GPa)
#
#
# Indices 1 2 3 4 5 6 
#
# 1 118.2385 43.4427 43.8594 0.0000 0.0000 0.0000
# 2 43.4427 173.9135 56.7857 0.0000 0.0000 0.0000
# 3 43.8594 56.7857 96.4936 0.0000 0.0000 0.0000
# 4 0.0000 0.0000 0.0000 19.8768 0.0000 0.0000
# 5 0.0000 0.0000 0.0000 0.0000 -16.0554 0.0000
# 6 0.0000 0.0000 0.0000 0.0000 0.0000 -78.0326
#
#
#
# Elastic Compliance Matrix: (Units=1/GPa)
#
#
# Indices 1 2 3 4 5 6 
#
# 1 0.010407 -0.001306 -0.003962 0.000000 0.000000 0.000000
# 2 -0.001306 0.007282 -0.003692 0.000000 0.000000 0.000000
# 3 -0.003962 -0.003692 0.014337 0.000000 0.000000 0.000000
# 4 0.000000 0.000000 0.000000 0.050310 0.000000 0.000000
# 5 0.000000 0.000000 0.000000 0.000000 -0.062284 0.000000
# 6 0.000000 0.000000 0.000000 0.000000 0.000000 -0.012815
#
#
# Mechanical properties :
#
#
# Convention : Reuss Voigt Hill
#
# Bulk Modulus (GPa) = 70.88912 75.20234 73.04573
# Shear Modulus (GPa) = 167.47092 1.46161 84.46627
#
# Velocity S-wave (km/s) = 8.94080 0.83526 6.34963
# Velocity P-wave (km/s) = 11.84994 6.06845 9.41401
#
# Compressibility (1/GPa) = 0.01410654
#
# Stress axis : x y z
#
# Youngs Moduli (GPa) = 96.09025 137.33311 69.75202
#
# Poissons Ratio (x) = 0.17936 0.27633
# Poissons Ratio (y) = 0.12550 0.25749
# Poissons Ratio (z) = 0.38068 0.50697
#
# Static dielectric constant tensor:
#      x y z
#    x 3.884800 0.000000 0.000000 
#    y 0.000000 4.176570 0.000000 
#    z 0.000000 0.000000 3.595040 
# 
# 
# High freq. dielectric constant tensor:
#      x y z
#    x 1.829850 0.000000 0.000000 
#    y 0.000000 1.826410 0.000000 
#    z 0.000000 0.000000 1.818500 
# 
# From -- ./inp_files/25036.got.cif
#   From: 2010.03.12/outbox.cif.g09.slc.cpg/sg72_13_cif.got.tgz:25036.got - 2010.04.16 14:54:00.
