data_PCOD8293984
_publ_section_title
;
Structure prediction by ZEFSAII (Michael W. Deem and Ramdas Pophale) SiO2 
 PCOD8293984
Probable space group: I B A M
;
_chemical_formula_sum "Si O2"
_cell_formula_units_Z 96
_cell_length_a 11.853865
_cell_length_b 23.975731
_cell_length_c 16.971520
_cell_angle_alpha 90.000000
_cell_angle_beta 90.000000
_cell_angle_gamma 90.000000
_cell_volume 4823.392175
_symmetry_space_group_name_H-M "I B A M"
_symmetry_group_IT_number 72
_symmetry_cell_setting 'orthorhombic'
loop_
_space_group_symop_operation_xyz
x,y,z
-x,-y,z
x,-y,1/2-z
-x,y,1/2-z
-x,-y,-z
x,y,-z
-x,y,1/2+z
x,-y,1/2+z
1/2+x,1/2+y,1/2+z
1/2-x,1/2-y,1/2+z
1/2+x,1/2-y,-z
1/2-x,1/2+y,-z
1/2-x,1/2-y,1/2-z
1/2+x,1/2+y,1/2-z
1/2-x,1/2+y,z
1/2+x,1/2-y,z
loop_
_atom_site_type_symbol
_atom_site_label
_atom_site_fract_x
_atom_site_fract_y
_atom_site_fract_z
Si Si1 0.970620 0.114267 0.907069
Si Si2 0.867558 0.644770 0.841284
Si Si3 0.873702 0.334520 0.159723
Si Si4 0.827312 0.783562 0.407818
Si Si5 0.256715 0.455273 0.906789
Si Si6 0.290359 0.421585 0.408220
O O1 0.927567 0.175139 0.879044
O O2 0.879771 0.067719 0.882778
O O3 0.091705 0.099101 0.868577
O O4 0.982537 0.116387 0.000000
O O5 0.843784 0.652358 0.749342
O O6 0.792405 0.686963 0.892429
O O7 0.839948 0.580852 0.863983
O O8 0.996134 0.657893 0.861777
O O9 0.835430 0.271892 0.142969
O O10 0.805609 0.376414 0.104623
O O11 0.836351 0.769277 0.500000
O O12 0.250842 0.518526 0.874322
O O13 0.236073 0.450658 0.000000
O O14 0.312503 0.430225 0.500000
#
# Coordination Sequence:
#
# PCOD8293984 Si02
#       6
#    16  16  16  16  16  16
#     4   8  16  33  57  86 114 145 185 237 297 341
#     4  10  23  42  57  78 115 157 197 232 291 352
#     4  11  24  38  56  84 117 156 194 234 289 349
#     4  10  21  38  62  86 113 150 193 243 294 347
#     4   9  18  36  61  84 112 152 196 244 291 343
#     4  10  20  34  57  90 118 145 194 247 290 342
#
# _framework density 19.903005
#
# number of rings (size 3 to 8) (size 9 to 14) (size 15 to 20)
#    0.000    2.333    0.000    3.000    2.333    6.000 
#    0.000    5.833    0.000    4.000    0.000    0.000 
#    0.000    0.000    0.000    0.000    0.000    0.000 
#
# Total GULP energy -595233.188071 kJ/mol
# GULP energy per Si atom -12400.691418 kJ/mol
# Density = 1.985771 g / cm^3
# Si number density = 19.903005 Si / 1000 Ang^3
#
#
#
# Elastic Constant Matrix: (Units=GPa)
#
#
# Indices 1 2 3 4 5 6 
#
# 1 89.5543 49.9662 19.1950 0.0000 0.0000 0.0000
# 2 49.9662 167.9701 24.6520 0.0001 0.0000 0.0000
# 3 19.1950 24.6520 39.6444 0.0002 0.0000 0.0000
# 4 0.0000 0.0001 0.0002 22.0599 0.0000 0.0000
# 5 0.0000 0.0000 0.0000 0.0000 22.4917 0.0000
# 6 0.0000 0.0000 0.0000 0.0000 0.0000 20.8152
#
#
#
# Elastic Compliance Matrix: (Units=1/GPa)
#
#
# Indices 1 2 3 4 5 6 
#
# 1 0.014127 -0.003520 -0.004651 0.000000 0.000000 0.000000
# 2 -0.003520 0.007428 -0.002915 0.000000 0.000000 0.000000
# 3 -0.004651 -0.002915 0.029289 0.000000 0.000000 0.000000
# 4 0.000000 0.000000 0.000000 0.045331 0.000000 0.000000
# 5 0.000000 0.000000 0.000000 0.000000 0.044461 0.000000
# 6 0.000000 0.000000 0.000000 0.000000 0.000000 0.048042
#
#
# Mechanical properties :
#
#
# Convention : Reuss Voigt Hill
#
# Bulk Modulus (GPa) = 34.87694 53.86613 44.37154
# Shear Modulus (GPa) = 22.68522 26.63039 24.65781
#
# Velocity S-wave (km/s) = 3.37974 3.66185 3.52362
# Velocity P-wave (km/s) = 5.72640 6.70835 6.23673
#
# Compressibility (1/GPa) = 0.02867224
#
# Stress axis : x y z
#
# Youngs Moduli (GPa) = 70.78534 134.62079 34.14263
#
# Poissons Ratio (x) = 0.47384 0.15881
# Poissons Ratio (y) = 0.24915 0.09952
# Poissons Ratio (z) = 0.32925 0.39241
#
# Static dielectric constant tensor:
#      x y z
#    x 3.728850 0.000000 0.000000 
#    y 0.000000 3.788100 0.000000 
#    z 0.000000 0.000000 3.340600 
# 
# 
# High freq. dielectric constant tensor:
#      x y z
#    x 1.778460 0.000000 0.000000 
#    y 0.000000 1.788800 0.000000 
#    z 0.000000 0.000000 1.752320 
# 
# From -- ./inp_files/29484.got.cif
#   From: 2010.03.12/outbox.cif.g09.slc.cpg/sg72_15_cif.got.tgz:29484.got - 2010.04.16 14:54:00.
