data_PCOD8293890
_publ_section_title
;
Structure prediction by ZEFSAII (Michael W. Deem and Ramdas Pophale) SiO2 
 PCOD8293890
Probable space group: I B A M
;
_chemical_formula_sum "Si O2"
_cell_formula_units_Z 88
_cell_length_a 12.265277
_cell_length_b 14.563472
_cell_length_c 23.908791
_cell_angle_alpha 90.000000
_cell_angle_beta 90.000000
_cell_angle_gamma 90.000000
_cell_volume 4270.708227
_symmetry_space_group_name_H-M "I B A M"
_symmetry_group_IT_number 72
_symmetry_cell_setting 'orthorhombic'
loop_
_space_group_symop_operation_xyz
x,y,z
-x,-y,z
x,-y,1/2-z
-x,y,1/2-z
-x,-y,-z
x,y,-z
-x,y,1/2+z
x,-y,1/2+z
1/2+x,1/2+y,1/2+z
1/2-x,1/2-y,1/2+z
1/2+x,1/2-y,-z
1/2-x,1/2+y,-z
1/2-x,1/2-y,1/2-z
1/2+x,1/2+y,1/2-z
1/2-x,1/2+y,z
1/2+x,1/2-y,z
loop_
_atom_site_type_symbol
_atom_site_label
_atom_site_fract_x
_atom_site_fract_y
_atom_site_fract_z
Si Si1 0.769714 0.638326 0.621342
Si Si2 0.001911 0.397584 0.098879
Si Si3 0.988110 0.743117 0.000000
Si Si4 0.764358 0.839883 0.000000
Si Si5 0.238023 0.645704 0.619328
Si Si6 0.676848 0.347803 0.500000
Si Si7 0.874672 0.002270 0.183930
O O1 0.894141 0.612971 0.638155
O O2 0.743738 0.601944 0.557340
O O3 0.750718 0.746296 0.627097
O O4 0.685961 0.587779 0.661546
O O5 0.000000 0.500000 0.072602
O O6 0.114083 0.383768 0.133467
O O7 0.990020 0.318150 0.054098
O O8 0.861889 0.767016 0.000000
O O9 0.044034 0.847830 0.000000
O O10 0.667755 0.765371 0.000000
O O11 0.266400 0.612959 0.555602
O O12 0.319297 0.595052 0.661411
O O13 0.865863 0.000000 0.250000
O O14 0.000000 0.000000 0.164000
#
# Coordination Sequence:
#
# PCOD8293890 Si02
#       7
#    16  16   8   8  16   8  16
#     4  11  23  42  68  96 136 174 212 262 327 390
#     4  12  21  36  60 102 132 174 214 258 322 379
#     4  12  19  34  56  97 142 176 212 249 308 405
#     4  10  20  33  59  98 134 171 207 247 314 394
#     4  11  23  42  68  96 136 174 212 262 327 390
#     4  10  20  33  59  98 134 171 207 247 314 394
#     4  11  28  50  68  91 124 170 228 276 319 388
#
# _framework density 20.605481999999999
#
# number of rings (size 3 to 8) (size 9 to 14) (size 15 to 20)
#    0.000    0.909    9.091    0.273    5.091    1.455 
#    0.000    2.727    0.000    0.000    0.000    0.000 
#    0.000    0.000    0.000    0.000    0.000    0.000 
#
# Total GULP energy -545268.624738 kJ/mol
# GULP energy per Si atom -12392.468744 kJ/mol
# Density = 2.055858 g / cm^3
# Si number density = 20.605482 Si / 1000 Ang^3
#
#
#
# Elastic Constant Matrix: (Units=GPa)
#
#
# Indices 1 2 3 4 5 6 
#
# 1 184.7866 63.3251 55.5066 0.0000 0.0000 0.0000
# 2 63.3251 103.5593 29.8218 0.0000 0.0000 0.0000
# 3 55.5066 29.8218 77.4037 0.0000 0.0000 0.0000
# 4 0.0000 0.0000 0.0000 22.6648 0.0000 0.0000
# 5 0.0000 0.0000 0.0000 0.0000 29.1855 0.0000
# 6 0.0000 0.0000 0.0000 0.0000 0.0000 30.7819
#
#
#
# Elastic Compliance Matrix: (Units=1/GPa)
#
#
# Indices 1 2 3 4 5 6 
#
# 1 0.007944 -0.003619 -0.004303 0.000000 0.000000 0.000000
# 2 -0.003619 0.012510 -0.002225 0.000000 0.000000 0.000000
# 3 -0.004303 -0.002225 0.016862 0.000000 0.000000 0.000000
# 4 0.000000 0.000000 0.000000 0.044121 0.000000 0.000000
# 5 0.000000 0.000000 0.000000 0.000000 0.034264 0.000000
# 6 0.000000 0.000000 0.000000 0.000000 0.000000 0.032487
#
#
# Mechanical properties :
#
#
# Convention : Reuss Voigt Hill
#
# Bulk Modulus (GPa) = 58.74169 73.67297 66.20733
# Shear Modulus (GPa) = 28.71024 30.99952 29.85488
#
# Velocity S-wave (km/s) = 3.73678 3.88291 3.81055
# Velocity P-wave (km/s) = 6.86933 7.47892 7.18060
#
# Compressibility (1/GPa) = 0.01702368
#
# Stress axis : x y z
#
# Youngs Moduli (GPa) = 125.87806 79.93762 59.30561
#
# Poissons Ratio (x) = 0.28927 0.25517
# Poissons Ratio (y) = 0.45552 0.13194
# Poissons Ratio (z) = 0.54160 0.17784
#
# Static dielectric constant tensor:
#      x y z
#    x 4.317890 0.000000 0.000000 
#    y 0.000000 3.566940 0.000000 
#    z 0.000000 0.000000 3.364510 
# 
# 
# High freq. dielectric constant tensor:
#      x y z
#    x 1.844650 0.000000 0.000000 
#    y 0.000000 1.803350 0.000000 
#    z 0.000000 0.000000 1.758160 
# 
# From -- ./inp_files/43262.got.cif
#   From: 2010.03.12/outbox.cif.g09.slc.cpg/sg72_22_cif.got.tgz:43262.got - 2010.04.16 14:54:00.
