data_PCOD8293026
_publ_section_title
;
Structure prediction by ZEFSAII (Michael W. Deem and Ramdas Pophale) SiO2 
 PCOD8293026
Probable space group: I B A M
;
_chemical_formula_sum "Si O2"
_cell_formula_units_Z 112
_cell_length_a 26.490609
_cell_length_b 14.219600
_cell_length_c 17.529503
_cell_angle_alpha 90.000000
_cell_angle_beta 90.000000
_cell_angle_gamma 90.000000
_cell_volume 6603.115978
_symmetry_space_group_name_H-M "I B A M"
_symmetry_group_IT_number 72
_symmetry_cell_setting 'orthorhombic'
loop_
_space_group_symop_operation_xyz
x,y,z
-x,-y,z
x,-y,1/2-z
-x,y,1/2-z
-x,-y,-z
x,y,-z
-x,y,1/2+z
x,-y,1/2+z
1/2+x,1/2+y,1/2+z
1/2-x,1/2-y,1/2+z
1/2+x,1/2-y,-z
1/2-x,1/2+y,-z
1/2-x,1/2-y,1/2-z
1/2+x,1/2+y,1/2-z
1/2-x,1/2+y,z
1/2+x,1/2-y,z
loop_
_atom_site_type_symbol
_atom_site_label
_atom_site_fract_x
_atom_site_fract_y
_atom_site_fract_z
Si Si1 0.696372 0.656704 0.090674
Si Si2 0.300488 0.749314 0.852258
Si Si3 0.942881 0.390413 0.267659
Si Si4 0.789168 0.049322 0.415935
Si Si5 0.612175 0.136838 0.085486
Si Si6 0.350025 0.204967 0.805184
Si Si7 0.324838 0.954154 0.416939
O O1 0.749685 0.698988 0.120432
O O2 0.684773 0.547616 0.111183
O O3 0.650777 0.708300 0.135584
O O4 0.693404 0.674949 0.000000
O O5 0.296101 0.636022 0.858381
O O6 0.348540 0.778244 0.903516
O O7 0.312511 0.775325 0.765086
O O8 0.931880 0.500000 0.250000
O O9 0.934670 0.363909 0.356409
O O10 0.906805 0.321736 0.218790
O O11 0.000000 0.363299 0.250000
O O12 0.808410 0.080910 0.500000
O O13 0.732221 0.012581 0.422877
O O14 0.641734 0.042296 0.105083
O O15 0.590245 0.139914 0.000000
O O16 0.326396 0.118271 0.849104
O O17 0.341919 0.912774 0.500000
#
# Coordination Sequence:
#
# PCOD8293026 Si02
#       7
#    16  16  16  16  16  16  16
#     4  11  21  34  49  73 107 141 177 210 248 301
#     4  11  21  32  49  74 107 139 179 212 251 298
#     4  10  21  38  55  76 107 133 164 222 276 308
#     4  10  20  32  48  71 106 146 175 211 246 284
#     4  10  19  34  55  77 102 143 183 209 250 316
#     4  11  22  34  50  76  99 142 175 209 259 314
#     4  10  18  30  49  73 105 141 177 212 247 297
#
# _framework density 16.961687999999999
#
# number of rings (size 3 to 8) (size 9 to 14) (size 15 to 20)
#    0.000    1.571    4.286    2.143    0.000    0.571 
#    0.000    2.857    0.000    0.000    0.000    8.000 
#    0.000   10.286    0.000    0.000    0.000    0.000 
#
# Total GULP energy -693983.413281 kJ/mol
# GULP energy per Si atom -12392.560951 kJ/mol
# Density = 1.692308 g / cm^3
# Si number density = 16.961688 Si / 1000 Ang^3
#
#
#
# Elastic Constant Matrix: (Units=GPa)
#
#
# Indices 1 2 3 4 5 6 
#
# 1 81.2661 39.4311 46.1861 0.0000 0.0000 0.0000
# 2 39.4311 105.0013 54.6692 0.0000 0.0000 0.0000
# 3 46.1861 54.6692 111.2932 0.0000 0.0000 0.0000
# 4 0.0000 0.0000 0.0000 5.1720 0.0000 0.0000
# 5 0.0000 0.0000 0.0000 0.0000 18.5374 0.0000
# 6 0.0000 0.0000 0.0000 0.0000 0.0000 19.4772
#
#
#
# Elastic Compliance Matrix: (Units=1/GPa)
#
#
# Indices 1 2 3 4 5 6 
#
# 1 0.017091 -0.003662 -0.005294 0.000000 0.000000 0.000000
# 2 -0.003662 0.013581 -0.005152 0.000000 0.000000 0.000000
# 3 -0.005294 -0.005152 0.013713 0.000000 0.000000 0.000000
# 4 0.000000 0.000000 0.000000 0.193349 0.000000 0.000000
# 5 0.000000 0.000000 0.000000 0.000000 0.053945 0.000000
# 6 0.000000 0.000000 0.000000 0.000000 0.000000 0.051342
#
#
# Mechanical properties :
#
#
# Convention : Reuss Voigt Hill
#
# Bulk Modulus (GPa) = 61.84300 64.23704 63.04002
# Shear Modulus (GPa) = 13.27579 19.12225 16.19902
#
# Velocity S-wave (km/s) = 2.80070 3.36129 3.09372
# Velocity P-wave (km/s) = 6.85552 7.28137 7.07165
#
# Compressibility (1/GPa) = 0.01616998
#
# Stress axis : x y z
#
# Youngs Moduli (GPa) = 58.51167 73.63218 72.92505
#
# Poissons Ratio (x) = 0.26963 0.38605
# Poissons Ratio (y) = 0.21426 0.37568
# Poissons Ratio (z) = 0.30975 0.37932
#
# Static dielectric constant tensor:
#      x y z
#    x 2.854080 0.000000 0.000000 
#    y 0.000000 3.324920 0.000000 
#    z 0.000000 0.000000 3.538780 
# 
# 
# High freq. dielectric constant tensor:
#      x y z
#    x 1.606760 0.000000 0.000000 
#    y 0.000000 1.653400 0.000000 
#    z 0.000000 0.000000 1.672360 
# 
# From -- ./inp_files/25932.got.cif
#   From: 2010.03.12/outbox.cif.g09.slc.cpg/sg72_13_cif.got.tgz:25932.got - 2010.04.16 14:54:00.
