data_PCOD8293072
_publ_section_title
;
Structure prediction by ZEFSAII (Michael W. Deem and Ramdas Pophale) SiO2 
 PCOD8293072
Probable space group: I B A M
;
_chemical_formula_sum "Si O2"
_cell_formula_units_Z 96
_cell_length_a 26.548857
_cell_length_b 9.846252
_cell_length_c 22.187617
_cell_angle_alpha 90.000000
_cell_angle_beta 90.000000
_cell_angle_gamma 90.000000
_cell_volume 5799.992547
_symmetry_space_group_name_H-M "I B A M"
_symmetry_group_IT_number 72
_symmetry_cell_setting 'orthorhombic'
loop_
_space_group_symop_operation_xyz
x,y,z
-x,-y,z
x,-y,1/2-z
-x,y,1/2-z
-x,-y,-z
x,y,-z
-x,y,1/2+z
x,-y,1/2+z
1/2+x,1/2+y,1/2+z
1/2-x,1/2-y,1/2+z
1/2+x,1/2-y,-z
1/2-x,1/2+y,-z
1/2-x,1/2-y,1/2-z
1/2+x,1/2+y,1/2-z
1/2-x,1/2+y,z
1/2+x,1/2-y,z
loop_
_atom_site_type_symbol
_atom_site_label
_atom_site_fract_x
_atom_site_fract_y
_atom_site_fract_z
Si Si1 0.126225 0.235450 0.172851
Si Si2 0.854971 0.816437 0.309474
Si Si3 0.702240 0.325053 0.933177
Si Si4 0.237475 0.089745 0.615206
Si Si5 0.445146 0.489113 0.320209
Si Si6 0.334810 0.987141 0.317513
O O1 0.147556 0.176703 0.236590
O O2 0.161564 0.194782 0.118230
O O3 0.121020 0.399060 0.174135
O O4 0.073174 0.162034 0.161447
O O5 0.803672 0.884286 0.332834
O O6 0.903475 0.895786 0.337496
O O7 0.858208 0.660095 0.331933
O O8 0.750262 0.229987 0.918625
O O9 0.717669 0.482608 0.933605
O O10 0.681288 0.289986 0.000000
O O11 0.287664 0.022411 0.641541
O O12 0.500000 0.500000 0.352621
O O13 0.454147 0.500000 0.250000
O O14 0.314140 0.000000 0.250000
#
# Coordination Sequence:
#
# PCOD8293072 Si02
#       6
#    16  16  16  16  16  16
#     4   9  19  32  49  70  99 128 163 201 245 289
#     4  10  18  31  49  75  99 124 163 205 247 291
#     4  11  22  33  45  67  99 136 167 194 233 288
#     4  11  20  31  49  69  99 131 162 201 241 284
#     4   9  17  30  51  75  99 125 156 202 258 301
#     4   9  19  28  45  71  99 126 157 192 239 291
#
# _framework density 16.551745
#
# number of rings (size 3 to 8) (size 9 to 14) (size 15 to 20)
#    0.000    2.167    3.333    0.500    2.333    2.000 
#    0.000    0.833    0.000    5.500    0.000    0.000 
#    0.000    3.000    0.000    0.000    0.000    0.000 
#
# Total GULP energy -594700.005278 kJ/mol
# GULP energy per Si atom -12389.583443 kJ/mol
# Density = 1.651407 g / cm^3
# Si number density = 16.551745 Si / 1000 Ang^3
#
#
#
# Elastic Constant Matrix: (Units=GPa)
#
#
# Indices 1 2 3 4 5 6 
#
# 1 97.0407 51.2621 28.6626 0.0000 0.0000 0.0000
# 2 51.2621 107.7076 29.0136 0.0000 0.0000 0.0000
# 3 28.6626 29.0136 68.7140 0.0000 0.0000 0.0000
# 4 0.0000 0.0000 0.0000 13.1642 0.0000 0.0000
# 5 0.0000 0.0000 0.0000 0.0000 5.1186 0.0000
# 6 0.0000 0.0000 0.0000 0.0000 0.0000 -25.3429
#
#
#
# Elastic Compliance Matrix: (Units=1/GPa)
#
#
# Indices 1 2 3 4 5 6 
#
# 1 0.014489 -0.005944 -0.003534 0.000000 0.000000 0.000000
# 2 -0.005944 0.012914 -0.002974 0.000000 0.000000 0.000000
# 3 -0.003534 -0.002974 0.017283 0.000000 0.000000 0.000000
# 4 0.000000 0.000000 0.000000 0.075964 0.000000 0.000000
# 5 0.000000 0.000000 0.000000 0.000000 0.195367 0.000000
# 6 0.000000 0.000000 0.000000 0.000000 0.000000 -0.039459
#
#
# Mechanical properties :
#
#
# Convention : Reuss Voigt Hill
#
# Bulk Modulus (GPa) = 50.54822 54.59320 52.57071
# Shear Modulus (GPa) = 16.23092 9.55623 12.89357
#
# Velocity S-wave (km/s) = 3.13488 2.40543 2.79406
# Velocity P-wave (km/s) = 6.61128 6.38512 6.49919
#
# Compressibility (1/GPa) = 0.01978309
#
# Stress axis : x y z
#
# Youngs Moduli (GPa) = 69.02007 77.43393 57.86117
#
# Poissons Ratio (x) = 0.46024 0.20448
# Poissons Ratio (y) = 0.41023 0.17205
# Poissons Ratio (z) = 0.24391 0.23026
#
# Static dielectric constant tensor:
#      x y z
#    x 3.124540 0.000000 0.000000 
#    y 0.000000 3.658230 0.000000 
#    z 0.000000 0.000000 2.852850 
# 
# 
# High freq. dielectric constant tensor:
#      x y z
#    x 1.605920 0.000000 0.000000 
#    y 0.000000 1.660100 0.000000 
#    z 0.000000 0.000000 1.605760 
# 
# From -- ./inp_files/45905.got.cif
#   From: 2010.03.12/outbox.cif.g09.slc.cpg/sg72_23_cif.got.tgz:45905.got - 2010.04.16 14:54:00.
