data_PCOD8293719
_publ_section_title
;
Structure prediction by ZEFSAII (Michael W. Deem and Ramdas Pophale) SiO2 
 PCOD8293719
Probable space group: I B A M
;
_chemical_formula_sum "Si O2"
_cell_formula_units_Z 64
_cell_length_a 9.227745
_cell_length_b 21.819154
_cell_length_c 15.767517
_cell_angle_alpha 90.000000
_cell_angle_beta 90.000000
_cell_angle_gamma 90.000000
_cell_volume 3174.656931
_symmetry_space_group_name_H-M "I B A M"
_symmetry_group_IT_number 72
_symmetry_cell_setting 'orthorhombic'
loop_
_space_group_symop_operation_xyz
x,y,z
-x,-y,z
x,-y,1/2-z
-x,y,1/2-z
-x,-y,-z
x,y,-z
-x,y,1/2+z
x,-y,1/2+z
1/2+x,1/2+y,1/2+z
1/2-x,1/2-y,1/2+z
1/2+x,1/2-y,-z
1/2-x,1/2+y,-z
1/2-x,1/2-y,1/2-z
1/2+x,1/2+y,1/2-z
1/2-x,1/2+y,z
1/2+x,1/2-y,z
loop_
_atom_site_type_symbol
_atom_site_label
_atom_site_fract_x
_atom_site_fract_y
_atom_site_fract_z
Si Si1 0.246736 0.483929 0.500000
Si Si2 0.687793 0.708045 0.676798
Si Si3 0.491686 0.185158 0.149109
Si Si4 0.000000 0.896291 0.250000
Si Si5 0.500000 0.500000 0.873831
Si Si6 0.965175 0.597017 0.000000
O O1 0.356248 0.477879 0.578285
O O2 0.161537 0.547563 0.500000
O O3 0.127659 0.430306 0.500000
O O4 0.750000 0.750000 0.750000
O O5 0.565147 0.748445 0.630462
O O6 0.824557 0.691169 0.618044
O O7 0.628944 0.645464 0.715824
O O8 0.500000 0.166523 0.250000
O O9 0.562020 0.135374 0.086555
O O10 0.941180 0.941308 0.322674
#
# Coordination Sequence:
#
# PCOD8293719 Si02
#       6
#     8  16  16   8   8   8
#     4  10  24  46  56  90 126 166 216 280 294 380
#     4  10  19  36  60  92 132 155 205 260 308 382
#     4  10  22  38  61  94 126 170 201 259 319 378
#     4  11  20  38  68  96 122 167 218 254 320 385
#     4  10  24  40  68  88 122 174 214 264 318 360
#     4  11  24  42  64  88 134 163 216 262 328 371
#
# _framework density 20.159659000000001
#
# number of rings (size 3 to 8) (size 9 to 14) (size 15 to 20)
#    0.000    1.750    3.750    1.500    7.000    1.000 
#    0.000    3.750    0.000    0.000    0.000    0.000 
#    0.000    0.000    0.000    0.000    0.000    0.000 
#
# Total GULP energy -396447.344475 kJ/mol
# GULP energy per Si atom -12388.979515 kJ/mol
# Density = 2.011378 g / cm^3
# Si number density = 20.159659 Si / 1000 Ang^3
#
#
#
# Elastic Constant Matrix: (Units=GPa)
#
#
# Indices 1 2 3 4 5 6 
#
# 1 122.7926 43.4645 21.1647 0.0000 0.0000 0.0000
# 2 43.4645 140.0051 48.9542 0.0000 0.0000 0.0000
# 3 21.1647 48.9542 90.7318 0.0001 0.0000 0.0000
# 4 0.0000 0.0000 0.0001 23.1885 0.0000 0.0000
# 5 0.0000 0.0000 0.0000 0.0000 -5.3223 0.0000
# 6 0.0000 0.0000 0.0000 0.0000 0.0000 36.6009
#
#
#
# Elastic Compliance Matrix: (Units=1/GPa)
#
#
# Indices 1 2 3 4 5 6 
#
# 1 0.009190 -0.002593 -0.000745 0.000000 0.000000 0.000000
# 2 -0.002593 0.009535 -0.004540 0.000000 0.000000 0.000000
# 3 -0.000745 -0.004540 0.013645 0.000000 0.000000 0.000000
# 4 0.000000 0.000000 0.000000 0.043125 0.000000 0.000000
# 5 0.000000 0.000000 0.000000 0.000000 -0.187889 0.000000
# 6 0.000000 0.000000 0.000000 0.000000 0.000000 0.027322
#
#
# Mechanical properties :
#
#
# Convention : Reuss Voigt Hill
#
# Bulk Modulus (GPa) = 60.18654 64.52184 62.35419
# Shear Modulus (GPa) = -78.39370 26.88984 -25.75193
#
# Velocity S-wave (km/s) = -6.24266 3.65615 -3.57795
# Velocity P-wave (km/s) = 4.69482 7.06386 3.73207
#
# Compressibility (1/GPa) = 0.01661501
#
# Stress axis : x y z
#
# Youngs Moduli (GPa) = 108.81544 104.87876 73.28873
#
# Poissons Ratio (x) = 0.27190 0.05459
# Poissons Ratio (y) = 0.28211 0.33271
# Poissons Ratio (z) = 0.08106 0.47612
#
# Static dielectric constant tensor:
#      x y z
#    x 4.352390 0.000000 0.000000 
#    y 0.000000 3.824280 0.000000 
#    z 0.000000 0.000000 3.420770 
# 
# 
# High freq. dielectric constant tensor:
#      x y z
#    x 1.801660 0.000000 0.000000 
#    y 0.000000 1.795420 0.000000 
#    z 0.000000 0.000000 1.762350 
# 
# From -- ./inp_files/27724.got.cif
#   From: 2010.03.12/outbox.cif.g09.slc.cpg/sg72_14_cif.got.tgz:27724.got - 2010.04.16 14:54:00.
