data_PCOD8293602
_publ_section_title
;
Structure prediction by ZEFSAII (Michael W. Deem and Ramdas Pophale) SiO2 
 PCOD8293602
Probable space group: I B A M
;
_chemical_formula_sum "Si O2"
_cell_formula_units_Z 96
_cell_length_a 12.576220
_cell_length_b 20.153311
_cell_length_c 20.056567
_cell_angle_alpha 90.000000
_cell_angle_beta 90.000000
_cell_angle_gamma 90.000000
_cell_volume 5083.386503
_symmetry_space_group_name_H-M "I B A M"
_symmetry_group_IT_number 72
_symmetry_cell_setting 'orthorhombic'
loop_
_space_group_symop_operation_xyz
x,y,z
-x,-y,z
x,-y,1/2-z
-x,y,1/2-z
-x,-y,-z
x,y,-z
-x,y,1/2+z
x,-y,1/2+z
1/2+x,1/2+y,1/2+z
1/2-x,1/2-y,1/2+z
1/2+x,1/2-y,-z
1/2-x,1/2+y,-z
1/2-x,1/2-y,1/2-z
1/2+x,1/2+y,1/2-z
1/2-x,1/2+y,z
1/2+x,1/2-y,z
loop_
_atom_site_type_symbol
_atom_site_label
_atom_site_fract_x
_atom_site_fract_y
_atom_site_fract_z
Si Si1 0.387439 0.199323 0.714574
Si Si2 0.208748 0.163557 0.192561
Si Si3 0.212203 0.511873 0.424276
Si Si4 0.413077 0.142884 0.574133
Si Si5 0.878720 0.020641 0.678517
Si Si6 0.659649 0.135745 0.426478
O O1 0.500000 0.183175 0.750000
O O2 0.300007 0.153548 0.751523
O O3 0.365735 0.277781 0.719726
O O4 0.372742 0.185648 0.635964
O O5 0.135514 0.100131 0.176284
O O6 0.271985 0.180773 0.124097
O O7 0.254007 0.514042 0.500000
O O8 0.121635 0.566941 0.412611
O O9 0.314266 0.520724 0.376899
O O10 0.161394 0.441404 0.405777
O O11 0.370069 0.164917 0.500000
O O12 0.537835 0.155232 0.574840
O O13 0.834137 0.000000 0.750000
O O14 0.000000 0.000000 0.668494
O O15 0.708346 0.146932 0.500000
#
# Coordination Sequence:
#
# PCOD8293602 Si02
#       6
#    16  16  16  16  16  16
#     4  11  22  37  58  81 109 150 190 230 273 329
#     4  10  22  38  56  80 111 148 186 229 276 331
#     4   9  18  33  55  81 110 143 178 225 278 332
#     4  10  19  34  56  83 112 140 180 227 276 331
#     4  10  21  36  56  81 109 146 184 232 281 333
#     4   9  17  33  56  81 109 142 178 222 281 332
#
# _framework density 18.885048000000001
#
# number of rings (size 3 to 8) (size 9 to 14) (size 15 to 20)
#    0.000    2.167    1.667    1.500    2.333    3.000 
#    0.000    0.000    0.000    0.000    0.000    0.000 
#    0.000    0.000    0.000    0.000    0.000    0.000 
#
# Total GULP energy -594794.606343 kJ/mol
# GULP energy per Si atom -12391.554299 kJ/mol
# Density = 1.884206 g / cm^3
# Si number density = 18.885048 Si / 1000 Ang^3
#
#
#
# Elastic Constant Matrix: (Units=GPa)
#
#
# Indices 1 2 3 4 5 6 
#
# 1 70.9986 22.3423 37.3030 0.0000 0.0000 0.0000
# 2 22.3423 42.1780 15.8316 0.0000 0.0000 0.0000
# 3 37.3030 15.8316 123.5835 0.0000 0.0000 0.0000
# 4 0.0000 0.0000 0.0000 29.7973 0.0000 0.0000
# 5 0.0000 0.0000 0.0000 0.0000 28.5518 0.0000
# 6 0.0000 0.0000 0.0000 0.0000 0.0000 20.9491
#
#
#
# Elastic Compliance Matrix: (Units=1/GPa)
#
#
# Indices 1 2 3 4 5 6 
#
# 1 0.019210 -0.008404 -0.004722 0.000000 0.000000 0.000000
# 2 -0.008404 0.028583 -0.001125 0.000000 0.000000 0.000000
# 3 -0.004722 -0.001125 0.009661 0.000000 0.000000 0.000000
# 4 0.000000 0.000000 0.000000 0.033560 0.000000 0.000000
# 5 0.000000 0.000000 0.000000 0.000000 0.035024 0.000000
# 6 0.000000 0.000000 0.000000 0.000000 0.000000 0.047735
#
#
# Mechanical properties :
#
#
# Convention : Reuss Voigt Hill
#
# Bulk Modulus (GPa) = 34.53865 43.07932 38.80899
# Shear Modulus (GPa) = 23.59326 26.61187 25.10257
#
# Velocity S-wave (km/s) = 3.53839 3.75794 3.64982
# Velocity P-wave (km/s) = 5.91796 6.45680 6.19324
#
# Compressibility (1/GPa) = 0.02895307
#
# Stress axis : x y z
#
# Youngs Moduli (GPa) = 52.05571 34.98613 103.50771
#
# Poissons Ratio (x) = 0.29401 0.48876
# Poissons Ratio (y) = 0.43745 0.11645
# Poissons Ratio (z) = 0.24581 0.03936
#
# Static dielectric constant tensor:
#      x y z
#    x 3.302730 0.000000 0.000000 
#    y 0.000000 3.183940 0.000000 
#    z 0.000000 0.000000 3.896120 
# 
# 
# High freq. dielectric constant tensor:
#      x y z
#    x 1.723510 0.000000 0.000000 
#    y 0.000000 1.710890 0.000000 
#    z 0.000000 0.000000 1.753670 
# 
# From -- ./inp_files/37100.got.cif
#   From: 2010.03.12/outbox.cif.g09.slc.cpg/sg72_19_cif.got.tgz:37100.got - 2010.04.16 14:54:00.
