data_PCOD8293572
_publ_section_title
;
Structure prediction by ZEFSAII (Michael W. Deem and Ramdas Pophale) SiO2 
 PCOD8293572
Probable space group: I B A M
;
_chemical_formula_sum "Si O2"
_cell_formula_units_Z 108
_cell_length_a 15.200340
_cell_length_b 17.091798
_cell_length_c 21.224154
_cell_angle_alpha 90.000000
_cell_angle_beta 90.000000
_cell_angle_gamma 90.000000
_cell_volume 5514.059422
_symmetry_space_group_name_H-M "I B A M"
_symmetry_group_IT_number 72
_symmetry_cell_setting 'orthorhombic'
loop_
_space_group_symop_operation_xyz
x,y,z
-x,-y,z
x,-y,1/2-z
-x,y,1/2-z
-x,-y,-z
x,y,-z
-x,y,1/2+z
x,-y,1/2+z
1/2+x,1/2+y,1/2+z
1/2-x,1/2-y,1/2+z
1/2+x,1/2-y,-z
1/2-x,1/2+y,-z
1/2-x,1/2-y,1/2-z
1/2+x,1/2+y,1/2-z
1/2-x,1/2+y,z
1/2+x,1/2-y,z
loop_
_atom_site_type_symbol
_atom_site_label
_atom_site_fract_x
_atom_site_fract_y
_atom_site_fract_z
Si Si1 0.878405 0.663216 0.877598
Si Si2 0.400924 0.770618 0.257061
Si Si3 0.214661 0.500000 0.250000
Si Si4 0.578018 0.174143 0.393048
Si Si5 0.805543 0.812312 0.569975
Si Si6 0.598049 0.988557 0.138650
Si Si7 0.643932 0.390372 0.694505
Si Si8 0.000000 0.000000 0.250000
O O1 0.867442 0.680072 0.802906
O O2 0.797065 0.705159 0.912951
O O3 0.868700 0.570206 0.891048
O O4 0.973476 0.694099 0.902487
O O5 0.500000 0.742481 0.250000
O O6 0.394042 0.821770 0.319896
O O7 0.349682 0.688799 0.264512
O O8 0.155911 0.459604 0.302964
O O9 0.270106 0.565067 0.285138
O O10 0.639091 0.231544 0.433149
O O11 0.597090 0.083221 0.412154
O O12 0.809983 0.849336 0.500000
O O13 0.851172 0.870705 0.619941
O O14 0.500000 0.000000 0.165296
O O15 0.558355 0.444109 0.705515
#
# Coordination Sequence:
#
# PCOD8293572 Si02
#       8
#    16  16   8  16  16  16  16   4
#     4  10  20  37  60  90 122 159 191 251 317 356
#     4   9  17  32  54  86 118 150 187 239 307 362
#     4  11  19  29  55  92 120 154 185 241 313 365
#     4   9  21  35  61  87 120 156 200 249 302 362
#     4  11  24  42  60  85 121 166 215 249 292 364
#     4  10  19  34  53  89 124 148 184 239 308 374
#     4  10  21  35  59  90 122 158 196 250 308 368
#     4  10  20  40  64  92 126 154 194 250 332 366
#
# _framework density 19.586296000000001
#
# number of rings (size 3 to 8) (size 9 to 14) (size 15 to 20)
#    0.000    2.074    2.222    1.111    2.074    4.148 
#    0.000    1.111    0.000    2.667    0.000    0.000 
#    0.000    0.000    0.000    0.000    0.000    0.000 
#
# Total GULP energy -669176.006706 kJ/mol
# GULP energy per Si atom -12392.148272 kJ/mol
# Density = 1.954172 g / cm^3
# Si number density = 19.586296 Si / 1000 Ang^3
#
#
#
# Elastic Constant Matrix: (Units=GPa)
#
#
# Indices 1 2 3 4 5 6 
#
# 1 116.6226 49.8978 34.5060 0.0000 0.0000 0.0000
# 2 49.8978 109.0157 30.8481 0.0000 0.0000 0.0000
# 3 34.5060 30.8481 86.9515 0.0000 0.0000 0.0000
# 4 0.0000 0.0000 0.0000 9.5560 0.0000 0.0000
# 5 0.0000 0.0000 0.0000 0.0000 24.7027 0.0000
# 6 0.0000 0.0000 0.0000 0.0000 0.0000 21.7993
#
#
#
# Elastic Compliance Matrix: (Units=1/GPa)
#
#
# Indices 1 2 3 4 5 6 
#
# 1 0.011303 -0.004340 -0.002946 0.000000 0.000000 0.000000
# 2 -0.004340 0.011863 -0.002486 0.000000 0.000000 0.000000
# 3 -0.002946 -0.002486 0.013552 0.000000 0.000000 0.000000
# 4 0.000000 0.000000 0.000000 0.104646 0.000000 0.000000
# 5 0.000000 0.000000 0.000000 0.000000 0.040481 0.000000
# 6 0.000000 0.000000 0.000000 0.000000 0.000000 0.045873
#
#
# Mechanical properties :
#
#
# Convention : Reuss Voigt Hill
#
# Bulk Modulus (GPa) = 58.22925 60.34375 59.28650
# Shear Modulus (GPa) = 19.76382 24.36745 22.06564
#
# Velocity S-wave (km/s) = 3.18002 3.53102 3.36011
# Velocity P-wave (km/s) = 6.57857 6.89204 6.73712
#
# Compressibility (1/GPa) = 0.01717350
#
# Stress axis : x y z
#
# Youngs Moduli (GPa) = 88.47062 84.29534 73.79090
#
# Poissons Ratio (x) = 0.36584 0.21738
# Poissons Ratio (y) = 0.38396 0.18347
# Poissons Ratio (z) = 0.26062 0.20959
#
# Static dielectric constant tensor:
#      x y z
#    x 3.769800 0.000000 0.000000 
#    y 0.000000 3.757820 0.000000 
#    z 0.000000 0.000000 3.213800 
# 
# 
# High freq. dielectric constant tensor:
#      x y z
#    x 1.776570 0.000000 0.000000 
#    y 0.000000 1.765000 0.000000 
#    z 0.000000 0.000000 1.722610 
# 
# From -- ./inp_files/39250.got.cif
#   From: 2010.03.12/outbox.cif.g09.slc.cpg/sg72_20_cif.got.tgz:39250.got - 2010.04.16 14:54:00.
