data_PCOD8293309
_publ_section_title
;
Structure prediction by ZEFSAII (Michael W. Deem and Ramdas Pophale) SiO2 
 PCOD8293309
Probable space group: I B A M
;
_chemical_formula_sum "Si O2"
_cell_formula_units_Z 80
_cell_length_a 18.451128
_cell_length_b 26.914751
_cell_length_c 8.871686
_cell_angle_alpha 90.000000
_cell_angle_beta 90.000000
_cell_angle_gamma 90.000000
_cell_volume 4405.745945
_symmetry_space_group_name_H-M "I B A M"
_symmetry_group_IT_number 72
_symmetry_cell_setting 'orthorhombic'
loop_
_space_group_symop_operation_xyz
x,y,z
-x,-y,z
x,-y,1/2-z
-x,y,1/2-z
-x,-y,-z
x,y,-z
-x,y,1/2+z
x,-y,1/2+z
1/2+x,1/2+y,1/2+z
1/2-x,1/2-y,1/2+z
1/2+x,1/2-y,-z
1/2-x,1/2+y,-z
1/2-x,1/2-y,1/2-z
1/2+x,1/2+y,1/2-z
1/2-x,1/2+y,z
1/2+x,1/2-y,z
loop_
_atom_site_type_symbol
_atom_site_label
_atom_site_fract_x
_atom_site_fract_y
_atom_site_fract_z
Si Si1 0.359950 0.052766 0.324157
Si Si2 0.072413 0.947354 0.176757
Si Si3 0.074420 0.648278 0.178949
Si Si4 0.716513 0.609109 0.827358
Si Si5 0.720030 0.200761 0.675680
O O1 0.379387 0.050455 0.500000
O O2 0.410161 0.093946 0.246309
O O3 0.275762 0.066290 0.297043
O O4 0.376862 0.000000 0.250000
O O5 0.137901 0.911000 0.214090
O O6 0.000000 0.924082 0.250000
O O7 0.090000 0.000000 0.250000
O O8 0.061112 0.954768 0.000000
O O9 0.137928 0.686927 0.226184
O O10 0.000000 0.668958 0.250000
O O11 0.067991 0.643872 0.000000
O O12 0.727804 0.655699 0.719664
O O13 0.721413 0.627097 0.000000
O O14 0.723488 0.209241 0.500000
O O15 0.750000 0.250000 0.750000
#
# Coordination Sequence:
#
# PCOD8293309 Si02
#       5
#    16  16  16  16  16
#     4  10  19  32  51  76 106 140 175 213 253 300
#     4  10  19  31  48  72 103 139 175 213 256 306
#     4  10  21  37  56  80 107 137 171 209 253 303
#     4   9  19  34  52  74 102 135 173 215 259 306
#     4  10  21  37  59  82 104 131 168 212 258 307
#
# _framework density 18.158106
#
# number of rings (size 3 to 8) (size 9 to 14) (size 15 to 20)
#    0.000    2.200    0.000    3.600    0.000    5.200 
#    0.000    3.000    0.000    0.000    0.000    0.000 
#    0.000    0.000    0.000    0.000    0.000    0.000 
#
# Total GULP energy -496059.677378 kJ/mol
# GULP energy per Si atom -12401.491934 kJ/mol
# Density = 1.811678 g / cm^3
# Si number density = 18.158106 Si / 1000 Ang^3
#
#
#
# Elastic Constant Matrix: (Units=GPa)
#
#
# Indices 1 2 3 4 5 6 
#
# 1 138.8197 65.2589 62.0833 0.0000 0.0000 0.0000
# 2 65.2589 111.5652 55.7485 0.0000 0.0000 0.0000
# 3 62.0833 55.7485 93.7970 0.0000 -0.0001 0.0000
# 4 0.0000 0.0000 0.0000 35.2972 0.0000 0.0000
# 5 0.0000 0.0000 -0.0001 0.0000 31.2603 0.0000
# 6 0.0000 0.0000 0.0000 0.0000 0.0000 16.6843
#
#
#
# Elastic Compliance Matrix: (Units=1/GPa)
#
#
# Indices 1 2 3 4 5 6 
#
# 1 0.011432 -0.004134 -0.005110 0.000000 0.000000 0.000000
# 2 -0.004134 0.014245 -0.005730 0.000000 0.000000 0.000000
# 3 -0.005110 -0.005730 0.017449 0.000000 0.000000 0.000000
# 4 0.000000 0.000000 0.000000 0.028331 0.000000 0.000000
# 5 0.000000 0.000000 0.000000 0.000000 0.031989 0.000000
# 6 0.000000 0.000000 0.000000 0.000000 0.000000 0.059937
#
#
# Mechanical properties :
#
#
# Convention : Reuss Voigt Hill
#
# Bulk Modulus (GPa) = 75.88236 78.92925 77.40580
# Shear Modulus (GPa) = 25.28779 27.38777 26.33778
#
# Velocity S-wave (km/s) = 3.73586 3.88789 3.81263
# Velocity P-wave (km/s) = 7.77749 7.98225 7.88054
#
# Compressibility (1/GPa) = 0.01317829
#
# Stress axis : x y z
#
# Youngs Moduli (GPa) = 87.47301 70.20123 57.30858
#
# Poissons Ratio (x) = 0.29019 0.29284
# Poissons Ratio (y) = 0.36159 0.32840
# Poissons Ratio (z) = 0.44698 0.40228
#
# Static dielectric constant tensor:
#      x y z
#    x 3.541130 0.000000 0.000000 
#    y 0.000000 3.232320 0.000000 
#    z 0.000000 0.000000 3.465960 
# 
# 
# High freq. dielectric constant tensor:
#      x y z
#    x 1.710740 0.000000 0.000000 
#    y 0.000000 1.684860 0.000000 
#    z 0.000000 0.000000 1.718410 
# 
# From -- ./inp_files/4741.got.cif
#   From: 2010.03.12/outbox.cif.g09.slc.cpg/sg72_3_cif.got.tgz:4741.got - 2010.04.16 14:54:00.
