data_PCOD8293661
_publ_section_title
;
Structure prediction by ZEFSAII (Michael W. Deem and Ramdas Pophale) SiO2 
 PCOD8293661
Probable space group: I B A M
;
_chemical_formula_sum "Si O2"
_cell_formula_units_Z 80
_cell_length_a 7.779781
_cell_length_b 29.039211
_cell_length_c 16.011648
_cell_angle_alpha 90.000000
_cell_angle_beta 90.000000
_cell_angle_gamma 90.000000
_cell_volume 3617.330733
_symmetry_space_group_name_H-M "I B A M"
_symmetry_group_IT_number 72
_symmetry_cell_setting 'orthorhombic'
loop_
_space_group_symop_operation_xyz
x,y,z
-x,-y,z
x,-y,1/2-z
-x,y,1/2-z
-x,-y,-z
x,y,-z
-x,y,1/2+z
x,-y,1/2+z
1/2+x,1/2+y,1/2+z
1/2-x,1/2-y,1/2+z
1/2+x,1/2-y,-z
1/2-x,1/2+y,-z
1/2-x,1/2-y,1/2-z
1/2+x,1/2+y,1/2-z
1/2-x,1/2+y,z
1/2+x,1/2-y,z
loop_
_atom_site_type_symbol
_atom_site_label
_atom_site_fract_x
_atom_site_fract_y
_atom_site_fract_z
Si Si1 0.251785 0.382174 0.098612
Si Si2 0.630759 0.394508 0.098579
Si Si3 0.951992 0.450130 0.099336
Si Si4 0.740856 0.295763 0.093974
Si Si5 0.592441 0.794078 0.662073
O O1 0.433975 0.406262 0.123093
O O2 0.234211 0.333606 0.146265
O O3 0.100043 0.415369 0.128862
O O4 0.246684 0.372862 0.000000
O O5 0.767356 0.431944 0.134709
O O6 0.670207 0.343376 0.132384
O O7 0.658045 0.393587 0.000000
O O8 0.000000 0.500000 0.137340
O O9 0.946427 0.453408 0.000000
O O10 0.684300 0.255263 0.156319
O O11 0.947382 0.298357 0.090747
O O12 0.672144 0.287039 0.000000
O O13 0.500000 0.800545 0.750000
#
# Coordination Sequence:
#
# PCOD8293661 Si02
#       5
#    16  16  16  16  16
#     4  10  19  35  57  81 116 159 203 247 304 377
#     4   9  18  32  54  84 114 150 196 243 295 362
#     4   9  17  31  54  85 118 149 190 253 314 360
#     4  11  21  37  58  81 115 159 203 246 299 371
#     4  12  24  37  55  85 123 157 205 260 313 367
#
# _framework density 22.115755
#
# number of rings (size 3 to 8) (size 9 to 14) (size 15 to 20)
#    0.000    1.800    2.000    3.600    0.000    2.400 
#    0.000    4.000    0.000    0.600    0.000    0.000 
#    6.000    0.000    0.000    0.000    0.000    0.000 
#
# Total GULP energy -495943.197439 kJ/mol
# GULP energy per Si atom -12398.579936 kJ/mol
# Density = 2.206542 g / cm^3
# Si number density = 22.115755 Si / 1000 Ang^3
#
#
#
# Elastic Constant Matrix: (Units=GPa)
#
#
# Indices 1 2 3 4 5 6 
#
# 1 170.7578 69.2451 17.2332 0.0000 0.0000 0.0000
# 2 69.2451 150.4217 25.0771 -0.0001 0.0000 0.0000
# 3 17.2332 25.0771 38.6391 -0.0004 -0.0001 0.0000
# 4 0.0000 -0.0001 -0.0004 3.0976 0.0000 0.0000
# 5 0.0000 0.0000 -0.0001 0.0000 15.0763 0.0000
# 6 0.0000 0.0000 0.0000 0.0000 0.0000 39.0274
#
#
#
# Elastic Compliance Matrix: (Units=1/GPa)
#
#
# Indices 1 2 3 4 5 6 
#
# 1 0.007249 -0.003138 -0.001197 0.000000 0.000000 0.000000
# 2 -0.003138 0.008813 -0.004320 0.000000 0.000000 0.000000
# 3 -0.001197 -0.004320 0.029218 0.000004 0.000000 0.000000
# 4 0.000000 0.000000 0.000004 0.322836 0.000000 0.000000
# 5 0.000000 0.000000 0.000000 0.000000 0.066329 0.000000
# 6 0.000000 0.000000 0.000000 0.000000 0.000000 0.025623
#
#
# Mechanical properties :
#
#
# Convention : Reuss Voigt Hill
#
# Bulk Modulus (GPa) = 35.75149 64.76997 50.26073
# Shear Modulus (GPa) = 10.27325 27.99111 19.13218
#
# Velocity S-wave (km/s) = 2.15761 3.56148 2.94444
# Velocity P-wave (km/s) = 4.73369 6.80166 5.85962
#
# Compressibility (1/GPa) = 0.02797086
#
# Stress axis : x y z
#
# Youngs Moduli (GPa) = 137.94220 113.47430 34.22541
#
# Poissons Ratio (x) = 0.35604 0.04096
# Poissons Ratio (y) = 0.43282 0.14785
# Poissons Ratio (z) = 0.16510 0.49021
#
# Static dielectric constant tensor:
#      x y z
#    x 4.280550 0.000000 0.000000 
#    y 0.000000 4.049610 0.000000 
#    z 0.000000 0.000000 3.374080 
# 
# 
# High freq. dielectric constant tensor:
#      x y z
#    x 1.884680 0.000000 0.000000 
#    y 0.000000 1.862310 0.000000 
#    z 0.000000 0.000000 1.824720 
# 
# From -- ./inp_files/28153.got.cif
#   From: 2010.03.12/outbox.cif.g09.slc.cpg/sg72_15_cif.got.tgz:28153.got - 2010.04.16 14:54:00.
