data_PCOD8293822
_publ_section_title
;
Structure prediction by ZEFSAII (Michael W. Deem and Ramdas Pophale) SiO2 
 PCOD8293822
Probable space group: I B A M
;
_chemical_formula_sum "Si O2"
_cell_formula_units_Z 96
_cell_length_a 14.074264
_cell_length_b 21.593566
_cell_length_c 15.892451
_cell_angle_alpha 90.000000
_cell_angle_beta 90.000000
_cell_angle_gamma 90.000000
_cell_volume 4829.931179
_symmetry_space_group_name_H-M "I B A M"
_symmetry_group_IT_number 72
_symmetry_cell_setting 'orthorhombic'
loop_
_space_group_symop_operation_xyz
x,y,z
-x,-y,z
x,-y,1/2-z
-x,y,1/2-z
-x,-y,-z
x,y,-z
-x,y,1/2+z
x,-y,1/2+z
1/2+x,1/2+y,1/2+z
1/2-x,1/2-y,1/2+z
1/2+x,1/2-y,-z
1/2-x,1/2+y,-z
1/2-x,1/2-y,1/2-z
1/2+x,1/2+y,1/2-z
1/2-x,1/2+y,z
1/2+x,1/2-y,z
loop_
_atom_site_type_symbol
_atom_site_label
_atom_site_fract_x
_atom_site_fract_y
_atom_site_fract_z
Si Si1 0.401689 0.070264 0.500000
Si Si2 0.089214 0.849149 0.704908
Si Si3 0.021930 0.250923 0.907791
Si Si4 0.118345 0.424246 0.500000
Si Si5 0.348764 0.147352 0.346998
Si Si6 0.287085 0.872357 0.670432
Si Si7 0.173493 0.233431 0.655125
O O1 0.509425 0.096850 0.500000
O O2 0.353161 0.093334 0.415122
O O3 0.385123 0.997577 0.500000
O O4 0.056531 0.817363 0.618432
O O5 0.177521 0.895528 0.684727
O O6 0.116040 0.791504 0.764970
O O7 0.000000 0.884924 0.750000
O O8 0.060618 0.306781 0.849206
O O9 0.907017 0.249991 0.913635
O O10 0.063550 0.264327 0.000000
O O11 0.169238 0.399595 0.415029
O O12 0.347418 0.113259 0.255139
O O13 0.252413 0.183947 0.371945
O O14 0.273500 0.797889 0.673265
#
# Coordination Sequence:
#
# PCOD8293822 Si02
#       7
#     8  16  16   8  16  16  16
#     4  11  26  45  58  85 119 160 221 264 291 360
#     4   9  18  34  52  85 129 152 190 236 294 383
#     4  11  20  28  49  89 124 161 187 232 298 368
#     4  11  28  43  60  87 117 160 223 266 295 349
#     4  11  21  38  61  84 125 166 192 245 308 369
#     4  11  21  38  60  89 124 164 196 253 308 368
#     4  10  20  32  53  88 122 155 195 231 299 383
#
# _framework density 19.876059999999999
#
# number of rings (size 3 to 8) (size 9 to 14) (size 15 to 20)
#    0.000    1.500    4.167    2.000    3.500    2.667 
#    0.000    1.667    0.000    0.000    0.000   30.333 
#    0.000    0.000    0.000    0.000    0.000    0.000 
#
# Total GULP energy -594730.675925 kJ/mol
# GULP energy per Si atom -12390.222415 kJ/mol
# Density = 1.983082 g / cm^3
# Si number density = 19.876060 Si / 1000 Ang^3
#
#
#
# Elastic Constant Matrix: (Units=GPa)
#
#
# Indices 1 2 3 4 5 6 
#
# 1 130.4249 30.1015 58.6315 0.0001 0.0000 0.0000
# 2 30.1015 33.6366 27.3182 -0.0002 0.0000 0.0000
# 3 58.6315 27.3182 150.0162 -0.0006 0.0000 -0.0001
# 4 0.0001 -0.0002 -0.0006 16.6591 0.0000 -0.0001
# 5 0.0000 0.0000 0.0000 0.0000 30.7533 0.0000
# 6 0.0000 0.0000 -0.0001 -0.0001 0.0000 19.5673
#
#
#
# Elastic Compliance Matrix: (Units=1/GPa)
#
#
# Indices 1 2 3 4 5 6 
#
# 1 0.010599 -0.007183 -0.002834 0.000000 0.000000 0.000000
# 2 -0.007183 0.039758 -0.004432 0.000000 0.000000 0.000000
# 3 -0.002834 -0.004432 0.008581 0.000000 0.000000 0.000000
# 4 0.000000 0.000000 0.000000 0.060027 0.000000 0.000000
# 5 0.000000 0.000000 0.000000 0.000000 0.032517 0.000000
# 6 0.000000 0.000000 0.000000 0.000000 0.000000 0.051106
#
#
# Mechanical properties :
#
#
# Convention : Reuss Voigt Hill
#
# Bulk Modulus (GPa) = 33.29177 60.68667 46.98922
# Shear Modulus (GPa) = 20.70384 26.59769 23.65077
#
# Velocity S-wave (km/s) = 3.23096 3.66208 3.45325
# Velocity P-wave (km/s) = 5.54119 6.96275 6.29225
#
# Compressibility (1/GPa) = 0.03003745
#
# Stress axis : x y z
#
# Youngs Moduli (GPa) = 94.34536 25.15233 116.53756
#
# Poissons Ratio (x) = 0.18068 0.33033
# Poissons Ratio (y) = 0.67771 0.51655
# Poissons Ratio (z) = 0.26742 0.11149
#
# Static dielectric constant tensor:
#      x y z
#    x 4.039680 0.000000 0.000000 
#    y 0.000000 3.030290 0.000000 
#    z 0.000000 0.000000 3.665580 
# 
# 
# High freq. dielectric constant tensor:
#      x y z
#    x 1.795980 0.000000 0.000000 
#    y 0.000000 1.711090 0.000000 
#    z 0.000000 0.000000 1.783020 
# 
# From -- ./inp_files/22043.got.cif
#   From: 2010.03.12/outbox.cif.g09.slc.cpg/sg72_12_cif.got.tgz:22043.got - 2010.04.16 14:54:00.
