data_PCOD8293732
_publ_section_title
;
Structure prediction by ZEFSAII (Michael W. Deem and Ramdas Pophale) SiO2 
 PCOD8293732
Probable space group: I B A M
;
_chemical_formula_sum "Si O2"
_cell_formula_units_Z 52
_cell_length_a 11.331637
_cell_length_b 12.101440
_cell_length_c 20.034165
_cell_angle_alpha 90.000000
_cell_angle_beta 90.000000
_cell_angle_gamma 90.000000
_cell_volume 2747.267522
_symmetry_space_group_name_H-M "I B A M"
_symmetry_group_IT_number 72
_symmetry_cell_setting 'orthorhombic'
loop_
_space_group_symop_operation_xyz
x,y,z
-x,-y,z
x,-y,1/2-z
-x,y,1/2-z
-x,-y,-z
x,y,-z
-x,y,1/2+z
x,-y,1/2+z
1/2+x,1/2+y,1/2+z
1/2-x,1/2-y,1/2+z
1/2+x,1/2-y,-z
1/2-x,1/2+y,-z
1/2-x,1/2-y,1/2-z
1/2+x,1/2+y,1/2-z
1/2-x,1/2+y,z
1/2+x,1/2-y,z
loop_
_atom_site_type_symbol
_atom_site_label
_atom_site_fract_x
_atom_site_fract_y
_atom_site_fract_z
Si Si1 0.000000 0.000000 0.250000
Si Si2 0.346538 0.543479 0.367300
Si Si3 0.048565 0.836150 0.574938
Si Si4 0.900805 0.411041 0.421914
O O1 0.909745 0.072397 0.203815
O O2 0.414284 0.618664 0.421859
O O3 0.366325 0.412278 0.379871
O O4 0.208791 0.567915 0.372413
O O5 0.096017 0.845686 0.500000
O O6 0.050228 0.709083 0.597525
O O7 0.864397 0.420295 0.500000
O O8 0.000000 0.500000 0.404228
#
# Coordination Sequence:
#
# PCOD8293732 Si02
#       4
#     4  16  16  16
#     4   8  20  40  60  76 102 152 204 224 260 314
#     4  10  19  37  57  76 109 149 186 231 265 321
#     4   9  18  32  55  82 107 143 179 221 289 337
#     4  10  21  33  54  87 117 140 175 228 286 337
#
# _framework density 18.927897000000002
#
# number of rings (size 3 to 8) (size 9 to 14) (size 15 to 20)
#    0.000    2.769    0.000    3.692    4.308    0.000 
#    0.000    6.923    0.000    0.000    0.000    0.000 
#    0.000    0.000    0.000    0.000    0.000    0.000 
#
# Total GULP energy -322170.485745 kJ/mol
# GULP energy per Si atom -12391.172529 kJ/mol
# Density = 1.888482 g / cm^3
# Si number density = 18.927897 Si / 1000 Ang^3
#
#
#
# Elastic Constant Matrix: (Units=GPa)
#
#
# Indices 1 2 3 4 5 6 
#
# 1 132.1806 56.0780 39.4913 0.0000 0.0000 0.0000
# 2 56.0780 157.5211 30.4337 0.0000 0.0000 0.0000
# 3 39.4913 30.4337 71.5196 0.0000 0.0000 0.0000
# 4 0.0000 0.0000 0.0000 6.3300 0.0000 0.0000
# 5 0.0000 0.0000 0.0000 0.0000 33.7779 0.0000
# 6 0.0000 0.0000 0.0000 0.0000 0.0000 18.9552
#
#
#
# Elastic Compliance Matrix: (Units=1/GPa)
#
#
# Indices 1 2 3 4 5 6 
#
# 1 0.010030 -0.002725 -0.004379 0.000000 0.000000 0.000000
# 2 -0.002725 0.007657 -0.001754 0.000000 0.000000 0.000000
# 3 -0.004379 -0.001754 0.017146 0.000000 0.000000 0.000000
# 4 0.000000 0.000000 0.000000 0.157979 0.000000 0.000000
# 5 0.000000 0.000000 0.000000 0.000000 0.029605 0.000000
# 6 0.000000 0.000000 0.000000 0.000000 0.000000 0.052756
#
#
# Mechanical properties :
#
#
# Convention : Reuss Voigt Hill
#
# Bulk Modulus (GPa) = 58.41563 68.13637 63.27600
# Shear Modulus (GPa) = 16.74520 27.49385 22.11952
#
# Velocity S-wave (km/s) = 2.97759 3.81538 3.42222
# Velocity P-wave (km/s) = 6.53839 7.44886 7.00843
#
# Compressibility (1/GPa) = 0.01711871
#
# Stress axis : x y z
#
# Youngs Moduli (GPa) = 99.70573 130.59654 58.32158
#
# Poissons Ratio (x) = 0.35582 0.25537
# Poissons Ratio (y) = 0.27165 0.10229
# Poissons Ratio (z) = 0.43658 0.22906
#
# Static dielectric constant tensor:
#      x y z
#    x 3.329460 0.000000 0.000000 
#    y 0.000000 3.479990 0.000000 
#    z 0.000000 0.000000 3.419240 
# 
# 
# High freq. dielectric constant tensor:
#      x y z
#    x 1.725470 0.000000 0.000000 
#    y 0.000000 1.731090 0.000000 
#    z 0.000000 0.000000 1.710300 
# 
# From -- ./inp_files/36432.got.cif
#   From: 2010.03.12/outbox.cif.g09.slc.cpg/sg72_19_cif.got.tgz:36432.got - 2010.04.16 14:54:00.
