data_PCOD8293915
_publ_section_title
;
Structure prediction by ZEFSAII (Michael W. Deem and Ramdas Pophale) SiO2 
 PCOD8293915
Probable space group: I B A M
;
_chemical_formula_sum "Si O2"
_cell_formula_units_Z 64
_cell_length_a 41.029654
_cell_length_b 9.867470
_cell_length_c 8.601917
_cell_angle_alpha 90.000000
_cell_angle_beta 90.000000
_cell_angle_gamma 90.000000
_cell_volume 3482.562482
_symmetry_space_group_name_H-M "I B A M"
_symmetry_group_IT_number 72
_symmetry_cell_setting 'orthorhombic'
loop_
_space_group_symop_operation_xyz
x,y,z
-x,-y,z
x,-y,1/2-z
-x,y,1/2-z
-x,-y,-z
x,y,-z
-x,y,1/2+z
x,-y,1/2+z
1/2+x,1/2+y,1/2+z
1/2-x,1/2-y,1/2+z
1/2+x,1/2-y,-z
1/2-x,1/2+y,-z
1/2-x,1/2-y,1/2-z
1/2+x,1/2+y,1/2-z
1/2-x,1/2+y,z
1/2+x,1/2-y,z
loop_
_atom_site_type_symbol
_atom_site_label
_atom_site_fract_x
_atom_site_fract_y
_atom_site_fract_z
Si Si1 0.468608 0.647998 0.179290
Si Si2 0.345489 0.855251 0.316515
Si Si3 0.275937 0.146585 0.684452
Si Si4 0.896644 0.849600 0.817256
O O1 0.467848 0.500000 0.250000
O O2 0.500000 0.729647 0.250000
O O3 0.433019 0.712637 0.211834
O O4 0.475331 0.635037 0.000000
O O5 0.340797 0.867431 0.500000
O O6 0.311638 0.808150 0.240369
O O7 0.372366 0.745005 0.276323
O O8 0.356703 0.000000 0.250000
O O9 0.274799 0.144018 0.500000
O O10 0.250000 0.250000 0.750000
O O11 0.266868 0.000000 0.750000
O O12 0.893428 0.000000 0.750000
O O13 0.888278 0.851569 0.000000
#
# Coordination Sequence:
#
# PCOD8293915 Si02
#       4
#    16  16  16  16
#     4   9  16  26  44  69 101 135 171 213 262 312
#     4  11  22  38  58  80 107 143 179 216 263 318
#     4  11  22  39  60  84 111 141 177 218 262 313
#     4  10  20  34  52  79 109 140 178 223 267 313
#
# _framework density 18.377272999999999
#
# number of rings (size 3 to 8) (size 9 to 14) (size 15 to 20)
#    0.000    1.750    0.000    8.250    0.000    4.000 
#    0.000    5.000    0.000    0.750    0.000    5.250 
#    0.000    0.000    0.000    0.000    0.000    0.000 
#
# Total GULP energy -396652.099602 kJ/mol
# GULP energy per Si atom -12395.378113 kJ/mol
# Density = 1.833545 g / cm^3
# Si number density = 18.377273 Si / 1000 Ang^3
#
#
#
# Elastic Constant Matrix: (Units=GPa)
#
#
# Indices 1 2 3 4 5 6 
#
# 1 144.4060 73.6757 68.8475 0.0000 0.0000 0.0000
# 2 73.6757 70.8209 43.7909 0.0000 0.0000 0.0000
# 3 68.8475 43.7909 166.0550 0.0000 0.0000 0.0000
# 4 0.0000 0.0000 0.0000 28.9069 0.0000 0.0000
# 5 0.0000 0.0000 0.0000 0.0000 35.6459 0.0000
# 6 0.0000 0.0000 0.0000 0.0000 0.0000 19.1266
#
#
#
# Elastic Compliance Matrix: (Units=1/GPa)
#
#
# Indices 1 2 3 4 5 6 
#
# 1 0.015660 -0.014668 -0.002624 0.000000 0.000000 0.000000
# 2 -0.014668 0.030611 -0.001991 0.000000 0.000000 0.000000
# 3 -0.002624 -0.001991 0.007635 0.000000 0.000000 0.000000
# 4 0.000000 0.000000 0.000000 0.034594 0.000000 0.000000
# 5 0.000000 0.000000 0.000000 0.000000 0.028054 0.000000
# 6 0.000000 0.000000 0.000000 0.000000 0.000000 0.052283
#
#
# Mechanical properties :
#
#
# Convention : Reuss Voigt Hill
#
# Bulk Modulus (GPa) = 65.19519 83.76777 74.48148
# Shear Modulus (GPa) = 23.52750 29.73373 26.63061
#
# Velocity S-wave (km/s) = 3.58194 4.02675 3.81084
# Velocity P-wave (km/s) = 7.25672 8.20371 7.74471
#
# Compressibility (1/GPa) = 0.01533855
#
# Stress axis : x y z
#
# Youngs Moduli (GPa) = 63.85703 32.66815 130.97162
#
# Poissons Ratio (x) = 0.47919 0.34373
# Poissons Ratio (y) = 0.93668 0.26074
# Poissons Ratio (z) = 0.16759 0.06504
#
# Static dielectric constant tensor:
#      x y z
#    x 4.221040 0.000000 0.000000 
#    y 0.000000 3.075440 0.000000 
#    z 0.000000 0.000000 3.607270 
# 
# 
# High freq. dielectric constant tensor:
#      x y z
#    x 1.734850 0.000000 0.000000 
#    y 0.000000 1.673530 0.000000 
#    z 0.000000 0.000000 1.739420 
# 
# From -- ./inp_files/8874.got.cif
#   From: 2010.03.12/outbox.cif.g09.slc.cpg/sg72_5_cif.got.tgz:8874.got - 2010.04.16 14:54:00.
