data_PCOD8293348
_publ_section_title
;
Structure prediction by ZEFSAII (Michael W. Deem and Ramdas Pophale) SiO2 
 PCOD8293348
Probable space group: I B A M
;
_chemical_formula_sum "Si O2"
_cell_formula_units_Z 112
_cell_length_a 24.258317
_cell_length_b 13.436012
_cell_length_c 15.967668
_cell_angle_alpha 90.000000
_cell_angle_beta 90.000000
_cell_angle_gamma 90.000000
_cell_volume 5204.422481
_symmetry_space_group_name_H-M "I B A M"
_symmetry_group_IT_number 72
_symmetry_cell_setting 'orthorhombic'
loop_
_space_group_symop_operation_xyz
x,y,z
-x,-y,z
x,-y,1/2-z
-x,y,1/2-z
-x,-y,-z
x,y,-z
-x,y,1/2+z
x,-y,1/2+z
1/2+x,1/2+y,1/2+z
1/2-x,1/2-y,1/2+z
1/2+x,1/2-y,-z
1/2-x,1/2+y,-z
1/2-x,1/2-y,1/2-z
1/2+x,1/2+y,1/2-z
1/2-x,1/2+y,z
1/2+x,1/2-y,z
loop_
_atom_site_type_symbol
_atom_site_label
_atom_site_fract_x
_atom_site_fract_y
_atom_site_fract_z
Si Si1 0.555963 0.449283 0.599835
Si Si2 0.884666 0.458940 0.156061
Si Si3 0.326775 0.775205 0.100279
Si Si4 0.941025 0.361777 0.404600
Si Si5 0.164177 0.054969 0.904107
Si Si6 0.729398 0.037958 0.156859
Si Si7 0.054304 0.721883 0.899923
O O1 0.500000 0.500000 0.634575
O O2 0.555852 0.452240 0.500000
O O3 0.609083 0.507756 0.637438
O O4 0.559749 0.335295 0.629958
O O5 0.884960 0.500000 0.250000
O O6 0.932298 0.519447 0.106095
O O7 0.823657 0.479678 0.118338
O O8 0.897733 0.342324 0.145562
O O9 0.387341 0.807234 0.132274
O O10 0.319264 0.662560 0.133222
O O11 0.282410 0.843814 0.149072
O O12 0.319341 0.788015 0.000000
O O13 0.946712 0.331361 0.500000
O O14 0.996769 0.321104 0.362621
O O15 0.215955 0.981939 0.896437
O O16 0.149089 0.072483 0.000000
O O17 0.741416 0.000000 0.250000
O O18 0.060199 0.710903 0.000000
#
# Coordination Sequence:
#
# PCOD8293348 Si02
#       7
#    16  16  16  16  16  16  16
#     4   9  18  34  57  86 115 139 171 217 268 324
#     4  10  21  35  50  74 106 144 184 222 267 316
#     4   9  18  34  56  80 109 145 181 220 267 321
#     4   9  17  31  51  76 107 141 176 213 263 324
#     4  10  20  35  58  84 108 140 182 224 268 320
#     4  10  22  38  54  76 107 144 184 226 273 322
#     4  10  19  31  53  83 112 142 176 221 271 316
#
# _framework density 21.520159
#
# number of rings (size 3 to 8) (size 9 to 14) (size 15 to 20)
#    0.000    2.429    0.000    2.143    0.000    9.143 
#    0.000    5.714    0.000    2.143    0.000    0.000 
#    0.000    0.000    0.000    0.000    0.000    0.143 
#
# Total GULP energy -694168.298978 kJ/mol
# GULP energy per Si atom -12395.862482 kJ/mol
# Density = 2.147118 g / cm^3
# Si number density = 21.520159 Si / 1000 Ang^3
#
#
#
# Elastic Constant Matrix: (Units=GPa)
#
#
# Indices 1 2 3 4 5 6 
#
# 1 147.0194 85.9817 10.8865 0.0000 0.0000 0.0000
# 2 85.9817 182.9516 16.2133 0.0000 0.0000 0.0000
# 3 10.8865 16.2133 27.6358 0.0000 0.0000 0.0000
# 4 0.0000 0.0000 0.0000 16.3995 0.0000 0.0000
# 5 0.0000 0.0000 0.0000 0.0000 12.2221 0.0000
# 6 0.0000 0.0000 0.0000 0.0000 0.0000 30.9140
#
#
#
# Elastic Compliance Matrix: (Units=1/GPa)
#
#
# Indices 1 2 3 4 5 6 
#
# 1 0.009416 -0.004321 -0.001174 0.000000 0.000000 0.000000
# 2 -0.004321 0.007749 -0.002844 0.000000 0.000000 0.000000
# 3 -0.001174 -0.002844 0.038316 0.000000 0.000000 0.000000
# 4 0.000000 0.000000 0.000000 0.060978 0.000000 0.000000
# 5 0.000000 0.000000 0.000000 0.000000 0.081819 0.000000
# 6 0.000000 0.000000 0.000000 0.000000 0.000000 0.032348
#
#
# Mechanical properties :
#
#
# Convention : Reuss Voigt Hill
#
# Bulk Modulus (GPa) = 25.77157 64.86331 45.31744
# Shear Modulus (GPa) = 19.21325 28.20879 23.71102
#
# Velocity S-wave (km/s) = 2.99122 3.62444 3.32295
# Velocity P-wave (km/s) = 4.89198 6.90808 5.98552
#
# Compressibility (1/GPa) = 0.03880244
#
# Stress axis : x y z
#
# Youngs Moduli (GPa) = 106.20326 129.05296 26.09890
#
# Poissons Ratio (x) = 0.55766 0.03064
# Poissons Ratio (y) = 0.45892 0.07422
# Poissons Ratio (z) = 0.12469 0.36700
#
# Static dielectric constant tensor:
#      x y z
#    x 4.002410 0.000000 0.000000 
#    y 0.000000 4.026770 0.000000 
#    z 0.000000 0.000000 3.356100 
# 
# 
# High freq. dielectric constant tensor:
#      x y z
#    x 1.847990 0.000000 0.000000 
#    y 0.000000 1.848340 0.000000 
#    z 0.000000 0.000000 1.802010 
# 
# From -- ./inp_files/40369.got.cif
#   From: 2010.03.12/outbox.cif.g09.slc.cpg/sg72_21_cif.got.tgz:40369.got - 2010.04.16 14:54:00.
