data_PCOD8293554
_publ_section_title
;
Structure prediction by ZEFSAII (Michael W. Deem and Ramdas Pophale) SiO2 
 PCOD8293554
Probable space group: I B A M
;
_chemical_formula_sum "Si O2"
_cell_formula_units_Z 96
_cell_length_a 10.218397
_cell_length_b 23.082662
_cell_length_c 21.768362
_cell_angle_alpha 90.000000
_cell_angle_beta 90.000000
_cell_angle_gamma 90.000000
_cell_volume 5134.455745
_symmetry_space_group_name_H-M "I B A M"
_symmetry_group_IT_number 72
_symmetry_cell_setting 'orthorhombic'
loop_
_space_group_symop_operation_xyz
x,y,z
-x,-y,z
x,-y,1/2-z
-x,y,1/2-z
-x,-y,-z
x,y,-z
-x,y,1/2+z
x,-y,1/2+z
1/2+x,1/2+y,1/2+z
1/2-x,1/2-y,1/2+z
1/2+x,1/2-y,-z
1/2-x,1/2+y,-z
1/2-x,1/2-y,1/2-z
1/2+x,1/2+y,1/2-z
1/2-x,1/2+y,z
1/2+x,1/2-y,z
loop_
_atom_site_type_symbol
_atom_site_label
_atom_site_fract_x
_atom_site_fract_y
_atom_site_fract_z
Si Si1 0.703516 0.305812 0.500000
Si Si2 0.391217 0.045862 0.929891
Si Si3 0.376427 0.740462 0.291175
Si Si4 0.020349 0.659936 0.875708
Si Si5 0.362364 0.471547 0.070621
Si Si6 0.471227 0.772823 0.000000
Si Si7 0.229304 0.859889 0.127975
O O1 0.554786 0.285446 0.500000
O O2 0.816594 0.255238 0.500000
O O3 0.734604 0.344833 0.557175
O O4 0.397848 0.101389 0.885488
O O5 0.500000 0.000000 0.907809
O O6 0.246832 0.020752 0.923856
O O7 0.422571 0.064233 0.000000
O O8 0.500000 0.725434 0.250000
O O9 0.250000 0.750000 0.250000
O O10 0.400373 0.798789 0.329716
O O11 0.360372 0.684660 0.334713
O O12 0.008047 0.691584 0.940170
O O13 0.878377 0.643353 0.846838
O O14 0.500000 0.500000 0.087678
O O15 0.332297 0.424169 0.124172
O O16 0.364938 0.447140 0.000000
#
# Coordination Sequence:
#
# PCOD8293554 Si02
#       7
#     8  16  16  16  16   8  16
#     4  10  20  34  56  90 120 157 190 244 320 373
#     4  10  19  33  61  93 126 160 197 241 304 383
#     4  12  26  43  63  89 118 166 219 261 305 355
#     4  11  21  38  63  90 125 159 202 254 307 373
#     4  10  21  37  57  95 134 163 194 241 312 381
#     4  10  20  34  54  91 122 153 194 239 320 375
#     4  11  21  39  64  86 128 163 196 253 312 373
#
# _framework density 18.697210999999999
#
# number of rings (size 3 to 8) (size 9 to 14) (size 15 to 20)
#    0.000    1.333    6.667    0.000    0.000    1.333 
#    3.000    0.000    0.000    6.000    0.000    0.000 
#    0.000    0.000    0.000    0.000    0.000    0.000 
#
# Total GULP energy -594982.197777 kJ/mol
# GULP energy per Si atom -12395.462454 kJ/mol
# Density = 1.865465 g / cm^3
# Si number density = 18.697211 Si / 1000 Ang^3
#
#
#
# Elastic Constant Matrix: (Units=GPa)
#
#
# Indices 1 2 3 4 5 6 
#
# 1 129.0197 48.0732 39.7279 0.0000 0.0000 0.0000
# 2 48.0732 115.3592 47.4553 0.0000 0.0000 0.0000
# 3 39.7279 47.4553 81.3267 0.0000 0.0000 0.0000
# 4 0.0000 0.0000 0.0000 10.2291 0.0000 0.0000
# 5 0.0000 0.0000 0.0000 0.0000 26.2141 0.0000
# 6 0.0000 0.0000 0.0000 0.0000 0.0000 31.7979
#
#
#
# Elastic Compliance Matrix: (Units=1/GPa)
#
#
# Indices 1 2 3 4 5 6 
#
# 1 0.009752 -0.002769 -0.003148 0.000000 0.000000 0.000000
# 2 -0.002769 0.012193 -0.005762 0.000000 0.000000 0.000000
# 3 -0.003148 -0.005762 0.017196 0.000000 0.000000 0.000000
# 4 0.000000 0.000000 0.000000 0.097760 0.000000 0.000000
# 5 0.000000 0.000000 0.000000 0.000000 0.038147 0.000000
# 6 0.000000 0.000000 0.000000 0.000000 0.000000 0.031449
#
#
# Mechanical properties :
#
#
# Convention : Reuss Voigt Hill
#
# Bulk Modulus (GPa) = 63.36027 66.24647 64.80337
# Shear Modulus (GPa) = 21.26611 26.34484 23.80548
#
# Velocity S-wave (km/s) = 3.37619 3.75777 3.57208
# Velocity P-wave (km/s) = 7.01137 7.37129 7.19358
#
# Compressibility (1/GPa) = 0.01578276
#
# Stress axis : x y z
#
# Youngs Moduli (GPa) = 102.54541 82.01597 58.15248
#
# Poissons Ratio (x) = 0.22708 0.18307
# Poissons Ratio (y) = 0.28393 0.33508
# Poissons Ratio (z) = 0.32282 0.47258
#
# Static dielectric constant tensor:
#      x y z
#    x 3.677960 0.000000 0.000000 
#    y 0.000000 3.385030 0.000000 
#    z 0.000000 0.000000 3.395550 
# 
# 
# High freq. dielectric constant tensor:
#      x y z
#    x 1.738800 0.000000 0.000000 
#    y 0.000000 1.720080 0.000000 
#    z 0.000000 0.000000 1.701020 
# 
# From -- ./inp_files/42489.got.cif
#   From: 2010.03.12/outbox.cif.g09.slc.cpg/sg72_22_cif.got.tgz:42489.got - 2010.04.16 14:54:00.
