data_PCOD8293803
_publ_section_title
;
Structure prediction by ZEFSAII (Michael W. Deem and Ramdas Pophale) SiO2 
 PCOD8293803
Probable space group: I B A M
;
_chemical_formula_sum "Si O2"
_cell_formula_units_Z 88
_cell_length_a 5.111288
_cell_length_b 33.217881
_cell_length_c 32.554992
_cell_angle_alpha 90.000000
_cell_angle_beta 90.000000
_cell_angle_gamma 90.000000
_cell_volume 5527.386968
_symmetry_space_group_name_H-M "I B A M"
_symmetry_group_IT_number 72
_symmetry_cell_setting 'orthorhombic'
loop_
_space_group_symop_operation_xyz
x,y,z
-x,-y,z
x,-y,1/2-z
-x,y,1/2-z
-x,-y,-z
x,y,-z
-x,y,1/2+z
x,-y,1/2+z
1/2+x,1/2+y,1/2+z
1/2-x,1/2-y,1/2+z
1/2+x,1/2-y,-z
1/2-x,1/2+y,-z
1/2-x,1/2-y,1/2-z
1/2+x,1/2+y,1/2-z
1/2-x,1/2+y,z
1/2+x,1/2-y,z
loop_
_atom_site_type_symbol
_atom_site_label
_atom_site_fract_x
_atom_site_fract_y
_atom_site_fract_z
Si Si1 0.506452 0.952388 0.295719
Si Si2 0.996958 0.952317 0.846229
Si Si3 0.252920 0.527733 0.500000
Si Si4 0.306802 0.226635 0.951091
Si Si5 0.627551 0.410658 0.430839
Si Si6 0.386964 0.863536 0.547321
O O1 0.500000 0.933308 0.250000
O O2 0.773942 0.938386 0.316162
O O3 0.268580 0.937840 0.324334
O O4 0.500000 0.000000 0.291771
O O5 0.031783 0.928880 0.888307
O O6 0.000000 0.000000 0.855009
O O7 0.500000 0.500000 0.500000
O O8 0.255464 0.554458 0.459325
O O9 0.000000 0.500000 0.500000
O O10 0.045822 0.247102 0.933578
O O11 0.324651 0.180847 0.935410
O O12 0.304879 0.226987 0.000000
O O13 0.375561 0.389851 0.450814
O O14 0.871185 0.380052 0.425445
O O15 0.482175 0.862337 0.500000
#
# Coordination Sequence:
#
# PCOD8293803 Si02
#       6
#    16  16   8  16  16  16
#     4   9  17  31  50  69  87 110 144 191 247 298
#     4  10  20  32  47  67  91 118 156 203 237 278
#     4  12  24  36  48  60  82 126 178 218 242 262
#     4   9  17  29  47  69  87 109 146 194 237 281
#     4  12  22  35  47  66  91 126 166 204 244 271
#     4  11  20  34  49  65  91 123 160 199 240 280
#
# _framework density 15.920723000000001
#
# number of rings (size 3 to 8) (size 9 to 14) (size 15 to 20)
#    0.000    1.636    1.818    4.364    0.000    7.273 
#    0.000    0.000    0.000    0.000    0.000    0.000 
#    0.000    0.000    0.000    0.000    0.000  229.091 
#
# Total GULP energy -545604.332218 kJ/mol
# GULP energy per Si atom -12400.098459 kJ/mol
# Density = 1.588449 g / cm^3
# Si number density = 15.920723 Si / 1000 Ang^3
#
#
#
# Elastic Constant Matrix: (Units=GPa)
#
#
# Indices 1 2 3 4 5 6 
#
# 1 110.2731 30.0737 22.7165 0.0000 0.0000 0.0000
# 2 30.0737 68.8356 30.1849 0.0000 0.0000 0.0000
# 3 22.7165 30.1849 80.1019 0.0000 0.0000 0.0000
# 4 0.0000 0.0000 0.0000 6.5999 0.0000 0.0000
# 5 0.0000 0.0000 0.0000 0.0000 86.0632 0.0000
# 6 0.0000 0.0000 0.0000 0.0000 0.0000 26.9976
#
#
#
# Elastic Compliance Matrix: (Units=1/GPa)
#
#
# Indices 1 2 3 4 5 6 
#
# 1 0.010441 -0.003909 -0.001488 0.000000 0.000000 0.000000
# 2 -0.003909 0.018867 -0.006001 0.000000 0.000000 0.000000
# 3 -0.001488 -0.006001 0.015167 0.000000 0.000000 0.000000
# 4 0.000000 0.000000 0.000000 0.151517 0.000000 0.000000
# 5 0.000000 0.000000 0.000000 0.000000 0.011619 0.000000
# 6 0.000000 0.000000 0.000000 0.000000 0.000000 0.037040
#
#
# Mechanical properties :
#
#
# Convention : Reuss Voigt Hill
#
# Bulk Modulus (GPa) = 46.12739 47.24009 46.68374
# Shear Modulus (GPa) = 18.20340 35.68117 26.94228
#
# Velocity S-wave (km/s) = 3.38506 4.73924 4.11819
# Velocity P-wave (km/s) = 6.65689 7.72552 7.21103
#
# Compressibility (1/GPa) = 0.02167909
#
# Stress axis : x y z
#
# Youngs Moduli (GPa) = 95.77614 53.00344 65.93082
#
# Poissons Ratio (x) = 0.20720 0.09810
# Poissons Ratio (y) = 0.37440 0.39565
# Poissons Ratio (z) = 0.14251 0.31807
#
# Static dielectric constant tensor:
#      x y z
#    x 3.340460 0.000000 0.000000 
#    y 0.000000 3.769610 0.000000 
#    z 0.000000 0.000000 2.878010 
# 
# 
# High freq. dielectric constant tensor:
#      x y z
#    x 1.639410 0.000000 0.000000 
#    y 0.000000 1.585820 0.000000 
#    z 0.000000 0.000000 1.575710 
# 
# From -- ./inp_files/46770.got.cif
#   From: 2010.03.12/outbox.cif.g09.slc.cpg/sg72_24_cif.got.tgz:46770.got - 2010.04.16 14:54:00.
