data_PCOD8293148
_publ_section_title
;
Structure prediction by ZEFSAII (Michael W. Deem and Ramdas Pophale) SiO2 
 PCOD8293148
Probable space group: I B A M
;
_chemical_formula_sum "Si O2"
_cell_formula_units_Z 64
_cell_length_a 15.105786
_cell_length_b 16.722170
_cell_length_c 14.104381
_cell_angle_alpha 90.000000
_cell_angle_beta 90.000000
_cell_angle_gamma 90.000000
_cell_volume 3562.788100
_symmetry_space_group_name_H-M "I B A M"
_symmetry_group_IT_number 72
_symmetry_cell_setting 'orthorhombic'
loop_
_space_group_symop_operation_xyz
x,y,z
-x,-y,z
x,-y,1/2-z
-x,y,1/2-z
-x,-y,-z
x,y,-z
-x,y,1/2+z
x,-y,1/2+z
1/2+x,1/2+y,1/2+z
1/2-x,1/2-y,1/2+z
1/2+x,1/2-y,-z
1/2-x,1/2+y,-z
1/2-x,1/2-y,1/2-z
1/2+x,1/2+y,1/2-z
1/2-x,1/2+y,z
1/2+x,1/2-y,z
loop_
_atom_site_type_symbol
_atom_site_label
_atom_site_fract_x
_atom_site_fract_y
_atom_site_fract_z
Si Si1 0.118597 0.326439 0.500000
Si Si2 0.846550 0.854204 0.500000
Si Si3 0.729087 0.561553 0.500000
Si Si4 0.602302 0.511162 0.860702
Si Si5 0.840952 0.598464 0.000000
Si Si6 0.492085 0.906252 0.858695
O O1 0.107213 0.231245 0.500000
O O2 0.221503 0.353400 0.500000
O O3 0.073021 0.360697 0.406571
O O4 0.872151 0.902293 0.403981
O O5 0.740880 0.840539 0.500000
O O6 0.664846 0.555360 0.591069
O O7 0.803861 0.492182 0.500000
O O8 0.500000 0.500000 0.886116
O O9 0.620263 0.500000 0.750000
O O10 0.898688 0.617579 0.906035
O O11 0.500000 0.881328 0.750000
O O12 0.500000 0.000000 0.875070
#
# Coordination Sequence:
#
# PCOD8293148 Si02
#       6
#     8   8   8  16   8  16
#     4  11  21  37  53  88 119 142 180 230 286 321
#     4  10  22  37  57  84 116 138 183 240 277 318
#     4  10  18  32  57  80 111 146 184 220 275 328
#     4   9  19  39  61  80 102 147 196 228 268 335
#     4   9  17  37  52  78 110 153 186 221 264 329
#     4  10  19  35  60  83 111 152 189 219 269 340
#
# _framework density 17.963460000000001
#
# number of rings (size 3 to 8) (size 9 to 14) (size 15 to 20)
#    0.000    2.500    2.500    2.250    0.000    4.000 
#   13.500    2.500    0.000    0.000    0.000    0.000 
#    0.000    0.000    0.000    0.000    0.000    0.000 
#
# Total GULP energy -396616.444117 kJ/mol
# GULP energy per Si atom -12394.263879 kJ/mol
# Density = 1.792257 g / cm^3
# Si number density = 17.963460 Si / 1000 Ang^3
#
#
#
# Elastic Constant Matrix: (Units=GPa)
#
#
# Indices 1 2 3 4 5 6 
#
# 1 138.4339 32.1110 73.7677 0.0000 0.0000 0.0000
# 2 32.1110 93.9781 54.1974 0.0000 0.0000 0.0000
# 3 73.7677 54.1974 170.2078 0.0000 0.0000 0.0000
# 4 0.0000 0.0000 0.0000 -17.7801 0.0000 0.0000
# 5 0.0000 0.0000 0.0000 0.0000 12.5196 0.0000
# 6 0.0000 0.0000 0.0000 0.0000 0.0000 21.8162
#
#
#
# Elastic Compliance Matrix: (Units=1/GPa)
#
#
# Indices 1 2 3 4 5 6 
#
# 1 0.009479 -0.001065 -0.003769 0.000000 0.000000 0.000000
# 2 -0.001065 0.013154 -0.003727 0.000000 0.000000 0.000000
# 3 -0.003769 -0.003727 0.008695 0.000000 0.000000 0.000000
# 4 0.000000 0.000000 0.000000 -0.056243 0.000000 0.000000
# 5 0.000000 0.000000 0.000000 0.000000 0.079875 0.000000
# 6 0.000000 0.000000 0.000000 0.000000 0.000000 0.045837
#
#
# Mechanical properties :
#
#
# Convention : Reuss Voigt Hill
#
# Bulk Modulus (GPa) = 70.39132 80.30801 75.34966
# Shear Modulus (GPa) = 40.76453 19.48073 30.12263
#
# Velocity S-wave (km/s) = 4.76889 3.29669 4.09942
# Velocity P-wave (km/s) = 8.34230 7.70028 8.02771
#
# Compressibility (1/GPa) = 0.01420630
#
# Stress axis : x y z
#
# Youngs Moduli (GPa) = 105.49416 76.02236 115.00388
#
# Poissons Ratio (x) = 0.08098 0.43346
# Poissons Ratio (y) = 0.11238 0.42860
# Poissons Ratio (z) = 0.39761 0.28332
#
# Static dielectric constant tensor:
#      x y z
#    x 3.549390 0.000000 0.000000 
#    y 0.000000 2.981780 0.000000 
#    z 0.000000 0.000000 3.349650 
# 
# 
# High freq. dielectric constant tensor:
#      x y z
#    x 1.714740 0.000000 0.000000 
#    y 0.000000 1.659740 0.000000 
#    z 0.000000 0.000000 1.699100 
# 
# From -- ./inp_files/21415.got.cif
#   From: 2010.03.12/outbox.cif.g09.slc.cpg/sg72_11_cif.got.tgz:21415.got - 2010.04.16 14:54:00.
