data_PCOD8293689
_publ_section_title
;
Structure prediction by ZEFSAII (Michael W. Deem and Ramdas Pophale) SiO2 
 PCOD8293689
Probable space group: I B A M
;
_chemical_formula_sum "Si O2"
_cell_formula_units_Z 64
_cell_length_a 8.992771
_cell_length_b 20.154485
_cell_length_c 14.057123
_cell_angle_alpha 90.000000
_cell_angle_beta 90.000000
_cell_angle_gamma 90.000000
_cell_volume 2547.778594
_symmetry_space_group_name_H-M "I B A M"
_symmetry_group_IT_number 72
_symmetry_cell_setting 'orthorhombic'
loop_
_space_group_symop_operation_xyz
x,y,z
-x,-y,z
x,-y,1/2-z
-x,y,1/2-z
-x,-y,-z
x,y,-z
-x,y,1/2+z
x,-y,1/2+z
1/2+x,1/2+y,1/2+z
1/2-x,1/2-y,1/2+z
1/2+x,1/2-y,-z
1/2-x,1/2+y,-z
1/2-x,1/2-y,1/2-z
1/2+x,1/2+y,1/2-z
1/2-x,1/2+y,z
1/2+x,1/2-y,z
loop_
_atom_site_type_symbol
_atom_site_label
_atom_site_fract_x
_atom_site_fract_y
_atom_site_fract_z
Si Si1 0.545382 0.324457 0.113487
Si Si2 0.887776 0.953739 0.344012
Si Si3 0.612875 0.191716 0.612646
Si Si4 0.441332 0.933405 0.107676
O O1 0.476469 0.385276 0.172356
O O2 0.455916 0.260163 0.150429
O O3 0.717096 0.316684 0.144311
O O4 0.529338 0.335315 0.000000
O O5 0.736364 0.933277 0.394128
O O6 0.858640 0.000000 0.250000
O O7 0.000000 0.000000 0.407808
O O8 0.597614 0.192498 0.500000
O O9 0.514369 0.131216 0.656876
O O10 0.500000 0.000000 0.159782
O O11 0.500476 0.933690 0.000000
#
# Coordination Sequence:
#
# PCOD8293689 Si02
#       4
#    16  16  16  16
#     4  10  19  35  62  94 127 161 199 249 308 369
#     4  11  24  39  56  80 121 167 209 252 298 355
#     4   9  18  33  60  99 131 155 193 250 316 377
#     4  10  20  36  61  92 122 155 200 253 310 370
#
# _framework density 25.119921999999999
#
# number of rings (size 3 to 8) (size 9 to 14) (size 15 to 20)
#    0.000    2.000    0.000    3.750    0.000    8.500 
#    0.000    1.250    0.000   37.500    0.000    0.000 
#    0.000    0.000    0.000    0.000    0.000    0.000 
#
# Total GULP energy -396431.495032 kJ/mol
# GULP energy per Si atom -12388.484220 kJ/mol
# Density = 2.506275 g / cm^3
# Si number density = 25.119922 Si / 1000 Ang^3
#
#
#
# Elastic Constant Matrix: (Units=GPa)
#
#
# Indices 1 2 3 4 5 6 
#
# 1 207.1281 114.5933 5.8863 0.0000 0.0000 0.0000
# 2 114.5933 278.6811 10.1697 0.0000 0.0000 0.0000
# 3 5.8863 10.1697 51.3202 0.0000 -0.0001 0.0000
# 4 0.0000 0.0000 0.0000 -5.4017 0.0000 0.0000
# 5 0.0000 0.0000 -0.0001 0.0000 14.3617 0.0000
# 6 0.0000 0.0000 0.0000 0.0000 0.0000 63.6193
#
#
#
# Elastic Compliance Matrix: (Units=1/GPa)
#
#
# Indices 1 2 3 4 5 6 
#
# 1 0.006252 -0.002563 -0.000209 0.000000 0.000000 0.000000
# 2 -0.002563 0.004665 -0.000630 0.000000 0.000000 0.000000
# 3 -0.000209 -0.000630 0.019634 0.000000 0.000000 0.000000
# 4 0.000000 0.000000 0.000000 -0.185126 0.000000 0.000000
# 5 0.000000 0.000000 0.000000 0.000000 0.069630 0.000000
# 6 0.000000 0.000000 0.000000 0.000000 0.000000 0.015718
#
#
# Mechanical properties :
#
#
# Convention : Reuss Voigt Hill
#
# Bulk Modulus (GPa) = 42.11223 88.71420 65.41322
# Shear Modulus (GPa) = -91.73353 41.61454 -25.05949
#
# Velocity S-wave (km/s) = -6.04959 4.07459 -3.16190
# Velocity P-wave (km/s) = 5.65648 7.58481 3.57306
#
# Compressibility (1/GPa) = 0.02374607
#
# Stress axis : x y z
#
# Youngs Moduli (GPa) = 159.95054 214.34831 50.93089
#
# Poissons Ratio (x) = 0.54941 0.01065
# Poissons Ratio (y) = 0.40998 0.03211
# Poissons Ratio (z) = 0.03346 0.13515
#
# Static dielectric constant tensor:
#      x y z
#    x 4.494990 0.000000 0.000000 
#    y 0.000000 5.007860 0.000000 
#    z 0.000000 0.000000 3.899530 
# 
# 
# High freq. dielectric constant tensor:
#      x y z
#    x 2.007760 0.000000 0.000000 
#    y 0.000000 2.023550 0.000000 
#    z 0.000000 0.000000 1.978980 
# 
# From -- ./inp_files/35406.got.cif
#   From: 2010.03.12/outbox.cif.g09.slc.cpg/sg72_18_cif.got.tgz:35406.got - 2010.04.16 14:54:00.
