data_PCOD8293831
_publ_section_title
;
Structure prediction by ZEFSAII (Michael W. Deem and Ramdas Pophale) SiO2 
 PCOD8293831
Probable space group: I B A M
;
_chemical_formula_sum "Si O2"
_cell_formula_units_Z 96
_cell_length_a 20.983281
_cell_length_b 30.097711
_cell_length_c 8.900740
_cell_angle_alpha 90.000000
_cell_angle_beta 90.000000
_cell_angle_gamma 90.000000
_cell_volume 5621.251020
_symmetry_space_group_name_H-M "I B A M"
_symmetry_group_IT_number 72
_symmetry_cell_setting 'orthorhombic'
loop_
_space_group_symop_operation_xyz
x,y,z
-x,-y,z
x,-y,1/2-z
-x,y,1/2-z
-x,-y,-z
x,y,-z
-x,y,1/2+z
x,-y,1/2+z
1/2+x,1/2+y,1/2+z
1/2-x,1/2-y,1/2+z
1/2+x,1/2-y,-z
1/2-x,1/2+y,-z
1/2-x,1/2-y,1/2-z
1/2+x,1/2+y,1/2-z
1/2-x,1/2+y,z
1/2+x,1/2-y,z
loop_
_atom_site_type_symbol
_atom_site_label
_atom_site_fract_x
_atom_site_fract_y
_atom_site_fract_z
Si Si1 0.406572 0.163545 0.668453
Si Si2 0.437339 0.749914 0.324451
Si Si3 0.937206 0.435788 0.328276
Si Si4 0.231627 0.631264 0.326071
Si Si5 0.195978 0.544423 0.822163
Si Si6 0.301454 0.282095 0.176266
O O1 0.411207 0.183568 0.500000
O O2 0.437059 0.197750 0.785607
O O3 0.443577 0.117295 0.677419
O O4 0.333386 0.156435 0.714817
O O5 0.500000 0.727556 0.250000
O O6 0.443146 0.743025 0.500000
O O7 0.372416 0.727693 0.261544
O O8 0.931495 0.452539 0.500000
O O9 0.876097 0.451728 0.236667
O O10 0.000000 0.456234 0.250000
O O11 0.230872 0.616659 0.500000
O O12 0.238555 0.586668 0.227819
O O13 0.287798 0.665996 0.288300
O O14 0.226554 0.500000 0.750000
O O15 0.196224 0.540885 0.000000
O O16 0.250000 0.250000 0.250000
O O17 0.297567 0.272730 0.000000
#
# Coordination Sequence:
#
# PCOD8293831 Si02
#       6
#    16  16  16  16  16  16
#     4   9  17  30  48  67  93 128 165 209 255 293
#     4  11  22  32  46  70 101 137 174 211 252 297
#     4  10  20  33  47  66  92 124 165 208 254 300
#     4   9  18  34  53  73  98 127 163 210 257 298
#     4  11  22  36  53  72  94 122 158 202 254 305
#     4  10  20  34  53  76 102 135 174 214 255 301
#
# _framework density 17.078049
#
# number of rings (size 3 to 8) (size 9 to 14) (size 15 to 20)
#    0.000    2.000    1.667    4.000    0.000    6.333 
#    0.000    1.667    0.000    0.000    0.000    0.000 
#    0.000    0.667    0.000    7.667    0.000    2.333 
#
# Total GULP energy -595170.553094 kJ/mol
# GULP energy per Si atom -12399.386523 kJ/mol
# Density = 1.703918 g / cm^3
# Si number density = 17.078049 Si / 1000 Ang^3
#
#
#
# Elastic Constant Matrix: (Units=GPa)
#
#
# Indices 1 2 3 4 5 6 
#
# 1 93.2157 42.6975 37.5567 0.0000 0.0000 0.0000
# 2 42.6975 86.7685 42.3831 0.0000 0.0000 0.0000
# 3 37.5567 42.3831 93.0339 0.0000 0.0000 0.0000
# 4 0.0000 0.0000 0.0000 23.6939 0.0000 0.0000
# 5 0.0000 0.0000 0.0000 0.0000 21.4448 0.0000
# 6 0.0000 0.0000 0.0000 0.0000 0.0000 6.4878
#
#
#
# Elastic Compliance Matrix: (Units=1/GPa)
#
#
# Indices 1 2 3 4 5 6 
#
# 1 0.014631 -0.005550 -0.003378 0.000000 0.000000 0.000000
# 2 -0.005550 0.016929 -0.005472 0.000000 0.000000 0.000000
# 3 -0.003378 -0.005472 0.014605 0.000000 0.000000 0.000000
# 4 0.000000 0.000000 0.000000 0.042205 0.000000 0.000000
# 5 0.000000 0.000000 0.000000 0.000000 0.046631 0.000000
# 6 0.000000 0.000000 0.000000 0.000000 0.000000 0.154136
#
#
# Mechanical properties :
#
#
# Convention : Reuss Voigt Hill
#
# Bulk Modulus (GPa) = 57.58471 57.58808 57.58640
# Shear Modulus (GPa) = 15.44525 20.35067 17.89796
#
# Velocity S-wave (km/s) = 3.01057 3.45574 3.24081
# Velocity P-wave (km/s) = 6.77322 7.05100 6.91350
#
# Compressibility (1/GPa) = 0.01736572
#
# Stress axis : x y z
#
# Youngs Moduli (GPa) = 68.34878 59.07187 68.46855
#
# Poissons Ratio (x) = 0.32782 0.23130
# Poissons Ratio (y) = 0.37930 0.37464
# Poissons Ratio (z) = 0.23089 0.32323
#
# Static dielectric constant tensor:
#      x y z
#    x 3.181350 0.000000 0.000000 
#    y 0.000000 3.258140 0.000000 
#    z 0.000000 0.000000 3.194860 
# 
# 
# High freq. dielectric constant tensor:
#      x y z
#    x 1.626810 0.000000 0.000000 
#    y 0.000000 1.646200 0.000000 
#    z 0.000000 0.000000 1.664850 
# 
# From -- ./inp_files/7094.got.cif
#   From: 2010.03.12/outbox.cif.g09.slc.cpg/sg72_4_cif.got.tgz:7094.got - 2010.04.16 14:54:00.
