data_PCOD8293018
_publ_section_title
;
Structure prediction by ZEFSAII (Michael W. Deem and Ramdas Pophale) SiO2 
 PCOD8293018
Probable space group: I B A M
;
_chemical_formula_sum "Si O2"
_cell_formula_units_Z 96
_cell_length_a 23.496093
_cell_length_b 13.086634
_cell_length_c 17.775363
_cell_angle_alpha 90.000000
_cell_angle_beta 90.000000
_cell_angle_gamma 90.000000
_cell_volume 5465.653395
_symmetry_space_group_name_H-M "I B A M"
_symmetry_group_IT_number 72
_symmetry_cell_setting 'orthorhombic'
loop_
_space_group_symop_operation_xyz
x,y,z
-x,-y,z
x,-y,1/2-z
-x,y,1/2-z
-x,-y,-z
x,y,-z
-x,y,1/2+z
x,-y,1/2+z
1/2+x,1/2+y,1/2+z
1/2-x,1/2-y,1/2+z
1/2+x,1/2-y,-z
1/2-x,1/2+y,-z
1/2-x,1/2-y,1/2-z
1/2+x,1/2+y,1/2-z
1/2-x,1/2+y,z
1/2+x,1/2-y,z
loop_
_atom_site_type_symbol
_atom_site_label
_atom_site_fract_x
_atom_site_fract_y
_atom_site_fract_z
Si Si1 0.620572 0.546057 0.413879
Si Si2 0.737374 0.096099 0.797270
Si Si3 0.912574 0.186309 0.913061
Si Si4 0.182690 0.718485 0.822476
Si Si5 0.484103 0.384988 0.335760
Si Si6 0.252524 0.942384 0.413997
O O1 0.603729 0.571587 0.500000
O O2 0.612119 0.426158 0.398496
O O3 0.582911 0.619254 0.358072
O O4 0.685798 0.570366 0.397425
O O5 0.789410 0.173046 0.805142
O O6 0.683577 0.149916 0.754439
O O7 0.761232 0.000000 0.750000
O O8 0.720470 0.045753 0.877080
O O9 0.879716 0.264826 0.857555
O O10 0.978987 0.189504 0.889284
O O11 0.905733 0.219810 0.000000
O O12 0.219975 0.661420 0.884834
O O13 0.500000 0.500000 0.355984
O O14 0.500000 0.357657 0.250000
O O15 0.266965 0.955753 0.500000
#
# Coordination Sequence:
#
# PCOD8293018 Si02
#       6
#    16  16  16  16  16  16
#     4   9  17  30  46  66  96 135 168 205 255 310
#     4   9  19  32  45  65  97 134 171 212 260 302
#     4  10  18  30  48  69  98 134 171 213 254 307
#     4  10  19  31  47  73  98 136 177 213 256 311
#     4   9  18  29  43  68  93 129 170 207 250 306
#     4  10  19  31  49  71 100 139 175 213 261 316
#
# _framework density 17.564230999999999
#
# number of rings (size 3 to 8) (size 9 to 14) (size 15 to 20)
#    0.000    2.500    1.667    1.000    0.000    6.667 
#    3.000    0.000    0.000    0.000    0.000    0.000 
#    0.000   31.333    0.000   61.500    0.000    2.500 
#
# Total GULP energy -594737.220590 kJ/mol
# GULP energy per Si atom -12390.358762 kJ/mol
# Density = 1.752425 g / cm^3
# Si number density = 17.564231 Si / 1000 Ang^3
#
#
#
# Elastic Constant Matrix: (Units=GPa)
#
#
# Indices 1 2 3 4 5 6 
#
# 1 77.4100 28.8655 45.0241 0.0000 0.0000 0.0000
# 2 28.8655 71.8568 38.4111 0.0000 0.0000 0.0000
# 3 45.0241 38.4111 112.5994 0.0000 0.0000 0.0000
# 4 0.0000 0.0000 0.0000 19.0953 0.0000 0.0000
# 5 0.0000 0.0000 0.0000 0.0000 30.1055 0.0000
# 6 0.0000 0.0000 0.0000 0.0000 0.0000 24.2984
#
#
#
# Elastic Compliance Matrix: (Units=1/GPa)
#
#
# Indices 1 2 3 4 5 6 
#
# 1 0.017761 -0.004083 -0.005709 0.000000 0.000000 0.000000
# 2 -0.004083 0.017959 -0.004494 0.000000 0.000000 0.000000
# 3 -0.005709 -0.004494 0.012697 0.000000 0.000000 0.000000
# 4 0.000000 0.000000 0.000000 0.052369 0.000000 0.000000
# 5 0.000000 0.000000 0.000000 0.000000 0.033217 0.000000
# 6 0.000000 0.000000 0.000000 0.000000 0.000000 0.041155
#
#
# Mechanical properties :
#
#
# Convention : Reuss Voigt Hill
#
# Bulk Modulus (GPa) = 50.38989 54.05194 52.22091
# Shear Modulus (GPa) = 23.77054 24.67089 24.22071
#
# Velocity S-wave (km/s) = 3.68278 3.75188 3.71749
# Velocity P-wave (km/s) = 6.84361 7.04340 6.94422
#
# Compressibility (1/GPa) = 0.01984525
#
# Stress axis : x y z
#
# Youngs Moduli (GPa) = 56.30178 55.68288 78.75957
#
# Poissons Ratio (x) = 0.22736 0.44966
# Poissons Ratio (y) = 0.22988 0.35392
# Poissons Ratio (z) = 0.32144 0.25022
#
# Static dielectric constant tensor:
#      x y z
#    x 3.141310 0.000000 0.000000 
#    y 0.000000 3.096930 0.000000 
#    z 0.000000 0.000000 3.630500 
# 
# 
# High freq. dielectric constant tensor:
#      x y z
#    x 1.651270 0.000000 0.000000 
#    y 0.000000 1.642550 0.000000 
#    z 0.000000 0.000000 1.697160 
# 
# From -- ./inp_files/29449.got.cif
#   From: 2010.03.12/outbox.cif.g09.slc.cpg/sg72_15_cif.got.tgz:29449.got - 2010.04.16 14:54:00.
