data_PCOD8293285
_publ_section_title
;
Structure prediction by ZEFSAII (Michael W. Deem and Ramdas Pophale) SiO2 
 PCOD8293285
Probable space group: I B A M
;
_chemical_formula_sum "Si O2"
_cell_formula_units_Z 80
_cell_length_a 13.083496
_cell_length_b 19.868178
_cell_length_c 17.915024
_cell_angle_alpha 90.000000
_cell_angle_beta 90.000000
_cell_angle_gamma 90.000000
_cell_volume 4656.924987
_symmetry_space_group_name_H-M "I B A M"
_symmetry_group_IT_number 72
_symmetry_cell_setting 'orthorhombic'
loop_
_space_group_symop_operation_xyz
x,y,z
-x,-y,z
x,-y,1/2-z
-x,y,1/2-z
-x,-y,-z
x,y,-z
-x,y,1/2+z
x,-y,1/2+z
1/2+x,1/2+y,1/2+z
1/2-x,1/2-y,1/2+z
1/2+x,1/2-y,-z
1/2-x,1/2+y,-z
1/2-x,1/2-y,1/2-z
1/2+x,1/2+y,1/2-z
1/2-x,1/2+y,z
1/2+x,1/2-y,z
loop_
_atom_site_type_symbol
_atom_site_label
_atom_site_fract_x
_atom_site_fract_y
_atom_site_fract_z
Si Si1 0.460708 0.225821 0.331041
Si Si2 0.138807 0.850310 0.414743
Si Si3 0.614067 0.424723 0.226603
Si Si4 0.347663 0.222406 0.083778
Si Si5 0.751922 0.186276 0.195466
O O1 0.500000 0.250183 0.250000
O O2 0.426622 0.290712 0.378151
O O3 0.554028 0.190467 0.374606
O O4 0.367270 0.172331 0.325013
O O5 0.103144 0.864183 0.500000
O O6 0.123188 0.916467 0.363358
O O7 0.258156 0.832127 0.412885
O O8 0.641432 0.500000 0.250000
O O9 0.500000 0.404864 0.250000
O O10 0.697038 0.377481 0.266472
O O11 0.315371 0.293040 0.122078
O O12 0.377985 0.240724 0.000000
O O13 0.750000 0.250000 0.250000
#
# Coordination Sequence:
#
# PCOD8293285 Si02
#       5
#    16  16  16  16  16
#     4  11  17  28  51  77 104 135 173 219 267 311
#     4  10  19  32  50  75 106 138 173 217 268 313
#     4  11  22  37  55  77 107 146 179 213 258 319
#     4  10  19  30  50  81 108 134 171 223 278 311
#     4  11  19  33  54  78 106 137 181 222 261 307
#
# _framework density 17.178718
#
# number of rings (size 3 to 8) (size 9 to 14) (size 15 to 20)
#    0.000    1.400    6.000    2.400    0.000    0.800 
#    0.000    3.000    0.000    5.400    0.000    2.800 
#    0.000    0.000    0.000    0.000    0.000    0.000 
#
# Total GULP energy -495842.646044 kJ/mol
# GULP energy per Si atom -12396.066151 kJ/mol
# Density = 1.713962 g / cm^3
# Si number density = 17.178718 Si / 1000 Ang^3
#
#
#
# Elastic Constant Matrix: (Units=GPa)
#
#
# Indices 1 2 3 4 5 6 
#
# 1 123.0107 32.1049 58.0771 0.0000 0.0000 0.0000
# 2 32.1049 80.9951 48.4456 0.0000 0.0000 0.0000
# 3 58.0771 48.4456 166.9505 0.0000 0.0000 0.0000
# 4 0.0000 0.0000 0.0000 18.3208 0.0000 0.0000
# 5 0.0000 0.0000 0.0000 0.0000 32.2838 0.0000
# 6 0.0000 0.0000 0.0000 0.0000 0.0000 19.1178
#
#
#
# Elastic Compliance Matrix: (Units=1/GPa)
#
#
# Indices 1 2 3 4 5 6 
#
# 1 0.010067 -0.002294 -0.002836 0.000000 0.000000 0.000000
# 2 -0.002294 0.015462 -0.003689 0.000000 0.000000 0.000000
# 3 -0.002836 -0.003689 0.008047 0.000000 0.000000 0.000000
# 4 0.000000 0.000000 0.000000 0.054583 0.000000 0.000000
# 5 0.000000 0.000000 0.000000 0.000000 0.030975 0.000000
# 6 0.000000 0.000000 0.000000 0.000000 0.000000 0.052307
#
#
# Mechanical properties :
#
#
# Convention : Reuss Voigt Hill
#
# Bulk Modulus (GPa) = 62.74332 72.02349 67.38341
# Shear Modulus (GPa) = 25.72117 29.43307 27.57712
#
# Velocity S-wave (km/s) = 3.87365 4.14375 4.01098
# Velocity P-wave (km/s) = 7.52397 8.05675 7.79491
#
# Compressibility (1/GPa) = 0.01593795
#
# Stress axis : x y z
#
# Youngs Moduli (GPa) = 99.33215 64.67447 124.27105
#
# Poissons Ratio (x) = 0.14836 0.35249
# Poissons Ratio (y) = 0.22786 0.45841
# Poissons Ratio (z) = 0.28175 0.23857
#
# Static dielectric constant tensor:
#      x y z
#    x 3.723890 0.000000 0.000000 
#    y 0.000000 2.839790 0.000000 
#    z 0.000000 0.000000 3.732630 
# 
# 
# High freq. dielectric constant tensor:
#      x y z
#    x 1.686830 0.000000 0.000000 
#    y 0.000000 1.594370 0.000000 
#    z 0.000000 0.000000 1.682390 
# 
# From -- ./inp_files/30630.got.cif
#   From: 2010.03.12/outbox.cif.g09.slc.cpg/sg72_16_cif.got.tgz:30630.got - 2010.04.16 14:54:00.
