data_PCOD8293123
_publ_section_title
;
Structure prediction by ZEFSAII (Michael W. Deem and Ramdas Pophale) SiO2 
 PCOD8293123
Probable space group: I B A M
;
_chemical_formula_sum "Si O2"
_cell_formula_units_Z 112
_cell_length_a 19.654892
_cell_length_b 17.717085
_cell_length_c 16.582897
_cell_angle_alpha 90.000000
_cell_angle_beta 90.000000
_cell_angle_gamma 90.000000
_cell_volume 5774.618978
_symmetry_space_group_name_H-M "I B A M"
_symmetry_group_IT_number 72
_symmetry_cell_setting 'orthorhombic'
loop_
_space_group_symop_operation_xyz
x,y,z
-x,-y,z
x,-y,1/2-z
-x,y,1/2-z
-x,-y,-z
x,y,-z
-x,y,1/2+z
x,-y,1/2+z
1/2+x,1/2+y,1/2+z
1/2-x,1/2-y,1/2+z
1/2+x,1/2-y,-z
1/2-x,1/2+y,-z
1/2-x,1/2-y,1/2-z
1/2+x,1/2+y,1/2-z
1/2-x,1/2+y,z
1/2+x,1/2-y,z
loop_
_atom_site_type_symbol
_atom_site_label
_atom_site_fract_x
_atom_site_fract_y
_atom_site_fract_z
Si Si1 0.337391 0.471205 0.403766
Si Si2 0.812152 0.432899 0.096378
Si Si3 0.597569 0.376832 0.404403
Si Si4 0.444689 0.651563 0.904876
Si Si5 0.430810 0.042592 0.405183
Si Si6 0.619235 0.785994 0.907033
Si Si7 0.475745 0.806642 0.841072
O O1 0.338739 0.473583 0.500000
O O2 0.261928 0.455211 0.370587
O O3 0.362250 0.551691 0.368034
O O4 0.387605 0.405861 0.372710
O O5 0.867022 0.493952 0.126591
O O6 0.832006 0.349934 0.131892
O O7 0.813484 0.430251 0.000000
O O8 0.605394 0.375923 0.500000
O O9 0.518056 0.383205 0.381915
O O10 0.628266 0.297960 0.368405
O O11 0.433111 0.730948 0.859793
O O12 0.438409 0.665259 0.000000
O O13 0.425965 0.057666 0.500000
O O14 0.427556 0.122077 0.358643
O O15 0.500000 0.000000 0.381976
O O16 0.540958 0.811723 0.899540
O O17 0.637658 0.780472 0.000000
O O18 0.500000 0.806308 0.750000
#
# Coordination Sequence:
#
# PCOD8293123 Si02
#       7
#    16  16  16  16  16  16  16
#     4   9  16  28  47  79 108 127 165 216 259 302
#     4   9  17  29  47  73 105 135 163 206 257 310
#     4   8  14  25  47  74 100 128 162 203 252 304
#     4   9  17  31  52  76 103 132 164 209 263 308
#     4  10  18  32  53  74 100 133 169 211 260 305
#     4   9  16  31  51  72 100 134 165 201 260 311
#     4  11  21  32  50  78 101 130 174 220 254 301
#
# _framework density 19.395219000000001
#
# number of rings (size 3 to 8) (size 9 to 14) (size 15 to 20)
#    0.000    2.714    1.429    2.571    0.000    2.000 
#    2.571    0.000    0.000    7.714    7.429    0.000 
#    0.000    0.000    0.000    0.000    0.000    0.000 
#
# Total GULP energy -694158.841491 kJ/mol
# GULP energy per Si atom -12395.693598 kJ/mol
# Density = 1.935107 g / cm^3
# Si number density = 19.395219 Si / 1000 Ang^3
#
#
#
# Elastic Constant Matrix: (Units=GPa)
#
#
# Indices 1 2 3 4 5 6 
#
# 1 143.4442 111.7328 11.9402 0.0000 0.0000 0.0000
# 2 111.7328 215.4596 27.1413 0.0000 0.0000 0.0000
# 3 11.9402 27.1413 19.9796 0.0000 0.0000 0.0000
# 4 0.0000 0.0000 0.0000 5.9237 0.0000 0.0000
# 5 0.0000 0.0000 0.0000 0.0000 6.9546 0.0000
# 6 0.0000 0.0000 0.0000 0.0000 0.0000 26.4901
#
#
#
# Elastic Compliance Matrix: (Units=1/GPa)
#
#
# Indices 1 2 3 4 5 6 
#
# 1 0.011733 -0.006275 0.001512 0.000000 0.000000 0.000000
# 2 -0.006275 0.008956 -0.008415 0.000000 0.000000 0.000000
# 3 0.001512 -0.008415 0.060579 0.000000 0.000000 0.000000
# 4 0.000000 0.000000 0.000000 0.168814 0.000000 0.000000
# 5 0.000000 0.000000 0.000000 0.000000 0.143790 0.000000
# 6 0.000000 0.000000 0.000000 0.000000 0.000000 0.037750
#
#
# Mechanical properties :
#
#
# Convention : Reuss Voigt Hill
#
# Bulk Modulus (GPa) = 18.21105 75.61244 46.91175
# Shear Modulus (GPa) = 10.49799 23.07828 16.78814
#
# Velocity S-wave (km/s) = 2.32904 3.45323 2.94527
# Velocity P-wave (km/s) = 4.07951 7.41414 5.98380
#
# Compressibility (1/GPa) = 0.05491171
#
# Stress axis : x y z
#
# Youngs Moduli (GPa) = 85.22682 111.66306 16.50732
#
# Poissons Ratio (x) = 0.70071 -0.02497
# Poissons Ratio (y) = 0.53482 0.13892
# Poissons Ratio (z) = -0.12890 0.93969
#
# Static dielectric constant tensor:
#      x y z
#    x 3.522730 0.000000 0.000000 
#    y 0.000000 4.041220 0.000000 
#    z 0.000000 0.000000 2.913290 
# 
# 
# High freq. dielectric constant tensor:
#      x y z
#    x 1.732480 0.000000 0.000000 
#    y 0.000000 1.776690 0.000000 
#    z 0.000000 0.000000 1.697650 
# 
# From -- ./inp_files/31885.got.cif
#   From: 2010.03.12/outbox.cif.g09.slc.cpg/sg72_16_cif.got.tgz:31885.got - 2010.04.16 14:54:00.
