data_PCOD8293041
_publ_section_title
;
Structure prediction by ZEFSAII (Michael W. Deem and Ramdas Pophale) SiO2 
 PCOD8293041
Probable space group: I B A M
;
_chemical_formula_sum "Si O2"
_cell_formula_units_Z 128
_cell_length_a 18.895999
_cell_length_b 20.077416
_cell_length_c 19.779086
_cell_angle_alpha 90.000000
_cell_angle_beta 90.000000
_cell_angle_gamma 90.000000
_cell_volume 7503.845674
_symmetry_space_group_name_H-M "I B A M"
_symmetry_group_IT_number 72
_symmetry_cell_setting 'orthorhombic'
loop_
_space_group_symop_operation_xyz
x,y,z
-x,-y,z
x,-y,1/2-z
-x,y,1/2-z
-x,-y,-z
x,y,-z
-x,y,1/2+z
x,-y,1/2+z
1/2+x,1/2+y,1/2+z
1/2-x,1/2-y,1/2+z
1/2+x,1/2-y,-z
1/2-x,1/2+y,-z
1/2-x,1/2-y,1/2-z
1/2+x,1/2+y,1/2-z
1/2-x,1/2+y,z
1/2+x,1/2-y,z
loop_
_atom_site_type_symbol
_atom_site_label
_atom_site_fract_x
_atom_site_fract_y
_atom_site_fract_z
Si Si1 0.285937 0.068777 0.833024
Si Si2 0.184902 0.819293 0.686505
Si Si3 0.722023 0.696494 0.840062
Si Si4 0.318226 0.078708 0.316488
Si Si5 0.093433 0.381839 0.576895
Si Si6 0.031350 0.772445 0.322068
Si Si7 0.528719 0.115186 0.177176
Si Si8 0.590228 0.725024 0.076882
O O1 0.210541 0.107072 0.837149
O O2 0.322603 0.094249 0.763759
O O3 0.334379 0.086058 0.896656
O O4 0.275735 0.989295 0.831252
O O5 0.237071 0.766111 0.651607
O O6 0.186130 0.809489 0.766931
O O7 0.104745 0.809664 0.662338
O O8 0.776716 0.637063 0.854506
O O9 0.660665 0.689992 0.895459
O O10 0.399238 0.075951 0.341429
O O11 0.081286 0.404377 0.500000
O O12 0.101262 0.303330 0.584025
O O13 0.027122 0.406978 0.620639
O O14 0.045122 0.693596 0.323340
O O15 0.000000 0.794267 0.250000
O O16 0.977990 0.796597 0.380162
O O17 0.500000 0.092343 0.250000
O O18 0.577745 0.702558 0.000000
#
# Coordination Sequence:
#
# PCOD8293041 Si02
#       8
#    16  16  16  16  16  16  16  16
#     4  10  20  34  50  77 108 138 177 219 261 311
#     4  10  18  30  56  79 103 131 179 226 258 298
#     4  10  18  31  53  80 102 134 174 220 262 306
#     4  10  20  33  52  78 106 137 177 226 262 296
#     4  10  20  34  50  73 109 147 173 206 261 320
#     4  10  18  30  53  83 102 131 177 225 263 307
#     4  10  18  30  51  75 106 137 177 217 252 307
#     4  10  20  34  52  79 112 139 168 216 274 318
#
# _framework density 17.057919999999999
#
# number of rings (size 3 to 8) (size 9 to 14) (size 15 to 20)
#    0.000    2.000    5.000    0.000    0.000    0.500 
#    0.000    3.750    0.000    0.750    0.000    0.875 
#    0.000    0.000    0.000    0.000    0.000    0.000 
#
# Total GULP energy -793705.354981 kJ/mol
# GULP energy per Si atom -12401.646172 kJ/mol
# Density = 1.701910 g / cm^3
# Si number density = 17.057920 Si / 1000 Ang^3
#
#
#
# Elastic Constant Matrix: (Units=GPa)
#
#
# Indices 1 2 3 4 5 6 
#
# 1 117.5971 37.2849 53.4938 0.0000 0.0000 0.0000
# 2 37.2849 62.8977 27.2278 0.0000 0.0000 0.0000
# 3 53.4938 27.2278 102.9259 0.0000 0.0000 0.0000
# 4 0.0000 0.0000 0.0000 11.9508 0.0000 0.0000
# 5 0.0000 0.0000 0.0000 0.0000 25.8414 0.0000
# 6 0.0000 0.0000 0.0000 0.0000 0.0000 22.8669
#
#
#
# Elastic Compliance Matrix: (Units=1/GPa)
#
#
# Indices 1 2 3 4 5 6 
#
# 1 0.012471 -0.005180 -0.005111 0.000000 0.000000 0.000000
# 2 -0.005180 0.020107 -0.002627 0.000000 0.000000 0.000000
# 3 -0.005111 -0.002627 0.013067 0.000000 0.000000 0.000000
# 4 0.000000 0.000000 0.000000 0.083677 0.000000 0.000000
# 5 0.000000 0.000000 0.000000 0.000000 0.038698 0.000000
# 6 0.000000 0.000000 0.000000 0.000000 0.000000 0.043731
#
#
# Mechanical properties :
#
#
# Convention : Reuss Voigt Hill
#
# Bulk Modulus (GPa) = 50.48307 57.71487 54.09897
# Shear Modulus (GPa) = 20.47593 23.15943 21.81768
#
# Velocity S-wave (km/s) = 3.46840 3.68869 3.58024
# Velocity P-wave (km/s) = 6.76011 7.21457 6.99103
#
# Compressibility (1/GPa) = 0.01980862
#
# Stress axis : x y z
#
# Youngs Moduli (GPa) = 80.18570 49.73497 76.52819
#
# Poissons Ratio (x) = 0.25763 0.39116
# Poissons Ratio (y) = 0.41537 0.20102
# Poissons Ratio (z) = 0.40985 0.13064
#
# Static dielectric constant tensor:
#      x y z
#    x 3.145350 0.000000 0.000000 
#    y 0.000000 2.979010 0.000000 
#    z 0.000000 0.000000 3.063270 
# 
# 
# High freq. dielectric constant tensor:
#      x y z
#    x 1.658870 0.000000 0.000000 
#    y 0.000000 1.633350 0.000000 
#    z 0.000000 0.000000 1.637300 
# 
# From -- ./inp_files/39367.got.cif
#   From: 2010.03.12/outbox.cif.g09.slc.cpg/sg72_20_cif.got.tgz:39367.got - 2010.04.16 14:54:00.
