data_PCOD8293574
_publ_section_title
;
Structure prediction by ZEFSAII (Michael W. Deem and Ramdas Pophale) SiO2 
 PCOD8293574
Probable space group: I B A M
;
_chemical_formula_sum "Si O2"
_cell_formula_units_Z 96
_cell_length_a 28.566623
_cell_length_b 19.039050
_cell_length_c 8.645000
_cell_angle_alpha 90.000000
_cell_angle_beta 90.000000
_cell_angle_gamma 90.000000
_cell_volume 4701.854389
_symmetry_space_group_name_H-M "I B A M"
_symmetry_group_IT_number 72
_symmetry_cell_setting 'orthorhombic'
loop_
_space_group_symop_operation_xyz
x,y,z
-x,-y,z
x,-y,1/2-z
-x,y,1/2-z
-x,-y,-z
x,y,-z
-x,y,1/2+z
x,-y,1/2+z
1/2+x,1/2+y,1/2+z
1/2-x,1/2-y,1/2+z
1/2+x,1/2-y,-z
1/2-x,1/2+y,-z
1/2-x,1/2-y,1/2-z
1/2+x,1/2+y,1/2-z
1/2-x,1/2+y,z
1/2+x,1/2-y,z
loop_
_atom_site_type_symbol
_atom_site_label
_atom_site_fract_x
_atom_site_fract_y
_atom_site_fract_z
Si Si1 0.281529 0.077129 0.320432
Si Si2 0.139614 0.930468 0.180056
Si Si3 0.047665 0.897867 0.678691
Si Si4 0.202704 0.825442 0.678843
Si Si5 0.850692 0.691629 0.817775
Si Si6 0.048314 0.268186 0.823494
O O1 0.275817 0.065406 0.500000
O O2 0.242040 0.132823 0.272562
O O3 0.331596 0.113414 0.279358
O O4 0.277505 0.000000 0.250000
O O5 0.084495 0.935336 0.208500
O O6 0.154794 0.866411 0.288799
O O7 0.164530 0.000000 0.250000
O O8 0.152493 0.921048 0.000000
O O9 0.054205 0.920223 0.500000
O O10 0.050708 0.814542 0.697896
O O11 0.000000 0.926467 0.750000
O O12 0.216919 0.825115 0.500000
O O13 0.189554 0.747114 0.741953
O O14 0.903241 0.700636 0.746989
O O15 0.854561 0.706414 0.000000
O O16 0.000000 0.298161 0.750000
O O17 0.046121 0.291849 0.000000
#
# Coordination Sequence:
#
# PCOD8293574 Si02
#       6
#    16  16  16  16  16  16
#     4  11  23  40  60  86 118 155 193 236 289 347
#     4  12  24  37  53  76 107 148 194 238 287 341
#     4  10  19  34  54  76 107 143 186 235 290 343
#     4  11  21  39  61  84 113 149 191 240 289 339
#     4   9  19  37  62  87 117 153 191 236 288 339
#     4   9  17  33  56  85 116 148 183 231 285 339
#
# _framework density 20.417475
#
# number of rings (size 3 to 8) (size 9 to 14) (size 15 to 20)
#    0.000    1.667    1.667    4.000    0.000    1.000 
#    0.000    5.833    0.000    0.500    0.000    3.500 
#    0.000    0.000    0.000    0.000    0.000    0.000 
#
# Total GULP energy -594754.386283 kJ/mol
# GULP energy per Si atom -12390.716381 kJ/mol
# Density = 2.037100 g / cm^3
# Si number density = 20.417475 Si / 1000 Ang^3
#
#
#
# Elastic Constant Matrix: (Units=GPa)
#
#
# Indices 1 2 3 4 5 6 
#
# 1 105.2992 56.1600 26.0019 0.0000 0.0000 0.0000
# 2 56.1600 90.9973 29.9094 0.0000 0.0000 0.0000
# 3 26.0019 29.9094 70.0348 0.0000 0.0000 0.0000
# 4 0.0000 0.0000 0.0000 16.7687 0.0000 0.0000
# 5 0.0000 0.0000 0.0000 0.0000 28.9946 0.0000
# 6 0.0000 0.0000 0.0000 0.0000 0.0000 5.7596
#
#
#
# Elastic Compliance Matrix: (Units=1/GPa)
#
#
# Indices 1 2 3 4 5 6 
#
# 1 0.014348 -0.008264 -0.001798 0.000000 0.000000 0.000000
# 2 -0.008264 0.017544 -0.004424 0.000000 0.000000 0.000000
# 3 -0.001798 -0.004424 0.016835 0.000000 0.000000 0.000000
# 4 0.000000 0.000000 0.000000 0.059635 0.000000 0.000000
# 5 0.000000 0.000000 0.000000 0.000000 0.034489 0.000000
# 6 0.000000 0.000000 0.000000 0.000000 0.000000 0.173623
#
#
# Mechanical properties :
#
#
# Convention : Reuss Voigt Hill
#
# Bulk Modulus (GPa) = 50.61907 54.49708 52.55808
# Shear Modulus (GPa) = 14.20324 20.58859 17.39591
#
# Velocity S-wave (km/s) = 2.64036 3.17895 2.92209
# Velocity P-wave (km/s) = 5.84305 6.34221 6.09774
#
# Compressibility (1/GPa) = 0.01975540
#
# Stress axis : x y z
#
# Youngs Moduli (GPa) = 69.69440 56.99988 59.39863
#
# Poissons Ratio (x) = 0.47107 0.10678
# Poissons Ratio (y) = 0.57598 0.26278
# Poissons Ratio (z) = 0.12529 0.25217
#
# Static dielectric constant tensor:
#      x y z
#    x 4.051010 0.000000 0.000000 
#    y 0.000000 3.702760 0.000000 
#    z 0.000000 0.000000 3.483870 
# 
# 
# High freq. dielectric constant tensor:
#      x y z
#    x 1.809770 0.000000 0.000000 
#    y 0.000000 1.779090 0.000000 
#    z 0.000000 0.000000 1.781280 
# 
# From -- ./inp_files/6018.got.cif
#   From: 2010.03.12/outbox.cif.g09.slc.cpg/sg72_4_cif.got.tgz:6018.got - 2010.04.16 14:54:00.
