data_PCOD8293508
_publ_section_title
;
Structure prediction by ZEFSAII (Michael W. Deem and Ramdas Pophale) SiO2 
 PCOD8293508
Probable space group: I B A M
;
_chemical_formula_sum "Si O2"
_cell_formula_units_Z 96
_cell_length_a 9.667984
_cell_length_b 21.204322
_cell_length_c 25.310769
_cell_angle_alpha 90.000000
_cell_angle_beta 90.000000
_cell_angle_gamma 90.000000
_cell_volume 5188.784737
_symmetry_space_group_name_H-M "I B A M"
_symmetry_group_IT_number 72
_symmetry_cell_setting 'orthorhombic'
loop_
_space_group_symop_operation_xyz
x,y,z
-x,-y,z
x,-y,1/2-z
-x,y,1/2-z
-x,-y,-z
x,y,-z
-x,y,1/2+z
x,-y,1/2+z
1/2+x,1/2+y,1/2+z
1/2-x,1/2-y,1/2+z
1/2+x,1/2-y,-z
1/2-x,1/2+y,-z
1/2-x,1/2-y,1/2-z
1/2+x,1/2+y,1/2-z
1/2-x,1/2+y,z
1/2+x,1/2-y,z
loop_
_atom_site_type_symbol
_atom_site_label
_atom_site_fract_x
_atom_site_fract_y
_atom_site_fract_z
Si Si1 0.262341 0.363887 0.873370
Si Si2 0.029650 0.686237 0.873962
Si Si3 0.522501 0.698142 0.939934
Si Si4 0.240779 0.118207 0.940481
Si Si5 0.872652 0.777050 0.714835
Si Si6 0.843350 0.019309 0.939892
O O1 0.097445 0.361422 0.866132
O O2 0.324976 0.318417 0.918428
O O3 0.329393 0.339390 0.818373
O O4 0.298630 0.434513 0.892384
O O5 0.966067 0.739892 0.911466
O O6 0.157472 0.649669 0.899095
O O7 0.079514 0.717493 0.819906
O O8 0.416568 0.640751 0.929386
O O9 0.540166 0.715556 0.000000
O O10 0.250141 0.043068 0.934320
O O11 0.283138 0.138312 0.000000
O O12 0.750000 0.750000 0.750000
O O13 0.000000 0.800520 0.750000
O O14 0.825353 0.047897 0.000000
O O15 0.000000 0.000000 0.931027
#
# Coordination Sequence:
#
# PCOD8293508 Si02
#       6
#    16  16  16  16  16  16
#     4  11  22  36  59  87 114 156 202 245 298 357
#     4  11  23  35  56  91 118 151 195 252 313 362
#     4  10  19  33  54  83 121 159 194 238 295 358
#     4  10  21  36  56  86 126 165 199 240 286 356
#     4  11  23  42  64  90 116 149 197 258 319 371
#     4  10  20  37  60  86 122 170 209 236 281 357
#
# _framework density 18.501442999999998
#
# number of rings (size 3 to 8) (size 9 to 14) (size 15 to 20)
#    0.000    1.500    3.333    3.000    2.333    4.667 
#    0.000    1.667    0.000    3.500    0.000    0.000 
#    0.000    0.000    0.000    0.000    0.000    0.000 
#
# Total GULP energy -594998.675176 kJ/mol
# GULP energy per Si atom -12395.805733 kJ/mol
# Density = 1.845933 g / cm^3
# Si number density = 18.501443 Si / 1000 Ang^3
#
#
#
# Elastic Constant Matrix: (Units=GPa)
#
#
# Indices 1 2 3 4 5 6 
#
# 1 92.1006 24.2996 52.1943 0.0000 0.0000 0.0000
# 2 24.2996 90.2552 49.5997 0.0000 0.0000 0.0000
# 3 52.1943 49.5997 120.5647 0.0000 0.0000 0.0000
# 4 0.0000 0.0000 0.0000 36.3518 0.0000 0.0000
# 5 0.0000 0.0000 0.0000 0.0000 30.9227 0.0000
# 6 0.0000 0.0000 0.0000 0.0000 0.0000 20.7017
#
#
#
# Elastic Compliance Matrix: (Units=1/GPa)
#
#
# Indices 1 2 3 4 5 6 
#
# 1 0.014411 -0.000583 -0.005999 0.000000 0.000000 0.000000
# 2 -0.000583 0.014340 -0.005647 0.000000 0.000000 0.000000
# 3 -0.005999 -0.005647 0.013214 0.000000 0.000000 0.000000
# 4 0.000000 0.000000 0.000000 0.027509 0.000000 0.000000
# 5 0.000000 0.000000 0.000000 0.000000 0.032339 0.000000
# 6 0.000000 0.000000 0.000000 0.000000 0.000000 0.048305
#
#
# Mechanical properties :
#
#
# Convention : Reuss Voigt Hill
#
# Bulk Modulus (GPa) = 57.11834 61.67863 59.39848
# Shear Modulus (GPa) = 27.71430 29.38370 28.54900
#
# Velocity S-wave (km/s) = 3.87454 3.98953 3.93245
# Velocity P-wave (km/s) = 7.13831 7.39130 7.26591
#
# Compressibility (1/GPa) = 0.01750751
#
# Stress axis : x y z
#
# Youngs Moduli (GPa) = 69.39046 69.73509 75.67501
#
# Poissons Ratio (x) = 0.04068 0.45396
# Poissons Ratio (y) = 0.04047 0.42733
# Poissons Ratio (z) = 0.41626 0.39379
#
# Static dielectric constant tensor:
#      x y z
#    x 3.365440 0.000000 0.000000 
#    y 0.000000 3.588390 0.000000 
#    z 0.000000 0.000000 3.447940 
# 
# 
# High freq. dielectric constant tensor:
#      x y z
#    x 1.723160 0.000000 0.000000 
#    y 0.000000 1.707000 0.000000 
#    z 0.000000 0.000000 1.709600 
# 
# From -- ./inp_files/42400.got.cif
#   From: 2010.03.12/outbox.cif.g09.slc.cpg/sg72_22_cif.got.tgz:42400.got - 2010.04.16 14:54:00.
