data_PCOD8293954
_publ_section_title
;
Structure prediction by ZEFSAII (Michael W. Deem and Ramdas Pophale) SiO2 
 PCOD8293954
Probable space group: I B A M
;
_chemical_formula_sum "Si O2"
_cell_formula_units_Z 96
_cell_length_a 22.108768
_cell_length_b 14.623759
_cell_length_c 14.951578
_cell_angle_alpha 90.000000
_cell_angle_beta 90.000000
_cell_angle_gamma 90.000000
_cell_volume 4834.043949
_symmetry_space_group_name_H-M "I B A M"
_symmetry_group_IT_number 72
_symmetry_cell_setting 'orthorhombic'
loop_
_space_group_symop_operation_xyz
x,y,z
-x,-y,z
x,-y,1/2-z
-x,y,1/2-z
-x,-y,-z
x,y,-z
-x,y,1/2+z
x,-y,1/2+z
1/2+x,1/2+y,1/2+z
1/2-x,1/2-y,1/2+z
1/2+x,1/2-y,-z
1/2-x,1/2+y,-z
1/2-x,1/2-y,1/2-z
1/2+x,1/2+y,1/2-z
1/2-x,1/2+y,z
1/2+x,1/2-y,z
loop_
_atom_site_type_symbol
_atom_site_label
_atom_site_fract_x
_atom_site_fract_y
_atom_site_fract_z
Si Si1 0.654616 0.705264 0.000000
Si Si2 0.752476 0.947909 0.664503
Si Si3 0.610337 0.316272 0.000000
Si Si4 0.480560 0.763372 0.500000
Si Si5 0.313544 0.506955 0.000000
Si Si6 0.516269 0.101759 0.851572
Si Si7 0.857529 0.681228 0.150130
Si Si8 0.690136 0.724342 0.193717
O O1 0.582141 0.710306 0.000000
O O2 0.665502 0.597443 0.000000
O O3 0.684109 0.753382 0.911483
O O4 0.702671 0.876484 0.628070
O O5 0.811229 0.887058 0.694545
O O6 0.725258 0.000000 0.750000
O O7 0.771717 0.020477 0.588334
O O8 0.639507 0.267920 0.085493
O O9 0.537136 0.307750 0.000000
O O10 0.630505 0.422503 0.000000
O O11 0.481274 0.826056 0.587813
O O12 0.500000 0.121613 0.750000
O O13 0.587814 0.111925 0.865877
O O14 0.500000 0.000000 0.882159
O O15 0.862222 0.724350 0.250546
O O16 0.750000 0.750000 0.250000
#
# Coordination Sequence:
#
# PCOD8293954 Si02
#       8
#     8  16   8   8   8  16  16  16
#     4  10  20  37  60  83 118 147 192 251 290 345
#     4  10  20  34  56  81 114 143 190 239 292 345
#     4  10  21  37  60  81 114 157 197 237 294 345
#     4  10  21  38  57  85 113 152 199 244 291 346
#     4  10  21  38  57  83 110 148 186 244 297 345
#     4  10  21  35  57  80 115 156 196 237 285 341
#     4  10  20  36  57  80 117 153 194 238 285 349
#     4   9  19  35  56  82 113 153 190 234 291 346
#
# _framework density 19.859148000000001
#
# number of rings (size 3 to 8) (size 9 to 14) (size 15 to 20)
#    0.000    2.167    0.000    2.750    2.333    2.333 
#    0.000    3.333    0.000    0.000    0.000    4.667 
#    0.000    0.000    0.000    0.000    0.000    0.167 
#
# Total GULP energy -594748.807212 kJ/mol
# GULP energy per Si atom -12390.600150 kJ/mol
# Density = 1.981395 g / cm^3
# Si number density = 19.859148 Si / 1000 Ang^3
#
#
#
# Elastic Constant Matrix: (Units=GPa)
#
#
# Indices 1 2 3 4 5 6 
#
# 1 88.6694 33.2236 41.2171 0.0000 0.0000 0.0000
# 2 33.2236 68.6008 37.9733 0.0000 0.0000 0.0000
# 3 41.2171 37.9733 149.8344 0.0000 0.0000 0.0000
# 4 0.0000 0.0000 0.0000 23.0498 0.0000 0.0000
# 5 0.0000 0.0000 0.0000 0.0000 26.7123 0.0000
# 6 0.0000 0.0000 0.0000 0.0000 0.0000 34.2355
#
#
#
# Elastic Compliance Matrix: (Units=1/GPa)
#
#
# Indices 1 2 3 4 5 6 
#
# 1 0.014591 -0.005635 -0.002586 0.000000 0.000000 0.000000
# 2 -0.005635 0.019132 -0.003299 0.000000 0.000000 0.000000
# 3 -0.002586 -0.003299 0.008221 0.000000 0.000000 0.000000
# 4 0.000000 0.000000 0.000000 0.043384 0.000000 0.000000
# 5 0.000000 0.000000 0.000000 0.000000 0.037436 0.000000
# 6 0.000000 0.000000 0.000000 0.000000 0.000000 0.029209
#
#
# Mechanical properties :
#
#
# Convention : Reuss Voigt Hill
#
# Bulk Modulus (GPa) = 52.89427 59.10360 55.99894
# Shear Modulus (GPa) = 27.57626 29.77890 28.67758
#
# Velocity S-wave (km/s) = 3.73042 3.87655 3.80419
# Velocity P-wave (km/s) = 6.72661 7.06136 6.89602
#
# Compressibility (1/GPa) = 0.01890564
#
# Stress axis : x y z
#
# Youngs Moduli (GPa) = 68.53417 52.26790 121.63555
#
# Poissons Ratio (x) = 0.29455 0.31451
# Poissons Ratio (y) = 0.38621 0.40122
# Poissons Ratio (z) = 0.17720 0.17241
#
# Static dielectric constant tensor:
#      x y z
#    x 3.574140 0.000000 0.000000 
#    y 0.000000 3.537320 0.000000 
#    z 0.000000 0.000000 4.478000 
# 
# 
# High freq. dielectric constant tensor:
#      x y z
#    x 1.756230 0.000000 0.000000 
#    y 0.000000 1.762580 0.000000 
#    z 0.000000 0.000000 1.796040 
# 
# From -- ./inp_files/25159.got.cif
#   From: 2010.03.12/outbox.cif.g09.slc.cpg/sg72_13_cif.got.tgz:25159.got - 2010.04.16 14:54:00.
