data_PCOD8293460
_publ_section_title
;
Structure prediction by ZEFSAII (Michael W. Deem and Ramdas Pophale) SiO2 
 PCOD8293460
Probable space group: I B A M
;
_chemical_formula_sum "Si O2"
_cell_formula_units_Z 96
_cell_length_a 24.285672
_cell_length_b 8.501018
_cell_length_c 25.683392
_cell_angle_alpha 90.000000
_cell_angle_beta 90.000000
_cell_angle_gamma 90.000000
_cell_volume 5302.411654
_symmetry_space_group_name_H-M "I B A M"
_symmetry_group_IT_number 72
_symmetry_cell_setting 'orthorhombic'
loop_
_space_group_symop_operation_xyz
x,y,z
-x,-y,z
x,-y,1/2-z
-x,y,1/2-z
-x,-y,-z
x,y,-z
-x,y,1/2+z
x,-y,1/2+z
1/2+x,1/2+y,1/2+z
1/2-x,1/2-y,1/2+z
1/2+x,1/2-y,-z
1/2-x,1/2+y,-z
1/2-x,1/2-y,1/2-z
1/2+x,1/2+y,1/2-z
1/2-x,1/2+y,z
1/2+x,1/2-y,z
loop_
_atom_site_type_symbol
_atom_site_label
_atom_site_fract_x
_atom_site_fract_y
_atom_site_fract_z
Si Si1 0.230180 0.395684 0.201979
Si Si2 0.861876 0.823577 0.842826
Si Si3 0.814448 0.710597 0.058788
Si Si4 0.060825 0.186399 0.755662
Si Si5 0.287102 0.101073 0.895754
Si Si6 0.653949 0.683955 0.822068
O O1 0.208214 0.500000 0.250000
O O2 0.188840 0.256658 0.187323
O O3 0.240490 0.504612 0.151443
O O4 0.290079 0.316912 0.213825
O O5 0.863346 0.769167 0.903075
O O6 0.917344 0.768656 0.813247
O O7 0.858859 0.010298 0.841506
O O8 0.757173 0.787647 0.076928
O O9 0.810231 0.521333 0.061815
O O10 0.828615 0.760568 0.000000
O O11 0.103417 0.252208 0.712163
O O12 0.000000 0.261381 0.750000
O O13 0.058420 0.000000 0.750000
O O14 0.337191 0.205194 0.872412
#
# Coordination Sequence:
#
# PCOD8293460 Si02
#       6
#    16  16  16  16  16  16
#     4  11  19  28  47  78 108 138 162 198 252 318
#     4  10  19  33  50  75 107 137 172 205 249 305
#     4  11  21  34  49  71 102 137 173 213 256 299
#     4   9  19  32  51  79 107 135 167 206 252 302
#     4  11  20  32  47  73 104 137 170 207 252 312
#     4  11  18  30  51  74 106 138 166 203 256 309
#
# _framework density 18.104970000000002
#
# number of rings (size 3 to 8) (size 9 to 14) (size 15 to 20)
#    0.000    1.500    5.000    3.000    0.000    2.000 
#    0.000    0.833    0.000   12.500    0.000   12.833 
#    0.000    0.000    0.000    0.000    0.000    0.000 
#
# Total GULP energy -594964.247845 kJ/mol
# GULP energy per Si atom -12395.088497 kJ/mol
# Density = 1.806376 g / cm^3
# Si number density = 18.104970 Si / 1000 Ang^3
#
#
#
# Elastic Constant Matrix: (Units=GPa)
#
#
# Indices 1 2 3 4 5 6 
#
# 1 113.9838 25.4998 53.7611 0.0000 0.0000 0.0000
# 2 25.4998 69.4472 31.1205 0.0000 0.0000 0.0000
# 3 53.7611 31.1205 139.7989 0.0000 0.0000 0.0000
# 4 0.0000 0.0000 0.0000 22.8687 0.0000 0.0000
# 5 0.0000 0.0000 0.0000 0.0000 14.0988 0.0000
# 6 0.0000 0.0000 0.0000 0.0000 0.0000 11.8542
#
#
#
# Elastic Compliance Matrix: (Units=1/GPa)
#
#
# Indices 1 2 3 4 5 6 
#
# 1 0.011064 -0.002395 -0.003722 0.000000 0.000000 0.000000
# 2 -0.002395 0.016513 -0.002755 0.000000 0.000000 0.000000
# 3 -0.003722 -0.002755 0.009198 0.000000 0.000000 0.000000
# 4 0.000000 0.000000 0.000000 0.043728 0.000000 0.000000
# 5 0.000000 0.000000 0.000000 0.000000 0.070928 0.000000
# 6 0.000000 0.000000 0.000000 0.000000 0.000000 0.084358
#
#
# Mechanical properties :
#
#
# Convention : Reuss Voigt Hill
#
# Bulk Modulus (GPa) = 52.54306 60.44362 56.49334
# Shear Modulus (GPa) = 19.23988 23.95423 21.59706
#
# Velocity S-wave (km/s) = 3.26342 3.64136 3.45756
# Velocity P-wave (km/s) = 6.57908 7.15100 6.87099
#
# Compressibility (1/GPa) = 0.01903201
#
# Stress axis : x y z
#
# Youngs Moduli (GPa) = 90.38040 60.55700 108.72296
#
# Poissons Ratio (x) = 0.14502 0.40464
# Poissons Ratio (y) = 0.21645 0.29954
# Poissons Ratio (z) = 0.33638 0.16684
#
# Static dielectric constant tensor:
#      x y z
#    x 3.326910 0.000000 0.000000 
#    y 0.000000 3.535630 0.000000 
#    z 0.000000 0.000000 3.432790 
# 
# 
# High freq. dielectric constant tensor:
#      x y z
#    x 1.652250 0.000000 0.000000 
#    y 0.000000 1.712980 0.000000 
#    z 0.000000 0.000000 1.687660 
# 
# From -- ./inp_files/47486.got.cif
#   From: 2010.03.12/outbox.cif.g09.slc.cpg/sg72_24_cif.got.tgz:47486.got - 2010.04.16 14:54:00.
