data_PCOD8293593
_publ_section_title
;
Structure prediction by ZEFSAII (Michael W. Deem and Ramdas Pophale) SiO2 
 PCOD8293593
Probable space group: I B A M
;
_chemical_formula_sum "Si O2"
_cell_formula_units_Z 108
_cell_length_a 12.265284
_cell_length_b 20.331077
_cell_length_c 23.865897
_cell_angle_alpha 90.000000
_cell_angle_beta 90.000000
_cell_angle_gamma 90.000000
_cell_volume 5951.353616
_symmetry_space_group_name_H-M "I B A M"
_symmetry_group_IT_number 72
_symmetry_cell_setting 'orthorhombic'
loop_
_space_group_symop_operation_xyz
x,y,z
-x,-y,z
x,-y,1/2-z
-x,y,1/2-z
-x,-y,-z
x,y,-z
-x,y,1/2+z
x,-y,1/2+z
1/2+x,1/2+y,1/2+z
1/2-x,1/2-y,1/2+z
1/2+x,1/2-y,-z
1/2-x,1/2+y,-z
1/2-x,1/2-y,1/2-z
1/2+x,1/2+y,1/2-z
1/2-x,1/2+y,z
1/2+x,1/2-y,z
loop_
_atom_site_type_symbol
_atom_site_label
_atom_site_fract_x
_atom_site_fract_y
_atom_site_fract_z
Si Si1 0.077038 0.274378 0.798421
Si Si2 0.746600 0.306343 0.142478
Si Si3 0.000000 0.000000 0.370932
Si Si4 0.394952 0.404446 0.210570
Si Si5 0.423554 0.623546 0.064891
Si Si6 0.166030 0.393325 0.266422
Si Si7 0.420656 0.289107 0.874497
Si Si8 0.000000 0.500000 0.250000
O O1 0.179652 0.226029 0.805963
O O2 0.112730 0.348845 0.783439
O O3 0.000000 0.245177 0.750000
O O4 0.009085 0.266703 0.856224
O O5 0.676748 0.345094 0.097687
O O6 0.828945 0.353890 0.175394
O O7 0.811863 0.250105 0.108004
O O8 0.938736 0.051031 0.411008
O O9 0.091397 0.035216 0.332817
O O10 0.500000 0.403690 0.250000
O O11 0.285361 0.417247 0.246352
O O12 0.389826 0.336377 0.177109
O O13 0.531655 0.668172 0.074193
O O14 0.395005 0.619587 0.000000
O O15 0.084620 0.452939 0.283176
#
# Coordination Sequence:
#
# PCOD8293593 Si02
#       8
#    16  16   8  16  16  16  16   4
#     4  11  18  32  53  82 116 149 181 210 266 334
#     4  11  21  34  59  82 109 151 186 225 275 346
#     4  10  22  40  56  78 104 148 190 238 290 328
#     4  11  22  33  56  85 116 149 186 227 268 337
#     4  10  23  39  58  81 104 139 193 253 295 323
#     4  12  22  35  51  80 125 155 184 212 263 339
#     4  10  19  34  55  84 111 143 183 223 282 337
#     4  12  28  32  46  80 126 164 176 208 260 324
#
# _framework density 18.147131999999999
#
# number of rings (size 3 to 8) (size 9 to 14) (size 15 to 20)
#    0.000    1.185    3.704    4.889    4.148    0.593 
#    0.000    0.000    0.000    0.000    0.000    0.519 
#    0.000    0.000    0.000    0.000    0.000    0.000 
#
# Total GULP energy -669202.446250 kJ/mol
# GULP energy per Si atom -12392.637894 kJ/mol
# Density = 1.810583 g / cm^3
# Si number density = 18.147132 Si / 1000 Ang^3
#
#
#
# Elastic Constant Matrix: (Units=GPa)
#
#
# Indices 1 2 3 4 5 6 
#
# 1 98.2923 62.8515 24.3385 0.0000 0.0000 0.0000
# 2 62.8515 121.3199 48.0329 0.0000 0.0000 0.0000
# 3 24.3385 48.0329 71.4205 0.0000 0.0000 0.0000
# 4 0.0000 0.0000 0.0000 12.4406 0.0000 0.0000
# 5 0.0000 0.0000 0.0000 0.0000 11.9059 0.0000
# 6 0.0000 0.0000 0.0000 0.0000 0.0000 40.7120
#
#
#
# Elastic Compliance Matrix: (Units=1/GPa)
#
#
# Indices 1 2 3 4 5 6 
#
# 1 0.015215 -0.007945 0.000158 0.000000 0.000000 0.000000
# 2 -0.007945 0.015383 -0.007638 0.000000 0.000000 0.000000
# 3 0.000158 -0.007638 0.019084 0.000000 0.000000 0.000000
# 4 0.000000 0.000000 0.000000 0.080382 0.000000 0.000000
# 5 0.000000 0.000000 0.000000 0.000000 0.083992 0.000000
# 6 0.000000 0.000000 0.000000 0.000000 0.000000 0.024563
#
#
# Mechanical properties :
#
#
# Convention : Reuss Voigt Hill
#
# Bulk Modulus (GPa) = 53.09862 62.38650 57.74256
# Shear Modulus (GPa) = 18.13265 23.39901 20.76583
#
# Velocity S-wave (km/s) = 3.16445 3.59473 3.38643
# Velocity P-wave (km/s) = 6.53263 7.18903 6.86868
#
# Compressibility (1/GPa) = 0.01883288
#
# Stress axis : x y z
#
# Youngs Moduli (GPa) = 65.72551 65.00819 52.39887
#
# Poissons Ratio (x) = 0.51649 -0.00830
# Poissons Ratio (y) = 0.52219 0.40022
# Poissons Ratio (z) = -0.01041 0.49653
#
# Static dielectric constant tensor:
#      x y z
#    x 3.590880 0.000000 0.000000 
#    y 0.000000 3.604380 0.000000 
#    z 0.000000 0.000000 2.945020 
# 
# 
# High freq. dielectric constant tensor:
#      x y z
#    x 1.714160 0.000000 0.000000 
#    y 0.000000 1.716120 0.000000 
#    z 0.000000 0.000000 1.651390 
# 
# From -- ./inp_files/43566.got.cif
#   From: 2010.03.12/outbox.cif.g09.slc.cpg/sg72_22_cif.got.tgz:43566.got - 2010.04.16 14:54:00.
