data_PCOD8293510
_publ_section_title
;
Structure prediction by ZEFSAII (Michael W. Deem and Ramdas Pophale) SiO2 
 PCOD8293510
Probable space group: I B A M
;
_chemical_formula_sum "Si O2"
_cell_formula_units_Z 88
_cell_length_a 4.957696
_cell_length_b 29.007531
_cell_length_c 31.615468
_cell_angle_alpha 90.000000
_cell_angle_beta 90.000000
_cell_angle_gamma 90.000000
_cell_volume 4546.636906
_symmetry_space_group_name_H-M "I B A M"
_symmetry_group_IT_number 72
_symmetry_cell_setting 'orthorhombic'
loop_
_space_group_symop_operation_xyz
x,y,z
-x,-y,z
x,-y,1/2-z
-x,y,1/2-z
-x,-y,-z
x,y,-z
-x,y,1/2+z
x,-y,1/2+z
1/2+x,1/2+y,1/2+z
1/2-x,1/2-y,1/2+z
1/2+x,1/2-y,-z
1/2-x,1/2+y,-z
1/2-x,1/2-y,1/2-z
1/2+x,1/2+y,1/2-z
1/2-x,1/2+y,z
1/2+x,1/2-y,z
loop_
_atom_site_type_symbol
_atom_site_label
_atom_site_fract_x
_atom_site_fract_y
_atom_site_fract_z
Si Si1 0.472377 0.352903 0.425771
Si Si2 0.926638 0.547052 0.370407
Si Si3 0.073176 0.952498 0.926062
Si Si4 0.462585 0.219715 0.702880
Si Si5 0.441920 0.281767 0.000000
Si Si6 0.471891 0.145652 0.367668
O O1 0.511884 0.403270 0.448777
O O2 0.517001 0.312375 0.458678
O O3 0.172949 0.348072 0.407233
O O4 0.673809 0.347659 0.386158
O O5 0.614413 0.546448 0.383829
O O6 0.993438 0.594746 0.346355
O O7 0.000000 0.500000 0.344126
O O8 0.114256 0.546178 0.412833
O O9 0.000000 0.000000 0.952245
O O10 0.500000 0.199067 0.750000
O O11 0.157704 0.236564 0.696260
O O12 0.535189 0.181172 0.669109
O O13 0.641663 0.238345 0.000000
#
# Coordination Sequence:
#
# PCOD8293510 Si02
#       6
#    16  16  16  16   8  16
#     4  10  21  35  52  75  98 129 170 202 239 293
#     4   8  14  25  44  71  98 123 153 191 235 283
#     4   8  14  27  47  70  95 120 152 197 243 284
#     4  10  21  35  51  74 102 128 159 206 255 290
#     4  12  26  40  51  68 101 136 166 210 254 280
#     4  10  19  33  55  76  97 129 167 201 237 295
#
# _framework density 19.354965
#
# number of rings (size 3 to 8) (size 9 to 14) (size 15 to 20)
#    0.000    2.545    0.000    2.182    0.000    4.364 
#    0.000    0.455    0.000    0.545    0.000   14.000 
#    0.000   18.909    0.000    0.000    0.000    2.909 
#
# Total GULP energy -545115.591542 kJ/mol
# GULP energy per Si atom -12388.990717 kJ/mol
# Density = 1.931091 g / cm^3
# Si number density = 19.354965 Si / 1000 Ang^3
#
#
#
# Elastic Constant Matrix: (Units=GPa)
#
#
# Indices 1 2 3 4 5 6 
#
# 1 71.1142 1.4328 2.6504 0.0000 0.0000 0.0000
# 2 1.4328 133.8222 49.6836 0.0000 0.0000 0.0000
# 3 2.6504 49.6836 51.8563 0.0000 0.0000 0.0000
# 4 0.0000 0.0000 0.0000 -12.6210 0.0000 0.0000
# 5 0.0000 0.0000 0.0000 0.0000 13.6644 0.0000
# 6 0.0000 0.0000 0.0000 0.0000 0.0000 28.5550
#
#
#
# Elastic Compliance Matrix: (Units=1/GPa)
#
#
# Indices 1 2 3 4 5 6 
#
# 1 0.014092 0.000181 -0.000893 0.000000 0.000000 0.000000
# 2 0.000181 0.011601 -0.011124 0.000000 0.000000 0.000000
# 3 -0.000893 -0.011124 0.029987 0.000000 0.000000 0.000000
# 4 0.000000 0.000000 0.000000 -0.079233 0.000000 0.000000
# 5 0.000000 0.000000 0.000000 0.000000 0.073183 0.000000
# 6 0.000000 0.000000 0.000000 0.000000 0.000000 0.035020
#
#
# Mechanical properties :
#
#
# Convention : Reuss Voigt Hill
#
# Bulk Modulus (GPa) = 31.24342 40.48067 35.86205
# Shear Modulus (GPa) = 42.01980 19.45473 30.73726
#
# Velocity S-wave (km/s) = 4.66446 3.17386 3.98940
# Velocity P-wave (km/s) = 6.72213 5.86442 6.30787
#
# Compressibility (1/GPa) = 0.03200673
#
# Stress axis : x y z
#
# Youngs Moduli (GPa) = 70.96451 86.20301 33.34737
#
# Poissons Ratio (x) = -0.01559 0.02980
# Poissons Ratio (y) = -0.01283 0.37095
# Poissons Ratio (z) = 0.06341 0.95890
#
# Static dielectric constant tensor:
#      x y z
#    x 3.670220 0.000000 0.000000 
#    y 0.000000 4.054120 0.000000 
#    z 0.000000 0.000000 2.860690 
# 
# 
# High freq. dielectric constant tensor:
#      x y z
#    x 1.779010 0.000000 0.000000 
#    y 0.000000 1.781300 0.000000 
#    z 0.000000 0.000000 1.670100 
# 
# From -- ./inp_files/50377.got.cif
#   From: 2010.03.12/outbox.cif.g09.slc.cpg/sg72_26_cif.got.tgz:50377.got - 2010.04.16 14:54:00.
