data_PCOD8293580
_publ_section_title
;
Structure prediction by ZEFSAII (Michael W. Deem and Ramdas Pophale) SiO2 
 PCOD8293580
Probable space group: I B A M
;
_chemical_formula_sum "Si O2"
_cell_formula_units_Z 72
_cell_length_a 16.338637
_cell_length_b 24.807850
_cell_length_c 8.934099
_cell_angle_alpha 90.000000
_cell_angle_beta 90.000000
_cell_angle_gamma 90.000000
_cell_volume 3621.226684
_symmetry_space_group_name_H-M "I B A M"
_symmetry_group_IT_number 72
_symmetry_cell_setting 'orthorhombic'
loop_
_space_group_symop_operation_xyz
x,y,z
-x,-y,z
x,-y,1/2-z
-x,y,1/2-z
-x,-y,-z
x,y,-z
-x,y,1/2+z
x,-y,1/2+z
1/2+x,1/2+y,1/2+z
1/2-x,1/2-y,1/2+z
1/2+x,1/2-y,-z
1/2-x,1/2+y,-z
1/2-x,1/2-y,1/2-z
1/2+x,1/2+y,1/2-z
1/2-x,1/2+y,z
1/2+x,1/2-y,z
loop_
_atom_site_type_symbol
_atom_site_label
_atom_site_fract_x
_atom_site_fract_y
_atom_site_fract_z
Si Si1 0.000000 0.132259 0.250000
Si Si2 0.915061 0.671274 0.679290
Si Si3 0.369980 0.713036 0.335747
Si Si4 0.741633 0.129769 0.179614
Si Si5 0.636168 0.446279 0.832317
O O1 0.945447 0.171435 0.147241
O O2 0.939731 0.094947 0.346609
O O3 0.920374 0.668909 0.500000
O O4 0.895312 0.731396 0.745761
O O5 0.846470 0.630863 0.742077
O O6 0.000000 0.651761 0.750000
O O7 0.342366 0.730678 0.500000
O O8 0.292573 0.682431 0.261250
O O9 0.788285 0.076768 0.236307
O O10 0.735125 0.128193 0.000000
O O11 0.605320 0.500000 0.750000
O O12 0.666113 0.459279 0.000000
#
# Coordination Sequence:
#
# PCOD8293580 Si02
#       5
#     8  16  16  16  16
#     4  10  19  34  54  84 120 158 193 230 278 334
#     4  11  21  35  55  82 114 150 192 235 285 339
#     4   9  18  32  51  78 114 153 191 230 275 333
#     4  10  21  38  57  80 111 148 192 240 290 340
#     4  11  23  38  59  84 114 152 195 242 291 342
#
# _framework density 19.882766
#
# number of rings (size 3 to 8) (size 9 to 14) (size 15 to 20)
#    0.000    1.778    1.111    3.667    0.000    3.556 
#    0.000    2.222    0.000    0.667    0.000    4.667 
#    0.000    0.000    0.000    0.000    0.000    0.000 
#
# Total GULP energy -446217.148349 kJ/mol
# GULP energy per Si atom -12394.920787 kJ/mol
# Density = 1.983751 g / cm^3
# Si number density = 19.882766 Si / 1000 Ang^3
#
#
#
# Elastic Constant Matrix: (Units=GPa)
#
#
# Indices 1 2 3 4 5 6 
#
# 1 128.6407 21.4062 33.7624 0.0000 0.0000 0.0000
# 2 21.4062 52.9002 17.6379 0.0000 0.0000 0.0000
# 3 33.7624 17.6379 108.1323 0.0005 0.0004 0.0001
# 4 0.0000 0.0000 0.0005 23.9739 0.0001 0.0000
# 5 0.0000 0.0000 0.0004 0.0001 26.7964 0.0000
# 6 0.0000 0.0000 0.0001 0.0000 0.0000 17.3173
#
#
#
# Elastic Compliance Matrix: (Units=1/GPa)
#
#
# Indices 1 2 3 4 5 6 
#
# 1 0.008846 -0.002812 -0.002303 0.000000 0.000000 0.000000
# 2 -0.002812 0.020884 -0.002529 0.000000 0.000000 0.000000
# 3 -0.002303 -0.002529 0.010380 0.000000 0.000000 0.000000
# 4 0.000000 0.000000 0.000000 0.041712 0.000000 0.000000
# 5 0.000000 0.000000 0.000000 0.000000 0.037318 0.000000
# 6 0.000000 0.000000 0.000000 0.000000 0.000000 0.057746
#
#
# Mechanical properties :
#
#
# Convention : Reuss Voigt Hill
#
# Bulk Modulus (GPa) = 40.28576 48.36513 44.32545
# Shear Modulus (GPa) = 24.94419 28.07530 26.50974
#
# Velocity S-wave (km/s) = 3.54582 3.76179 3.65540
# Velocity P-wave (km/s) = 6.08847 6.57617 6.33701
#
# Compressibility (1/GPa) = 0.02482267
#
# Stress axis : x y z
#
# Youngs Moduli (GPa) = 113.04567 47.88275 96.34295
#
# Poissons Ratio (x) = 0.13463 0.22192
# Poissons Ratio (y) = 0.31783 0.24362
# Poissons Ratio (z) = 0.26039 0.12108
#
# Static dielectric constant tensor:
#      x y z
#    x 3.592180 0.000000 0.000000 
#    y 0.000000 3.483060 0.000000 
#    z 0.000000 0.000000 3.330110 
# 
# 
# High freq. dielectric constant tensor:
#      x y z
#    x 1.773230 0.000000 0.000000 
#    y 0.000000 1.753530 0.000000 
#    z 0.000000 0.000000 1.765400 
# 
# From -- ./inp_files/3676.got.cif
#   From: 2010.03.12/outbox.cif.g09.slc.cpg/sg72_2_cif.got.tgz:3676.got - 2010.04.16 14:54:00.
