data_PCOD8293211
_publ_section_title
;
Structure prediction by ZEFSAII (Michael W. Deem and Ramdas Pophale) SiO2 
 PCOD8293211
Probable space group: I B A M
;
_chemical_formula_sum "Si O2"
_cell_formula_units_Z 104
_cell_length_a 19.944038
_cell_length_b 8.991708
_cell_length_c 28.795689
_cell_angle_alpha 90.000000
_cell_angle_beta 90.000000
_cell_angle_gamma 90.000000
_cell_volume 5163.958726
_symmetry_space_group_name_H-M "I B A M"
_symmetry_group_IT_number 72
_symmetry_cell_setting 'orthorhombic'
loop_
_space_group_symop_operation_xyz
x,y,z
-x,-y,z
x,-y,1/2-z
-x,y,1/2-z
-x,-y,-z
x,y,-z
-x,y,1/2+z
x,-y,1/2+z
1/2+x,1/2+y,1/2+z
1/2-x,1/2-y,1/2+z
1/2+x,1/2-y,-z
1/2-x,1/2+y,-z
1/2-x,1/2-y,1/2-z
1/2+x,1/2+y,1/2-z
1/2-x,1/2+y,z
1/2+x,1/2-y,z
loop_
_atom_site_type_symbol
_atom_site_label
_atom_site_fract_x
_atom_site_fract_y
_atom_site_fract_z
Si Si1 0.624919 0.054953 0.679788
Si Si2 0.230073 0.299088 0.000000
Si Si3 0.813747 0.255563 0.600512
Si Si4 0.153679 0.000000 0.250000
Si Si5 0.157359 0.597861 0.000000
Si Si6 0.422946 0.780358 0.763581
Si Si7 0.077558 0.502638 0.087796
Si Si8 0.771032 0.017126 0.156625
O O1 0.616204 0.179445 0.717373
O O2 0.702823 0.062985 0.669945
O O3 0.595798 0.894336 0.695746
O O4 0.584326 0.104082 0.633652
O O5 0.199210 0.224274 0.046214
O O6 0.309331 0.261008 0.000000
O O7 0.217108 0.475471 0.000000
O O8 0.884480 0.347282 0.602059
O O9 0.818400 0.097696 0.627549
O O10 0.750810 0.344935 0.623638
O O11 0.105479 0.881032 0.275487
O O12 0.196732 0.064491 0.293566
O O13 0.112939 0.581794 0.954750
O O14 0.500000 0.783181 0.750000
O O15 0.000000 0.500000 0.073922
#
# Coordination Sequence:
#
# PCOD8293211 Si02
#       8
#    16   8  16   8   8  16  16  16
#     4  10  20  35  58  75 101 138 180 230 266 316
#     4  10  18  36  56  82 110 138 172 226 284 312
#     4  10  21  35  57  84 112 140 181 229 273 332
#     4  12  23  34  52  74 115 146 170 230 276 316
#     4  10  21  32  56  84 109 138 176 220 268 328
#     4  11  22  36  52  76 103 144 188 219 265 327
#     4  10  19  34  54  81 109 141 178 221 266 318
#     4  11  22  36  54  86 110 139 185 225 280 325
#
# _framework density 20.139588
#
# number of rings (size 3 to 8) (size 9 to 14) (size 15 to 20)
#    0.000    1.538    0.000    8.769    0.000    1.846 
#    0.000    0.000    0.000    0.000    0.000   26.923 
#    0.000    0.000    0.000    0.000    0.000    0.000 
#
# Total GULP energy -644181.612146 kJ/mol
# GULP energy per Si atom -12388.107926 kJ/mol
# Density = 2.009375 g / cm^3
# Si number density = 20.139588 Si / 1000 Ang^3
#
#
#
# Elastic Constant Matrix: (Units=GPa)
#
#
# Indices 1 2 3 4 5 6 
#
# 1 96.0936 21.9646 20.0450 0.0000 0.0000 0.0000
# 2 21.9646 54.9112 16.5631 0.0000 0.0000 0.0000
# 3 20.0450 16.5631 142.2793 0.0000 0.0000 0.0000
# 4 0.0000 0.0000 0.0000 20.5940 0.0000 0.0000
# 5 0.0000 0.0000 0.0000 0.0000 41.1547 0.0000
# 6 0.0000 0.0000 0.0000 0.0000 0.0000 21.7926
#
#
#
# Elastic Compliance Matrix: (Units=1/GPa)
#
#
# Indices 1 2 3 4 5 6 
#
# 1 0.011628 -0.004309 -0.001137 0.000000 0.000000 0.000000
# 2 -0.004309 0.020470 -0.001776 0.000000 0.000000 0.000000
# 3 -0.001137 -0.001776 0.007395 0.000000 0.000000 0.000000
# 4 0.000000 0.000000 0.000000 0.048558 0.000000 0.000000
# 5 0.000000 0.000000 0.000000 0.000000 0.024299 0.000000
# 6 0.000000 0.000000 0.000000 0.000000 0.000000 0.045887
#
#
# Mechanical properties :
#
#
# Convention : Reuss Voigt Hill
#
# Bulk Modulus (GPa) = 39.91753 45.60329 42.76041
# Shear Modulus (GPa) = 27.61961 32.35567 29.98764
#
# Velocity S-wave (km/s) = 3.70727 4.01255 3.86293
# Velocity P-wave (km/s) = 6.17969 6.64531 6.41673
#
# Compressibility (1/GPa) = 0.02505165
#
# Stress axis : x y z
#
# Youngs Moduli (GPa) = 85.99592 48.85110 135.22065
#
# Poissons Ratio (x) = 0.21048 0.15371
# Poissons Ratio (y) = 0.37052 0.24015
# Poissons Ratio (z) = 0.09775 0.08676
#
# Static dielectric constant tensor:
#      x y z
#    x 3.565240 0.000000 0.000000 
#    y 0.000000 3.446110 0.000000 
#    z 0.000000 0.000000 4.067010 
# 
# 
# High freq. dielectric constant tensor:
#      x y z
#    x 1.772710 0.000000 0.000000 
#    y 0.000000 1.758240 0.000000 
#    z 0.000000 0.000000 1.815040 
# 
# From -- ./inp_files/52268.got.cif
#   From: 2010.03.12/outbox.cif.g09.slc.cpg/sg72_27_cif.got.tgz:52268.got - 2010.04.16 14:54:00.
