data_PCOD8293366
_publ_section_title
;
Structure prediction by ZEFSAII (Michael W. Deem and Ramdas Pophale) SiO2 
 PCOD8293366
Probable space group: I B A M
;
_chemical_formula_sum "Si O2"
_cell_formula_units_Z 112
_cell_length_a 27.593148
_cell_length_b 15.830283
_cell_length_c 13.541538
_cell_angle_alpha 90.000000
_cell_angle_beta 90.000000
_cell_angle_gamma 90.000000
_cell_volume 5915.043216
_symmetry_space_group_name_H-M "I B A M"
_symmetry_group_IT_number 72
_symmetry_cell_setting 'orthorhombic'
loop_
_space_group_symop_operation_xyz
x,y,z
-x,-y,z
x,-y,1/2-z
-x,y,1/2-z
-x,-y,-z
x,y,-z
-x,y,1/2+z
x,-y,1/2+z
1/2+x,1/2+y,1/2+z
1/2-x,1/2-y,1/2+z
1/2+x,1/2-y,-z
1/2-x,1/2+y,-z
1/2-x,1/2-y,1/2-z
1/2+x,1/2+y,1/2-z
1/2-x,1/2+y,z
1/2+x,1/2-y,z
loop_
_atom_site_type_symbol
_atom_site_label
_atom_site_fract_x
_atom_site_fract_y
_atom_site_fract_z
Si Si1 0.449163 0.456906 0.892736
Si Si2 0.295368 0.552735 0.884838
Si Si3 0.220414 0.866537 0.115531
Si Si4 0.294096 0.096455 0.228784
Si Si5 0.606308 0.619963 0.615171
Si Si6 0.053078 0.210494 0.273359
Si Si7 0.357998 0.220857 0.116106
O O1 0.500000 0.500000 0.907651
O O2 0.412821 0.527748 0.853020
O O3 0.455163 0.381959 0.816840
O O4 0.430851 0.422418 0.000000
O O5 0.298728 0.456953 0.841274
O O6 0.245751 0.598219 0.857639
O O7 0.337768 0.616193 0.851424
O O8 0.299323 0.539302 0.000000
O O9 0.270866 0.853431 0.176494
O O10 0.177983 0.799505 0.136563
O O11 0.234136 0.867650 0.000000
O O12 0.340456 0.143691 0.184262
O O13 0.310080 0.000000 0.250000
O O14 0.597719 0.636860 0.500000
O O15 0.581075 0.698242 0.670098
O O16 0.086572 0.262761 0.349149
O O17 0.000000 0.252131 0.250000
O O18 0.358693 0.197581 0.000000
#
# Coordination Sequence:
#
# PCOD8293366 Si02
#       7
#    16  16  16  16  16  16  16
#     4  10  19  32  49  72 105 148 194 233 266 313
#     4   9  17  31  50  76 109 147 186 227 267 315
#     4   9  18  32  52  81 117 148 178 216 268 325
#     4  10  20  36  59  83 107 142 184 228 272 327
#     4  10  20  31  47  73 110 152 195 234 269 315
#     4  12  23  34  51  74 107 149 191 234 280 327
#     4  11  23  38  57  83 113 145 180 225 277 333
#
# _framework density 18.934773
#
# number of rings (size 3 to 8) (size 9 to 14) (size 15 to 20)
#    0.000    1.857    1.429    3.429    0.000    5.714 
#    0.000    2.143    0.000    0.429    0.000    1.000 
#    0.000    0.000    0.000    0.000    0.000    0.000 
#
# Total GULP energy -694061.092758 kJ/mol
# GULP energy per Si atom -12393.948085 kJ/mol
# Density = 1.889168 g / cm^3
# Si number density = 18.934773 Si / 1000 Ang^3
#
#
#
# Elastic Constant Matrix: (Units=GPa)
#
#
# Indices 1 2 3 4 5 6 
#
# 1 102.3363 38.1498 41.7510 0.0000 0.0000 0.0000
# 2 38.1498 47.3151 29.9886 0.0000 0.0000 0.0000
# 3 41.7510 29.9886 75.0605 0.0000 0.0000 0.0000
# 4 0.0000 0.0000 0.0000 22.9107 0.0000 0.0000
# 5 0.0000 0.0000 0.0000 0.0000 30.2052 0.0000
# 6 0.0000 0.0000 0.0000 0.0000 0.0000 23.0708
#
#
#
# Elastic Compliance Matrix: (Units=1/GPa)
#
#
# Indices 1 2 3 4 5 6 
#
# 1 0.015136 -0.009197 -0.004745 0.000000 0.000000 0.000000
# 2 -0.009197 0.033889 -0.008424 0.000000 0.000000 0.000000
# 3 -0.004745 -0.008424 0.019327 0.000000 0.000000 0.000000
# 4 0.000000 0.000000 0.000000 0.043648 0.000000 0.000000
# 5 0.000000 0.000000 0.000000 0.000000 0.033107 0.000000
# 6 0.000000 0.000000 0.000000 0.000000 0.000000 0.043345
#
#
# Mechanical properties :
#
#
# Convention : Reuss Voigt Hill
#
# Bulk Modulus (GPa) = 42.33432 49.38784 45.86108
# Shear Modulus (GPa) = 20.74194 22.89216 21.81705
#
# Velocity S-wave (km/s) = 3.31334 3.48084 3.39812
# Velocity P-wave (km/s) = 6.08639 6.50344 6.29837
#
# Compressibility (1/GPa) = 0.02362150
#
# Stress axis : x y z
#
# Youngs Moduli (GPa) = 66.06814 29.50770 51.73984
#
# Poissons Ratio (x) = 0.27137 0.24549
# Poissons Ratio (y) = 0.60761 0.43587
# Poissons Ratio (z) = 0.31348 0.24858
#
# Static dielectric constant tensor:
#      x y z
#    x 3.112390 0.000000 0.000000 
#    y 0.000000 3.081250 0.000000 
#    z 0.000000 0.000000 3.782700 
# 
# 
# High freq. dielectric constant tensor:
#      x y z
#    x 1.721930 0.000000 0.000000 
#    y 0.000000 1.680430 0.000000 
#    z 0.000000 0.000000 1.760720 
# 
# From -- ./inp_files/22122.got.cif
#   From: 2010.03.12/outbox.cif.g09.slc.cpg/sg72_12_cif.got.tgz:22122.got - 2010.04.16 14:54:00.
