data_PCOD8293015
_publ_section_title
;
Structure prediction by ZEFSAII (Michael W. Deem and Ramdas Pophale) SiO2 
 PCOD8293015
Probable space group: I B A M
;
_chemical_formula_sum "Si O2"
_cell_formula_units_Z 80
_cell_length_a 24.149936
_cell_length_b 23.456496
_cell_length_c 8.784693
_cell_angle_alpha 90.000000
_cell_angle_beta 90.000000
_cell_angle_gamma 90.000000
_cell_volume 4976.290319
_symmetry_space_group_name_H-M "I B A M"
_symmetry_group_IT_number 72
_symmetry_cell_setting 'orthorhombic'
loop_
_space_group_symop_operation_xyz
x,y,z
-x,-y,z
x,-y,1/2-z
-x,y,1/2-z
-x,-y,-z
x,y,-z
-x,y,1/2+z
x,-y,1/2+z
1/2+x,1/2+y,1/2+z
1/2-x,1/2-y,1/2+z
1/2+x,1/2-y,-z
1/2-x,1/2+y,-z
1/2-x,1/2-y,1/2-z
1/2+x,1/2+y,1/2-z
1/2-x,1/2+y,z
1/2+x,1/2-y,z
loop_
_atom_site_type_symbol
_atom_site_label
_atom_site_fract_x
_atom_site_fract_y
_atom_site_fract_z
Si Si1 0.168194 0.725092 0.321030
Si Si2 0.169732 0.939560 0.180580
Si Si3 0.234384 0.161883 0.821397
Si Si4 0.443939 0.613731 0.321181
Si Si5 0.056903 0.244736 0.319767
O O1 0.167694 0.713924 0.500000
O O2 0.192335 0.787220 0.280367
O O3 0.204851 0.676804 0.240557
O O4 0.106815 0.719668 0.253385
O O5 0.214755 0.894646 0.237035
O O6 0.108604 0.921708 0.239344
O O7 0.185773 0.000000 0.250000
O O8 0.171529 0.942230 0.000000
O O9 0.237343 0.150552 0.000000
O O10 0.500000 0.587798 0.250000
O O11 0.449526 0.609075 0.500000
O O12 0.436123 0.679018 0.269728
O O13 0.057041 0.252432 0.500000
O O14 0.000000 0.269111 0.250000
#
# Coordination Sequence:
#
# PCOD8293015 Si02
#       5
#    16  16  16  16  16
#     4  10  19  31  50  73  97 125 157 197 242 293
#     4  11  22  36  50  68  93 125 164 208 249 290
#     4  10  20  33  50  71  94 124 160 199 244 292
#     4   9  19  32  47  64  89 123 162 205 245 284
#     4  10  18  30  47  70  98 128 161 198 242 289
#
# _framework density 16.076232999999998
#
# number of rings (size 3 to 8) (size 9 to 14) (size 15 to 20)
#    0.000    2.000    2.000    2.400    0.000    4.400 
#    0.000    2.000    0.000    0.000    0.000    0.000 
#    0.000    0.800    0.000    8.000    0.000    4.800 
#
# Total GULP energy -496154.623200 kJ/mol
# GULP energy per Si atom -12403.865580 kJ/mol
# Density = 1.603964 g / cm^3
# Si number density = 16.076233 Si / 1000 Ang^3
#
#
#
# Elastic Constant Matrix: (Units=GPa)
#
#
# Indices 1 2 3 4 5 6 
#
# 1 125.0195 53.6255 41.8297 0.0000 0.0000 0.0000
# 2 53.6255 73.5087 29.7245 0.0000 0.0000 0.0000
# 3 41.8297 29.7245 62.4407 0.0000 0.0000 0.0000
# 4 0.0000 0.0000 0.0000 22.4209 0.0000 0.0000
# 5 0.0000 0.0000 0.0000 0.0000 32.9645 0.0000
# 6 0.0000 0.0000 0.0000 0.0000 0.0000 34.4103
#
#
#
# Elastic Compliance Matrix: (Units=1/GPa)
#
#
# Indices 1 2 3 4 5 6 
#
# 1 0.012845 -0.007295 -0.005132 0.000000 0.000000 0.000000
# 2 -0.007295 0.020990 -0.005105 0.000000 0.000000 0.000000
# 3 -0.005132 -0.005105 0.021883 0.000000 0.000000 0.000000
# 4 0.000000 0.000000 0.000000 0.044601 0.000000 0.000000
# 5 0.000000 0.000000 0.000000 0.000000 0.030336 0.000000
# 6 0.000000 0.000000 0.000000 0.000000 0.000000 0.029061
#
#
# Mechanical properties :
#
#
# Convention : Reuss Voigt Hill
#
# Bulk Modulus (GPa) = 48.41744 56.81426 52.61585
# Shear Modulus (GPa) = 24.79340 27.01175 25.90258
#
# Velocity S-wave (km/s) = 3.93140 4.10351 4.01837
# Velocity P-wave (km/s) = 7.12675 7.60716 7.37087
#
# Compressibility (1/GPa) = 0.02065372
#
# Stress axis : x y z
#
# Youngs Moduli (GPa) = 77.85018 47.64119 45.69653
#
# Poissons Ratio (x) = 0.34756 0.23452
# Poissons Ratio (y) = 0.56795 0.23328
# Poissons Ratio (z) = 0.39954 0.24321
#
# Static dielectric constant tensor:
#      x y z
#    x 3.138660 0.000000 0.000000 
#    y 0.000000 2.746130 0.000000 
#    z 0.000000 0.000000 3.061050 
# 
# 
# High freq. dielectric constant tensor:
#      x y z
#    x 1.619630 0.000000 0.000000 
#    y 0.000000 1.573240 0.000000 
#    z 0.000000 0.000000 1.633080 
# 
# From -- ./inp_files/7938.got.cif
#   From: 2010.03.12/outbox.cif.g09.slc.cpg/sg72_4_cif.got.tgz:7938.got - 2010.04.16 14:54:00.
