data_PCOD8293509
_publ_section_title
;
Structure prediction by ZEFSAII (Michael W. Deem and Ramdas Pophale) SiO2 
 PCOD8293509
Probable space group: I B A M
;
_chemical_formula_sum "Si O2"
_cell_formula_units_Z 96
_cell_length_a 15.587164
_cell_length_b 19.039748
_cell_length_c 14.382523
_cell_angle_alpha 90.000000
_cell_angle_beta 90.000000
_cell_angle_gamma 90.000000
_cell_volume 4268.382966
_symmetry_space_group_name_H-M "I B A M"
_symmetry_group_IT_number 72
_symmetry_cell_setting 'orthorhombic'
loop_
_space_group_symop_operation_xyz
x,y,z
-x,-y,z
x,-y,1/2-z
-x,y,1/2-z
-x,-y,-z
x,y,-z
-x,y,1/2+z
x,-y,1/2+z
1/2+x,1/2+y,1/2+z
1/2-x,1/2-y,1/2+z
1/2+x,1/2-y,-z
1/2-x,1/2+y,-z
1/2-x,1/2-y,1/2-z
1/2+x,1/2+y,1/2-z
1/2-x,1/2+y,z
1/2+x,1/2-y,z
loop_
_atom_site_type_symbol
_atom_site_label
_atom_site_fract_x
_atom_site_fract_y
_atom_site_fract_z
Si Si1 0.384702 0.135775 0.101026
Si Si2 0.552535 0.783475 0.604819
Si Si3 0.093533 0.520542 0.604301
Si Si4 0.812493 0.359493 0.289308
Si Si5 0.516592 0.371527 0.889680
Si Si6 0.634377 0.580091 0.235855
O O1 0.485785 0.152291 0.123634
O O2 0.326152 0.164968 0.182846
O O3 0.359598 0.054065 0.096362
O O4 0.363617 0.170595 0.000000
O O5 0.580850 0.776734 0.500000
O O6 0.643980 0.795842 0.654630
O O7 0.505611 0.711141 0.633783
O O8 0.091596 0.556027 0.500000
O O9 0.139336 0.568999 0.680181
O O10 0.000000 0.500000 0.640406
O O11 0.711544 0.371235 0.303064
O O12 0.438645 0.414333 0.843136
O O13 0.603531 0.395070 0.837847
O O14 0.521225 0.387895 0.000000
O O15 0.664526 0.500000 0.250000
#
# Coordination Sequence:
#
# PCOD8293509 Si02
#       6
#    16  16  16  16  16  16
#     4  10  21  35  55  89 133 178 222 259 313 397
#     4  10  22  41  64  96 130 175 227 265 324 411
#     4  10  19  33  54  87 130 176 222 261 308 387
#     4  12  23  37  66  98 137 178 214 277 339 389
#     4  10  24  48  73  92 128 176 225 286 346 398
#     4  11  26  45  69 105 132 164 235 287 340 412
#
# _framework density 22.490953000000001
#
# number of rings (size 3 to 8) (size 9 to 14) (size 15 to 20)
#    0.000    1.500    1.667    3.500    4.667    4.667 
#    0.000    0.000    0.000    0.000    0.000    0.000 
#    0.000    0.000    0.000    0.000    0.000    0.000 
#
# Total GULP energy -594800.069496 kJ/mol
# GULP energy per Si atom -12391.668114 kJ/mol
# Density = 2.243976 g / cm^3
# Si number density = 22.490953 Si / 1000 Ang^3
#
#
#
# Elastic Constant Matrix: (Units=GPa)
#
#
# Indices 1 2 3 4 5 6 
#
# 1 94.4262 9.7491 36.6044 0.0000 0.0000 0.0000
# 2 9.7491 61.7446 27.0406 0.0000 0.0000 0.0000
# 3 36.6044 27.0406 126.2471 0.0000 0.0000 0.0000
# 4 0.0000 0.0000 0.0000 30.8870 0.0000 0.0000
# 5 0.0000 0.0000 0.0000 0.0000 14.9432 0.0000
# 6 0.0000 0.0000 0.0000 0.0000 0.0000 14.9488
#
#
#
# Elastic Compliance Matrix: (Units=1/GPa)
#
#
# Indices 1 2 3 4 5 6 
#
# 1 0.011941 -0.000407 -0.003375 0.000000 0.000000 0.000000
# 2 -0.000407 0.017886 -0.003713 0.000000 0.000000 0.000000
# 3 -0.003375 -0.003713 0.009695 0.000000 0.000000 0.000000
# 4 0.000000 0.000000 0.000000 0.032376 0.000000 0.000000
# 5 0.000000 0.000000 0.000000 0.000000 0.066920 0.000000
# 6 0.000000 0.000000 0.000000 0.000000 0.000000 0.066895
#
#
# Mechanical properties :
#
#
# Convention : Reuss Voigt Hill
#
# Bulk Modulus (GPa) = 40.76429 47.68959 44.22694
# Shear Modulus (GPa) = 21.84556 26.09074 23.96815
#
# Velocity S-wave (km/s) = 3.11996 3.40965 3.26802
# Velocity P-wave (km/s) = 5.58059 6.06225 5.82640
#
# Compressibility (1/GPa) = 0.02453127
#
# Stress axis : x y z
#
# Youngs Moduli (GPa) = 83.74794 55.90932 103.14880
#
# Poissons Ratio (x) = 0.02278 0.34811
# Poissons Ratio (y) = 0.03412 0.38298
# Poissons Ratio (z) = 0.28264 0.20758
#
# Static dielectric constant tensor:
#      x y z
#    x 3.678550 0.000000 0.000000 
#    y 0.000000 4.158440 0.000000 
#    z 0.000000 0.000000 4.314580 
# 
# 
# High freq. dielectric constant tensor:
#      x y z
#    x 1.854260 0.000000 0.000000 
#    y 0.000000 1.882310 0.000000 
#    z 0.000000 0.000000 1.899040 
# 
# From -- ./inp_files/21828.got.cif
#   From: 2010.03.12/outbox.cif.g09.slc.cpg/sg72_11_cif.got.tgz:21828.got - 2010.04.16 14:54:00.
