data_PCOD8293680
_publ_section_title
;
Structure prediction by ZEFSAII (Michael W. Deem and Ramdas Pophale) SiO2 
 PCOD8293680
Probable space group: I B A M
;
_chemical_formula_sum "Si O2"
_cell_formula_units_Z 104
_cell_length_a 8.712935
_cell_length_b 35.604341
_cell_length_c 17.264111
_cell_angle_alpha 90.000000
_cell_angle_beta 90.000000
_cell_angle_gamma 90.000000
_cell_volume 5355.643318
_symmetry_space_group_name_H-M "I B A M"
_symmetry_group_IT_number 72
_symmetry_cell_setting 'orthorhombic'
loop_
_space_group_symop_operation_xyz
x,y,z
-x,-y,z
x,-y,1/2-z
-x,y,1/2-z
-x,-y,-z
x,y,-z
-x,y,1/2+z
x,-y,1/2+z
1/2+x,1/2+y,1/2+z
1/2-x,1/2-y,1/2+z
1/2+x,1/2-y,-z
1/2-x,1/2+y,-z
1/2-x,1/2-y,1/2-z
1/2+x,1/2+y,1/2-z
1/2-x,1/2+y,z
1/2+x,1/2-y,z
loop_
_atom_site_type_symbol
_atom_site_label
_atom_site_fract_x
_atom_site_fract_y
_atom_site_fract_z
Si Si1 0.552965 0.038889 0.662328
Si Si2 0.814824 0.730081 0.324764
Si Si3 0.643972 0.571650 0.297713
Si Si4 0.477118 0.711276 0.910226
Si Si5 0.532578 0.626182 0.911519
Si Si6 0.163371 0.604571 0.340700
Si Si7 0.500000 0.166228 0.250000
O O1 0.500000 0.036441 0.750000
O O2 0.740681 0.042656 0.657721
O O3 0.458965 0.074038 0.625796
O O4 0.500000 0.000000 0.620399
O O5 0.750000 0.750000 0.250000
O O6 0.699607 0.719252 0.393162
O O7 0.936539 0.758353 0.359610
O O8 0.881026 0.690909 0.296944
O O9 0.500000 0.552710 0.250000
O O10 0.578889 0.601259 0.358931
O O11 0.754498 0.592397 0.238318
O O12 0.522746 0.669281 0.883749
O O13 0.513678 0.717185 0.000000
O O14 0.708754 0.612482 0.905589
O O15 0.477969 0.621936 0.000000
O O16 0.075431 0.642233 0.318657
#
# Coordination Sequence:
#
# PCOD8293680 Si02
#       7
#    16  16  16  16  16  16   8
#     4   9  17  33  57  89 121 145 182 238 289 343
#     4  12  23  39  58  84 112 151 195 244 293 351
#     4   9  17  34  59  85 114 148 188 237 284 336
#     4  11  24  41  56  80 117 155 192 244 301 348
#     4  10  22  38  57  81 115 154 196 241 286 342
#     4  10  19  35  59  87 113 147 188 237 287 340
#     4  12  20  34  61  84 110 142 196 238 289 334
#
# _framework density 19.418769999999999
#
# number of rings (size 3 to 8) (size 9 to 14) (size 15 to 20)
#    0.000    1.692    3.846    2.308    0.000    2.462 
#    0.000   14.615    0.000    2.769    0.000    0.000 
#    0.000    0.000    0.000    0.000    0.000    0.000 
#
# Total GULP energy -644478.452510 kJ/mol
# GULP energy per Si atom -12393.816394 kJ/mol
# Density = 1.937457 g / cm^3
# Si number density = 19.418770 Si / 1000 Ang^3
#
#
#
# Elastic Constant Matrix: (Units=GPa)
#
#
# Indices 1 2 3 4 5 6 
#
# 1 114.7802 65.5091 11.1463 0.0000 0.0000 0.0000
# 2 65.5091 134.8709 24.2246 0.0000 0.0000 -0.0001
# 3 11.1463 24.2246 41.6727 -0.0002 0.0000 -0.0003
# 4 0.0000 0.0000 -0.0002 -14.8335 0.0000 -0.0001
# 5 0.0000 0.0000 0.0000 0.0000 25.9630 0.0000
# 6 0.0000 -0.0001 -0.0003 -0.0001 0.0000 19.4676
#
#
#
# Elastic Compliance Matrix: (Units=1/GPa)
#
#
# Indices 1 2 3 4 5 6 
#
# 1 0.012055 -0.005891 0.000200 0.000000 0.000000 0.000000
# 2 -0.005891 0.011158 -0.004910 0.000000 0.000000 0.000000
# 3 0.000200 -0.004910 0.026797 0.000000 0.000000 0.000000
# 4 0.000000 0.000000 0.000000 -0.067415 0.000000 0.000000
# 5 0.000000 0.000000 0.000000 0.000000 0.038516 0.000000
# 6 0.000000 0.000000 0.000000 0.000000 0.000000 0.051367
#
#
# Mechanical properties :
#
#
# Convention : Reuss Voigt Hill
#
# Bulk Modulus (GPa) = 34.71312 54.78711 44.75012
# Shear Modulus (GPa) = 48.40959 18.81567 33.61263
#
# Velocity S-wave (km/s) = 4.99834 3.11616 4.16496
# Velocity P-wave (km/s) = 7.15724 6.42044 6.79883
#
# Compressibility (1/GPa) = 0.02880755
#
# Stress axis : x y z
#
# Youngs Moduli (GPa) = 82.95098 89.62137 37.31699
#
# Poissons Ratio (x) = 0.52800 -0.00747
# Poissons Ratio (y) = 0.48870 0.18324
# Poissons Ratio (z) = -0.01661 0.44008
#
# Static dielectric constant tensor:
#      x y z
#    x 4.005950 0.000000 0.000000 
#    y 0.000000 3.977590 0.000000 
#    z 0.000000 0.000000 3.215810 
# 
# 
# High freq. dielectric constant tensor:
#      x y z
#    x 1.771530 0.000000 0.000000 
#    y 0.000000 1.759430 0.000000 
#    z 0.000000 0.000000 1.724110 
# 
# From -- ./inp_files/36273.got.cif
#   From: 2010.03.12/outbox.cif.g09.slc.cpg/sg72_19_cif.got.tgz:36273.got - 2010.04.16 14:54:00.
