data_PCOD8293752
_publ_section_title
;
Structure prediction by ZEFSAII (Michael W. Deem and Ramdas Pophale) SiO2 
 PCOD8293752
Probable space group: I B A M
;
_chemical_formula_sum "Si O2"
_cell_formula_units_Z 112
_cell_length_a 14.182742
_cell_length_b 14.633244
_cell_length_c 27.772334
_cell_angle_alpha 90.000000
_cell_angle_beta 90.000000
_cell_angle_gamma 90.000000
_cell_volume 5763.856986
_symmetry_space_group_name_H-M "I B A M"
_symmetry_group_IT_number 72
_symmetry_cell_setting 'orthorhombic'
loop_
_space_group_symop_operation_xyz
x,y,z
-x,-y,z
x,-y,1/2-z
-x,y,1/2-z
-x,-y,-z
x,y,-z
-x,y,1/2+z
x,-y,1/2+z
1/2+x,1/2+y,1/2+z
1/2-x,1/2-y,1/2+z
1/2+x,1/2-y,-z
1/2-x,1/2+y,-z
1/2-x,1/2-y,1/2-z
1/2+x,1/2+y,1/2-z
1/2-x,1/2+y,z
1/2+x,1/2-y,z
loop_
_atom_site_type_symbol
_atom_site_label
_atom_site_fract_x
_atom_site_fract_y
_atom_site_fract_z
Si Si1 0.767026 0.399157 0.751512
Si Si2 0.276185 0.472486 0.113892
Si Si3 0.414941 0.568809 0.698542
Si Si4 0.941481 0.090923 0.055110
Si Si5 0.534694 0.732155 0.134671
Si Si6 0.221172 0.663094 0.858833
Si Si7 0.650809 0.176516 0.155806
O O1 0.812824 0.500000 0.750000
O O2 0.652468 0.407893 0.744431
O O3 0.792005 0.358185 0.802726
O O4 0.816642 0.335941 0.711213
O O5 0.347131 0.476401 0.159074
O O6 0.332659 0.432606 0.068315
O O7 0.237925 0.575048 0.107218
O O8 0.186617 0.408696 0.124468
O O9 0.500000 0.500000 0.711871
O O10 0.456607 0.664505 0.680143
O O11 0.986955 0.171481 0.087233
O O12 0.946357 0.122287 0.000000
O O13 0.000000 0.000000 0.065392
O O14 0.630278 0.784293 0.122383
O O15 0.460524 0.811376 0.148326
O O16 0.309020 0.729688 0.865593
#
# Coordination Sequence:
#
# PCOD8293752 Si02
#       7
#    16  16  16  16  16  16  16
#     4  11  22  39  53  82 122 164 218 266 296 345
#     4  10  20  39  60  86 123 164 196 248 317 369
#     4  10  19  38  56  83 113 157 215 264 305 345
#     4  10  20  41  70  99 122 143 201 268 319 377
#     4  11  23  37  63  90 118 170 200 246 319 374
#     4  12  21  40  60  81 130 167 208 262 300 366
#     4  11  22  39  58  85 125 167 209 255 299 369
#
# _framework density 19.431433999999999
#
# number of rings (size 3 to 8) (size 9 to 14) (size 15 to 20)
#    0.000    1.286    7.143    3.857    0.000    1.429 
#    0.000    2.143    0.000    0.000    0.000    2.000 
#    0.000    0.000    0.000    0.000    0.000    0.000 
#
# Total GULP energy -694316.897725 kJ/mol
# GULP energy per Si atom -12398.516031 kJ/mol
# Density = 1.938721 g / cm^3
# Si number density = 19.431434 Si / 1000 Ang^3
#
#
#
# Elastic Constant Matrix: (Units=GPa)
#
#
# Indices 1 2 3 4 5 6 
#
# 1 55.2692 15.7336 21.8256 0.0000 0.0000 0.0000
# 2 15.7336 99.1837 15.2855 0.0000 0.0000 0.0000
# 3 21.8256 15.2855 61.3979 0.0000 0.0000 0.0000
# 4 0.0000 0.0000 0.0000 18.1683 0.0000 0.0000
# 5 0.0000 0.0000 0.0000 0.0000 15.5600 0.0000
# 6 0.0000 0.0000 0.0000 0.0000 0.0000 41.1118
#
#
#
# Elastic Compliance Matrix: (Units=1/GPa)
#
#
# Indices 1 2 3 4 5 6 
#
# 1 0.021552 -0.002327 -0.007082 0.000000 0.000000 0.000000
# 2 -0.002327 0.010736 -0.001845 0.000000 0.000000 0.000000
# 3 -0.007082 -0.001845 0.019264 0.000000 0.000000 0.000000
# 4 0.000000 0.000000 0.000000 0.055041 0.000000 0.000000
# 5 0.000000 0.000000 0.000000 0.000000 0.064267 0.000000
# 6 0.000000 0.000000 0.000000 0.000000 0.000000 0.024324
#
#
# Mechanical properties :
#
#
# Convention : Reuss Voigt Hill
#
# Bulk Modulus (GPa) = 34.43200 35.72669 35.07934
# Shear Modulus (GPa) = 21.99008 25.83510 23.91259
#
# Velocity S-wave (km/s) = 3.36769 3.65026 3.51182
# Velocity P-wave (km/s) = 5.73411 6.01596 5.87672
#
# Compressibility (1/GPa) = 0.02904275
#
# Stress axis : x y z
#
# Youngs Moduli (GPa) = 46.39834 93.14536 51.90992
#
# Poissons Ratio (x) = 0.21679 0.36763
# Poissons Ratio (y) = 0.10799 0.09580
# Poissons Ratio (z) = 0.32859 0.17189
#
# Static dielectric constant tensor:
#      x y z
#    x 3.534900 0.000000 0.000000 
#    y 0.000000 3.744710 0.000000 
#    z 0.000000 0.000000 3.308170 
# 
# 
# High freq. dielectric constant tensor:
#      x y z
#    x 1.747830 0.000000 0.000000 
#    y 0.000000 1.769770 0.000000 
#    z 0.000000 0.000000 1.719690 
# 
# From -- ./inp_files/51872.got.cif
#   From: 2010.03.12/outbox.cif.g09.slc.cpg/sg72_26_cif.got.tgz:51872.got - 2010.04.16 14:54:00.
