data_PCOD8293396
_publ_section_title
;
Structure prediction by ZEFSAII (Michael W. Deem and Ramdas Pophale) SiO2 
 PCOD8293396
Probable space group: I B A M
;
_chemical_formula_sum "Si O2"
_cell_formula_units_Z 96
_cell_length_a 21.502207
_cell_length_b 12.468712
_cell_length_c 18.818433
_cell_angle_alpha 90.000000
_cell_angle_beta 90.000000
_cell_angle_gamma 90.000000
_cell_volume 5045.312713
_symmetry_space_group_name_H-M "I B A M"
_symmetry_group_IT_number 72
_symmetry_cell_setting 'orthorhombic'
loop_
_space_group_symop_operation_xyz
x,y,z
-x,-y,z
x,-y,1/2-z
-x,y,1/2-z
-x,-y,-z
x,y,-z
-x,y,1/2+z
x,-y,1/2+z
1/2+x,1/2+y,1/2+z
1/2-x,1/2-y,1/2+z
1/2+x,1/2-y,-z
1/2-x,1/2+y,-z
1/2-x,1/2-y,1/2-z
1/2+x,1/2+y,1/2-z
1/2-x,1/2+y,z
1/2+x,1/2-y,z
loop_
_atom_site_type_symbol
_atom_site_label
_atom_site_fract_x
_atom_site_fract_y
_atom_site_fract_z
Si Si1 0.195777 0.557212 0.917856
Si Si2 0.669565 0.774385 0.810559
Si Si3 0.789861 0.342595 0.334098
Si Si4 0.928975 0.972723 0.423422
Si Si5 0.068565 0.882413 0.778651
Si Si6 0.168163 0.850198 0.580200
O O1 0.153502 0.646741 0.876843
O O2 0.188365 0.445874 0.876976
O O3 0.268188 0.584530 0.913170
O O4 0.173508 0.548758 0.000000
O O5 0.716480 0.684453 0.842586
O O6 0.700242 0.851629 0.750817
O O7 0.614378 0.716865 0.765577
O O8 0.831976 0.247795 0.365923
O O9 0.901914 0.932899 0.500000
O O10 0.927074 0.881404 0.364440
O O11 0.889897 0.075747 0.397059
O O12 0.000000 0.000000 0.433610
O O13 0.000000 0.855030 0.750000
O O14 0.089547 0.000000 0.750000
O O15 0.159417 0.807623 0.500000
#
# Coordination Sequence:
#
# PCOD8293396 Si02
#       6
#    16  16  16  16  16  16
#     4  10  20  35  54  80 112 146 184 223 274 331
#     4  10  22  34  53  82 112 142 184 224 278 327
#     4  10  19  33  54  79 111 148 177 226 270 332
#     4  10  19  32  51  79 110 141 177 220 271 328
#     4  11  21  36  55  80 108 144 180 228 279 336
#     4   9  18  31  51  80 112 144 179 219 271 331
#
# _framework density 19.027560999999999
#
# number of rings (size 3 to 8) (size 9 to 14) (size 15 to 20)
#    0.000    2.000    1.667    3.000    0.000    4.000 
#    0.000    0.000    0.000    2.000    0.000    1.167 
#    0.000    0.000    0.000    0.000    0.000    0.000 
#
# Total GULP energy -594696.924395 kJ/mol
# GULP energy per Si atom -12389.519258 kJ/mol
# Density = 1.898425 g / cm^3
# Si number density = 19.027561 Si / 1000 Ang^3
#
#
#
# Elastic Constant Matrix: (Units=GPa)
#
#
# Indices 1 2 3 4 5 6 
#
# 1 73.6118 39.3409 19.3622 0.0000 0.0000 0.0000
# 2 39.3409 85.0898 44.4305 0.0000 0.0000 0.0000
# 3 19.3622 44.4305 105.8349 0.0000 0.0000 0.0000
# 4 0.0000 0.0000 0.0000 4127.3727 0.0000 0.0000
# 5 0.0000 0.0000 0.0000 0.0000 24.8301 0.0000
# 6 0.0000 0.0000 0.0000 0.0000 0.0000 25.5677
#
#
#
# Elastic Compliance Matrix: (Units=1/GPa)
#
#
# Indices 1 2 3 4 5 6 
#
# 1 0.018049 -0.008479 0.000258 0.000000 0.000000 0.000000
# 2 -0.008479 0.019035 -0.006440 0.000000 0.000000 0.000000
# 3 0.000258 -0.006440 0.012105 0.000000 0.000000 0.000000
# 4 0.000000 0.000000 0.000000 0.000242 0.000000 0.000000
# 5 0.000000 0.000000 0.000000 0.000000 0.040274 0.000000
# 6 0.000000 0.000000 0.000000 0.000000 0.000000 0.039112
#
#
# Mechanical properties :
#
#
# Convention : Reuss Voigt Hill
#
# Bulk Modulus (GPa) = 50.33714 52.31152 51.32433
# Shear Modulus (GPa) = 30.34683 846.31430 438.33057
#
# Velocity S-wave (km/s) = 3.99794 21.11277 15.19428
# Velocity P-wave (km/s) = 6.91546 24.93760 18.29901
#
# Compressibility (1/GPa) = 0.01986605
#
# Stress axis : x y z
#
# Youngs Moduli (GPa) = 55.40583 52.53392 82.61001
#
# Poissons Ratio (x) = 0.44545 -0.02129
# Poissons Ratio (y) = 0.46980 0.53200
# Poissons Ratio (z) = -0.01428 0.33832
#
# Static dielectric constant tensor:
#      x y z
#    x 3.870310 0.000000 0.000000 
#    y 0.000000 3.232350 0.000000 
#    z 0.000000 0.000000 4.331580 
# 
# 
# High freq. dielectric constant tensor:
#      x y z
#    x 1.706080 0.000000 0.000000 
#    y 0.000000 1.713230 0.000000 
#    z 0.000000 0.000000 1.771690 
# 
# From -- ./inp_files/33275.got.cif
#   From: 2010.03.12/outbox.cif.g09.slc.cpg/sg72_17_cif.got.tgz:33275.got - 2010.04.16 14:54:00.
