data_PCOD8293477
_publ_section_title
;
Structure prediction by ZEFSAII (Michael W. Deem and Ramdas Pophale) SiO2 
 PCOD8293477
Probable space group: I B A M
;
_chemical_formula_sum "Si O2"
_cell_formula_units_Z 112
_cell_length_a 31.485152
_cell_length_b 10.750554
_cell_length_c 16.946536
_cell_angle_alpha 90.000000
_cell_angle_beta 90.000000
_cell_angle_gamma 90.000000
_cell_volume 5736.111409
_symmetry_space_group_name_H-M "I B A M"
_symmetry_group_IT_number 72
_symmetry_cell_setting 'orthorhombic'
loop_
_space_group_symop_operation_xyz
x,y,z
-x,-y,z
x,-y,1/2-z
-x,y,1/2-z
-x,-y,-z
x,y,-z
-x,y,1/2+z
x,-y,1/2+z
1/2+x,1/2+y,1/2+z
1/2-x,1/2-y,1/2+z
1/2+x,1/2-y,-z
1/2-x,1/2+y,-z
1/2-x,1/2-y,1/2-z
1/2+x,1/2+y,1/2-z
1/2-x,1/2+y,z
1/2+x,1/2-y,z
loop_
_atom_site_type_symbol
_atom_site_label
_atom_site_fract_x
_atom_site_fract_y
_atom_site_fract_z
Si Si1 0.637551 0.668052 0.088765
Si Si2 0.627798 0.951108 0.910238
Si Si3 0.958102 0.435950 0.592779
Si Si4 0.987011 0.828530 0.090303
Si Si5 0.060846 0.046535 0.661786
Si Si6 0.218518 0.513212 0.158284
Si Si7 0.731405 0.719162 0.093179
O O1 0.618248 0.805290 0.090225
O O2 0.609548 0.580781 0.145201
O O3 0.685428 0.670475 0.121912
O O4 0.636399 0.613918 0.000000
O O5 0.668372 0.985101 0.857777
O O6 0.586215 0.014495 0.871387
O O7 0.636593 0.996571 0.000000
O O8 0.956828 0.464773 0.500000
O O9 0.960354 0.291770 0.614088
O O10 0.000000 0.500000 0.629925
O O11 0.028817 0.838253 0.145843
O O12 0.954480 0.941622 0.100861
O O13 0.002648 0.820970 0.000000
O O14 0.055647 0.000000 0.750000
O O15 0.227894 0.500000 0.250000
O O16 0.235576 0.387951 0.116344
O O17 0.240599 0.642934 0.129548
O O18 0.731273 0.740378 0.000000
#
# Coordination Sequence:
#
# PCOD8293477 Si02
#       7
#    16  16  16  16  16  16  16
#     4   9  18  35  59  81 105 144 191 230 277 345
#     4   9  18  36  60  85 114 149 192 237 288 347
#     4   9  17  31  55  84 106 134 184 239 280 327
#     4  10  19  33  53  74 103 142 188 232 279 333
#     4  11  21  34  51  75 109 146 181 231 285 338
#     4  11  22  39  61  91 126 160 196 249 309 365
#     4  10  21  40  64  89 118 159 208 247 295 362
#
# _framework density 19.525423
#
# number of rings (size 3 to 8) (size 9 to 14) (size 15 to 20)
#    0.000    2.143    0.000    6.000    0.000    2.857 
#    7.714    0.000    0.000    0.000    0.000    0.000 
#    0.000    0.000    0.000    0.000    0.000    0.000 
#
# Total GULP energy -694236.474112 kJ/mol
# GULP energy per Si atom -12397.079895 kJ/mol
# Density = 1.948098 g / cm^3
# Si number density = 19.525423 Si / 1000 Ang^3
#
#
#
# Elastic Constant Matrix: (Units=GPa)
#
#
# Indices 1 2 3 4 5 6 
#
# 1 96.8941 51.0512 23.4949 0.0000 0.0000 0.0000
# 2 51.0512 87.3659 23.1916 0.0000 0.0000 0.0000
# 3 23.4949 23.1916 74.7614 0.0000 0.0000 0.0000
# 4 0.0000 0.0000 0.0000 17.8346 0.0000 0.0000
# 5 0.0000 0.0000 0.0000 0.0000 22.9547 0.0000
# 6 0.0000 0.0000 0.0000 0.0000 0.0000 41.7650
#
#
#
# Elastic Compliance Matrix: (Units=1/GPa)
#
#
# Indices 1 2 3 4 5 6 
#
# 1 0.015239 -0.008318 -0.002209 0.000000 0.000000 0.000000
# 2 -0.008318 0.017014 -0.002664 0.000000 0.000000 0.000000
# 3 -0.002209 -0.002664 0.014896 0.000000 0.000000 0.000000
# 4 0.000000 0.000000 0.000000 0.056071 0.000000 0.000000
# 5 0.000000 0.000000 0.000000 0.000000 0.043564 0.000000
# 6 0.000000 0.000000 0.000000 0.000000 0.000000 0.023944
#
#
# Mechanical properties :
#
#
# Convention : Reuss Voigt Hill
#
# Bulk Modulus (GPa) = 48.15163 50.49964 49.32564
# Shear Modulus (GPa) = 24.50608 27.26312 25.88460
#
# Velocity S-wave (km/s) = 3.54656 3.74075 3.64495
# Velocity P-wave (km/s) = 6.44091 6.67662 6.55983
#
# Compressibility (1/GPa) = 0.02076773
#
# Stress axis : x y z
#
# Youngs Moduli (GPa) = 65.62193 58.77540 67.13090
#
# Poissons Ratio (x) = 0.48891 0.14827
# Poissons Ratio (y) = 0.54586 0.17882
# Poissons Ratio (z) = 0.14493 0.15656
#
# Static dielectric constant tensor:
#      x y z
#    x 3.609210 0.000000 0.000000 
#    y 0.000000 3.611520 0.000000 
#    z 0.000000 0.000000 3.312870 
# 
# 
# High freq. dielectric constant tensor:
#      x y z
#    x 1.759720 0.000000 0.000000 
#    y 0.000000 1.760910 0.000000 
#    z 0.000000 0.000000 1.739520 
# 
# From -- ./inp_files/26395.got.cif
#   From: 2010.03.12/outbox.cif.g09.slc.cpg/sg72_14_cif.got.tgz:26395.got - 2010.04.16 14:54:00.
