data_PCOD8293546
_publ_section_title
;
Structure prediction by ZEFSAII (Michael W. Deem and Ramdas Pophale) SiO2 
 PCOD8293546
Probable space group: I B A M
;
_chemical_formula_sum "Si O2"
_cell_formula_units_Z 112
_cell_length_a 14.405300
_cell_length_b 14.988121
_cell_length_c 22.843605
_cell_angle_alpha 90.000000
_cell_angle_beta 90.000000
_cell_angle_gamma 90.000000
_cell_volume 4932.125736
_symmetry_space_group_name_H-M "I B A M"
_symmetry_group_IT_number 72
_symmetry_cell_setting 'orthorhombic'
loop_
_space_group_symop_operation_xyz
x,y,z
-x,-y,z
x,-y,1/2-z
-x,y,1/2-z
-x,-y,-z
x,y,-z
-x,y,1/2+z
x,-y,1/2+z
1/2+x,1/2+y,1/2+z
1/2-x,1/2-y,1/2+z
1/2+x,1/2-y,-z
1/2-x,1/2+y,-z
1/2-x,1/2-y,1/2-z
1/2+x,1/2+y,1/2-z
1/2-x,1/2+y,z
1/2+x,1/2-y,z
loop_
_atom_site_type_symbol
_atom_site_label
_atom_site_fract_x
_atom_site_fract_y
_atom_site_fract_z
Si Si1 0.688091 0.802601 0.934476
Si Si2 0.713036 0.391167 0.435361
Si Si3 0.067729 0.647691 0.166590
Si Si4 0.494959 0.603742 0.434815
Si Si5 0.209878 0.494445 0.832456
Si Si6 0.131303 0.677804 0.290075
Si Si7 0.163039 0.859148 0.646288
O O1 0.747463 0.710861 0.935674
O O2 0.595869 0.801596 0.893449
O O3 0.761309 0.870233 0.905903
O O4 0.658503 0.831345 0.000000
O O5 0.713071 0.433989 0.500000
O O6 0.608080 0.377076 0.412160
O O7 0.778105 0.452276 0.396727
O O8 0.113059 0.549032 0.168309
O O9 0.105895 0.701532 0.223343
O O10 0.956651 0.645455 0.171070
O O11 0.500000 0.500000 0.443130
O O12 0.513690 0.647653 0.500000
O O13 0.562160 0.636540 0.382699
O O14 0.201141 0.408168 0.789235
O O15 0.302261 0.554377 0.815735
O O16 0.175631 0.768159 0.316782
#
# Coordination Sequence:
#
# PCOD8293546 Si02
#       7
#    16  16  16  16  16  16  16
#     4  10  21  39  64  98 131 166 215 271 333 394
#     4  10  20  37  59  91 133 168 208 269 324 390
#     4  10  24  43  71  92 126 178 221 284 328 395
#     4  10  19  33  58  89 128 176 222 258 319 401
#     4  11  22  38  63  99 125 168 222 272 330 400
#     4  11  23  46  66  96 132 170 233 271 331 397
#     4  11  22  37  67  97 132 178 214 278 333 392
#
# _framework density 22.708261
#
# number of rings (size 3 to 8) (size 9 to 14) (size 15 to 20)
#    0.000    1.571    2.857    2.143    0.000    5.714 
#    2.571    1.429    0.000    4.286    0.000    0.000 
#    0.000    0.000    0.000    0.000    0.000    0.000 
#
# Total GULP energy -693773.439316 kJ/mol
# GULP energy per Si atom -12388.811416 kJ/mol
# Density = 2.265658 g / cm^3
# Si number density = 22.708261 Si / 1000 Ang^3
#
#
#
# Elastic Constant Matrix: (Units=GPa)
#
#
# Indices 1 2 3 4 5 6 
#
# 1 69.5460 1.2967 36.1140 0.0000 0.0000 0.0000
# 2 1.2967 90.5972 27.7350 0.0000 0.0000 0.0000
# 3 36.1140 27.7350 118.0226 0.0000 0.0000 0.0000
# 4 0.0000 0.0000 0.0000 19.3236 0.0000 0.0000
# 5 0.0000 0.0000 0.0000 0.0000 37.4280 0.0000
# 6 0.0000 0.0000 0.0000 0.0000 0.0000 29.1533
#
#
#
# Elastic Compliance Matrix: (Units=1/GPa)
#
#
# Indices 1 2 3 4 5 6 
#
# 1 0.017277 0.001477 -0.005634 0.000000 0.000000 0.000000
# 2 0.001477 0.012020 -0.003277 0.000000 0.000000 0.000000
# 3 -0.005634 -0.003277 0.010967 0.000000 0.000000 0.000000
# 4 0.000000 0.000000 0.000000 0.051750 0.000000 0.000000
# 5 0.000000 0.000000 0.000000 0.000000 0.026718 0.000000
# 6 0.000000 0.000000 0.000000 0.000000 0.000000 0.034301
#
#
# Mechanical properties :
#
#
# Convention : Reuss Voigt Hill
#
# Bulk Modulus (GPa) = 39.37398 45.38413 42.37905
# Shear Modulus (GPa) = 28.35026 31.38233 29.86630
#
# Velocity S-wave (km/s) = 3.53718 3.72153 3.63053
# Velocity P-wave (km/s) = 5.83600 6.20447 6.02306
#
# Compressibility (1/GPa) = 0.02539748
#
# Stress axis : x y z
#
# Youngs Moduli (GPa) = 57.88059 83.19580 91.18374
#
# Poissons Ratio (x) = -0.12292 0.51371
# Poissons Ratio (y) = -0.08551 0.29878
# Poissons Ratio (z) = 0.32609 0.27261
#
# Static dielectric constant tensor:
#      x y z
#    x 3.848920 0.000000 0.000000 
#    y 0.000000 3.941740 0.000000 
#    z 0.000000 0.000000 4.222550 
# 
# 
# High freq. dielectric constant tensor:
#      x y z
#    x 1.874380 0.000000 0.000000 
#    y 0.000000 1.901600 0.000000 
#    z 0.000000 0.000000 1.892960 
# 
# From -- ./inp_files/44329.got.cif
#   From: 2010.03.12/outbox.cif.g09.slc.cpg/sg72_23_cif.got.tgz:44329.got - 2010.04.16 14:54:00.
