data_PCOD8293979
_publ_section_title
;
Structure prediction by ZEFSAII (Michael W. Deem and Ramdas Pophale) SiO2 
 PCOD8293979
Probable space group: I B A M
;
_chemical_formula_sum "Si O2"
_cell_formula_units_Z 64
_cell_length_a 9.591773
_cell_length_b 13.030982
_cell_length_c 23.868176
_cell_angle_alpha 90.000000
_cell_angle_beta 90.000000
_cell_angle_gamma 90.000000
_cell_volume 2983.288601
_symmetry_space_group_name_H-M "I B A M"
_symmetry_group_IT_number 72
_symmetry_cell_setting 'orthorhombic'
loop_
_space_group_symop_operation_xyz
x,y,z
-x,-y,z
x,-y,1/2-z
-x,y,1/2-z
-x,-y,-z
x,y,-z
-x,y,1/2+z
x,-y,1/2+z
1/2+x,1/2+y,1/2+z
1/2-x,1/2-y,1/2+z
1/2+x,1/2-y,-z
1/2-x,1/2+y,-z
1/2-x,1/2-y,1/2-z
1/2+x,1/2+y,1/2-z
1/2-x,1/2+y,z
1/2+x,1/2-y,z
loop_
_atom_site_type_symbol
_atom_site_label
_atom_site_fract_x
_atom_site_fract_y
_atom_site_fract_z
Si Si1 0.353087 0.719013 0.615856
Si Si2 0.078262 0.595498 0.192085
Si Si3 0.374017 0.643424 0.935943
Si Si4 0.344303 0.492789 0.837225
O O1 0.426604 0.803744 0.654839
O O2 0.467323 0.678095 0.572523
O O3 0.225054 0.762398 0.580892
O O4 0.299625 0.626090 0.655652
O O5 0.238151 0.556590 0.202463
O O6 0.000000 0.500000 0.161267
O O7 0.000000 0.619331 0.250000
O O8 0.340283 0.544125 0.898881
O O9 0.349024 0.612526 0.000000
O O10 0.500000 0.500000 0.811234
#
# Coordination Sequence:
#
# PCOD8293979 Si02
#       4
#    16  16  16  16
#     4  10  20  37  60  85 117 152 190 235 283 337
#     4  10  21  40  61  83 113 149 189 237 287 334
#     4  10  20  34  57  87 118 154 192 232 281 337
#     4   9  20  38  57  82 116 152 191 237 282 336
#
# _framework density 21.452836999999999
#
# number of rings (size 3 to 8) (size 9 to 14) (size 15 to 20)
#    0.000    2.250    0.000    2.250    0.000    5.500 
#    0.000   33.750    0.000    9.750    0.000    0.000 
#    0.000    0.000    0.000    0.000    0.000    0.000 
#
# Total GULP energy -396745.880322 kJ/mol
# GULP energy per Si atom -12398.308760 kJ/mol
# Density = 2.140401 g / cm^3
# Si number density = 21.452837 Si / 1000 Ang^3
#
#
#
# Elastic Constant Matrix: (Units=GPa)
#
#
# Indices 1 2 3 4 5 6 
#
# 1 96.5023 7.2602 20.6465 0.0000 0.0000 0.0000
# 2 7.2602 106.0421 14.9134 0.0000 0.0000 0.0000
# 3 20.6465 14.9134 83.0081 0.0000 0.0000 0.0000
# 4 0.0000 0.0000 0.0000 22.8210 0.0000 0.0000
# 5 0.0000 0.0000 0.0000 0.0000 24.0107 0.0000
# 6 0.0000 0.0000 0.0000 0.0000 0.0000 27.0428
#
#
#
# Elastic Compliance Matrix: (Units=1/GPa)
#
#
# Indices 1 2 3 4 5 6 
#
# 1 0.010960 -0.000376 -0.002658 0.000000 0.000000 0.000000
# 2 -0.000376 0.009688 -0.001647 0.000000 0.000000 0.000000
# 3 -0.002658 -0.001647 0.013004 0.000000 0.000000 0.000000
# 4 0.000000 0.000000 0.000000 0.043819 0.000000 0.000000
# 5 0.000000 0.000000 0.000000 0.000000 0.041648 0.000000
# 6 0.000000 0.000000 0.000000 0.000000 0.000000 0.036978
#
#
# Mechanical properties :
#
#
# Convention : Reuss Voigt Hill
#
# Bulk Modulus (GPa) = 41.17275 41.24364 41.20819
# Shear Modulus (GPa) = 28.80909 30.95705 29.88307
#
# Velocity S-wave (km/s) = 3.66854 3.80284 3.73629
# Velocity P-wave (km/s) = 6.09739 6.20880 6.15334
#
# Compressibility (1/GPa) = 0.02428791
#
# Stress axis : x y z
#
# Youngs Moduli (GPa) = 91.24491 103.22476 76.89883
#
# Poissons Ratio (x) = 0.03886 0.20442
# Poissons Ratio (y) = 0.03435 0.12664
# Poissons Ratio (z) = 0.24256 0.17000
#
# Static dielectric constant tensor:
#      x y z
#    x 4.194840 0.000000 0.000000 
#    y 0.000000 4.033570 0.000000 
#    z 0.000000 0.000000 3.448920 
# 
# 
# High freq. dielectric constant tensor:
#      x y z
#    x 1.856810 0.000000 0.000000 
#    y 0.000000 1.854810 0.000000 
#    z 0.000000 0.000000 1.812710 
# 
# From -- ./inp_files/41906.got.cif
#   From: 2010.03.12/outbox.cif.g09.slc.cpg/sg72_21_cif.got.tgz:41906.got - 2010.04.16 14:54:00.
