data_PCOD8293038
_publ_section_title
;
Structure prediction by ZEFSAII (Michael W. Deem and Ramdas Pophale) SiO2 
 PCOD8293038
Probable space group: I B A M
;
_chemical_formula_sum "Si O2"
_cell_formula_units_Z 84
_cell_length_a 9.974922
_cell_length_b 15.237073
_cell_length_c 24.699630
_cell_angle_alpha 90.000000
_cell_angle_beta 90.000000
_cell_angle_gamma 90.000000
_cell_volume 3754.062547
_symmetry_space_group_name_H-M "I B A M"
_symmetry_group_IT_number 72
_symmetry_cell_setting 'orthorhombic'
loop_
_space_group_symop_operation_xyz
x,y,z
-x,-y,z
x,-y,1/2-z
-x,y,1/2-z
-x,-y,-z
x,y,-z
-x,y,1/2+z
x,-y,1/2+z
1/2+x,1/2+y,1/2+z
1/2-x,1/2-y,1/2+z
1/2+x,1/2-y,-z
1/2-x,1/2+y,-z
1/2-x,1/2-y,1/2-z
1/2+x,1/2+y,1/2-z
1/2-x,1/2+y,z
1/2+x,1/2-y,z
loop_
_atom_site_type_symbol
_atom_site_label
_atom_site_fract_x
_atom_site_fract_y
_atom_site_fract_z
Si Si1 0.303623 0.837576 0.107210
Si Si2 0.971255 0.669084 0.311504
Si Si3 0.500000 0.500000 0.250000
Si Si4 0.726352 0.849884 0.000000
Si Si5 0.551108 0.626978 0.162873
Si Si6 0.768203 0.867646 0.116161
Si Si7 0.577050 0.189740 0.000000
O O1 0.397043 0.861487 0.157355
O O2 0.162199 0.886674 0.116055
O O3 0.277491 0.734816 0.104175
O O4 0.375767 0.866937 0.051931
O O5 0.948255 0.773401 0.315936
O O6 0.845623 0.616748 0.338043
O O7 0.000000 0.641537 0.250000
O O8 0.590577 0.563981 0.212811
O O9 0.734131 0.907847 0.943975
O O10 0.583785 0.797656 0.000000
O O11 0.854072 0.784877 0.000000
O O12 0.408161 0.595842 0.139155
#
# Coordination Sequence:
#
# PCOD8293038 Si02
#       7
#    16  16   4   8  16  16   8
#     4   9  19  31  52  81 114 143 176 218 279 335
#     4  10  18  31  53  84 115 140 174 221 282 342
#     4  12  24  40  56  72 116 148 200 236 274 316
#     4  10  18  30  50  84 123 147 171 215 282 347
#     4  10  22  35  52  79 105 153 185 229 276 323
#     4   9  19  31  52  81 114 143 176 218 279 335
#     4  10  18  30  50  84 123 147 171 215 282 347
#
# _framework density 22.375758999999999
#
# number of rings (size 3 to 8) (size 9 to 14) (size 15 to 20)
#    0.000    2.286    2.857    0.000   10.667    2.286 
#    0.000    0.000    0.000    4.571    0.000    1.333 
#    0.000    0.000    0.000    0.000    0.000    0.000 
#
# Total GULP energy -520435.486956 kJ/mol
# GULP energy per Si atom -12391.321118 kJ/mol
# Density = 2.232483 g / cm^3
# Si number density = 22.375759 Si / 1000 Ang^3
#
#
#
# Elastic Constant Matrix: (Units=GPa)
#
#
# Indices 1 2 3 4 5 6 
#
# 1 122.0050 13.2932 50.8210 0.0000 0.0000 0.0000
# 2 13.2932 17.7974 9.8513 0.0000 0.0000 0.0000
# 3 50.8210 9.8513 201.9866 0.0000 0.0000 0.0000
# 4 0.0000 0.0000 0.0000 9.0345 0.0000 0.0000
# 5 0.0000 0.0000 0.0000 0.0000 33.7058 0.0000
# 6 0.0000 0.0000 0.0000 0.0000 0.0000 0.2570
#
#
#
# Elastic Compliance Matrix: (Units=1/GPa)
#
#
# Indices 1 2 3 4 5 6 
#
# 1 0.009759 -0.006095 -0.002158 0.000000 0.000000 0.000000
# 2 -0.006095 0.061553 -0.001469 0.000000 0.000000 0.000000
# 3 -0.002158 -0.001469 0.005565 0.000000 0.000000 0.000000
# 4 0.000000 0.000000 0.000000 0.110686 0.000000 0.000000
# 5 0.000000 0.000000 0.000000 0.000000 0.029668 0.000000
# 6 0.000000 0.000000 0.000000 0.000000 0.000000 3.890739
#
#
# Mechanical properties :
#
#
# Convention : Reuss Voigt Hill
#
# Bulk Modulus (GPa) = 17.41110 54.41332 35.91221
# Shear Modulus (GPa) = 1.20582 26.45439 13.83010
#
# Velocity S-wave (km/s) = 0.73489 3.44216 2.48883
# Velocity P-wave (km/s) = 2.91860 6.33788 4.93391
#
# Compressibility (1/GPa) = 0.05743463
#
# Stress axis : x y z
#
# Youngs Moduli (GPa) = 102.46446 16.24615 179.67889
#
# Poissons Ratio (x) = 0.09902 0.38780
# Poissons Ratio (y) = 0.62450 0.26387
# Poissons Ratio (z) = 0.22115 0.02386
#
# Static dielectric constant tensor:
#      x y z
#    x 4.168660 0.000000 0.000000 
#    y 0.000000 3.280650 0.000000 
#    z 0.000000 0.000000 4.652730 
# 
# 
# High freq. dielectric constant tensor:
#      x y z
#    x 1.886740 0.000000 0.000000 
#    y 0.000000 1.810070 0.000000 
#    z 0.000000 0.000000 1.903560 
# 
# From -- ./inp_files/47279.got.cif
#   From: 2010.03.12/outbox.cif.g09.slc.cpg/sg72_24_cif.got.tgz:47279.got - 2010.04.16 14:54:00.
