data_PCOD8293968
_publ_section_title
;
Structure prediction by ZEFSAII (Michael W. Deem and Ramdas Pophale) SiO2 
 PCOD8293968
Probable space group: I B A M
;
_chemical_formula_sum "Si O2"
_cell_formula_units_Z 64
_cell_length_a 19.283553
_cell_length_b 20.729969
_cell_length_c 8.625752
_cell_angle_alpha 90.000000
_cell_angle_beta 90.000000
_cell_angle_gamma 90.000000
_cell_volume 3448.122417
_symmetry_space_group_name_H-M "I B A M"
_symmetry_group_IT_number 72
_symmetry_cell_setting 'orthorhombic'
loop_
_space_group_symop_operation_xyz
x,y,z
-x,-y,z
x,-y,1/2-z
-x,y,1/2-z
-x,-y,-z
x,y,-z
-x,y,1/2+z
x,-y,1/2+z
1/2+x,1/2+y,1/2+z
1/2-x,1/2-y,1/2+z
1/2+x,1/2-y,-z
1/2-x,1/2+y,-z
1/2-x,1/2-y,1/2-z
1/2+x,1/2+y,1/2-z
1/2-x,1/2+y,z
1/2+x,1/2-y,z
loop_
_atom_site_type_symbol
_atom_site_label
_atom_site_fract_x
_atom_site_fract_y
_atom_site_fract_z
Si Si1 0.709921 0.566517 0.682819
Si Si2 0.569970 0.241675 0.178728
Si Si3 0.073292 0.880104 0.817090
Si Si4 0.284475 0.187034 0.678804
O O1 0.740818 0.500000 0.750000
O O2 0.706458 0.563353 0.500000
O O3 0.632901 0.574994 0.748947
O O4 0.760591 0.624013 0.731266
O O5 0.500000 0.210495 0.250000
O O6 0.589094 0.306603 0.269967
O O7 0.632339 0.191114 0.196378
O O8 0.557292 0.260373 0.000000
O O9 0.000000 0.903839 0.750000
O O10 0.072695 0.886642 0.000000
O O11 0.261941 0.181787 0.500000
O O12 0.250000 0.250000 0.750000
#
# Coordination Sequence:
#
# PCOD8293968 Si02
#       4
#    16  16  16  16
#     4  12  25  41  59  83 116 154 197 241 293 348
#     4  10  20  34  56  86 118 150 190 236 288 340
#     4  11  21  35  56  82 116 154 195 236 284 341
#     4  11  22  37  60  88 117 153 195 240 288 342
#
# _framework density 18.560825000000001
#
# number of rings (size 3 to 8) (size 9 to 14) (size 15 to 20)
#    0.000    1.000    2.500    7.500    0.000    3.500 
#    0.000    2.500    0.000    0.750    0.000    5.250 
#    0.000    0.000    0.000    0.000    0.000    0.000 
#
# Total GULP energy -396945.676452 kJ/mol
# GULP energy per Si atom -12404.552389 kJ/mol
# Density = 1.851858 g / cm^3
# Si number density = 18.560825 Si / 1000 Ang^3
#
#
#
# Elastic Constant Matrix: (Units=GPa)
#
#
# Indices 1 2 3 4 5 6 
#
# 1 90.2235 49.7863 51.9721 0.0000 0.0000 0.0000
# 2 49.7863 113.9125 56.4945 0.0000 0.0000 0.0000
# 3 51.9721 56.4945 187.7723 0.0000 0.0000 0.0000
# 4 0.0000 0.0000 0.0000 30.5178 0.0000 0.0000
# 5 0.0000 0.0000 0.0000 0.0000 34.8939 0.0000
# 6 0.0000 0.0000 0.0000 0.0000 0.0000 20.5304
#
#
#
# Elastic Compliance Matrix: (Units=1/GPa)
#
#
# Indices 1 2 3 4 5 6 
#
# 1 0.015673 -0.005523 -0.002676 0.000000 0.000000 0.000000
# 2 -0.005523 0.012264 -0.002161 0.000000 0.000000 0.000000
# 3 -0.002676 -0.002161 0.006717 0.000000 0.000000 0.000000
# 4 0.000000 0.000000 0.000000 0.032768 0.000000 0.000000
# 5 0.000000 0.000000 0.000000 0.000000 0.028658 0.000000
# 6 0.000000 0.000000 0.000000 0.000000 0.000000 0.048708
#
#
# Mechanical properties :
#
#
# Convention : Reuss Voigt Hill
#
# Bulk Modulus (GPa) = 71.77182 78.71266 75.24224
# Shear Modulus (GPa) = 29.38533 32.76542 31.07538
#
# Velocity S-wave (km/s) = 3.98325 4.20611 4.09619
# Velocity P-wave (km/s) = 7.73999 8.12948 7.93712
#
# Compressibility (1/GPa) = 0.01393305
#
# Stress axis : x y z
#
# Youngs Moduli (GPa) = 63.80537 81.53776 148.88349
#
# Poissons Ratio (x) = 0.45029 0.39847
# Poissons Ratio (y) = 0.35237 0.32179
# Poissons Ratio (z) = 0.17077 0.17623
#
# Static dielectric constant tensor:
#      x y z
#    x 3.682320 0.000000 0.000000 
#    y 0.000000 3.221210 0.000000 
#    z 0.000000 0.000000 3.635920 
# 
# 
# High freq. dielectric constant tensor:
#      x y z
#    x 1.724330 0.000000 0.000000 
#    y 0.000000 1.694010 0.000000 
#    z 0.000000 0.000000 1.746670 
# 
# From -- ./inp_files/4319.got.cif
#   From: 2010.03.12/outbox.cif.g09.slc.cpg/sg72_3_cif.got.tgz:4319.got - 2010.04.16 14:54:00.
