data_PCOD8293841
_publ_section_title
;
Structure prediction by ZEFSAII (Michael W. Deem and Ramdas Pophale) SiO2 
 PCOD8293841
Probable space group: I B A M
;
_chemical_formula_sum "Si O2"
_cell_formula_units_Z 116
_cell_length_a 30.861396
_cell_length_b 22.022893
_cell_length_c 8.884168
_cell_angle_alpha 90.000000
_cell_angle_beta 90.000000
_cell_angle_gamma 90.000000
_cell_volume 6038.188942
_symmetry_space_group_name_H-M "I B A M"
_symmetry_group_IT_number 72
_symmetry_cell_setting 'orthorhombic'
loop_
_space_group_symop_operation_xyz
x,y,z
-x,-y,z
x,-y,1/2-z
-x,y,1/2-z
-x,-y,-z
x,y,-z
-x,y,1/2+z
x,-y,1/2+z
1/2+x,1/2+y,1/2+z
1/2-x,1/2-y,1/2+z
1/2+x,1/2-y,-z
1/2-x,1/2+y,-z
1/2-x,1/2-y,1/2-z
1/2+x,1/2+y,1/2-z
1/2-x,1/2+y,z
1/2+x,1/2-y,z
loop_
_atom_site_type_symbol
_atom_site_label
_atom_site_fract_x
_atom_site_fract_y
_atom_site_fract_z
Si Si1 0.840153 0.560431 0.676745
Si Si2 0.956911 0.726261 0.324580
Si Si3 0.000000 0.500000 0.250000
Si Si4 0.395577 0.336032 0.175762
Si Si5 0.067796 0.596519 0.832323
Si Si6 0.713751 0.823308 0.173492
Si Si7 0.545548 0.435389 0.820081
Si Si8 0.810931 0.202547 0.326344
O O1 0.820860 0.500000 0.750000
O O2 0.842594 0.550357 0.500000
O O3 0.888290 0.572694 0.746531
O O4 0.807957 0.614027 0.721804
O O5 0.966387 0.721481 0.500000
O O6 0.917126 0.770816 0.289373
O O7 0.947805 0.659100 0.253230
O O8 0.000000 0.753657 0.250000
O O9 0.969048 0.455382 0.155647
O O10 0.417990 0.387524 0.275074
O O11 0.345717 0.332739 0.225296
O O12 0.399026 0.352779 0.000000
O O13 0.081182 0.615692 0.000000
O O14 0.764972 0.830114 0.201105
O O15 0.692589 0.772331 0.277435
O O16 0.703871 0.806561 0.000000
O O17 0.558735 0.500000 0.750000
O O18 0.500000 0.413526 0.750000
O O19 0.541654 0.440328 0.000000
O O20 0.825085 0.199921 0.500000
#
# Coordination Sequence:
#
# PCOD8293841 Si02
#       8
#    16  16   4  16  16  16  16  16
#     4  10  20  36  55  77 105 141 182 225 276 330
#     4  10  21  36  53  76 108 147 188 230 277 325
#     4  12  18  32  52  70 104 144 192 228 266 316
#     4  11  22  37  58  84 117 154 188 231 290 342
#     4  10  20  33  50  73 105 145 186 228 275 321
#     4   9  19  37  59  80 109 144 180 230 290 347
#     4  11  22  39  62  88 119 154 195 235 279 340
#     4  10  20  35  58  86 110 140 184 233 284 343
#
# _framework density 19.211058000000001
#
# number of rings (size 3 to 8) (size 9 to 14) (size 15 to 20)
#    0.000    1.793    1.379    3.931    0.000    5.517 
#    0.000    1.379    0.000    1.655    0.000    0.000 
#    0.000    0.000    0.000    0.000    0.000    0.000 
#
# Total GULP energy -719215.813635 kJ/mol
# GULP energy per Si atom -12400.272649 kJ/mol
# Density = 1.916733 g / cm^3
# Si number density = 19.211058 Si / 1000 Ang^3
#
#
#
# Elastic Constant Matrix: (Units=GPa)
#
#
# Indices 1 2 3 4 5 6 
#
# 1 119.7358 65.5296 40.0240 0.0000 0.0000 0.0000
# 2 65.5296 110.9129 39.5847 0.0000 0.0000 0.0000
# 3 40.0240 39.5847 79.2833 0.0000 0.0000 0.0000
# 4 0.0000 0.0000 0.0000 29.6831 0.0000 0.0000
# 5 0.0000 0.0000 0.0000 0.0000 29.0707 0.0000
# 6 0.0000 0.0000 0.0000 0.0000 0.0000 25.8314
#
#
#
# Elastic Compliance Matrix: (Units=1/GPa)
#
#
# Indices 1 2 3 4 5 6 
#
# 1 0.013026 -0.006509 -0.003326 0.000000 0.000000 0.000000
# 2 -0.006509 0.014223 -0.003816 0.000000 0.000000 0.000000
# 3 -0.003326 -0.003816 0.016197 0.000000 0.000000 0.000000
# 4 0.000000 0.000000 0.000000 0.033689 0.000000 0.000000
# 5 0.000000 0.000000 0.000000 0.000000 0.034399 0.000000
# 6 0.000000 0.000000 0.000000 0.000000 0.000000 0.038713
#
#
# Mechanical properties :
#
#
# Convention : Reuss Voigt Hill
#
# Bulk Modulus (GPa) = 61.93739 66.68984 64.31362
# Shear Modulus (GPa) = 27.33294 27.90330 27.61812
#
# Velocity S-wave (km/s) = 3.77606 3.81525 3.79570
# Velocity P-wave (km/s) = 7.16393 7.36192 7.26360
#
# Compressibility (1/GPa) = 0.01614534
#
# Stress axis : x y z
#
# Youngs Moduli (GPa) = 76.77165 70.30648 61.73950
#
# Poissons Ratio (x) = 0.45761 0.20534
# Poissons Ratio (y) = 0.49969 0.23558
# Poissons Ratio (z) = 0.25534 0.26827
#
# Static dielectric constant tensor:
#      x y z
#    x 3.545520 0.000000 0.000000 
#    y 0.000000 3.526340 0.000000 
#    z 0.000000 0.000000 3.367880 
# 
# 
# High freq. dielectric constant tensor:
#      x y z
#    x 1.749810 0.000000 0.000000 
#    y 0.000000 1.747360 0.000000 
#    z 0.000000 0.000000 1.736890 
# 
# From -- ./inp_files/8449.got.cif
#   From: 2010.03.12/outbox.cif.g09.slc.cpg/sg72_5_cif.got.tgz:8449.got - 2010.04.16 14:54:00.
