data_PCOD8293414
_publ_section_title
;
Structure prediction by ZEFSAII (Michael W. Deem and Ramdas Pophale) SiO2 
 PCOD8293414
Probable space group: I B A M
;
_chemical_formula_sum "Si O2"
_cell_formula_units_Z 96
_cell_length_a 16.937008
_cell_length_b 17.892488
_cell_length_c 15.631058
_cell_angle_alpha 90.000000
_cell_angle_beta 90.000000
_cell_angle_gamma 90.000000
_cell_volume 4736.917292
_symmetry_space_group_name_H-M "I B A M"
_symmetry_group_IT_number 72
_symmetry_cell_setting 'orthorhombic'
loop_
_space_group_symop_operation_xyz
x,y,z
-x,-y,z
x,-y,1/2-z
-x,y,1/2-z
-x,-y,-z
x,y,-z
-x,y,1/2+z
x,-y,1/2+z
1/2+x,1/2+y,1/2+z
1/2-x,1/2-y,1/2+z
1/2+x,1/2-y,-z
1/2-x,1/2+y,-z
1/2-x,1/2-y,1/2-z
1/2+x,1/2+y,1/2-z
1/2-x,1/2+y,z
1/2+x,1/2-y,z
loop_
_atom_site_type_symbol
_atom_site_label
_atom_site_fract_x
_atom_site_fract_y
_atom_site_fract_z
Si Si1 0.493369 0.916704 0.102103
Si Si2 0.825239 0.604567 0.096091
Si Si3 0.747840 0.533512 0.345359
Si Si4 0.583483 0.521869 0.847536
Si Si5 0.835006 0.832931 0.601933
Si Si6 0.150526 0.663241 0.898499
O O1 0.411262 0.880675 0.138681
O O2 0.566993 0.868573 0.133586
O O3 0.500000 0.000000 0.139571
O O4 0.488100 0.919352 0.000000
O O5 0.808144 0.515326 0.097464
O O6 0.751680 0.646614 0.140868
O O7 0.829233 0.634168 0.000000
O O8 0.749526 0.500000 0.250000
O O9 0.658772 0.525094 0.384016
O O10 0.777940 0.618976 0.351627
O O11 0.500000 0.500000 0.893822
O O12 0.573877 0.500000 0.750000
O O13 0.600227 0.610673 0.858228
O O14 0.837605 0.842695 0.500000
O O15 0.851249 0.748890 0.631313
O O16 0.162270 0.656249 0.000000
#
# Coordination Sequence:
#
# PCOD8293414 Si02
#       6
#    16  16  16  16  16  16
#     4   9  15  26  50  75  98 137 173 198 251 324
#     4   9  16  31  51  71  99 136 173 207 256 315
#     4  10  19  32  53  78 100 138 182 215 256 319
#     4   9  19  38  59  74 103 145 187 220 266 322
#     4   9  19  34  55  82 108 133 172 229 272 307
#     4  10  19  34  53  77 111 140 169 219 277 319
#
# _framework density 20.266345999999999
#
# number of rings (size 3 to 8) (size 9 to 14) (size 15 to 20)
#    0.000    2.667    1.667    0.500    0.000    1.000 
#    3.000    9.167    3.667    0.000    0.000    0.000 
#    0.000    0.000    0.000    0.000    0.000    0.000 
#
# Total GULP energy -594694.380138 kJ/mol
# GULP energy per Si atom -12389.466253 kJ/mol
# Density = 2.022022 g / cm^3
# Si number density = 20.266346 Si / 1000 Ang^3
#
#
#
# Elastic Constant Matrix: (Units=GPa)
#
#
# Indices 1 2 3 4 5 6 
#
# 1 191.2491 91.3523 11.2643 0.0000 0.0000 0.0000
# 2 91.3523 176.3526 19.8412 0.0000 0.0000 0.0000
# 3 11.2643 19.8412 29.4009 0.0000 0.0000 0.0000
# 4 0.0000 0.0000 0.0000 22.2968 0.0000 0.0000
# 5 0.0000 0.0000 0.0000 0.0000 13.5601 0.0000
# 6 0.0000 0.0000 0.0000 0.0000 0.0000 27.5505
#
#
#
# Elastic Compliance Matrix: (Units=1/GPa)
#
#
# Indices 1 2 3 4 5 6 
#
# 1 0.006950 -0.003572 -0.000252 0.000000 0.000000 0.000000
# 2 -0.003572 0.007972 -0.004011 0.000000 0.000000 0.000000
# 3 -0.000252 -0.004011 0.036816 0.000000 0.000000 0.000000
# 4 0.000000 0.000000 0.000000 0.044850 0.000000 0.000000
# 5 0.000000 0.000000 0.000000 0.000000 0.073746 0.000000
# 6 0.000000 0.000000 0.000000 0.000000 0.000000 0.036297
#
#
# Mechanical properties :
#
#
# Convention : Reuss Voigt Hill
#
# Bulk Modulus (GPa) = 27.72608 71.32427 49.52517
# Shear Modulus (GPa) = 21.33803 30.98445 26.16124
#
# Velocity S-wave (km/s) = 3.24833 3.91431 3.59677
# Velocity P-wave (km/s) = 5.27062 7.46317 6.46059
#
# Compressibility (1/GPa) = 0.03606713
#
# Stress axis : x y z
#
# Youngs Moduli (GPa) = 143.89192 125.44045 27.16187
#
# Poissons Ratio (x) = 0.44802 0.00685
# Poissons Ratio (y) = 0.51392 0.10896
# Poissons Ratio (z) = 0.03631 0.50320
#
# Static dielectric constant tensor:
#      x y z
#    x 4.369840 0.000000 0.000000 
#    y 0.000000 3.560650 0.000000 
#    z 0.000000 0.000000 3.220910 
# 
# 
# High freq. dielectric constant tensor:
#      x y z
#    x 1.809800 0.000000 0.000000 
#    y 0.000000 1.767790 0.000000 
#    z 0.000000 0.000000 1.754740 
# 
# From -- ./inp_files/31830.got.cif
#   From: 2010.03.12/outbox.cif.g09.slc.cpg/sg72_16_cif.got.tgz:31830.got - 2010.04.16 14:54:00.
