data_PCOD8293849
_publ_section_title
;
Structure prediction by ZEFSAII (Michael W. Deem and Ramdas Pophale) SiO2 
 PCOD8293849
Probable space group: I B A M
;
_chemical_formula_sum "Si O2"
_cell_formula_units_Z 80
_cell_length_a 18.029963
_cell_length_b 27.273129
_cell_length_c 8.653052
_cell_angle_alpha 90.000000
_cell_angle_beta 90.000000
_cell_angle_gamma 90.000000
_cell_volume 4254.995604
_symmetry_space_group_name_H-M "I B A M"
_symmetry_group_IT_number 72
_symmetry_cell_setting 'orthorhombic'
loop_
_space_group_symop_operation_xyz
x,y,z
-x,-y,z
x,-y,1/2-z
-x,y,1/2-z
-x,-y,-z
x,y,-z
-x,y,1/2+z
x,-y,1/2+z
1/2+x,1/2+y,1/2+z
1/2-x,1/2-y,1/2+z
1/2+x,1/2-y,-z
1/2-x,1/2+y,-z
1/2-x,1/2-y,1/2-z
1/2+x,1/2+y,1/2-z
1/2-x,1/2+y,z
1/2+x,1/2-y,z
loop_
_atom_site_type_symbol
_atom_site_label
_atom_site_fract_x
_atom_site_fract_y
_atom_site_fract_z
Si Si1 0.849951 0.193294 0.819675
Si Si2 0.920632 0.289878 0.682332
Si Si3 0.293069 0.151170 0.181694
Si Si4 0.078738 0.909267 0.820384
Si Si5 0.777387 0.049889 0.681563
O O1 0.892855 0.240668 0.763032
O O2 0.773608 0.187892 0.725573
O O3 0.903160 0.147406 0.785632
O O4 0.830490 0.197950 0.000000
O O5 0.925406 0.281900 0.500000
O O6 0.865945 0.334430 0.723457
O O7 0.000000 0.304289 0.750000
O O8 0.272958 0.095883 0.233201
O O9 0.308319 0.155593 0.000000
O O10 0.139545 0.944086 0.743656
O O11 0.000000 0.922975 0.750000
O O12 0.077843 0.920778 0.000000
O O13 0.780377 0.046081 0.500000
O O14 0.742387 0.000000 0.750000
#
# Coordination Sequence:
#
# PCOD8293849 Si02
#       5
#    16  16  16  16  16
#     4  10  20  35  55  80 111 148 185 220 259 310
#     4  12  24  37  55  80 111 145 180 221 266 316
#     4  10  21  38  58  81 109 142 179 220 265 316
#     4  10  20  33  51  76 109 145 182 221 263 310
#     4  10  21  37  58  80 104 135 175 221 269 320
#
# _framework density 18.801431000000001
#
# number of rings (size 3 to 8) (size 9 to 14) (size 15 to 20)
#    0.000    1.600    0.000    5.400    0.000    6.800 
#    0.000    2.000    0.000    0.600    0.000    4.200 
#    0.000    0.000    0.000    0.000    0.000    0.000 
#
# Total GULP energy -496223.496258 kJ/mol
# GULP energy per Si atom -12405.587406 kJ/mol
# Density = 1.875864 g / cm^3
# Si number density = 18.801431 Si / 1000 Ang^3
#
#
#
# Elastic Constant Matrix: (Units=GPa)
#
#
# Indices 1 2 3 4 5 6 
#
# 1 86.5636 33.9443 15.3308 0.0000 0.0000 -0.0001
# 2 33.9443 95.6633 26.5893 0.0000 0.0000 0.0000
# 3 15.3308 26.5893 59.8258 -0.0001 0.0000 0.0001
# 4 0.0000 0.0000 -0.0001 32.1016 0.0000 0.0000
# 5 0.0000 0.0000 0.0000 0.0000 32.5125 0.0000
# 6 -0.0001 0.0000 0.0001 0.0000 0.0000 11.4842
#
#
#
# Elastic Compliance Matrix: (Units=1/GPa)
#
#
# Indices 1 2 3 4 5 6 
#
# 1 0.013540 -0.004381 -0.001522 0.000000 0.000000 0.000000
# 2 -0.004381 0.013344 -0.004808 0.000000 0.000000 0.000000
# 3 -0.001522 -0.004808 0.019242 0.000000 0.000000 0.000000
# 4 0.000000 0.000000 0.000000 0.031151 0.000000 0.000000
# 5 0.000000 0.000000 0.000000 0.000000 0.030757 0.000000
# 6 0.000000 0.000000 0.000000 0.000000 0.000000 0.087076
#
#
# Mechanical properties :
#
#
# Convention : Reuss Voigt Hill
#
# Bulk Modulus (GPa) = 40.48111 43.75350 42.11731
# Shear Modulus (GPa) = 22.24508 26.29888 24.27198
#
# Velocity S-wave (km/s) = 3.44344 3.74407 3.59690
# Velocity P-wave (km/s) = 6.11452 6.48172 6.30079
#
# Compressibility (1/GPa) = 0.02470288
#
# Stress axis : x y z
#
# Youngs Moduli (GPa) = 73.85615 74.93830 51.96888
#
# Poissons Ratio (x) = 0.32832 0.07912
# Poissons Ratio (y) = 0.32358 0.24987
# Poissons Ratio (z) = 0.11245 0.36031
#
# Static dielectric constant tensor:
#      x y z
#    x 3.438810 0.000000 0.000000 
#    y 0.000000 3.565760 0.000000 
#    z 0.000000 0.000000 3.570620 
# 
# 
# High freq. dielectric constant tensor:
#      x y z
#    x 1.716930 0.000000 0.000000 
#    y 0.000000 1.728440 0.000000 
#    z 0.000000 0.000000 1.748310 
# 
# From -- ./inp_files/4750.got.cif
#   From: 2010.03.12/outbox.cif.g09.slc.cpg/sg72_3_cif.got.tgz:4750.got - 2010.04.16 14:54:00.
