data_PCOD8293129
_publ_section_title
;
Structure prediction by ZEFSAII (Michael W. Deem and Ramdas Pophale) SiO2 
 PCOD8293129
Probable space group: I B A M
;
_chemical_formula_sum "Si O2"
_cell_formula_units_Z 48
_cell_length_a 12.350118
_cell_length_b 5.374739
_cell_length_c 25.087493
_cell_angle_alpha 90.000000
_cell_angle_beta 90.000000
_cell_angle_gamma 90.000000
_cell_volume 1665.274190
_symmetry_space_group_name_H-M "I B A M"
_symmetry_group_IT_number 72
_symmetry_cell_setting 'orthorhombic'
loop_
_space_group_symop_operation_xyz
x,y,z
-x,-y,z
x,-y,1/2-z
-x,y,1/2-z
-x,-y,-z
x,y,-z
-x,y,1/2+z
x,-y,1/2+z
1/2+x,1/2+y,1/2+z
1/2-x,1/2-y,1/2+z
1/2+x,1/2-y,-z
1/2-x,1/2+y,-z
1/2-x,1/2-y,1/2-z
1/2+x,1/2+y,1/2-z
1/2-x,1/2+y,z
1/2+x,1/2-y,z
loop_
_atom_site_type_symbol
_atom_site_label
_atom_site_fract_x
_atom_site_fract_y
_atom_site_fract_z
Si Si1 0.618895 0.251971 0.727138
Si Si2 0.130650 0.352305 0.061285
Si Si3 0.127466 0.850085 0.896233
O O1 0.678493 0.500000 0.750000
O O2 0.500000 0.253739 0.750000
O O3 0.621950 0.256902 0.663813
O O4 0.675656 0.000000 0.750000
O O5 0.073450 0.625913 0.068220
O O6 0.249946 0.407531 0.084995
O O7 0.072183 0.125438 0.094554
O O8 0.137331 0.272030 0.000000
#
# Coordination Sequence:
#
# PCOD8293129 Si02
#       3
#    16  16  16
#     4  10  21  37  54  75 102 144 188 223 258 305
#     4  10  19  33  53  84 113 138 169 214 269 327
#     4  10  18  32  53  79 109 142 173 215 266 318
#
# _framework density 28.824086000000001
#
# number of rings (size 3 to 8) (size 9 to 14) (size 15 to 20)
#    0.000    2.000    0.000    7.000    0.000    0.000 
#    0.000   20.000    0.000    0.000    0.000  158.667 
#    0.000    0.000    0.000    0.000    0.000    0.000 
#
# Total GULP energy -297507.435805 kJ/mol
# GULP energy per Si atom -12396.143159 kJ/mol
# Density = 2.875848 g / cm^3
# Si number density = 28.824086 Si / 1000 Ang^3
#
#
#
# Elastic Constant Matrix: (Units=GPa)
#
#
# Indices 1 2 3 4 5 6 
#
# 1 71.9747 18.2896 6.1976 0.0000 0.0000 0.0000
# 2 18.2896 349.8863 79.6741 0.0000 0.0000 0.0000
# 3 6.1976 79.6741 234.4008 0.0000 0.0000 0.0000
# 4 0.0000 0.0000 0.0000 66.6602 0.0000 0.0000
# 5 0.0000 0.0000 0.0000 0.0000 39.4176 0.0000
# 6 0.0000 0.0000 0.0000 0.0000 0.0000 -364.5775
#
#
#
# Elastic Compliance Matrix: (Units=1/GPa)
#
#
# Indices 1 2 3 4 5 6 
#
# 1 0.014085 -0.000706 -0.000132 0.000000 0.000000 0.000000
# 2 -0.000706 0.003133 -0.001046 0.000000 0.000000 0.000000
# 3 -0.000132 -0.001046 0.004625 0.000000 0.000000 0.000000
# 4 0.000000 0.000000 0.000000 0.015001 0.000000 0.000000
# 5 0.000000 0.000000 0.000000 0.000000 0.025369 0.000000
# 6 0.000000 0.000000 0.000000 0.000000 0.000000 -0.002743
#
#
# Mechanical properties :
#
#
# Convention : Reuss Voigt Hill
#
# Bulk Modulus (GPa) = 55.32949 96.06492 75.69721
# Shear Modulus (GPa) = 72.18622 -14.89324 28.64649
#
# Velocity S-wave (km/s) = 5.00980 -2.27556 3.15594
# Velocity P-wave (km/s) = 7.25957 5.14744 6.29275
#
# Compressibility (1/GPa) = 0.01807354
#
# Stress axis : x y z
#
# Youngs Moduli (GPa) = 70.99955 319.15770 216.19970
#
# Poissons Ratio (x) = 0.22536 0.02862
# Poissons Ratio (y) = 0.05013 0.22622
# Poissons Ratio (z) = 0.00940 0.33395
#
# Static dielectric constant tensor:
#      x y z
#    x 5.579480 0.000000 0.000000 
#    y 0.000000 4.749480 0.000000 
#    z 0.000000 0.000000 4.853960 
# 
# 
# High freq. dielectric constant tensor:
#      x y z
#    x 2.245090 0.000000 0.000000 
#    y 0.000000 2.227670 0.000000 
#    z 0.000000 0.000000 2.134480 
# 
# From -- ./inp_files/33039.got.cif
#   From: 2010.03.12/outbox.cif.g09.slc.cpg/sg72_17_cif.got.tgz:33039.got - 2010.04.16 14:54:00.
