data_PCOD8293630
_publ_section_title
;
Structure prediction by ZEFSAII (Michael W. Deem and Ramdas Pophale) SiO2 
 PCOD8293630
Probable space group: I B A M
;
_chemical_formula_sum "Si O2"
_cell_formula_units_Z 64
_cell_length_a 5.145410
_cell_length_b 34.529096
_cell_length_c 16.658791
_cell_angle_alpha 90.000000
_cell_angle_beta 90.000000
_cell_angle_gamma 90.000000
_cell_volume 2959.706690
_symmetry_space_group_name_H-M "I B A M"
_symmetry_group_IT_number 72
_symmetry_cell_setting 'orthorhombic'
loop_
_space_group_symop_operation_xyz
x,y,z
-x,-y,z
x,-y,1/2-z
-x,y,1/2-z
-x,-y,-z
x,y,-z
-x,y,1/2+z
x,-y,1/2+z
1/2+x,1/2+y,1/2+z
1/2-x,1/2-y,1/2+z
1/2+x,1/2-y,-z
1/2-x,1/2+y,-z
1/2-x,1/2-y,1/2-z
1/2+x,1/2+y,1/2-z
1/2-x,1/2+y,z
1/2+x,1/2-y,z
loop_
_atom_site_type_symbol
_atom_site_label
_atom_site_fract_x
_atom_site_fract_y
_atom_site_fract_z
Si Si1 0.775656 0.728205 0.904594
Si Si2 0.876935 0.358613 0.592917
Si Si3 0.386342 0.606151 0.836547
Si Si4 0.247014 0.982720 0.660435
O O1 0.018440 0.751973 0.868821
O O2 0.784551 0.683580 0.877898
O O3 0.776322 0.731012 0.000000
O O4 0.958282 0.359392 0.500000
O O5 0.632715 0.387819 0.604508
O O6 0.137415 0.367770 0.642809
O O7 0.500000 0.616848 0.750000
O O8 0.268517 0.563236 0.839538
O O9 0.500000 0.000000 0.615536
O O10 0.248107 0.000000 0.750000
O O11 0.000000 0.000000 0.613320
#
# Coordination Sequence:
#
# PCOD8293630 Si02
#       4
#    16  16  16  16
#     4   9  17  33  59  86 113 159 216 251 283 356
#     4  11  24  40  62  94 133 162 197 262 325 367
#     4  12  23  39  65  95 122 162 212 259 305 370
#     4  10  19  34  59  89 110 148 205 267 279 334
#
# _framework density 21.623764999999999
#
# number of rings (size 3 to 8) (size 9 to 14) (size 15 to 20)
#    0.000    1.500    2.500    4.500    3.500    4.000 
#    0.000    0.000    0.000   30.000    0.000    0.000 
#    0.000    0.000    0.000    0.000    0.000    0.000 
#
# Total GULP energy -396622.577356 kJ/mol
# GULP energy per Si atom -12394.455542 kJ/mol
# Density = 2.157455 g / cm^3
# Si number density = 21.623765 Si / 1000 Ang^3
#
#
#
# Elastic Constant Matrix: (Units=GPa)
#
#
# Indices 1 2 3 4 5 6 
#
# 1 192.5262 54.0632 18.8284 0.0000 0.0000 0.0000
# 2 54.0632 125.4160 35.6999 0.0001 0.0000 0.0000
# 3 18.8284 35.6999 34.1759 0.0002 0.0000 0.0000
# 4 0.0000 0.0001 0.0002 20.7161 0.0000 0.0000
# 5 0.0000 0.0000 0.0000 0.0000 2.6337 0.0000
# 6 0.0000 0.0000 0.0000 0.0000 0.0000 51.4961
#
#
#
# Elastic Compliance Matrix: (Units=1/GPa)
#
#
# Indices 1 2 3 4 5 6 
#
# 1 0.005927 -0.002313 -0.000849 0.000000 0.000000 0.000000
# 2 -0.002313 0.012250 -0.011522 0.000000 0.000000 0.000000
# 3 -0.000849 -0.011522 0.041764 0.000000 0.000000 0.000000
# 4 0.000000 0.000000 0.000000 0.048272 0.000000 0.000000
# 5 0.000000 0.000000 0.000000 0.000000 0.379695 0.000000
# 6 0.000000 0.000000 0.000000 0.000000 0.000000 0.019419
#
#
# Mechanical properties :
#
#
# Convention : Reuss Voigt Hill
#
# Bulk Modulus (GPa) = 32.70900 63.25567 47.98233
# Shear Modulus (GPa) = 9.14266 31.20428 20.17347
#
# Velocity S-wave (km/s) = 2.05846 3.80288 3.05770
# Velocity P-wave (km/s) = 4.56168 6.97129 5.89100
#
# Compressibility (1/GPa) = 0.03057263
#
# Stress axis : x y z
#
# Youngs Moduli (GPa) = 168.72859 81.62954 23.94396
#
# Poissons Ratio (x) = 0.18883 0.02032
# Poissons Ratio (y) = 0.39030 0.27589
# Poissons Ratio (z) = 0.14322 0.94056
#
# Static dielectric constant tensor:
#      x y z
#    x 2.440180 0.000000 0.000000 
#    y 0.000000 3.967220 0.000000 
#    z 0.000000 0.000000 3.384200 
# 
# 
# High freq. dielectric constant tensor:
#      x y z
#    x 1.884920 0.000000 0.000000 
#    y 0.000000 1.858250 0.000000 
#    z 0.000000 0.000000 1.793210 
# 
# From -- ./inp_files/27033.got.cif
#   From: 2010.03.12/outbox.cif.g09.slc.cpg/sg72_14_cif.got.tgz:27033.got - 2010.04.16 14:54:00.
