data_PCOD8293784
_publ_section_title
;
Structure prediction by ZEFSAII (Michael W. Deem and Ramdas Pophale) SiO2 
 PCOD8293784
Probable space group: I B A M
;
_chemical_formula_sum "Si O2"
_cell_formula_units_Z 88
_cell_length_a 12.321408
_cell_length_b 23.185115
_cell_length_c 14.915369
_cell_angle_alpha 90.000000
_cell_angle_beta 90.000000
_cell_angle_gamma 90.000000
_cell_volume 4260.922108
_symmetry_space_group_name_H-M "I B A M"
_symmetry_group_IT_number 72
_symmetry_cell_setting 'orthorhombic'
loop_
_space_group_symop_operation_xyz
x,y,z
-x,-y,z
x,-y,1/2-z
-x,y,1/2-z
-x,-y,-z
x,y,-z
-x,y,1/2+z
x,-y,1/2+z
1/2+x,1/2+y,1/2+z
1/2-x,1/2-y,1/2+z
1/2+x,1/2-y,-z
1/2-x,1/2+y,-z
1/2-x,1/2-y,1/2-z
1/2+x,1/2+y,1/2-z
1/2-x,1/2+y,z
1/2+x,1/2-y,z
loop_
_atom_site_type_symbol
_atom_site_label
_atom_site_fract_x
_atom_site_fract_y
_atom_site_fract_z
Si Si1 0.630977 0.122457 0.652297
Si Si2 0.746479 0.806759 0.500000
Si Si3 0.110244 0.372496 0.855026
Si Si4 0.826228 0.495625 0.394900
Si Si5 0.782966 0.172339 0.500000
Si Si6 0.594441 0.465817 0.600047
Si Si7 0.965573 0.861122 0.500000
O O1 0.513159 0.147934 0.623982
O O2 0.649481 0.141502 0.754570
O O3 0.632099 0.052880 0.653372
O O4 0.724664 0.147948 0.588725
O O5 0.697103 0.839498 0.414947
O O6 0.715945 0.740675 0.500000
O O7 0.878304 0.809142 0.500000
O O8 0.098948 0.440764 0.875220
O O9 0.823459 0.508690 0.500000
O O10 0.709520 0.476412 0.353256
O O11 0.909562 0.156430 0.500000
O O12 0.500000 0.500000 0.653666
O O13 0.604976 0.493925 0.500000
O O14 0.561676 0.398510 0.589788
#
# Coordination Sequence:
#
# PCOD8293784 Si02
#       7
#    16   8  16  16   8  16   8
#     4  11  25  40  66  99 136 163 221 265 329 384
#     4  12  25  44  71  87 126 172 229 262 342 379
#     4  11  23  44  64  97 135 175 205 273 323 401
#     4  11  18  34  64 101 130 168 208 257 324 399
#     4  12  27  42  70  97 120 174 225 279 317 384
#     4   8  14  27  55  86 121 162 197 241 312 378
#     4  10  19  40  61  93 125 162 209 279 317 380
#
# _framework density 20.652806000000002
#
# number of rings (size 3 to 8) (size 9 to 14) (size 15 to 20)
#    0.545    0.909    3.636    2.727    2.545    2.909 
#    0.000    0.909    0.000    1.091    0.000    0.000 
#    0.000    0.000    0.000    0.000    0.000    0.000 
#
# Total GULP energy -545172.026532 kJ/mol
# GULP energy per Si atom -12390.273330 kJ/mol
# Density = 2.060580 g / cm^3
# Si number density = 20.652806 Si / 1000 Ang^3
#
#
#
# Elastic Constant Matrix: (Units=GPa)
#
#
# Indices 1 2 3 4 5 6 
#
# 1 168.6965 36.8918 54.9533 0.0000 0.0000 0.0000
# 2 36.8918 98.1082 26.8861 -0.0002 -0.0002 0.0000
# 3 54.9533 26.8861 88.5786 -0.0001 -0.0003 0.0000
# 4 0.0000 -0.0002 -0.0001 -4.7014 -0.0002 0.0000
# 5 0.0000 -0.0002 -0.0003 -0.0002 32.9077 0.0000
# 6 0.0000 0.0000 0.0000 0.0000 0.0000 25.2094
#
#
#
# Elastic Compliance Matrix: (Units=1/GPa)
#
#
# Indices 1 2 3 4 5 6 
#
# 1 0.007689 -0.001728 -0.004246 0.000000 0.000000 0.000000
# 2 -0.001728 0.011506 -0.002421 0.000000 0.000000 0.000000
# 3 -0.004246 -0.002421 0.014658 0.000000 0.000000 0.000000
# 4 0.000000 0.000000 0.000000 -0.212701 -0.000001 0.000000
# 5 0.000000 0.000000 0.000000 -0.000001 0.030388 0.000000
# 6 0.000000 0.000000 0.000000 0.000000 0.000000 0.039668
#
#
# Mechanical properties :
#
#
# Convention : Reuss Voigt Hill
#
# Bulk Modulus (GPa) = 58.59959 65.87175 62.23567
# Shear Modulus (GPa) = -57.92573 26.45994 -15.73290
#
# Velocity S-wave (km/s) = -5.30172 3.58324 -2.76303
# Velocity P-wave (km/s) = 3.00707 7.00596 4.47443
#
# Compressibility (1/GPa) = 0.01706497
#
# Stress axis : x y z
#
# Youngs Moduli (GPa) = 130.06224 86.91251 68.22215
#
# Poissons Ratio (x) = 0.15016 0.28964
# Poissons Ratio (y) = 0.22471 0.16513
# Poissons Ratio (z) = 0.55218 0.21037
#
# Static dielectric constant tensor:
#      x y z
#    x 4.021910 0.000000 0.000000 
#    y 0.000000 3.495160 0.000000 
#    z 0.000000 0.000000 3.448320 
# 
# 
# High freq. dielectric constant tensor:
#      x y z
#    x 1.830260 0.000000 0.000000 
#    y 0.000000 1.781160 0.000000 
#    z 0.000000 0.000000 1.783720 
# 
# From -- ./inp_files/20362.got.cif
#   From: 2010.03.12/outbox.cif.g09.slc.cpg/sg72_11_cif.got.tgz:20362.got - 2010.04.16 14:54:00.
