data_PCOD8293001
_publ_section_title
;
Structure prediction by ZEFSAII (Michael W. Deem and Ramdas Pophale) SiO2 
 PCOD8293001
Probable space group: I B A M
;
_chemical_formula_sum "Si O2"
_cell_formula_units_Z 112
_cell_length_a 27.424506
_cell_length_b 12.203761
_cell_length_c 17.487028
_cell_angle_alpha 90.000000
_cell_angle_beta 90.000000
_cell_angle_gamma 90.000000
_cell_volume 5852.595547
_symmetry_space_group_name_H-M "I B A M"
_symmetry_group_IT_number 72
_symmetry_cell_setting 'orthorhombic'
loop_
_space_group_symop_operation_xyz
x,y,z
-x,-y,z
x,-y,1/2-z
-x,y,1/2-z
-x,-y,-z
x,y,-z
-x,y,1/2+z
x,-y,1/2+z
1/2+x,1/2+y,1/2+z
1/2-x,1/2-y,1/2+z
1/2+x,1/2-y,-z
1/2-x,1/2+y,-z
1/2-x,1/2-y,1/2-z
1/2+x,1/2+y,1/2-z
1/2-x,1/2+y,z
1/2+x,1/2-y,z
loop_
_atom_site_type_symbol
_atom_site_label
_atom_site_fract_x
_atom_site_fract_y
_atom_site_fract_z
Si Si1 0.102839 0.461365 0.089204
Si Si2 0.558567 0.182904 0.410799
Si Si3 0.045646 0.758696 0.409611
Si Si4 0.198990 0.992347 0.840888
Si Si5 0.303868 0.040572 0.164783
Si Si6 0.351025 0.274249 0.835683
Si Si7 0.109433 0.104301 0.803321
O O1 0.070241 0.561630 0.123595
O O2 0.078770 0.346293 0.108521
O O3 0.156946 0.463770 0.123456
O O4 0.108064 0.481185 0.000000
O O5 0.550325 0.171537 0.500000
O O6 0.508364 0.232021 0.377904
O O7 0.603153 0.263849 0.392756
O O8 0.046609 0.789031 0.500000
O O9 0.065091 0.858904 0.357927
O O10 0.184484 0.869699 0.866286
O O11 0.202696 0.000000 0.750000
O O12 0.250990 0.026891 0.877121
O O13 0.153920 0.073085 0.861546
O O14 0.318308 0.166682 0.163534
O O15 0.298737 0.000000 0.250000
O O16 0.372741 0.296997 0.751365
O O17 0.094017 0.000000 0.750000
#
# Coordination Sequence:
#
# PCOD8293001 Si02
#       7
#    16  16  16  16  16  16  16
#     4   9  18  32  50  77 110 135 163 208 256 307
#     4   9  18  33  52  75 103 137 172 204 253 315
#     4  10  19  33  55  78 102 136 173 210 254 303
#     4   8  18  33  49  70  97 132 169 207 253 303
#     4  10  18  29  51  76  97 129 171 209 248 304
#     4   9  18  33  50  70 100 135 166 205 260 307
#     4   9  19  36  52  73 104 135 172 217 258 294
#
# _framework density 19.136807999999998
#
# number of rings (size 3 to 8) (size 9 to 14) (size 15 to 20)
#    0.000    3.143    0.000    1.286    0.000    8.571 
#    0.000   10.000    0.000   12.857    0.000    0.000 
#    0.000    0.000    0.000    0.000    0.000    0.000 
#
# Total GULP energy -693986.889094 kJ/mol
# GULP energy per Si atom -12392.623020 kJ/mol
# Density = 1.909325 g / cm^3
# Si number density = 19.136808 Si / 1000 Ang^3
#
#
#
# Elastic Constant Matrix: (Units=GPa)
#
#
# Indices 1 2 3 4 5 6 
#
# 1 144.6721 59.9442 30.9496 0.0000 0.0000 0.0000
# 2 59.9442 84.4034 25.4164 0.0000 0.0000 0.0000
# 3 30.9496 25.4164 26.9049 0.0000 0.0000 0.0000
# 4 0.0000 0.0000 0.0000 25.2954 0.0000 0.0000
# 5 0.0000 0.0000 0.0000 0.0000 28.6760 0.0000
# 6 0.0000 0.0000 0.0000 0.0000 0.0000 35.3629
#
#
#
# Elastic Compliance Matrix: (Units=1/GPa)
#
#
# Indices 1 2 3 4 5 6 
#
# 1 0.010700 -0.005440 -0.007169 0.000000 0.000000 0.000000
# 2 -0.005440 0.019324 -0.011997 0.000000 0.000000 0.000000
# 3 -0.007169 -0.011997 0.056748 0.000000 0.000000 0.000000
# 4 0.000000 0.000000 0.000000 0.039533 0.000000 0.000000
# 5 0.000000 0.000000 0.000000 0.000000 0.034872 0.000000
# 6 0.000000 0.000000 0.000000 0.000000 0.000000 0.028278
#
#
# Mechanical properties :
#
#
# Convention : Reuss Voigt Hill
#
# Bulk Modulus (GPa) = 26.62452 54.28898 40.45675
# Shear Modulus (GPa) = 19.90533 27.17821 23.54177
#
# Velocity S-wave (km/s) = 3.22865 3.77265 3.51120
# Velocity P-wave (km/s) = 5.27654 6.88532 6.13390
#
# Compressibility (1/GPa) = 0.03755936
#
# Stress axis : x y z
#
# Youngs Moduli (GPa) = 93.45692 51.74802 17.62175
#
# Poissons Ratio (x) = 0.28153 0.12633
# Poissons Ratio (y) = 0.50845 0.21141
# Poissons Ratio (z) = 0.67001 0.62082
#
# Static dielectric constant tensor:
#      x y z
#    x 4.085160 0.000000 0.000000 
#    y 0.000000 3.515600 0.000000 
#    z 0.000000 0.000000 3.163060 
# 
# 
# High freq. dielectric constant tensor:
#      x y z
#    x 1.758050 0.000000 0.000000 
#    y 0.000000 1.743300 0.000000 
#    z 0.000000 0.000000 1.705620 
# 
# From -- ./inp_files/40331.got.cif
#   From: 2010.03.12/outbox.cif.g09.slc.cpg/sg72_21_cif.got.tgz:40331.got - 2010.04.16 14:54:00.
