data_PCOD8293331
_publ_section_title
;
Structure prediction by ZEFSAII (Michael W. Deem and Ramdas Pophale) SiO2 
 PCOD8293331
Probable space group: I B A M
;
_chemical_formula_sum "Si O2"
_cell_formula_units_Z 96
_cell_length_a 18.529389
_cell_length_b 19.069034
_cell_length_c 15.804219
_cell_angle_alpha 90.000000
_cell_angle_beta 90.000000
_cell_angle_gamma 90.000000
_cell_volume 5584.224003
_symmetry_space_group_name_H-M "I B A M"
_symmetry_group_IT_number 72
_symmetry_cell_setting 'orthorhombic'
loop_
_space_group_symop_operation_xyz
x,y,z
-x,-y,z
x,-y,1/2-z
-x,y,1/2-z
-x,-y,-z
x,y,-z
-x,y,1/2+z
x,-y,1/2+z
1/2+x,1/2+y,1/2+z
1/2-x,1/2-y,1/2+z
1/2+x,1/2-y,-z
1/2-x,1/2+y,-z
1/2-x,1/2-y,1/2-z
1/2+x,1/2+y,1/2-z
1/2-x,1/2+y,z
1/2+x,1/2-y,z
loop_
_atom_site_type_symbol
_atom_site_label
_atom_site_fract_x
_atom_site_fract_y
_atom_site_fract_z
Si Si1 0.650251 0.420811 0.597794
Si Si2 0.762371 0.579096 0.247701
Si Si3 0.839985 0.921163 0.905334
Si Si4 0.329708 0.219083 0.258577
Si Si5 0.949334 0.806256 0.670569
Si Si6 0.087674 0.779295 0.592407
O O1 0.672084 0.403170 0.500000
O O2 0.716528 0.407004 0.662091
O O3 0.625818 0.501791 0.606118
O O4 0.581876 0.375468 0.626532
O O5 0.793385 0.500000 0.250000
O O6 0.717518 0.593696 0.332501
O O7 0.827757 0.634698 0.251201
O O8 0.901859 0.863050 0.894119
O O9 0.804890 0.914974 0.000000
O O10 0.250000 0.250000 0.250000
O O11 0.383686 0.253845 0.191160
O O12 0.359118 0.234178 0.351157
O O13 0.000000 0.827286 0.750000
O O14 0.002776 0.764917 0.607454
O O15 0.109048 0.754235 0.500000
#
# Coordination Sequence:
#
# PCOD8293331 Si02
#       6
#    16  16  16  16  16  16
#     4  10  19  31  50  78 108 139 175 206 242 309
#     4  10  19  34  53  76 106 136 169 213 267 310
#     4   9  18  32  50  74 108 143 173 205 248 307
#     4  11  19  35  54  78 103 134 177 219 257 306
#     4  10  20  34  51  71 106 143 174 214 257 304
#     4  10  20  34  51  75 107 141 172 211 261 308
#
# _framework density 17.191288
#
# number of rings (size 3 to 8) (size 9 to 14) (size 15 to 20)
#    0.000    2.000    3.333    1.500    0.000    1.333 
#    0.000    6.667    0.000    4.500    0.000    1.167 
#    0.000    0.000    0.000    0.000    0.000    0.000 
#
# Total GULP energy -594852.736016 kJ/mol
# GULP energy per Si atom -12392.765334 kJ/mol
# Density = 1.715216 g / cm^3
# Si number density = 17.191288 Si / 1000 Ang^3
#
#
#
# Elastic Constant Matrix: (Units=GPa)
#
#
# Indices 1 2 3 4 5 6 
#
# 1 96.3211 62.6318 48.2911 0.0000 0.0000 0.0000
# 2 62.6318 100.6498 58.6030 0.0000 0.0000 0.0000
# 3 48.2911 58.6030 112.1821 0.0000 0.0000 0.0000
# 4 0.0000 0.0000 0.0000 19.3228 0.0000 0.0000
# 5 0.0000 0.0000 0.0000 0.0000 10.6233 0.0000
# 6 0.0000 0.0000 0.0000 0.0000 0.0000 26.3035
#
#
#
# Elastic Compliance Matrix: (Units=1/GPa)
#
#
# Indices 1 2 3 4 5 6 
#
# 1 0.018000 -0.009613 -0.002726 0.000000 0.000000 0.000000
# 2 -0.009613 0.019413 -0.006003 0.000000 0.000000 0.000000
# 3 -0.002726 -0.006003 0.013224 0.000000 0.000000 0.000000
# 4 0.000000 0.000000 0.000000 0.051752 0.000000 0.000000
# 5 0.000000 0.000000 0.000000 0.000000 0.094133 0.000000
# 6 0.000000 0.000000 0.000000 0.000000 0.000000 0.038018
#
#
# Mechanical properties :
#
#
# Convention : Reuss Voigt Hill
#
# Bulk Modulus (GPa) = 71.68001 72.02276 71.85139
# Shear Modulus (GPa) = 18.12418 20.55839 19.34128
#
# Velocity S-wave (km/s) = 3.25047 3.46187 3.35783
# Velocity P-wave (km/s) = 7.47485 7.61349 7.54449
#
# Compressibility (1/GPa) = 0.01395089
#
# Stress axis : x y z
#
# Youngs Moduli (GPa) = 55.55600 51.51274 75.62274
#
# Poissons Ratio (x) = 0.49521 0.20618
# Poissons Ratio (y) = 0.53408 0.45394
# Poissons Ratio (z) = 0.15147 0.30922
#
# Static dielectric constant tensor:
#      x y z
#    x 2.999210 0.000000 0.000000 
#    y 0.000000 3.334880 0.000000 
#    z 0.000000 0.000000 3.594520 
# 
# 
# High freq. dielectric constant tensor:
#      x y z
#    x 1.631000 0.000000 0.000000 
#    y 0.000000 1.655270 0.000000 
#    z 0.000000 0.000000 1.683180 
# 
# From -- ./inp_files/31641.got.cif
#   From: 2010.03.12/outbox.cif.g09.slc.cpg/sg72_16_cif.got.tgz:31641.got - 2010.04.16 14:54:00.
