data_PCOD8293518
_publ_section_title
;
Structure prediction by ZEFSAII (Michael W. Deem and Ramdas Pophale) SiO2 
 PCOD8293518
Probable space group: I B A M
;
_chemical_formula_sum "Si O2"
_cell_formula_units_Z 80
_cell_length_a 19.640198
_cell_length_b 7.938524
_cell_length_c 26.197358
_cell_angle_alpha 90.000000
_cell_angle_beta 90.000000
_cell_angle_gamma 90.000000
_cell_volume 4084.539674
_symmetry_space_group_name_H-M "I B A M"
_symmetry_group_IT_number 72
_symmetry_cell_setting 'orthorhombic'
loop_
_space_group_symop_operation_xyz
x,y,z
-x,-y,z
x,-y,1/2-z
-x,y,1/2-z
-x,-y,-z
x,y,-z
-x,y,1/2+z
x,-y,1/2+z
1/2+x,1/2+y,1/2+z
1/2-x,1/2-y,1/2+z
1/2+x,1/2-y,-z
1/2-x,1/2+y,-z
1/2-x,1/2-y,1/2-z
1/2+x,1/2+y,1/2-z
1/2-x,1/2+y,z
1/2+x,1/2-y,z
loop_
_atom_site_type_symbol
_atom_site_label
_atom_site_fract_x
_atom_site_fract_y
_atom_site_fract_z
Si Si1 0.704381 0.004392 0.000000
Si Si2 0.323632 0.182708 0.897761
Si Si3 0.220952 0.616004 0.662959
Si Si4 0.849068 0.924164 0.199330
Si Si5 0.079961 0.988200 0.900386
Si Si6 0.848539 0.117818 0.500000
O O1 0.675663 0.191040 0.000000
O O2 0.678001 0.899173 0.952567
O O3 0.786266 0.014445 0.000000
O O4 0.252521 0.283518 0.886422
O O5 0.390969 0.298228 0.896005
O O6 0.328550 0.033512 0.855797
O O7 0.178811 0.732900 0.702201
O O8 0.285896 0.549469 0.693026
O O9 0.886025 0.000000 0.250000
O O10 0.900323 0.919263 0.151882
O O11 0.000000 0.000000 0.906355
O O12 0.109029 0.085935 0.949001
#
# Coordination Sequence:
#
# PCOD8293518 Si02
#       6
#     8  16  16  16  16   8
#     4  12  20  33  60  90 108 133 177 234 295 340
#     4  10  19  33  55  82 115 147 179 230 283 336
#     4   9  18  33  54  86 115 137 176 232 295 336
#     4  10  19  34  58  85 112 144 181 232 284 334
#     4  11  24  40  54  75 112 156 193 224 266 332
#     4  12  23  37  59  84 111 141 178 232 287 340
#
# _framework density 19.58605
#
# number of rings (size 3 to 8) (size 9 to 14) (size 15 to 20)
#    0.000    1.600    0.000    8.700    0.000    0.400 
#    0.000    5.000    0.000    0.000    0.000   14.000 
#    0.000    0.000    0.000    0.000    0.000    0.000 
#
# Total GULP energy -495860.309654 kJ/mol
# GULP energy per Si atom -12396.507741 kJ/mol
# Density = 1.954147 g / cm^3
# Si number density = 19.586050 Si / 1000 Ang^3
#
#
#
# Elastic Constant Matrix: (Units=GPa)
#
#
# Indices 1 2 3 4 5 6 
#
# 1 108.3164 46.1745 31.6282 0.0000 0.0000 0.0000
# 2 46.1745 121.5176 26.4811 0.0000 0.0000 0.0000
# 3 31.6282 26.4811 103.9979 0.0000 0.0000 0.0000
# 4 0.0000 0.0000 0.0000 12.9917 0.0000 0.0000
# 5 0.0000 0.0000 0.0000 0.0000 9.5902 0.0000
# 6 0.0000 0.0000 0.0000 0.0000 0.0000 15.6783
#
#
#
# Elastic Compliance Matrix: (Units=1/GPa)
#
#
# Indices 1 2 3 4 5 6 
#
# 1 0.011623 -0.003860 -0.002552 0.000000 0.000000 0.000000
# 2 -0.003860 0.009995 -0.001371 0.000000 0.000000 0.000000
# 3 -0.002552 -0.001371 0.010741 0.000000 0.000000 0.000000
# 4 0.000000 0.000000 0.000000 0.076972 0.000000 0.000000
# 5 0.000000 0.000000 0.000000 0.000000 0.104273 0.000000
# 6 0.000000 0.000000 0.000000 0.000000 0.000000 0.063783
#
#
# Mechanical properties :
#
#
# Convention : Reuss Voigt Hill
#
# Bulk Modulus (GPa) = 59.55151 60.26660 59.90905
# Shear Modulus (GPa) = 16.74756 22.95522 19.85139
#
# Velocity S-wave (km/s) = 2.92734 3.42719 3.18708
# Velocity P-wave (km/s) = 6.47278 6.81893 6.64811
#
# Compressibility (1/GPa) = 0.01679219
#
# Stress axis : x y z
#
# Youngs Moduli (GPa) = 86.03610 100.05075 93.10340
#
# Poissons Ratio (x) = 0.38624 0.23759
# Poissons Ratio (y) = 0.33214 0.12764
# Poissons Ratio (z) = 0.21955 0.13717
#
# Static dielectric constant tensor:
#      x y z
#    x 3.180760 0.000000 0.000000 
#    y 0.000000 3.911010 0.000000 
#    z 0.000000 0.000000 3.772340 
# 
# 
# High freq. dielectric constant tensor:
#      x y z
#    x 1.712440 0.000000 0.000000 
#    y 0.000000 1.778630 0.000000 
#    z 0.000000 0.000000 1.777300 
# 
# From -- ./inp_files/45197.got.cif
#   From: 2010.03.12/outbox.cif.g09.slc.cpg/sg72_23_cif.got.tgz:45197.got - 2010.04.16 14:54:00.
