data_PCOD8293762
_publ_section_title
;
Structure prediction by ZEFSAII (Michael W. Deem and Ramdas Pophale) SiO2 
 PCOD8293762
Probable space group: I B A M
;
_chemical_formula_sum "Si O2"
_cell_formula_units_Z 104
_cell_length_a 11.480909
_cell_length_b 25.105205
_cell_length_c 17.438862
_cell_angle_alpha 90.000000
_cell_angle_beta 90.000000
_cell_angle_gamma 90.000000
_cell_volume 5026.413205
_symmetry_space_group_name_H-M "I B A M"
_symmetry_group_IT_number 72
_symmetry_cell_setting 'orthorhombic'
loop_
_space_group_symop_operation_xyz
x,y,z
-x,-y,z
x,-y,1/2-z
-x,y,1/2-z
-x,-y,-z
x,y,-z
-x,y,1/2+z
x,-y,1/2+z
1/2+x,1/2+y,1/2+z
1/2-x,1/2-y,1/2+z
1/2+x,1/2-y,-z
1/2-x,1/2+y,-z
1/2-x,1/2-y,1/2-z
1/2+x,1/2+y,1/2-z
1/2-x,1/2+y,z
1/2+x,1/2-y,z
loop_
_atom_site_type_symbol
_atom_site_label
_atom_site_fract_x
_atom_site_fract_y
_atom_site_fract_z
Si Si1 0.833808 0.584105 0.864407
Si Si2 0.801219 0.829574 0.279029
Si Si3 0.813354 0.091235 0.344700
Si Si4 0.077894 0.369898 0.411175
Si Si5 0.739441 0.000000 0.250000
Si Si6 0.819614 0.041951 0.000000
Si Si7 0.400855 0.775863 0.690471
Si Si8 0.075738 0.925351 0.500000
O O1 0.771884 0.639791 0.843745
O O2 0.840761 0.544903 0.790914
O O3 0.757662 0.553856 0.926711
O O4 0.961176 0.596781 0.895871
O O5 0.866269 0.871515 0.222940
O O6 0.721396 0.796132 0.221610
O O7 0.890416 0.788386 0.321007
O O8 0.677296 0.102777 0.360361
O O9 0.886455 0.103385 0.421403
O O10 0.820903 0.030353 0.312943
O O11 0.110953 0.373128 0.500000
O O12 0.066827 0.307346 0.387788
O O13 0.936890 0.076306 0.000000
O O14 0.858186 0.981184 0.000000
O O15 0.500000 0.790983 0.750000
#
# Coordination Sequence:
#
# PCOD8293762 Si02
#       8
#    16  16  16  16   8   8  16   8
#     4  11  21  40  60  96 124 165 206 255 314 379
#     4   9  21  36  63  88 119 156 208 252 304 373
#     4  10  21  39  63  91 122 164 205 254 309 371
#     4  11  22  37  63  92 128 160 200 256 321 379
#     4  10  22  37  61  94 128 158 211 253 302 376
#     4  11  24  39  61  82 130 164 204 253 311 362
#     4  10  19  38  61  86 117 161 201 257 310 354
#     4  11  22  43  59  86 126 170 204 257 303 369
#
# _framework density 20.690698000000001
#
# number of rings (size 3 to 8) (size 9 to 14) (size 15 to 20)
#    0.000    1.692    4.615    0.000    0.000    2.462 
#    1.385    4.615    1.692    0.000    0.000    0.000 
#    0.000    0.000    0.000    0.000    0.000    0.000 
#
# Total GULP energy -644564.849282 kJ/mol
# GULP energy per Si atom -12395.477871 kJ/mol
# Density = 2.064361 g / cm^3
# Si number density = 20.690698 Si / 1000 Ang^3
#
#
#
# Elastic Constant Matrix: (Units=GPa)
#
#
# Indices 1 2 3 4 5 6 
#
# 1 68.3230 18.7922 16.8713 0.0000 0.0000 0.0000
# 2 18.7922 97.3868 29.0667 0.0000 0.0000 0.0000
# 3 16.8713 29.0667 85.0745 0.0001 -0.0001 0.0000
# 4 0.0000 0.0000 0.0001 -5.8722 0.0000 0.0000
# 5 0.0000 0.0000 -0.0001 0.0000 10.9694 0.0000
# 6 0.0000 0.0000 0.0000 0.0000 0.0000 20.3589
#
#
#
# Elastic Compliance Matrix: (Units=1/GPa)
#
#
# Indices 1 2 3 4 5 6 
#
# 1 0.015864 -0.002363 -0.002339 0.000000 0.000000 0.000000
# 2 -0.002363 0.011786 -0.003558 0.000000 0.000000 0.000000
# 3 -0.002339 -0.003558 0.013434 0.000000 0.000000 0.000000
# 4 0.000000 0.000000 0.000000 -0.170293 -0.000001 0.000000
# 5 0.000000 0.000000 0.000000 -0.000001 0.091163 0.000000
# 6 0.000000 0.000000 0.000000 0.000000 0.000000 0.049119
#
#
# Mechanical properties :
#
#
# Convention : Reuss Voigt Hill
#
# Bulk Modulus (GPa) = 40.71000 42.24942 41.47971
# Shear Modulus (GPa) = 139.74100 17.49482 78.61791
#
# Velocity S-wave (km/s) = 8.22707 2.91097 6.17084
# Velocity P-wave (km/s) = 10.48640 5.63580 8.41804
#
# Compressibility (1/GPa) = 0.02456399
#
# Stress axis : x y z
#
# Youngs Moduli (GPa) = 63.03645 84.84372 74.43846
#
# Poissons Ratio (x) = 0.20050 0.17408
# Poissons Ratio (y) = 0.14897 0.26488
# Poissons Ratio (z) = 0.14742 0.30190
#
# Static dielectric constant tensor:
#      x y z
#    x 3.497340 0.000000 0.000000 
#    y 0.000000 4.057950 0.000000 
#    z 0.000000 0.000000 3.802030 
# 
# 
# High freq. dielectric constant tensor:
#      x y z
#    x 1.791390 0.000000 0.000000 
#    y 0.000000 1.812890 0.000000 
#    z 0.000000 0.000000 1.808760 
# 
# From -- ./inp_files/29671.got.cif
#   From: 2010.03.12/outbox.cif.g09.slc.cpg/sg72_15_cif.got.tgz:29671.got - 2010.04.16 14:54:00.
