data_PCOD8293118
_publ_section_title
;
Structure prediction by ZEFSAII (Michael W. Deem and Ramdas Pophale) SiO2 
 PCOD8293118
Probable space group: I B A M
;
_chemical_formula_sum "Si O2"
_cell_formula_units_Z 112
_cell_length_a 29.375443
_cell_length_b 14.595821
_cell_length_c 14.510332
_cell_angle_alpha 90.000000
_cell_angle_beta 90.000000
_cell_angle_gamma 90.000000
_cell_volume 6221.431198
_symmetry_space_group_name_H-M "I B A M"
_symmetry_group_IT_number 72
_symmetry_cell_setting 'orthorhombic'
loop_
_space_group_symop_operation_xyz
x,y,z
-x,-y,z
x,-y,1/2-z
-x,y,1/2-z
-x,-y,-z
x,y,-z
-x,y,1/2+z
x,-y,1/2+z
1/2+x,1/2+y,1/2+z
1/2-x,1/2-y,1/2+z
1/2+x,1/2-y,-z
1/2-x,1/2+y,-z
1/2-x,1/2-y,1/2-z
1/2+x,1/2+y,1/2-z
1/2-x,1/2+y,z
1/2+x,1/2-y,z
loop_
_atom_site_type_symbol
_atom_site_label
_atom_site_fract_x
_atom_site_fract_y
_atom_site_fract_z
Si Si1 0.199477 0.836886 0.398560
Si Si2 0.264706 0.523977 0.643357
Si Si3 0.164527 0.454624 0.152342
Si Si4 0.290253 0.269742 0.106633
Si Si5 0.570048 0.998681 0.102431
Si Si6 0.949857 0.649896 0.749390
Si Si7 0.356111 0.233766 0.733529
O O1 0.185795 0.799914 0.500000
O O2 0.244602 0.783750 0.362124
O O3 0.158822 0.823536 0.324510
O O4 0.207813 0.945377 0.409017
O O5 0.264616 0.500000 0.750000
O O6 0.212734 0.521163 0.606677
O O7 0.286581 0.621856 0.623335
O O8 0.154965 0.500000 0.250000
O O9 0.124325 0.491008 0.087650
O O10 0.162744 0.346206 0.168040
O O11 0.332299 0.231330 0.166387
O O12 0.300980 0.249449 0.000000
O O13 0.551539 0.083492 0.162099
O O14 0.557618 0.905255 0.154701
O O15 0.548015 0.997990 0.000000
O O16 0.910823 0.727877 0.755466
O O17 0.000000 0.696348 0.750000
#
# Coordination Sequence:
#
# PCOD8293118 Si02
#       7
#    16  16  16  16  16  16  16
#     4  11  23  35  53  80 110 144 183 219 262 318
#     4  11  20  34  56  75 112 153 185 216 260 314
#     4  10  18  32  51  77 108 149 183 215 255 311
#     4  11  22  35  53  80 111 145 181 220 262 317
#     4  10  19  32  54  79 107 142 182 224 268 318
#     4  10  22  38  53  74 105 139 183 233 277 326
#     4  11  20  38  53  73 109 142 179 223 269 311
#
# _framework density 18.002288
#
# number of rings (size 3 to 8) (size 9 to 14) (size 15 to 20)
#    0.000    1.429    5.714    3.429    0.000    5.143 
#    0.000    0.000    0.000    0.000    0.000    2.000 
#    0.000    2.286    0.000    0.000    0.000    0.000 
#
# Total GULP energy -694226.432052 kJ/mol
# GULP energy per Si atom -12396.900572 kJ/mol
# Density = 1.796131 g / cm^3
# Si number density = 18.002288 Si / 1000 Ang^3
#
#
#
# Elastic Constant Matrix: (Units=GPa)
#
#
# Indices 1 2 3 4 5 6 
#
# 1 136.9596 34.6843 39.5399 0.0000 0.0000 0.0000
# 2 34.6843 70.7306 7.9958 0.0000 0.0000 0.0000
# 3 39.5399 7.9958 98.5449 0.0000 0.0000 0.0000
# 4 0.0000 0.0000 0.0000 12.2916 0.0000 0.0000
# 5 0.0000 0.0000 0.0000 0.0000 0.3307 0.0000
# 6 0.0000 0.0000 0.0000 0.0000 0.0000 16.7579
#
#
#
# Elastic Compliance Matrix: (Units=1/GPa)
#
#
# Indices 1 2 3 4 5 6 
#
# 1 0.009349 -0.004199 -0.003411 0.000000 0.000000 0.000000
# 2 -0.004199 0.016155 0.000374 0.000000 0.000000 0.000000
# 3 -0.003411 0.000374 0.011486 0.000000 0.000000 0.000000
# 4 0.000000 0.000000 0.000000 0.081356 0.000000 0.000000
# 5 0.000000 0.000000 0.000000 0.000000 3.024037 0.000000
# 6 0.000000 0.000000 0.000000 0.000000 0.000000 0.059673
#
#
# Mechanical properties :
#
#
# Convention : Reuss Voigt Hill
#
# Bulk Modulus (GPa) = 44.40735 52.29723 48.35229
# Shear Modulus (GPa) = 1.55085 20.81038 11.18062
#
# Velocity S-wave (km/s) = 0.92916 3.40367 2.49482
# Velocity P-wave (km/s) = 5.08648 6.67533 5.93432
#
# Compressibility (1/GPa) = 0.02251879
#
# Stress axis : x y z
#
# Youngs Moduli (GPa) = 106.95780 61.90030 87.06409
#
# Poissons Ratio (x) = 0.25993 0.29695
# Poissons Ratio (y) = 0.44913 -0.03257
# Poissons Ratio (z) = 0.36480 -0.02315
#
# Static dielectric constant tensor:
#      x y z
#    x 3.322570 0.000000 0.000000 
#    y 0.000000 3.276180 0.000000 
#    z 0.000000 0.000000 3.409070 
# 
# 
# High freq. dielectric constant tensor:
#      x y z
#    x 1.672480 0.000000 0.000000 
#    y 0.000000 1.667780 0.000000 
#    z 0.000000 0.000000 1.709170 
# 
# From -- ./inp_files/26505.got.cif
#   From: 2010.03.12/outbox.cif.g09.slc.cpg/sg72_14_cif.got.tgz:26505.got - 2010.04.16 14:54:00.
