data_PCOD8293066
_publ_section_title
;
Structure prediction by ZEFSAII (Michael W. Deem and Ramdas Pophale) SiO2 
 PCOD8293066
Probable space group: I B A M
;
_chemical_formula_sum "Si O2"
_cell_formula_units_Z 104
_cell_length_a 18.342068
_cell_length_b 14.604822
_cell_length_c 22.792826
_cell_angle_alpha 90.000000
_cell_angle_beta 90.000000
_cell_angle_gamma 90.000000
_cell_volume 6105.802362
_symmetry_space_group_name_H-M "I B A M"
_symmetry_group_IT_number 72
_symmetry_cell_setting 'orthorhombic'
loop_
_space_group_symop_operation_xyz
x,y,z
-x,-y,z
x,-y,1/2-z
-x,y,1/2-z
-x,-y,-z
x,y,-z
-x,y,1/2+z
x,-y,1/2+z
1/2+x,1/2+y,1/2+z
1/2-x,1/2-y,1/2+z
1/2+x,1/2-y,-z
1/2-x,1/2+y,-z
1/2-x,1/2-y,1/2-z
1/2+x,1/2+y,1/2-z
1/2-x,1/2+y,z
1/2+x,1/2-y,z
loop_
_atom_site_type_symbol
_atom_site_label
_atom_site_fract_x
_atom_site_fract_y
_atom_site_fract_z
Si Si1 0.451598 0.313380 0.680348
Si Si2 0.694502 0.667535 0.626193
Si Si3 0.654297 0.491048 0.432325
Si Si4 0.717498 0.333332 0.359860
Si Si5 0.285798 0.893384 0.738156
Si Si6 0.905662 0.258428 0.798310
Si Si7 0.000000 0.000000 0.869549
O O1 0.388425 0.297782 0.633424
O O2 0.511746 0.230415 0.675939
O O3 0.413953 0.311373 0.743960
O O4 0.489967 0.411787 0.671597
O O5 0.691772 0.589903 0.576520
O O6 0.739048 0.755505 0.603749
O O7 0.727934 0.625671 0.686508
O O8 0.654307 0.464022 0.500000
O O9 0.709172 0.423689 0.397974
O O10 0.571624 0.486662 0.409506
O O11 0.758374 0.345979 0.297696
O O12 0.637769 0.293650 0.348719
O O13 0.365221 0.852257 0.720598
O O14 0.295711 0.000000 0.750000
#
# Coordination Sequence:
#
# PCOD8293066 Si02
#       7
#    16  16  16  16  16  16   8
#     4  10  18  31  48  79 108 139 166 207 255 325
#     4  10  20  34  56  77 109 139 174 218 265 321
#     4  11  23  37  54  78 105 139 186 225 260 310
#     4  11  19  36  52  79 109 141 168 214 275 314
#     4  11  19  33  53  79 109 139 167 216 271 317
#     4  10  19  30  49  78 111 137 170 201 256 331
#     4  10  21  35  52  76 106 143 167 220 272 308
#
# _framework density 17.032979000000001
#
# number of rings (size 3 to 8) (size 9 to 14) (size 15 to 20)
#    0.000    1.538    6.154    1.154    0.000    1.846 
#    0.000    1.538    0.000    0.000    0.000    0.000 
#    0.000    2.769    0.000    0.000    0.000    0.000 
#
# Total GULP energy -644371.284144 kJ/mol
# GULP energy per Si atom -12391.755464 kJ/mol
# Density = 1.699421 g / cm^3
# Si number density = 17.032979 Si / 1000 Ang^3
#
#
#
# Elastic Constant Matrix: (Units=GPa)
#
#
# Indices 1 2 3 4 5 6 
#
# 1 97.7953 44.3875 15.6263 0.0000 0.0000 0.0000
# 2 44.3875 75.0737 15.9814 0.0000 0.0000 0.0000
# 3 15.6263 15.9814 46.8973 0.0000 0.0000 0.0000
# 4 0.0000 0.0000 0.0000 14.5842 0.0000 0.0000
# 5 0.0000 0.0000 0.0000 0.0000 12.8596 0.0000
# 6 0.0000 0.0000 0.0000 0.0000 0.0000 31.3383
#
#
#
# Elastic Compliance Matrix: (Units=1/GPa)
#
#
# Indices 1 2 3 4 5 6 
#
# 1 0.014150 -0.007938 -0.002010 0.000000 0.000000 0.000000
# 2 -0.007938 0.018816 -0.003767 0.000000 0.000000 0.000000
# 3 -0.002010 -0.003767 0.023276 0.000000 0.000000 0.000000
# 4 0.000000 0.000000 0.000000 0.068567 0.000000 0.000000
# 5 0.000000 0.000000 0.000000 0.000000 0.077763 0.000000
# 6 0.000000 0.000000 0.000000 0.000000 0.000000 0.031910
#
#
# Mechanical properties :
#
#
# Convention : Reuss Voigt Hill
#
# Bulk Modulus (GPa) = 34.70725 41.30628 38.00677
# Shear Modulus (GPa) = 18.41520 21.34116 19.87818
#
# Velocity S-wave (km/s) = 3.29165 3.54352 3.41990
# Velocity P-wave (km/s) = 5.90486 6.40667 6.16088
#
# Compressibility (1/GPa) = 0.02881243
#
# Stress axis : x y z
#
# Youngs Moduli (GPa) = 70.67382 53.14746 42.96194
#
# Poissons Ratio (x) = 0.42189 0.08633
# Poissons Ratio (y) = 0.56102 0.16183
# Poissons Ratio (z) = 0.14202 0.20020
#
# Static dielectric constant tensor:
#      x y z
#    x 3.482640 0.000000 0.000000 
#    y 0.000000 3.181000 0.000000 
#    z 0.000000 0.000000 2.860000 
# 
# 
# High freq. dielectric constant tensor:
#      x y z
#    x 1.669590 0.000000 0.000000 
#    y 0.000000 1.648370 0.000000 
#    z 0.000000 0.000000 1.621260 
# 
# From -- ./inp_files/39083.got.cif
#   From: 2010.03.12/outbox.cif.g09.slc.cpg/sg72_20_cif.got.tgz:39083.got - 2010.04.16 14:54:00.
