data_PCOD8293464
_publ_section_title
;
Structure prediction by ZEFSAII (Michael W. Deem and Ramdas Pophale) SiO2 
 PCOD8293464
Probable space group: I B A M
;
_chemical_formula_sum "Si O2"
_cell_formula_units_Z 116
_cell_length_a 19.026963
_cell_length_b 24.191907
_cell_length_c 13.674261
_cell_angle_alpha 90.000000
_cell_angle_beta 90.000000
_cell_angle_gamma 90.000000
_cell_volume 6294.242092
_symmetry_space_group_name_H-M "I B A M"
_symmetry_group_IT_number 72
_symmetry_cell_setting 'orthorhombic'
loop_
_space_group_symop_operation_xyz
x,y,z
-x,-y,z
x,-y,1/2-z
-x,y,1/2-z
-x,-y,-z
x,y,-z
-x,y,1/2+z
x,-y,1/2+z
1/2+x,1/2+y,1/2+z
1/2-x,1/2-y,1/2+z
1/2+x,1/2-y,-z
1/2-x,1/2+y,-z
1/2-x,1/2-y,1/2-z
1/2+x,1/2+y,1/2-z
1/2-x,1/2+y,z
1/2+x,1/2-y,z
loop_
_atom_site_type_symbol
_atom_site_label
_atom_site_fract_x
_atom_site_fract_y
_atom_site_fract_z
Si Si1 0.247997 0.002444 0.110081
Si Si2 0.500000 0.000000 0.250000
Si Si3 0.391189 0.944840 0.614401
Si Si4 0.406815 0.242197 0.110307
Si Si5 0.156756 0.658555 0.239859
Si Si6 0.932858 0.724671 0.114438
Si Si7 0.578095 0.331182 0.247273
Si Si8 0.208459 0.094017 0.246647
O O1 0.216057 0.951123 0.168078
O O2 0.332784 0.006220 0.120833
O O3 0.220212 0.062096 0.145028
O O4 0.223551 0.994008 0.000000
O O5 0.458245 0.963200 0.326225
O O6 0.407771 0.931366 0.500000
O O7 0.369492 0.890671 0.672217
O O8 0.345820 0.211875 0.170656
O O9 0.483544 0.213929 0.128095
O O10 0.408904 0.305162 0.145895
O O11 0.382857 0.241299 0.000000
O O12 0.109428 0.673288 0.335877
O O13 0.236783 0.643874 0.269032
O O14 0.913031 0.783277 0.164729
O O15 0.912889 0.727612 0.000000
O O16 0.500000 0.356712 0.250000
O O17 0.631085 0.381563 0.234962
#
# Coordination Sequence:
#
# PCOD8293464 Si02
#       8
#    16   4  16  16  16  16  16  16
#     4   9  20  40  56  72 104 139 172 216 273 323
#     4  12  22  32  52  78 108 136 188 240 260 300
#     4  10  21  36  52  73 105 144 181 222 271 313
#     4   9  18  33  51  74 109 146 175 209 258 314
#     4  10  19  33  51  76 105 139 182 224 257 312
#     4   9  19  34  51  76 112 148 177 213 262 315
#     4   9  19  36  56  77 107 137 170 212 270 332
#     4  10  20  35  57  80  99 136 177 221 268 319
#
# _framework density 18.429542999999999
#
# number of rings (size 3 to 8) (size 9 to 14) (size 15 to 20)
#    0.000    2.483    0.000    3.517    1.931    4.414 
#    0.000    3.448    0.000    0.828    0.000    0.000 
#    0.000    0.000    0.000    0.000    0.000    0.000 
#
# Total GULP energy -718680.445655 kJ/mol
# GULP energy per Si atom -12391.042166 kJ/mol
# Density = 1.838760 g / cm^3
# Si number density = 18.429543 Si / 1000 Ang^3
#
#
#
# Elastic Constant Matrix: (Units=GPa)
#
#
# Indices 1 2 3 4 5 6 
#
# 1 96.0476 52.7705 33.8643 0.0000 0.0000 0.0000
# 2 52.7705 70.4621 31.7212 0.0000 0.0000 0.0000
# 3 33.8643 31.7212 122.4868 0.0000 0.0000 0.0000
# 4 0.0000 0.0000 0.0000 18.7529 0.0000 0.0000
# 5 0.0000 0.0000 0.0000 0.0000 16.7603 0.0000
# 6 0.0000 0.0000 0.0000 0.0000 0.0000 12.7600
#
#
#
# Elastic Compliance Matrix: (Units=1/GPa)
#
#
# Indices 1 2 3 4 5 6 
#
# 1 0.017991 -0.012717 -0.001681 0.000000 0.000000 0.000000
# 2 -0.012717 0.025055 -0.002973 0.000000 0.000000 0.000000
# 3 -0.001681 -0.002973 0.009399 0.000000 0.000000 0.000000
# 4 0.000000 0.000000 0.000000 0.053325 0.000000 0.000000
# 5 0.000000 0.000000 0.000000 0.000000 0.059665 0.000000
# 6 0.000000 0.000000 0.000000 0.000000 0.000000 0.078370
#
#
# Mechanical properties :
#
#
# Convention : Reuss Voigt Hill
#
# Bulk Modulus (GPa) = 56.48650 58.41206 57.44928
# Shear Modulus (GPa) = 17.57801 21.03067 19.30434
#
# Velocity S-wave (km/s) = 3.09171 3.38174 3.23997
# Velocity P-wave (km/s) = 6.59253 6.85652 6.72582
#
# Compressibility (1/GPa) = 0.01770334
#
# Stress axis : x y z
#
# Youngs Moduli (GPa) = 55.58247 39.91283 106.39891
#
# Poissons Ratio (x) = 0.50759 0.17881
# Poissons Ratio (y) = 0.70687 0.31627
# Poissons Ratio (z) = 0.09341 0.11864
#
# Static dielectric constant tensor:
#      x y z
#    x 3.331000 0.000000 0.000000 
#    y 0.000000 3.421980 0.000000 
#    z 0.000000 0.000000 3.583350 
# 
# 
# High freq. dielectric constant tensor:
#      x y z
#    x 1.696310 0.000000 0.000000 
#    y 0.000000 1.699630 0.000000 
#    z 0.000000 0.000000 1.726360 
# 
# From -- ./inp_files/23625.got.cif
#   From: 2010.03.12/outbox.cif.g09.slc.cpg/sg72_12_cif.got.tgz:23625.got - 2010.04.16 14:54:00.
