data_PCOD8293226
_publ_section_title
;
Structure prediction by ZEFSAII (Michael W. Deem and Ramdas Pophale) SiO2 
 PCOD8293226
Probable space group: I B A M
;
_chemical_formula_sum "Si O2"
_cell_formula_units_Z 80
_cell_length_a 37.170644
_cell_length_b 18.216785
_cell_length_c 8.973503
_cell_angle_alpha 90.000000
_cell_angle_beta 90.000000
_cell_angle_gamma 90.000000
_cell_volume 6076.224767
_symmetry_space_group_name_H-M "I B A M"
_symmetry_group_IT_number 72
_symmetry_cell_setting 'orthorhombic'
loop_
_space_group_symop_operation_xyz
x,y,z
-x,-y,z
x,-y,1/2-z
-x,y,1/2-z
-x,-y,-z
x,y,-z
-x,y,1/2+z
x,-y,1/2+z
1/2+x,1/2+y,1/2+z
1/2-x,1/2-y,1/2+z
1/2+x,1/2-y,-z
1/2-x,1/2+y,-z
1/2-x,1/2-y,1/2-z
1/2+x,1/2+y,1/2-z
1/2-x,1/2+y,z
1/2+x,1/2-y,z
loop_
_atom_site_type_symbol
_atom_site_label
_atom_site_fract_x
_atom_site_fract_y
_atom_site_fract_z
Si Si1 0.386933 0.578982 0.673947
Si Si2 0.284411 0.783942 0.673464
Si Si3 0.966751 0.078199 0.171955
Si Si4 0.675193 0.666628 0.323068
Si Si5 0.244809 0.924145 0.329089
O O1 0.382685 0.500000 0.750000
O O2 0.377068 0.570399 0.500000
O O3 0.427154 0.613130 0.693292
O O4 0.361305 0.636380 0.754394
O O5 0.285351 0.762819 0.500000
O O6 0.250000 0.750000 0.750000
O O7 0.319015 0.748956 0.756154
O O8 0.279944 0.871951 0.693975
O O9 0.000000 0.123186 0.250000
O O10 0.964975 0.000000 0.250000
O O11 0.976225 0.068958 0.000000
O O12 0.672217 0.672013 0.500000
O O13 0.708286 0.614804 0.270477
O O14 0.238706 0.942559 0.500000
O O15 0.252668 0.000000 0.250000
#
# Coordination Sequence:
#
# PCOD8293226 Si02
#       5
#    16  16  16  16  16
#     4  10  19  28  38  54  74  96 122 155 190 223
#     4   9  17  29  41  54  72  94 120 150 184 223
#     4   9  16  25  37  51  68  91 119 149 183 217
#     4  10  19  29  40  55  73  96 124 153 188 225
#     4   9  18  28  39  55  72  91 118 150 184 219
#
# _framework density 13.166069
#
# number of rings (size 3 to 8) (size 9 to 14) (size 15 to 20)
#    0.000    2.600    0.000    4.800    0.000    8.800 
#    0.000    0.000    0.000    0.000    0.000    0.000 
#    0.000    0.000    0.000    0.000    0.000    1.000 
#
# Total GULP energy -495568.180609 kJ/mol
# GULP energy per Si atom -12389.204515 kJ/mol
# Density = 1.313610 g / cm^3
# Si number density = 13.166069 Si / 1000 Ang^3
#
#
#
# Elastic Constant Matrix: (Units=GPa)
#
#
# Indices 1 2 3 4 5 6 
#
# 1 87.7951 38.6495 47.5148 0.0000 0.0000 0.0000
# 2 38.6495 58.3120 37.3034 0.0000 0.0000 0.0000
# 3 47.5148 37.3034 92.9327 0.0000 0.0000 0.0000
# 4 0.0000 0.0000 0.0000 21.1722 0.0000 0.0000
# 5 0.0000 0.0000 0.0000 0.0000 22.9816 0.0000
# 6 0.0000 0.0000 0.0000 0.0000 0.0000 14.5683
#
#
#
# Elastic Compliance Matrix: (Units=1/GPa)
#
#
# Indices 1 2 3 4 5 6 
#
# 1 0.018295 -0.008265 -0.006037 0.000000 0.000000 0.000000
# 2 -0.008265 0.026808 -0.006535 0.000000 0.000000 0.000000
# 3 -0.006037 -0.006535 0.016470 0.000000 0.000000 0.000000
# 4 0.000000 0.000000 0.000000 0.047232 0.000000 0.000000
# 5 0.000000 0.000000 0.000000 0.000000 0.043513 0.000000
# 6 0.000000 0.000000 0.000000 0.000000 0.000000 0.068642
#
#
# Mechanical properties :
#
#
# Convention : Reuss Voigt Hill
#
# Bulk Modulus (GPa) = 50.25014 53.99723 52.12369
# Shear Modulus (GPa) = 18.56896 19.44922 19.00909
#
# Velocity S-wave (km/s) = 3.75956 3.84764 3.80385
# Velocity P-wave (km/s) = 7.55612 7.80003 7.67904
#
# Compressibility (1/GPa) = 0.01990044
#
# Stress axis : x y z
#
# Youngs Moduli (GPa) = 54.65834 37.30293 60.71585
#
# Poissons Ratio (x) = 0.30829 0.36653
# Poissons Ratio (y) = 0.45172 0.39679
# Poissons Ratio (z) = 0.32996 0.24378
#
# Static dielectric constant tensor:
#      x y z
#    x 3.114590 0.000000 0.000000 
#    y 0.000000 2.579290 0.000000 
#    z 0.000000 0.000000 2.839270 
# 
# 
# High freq. dielectric constant tensor:
#      x y z
#    x 1.486420 0.000000 0.000000 
#    y 0.000000 1.457690 0.000000 
#    z 0.000000 0.000000 1.522830 
# 
# From -- ./inp_files/9103.got.cif
#   From: 2010.03.12/outbox.cif.g09.slc.cpg/sg72_5_cif.got.tgz:9103.got - 2010.04.16 14:54:00.
