data_PCOD8293455
_publ_section_title
;
Structure prediction by ZEFSAII (Michael W. Deem and Ramdas Pophale) SiO2 
 PCOD8293455
Probable space group: I B A M
;
_chemical_formula_sum "Si O2"
_cell_formula_units_Z 96
_cell_length_a 9.524767
_cell_length_b 25.737724
_cell_length_c 22.796474
_cell_angle_alpha 90.000000
_cell_angle_beta 90.000000
_cell_angle_gamma 90.000000
_cell_volume 5588.460408
_symmetry_space_group_name_H-M "I B A M"
_symmetry_group_IT_number 72
_symmetry_cell_setting 'orthorhombic'
loop_
_space_group_symop_operation_xyz
x,y,z
-x,-y,z
x,-y,1/2-z
-x,y,1/2-z
-x,-y,-z
x,y,-z
-x,y,1/2+z
x,-y,1/2+z
1/2+x,1/2+y,1/2+z
1/2-x,1/2-y,1/2+z
1/2+x,1/2-y,-z
1/2-x,1/2+y,-z
1/2-x,1/2-y,1/2-z
1/2+x,1/2+y,1/2-z
1/2-x,1/2+y,z
1/2+x,1/2-y,z
loop_
_atom_site_type_symbol
_atom_site_label
_atom_site_fract_x
_atom_site_fract_y
_atom_site_fract_z
Si Si1 0.777476 0.642447 0.691975
Si Si2 0.980761 0.712606 0.375615
Si Si3 0.123582 0.279055 0.500000
Si Si4 0.288408 0.140856 0.669081
Si Si5 0.506811 0.057467 0.680850
Si Si6 0.006396 0.835859 0.624620
Si Si7 0.064827 0.816173 0.500000
O O1 0.862394 0.692258 0.668689
O O2 0.777000 0.647856 0.761537
O O3 0.850613 0.589615 0.667688
O O4 0.618623 0.642522 0.670396
O O5 0.938581 0.694219 0.441417
O O6 0.988894 0.774228 0.369414
O O7 0.132803 0.690161 0.359159
O O8 0.074830 0.219302 0.500000
O O9 0.293092 0.281494 0.500000
O O10 0.374563 0.088644 0.654839
O O11 0.137735 0.135114 0.639165
O O12 0.500000 0.052153 0.750000
O O13 0.500000 0.000000 0.651963
O O14 0.057605 0.850909 0.558793
#
# Coordination Sequence:
#
# PCOD8293455 Si02
#       7
#    16  16   8  16  16  16   8
#     4  10  19  33  49  75 105 133 166 201 251 308
#     4  10  20  32  49  69 103 140 174 203 236 289
#     4  10  20  34  50  68  93 136 188 214 236 274
#     4  10  21  31  49  78 103 132 167 202 250 309
#     4   8  16  34  55  72  96 128 165 209 251 298
#     4  11  21  32  48  73 107 136 169 207 244 288
#     4  10  22  34  50  68  97 139 182 215 241 273
#
# _framework density 17.178256000000001
#
# number of rings (size 3 to 8) (size 9 to 14) (size 15 to 20)
#    0.000    2.167    1.667    3.000    7.000    4.000 
#    0.000    0.833    0.000    4.000    0.000   22.167 
#    0.000    0.000    0.000    0.000    0.000    0.000 
#
# Total GULP energy -595060.788201 kJ/mol
# GULP energy per Si atom -12397.099754 kJ/mol
# Density = 1.713916 g / cm^3
# Si number density = 17.178256 Si / 1000 Ang^3
#
#
#
# Elastic Constant Matrix: (Units=GPa)
#
#
# Indices 1 2 3 4 5 6 
#
# 1 139.9127 38.5337 37.1308 0.0000 0.0000 0.0000
# 2 38.5337 88.2054 23.4252 0.0000 0.0000 0.0000
# 3 37.1308 23.4252 90.0021 0.0000 0.0000 0.0000
# 4 0.0000 0.0000 0.0000 3.9621 0.0000 0.0000
# 5 0.0000 0.0000 0.0000 0.0000 29.5746 0.0000
# 6 0.0000 0.0000 0.0000 0.0000 0.0000 7.6363
#
#
#
# Elastic Compliance Matrix: (Units=1/GPa)
#
#
# Indices 1 2 3 4 5 6 
#
# 1 0.008738 -0.003072 -0.002805 0.000000 0.000000 0.000000
# 2 -0.003072 0.013259 -0.002184 0.000000 0.000000 0.000000
# 3 -0.002805 -0.002184 0.012836 0.000000 0.000000 0.000000
# 4 0.000000 0.000000 0.000000 0.252389 0.000000 0.000000
# 5 0.000000 0.000000 0.000000 0.000000 0.033813 0.000000
# 6 0.000000 0.000000 0.000000 0.000000 0.000000 0.130954
#
#
# Mechanical properties :
#
#
# Convention : Reuss Voigt Hill
#
# Bulk Modulus (GPa) = 53.44302 57.36661 55.40482
# Shear Modulus (GPa) = 10.54077 22.83665 16.68871
#
# Velocity S-wave (km/s) = 2.47980 3.65004 3.12027
# Velocity P-wave (km/s) = 6.27516 7.15759 6.73085
#
# Compressibility (1/GPa) = 0.01871152
#
# Stress axis : x y z
#
# Youngs Moduli (GPa) = 114.44361 75.41916 77.90297
#
# Poissons Ratio (x) = 0.23171 0.21854
# Poissons Ratio (y) = 0.35160 0.17010
# Poissons Ratio (z) = 0.32104 0.16468
#
# Static dielectric constant tensor:
#      x y z
#    x 3.334690 0.000000 0.000000 
#    y 0.000000 3.191290 0.000000 
#    z 0.000000 0.000000 3.429480 
# 
# 
# High freq. dielectric constant tensor:
#      x y z
#    x 1.676420 0.000000 0.000000 
#    y 0.000000 1.620740 0.000000 
#    z 0.000000 0.000000 1.662760 
# 
# From -- ./inp_files/42606.got.cif
#   From: 2010.03.12/outbox.cif.g09.slc.cpg/sg72_22_cif.got.tgz:42606.got - 2010.04.16 14:54:00.
