data_PCOD8293974
_publ_section_title
;
Structure prediction by ZEFSAII (Michael W. Deem and Ramdas Pophale) SiO2 
 PCOD8293974
Probable space group: I B A M
;
_chemical_formula_sum "Si O2"
_cell_formula_units_Z 64
_cell_length_a 19.252867
_cell_length_b 9.100422
_cell_length_c 18.740539
_cell_angle_alpha 90.000000
_cell_angle_beta 90.000000
_cell_angle_gamma 90.000000
_cell_volume 3283.515116
_symmetry_space_group_name_H-M "I B A M"
_symmetry_group_IT_number 72
_symmetry_cell_setting 'orthorhombic'
loop_
_space_group_symop_operation_xyz
x,y,z
-x,-y,z
x,-y,1/2-z
-x,y,1/2-z
-x,-y,-z
x,y,-z
-x,y,1/2+z
x,-y,1/2+z
1/2+x,1/2+y,1/2+z
1/2-x,1/2-y,1/2+z
1/2+x,1/2-y,-z
1/2-x,1/2+y,-z
1/2-x,1/2-y,1/2-z
1/2+x,1/2+y,1/2-z
1/2-x,1/2+y,z
1/2+x,1/2-y,z
loop_
_atom_site_type_symbol
_atom_site_label
_atom_site_fract_x
_atom_site_fract_y
_atom_site_fract_z
Si Si1 0.076478 0.143010 0.783234
Si Si2 0.846841 0.103086 0.579704
Si Si3 0.684756 0.160034 0.723221
Si Si4 0.285802 0.283855 0.080447
O O1 0.085896 0.122399 0.868840
O O2 0.114002 0.290748 0.760433
O O3 0.000000 0.149986 0.750000
O O4 0.114454 0.000000 0.750000
O O5 0.877423 0.095159 0.500000
O O6 0.796237 0.244646 0.588627
O O7 0.801151 0.955911 0.596203
O O8 0.750000 0.250000 0.750000
O O9 0.674244 0.181574 0.637911
O O10 0.700531 0.000000 0.750000
O O11 0.310337 0.242178 0.000000
#
# Coordination Sequence:
#
# PCOD8293974 Si02
#       4
#    16  16  16  16
#     4  11  23  40  58  83 122 159 205 251 292 354
#     4  10  20  36  59  91 123 156 197 250 311 362
#     4  12  22  36  62  89 117 156 202 250 306 358
#     4  10  20  34  56  91 123 150 193 248 306 361
#
# _framework density 19.491306999999999
#
# number of rings (size 3 to 8) (size 9 to 14) (size 15 to 20)
#    0.000    1.250    5.000    2.250    0.000    0.500 
#    0.000    3.750    0.000    0.000    0.000    3.500 
#    0.000    0.000    0.000    0.000    0.000    0.000 
#
# Total GULP energy -396432.259793 kJ/mol
# GULP energy per Si atom -12388.508119 kJ/mol
# Density = 1.944694 g / cm^3
# Si number density = 19.491307 Si / 1000 Ang^3
#
#
#
# Elastic Constant Matrix: (Units=GPa)
#
#
# Indices 1 2 3 4 5 6 
#
# 1 90.2960 55.5315 68.2078 0.0000 0.0000 0.0000
# 2 55.5315 106.5787 49.0330 0.0000 0.0000 0.0000
# 3 68.2078 49.0330 182.5601 0.0000 0.0000 0.0000
# 4 0.0000 0.0000 0.0000 26.7750 0.0000 0.0000
# 5 0.0000 0.0000 0.0000 0.0000 33.6079 0.0000
# 6 0.0000 0.0000 0.0000 0.0000 0.0000 18.9207
#
#
#
# Elastic Compliance Matrix: (Units=1/GPa)
#
#
# Indices 1 2 3 4 5 6 
#
# 1 0.020005 -0.007969 -0.005334 0.000000 0.000000 0.000000
# 2 -0.007969 0.013880 -0.000751 0.000000 0.000000 0.000000
# 3 -0.005334 -0.000751 0.007672 0.000000 0.000000 0.000000
# 4 0.000000 0.000000 0.000000 0.037348 0.000000 0.000000
# 5 0.000000 0.000000 0.000000 0.000000 0.029755 0.000000
# 6 0.000000 0.000000 0.000000 0.000000 0.000000 0.052852
#
#
# Mechanical properties :
#
#
# Convention : Reuss Voigt Hill
#
# Bulk Modulus (GPa) = 74.35008 80.55326 77.45167
# Shear Modulus (GPa) = 25.75951 29.63823 27.69887
#
# Velocity S-wave (km/s) = 3.63931 3.90370 3.77382
# Velocity P-wave (km/s) = 7.47579 7.85723 7.66888
#
# Compressibility (1/GPa) = 0.01344988
#
# Stress axis : x y z
#
# Youngs Moduli (GPa) = 49.98806 72.04400 130.34418
#
# Poissons Ratio (x) = 0.57415 0.69521
# Poissons Ratio (y) = 0.39838 0.09783
# Poissons Ratio (z) = 0.26662 0.05407
#
# Static dielectric constant tensor:
#      x y z
#    x 3.230700 0.000000 0.000000 
#    y 0.000000 3.440890 0.000000 
#    z 0.000000 0.000000 4.167340 
# 
# 
# High freq. dielectric constant tensor:
#      x y z
#    x 1.710510 0.000000 0.000000 
#    y 0.000000 1.758590 0.000000 
#    z 0.000000 0.000000 1.787470 
# 
# From -- ./inp_files/27630.got.cif
#   From: 2010.03.12/outbox.cif.g09.slc.cpg/sg72_14_cif.got.tgz:27630.got - 2010.04.16 14:54:00.
