data_PCOD8293267
_publ_section_title
;
Structure prediction by ZEFSAII (Michael W. Deem and Ramdas Pophale) SiO2 
 PCOD8293267
Probable space group: I B A M
;
_chemical_formula_sum "Si O2"
_cell_formula_units_Z 128
_cell_length_a 19.191205
_cell_length_b 19.908579
_cell_length_c 18.379627
_cell_angle_alpha 90.000000
_cell_angle_beta 90.000000
_cell_angle_gamma 90.000000
_cell_volume 7022.297119
_symmetry_space_group_name_H-M "I B A M"
_symmetry_group_IT_number 72
_symmetry_cell_setting 'orthorhombic'
loop_
_space_group_symop_operation_xyz
x,y,z
-x,-y,z
x,-y,1/2-z
-x,y,1/2-z
-x,-y,-z
x,y,-z
-x,y,1/2+z
x,-y,1/2+z
1/2+x,1/2+y,1/2+z
1/2-x,1/2-y,1/2+z
1/2+x,1/2-y,-z
1/2-x,1/2+y,-z
1/2-x,1/2-y,1/2-z
1/2+x,1/2+y,1/2-z
1/2-x,1/2+y,z
1/2+x,1/2-y,z
loop_
_atom_site_type_symbol
_atom_site_label
_atom_site_fract_x
_atom_site_fract_y
_atom_site_fract_z
Si Si1 0.904433 0.117183 0.082609
Si Si2 0.389548 0.483932 0.332747
Si Si3 0.556153 0.643188 0.415188
Si Si4 0.604621 0.037219 0.585580
Si Si5 0.231218 0.499962 0.666349
Si Si6 0.466190 0.099502 0.586235
Si Si7 0.877598 0.278813 0.585730
Si Si8 0.248169 0.137778 0.585318
O O1 0.832579 0.155871 0.105054
O O2 0.973763 0.162354 0.093504
O O3 0.914950 0.048600 0.124816
O O4 0.896327 0.094672 0.000000
O O5 0.409339 0.500000 0.250000
O O6 0.429253 0.419629 0.363570
O O7 0.307829 0.469357 0.342872
O O8 0.573044 0.626585 0.500000
O O9 0.602278 0.705188 0.384669
O O10 0.617685 0.038798 0.500000
O O11 0.547719 0.093701 0.608788
O O12 0.678052 0.050109 0.625220
O O13 0.576188 0.965356 0.613300
O O14 0.208982 0.500000 0.750000
O O15 0.227398 0.574043 0.631726
O O16 0.460939 0.099831 0.500000
O O17 0.431121 0.166322 0.619471
O O18 0.888718 0.276936 0.500000
O O19 0.797895 0.299058 0.605789
O O20 0.257844 0.120213 0.500000
#
# Coordination Sequence:
#
# PCOD8293267 Si02
#       8
#    16  16  16  16  16  16  16  16
#     4   9  18  32  52  77 101 125 163 211 253 293
#     4  10  21  35  52  72  98 132 171 211 254 304
#     4  10  20  33  51  79 107 128 158 211 265 301
#     4   9  15  26  47  73  98 128 172 212 244 289
#     4  10  19  30  47  72 102 130 167 217 259 290
#     4   8  14  25  45  73  99 127 166 206 240 288
#     4   9  16  29  51  76 104 134 165 200 247 307
#     4   9  16  30  53  75  96 133 172 196 237 309
#
# _framework density 18.227653
#
# number of rings (size 3 to 8) (size 9 to 14) (size 15 to 20)
#    0.000    2.750    1.250    1.875    0.000    3.500 
#    0.000    2.500    0.000   14.250    0.000    0.000 
#    0.000    0.000    0.000    0.000    0.000    0.000 
#
# Total GULP energy -793061.343470 kJ/mol
# GULP energy per Si atom -12391.583492 kJ/mol
# Density = 1.818617 g / cm^3
# Si number density = 18.227653 Si / 1000 Ang^3
#
#
#
# Elastic Constant Matrix: (Units=GPa)
#
#
# Indices 1 2 3 4 5 6 
#
# 1 134.5511 53.2172 39.5863 0.0000 0.0000 0.0000
# 2 53.2172 83.1818 28.4045 0.0000 0.0000 0.0000
# 3 39.5863 28.4045 51.0004 0.0000 0.0000 0.0000
# 4 0.0000 0.0000 0.0000 6.6766 0.0000 0.0000
# 5 0.0000 0.0000 0.0000 0.0000 18.4482 0.0000
# 6 0.0000 0.0000 0.0000 0.0000 0.0000 28.0648
#
#
#
# Elastic Compliance Matrix: (Units=1/GPa)
#
#
# Indices 1 2 3 4 5 6 
#
# 1 0.011185 -0.005176 -0.005799 0.000000 0.000000 0.000000
# 2 -0.005176 0.017240 -0.005584 0.000000 0.000000 0.000000
# 3 -0.005799 -0.005584 0.027219 0.000000 0.000000 0.000000
# 4 0.000000 0.000000 0.000000 0.149776 0.000000 0.000000
# 5 0.000000 0.000000 0.000000 0.000000 0.054206 0.000000
# 6 0.000000 0.000000 0.000000 0.000000 0.000000 0.035632
#
#
# Mechanical properties :
#
#
# Convention : Reuss Voigt Hill
#
# Bulk Modulus (GPa) = 44.39376 56.79436 50.59406
# Shear Modulus (GPa) = 14.88598 20.47297 17.67947
#
# Velocity S-wave (km/s) = 2.86084 3.35503 3.11774
# Velocity P-wave (km/s) = 5.94312 6.79958 6.38572
#
# Compressibility (1/GPa) = 0.02252569
#
# Stress axis : x y z
#
# Youngs Moduli (GPa) = 89.40154 58.00431 36.73847
#
# Poissons Ratio (x) = 0.30022 0.21306
# Poissons Ratio (y) = 0.46272 0.20516
# Poissons Ratio (z) = 0.51848 0.32392
#
# Static dielectric constant tensor:
#      x y z
#    x 3.793280 0.000000 0.000000 
#    y 0.000000 3.232180 0.000000 
#    z 0.000000 0.000000 3.100440 
# 
# 
# High freq. dielectric constant tensor:
#      x y z
#    x 1.729200 0.000000 0.000000 
#    y 0.000000 1.668670 0.000000 
#    z 0.000000 0.000000 1.672780 
# 
# From -- ./inp_files/39341.got.cif
#   From: 2010.03.12/outbox.cif.g09.slc.cpg/sg72_20_cif.got.tgz:39341.got - 2010.04.16 14:54:00.
