data_PCOD8293483
_publ_section_title
;
Structure prediction by ZEFSAII (Michael W. Deem and Ramdas Pophale) SiO2 
 PCOD8293483
Probable space group: I B A M
;
_chemical_formula_sum "Si O2"
_cell_formula_units_Z 88
_cell_length_a 5.104666
_cell_length_b 34.408570
_cell_length_c 26.124108
_cell_angle_alpha 90.000000
_cell_angle_beta 90.000000
_cell_angle_gamma 90.000000
_cell_volume 4588.549550
_symmetry_space_group_name_H-M "I B A M"
_symmetry_group_IT_number 72
_symmetry_cell_setting 'orthorhombic'
loop_
_space_group_symop_operation_xyz
x,y,z
-x,-y,z
x,-y,1/2-z
-x,y,1/2-z
-x,-y,-z
x,y,-z
-x,y,1/2+z
x,-y,1/2+z
1/2+x,1/2+y,1/2+z
1/2-x,1/2-y,1/2+z
1/2+x,1/2-y,-z
1/2-x,1/2+y,-z
1/2-x,1/2-y,1/2-z
1/2+x,1/2+y,1/2-z
1/2-x,1/2+y,z
1/2+x,1/2-y,z
loop_
_atom_site_type_symbol
_atom_site_label
_atom_site_fract_x
_atom_site_fract_y
_atom_site_fract_z
Si Si1 0.022772 0.141202 0.349664
Si Si2 0.020837 0.776331 0.889450
Si Si3 0.429127 0.273464 0.500000
Si Si4 0.487341 0.954294 0.899459
Si Si5 0.524899 0.898028 0.808269
Si Si6 0.986838 0.085215 0.558499
O O1 0.992434 0.187721 0.351008
O O2 0.801041 0.123525 0.313571
O O3 0.302253 0.132178 0.324914
O O4 0.998381 0.123601 0.406645
O O5 0.797859 0.744345 0.880155
O O6 0.001532 0.794962 0.946971
O O7 0.618181 0.235184 0.500000
O O8 0.509095 0.936544 0.842654
O O9 0.214794 0.944283 0.926110
O O10 0.715713 0.937642 0.935120
O O11 0.500000 0.000000 0.893481
O O12 0.500000 0.911731 0.750000
O O13 0.015730 0.098882 0.500000
#
# Coordination Sequence:
#
# PCOD8293483 Si02
#       6
#    16  16   8  16  16  16
#     4  10  21  36  57  81 107 143 182 223 266 327
#     4  10  19  33  53  78 109 141 177 221 267 310
#     4   8  16  28  44  72 102 134 167 200 253 308
#     4  10  21  36  55  83 110 138 183 223 262 320
#     4  10  21  39  59  79 104 139 181 227 279 320
#     4  10  21  35  53  80 114 151 180 210 259 318
#
# _framework density 19.178175
#
# number of rings (size 3 to 8) (size 9 to 14) (size 15 to 20)
#    0.000    2.182    0.000    2.727    1.273    2.545 
#    0.000    0.000    0.000   17.455    0.000    0.000 
#    0.000    0.000    0.000    0.000    0.000    0.000 
#
# Total GULP energy -545571.214635 kJ/mol
# GULP energy per Si atom -12399.345787 kJ/mol
# Density = 1.913452 g / cm^3
# Si number density = 19.178175 Si / 1000 Ang^3
#
#
#
# Elastic Constant Matrix: (Units=GPa)
#
#
# Indices 1 2 3 4 5 6 
#
# 1 67.7831 15.4942 7.3102 0.0000 0.0000 0.0000
# 2 15.4942 78.9017 25.4238 0.0000 0.0000 0.0000
# 3 7.3102 25.4238 86.3742 0.0000 0.0000 0.0000
# 4 0.0000 0.0000 0.0000 4.0772 0.0000 0.0000
# 5 0.0000 0.0000 0.0000 0.0000 6.6945 0.0000
# 6 0.0000 0.0000 0.0000 0.0000 0.0000 12.2134
#
#
#
# Elastic Compliance Matrix: (Units=1/GPa)
#
#
# Indices 1 2 3 4 5 6 
#
# 1 0.015463 -0.002889 -0.000458 0.000000 0.000000 0.000000
# 2 -0.002889 0.014542 -0.004036 0.000000 0.000000 0.000000
# 3 -0.000458 -0.004036 0.012804 0.000000 0.000000 0.000000
# 4 0.000000 0.000000 0.000000 0.245266 0.000000 0.000000
# 5 0.000000 0.000000 0.000000 0.000000 0.149377 0.000000
# 6 0.000000 0.000000 0.000000 0.000000 0.000000 0.081877
#
#
# Mechanical properties :
#
#
# Convention : Reuss Voigt Hill
#
# Bulk Modulus (GPa) = 35.65980 36.61283 36.13632
# Shear Modulus (GPa) = 9.20060 16.91907 13.05984
#
# Velocity S-wave (km/s) = 2.19268 2.97341 2.61238
# Velocity P-wave (km/s) = 5.00448 5.56063 5.28987
#
# Compressibility (1/GPa) = 0.02804278
#
# Stress axis : x y z
#
# Youngs Moduli (GPa) = 64.67173 68.76782 78.09918
#
# Poissons Ratio (x) = 0.19865 0.03580
# Poissons Ratio (y) = 0.18682 0.31519
# Poissons Ratio (z) = 0.02964 0.27753
#
# Static dielectric constant tensor:
#      x y z
#    x 3.803290 0.000000 0.000000 
#    y 0.000000 3.172750 0.000000 
#    z 0.000000 0.000000 3.459990 
# 
# 
# High freq. dielectric constant tensor:
#      x y z
#    x 1.769040 0.000000 0.000000 
#    y 0.000000 1.724910 0.000000 
#    z 0.000000 0.000000 1.736600 
# 
# From -- ./inp_files/41608.got.cif
#   From: 2010.03.12/outbox.cif.g09.slc.cpg/sg72_21_cif.got.tgz:41608.got - 2010.04.16 14:54:00.
