data_PCOD8293577
_publ_section_title
;
Structure prediction by ZEFSAII (Michael W. Deem and Ramdas Pophale) SiO2 
 PCOD8293577
Probable space group: I B A M
;
_chemical_formula_sum "Si O2"
_cell_formula_units_Z 96
_cell_length_a 25.478184
_cell_length_b 23.646453
_cell_length_c 8.775083
_cell_angle_alpha 90.000000
_cell_angle_beta 90.000000
_cell_angle_gamma 90.000000
_cell_volume 5286.712676
_symmetry_space_group_name_H-M "I B A M"
_symmetry_group_IT_number 72
_symmetry_cell_setting 'orthorhombic'
loop_
_space_group_symop_operation_xyz
x,y,z
-x,-y,z
x,-y,1/2-z
-x,y,1/2-z
-x,-y,-z
x,y,-z
-x,y,1/2+z
x,-y,1/2+z
1/2+x,1/2+y,1/2+z
1/2-x,1/2-y,1/2+z
1/2+x,1/2-y,-z
1/2-x,1/2+y,-z
1/2-x,1/2-y,1/2-z
1/2+x,1/2+y,1/2-z
1/2-x,1/2+y,z
1/2+x,1/2-y,z
loop_
_atom_site_type_symbol
_atom_site_label
_atom_site_fract_x
_atom_site_fract_y
_atom_site_fract_z
Si Si1 0.844423 0.629808 0.676643
Si Si2 0.554854 0.940520 0.821385
Si Si3 0.845930 0.870054 0.319267
Si Si4 0.554749 0.439215 0.318315
Si Si5 0.307100 0.251582 0.178318
Si Si6 0.746969 0.060939 0.820927
O O1 0.830420 0.618890 0.500000
O O2 0.902611 0.607787 0.715012
O O3 0.841148 0.696154 0.717958
O O4 0.803770 0.597199 0.781390
O O5 0.500000 0.920194 0.750000
O O6 0.573475 0.000000 0.750000
O O7 0.547319 0.949726 0.000000
O O8 0.844027 0.871453 0.500000
O O9 0.901217 0.894996 0.262683
O O10 0.839101 0.805912 0.258710
O O11 0.798524 0.908216 0.253995
O O12 0.569444 0.500000 0.250000
O O13 0.500000 0.417172 0.250000
O O14 0.550902 0.444035 0.500000
O O15 0.250000 0.250000 0.250000
O O16 0.298035 0.257796 0.000000
O O17 0.741364 0.000000 0.750000
O O18 0.750889 0.054115 0.000000
#
# Coordination Sequence:
#
# PCOD8293577 Si02
#       6
#    16  16  16  16  16  16
#     4  10  21  35  54  79 107 138 175 217 264 315
#     4  10  20  35  54  78 104 137 174 214 263 312
#     4   9  19  34  53  76 105 139 174 214 263 312
#     4  10  19  34  54  77 105 138 175 217 265 315
#     4  10  19  36  56  77 105 141 179 216 261 312
#     4  11  21  33  51  77 107 138 173 214 265 318
#
# _framework density 18.158731
#
# number of rings (size 3 to 8) (size 9 to 14) (size 15 to 20)
#    0.000    2.000    1.667    3.500    0.000    2.667 
#    0.000    5.000    0.000    0.000    0.000    0.000 
#    0.000    0.000    0.000    0.000    0.000    0.000 
#
# Total GULP energy -595226.355649 kJ/mol
# GULP energy per Si atom -12400.549076 kJ/mol
# Density = 1.811740 g / cm^3
# Si number density = 18.158731 Si / 1000 Ang^3
#
#
#
# Elastic Constant Matrix: (Units=GPa)
#
#
# Indices 1 2 3 4 5 6 
#
# 1 143.0521 75.1587 38.4642 0.0000 0.0000 0.0000
# 2 75.1587 108.1520 32.0956 0.0000 0.0000 0.0000
# 3 38.4642 32.0956 61.0167 0.0000 0.0000 0.0000
# 4 0.0000 0.0000 0.0000 -1.5565 0.0000 0.0000
# 5 0.0000 0.0000 0.0000 0.0000 28.0691 0.0000
# 6 0.0000 0.0000 0.0000 0.0000 0.0000 18.7290
#
#
#
# Elastic Compliance Matrix: (Units=1/GPa)
#
#
# Indices 1 2 3 4 5 6 
#
# 1 0.011662 -0.007018 -0.003660 0.000000 0.000000 0.000000
# 2 -0.007018 0.015180 -0.003561 0.000000 0.000000 0.000000
# 3 -0.003660 -0.003561 0.020569 0.000000 0.000000 0.000000
# 4 0.000000 0.000000 0.000000 -0.642474 0.000000 0.000000
# 5 0.000000 0.000000 0.000000 0.000000 0.035626 0.000000
# 6 0.000000 0.000000 0.000000 0.000000 0.000000 0.053393
#
#
# Mechanical properties :
#
#
# Convention : Reuss Voigt Hill
#
# Bulk Modulus (GPa) = 52.81642 67.07309 59.94476
# Shear Modulus (GPa) = -10.60996 20.14846 4.76925
#
# Velocity S-wave (km/s) = -2.41983 3.33464 1.62238
# Velocity P-wave (km/s) = 4.61970 7.20026 6.04919
#
# Compressibility (1/GPa) = 0.01893350
#
# Stress axis : x y z
#
# Youngs Moduli (GPa) = 85.75013 65.87577 48.61655
#
# Poissons Ratio (x) = 0.46232 0.17793
# Poissons Ratio (y) = 0.60180 0.17311
# Poissons Ratio (z) = 0.31383 0.23457
#
# Static dielectric constant tensor:
#      x y z
#    x 3.531150 0.000000 0.000000 
#    y 0.000000 3.627580 0.000000 
#    z 0.000000 0.000000 3.294220 
# 
# 
# High freq. dielectric constant tensor:
#      x y z
#    x 1.705600 0.000000 0.000000 
#    y 0.000000 1.707100 0.000000 
#    z 0.000000 0.000000 1.695950 
# 
# From -- ./inp_files/7101.got.cif
#   From: 2010.03.12/outbox.cif.g09.slc.cpg/sg72_4_cif.got.tgz:7101.got - 2010.04.16 14:54:00.
