data_PCOD8293272
_publ_section_title
;
Structure prediction by ZEFSAII (Michael W. Deem and Ramdas Pophale) SiO2 
 PCOD8293272
Probable space group: I B A M
;
_chemical_formula_sum "Si O2"
_cell_formula_units_Z 112
_cell_length_a 17.711440
_cell_length_b 27.094100
_cell_length_c 14.039513
_cell_angle_alpha 90.000000
_cell_angle_beta 90.000000
_cell_angle_gamma 90.000000
_cell_volume 6737.218693
_symmetry_space_group_name_H-M "I B A M"
_symmetry_group_IT_number 72
_symmetry_cell_setting 'orthorhombic'
loop_
_space_group_symop_operation_xyz
x,y,z
-x,-y,z
x,-y,1/2-z
-x,y,1/2-z
-x,-y,-z
x,y,-z
-x,y,1/2+z
x,-y,1/2+z
1/2+x,1/2+y,1/2+z
1/2-x,1/2-y,1/2+z
1/2+x,1/2-y,-z
1/2-x,1/2+y,-z
1/2-x,1/2-y,1/2-z
1/2+x,1/2+y,1/2-z
1/2-x,1/2+y,z
1/2+x,1/2-y,z
loop_
_atom_site_type_symbol
_atom_site_label
_atom_site_fract_x
_atom_site_fract_y
_atom_site_fract_z
Si Si1 0.999588 0.402657 0.107713
Si Si2 0.439231 0.200726 0.608359
Si Si3 0.733315 0.160911 0.391956
Si Si4 0.603348 0.757732 0.105857
Si Si5 0.348796 0.073475 0.804127
Si Si6 0.329158 0.270544 0.719148
Si Si7 0.864918 0.531498 0.107229
O O1 0.056889 0.357578 0.131551
O O2 0.046436 0.453751 0.111094
O O3 0.932379 0.402673 0.185174
O O4 0.966248 0.394438 0.000000
O O5 0.416072 0.209855 0.500000
O O6 0.520593 0.223532 0.631029
O O7 0.374612 0.226524 0.669066
O O8 0.752748 0.148794 0.500000
O O9 0.661502 0.196884 0.383938
O O10 0.716012 0.109934 0.339072
O O11 0.811503 0.182739 0.347659
O O12 0.625365 0.715682 0.183520
O O13 0.607586 0.734790 0.000000
O O14 0.326611 0.061481 0.694529
O O15 0.352712 0.025967 0.872894
O O16 0.250000 0.250000 0.750000
O O17 0.833377 0.544041 0.000000
#
# Coordination Sequence:
#
# PCOD8293272 Si02
#       7
#    16  16  16  16  16  16  16
#     4  10  19  30  48  70  93 121 165 213 249 283
#     4  10  19  32  51  72  94 128 170 213 248 289
#     4  10  19  33  50  69  93 125 170 206 242 297
#     4   9  18  32  49  69  92 124 165 204 243 292
#     4  11  20  33  52  66  91 132 165 206 250 289
#     4  10  21  31  45  68  95 128 160 209 250 294
#     4  10  22  33  44  69  96 120 162 213 253 285
#
# _framework density 16.62407
#
# number of rings (size 3 to 8) (size 9 to 14) (size 15 to 20)
#    0.000    2.000    1.429    3.000    4.000    4.000 
#    0.000    0.714    0.000    0.000    0.000    0.000 
#    0.000    0.000    0.000   10.286    1.143   66.286 
#
# Total GULP energy -693922.576781 kJ/mol
# GULP energy per Si atom -12391.474585 kJ/mol
# Density = 1.658623 g / cm^3
# Si number density = 16.624070 Si / 1000 Ang^3
#
#
#
# Elastic Constant Matrix: (Units=GPa)
#
#
# Indices 1 2 3 4 5 6 
#
# 1 46.4122 33.6167 34.7825 0.0000 0.0000 0.0000
# 2 33.6167 78.1376 49.7338 0.0000 0.0000 0.0000
# 3 34.7825 49.7338 126.4754 0.0001 0.0000 0.0000
# 4 0.0000 0.0000 0.0001 25.6110 0.0000 0.0000
# 5 0.0000 0.0000 0.0000 0.0000 26.6257 0.0000
# 6 0.0000 0.0000 0.0000 0.0000 0.0000 23.0677
#
#
#
# Elastic Compliance Matrix: (Units=1/GPa)
#
#
# Indices 1 2 3 4 5 6 
#
# 1 0.033267 -0.011323 -0.004696 0.000000 0.000000 0.000000
# 2 -0.011323 0.020924 -0.005114 0.000000 0.000000 0.000000
# 3 -0.004696 -0.005114 0.011209 0.000000 0.000000 0.000000
# 4 0.000000 0.000000 0.000000 0.039046 0.000000 0.000000
# 5 0.000000 0.000000 0.000000 0.000000 0.037558 0.000000
# 6 0.000000 0.000000 0.000000 0.000000 0.000000 0.043351
#
#
# Mechanical properties :
#
#
# Convention : Reuss Voigt Hill
#
# Bulk Modulus (GPa) = 43.22706 54.14348 48.68527
# Shear Modulus (GPa) = 21.24647 23.92035 22.58341
#
# Velocity S-wave (km/s) = 3.57887 3.79740 3.68975
# Velocity P-wave (km/s) = 6.56787 7.20187 6.89216
#
# Compressibility (1/GPa) = 0.02313366
#
# Stress axis : x y z
#
# Youngs Moduli (GPa) = 30.05982 47.79090 89.21218
#
# Poissons Ratio (x) = 0.54114 0.41897
# Poissons Ratio (y) = 0.34037 0.45624
# Poissons Ratio (z) = 0.14117 0.24441
#
# Static dielectric constant tensor:
#      x y z
#    x 2.943440 0.000000 0.000000 
#    y 0.000000 3.074310 0.000000 
#    z 0.000000 0.000000 3.731960 
# 
# 
# High freq. dielectric constant tensor:
#      x y z
#    x 1.587190 0.000000 0.000000 
#    y 0.000000 1.609340 0.000000 
#    z 0.000000 0.000000 1.676370 
# 
# From -- ./inp_files/22314.got.cif
#   From: 2010.03.12/outbox.cif.g09.slc.cpg/sg72_12_cif.got.tgz:22314.got - 2010.04.16 14:54:00.
