data_PCOD8293606
_publ_section_title
;
Structure prediction by ZEFSAII (Michael W. Deem and Ramdas Pophale) SiO2 
 PCOD8293606
Probable space group: I B A M
;
_chemical_formula_sum "Si O2"
_cell_formula_units_Z 96
_cell_length_a 27.117796
_cell_length_b 9.987009
_cell_length_c 16.137600
_cell_angle_alpha 90.000000
_cell_angle_beta 90.000000
_cell_angle_gamma 90.000000
_cell_volume 4370.476376
_symmetry_space_group_name_H-M "I B A M"
_symmetry_group_IT_number 72
_symmetry_cell_setting 'orthorhombic'
loop_
_space_group_symop_operation_xyz
x,y,z
-x,-y,z
x,-y,1/2-z
-x,y,1/2-z
-x,-y,-z
x,y,-z
-x,y,1/2+z
x,-y,1/2+z
1/2+x,1/2+y,1/2+z
1/2-x,1/2-y,1/2+z
1/2+x,1/2-y,-z
1/2-x,1/2+y,-z
1/2-x,1/2-y,1/2-z
1/2+x,1/2+y,1/2-z
1/2-x,1/2+y,z
1/2+x,1/2-y,z
loop_
_atom_site_type_symbol
_atom_site_label
_atom_site_fract_x
_atom_site_fract_y
_atom_site_fract_z
Si Si1 0.780158 0.161087 0.094826
Si Si2 0.107728 0.488448 0.402547
Si Si3 0.617070 0.455460 0.598802
Si Si4 0.071269 0.772271 0.401340
Si Si5 0.212859 0.444531 0.659950
Si Si6 0.038322 0.254877 0.402093
O O1 0.765543 0.295005 0.145982
O O2 0.829548 0.091134 0.131750
O O3 0.736423 0.052401 0.097219
O O4 0.788600 0.205595 0.000000
O O5 0.118294 0.478174 0.500000
O O6 0.099077 0.639145 0.372154
O O7 0.154601 0.431702 0.354321
O O8 0.059503 0.401361 0.379175
O O9 0.617700 0.456247 0.500000
O O10 0.602873 0.602749 0.632835
O O11 0.575613 0.355564 0.633896
O O12 0.067678 0.776708 0.500000
O O13 0.015877 0.769172 0.363585
O O14 0.226348 0.500000 0.750000
O O15 0.034668 0.238758 0.500000
#
# Coordination Sequence:
#
# PCOD8293606 Si02
#       6
#    16  16  16  16  16  16
#     4  11  23  42  66  91 119 159 206 256 307 371
#     4  10  19  34  56  84 118 157 200 247 296 360
#     4   9  17  30  51  83 119 151 189 243 301 350
#     4   9  17  27  49  86 120 151 193 248 303 352
#     4  12  26  43  62  89 123 159 201 253 316 374
#     4   9  15  28  50  80 119 155 192 247 305 349
#
# _framework density 21.965568000000001
#
# number of rings (size 3 to 8) (size 9 to 14) (size 15 to 20)
#    0.000    2.000    1.667    3.000    2.333    4.000 
#    0.000    0.000    0.000    2.000    0.000    0.000 
#    0.000    0.000    0.000    0.000    0.000    0.000 
#
# Total GULP energy -595189.992275 kJ/mol
# GULP energy per Si atom -12399.791506 kJ/mol
# Density = 2.191557 g / cm^3
# Si number density = 21.965568 Si / 1000 Ang^3
#
#
#
# Elastic Constant Matrix: (Units=GPa)
#
#
# Indices 1 2 3 4 5 6 
#
# 1 86.5048 40.2271 12.1812 0.0000 0.0000 0.0000
# 2 40.2271 183.1967 21.0308 0.0000 0.0000 0.0000
# 3 12.1812 21.0308 28.0249 0.0000 0.0000 0.0000
# 4 0.0000 0.0000 0.0000 17.5954 0.0000 0.0000
# 5 0.0000 0.0000 0.0000 0.0000 7.3343 0.0000
# 6 0.0000 0.0000 0.0000 0.0000 0.0000 42.5699
#
#
#
# Elastic Compliance Matrix: (Units=1/GPa)
#
#
# Indices 1 2 3 4 5 6 
#
# 1 0.013256 -0.002461 -0.003915 0.000000 0.000000 0.000000
# 2 -0.002461 0.006430 -0.003756 0.000000 0.000000 0.000000
# 3 -0.003915 -0.003756 0.040202 0.000000 0.000000 0.000000
# 4 0.000000 0.000000 0.000000 0.056833 0.000000 0.000000
# 5 0.000000 0.000000 0.000000 0.000000 0.136346 0.000000
# 6 0.000000 0.000000 0.000000 0.000000 0.000000 0.023491
#
#
# Mechanical properties :
#
#
# Convention : Reuss Voigt Hill
#
# Bulk Modulus (GPa) = 25.23646 49.40052 37.31849
# Shear Modulus (GPa) = 16.12748 28.45241 22.28995
#
# Velocity S-wave (km/s) = 2.71258 3.60296 3.18900
# Velocity P-wave (km/s) = 4.61788 6.31247 5.53046
#
# Compressibility (1/GPa) = 0.03962521
#
# Stress axis : x y z
#
# Youngs Moduli (GPa) = 75.43801 155.51536 24.87415
#
# Poissons Ratio (x) = 0.38278 0.09737
# Poissons Ratio (y) = 0.18568 0.09342
# Poissons Ratio (z) = 0.29532 0.58405
#
# Static dielectric constant tensor:
#      x y z
#    x 4.007840 0.000000 0.000000 
#    y 0.000000 4.195020 0.000000 
#    z 0.000000 0.000000 3.287040 
# 
# 
# High freq. dielectric constant tensor:
#      x y z
#    x 1.869310 0.000000 0.000000 
#    y 0.000000 1.880950 0.000000 
#    z 0.000000 0.000000 1.801400 
# 
# From -- ./inp_files/40685.got.cif
#   From: 2010.03.12/outbox.cif.g09.slc.cpg/sg72_21_cif.got.tgz:40685.got - 2010.04.16 14:54:00.
