data_PCOD8293470
_publ_section_title
;
Structure prediction by ZEFSAII (Michael W. Deem and Ramdas Pophale) SiO2 
 PCOD8293470
Probable space group: I B A M
;
_chemical_formula_sum "Si O2"
_cell_formula_units_Z 116
_cell_length_a 22.342761
_cell_length_b 30.971568
_cell_length_c 9.013121
_cell_angle_alpha 90.000000
_cell_angle_beta 90.000000
_cell_angle_gamma 90.000000
_cell_volume 6236.992680
_symmetry_space_group_name_H-M "I B A M"
_symmetry_group_IT_number 72
_symmetry_cell_setting 'orthorhombic'
loop_
_space_group_symop_operation_xyz
x,y,z
-x,-y,z
x,-y,1/2-z
-x,y,1/2-z
-x,-y,-z
x,y,-z
-x,y,1/2+z
x,-y,1/2+z
1/2+x,1/2+y,1/2+z
1/2-x,1/2-y,1/2+z
1/2+x,1/2-y,-z
1/2-x,1/2+y,-z
1/2-x,1/2-y,1/2-z
1/2+x,1/2+y,1/2-z
1/2-x,1/2+y,z
1/2+x,1/2-y,z
loop_
_atom_site_type_symbol
_atom_site_label
_atom_site_fract_x
_atom_site_fract_y
_atom_site_fract_z
Si Si1 0.000000 0.000000 0.250000
Si Si2 0.720212 0.544211 0.175364
Si Si3 0.172645 0.212436 0.825615
Si Si4 0.293845 0.806115 0.825936
Si Si5 0.328377 0.898028 0.175013
Si Si6 0.061044 0.453962 0.821457
Si Si7 0.410840 0.571337 0.665748
Si Si8 0.440593 0.657877 0.175595
O O1 0.043414 0.031041 0.344750
O O2 0.740371 0.500000 0.250000
O O3 0.767048 0.580183 0.232968
O O4 0.653574 0.556648 0.227757
O O5 0.722482 0.538031 0.000000
O O6 0.229687 0.190981 0.750708
O O7 0.169334 0.263159 0.780764
O O8 0.113943 0.187684 0.768237
O O9 0.179716 0.206754 0.000000
O O10 0.331063 0.848045 0.773664
O O11 0.281327 0.807063 0.000000
O O12 0.387055 0.921992 0.234813
O O13 0.328697 0.901468 0.000000
O O14 0.075833 0.500000 0.750000
O O15 0.000000 0.435775 0.750000
O O16 0.055936 0.457521 0.000000
O O17 0.404578 0.590544 0.500000
O O18 0.433698 0.608289 0.775434
O O19 0.500000 0.677549 0.250000
O O20 0.447494 0.659067 0.000000
#
# Coordination Sequence:
#
# PCOD8293470 Si02
#       8
#     4  16  16  16  16  16  16  16
#     4  12  22  36  56  78 106 140 184 224 262 304
#     4  10  20  34  50  74 104 137 176 215 257 304
#     4   9  19  35  55  81 107 133 168 215 264 311
#     4   9  17  34  59  80 103 135 169 208 258 316
#     4   9  18  32  53  78 104 134 171 212 255 306
#     4  10  19  33  52  75 102 136 174 210 251 303
#     4  11  23  37  55  77 105 142 184 222 263 310
#     4  11  23  37  54  77 106 137 176 219 262 310
#
# _framework density 18.598707999999998
#
# number of rings (size 3 to 8) (size 9 to 14) (size 15 to 20)
#    0.000    2.069    1.379    2.690    0.000    3.310 
#    0.000    3.448    0.000    0.000    0.000    0.000 
#    0.000    0.000    0.000    0.000    0.000    0.000 
#
# Total GULP energy -719099.100307 kJ/mol
# GULP energy per Si atom -12398.260350 kJ/mol
# Density = 1.855638 g / cm^3
# Si number density = 18.598708 Si / 1000 Ang^3
#
#
#
# Elastic Constant Matrix: (Units=GPa)
#
#
# Indices 1 2 3 4 5 6 
#
# 1 149.4275 85.6313 28.6645 0.0000 0.0000 0.0000
# 2 85.6313 122.2972 25.3535 0.0000 0.0000 0.0000
# 3 28.6645 25.3535 46.2498 0.0000 0.0000 0.0000
# 4 0.0000 0.0000 0.0000 21.1984 0.0000 0.0000
# 5 0.0000 0.0000 0.0000 0.0000 26.6973 0.0000
# 6 0.0000 0.0000 0.0000 0.0000 0.0000 29.6067
#
#
#
# Elastic Compliance Matrix: (Units=1/GPa)
#
#
# Indices 1 2 3 4 5 6 
#
# 1 0.011552 -0.007451 -0.003075 0.000000 0.000000 0.000000
# 2 -0.007451 0.014031 -0.003074 0.000000 0.000000 0.000000
# 3 -0.003075 -0.003074 0.025213 0.000000 0.000000 0.000000
# 4 0.000000 0.000000 0.000000 0.047173 0.000000 0.000000
# 5 0.000000 0.000000 0.000000 0.000000 0.037457 0.000000
# 6 0.000000 0.000000 0.000000 0.000000 0.000000 0.033776
#
#
# Mechanical properties :
#
#
# Convention : Reuss Voigt Hill
#
# Bulk Modulus (GPa) = 42.38006 66.36369 54.37187
# Shear Modulus (GPa) = 24.47771 27.38883 25.93327
#
# Velocity S-wave (km/s) = 3.63174 3.84164 3.73816
# Velocity P-wave (km/s) = 6.35784 7.44560 6.92311
#
# Compressibility (1/GPa) = 0.02359600
#
# Stress axis : x y z
#
# Youngs Moduli (GPa) = 86.56447 71.26956 39.66283
#
# Poissons Ratio (x) = 0.53104 0.12197
# Poissons Ratio (y) = 0.64501 0.12191
# Poissons Ratio (z) = 0.26619 0.21906
#
# Static dielectric constant tensor:
#      x y z
#    x 3.703600 0.000000 0.000000 
#    y 0.000000 3.629850 0.000000 
#    z 0.000000 0.000000 3.219270 
# 
# 
# High freq. dielectric constant tensor:
#      x y z
#    x 1.726740 0.000000 0.000000 
#    y 0.000000 1.721740 0.000000 
#    z 0.000000 0.000000 1.707040 
# 
# From -- ./inp_files/7511.got.cif
#   From: 2010.03.12/outbox.cif.g09.slc.cpg/sg72_4_cif.got.tgz:7511.got - 2010.04.16 14:54:00.
