data_PCOD8293540
_publ_section_title
;
Structure prediction by ZEFSAII (Michael W. Deem and Ramdas Pophale) SiO2 
 PCOD8293540
Probable space group: I B A M
;
_chemical_formula_sum "Si O2"
_cell_formula_units_Z 68
_cell_length_a 16.030636
_cell_length_b 8.355071
_cell_length_c 23.003038
_cell_angle_alpha 90.000000
_cell_angle_beta 90.000000
_cell_angle_gamma 90.000000
_cell_volume 3080.960246
_symmetry_space_group_name_H-M "I B A M"
_symmetry_group_IT_number 72
_symmetry_cell_setting 'orthorhombic'
loop_
_space_group_symop_operation_xyz
x,y,z
-x,-y,z
x,-y,1/2-z
-x,y,1/2-z
-x,-y,-z
x,y,-z
-x,y,1/2+z
x,-y,1/2+z
1/2+x,1/2+y,1/2+z
1/2-x,1/2-y,1/2+z
1/2+x,1/2-y,-z
1/2-x,1/2+y,-z
1/2-x,1/2-y,1/2-z
1/2+x,1/2+y,1/2-z
1/2-x,1/2+y,z
1/2+x,1/2-y,z
loop_
_atom_site_type_symbol
_atom_site_label
_atom_site_fract_x
_atom_site_fract_y
_atom_site_fract_z
Si Si1 0.874346 0.330650 0.167426
Si Si2 0.265610 0.566160 0.363289
Si Si3 0.162753 0.203646 0.934517
Si Si4 0.480635 0.684147 0.565969
Si Si5 0.500000 0.000000 0.250000
O O1 0.814989 0.485409 0.165423
O O2 0.814738 0.178383 0.183879
O O3 0.915423 0.278838 0.106144
O O4 0.945416 0.374558 0.213192
O O5 0.232654 0.669938 0.417317
O O6 0.331940 0.445074 0.390342
O O7 0.069532 0.276376 0.928978
O O8 0.179830 0.145284 0.000000
O O9 0.500000 0.500000 0.583792
O O10 0.445948 0.690662 0.500000
#
# Coordination Sequence:
#
# PCOD8293540 Si02
#       5
#    16  16  16  16   4
#     4  11  24  45  68  96 133 170 229 271 341 391
#     4  10  22  38  63  92 132 170 215 280 326 401
#     4  10  19  33  57  94 135 176 212 256 323 396
#     4  10  20  37  64  98 137 173 212 263 322 401
#     4  12  28  48  72  92 124 178 230 298 328 408
#
# _framework density 22.07104
#
# number of rings (size 3 to 8) (size 9 to 14) (size 15 to 20)
#    0.000    1.647    2.353    2.118    0.000    5.647 
#    0.000    3.529    0.000    0.000    0.000    0.000 
#    0.000    0.000    0.000    0.000    0.000    0.000 
#
# Total GULP energy -421330.467230 kJ/mol
# GULP energy per Si atom -12392.072566 kJ/mol
# Density = 2.202081 g / cm^3
# Si number density = 22.071040 Si / 1000 Ang^3
#
#
#
# Elastic Constant Matrix: (Units=GPa)
#
#
# Indices 1 2 3 4 5 6 
#
# 1 138.2083 59.4014 55.9580 0.0000 0.0000 0.0000
# 2 59.4014 96.3291 45.3686 0.0000 0.0000 0.0000
# 3 55.9580 45.3686 81.3584 0.0000 0.0000 0.0000
# 4 0.0000 0.0000 0.0000 19.7818 0.0000 0.0000
# 5 0.0000 0.0000 0.0000 0.0000 24.2390 0.0000
# 6 0.0000 0.0000 0.0000 0.0000 0.0000 41.9295
#
#
#
# Elastic Compliance Matrix: (Units=1/GPa)
#
#
# Indices 1 2 3 4 5 6 
#
# 1 0.011296 -0.004484 -0.005269 0.000000 0.000000 0.000000
# 2 -0.004484 0.015859 -0.005759 0.000000 0.000000 0.000000
# 3 -0.005269 -0.005759 0.019127 0.000000 0.000000 0.000000
# 4 0.000000 0.000000 0.000000 0.050552 0.000000 0.000000
# 5 0.000000 0.000000 0.000000 0.000000 0.041256 0.000000
# 6 0.000000 0.000000 0.000000 0.000000 0.000000 0.023850
#
#
# Mechanical properties :
#
#
# Convention : Reuss Voigt Hill
#
# Bulk Modulus (GPa) = 65.54364 70.81686 68.18025
# Shear Modulus (GPa) = 25.24635 27.53457 26.39046
#
# Velocity S-wave (km/s) = 3.38578 3.53589 3.46165
# Velocity P-wave (km/s) = 6.71162 6.98753 6.85096
#
# Compressibility (1/GPa) = 0.01525701
#
# Stress axis : x y z
#
# Youngs Moduli (GPa) = 88.52716 63.05678 52.28299
#
# Poissons Ratio (x) = 0.28276 0.27547
# Poissons Ratio (y) = 0.39697 0.30111
# Poissons Ratio (z) = 0.46643 0.36316
#
# Static dielectric constant tensor:
#      x y z
#    x 4.381000 0.000000 0.000000 
#    y 0.000000 4.187280 0.000000 
#    z 0.000000 0.000000 3.565060 
# 
# 
# High freq. dielectric constant tensor:
#      x y z
#    x 1.899310 0.000000 0.000000 
#    y 0.000000 1.864790 0.000000 
#    z 0.000000 0.000000 1.827990 
# 
# From -- ./inp_files/35473.got.cif
#   From: 2010.03.12/outbox.cif.g09.slc.cpg/sg72_18_cif.got.tgz:35473.got - 2010.04.16 14:54:00.
