data_PCOD8293340
_publ_section_title
;
Structure prediction by ZEFSAII (Michael W. Deem and Ramdas Pophale) SiO2 
 PCOD8293340
Probable space group: I B A M
;
_chemical_formula_sum "Si O2"
_cell_formula_units_Z 112
_cell_length_a 26.521110
_cell_length_b 14.282234
_cell_length_c 15.972248
_cell_angle_alpha 90.000000
_cell_angle_beta 90.000000
_cell_angle_gamma 90.000000
_cell_volume 6049.979261
_symmetry_space_group_name_H-M "I B A M"
_symmetry_group_IT_number 72
_symmetry_cell_setting 'orthorhombic'
loop_
_space_group_symop_operation_xyz
x,y,z
-x,-y,z
x,-y,1/2-z
-x,y,1/2-z
-x,-y,-z
x,y,-z
-x,y,1/2+z
x,-y,1/2+z
1/2+x,1/2+y,1/2+z
1/2-x,1/2-y,1/2+z
1/2+x,1/2-y,-z
1/2-x,1/2+y,-z
1/2-x,1/2-y,1/2-z
1/2+x,1/2+y,1/2-z
1/2-x,1/2+y,z
1/2+x,1/2-y,z
loop_
_atom_site_type_symbol
_atom_site_label
_atom_site_fract_x
_atom_site_fract_y
_atom_site_fract_z
Si Si1 0.939204 0.889011 0.000000
Si Si2 0.783194 0.463981 0.593278
Si Si3 0.224762 0.738278 0.660688
Si Si4 0.317578 0.518927 0.340288
Si Si5 0.885213 0.812052 0.342009
Si Si6 0.318163 0.160238 0.904389
Si Si7 0.441783 0.607063 0.500000
Si Si8 0.619409 0.654692 0.341790
O O1 0.918756 0.831313 0.080892
O O2 0.998762 0.883403 0.000000
O O3 0.923243 0.998990 0.000000
O O4 0.801144 0.439257 0.500000
O O5 0.786980 0.371697 0.649288
O O6 0.724815 0.498649 0.590089
O O7 0.814294 0.552927 0.628951
O O8 0.250000 0.750000 0.750000
O O9 0.264727 0.784236 0.597373
O O10 0.170832 0.787310 0.650341
O O11 0.291792 0.500000 0.250000
O O12 0.334865 0.625756 0.347941
O O13 0.366760 0.454658 0.348540
O O14 0.863835 0.707110 0.352530
O O15 0.923381 0.840965 0.415545
O O16 0.908182 0.823278 0.247626
O O17 0.335305 0.159493 0.000000
#
# Coordination Sequence:
#
# PCOD8293340 Si02
#       8
#     8  16  16  16  16  16   8  16
#     4  11  26  40  59  93 115 157 195 254 325 355
#     4  11  24  33  50  83 122 160 200 245 281 343
#     4  12  22  36  54  83 122 167 201 236 287 353
#     4  10  19  31  51  79 114 156 196 235 283 348
#     4  11  21  38  60  82 111 162 203 243 293 361
#     4  11  22  34  53  84 115 157 207 234 289 353
#     4  11  24  42  65  83 117 151 205 258 309 379
#     4  11  23  37  56  85 120 158 201 241 297 361
#
# _framework density 18.512460000000001
#
# number of rings (size 3 to 8) (size 9 to 14) (size 15 to 20)
#    0.000    1.000    6.429    1.286    4.000    0.571 
#    0.000    1.429    0.000    0.000    0.000    2.000 
#    0.000    2.286    0.000    0.000    0.000    0.000 
#
# Total GULP energy -693944.904338 kJ/mol
# GULP energy per Si atom -12391.873292 kJ/mol
# Density = 1.847033 g / cm^3
# Si number density = 18.512460 Si / 1000 Ang^3
#
#
#
# Elastic Constant Matrix: (Units=GPa)
#
#
# Indices 1 2 3 4 5 6 
#
# 1 63.0762 29.4045 46.7891 0.0000 0.0000 0.0000
# 2 29.4045 121.6903 46.5684 0.0000 0.0000 0.0000
# 3 46.7891 46.5684 125.1818 0.0000 0.0000 0.0000
# 4 0.0000 0.0000 0.0000 27.2009 0.0000 0.0000
# 5 0.0000 0.0000 0.0000 0.0000 19.0964 0.0000
# 6 0.0000 0.0000 0.0000 0.0000 0.0000 22.1690
#
#
#
# Elastic Compliance Matrix: (Units=1/GPa)
#
#
# Indices 1 2 3 4 5 6 
#
# 1 0.022620 -0.002601 -0.007487 0.000000 0.000000 0.000000
# 2 -0.002601 0.009881 -0.002704 0.000000 0.000000 0.000000
# 3 -0.007487 -0.002704 0.011793 0.000000 0.000000 0.000000
# 4 0.000000 0.000000 0.000000 0.036763 0.000000 0.000000
# 5 0.000000 0.000000 0.000000 0.000000 0.052366 0.000000
# 6 0.000000 0.000000 0.000000 0.000000 0.000000 0.045108
#
#
# Mechanical properties :
#
#
# Convention : Reuss Voigt Hill
#
# Bulk Modulus (GPa) = 53.44613 61.71915 57.58264
# Shear Modulus (GPa) = 23.76985 26.17235 24.97110
#
# Velocity S-wave (km/s) = 3.58717 3.76409 3.67670
# Velocity P-wave (km/s) = 6.78897 7.23207 7.01402
#
# Compressibility (1/GPa) = 0.01871043
#
# Stress axis : x y z
#
# Youngs Moduli (GPa) = 44.20849 101.20853 84.79847
#
# Poissons Ratio (x) = 0.26320 0.63491
# Poissons Ratio (y) = 0.11497 0.22926
# Poissons Ratio (z) = 0.33100 0.27363
#
# Static dielectric constant tensor:
#      x y z
#    x 2.987090 0.000000 0.000000 
#    y 0.000000 3.527650 0.000000 
#    z 0.000000 0.000000 3.671620 
# 
# 
# High freq. dielectric constant tensor:
#      x y z
#    x 1.664630 0.000000 0.000000 
#    y 0.000000 1.716160 0.000000 
#    z 0.000000 0.000000 1.733260 
# 
# From -- ./inp_files/25982.got.cif
#   From: 2010.03.12/outbox.cif.g09.slc.cpg/sg72_13_cif.got.tgz:25982.got - 2010.04.16 14:54:00.
