data_PCOD8293571
_publ_section_title
;
Structure prediction by ZEFSAII (Michael W. Deem and Ramdas Pophale) SiO2 
 PCOD8293571
Probable space group: I B A M
;
_chemical_formula_sum "Si O2"
_cell_formula_units_Z 80
_cell_length_a 21.603826
_cell_length_b 20.757266
_cell_length_c 9.954371
_cell_angle_alpha 90.000000
_cell_angle_beta 90.000000
_cell_angle_gamma 90.000000
_cell_volume 4463.901926
_symmetry_space_group_name_H-M "I B A M"
_symmetry_group_IT_number 72
_symmetry_cell_setting 'orthorhombic'
loop_
_space_group_symop_operation_xyz
x,y,z
-x,-y,z
x,-y,1/2-z
-x,y,1/2-z
-x,-y,-z
x,y,-z
-x,y,1/2+z
x,-y,1/2+z
1/2+x,1/2+y,1/2+z
1/2-x,1/2-y,1/2+z
1/2+x,1/2-y,-z
1/2-x,1/2+y,-z
1/2-x,1/2-y,1/2-z
1/2+x,1/2+y,1/2-z
1/2-x,1/2+y,z
1/2+x,1/2-y,z
loop_
_atom_site_type_symbol
_atom_site_label
_atom_site_fract_x
_atom_site_fract_y
_atom_site_fract_z
Si Si1 0.370106 0.407589 0.000000
Si Si2 0.502542 0.348658 0.000000
Si Si3 0.326478 0.061518 0.844063
Si Si4 0.000000 0.235583 0.750000
Si Si5 0.695214 0.424384 0.235394
Si Si6 0.052595 0.641452 0.155381
Si Si7 0.108243 0.941268 0.500000
O O1 0.429309 0.361450 0.000000
O O2 0.327146 0.391599 0.872762
O O3 0.392361 0.481608 0.000000
O O4 0.524173 0.309164 0.869827
O O5 0.537669 0.417140 0.000000
O O6 0.263044 0.100282 0.809370
O O7 0.381053 0.111428 0.814529
O O8 0.336985 0.000000 0.750000
O O9 0.325235 0.039199 0.000000
O O10 0.055041 0.282213 0.694004
O O11 0.704207 0.500000 0.250000
O O12 0.642404 0.410641 0.127404
O O13 0.000000 0.607767 0.250000
O O14 0.033437 0.632380 0.000000
#
# Coordination Sequence:
#
# PCOD8293571 Si02
#       7
#     8   8  16   8  16  16   8
#     4  10  21  34  51  82 116 136 174 226 279 319
#     4  12  21  34  60  78 103 142 190 230 266 332
#     4  10  20  34  58  86 112 146 178 213 268 330
#     4  10  20  38  54  78 102 148 186 224 272 312
#     4   9  18  33  51  77 113 148 170 208 269 337
#     4   9  19  38  57  79 110 146 177 227 267 313
#     4  10  19  34  53  80 112 138 174 222 279 329
#
# _framework density 17.921541000000001
#
# number of rings (size 3 to 8) (size 9 to 14) (size 15 to 20)
#    0.600    1.600    2.000    1.500    4.200    1.200 
#    0.000    6.000    0.000    7.200    0.000    0.000 
#    0.000    0.000    0.000    0.000    0.000    0.000 
#
# Total GULP energy -495769.743910 kJ/mol
# GULP energy per Si atom -12394.243598 kJ/mol
# Density = 1.788075 g / cm^3
# Si number density = 17.921541 Si / 1000 Ang^3
#
#
#
# Elastic Constant Matrix: (Units=GPa)
#
#
# Indices 1 2 3 4 5 6 
#
# 1 115.7700 32.3013 50.5672 0.0000 0.0000 0.0000
# 2 32.3013 52.4208 29.7434 0.0000 0.0000 0.0000
# 3 50.5672 29.7434 140.9801 0.0000 0.0000 0.0000
# 4 0.0000 0.0000 0.0000 17.4986 0.0000 0.0000
# 5 0.0000 0.0000 0.0000 0.0000 20.2714 0.0000
# 6 0.0000 0.0000 0.0000 0.0000 0.0000 7.9874
#
#
#
# Elastic Compliance Matrix: (Units=1/GPa)
#
#
# Indices 1 2 3 4 5 6 
#
# 1 0.011430 -0.005358 -0.002969 0.000000 0.000000 0.000000
# 2 -0.005358 0.024182 -0.003180 0.000000 0.000000 0.000000
# 3 -0.002969 -0.003180 0.008829 0.000000 0.000000 0.000000
# 4 0.000000 0.000000 0.000000 0.057147 0.000000 0.000000
# 5 0.000000 0.000000 0.000000 0.000000 0.049331 0.000000
# 6 0.000000 0.000000 0.000000 0.000000 0.000000 0.125197
#
#
# Mechanical properties :
#
#
# Convention : Reuss Voigt Hill
#
# Bulk Modulus (GPa) = 46.67134 59.37719 53.02427
# Shear Modulus (GPa) = 16.32531 22.25542 19.29036
#
# Velocity S-wave (km/s) = 3.02144 3.52778 3.28438
# Velocity P-wave (km/s) = 6.18633 7.05672 6.63581
#
# Compressibility (1/GPa) = 0.02142642
#
# Stress axis : x y z
#
# Youngs Moduli (GPa) = 87.49105 41.35244 113.26175
#
# Poissons Ratio (x) = 0.22157 0.33630
# Poissons Ratio (y) = 0.46879 0.36017
# Poissons Ratio (z) = 0.25978 0.13150
#
# Static dielectric constant tensor:
#      x y z
#    x 3.322260 0.000000 0.000000 
#    y 0.000000 2.938060 0.000000 
#    z 0.000000 0.000000 3.633450 
# 
# 
# High freq. dielectric constant tensor:
#      x y z
#    x 1.691220 0.000000 0.000000 
#    y 0.000000 1.652910 0.000000 
#    z 0.000000 0.000000 1.715840 
# 
# From -- ./inp_files/5729.got.cif
#   From: 2010.03.12/outbox.cif.g09.slc.cpg/sg72_3_cif.got.tgz:5729.got - 2010.04.16 14:54:00.
