data_PCOD8293705
_publ_section_title
;
Structure prediction by ZEFSAII (Michael W. Deem and Ramdas Pophale) SiO2 
 PCOD8293705
Probable space group: I B A M
;
_chemical_formula_sum "Si O2"
_cell_formula_units_Z 116
_cell_length_a 15.613218
_cell_length_b 17.090436
_cell_length_c 23.012754
_cell_angle_alpha 90.000000
_cell_angle_beta 90.000000
_cell_angle_gamma 90.000000
_cell_volume 6140.647404
_symmetry_space_group_name_H-M "I B A M"
_symmetry_group_IT_number 72
_symmetry_cell_setting 'orthorhombic'
loop_
_space_group_symop_operation_xyz
x,y,z
-x,-y,z
x,-y,1/2-z
-x,y,1/2-z
-x,-y,-z
x,y,-z
-x,y,1/2+z
x,-y,1/2+z
1/2+x,1/2+y,1/2+z
1/2-x,1/2-y,1/2+z
1/2+x,1/2-y,-z
1/2-x,1/2+y,-z
1/2-x,1/2-y,1/2-z
1/2+x,1/2+y,1/2-z
1/2-x,1/2+y,z
1/2+x,1/2-y,z
loop_
_atom_site_type_symbol
_atom_site_label
_atom_site_fract_x
_atom_site_fract_y
_atom_site_fract_z
Si Si1 0.459362 0.631265 0.333190
Si Si2 0.905961 0.280652 0.764160
Si Si3 0.324696 0.151737 0.870020
Si Si4 0.500000 0.500000 0.250000
Si Si5 0.900257 0.503166 0.431999
Si Si6 0.660856 0.163185 0.065719
Si Si7 0.862547 0.206254 0.349825
Si Si8 0.140301 0.806896 0.066431
O O1 0.414948 0.700349 0.298677
O O2 0.443714 0.553759 0.294054
O O3 0.561115 0.644610 0.340783
O O4 0.415085 0.629657 0.396730
O O5 0.857267 0.343858 0.803536
O O6 0.849609 0.260508 0.707300
O O7 0.000000 0.314832 0.750000
O O8 0.350804 0.069222 0.896409
O O9 0.222024 0.159098 0.868144
O O10 0.369620 0.218887 0.909008
O O11 0.881950 0.517055 0.500000
O O12 0.864063 0.420996 0.409192
O O13 0.000000 0.500000 0.417863
O O14 0.612735 0.232539 0.099592
O O15 0.761971 0.168918 0.071838
O O16 0.628664 0.171065 0.000000
O O17 0.108072 0.809261 0.000000
#
# Coordination Sequence:
#
# PCOD8293705 Si02
#       8
#    16  16  16   4  16  16  16  16
#     4  10  21  35  60  83 112 152 188 243 285 351
#     4   9  18  35  55  82 110 150 190 236 280 336
#     4  10  20  34  60  83 116 151 192 238 288 341
#     4  12  20  40  54  80 112 142 198 234 304 340
#     4  10  22  37  56  84 116 155 192 236 292 350
#     4   9  20  37  57  83 119 151 187 240 292 346
#     4  10  19  36  58  84 113 150 197 235 282 345
#     4   9  19  37  59  86 113 150 194 236 291 349
#
# _framework density 18.890515000000001
#
# number of rings (size 3 to 8) (size 9 to 14) (size 15 to 20)
#    0.000    2.345    2.069    0.828    5.793    2.207 
#    0.000    1.034    0.000    0.000    0.000    0.000 
#    0.000    0.000    0.000    0.000    0.000    0.000 
#
# Total GULP energy -719061.375695 kJ/mol
# GULP energy per Si atom -12397.609926 kJ/mol
# Density = 1.884752 g / cm^3
# Si number density = 18.890515 Si / 1000 Ang^3
#
#
#
# Elastic Constant Matrix: (Units=GPa)
#
#
# Indices 1 2 3 4 5 6 
#
# 1 47.1678 35.8872 34.2102 0.0000 0.0000 0.0000
# 2 35.8872 98.7057 38.6576 0.0000 0.0000 0.0000
# 3 34.2102 38.6576 102.0666 0.0000 0.0000 0.0000
# 4 0.0000 0.0000 0.0000 35.0277 0.0000 0.0000
# 5 0.0000 0.0000 0.0000 0.0000 32.4738 0.0000
# 6 0.0000 0.0000 0.0000 0.0000 0.0000 19.3814
#
#
#
# Elastic Compliance Matrix: (Units=1/GPa)
#
#
# Indices 1 2 3 4 5 6 
#
# 1 0.033960 -0.009263 -0.007874 0.000000 0.000000 0.000000
# 2 -0.009263 0.014422 -0.002358 0.000000 0.000000 0.000000
# 3 -0.007874 -0.002358 0.013330 0.000000 0.000000 0.000000
# 4 0.000000 0.000000 0.000000 0.028549 0.000000 0.000000
# 5 0.000000 0.000000 0.000000 0.000000 0.030794 0.000000
# 6 0.000000 0.000000 0.000000 0.000000 0.000000 0.051596
#
#
# Mechanical properties :
#
#
# Convention : Reuss Voigt Hill
#
# Bulk Modulus (GPa) = 44.01026 51.71669 47.86348
# Shear Modulus (GPa) = 22.80875 26.65558 24.73216
#
# Velocity S-wave (km/s) = 3.47856 3.76048 3.62226
# Velocity P-wave (km/s) = 6.28347 6.80378 6.54879
#
# Compressibility (1/GPa) = 0.02272197
#
# Stress axis : x y z
#
# Youngs Moduli (GPa) = 29.44670 69.33660 75.02058
#
# Poissons Ratio (x) = 0.64228 0.59071
# Poissons Ratio (y) = 0.27277 0.17687
# Poissons Ratio (z) = 0.23186 0.16347
#
# Static dielectric constant tensor:
#      x y z
#    x 3.369930 0.000000 0.000000 
#    y 0.000000 3.289930 0.000000 
#    z 0.000000 0.000000 3.839590 
# 
# 
# High freq. dielectric constant tensor:
#      x y z
#    x 1.727540 0.000000 0.000000 
#    y 0.000000 1.711040 0.000000 
#    z 0.000000 0.000000 1.745570 
# 
# From -- ./inp_files/44983.got.cif
#   From: 2010.03.12/outbox.cif.g09.slc.cpg/sg72_23_cif.got.tgz:44983.got - 2010.04.16 14:54:00.
