data_PCOD8293415
_publ_section_title
;
Structure prediction by ZEFSAII (Michael W. Deem and Ramdas Pophale) SiO2 
 PCOD8293415
Probable space group: I B A M
;
_chemical_formula_sum "Si O2"
_cell_formula_units_Z 96
_cell_length_a 29.340541
_cell_length_b 9.548089
_cell_length_c 14.480957
_cell_angle_alpha 90.000000
_cell_angle_beta 90.000000
_cell_angle_gamma 90.000000
_cell_volume 4056.783581
_symmetry_space_group_name_H-M "I B A M"
_symmetry_group_IT_number 72
_symmetry_cell_setting 'orthorhombic'
loop_
_space_group_symop_operation_xyz
x,y,z
-x,-y,z
x,-y,1/2-z
-x,y,1/2-z
-x,-y,-z
x,y,-z
-x,y,1/2+z
x,-y,1/2+z
1/2+x,1/2+y,1/2+z
1/2-x,1/2-y,1/2+z
1/2+x,1/2-y,-z
1/2-x,1/2+y,-z
1/2-x,1/2-y,1/2-z
1/2+x,1/2+y,1/2-z
1/2-x,1/2+y,z
1/2+x,1/2-y,z
loop_
_atom_site_type_symbol
_atom_site_label
_atom_site_fract_x
_atom_site_fract_y
_atom_site_fract_z
Si Si1 0.477014 0.634538 0.848749
Si Si2 0.292440 0.260326 0.390080
Si Si3 0.121608 0.942370 0.390241
Si Si4 0.971390 0.619021 0.398658
Si Si5 0.292713 0.058983 0.889919
Si Si6 0.878107 0.261638 0.110249
O O1 0.500000 0.500000 0.895599
O O2 0.500000 0.661717 0.750000
O O3 0.422861 0.618706 0.840403
O O4 0.491296 0.760431 0.914031
O O5 0.290425 0.253241 0.500000
O O6 0.337541 0.341981 0.357396
O O7 0.249751 0.350096 0.352496
O O8 0.291440 0.100601 0.350377
O O9 0.115105 0.937742 0.500000
O O10 0.130157 0.101927 0.355845
O O11 0.957369 0.560818 0.500000
O O12 0.925468 0.675016 0.348428
O O13 0.000000 0.500000 0.342862
O O14 0.337742 0.138528 0.854030
O O15 0.291767 0.053274 0.000000
O O16 0.880561 0.259550 0.000000
#
# Coordination Sequence:
#
# PCOD8293415 Si02
#       6
#    16  16  16  16  16  16
#     4  11  23  38  55  77 109 145 191 228 280 337
#     4   9  17  27  45  73 108 145 178 221 275 332
#     4  10  19  32  53  78 106 144 188 232 278 327
#     4  10  21  35  55  81 109 142 184 233 282 330
#     4   9  16  27  43  71 111 145 176 218 275 332
#     4   9  17  29  46  72 106 141 177 223 275 324
#
# _framework density 23.664068
#
# number of rings (size 3 to 8) (size 9 to 14) (size 15 to 20)
#    0.000    2.333    1.667    1.500    2.333    5.000 
#    0.000    0.000    0.000    0.000    0.000    1.167 
#    0.000    0.000    0.000    0.000    0.000    0.000 
#
# Total GULP energy -594903.705558 kJ/mol
# GULP energy per Si atom -12393.827199 kJ/mol
# Density = 2.361021 g / cm^3
# Si number density = 23.664068 Si / 1000 Ang^3
#
#
#
# Elastic Constant Matrix: (Units=GPa)
#
#
# Indices 1 2 3 4 5 6 
#
# 1 235.1656 141.9936 8.7753 0.0000 0.0000 0.0000
# 2 141.9936 217.2190 3.9413 0.0000 0.0000 0.0000
# 3 8.7753 3.9413 14.0356 0.0000 0.0000 0.0000
# 4 0.0000 0.0000 0.0000 32.9778 0.0000 0.0000
# 5 0.0000 0.0000 0.0000 0.0000 27.2125 0.0000
# 6 0.0000 0.0000 0.0000 0.0000 0.0000 55.3059
#
#
#
# Elastic Compliance Matrix: (Units=1/GPa)
#
#
# Indices 1 2 3 4 5 6 
#
# 1 0.007164 -0.004625 -0.003180 0.000000 0.000000 0.000000
# 2 -0.004625 0.007613 0.000754 0.000000 0.000000 0.000000
# 3 -0.003180 0.000754 0.073024 0.000000 0.000000 0.000000
# 4 0.000000 0.000000 0.000000 0.030323 0.000000 0.000000
# 5 0.000000 0.000000 0.000000 0.000000 0.036748 0.000000
# 6 0.000000 0.000000 0.000000 0.000000 0.000000 0.018081
#
#
# Mechanical properties :
#
#
# Convention : Reuss Voigt Hill
#
# Bulk Modulus (GPa) = 13.56889 86.20453 49.88671
# Shear Modulus (GPa) = 23.62705 43.87991 33.75348
#
# Velocity S-wave (km/s) = 3.16323 4.31081 3.78082
# Velocity P-wave (km/s) = 4.36896 7.82847 6.33927
#
# Compressibility (1/GPa) = 0.07369802
#
# Stress axis : x y z
#
# Youngs Moduli (GPa) = 139.59418 131.34854 13.69417
#
# Poissons Ratio (x) = 0.60750 0.04355
# Poissons Ratio (y) = 0.64563 -0.01032
# Poissons Ratio (z) = 0.44392 -0.09901
#
# Static dielectric constant tensor:
#      x y z
#    x 4.379200 0.000000 0.000000 
#    y 0.000000 4.634290 0.000000 
#    z 0.000000 0.000000 3.498880 
# 
# 
# High freq. dielectric constant tensor:
#      x y z
#    x 1.942760 0.000000 0.000000 
#    y 0.000000 1.950130 0.000000 
#    z 0.000000 0.000000 1.895670 
# 
# From -- ./inp_files/36002.got.cif
#   From: 2010.03.12/outbox.cif.g09.slc.cpg/sg72_19_cif.got.tgz:36002.got - 2010.04.16 14:54:00.
