data_PCOD8293201
_publ_section_title
;
Structure prediction by ZEFSAII (Michael W. Deem and Ramdas Pophale) SiO2 
 PCOD8293201
Probable space group: I B A M
;
_chemical_formula_sum "Si O2"
_cell_formula_units_Z 116
_cell_length_a 9.695522
_cell_length_b 26.629381
_cell_length_c 23.159914
_cell_angle_alpha 90.000000
_cell_angle_beta 90.000000
_cell_angle_gamma 90.000000
_cell_volume 5979.559751
_symmetry_space_group_name_H-M "I B A M"
_symmetry_group_IT_number 72
_symmetry_cell_setting 'orthorhombic'
loop_
_space_group_symop_operation_xyz
x,y,z
-x,-y,z
x,-y,1/2-z
-x,y,1/2-z
-x,-y,-z
x,y,-z
-x,y,1/2+z
x,-y,1/2+z
1/2+x,1/2+y,1/2+z
1/2-x,1/2-y,1/2+z
1/2+x,1/2-y,-z
1/2-x,1/2+y,-z
1/2-x,1/2-y,1/2-z
1/2+x,1/2+y,1/2-z
1/2-x,1/2+y,z
1/2+x,1/2-y,z
loop_
_atom_site_type_symbol
_atom_site_label
_atom_site_fract_x
_atom_site_fract_y
_atom_site_fract_z
Si Si1 0.629396 0.134772 0.789594
Si Si2 0.654043 0.479098 0.064392
Si Si3 0.634568 0.317882 0.786898
Si Si4 0.150782 0.724469 0.366840
Si Si5 0.309628 0.553747 0.341944
Si Si6 0.568119 0.282642 0.435210
Si Si7 0.458152 0.381249 0.391154
Si Si8 0.500000 0.500000 0.250000
O O1 0.500000 0.122471 0.750000
O O2 0.747368 0.163288 0.754792
O O3 0.590056 0.172989 0.840658
O O4 0.676957 0.081205 0.815290
O O5 0.500000 0.500000 0.066248
O O6 0.738995 0.509238 0.113975
O O7 0.649368 0.420004 0.079678
O O8 0.718027 0.486414 0.000000
O O9 0.500000 0.305734 0.750000
O O10 0.677386 0.266568 0.818290
O O11 0.608223 0.362292 0.831954
O O12 0.297125 0.714064 0.396116
O O13 0.035716 0.740262 0.412777
O O14 0.394920 0.593694 0.378923
O O15 0.404178 0.534044 0.289981
O O16 0.611775 0.269130 0.500000
O O17 0.486619 0.335395 0.434347
#
# Coordination Sequence:
#
# PCOD8293201 Si02
#       8
#    16  16  16  16  16  16  16   4
#     4  12  23  37  55  86 123 156 190 243 305 369
#     4   9  18  32  54  86 117 144 186 245 298 348
#     4  11  20  35  60  83 112 154 199 241 293 353
#     4  11  22  38  55  83 116 156 201 243 293 364
#     4  11  20  34  57  88 116 155 191 241 303 359
#     4  11  22  37  58  84 118 156 201 253 300 349
#     4  10  18  35  57  87 113 146 198 246 295 353
#     4  12  20  36  64  84 128 148 198 254 304 352
#
# _framework density 19.399422000000001
#
# number of rings (size 3 to 8) (size 9 to 14) (size 15 to 20)
#    0.000    1.241    4.828    4.138    0.000    0.552 
#    0.000    0.345    0.000    0.000    0.000    0.966 
#    0.000    0.000    0.000    0.000    0.000    0.000 
#
# Total GULP energy -719262.250894 kJ/mol
# GULP energy per Si atom -12401.073291 kJ/mol
# Density = 1.935527 g / cm^3
# Si number density = 19.399422 Si / 1000 Ang^3
#
#
#
# Elastic Constant Matrix: (Units=GPa)
#
#
# Indices 1 2 3 4 5 6 
#
# 1 69.3789 44.7816 37.4865 0.0000 0.0000 0.0000
# 2 44.7816 123.4214 65.0706 0.0000 0.0000 0.0000
# 3 37.4865 65.0706 132.8162 0.0000 0.0000 0.0000
# 4 0.0000 0.0000 0.0000 20.7792 0.0000 0.0000
# 5 0.0000 0.0000 0.0000 0.0000 23.5769 0.0000
# 6 0.0000 0.0000 0.0000 0.0000 0.0000 30.8979
#
#
#
# Elastic Compliance Matrix: (Units=1/GPa)
#
#
# Indices 1 2 3 4 5 6 
#
# 1 0.019540 -0.005639 -0.002753 0.000000 0.000000 0.000000
# 2 -0.005639 0.012551 -0.004558 0.000000 0.000000 0.000000
# 3 -0.002753 -0.004558 0.010539 0.000000 0.000000 0.000000
# 4 0.000000 0.000000 0.000000 0.048125 0.000000 0.000000
# 5 0.000000 0.000000 0.000000 0.000000 0.042414 0.000000
# 6 0.000000 0.000000 0.000000 0.000000 0.000000 0.032365
#
#
# Mechanical properties :
#
#
# Convention : Reuss Voigt Hill
#
# Bulk Modulus (GPa) = 59.76336 68.92154 64.34245
# Shear Modulus (GPa) = 25.37938 26.93600 26.15769
#
# Velocity S-wave (km/s) = 3.62090 3.73029 3.67601
# Velocity P-wave (km/s) = 6.95377 7.35923 7.15937
#
# Compressibility (1/GPa) = 0.01673266
#
# Stress axis : x y z
#
# Youngs Moduli (GPa) = 51.17585 79.67378 94.88524
#
# Poissons Ratio (x) = 0.44926 0.26118
# Poissons Ratio (y) = 0.28857 0.43246
# Poissons Ratio (z) = 0.14087 0.36313
#
# Static dielectric constant tensor:
#      x y z
#    x 3.191840 0.000000 0.000000 
#    y 0.000000 3.824620 0.000000 
#    z 0.000000 0.000000 3.804360 
# 
# 
# High freq. dielectric constant tensor:
#      x y z
#    x 1.714520 0.000000 0.000000 
#    y 0.000000 1.766080 0.000000 
#    z 0.000000 0.000000 1.767360 
# 
# From -- ./inp_files/42684.got.cif
#   From: 2010.03.12/outbox.cif.g09.slc.cpg/sg72_22_cif.got.tgz:42684.got - 2010.04.16 14:54:00.
