data_PCOD8293491
_publ_section_title
;
Structure prediction by ZEFSAII (Michael W. Deem and Ramdas Pophale) SiO2 
 PCOD8293491
Probable space group: I B A M
;
_chemical_formula_sum "Si O2"
_cell_formula_units_Z 72
_cell_length_a 28.513714
_cell_length_b 5.204976
_cell_length_c 24.653692
_cell_angle_alpha 90.000000
_cell_angle_beta 90.000000
_cell_angle_gamma 90.000000
_cell_volume 3658.933249
_symmetry_space_group_name_H-M "I B A M"
_symmetry_group_IT_number 72
_symmetry_cell_setting 'orthorhombic'
loop_
_space_group_symop_operation_xyz
x,y,z
-x,-y,z
x,-y,1/2-z
-x,y,1/2-z
-x,-y,-z
x,y,-z
-x,y,1/2+z
x,-y,1/2+z
1/2+x,1/2+y,1/2+z
1/2-x,1/2-y,1/2+z
1/2+x,1/2-y,-z
1/2-x,1/2+y,-z
1/2-x,1/2-y,1/2-z
1/2+x,1/2+y,1/2-z
1/2-x,1/2+y,z
1/2+x,1/2-y,z
loop_
_atom_site_type_symbol
_atom_site_label
_atom_site_fract_x
_atom_site_fract_y
_atom_site_fract_z
Si Si1 0.096399 0.569252 0.311376
Si Si2 0.545557 0.659761 0.941548
Si Si3 0.873284 0.943848 0.628401
Si Si4 0.000000 0.500000 0.646438
Si Si5 0.220040 0.973585 0.061910
O O1 0.108046 0.500000 0.250000
O O2 0.115716 0.334335 0.346892
O O3 0.039979 0.632867 0.316493
O O4 0.123349 0.830365 0.327190
O O5 0.500000 0.500000 0.953783
O O6 0.589760 0.493143 0.920400
O O7 0.533495 0.840019 0.892067
O O8 0.558511 0.793178 0.000000
O O9 0.821930 0.936249 0.603608
O O10 0.257572 0.750691 0.073169
O O11 0.201701 0.954858 0.000000
#
# Coordination Sequence:
#
# PCOD8293491 Si02
#       5
#    16  16  16   8  16
#     4  11  23  38  59  82 115 156 204 249 285 333
#     4  10  19  33  53  83 123 156 185 225 282 357
#     4  11  22  39  60  87 117 155 194 238 296 344
#     4  10  20  36  52  82 116 162 202 238 286 332
#     4  10  21  39  64  93 120 149 188 235 290 353
#
# _framework density 19.677868
#
# number of rings (size 3 to 8) (size 9 to 14) (size 15 to 20)
#    0.000    1.556    2.222    3.333    0.000    0.000 
#    0.000    4.444    0.000   13.333    0.000    0.000 
#    0.000    0.000    0.000    0.000    0.000    0.000 
#
# Total GULP energy -445991.035592 kJ/mol
# GULP energy per Si atom -12388.639878 kJ/mol
# Density = 1.963308 g / cm^3
# Si number density = 19.677868 Si / 1000 Ang^3
#
#
#
# Elastic Constant Matrix: (Units=GPa)
#
#
# Indices 1 2 3 4 5 6 
#
# 1 92.1506 12.4547 48.0161 0.0000 0.0000 0.0000
# 2 12.4547 73.6669 5.5998 0.0000 0.0000 0.0000
# 3 48.0161 5.5998 84.6692 0.0000 0.0000 0.0000
# 4 0.0000 0.0000 0.0000 9.0862 0.0000 0.0000
# 5 0.0000 0.0000 0.0000 0.0000 244.4603 0.0000
# 6 0.0000 0.0000 0.0000 0.0000 0.0000 22.7395
#
#
#
# Elastic Compliance Matrix: (Units=1/GPa)
#
#
# Indices 1 2 3 4 5 6 
#
# 1 0.015687 -0.001986 -0.008765 0.000000 0.000000 0.000000
# 2 -0.001986 0.013895 0.000207 0.000000 0.000000 0.000000
# 3 -0.008765 0.000207 0.016768 0.000000 0.000000 0.000000
# 4 0.000000 0.000000 0.000000 0.110057 0.000000 0.000000
# 5 0.000000 0.000000 0.000000 0.000000 0.004091 0.000000
# 6 0.000000 0.000000 0.000000 0.000000 0.000000 0.043976
#
#
# Mechanical properties :
#
#
# Convention : Reuss Voigt Hill
#
# Bulk Modulus (GPa) = 39.58474 42.51421 41.04947
# Shear Modulus (GPa) = 21.36921 67.55159 44.46040
#
# Velocity S-wave (km/s) = 3.29895 5.86543 4.75848
# Velocity P-wave (km/s) = 5.88819 8.21724 7.14821
#
# Compressibility (1/GPa) = 0.02526226
#
# Stress axis : x y z
#
# Youngs Moduli (GPa) = 63.74582 71.97028 59.63884
#
# Poissons Ratio (x) = 0.14293 0.52273
# Poissons Ratio (y) = 0.12660 -0.01236
# Poissons Ratio (z) = 0.55873 -0.01492
#
# Static dielectric constant tensor:
#      x y z
#    x 3.644280 0.000000 0.000000 
#    y 0.000000 3.355480 0.000000 
#    z 0.000000 0.000000 4.160100 
# 
# 
# High freq. dielectric constant tensor:
#      x y z
#    x 1.762400 0.000000 0.000000 
#    y 0.000000 1.757200 0.000000 
#    z 0.000000 0.000000 1.772130 
# 
# From -- ./inp_files/41457.got.cif
#   From: 2010.03.12/outbox.cif.g09.slc.cpg/sg72_21_cif.got.tgz:41457.got - 2010.04.16 14:54:00.
