data_PCOD8293723
_publ_section_title
;
Structure prediction by ZEFSAII (Michael W. Deem and Ramdas Pophale) SiO2 
 PCOD8293723
Probable space group: I B A M
;
_chemical_formula_sum "Si O2"
_cell_formula_units_Z 116
_cell_length_a 20.585697
_cell_length_b 15.354780
_cell_length_c 16.943190
_cell_angle_alpha 90.000000
_cell_angle_beta 90.000000
_cell_angle_gamma 90.000000
_cell_volume 5355.553418
_symmetry_space_group_name_H-M "I B A M"
_symmetry_group_IT_number 72
_symmetry_cell_setting 'orthorhombic'
loop_
_space_group_symop_operation_xyz
x,y,z
-x,-y,z
x,-y,1/2-z
-x,y,1/2-z
-x,-y,-z
x,y,-z
-x,y,1/2+z
x,-y,1/2+z
1/2+x,1/2+y,1/2+z
1/2-x,1/2-y,1/2+z
1/2+x,1/2-y,-z
1/2-x,1/2+y,-z
1/2-x,1/2-y,1/2-z
1/2+x,1/2+y,1/2-z
1/2-x,1/2+y,z
1/2+x,1/2-y,z
loop_
_atom_site_type_symbol
_atom_site_label
_atom_site_fract_x
_atom_site_fract_y
_atom_site_fract_z
Si Si1 0.724643 0.100777 0.909810
Si Si2 0.066350 0.112941 0.212021
Si Si3 0.477076 0.749703 0.091391
Si Si4 0.398300 0.114802 0.672531
Si Si5 0.607110 0.232540 0.319706
Si Si6 0.696695 0.464519 0.830937
Si Si7 0.000000 0.500000 0.750000
Si Si8 0.262262 0.204962 0.907194
O O1 0.664551 0.062782 0.859061
O O2 0.729412 0.202654 0.887084
O O3 0.788299 0.041462 0.893452
O O4 0.707553 0.089847 0.000000
O O5 0.045357 0.161321 0.132512
O O6 0.103102 0.173657 0.276506
O O7 0.118440 0.041064 0.182447
O O8 0.000000 0.073071 0.250000
O O9 0.419621 0.818936 0.103317
O O10 0.540577 0.786809 0.134750
O O11 0.490348 0.731254 0.000000
O O12 0.380684 0.160921 0.753970
O O13 0.456957 0.051175 0.687960
O O14 0.663595 0.221343 0.383270
O O15 0.729061 0.500000 0.750000
O O16 0.726722 0.371427 0.857755
O O17 0.258571 0.182233 0.000000
#
# Coordination Sequence:
#
# PCOD8293723 Si02
#       8
#    16  16  16  16  16  16   4  16
#     4  11  26  44  65  98 137 175 221 277 336 405
#     4   9  21  40  65  95 128 168 221 277 333 398
#     4  10  19  36  63  93 126 171 220 277 337 395
#     4  11  22  39  60  86 127 172 224 271 330 395
#     4  10  19  38  62  93 126 167 226 276 325 395
#     4  12  25  41  66  98 129 173 223 274 332 395
#     4  12  24  40  58  88 124 176 218 272 328 376
#     4  11  24  43  66  95 134 176 214 270 342 405
#
# _framework density 21.659759999999999
#
# number of rings (size 3 to 8) (size 9 to 14) (size 15 to 20)
#    0.000    1.379    1.379    5.379    2.897    4.138 
#    0.000    1.379    0.000    0.828    0.000   10.621 
#    0.000    0.000    0.000    0.000    0.000    0.000 
#
# Total GULP energy -718930.252572 kJ/mol
# GULP energy per Si atom -12395.349182 kJ/mol
# Density = 2.161046 g / cm^3
# Si number density = 21.659760 Si / 1000 Ang^3
#
#
#
# Elastic Constant Matrix: (Units=GPa)
#
#
# Indices 1 2 3 4 5 6 
#
# 1 144.0544 50.5593 55.8321 0.0000 0.0000 0.0000
# 2 50.5593 105.8231 56.4469 0.0000 0.0000 0.0000
# 3 55.8321 56.4469 108.2013 0.0000 0.0000 0.0000
# 4 0.0000 0.0000 0.0000 24.6506 0.0000 0.0000
# 5 0.0000 0.0000 0.0000 0.0000 34.1197 0.0000
# 6 0.0000 0.0000 0.0000 0.0000 0.0000 31.0472
#
#
#
# Elastic Compliance Matrix: (Units=1/GPa)
#
#
# Indices 1 2 3 4 5 6 
#
# 1 0.009155 -0.002569 -0.003384 0.000000 0.000000 0.000000
# 2 -0.002569 0.013814 -0.005881 0.000000 0.000000 0.000000
# 3 -0.003384 -0.005881 0.014056 0.000000 0.000000 0.000000
# 4 0.000000 0.000000 0.000000 0.040567 0.000000 0.000000
# 5 0.000000 0.000000 0.000000 0.000000 0.029309 0.000000
# 6 0.000000 0.000000 0.000000 0.000000 0.000000 0.032209
#
#
# Mechanical properties :
#
#
# Convention : Reuss Voigt Hill
#
# Bulk Modulus (GPa) = 74.86376 75.97281 75.41828
# Shear Modulus (GPa) = 29.89899 30.97953 30.43926
#
# Velocity S-wave (km/s) = 3.71940 3.78601 3.75285
# Velocity P-wave (km/s) = 7.28586 7.36638 7.32623
#
# Compressibility (1/GPa) = 0.01335760
#
# Stress axis : x y z
#
# Youngs Moduli (GPa) = 109.23047 72.38974 71.14379
#
# Poissons Ratio (x) = 0.18597 0.24073
# Poissons Ratio (y) = 0.28062 0.41839
# Poissons Ratio (z) = 0.36961 0.42572
#
# Static dielectric constant tensor:
#      x y z
#    x 3.999940 0.000000 0.000000 
#    y 0.000000 3.971880 0.000000 
#    z 0.000000 0.000000 3.874130 
# 
# 
# High freq. dielectric constant tensor:
#      x y z
#    x 1.862790 0.000000 0.000000 
#    y 0.000000 1.845080 0.000000 
#    z 0.000000 0.000000 1.850260 
# 
# From -- ./inp_files/31725.got.cif
#   From: 2010.03.12/outbox.cif.g09.slc.cpg/sg72_16_cif.got.tgz:31725.got - 2010.04.16 14:54:00.
