data_PCOD8293906
_publ_section_title
;
Structure prediction by ZEFSAII (Michael W. Deem and Ramdas Pophale) SiO2 
 PCOD8293906
Probable space group: I B A M
;
_chemical_formula_sum "Si O2"
_cell_formula_units_Z 96
_cell_length_a 25.285301
_cell_length_b 25.287140
_cell_length_c 8.394315
_cell_angle_alpha 90.000000
_cell_angle_beta 90.000000
_cell_angle_gamma 90.000000
_cell_volume 5367.265800
_symmetry_space_group_name_H-M "I B A M"
_symmetry_group_IT_number 72
_symmetry_cell_setting 'orthorhombic'
loop_
_space_group_symop_operation_xyz
x,y,z
-x,-y,z
x,-y,1/2-z
-x,y,1/2-z
-x,-y,-z
x,y,-z
-x,y,1/2+z
x,-y,1/2+z
1/2+x,1/2+y,1/2+z
1/2-x,1/2-y,1/2+z
1/2+x,1/2-y,-z
1/2-x,1/2+y,-z
1/2-x,1/2-y,1/2-z
1/2+x,1/2+y,1/2-z
1/2-x,1/2+y,z
1/2+x,1/2-y,z
loop_
_atom_site_type_symbol
_atom_site_label
_atom_site_fract_x
_atom_site_fract_y
_atom_site_fract_z
Si Si1 0.331068 0.748191 0.186020
Si Si2 0.745714 0.665378 0.813499
Si Si3 0.379279 0.553447 0.316966
Si Si4 0.734884 0.447060 0.812596
Si Si5 0.555323 0.250678 0.317531
Si Si6 0.550965 0.636505 0.682945
O O1 0.310437 0.693246 0.266576
O O2 0.292760 0.795617 0.238281
O O3 0.390318 0.766917 0.231811
O O4 0.329096 0.737191 0.000000
O O5 0.760007 0.610316 0.723951
O O6 0.744706 0.653921 0.000000
O O7 0.405914 0.500000 0.250000
O O8 0.395045 0.562128 0.500000
O O9 0.316938 0.551130 0.296867
O O10 0.397683 0.601417 0.206410
O O11 0.767219 0.500000 0.750000
O O12 0.723532 0.451928 0.000000
O O13 0.500000 0.225587 0.250000
O O14 0.559475 0.233953 0.500000
O O15 0.553368 0.313358 0.298182
O O16 0.500000 0.604066 0.750000
O O17 0.546502 0.654507 0.500000
#
# Coordination Sequence:
#
# PCOD8293906 Si02
#       6
#    16  16  16  16  16  16
#     4  10  20  34  52  75 103 134 168 206 249 296
#     4  10  20  34  52  75 103 134 168 206 249 296
#     4  11  21  34  48  64  85 113 151 193 239 284
#     4  11  21  34  51  71  96 126 161 199 241 289
#     4  11  21  34  51  71  96 126 161 199 241 289
#     4  11  21  34  48  64  85 113 151 193 239 284
#
# _framework density 17.886201
#
# number of rings (size 3 to 8) (size 9 to 14) (size 15 to 20)
#    0.000    1.333    0.000   10.000    0.000    2.333 
#    0.000    1.667    0.000    0.000    0.000    0.000 
#    0.000    0.667    0.000    7.000    0.000    3.000 
#
# Total GULP energy -594823.197837 kJ/mol
# GULP energy per Si atom -12392.149955 kJ/mol
# Density = 1.784549 g / cm^3
# Si number density = 17.886201 Si / 1000 Ang^3
#
#
#
# Elastic Constant Matrix: (Units=GPa)
#
#
# Indices 1 2 3 4 5 6 
#
# 1 82.2363 23.8647 13.6571 0.0000 0.0000 0.0000
# 2 23.8647 86.2753 28.1601 0.0000 0.0000 0.0000
# 3 13.6571 28.1601 87.0800 0.0000 0.0000 0.0000
# 4 0.0000 0.0000 0.0000 26.2217 0.0000 0.0000
# 5 0.0000 0.0000 0.0000 0.0000 26.5821 0.0000
# 6 0.0000 0.0000 0.0000 0.0000 0.0000 18.0461
#
#
#
# Elastic Compliance Matrix: (Units=1/GPa)
#
#
# Indices 1 2 3 4 5 6 
#
# 1 0.013299 -0.003352 -0.001002 0.000000 0.000000 0.000000
# 2 -0.003352 0.013803 -0.003938 0.000000 0.000000 0.000000
# 3 -0.001002 -0.003938 0.012914 0.000000 0.000000 0.000000
# 4 0.000000 0.000000 0.000000 0.038136 0.000000 0.000000
# 5 0.000000 0.000000 0.000000 0.000000 0.037619 0.000000
# 6 0.000000 0.000000 0.000000 0.000000 0.000000 0.055414
#
#
# Mechanical properties :
#
#
# Convention : Reuss Voigt Hill
#
# Bulk Modulus (GPa) = 42.67403 42.99507 42.83455
# Shear Modulus (GPa) = 25.56493 26.83063 26.19778
#
# Velocity S-wave (km/s) = 3.78472 3.87728 3.83128
# Velocity P-wave (km/s) = 6.55815 6.64340 6.60091
#
# Compressibility (1/GPa) = 0.02343345
#
# Stress axis : x y z
#
# Youngs Moduli (GPa) = 75.19306 72.44647 77.43336
#
# Poissons Ratio (x) = 0.24282 0.07758
# Poissons Ratio (y) = 0.25202 0.30494
# Poissons Ratio (z) = 0.07533 0.28530
#
# Static dielectric constant tensor:
#      x y z
#    x 3.466300 0.000000 0.000000 
#    y 0.000000 3.494840 0.000000 
#    z 0.000000 0.000000 3.312820 
# 
# 
# High freq. dielectric constant tensor:
#      x y z
#    x 1.665750 0.000000 0.000000 
#    y 0.000000 1.667310 0.000000 
#    z 0.000000 0.000000 1.713010 
# 
# From -- ./inp_files/8286.got.cif
#   From: 2010.03.12/outbox.cif.g09.slc.cpg/sg72_5_cif.got.tgz:8286.got - 2010.04.16 14:54:00.
