data_PCOD8293972
_publ_section_title
;
Structure prediction by ZEFSAII (Michael W. Deem and Ramdas Pophale) SiO2 
 PCOD8293972
Probable space group: I B A M
;
_chemical_formula_sum "Si O2"
_cell_formula_units_Z 96
_cell_length_a 25.834930
_cell_length_b 9.752408
_cell_length_c 18.305879
_cell_angle_alpha 90.000000
_cell_angle_beta 90.000000
_cell_angle_gamma 90.000000
_cell_volume 4612.217068
_symmetry_space_group_name_H-M "I B A M"
_symmetry_group_IT_number 72
_symmetry_cell_setting 'orthorhombic'
loop_
_space_group_symop_operation_xyz
x,y,z
-x,-y,z
x,-y,1/2-z
-x,y,1/2-z
-x,-y,-z
x,y,-z
-x,y,1/2+z
x,-y,1/2+z
1/2+x,1/2+y,1/2+z
1/2-x,1/2-y,1/2+z
1/2+x,1/2-y,-z
1/2-x,1/2+y,-z
1/2-x,1/2-y,1/2-z
1/2+x,1/2+y,1/2-z
1/2-x,1/2+y,z
1/2+x,1/2-y,z
loop_
_atom_site_type_symbol
_atom_site_label
_atom_site_fract_x
_atom_site_fract_y
_atom_site_fract_z
Si Si1 0.771111 0.779843 0.916389
Si Si2 0.553327 0.419400 0.815102
Si Si3 0.410536 0.856432 0.778069
Si Si4 0.859980 0.005997 0.585118
Si Si5 0.663536 0.215626 0.351519
Si Si6 0.644555 0.063949 0.080991
O O1 0.726047 0.780743 0.855419
O O2 0.798728 0.632028 0.910599
O O3 0.810140 0.902664 0.896214
O O4 0.749975 0.798197 0.000000
O O5 0.500000 0.500000 0.831227
O O6 0.582745 0.500000 0.750000
O O7 0.546498 0.264258 0.782698
O O8 0.588837 0.416686 0.886554
O O9 0.359869 0.819237 0.728452
O O10 0.393494 0.869264 0.861368
O O11 0.435374 0.000000 0.750000
O O12 0.866075 0.984574 0.500000
O O13 0.858523 0.859743 0.623211
O O14 0.646684 0.098733 0.408319
O O15 0.622809 0.095884 0.000000
#
# Coordination Sequence:
#
# PCOD8293972 Si02
#       6
#    16  16  16  16  16  16
#     4  10  20  34  56  87 126 171 213 252 310 378
#     4  11  23  44  67  89 122 162 207 270 334 374
#     4  10  22  40  63  93 122 159 211 255 315 388
#     4  11  22  38  63  94 128 168 216 263 314 381
#     4  11  21  35  57  88 127 169 211 256 305 376
#     4  10  20  36  56  81 124 167 204 257 312 364
#
# _framework density 20.814285999999999
#
# number of rings (size 3 to 8) (size 9 to 14) (size 15 to 20)
#    0.000    1.500    3.333    2.500    0.000    3.667 
#    0.000    4.167    0.000    0.000    0.000    3.500 
#    0.000    0.000    0.000    0.000    0.000    0.000 
#
# Total GULP energy -594786.144434 kJ/mol
# GULP energy per Si atom -12391.378009 kJ/mol
# Density = 2.076691 g / cm^3
# Si number density = 20.814286 Si / 1000 Ang^3
#
#
#
# Elastic Constant Matrix: (Units=GPa)
#
#
# Indices 1 2 3 4 5 6 
#
# 1 75.4027 39.9247 32.7308 0.0000 0.0000 0.0000
# 2 39.9247 159.2253 36.1112 0.0000 0.0000 0.0000
# 3 32.7308 36.1112 98.4927 0.0000 0.0000 0.0000
# 4 0.0000 0.0000 0.0000 25.9757 0.0000 0.0000
# 5 0.0000 0.0000 0.0000 0.0000 16.4568 0.0000
# 6 0.0000 0.0000 0.0000 0.0000 0.0000 41.7997
#
#
#
# Elastic Compliance Matrix: (Units=1/GPa)
#
#
# Indices 1 2 3 4 5 6 
#
# 1 0.016896 -0.003232 -0.004430 0.000000 0.000000 0.000000
# 2 -0.003232 0.007468 -0.001664 0.000000 0.000000 0.000000
# 3 -0.004430 -0.001664 0.012235 0.000000 0.000000 0.000000
# 4 0.000000 0.000000 0.000000 0.038497 0.000000 0.000000
# 5 0.000000 0.000000 0.000000 0.000000 0.060765 0.000000
# 6 0.000000 0.000000 0.000000 0.000000 0.000000 0.023924
#
#
# Mechanical properties :
#
#
# Convention : Reuss Voigt Hill
#
# Bulk Modulus (GPa) = 55.71714 61.18380 58.45047
# Shear Modulus (GPa) = 27.11191 31.80339 29.45765
#
# Velocity S-wave (km/s) = 3.61302 3.91315 3.76608
# Velocity P-wave (km/s) = 6.65072 7.06229 6.85959
#
# Compressibility (1/GPa) = 0.01794780
#
# Stress axis : x y z
#
# Youngs Moduli (GPa) = 59.18423 133.90095 81.73061
#
# Poissons Ratio (x) = 0.43276 0.36207
# Poissons Ratio (y) = 0.19128 0.13601
# Poissons Ratio (z) = 0.26219 0.22282
#
# Static dielectric constant tensor:
#      x y z
#    x 3.419170 0.000000 0.000000 
#    y 0.000000 4.334520 0.000000 
#    z 0.000000 0.000000 3.857400 
# 
# 
# High freq. dielectric constant tensor:
#      x y z
#    x 1.775850 0.000000 0.000000 
#    y 0.000000 1.846160 0.000000 
#    z 0.000000 0.000000 1.812410 
# 
# From -- ./inp_files/40679.got.cif
#   From: 2010.03.12/outbox.cif.g09.slc.cpg/sg72_21_cif.got.tgz:40679.got - 2010.04.16 14:54:00.
