data_PCOD8293488
_publ_section_title
;
Structure prediction by ZEFSAII (Michael W. Deem and Ramdas Pophale) SiO2 
 PCOD8293488
Probable space group: I B A M
;
_chemical_formula_sum "Si O2"
_cell_formula_units_Z 80
_cell_length_a 31.048623
_cell_length_b 7.919155
_cell_length_c 16.282474
_cell_angle_alpha 90.000000
_cell_angle_beta 90.000000
_cell_angle_gamma 90.000000
_cell_volume 4003.516114
_symmetry_space_group_name_H-M "I B A M"
_symmetry_group_IT_number 72
_symmetry_cell_setting 'orthorhombic'
loop_
_space_group_symop_operation_xyz
x,y,z
-x,-y,z
x,-y,1/2-z
-x,y,1/2-z
-x,-y,-z
x,y,-z
-x,y,1/2+z
x,-y,1/2+z
1/2+x,1/2+y,1/2+z
1/2-x,1/2-y,1/2+z
1/2+x,1/2-y,-z
1/2-x,1/2+y,-z
1/2-x,1/2-y,1/2-z
1/2+x,1/2+y,1/2-z
1/2-x,1/2+y,z
1/2+x,1/2-y,z
loop_
_atom_site_type_symbol
_atom_site_label
_atom_site_fract_x
_atom_site_fract_y
_atom_site_fract_z
Si Si1 0.697578 0.573285 0.903063
Si Si2 0.727444 0.873602 0.811797
Si Si3 0.048274 0.691309 0.097662
Si Si4 0.048827 0.317077 0.902320
Si Si5 0.897312 0.004521 0.402296
O O1 0.696957 0.769130 0.873115
O O2 0.736776 0.470919 0.864812
O O3 0.652448 0.491792 0.874837
O O4 0.702931 0.571413 0.000000
O O5 0.750000 0.750000 0.750000
O O6 0.701488 0.000000 0.750000
O O7 0.063236 0.504370 0.128003
O O8 0.079130 0.837429 0.134006
O O9 0.999509 0.724048 0.128162
O O10 0.049566 0.696146 0.000000
O O11 0.080656 0.173989 0.866229
O O12 0.049957 0.312295 0.000000
O O13 0.901001 0.000704 0.500000
#
# Coordination Sequence:
#
# PCOD8293488 Si02
#       5
#    16  16  16  16  16
#     4  10  19  33  53  80 106 131 173 226 277 319
#     4   9  19  37  56  71  97 141 175 211 261 334
#     4   8  13  22  36  56  90 138 176 197 241 313
#     4   8  13  22  36  56  90 138 176 198 241 311
#     4   9  16  25  39  66 100 130 164 214 264 306
#
# _framework density 19.982434999999999
#
# number of rings (size 3 to 8) (size 9 to 14) (size 15 to 20)
#    0.000    3.200    0.000    2.400    0.000    2.400 
#    7.200    0.000    0.000    0.000    0.000    0.000 
#    0.000   28.800    0.000    0.000    0.000    0.200 
#
# Total GULP energy -495531.818674 kJ/mol
# GULP energy per Si atom -12388.295467 kJ/mol
# Density = 1.993695 g / cm^3
# Si number density = 19.982435 Si / 1000 Ang^3
#
#
#
# Elastic Constant Matrix: (Units=GPa)
#
#
# Indices 1 2 3 4 5 6 
#
# 1 96.6342 68.2038 21.8029 0.0000 0.0000 0.0000
# 2 68.2038 156.1742 27.0725 0.0000 0.0000 0.0000
# 3 21.8029 27.0725 45.2113 0.0000 0.0000 0.0000
# 4 0.0000 0.0000 0.0000 22.7701 0.0000 0.0000
# 5 0.0000 0.0000 0.0000 0.0000 0.5010 0.0000
# 6 0.0000 0.0000 0.0000 0.0000 0.0000 30.8867
#
#
#
# Elastic Compliance Matrix: (Units=1/GPa)
#
#
# Indices 1 2 3 4 5 6 
#
# 1 0.015530 -0.006119 -0.003825 0.000000 0.000000 0.000000
# 2 -0.006119 0.009556 -0.002771 0.000000 0.000000 0.000000
# 3 -0.003825 -0.002771 0.025622 0.000000 0.000000 0.000000
# 4 0.000000 0.000000 0.000000 0.043917 0.000000 0.000000
# 5 0.000000 0.000000 0.000000 0.000000 1.996083 0.000000
# 6 0.000000 0.000000 0.000000 0.000000 0.000000 0.032376
#
#
# Mechanical properties :
#
#
# Convention : Reuss Voigt Hill
#
# Bulk Modulus (GPa) = 39.56090 59.13090 49.34590
# Shear Modulus (GPa) = 2.31810 22.89427 12.60618
#
# Velocity S-wave (km/s) = 1.07823 3.38852 2.51442
# Velocity P-wave (km/s) = 4.62503 6.70560 5.76004
#
# Compressibility (1/GPa) = 0.02527749
#
# Stress axis : x y z
#
# Youngs Moduli (GPa) = 64.39043 104.64812 39.02843
#
# Poissons Ratio (x) = 0.64037 0.14929
# Poissons Ratio (y) = 0.39402 0.10815
# Poissons Ratio (z) = 0.24631 0.28999
#
# Static dielectric constant tensor:
#      x y z
#    x 3.507500 0.000000 0.000000 
#    y 0.000000 4.552210 0.000000 
#    z 0.000000 0.000000 3.950220 
# 
# 
# High freq. dielectric constant tensor:
#      x y z
#    x 1.756920 0.000000 0.000000 
#    y 0.000000 1.799060 0.000000 
#    z 0.000000 0.000000 1.736880 
# 
# From -- ./inp_files/33753.got.cif
#   From: 2010.03.12/outbox.cif.g09.slc.cpg/sg72_17_cif.got.tgz:33753.got - 2010.04.16 14:54:00.
