data_PCOD8293617
_publ_section_title
;
Structure prediction by ZEFSAII (Michael W. Deem and Ramdas Pophale) SiO2 
 PCOD8293617
Probable space group: I B A M
;
_chemical_formula_sum "Si O2"
_cell_formula_units_Z 80
_cell_length_a 18.598843
_cell_length_b 12.907321
_cell_length_c 18.132887
_cell_angle_alpha 90.000000
_cell_angle_beta 90.000000
_cell_angle_gamma 90.000000
_cell_volume 4353.003281
_symmetry_space_group_name_H-M "I B A M"
_symmetry_group_IT_number 72
_symmetry_cell_setting 'orthorhombic'
loop_
_space_group_symop_operation_xyz
x,y,z
-x,-y,z
x,-y,1/2-z
-x,y,1/2-z
-x,-y,-z
x,y,-z
-x,y,1/2+z
x,-y,1/2+z
1/2+x,1/2+y,1/2+z
1/2-x,1/2-y,1/2+z
1/2+x,1/2-y,-z
1/2-x,1/2+y,-z
1/2-x,1/2-y,1/2-z
1/2+x,1/2+y,1/2-z
1/2-x,1/2+y,z
1/2+x,1/2-y,z
loop_
_atom_site_type_symbol
_atom_site_label
_atom_site_fract_x
_atom_site_fract_y
_atom_site_fract_z
Si Si1 0.128431 0.759311 0.161685
Si Si2 0.508575 0.386049 0.837013
Si Si3 0.740447 0.859936 0.413232
Si Si4 0.797952 0.554252 0.326102
Si Si5 0.659909 0.691287 0.326507
O O1 0.182428 0.839078 0.123111
O O2 0.144480 0.638714 0.142150
O O3 0.140373 0.757490 0.249104
O O4 0.049497 0.799213 0.136783
O O5 0.500000 0.500000 0.872994
O O6 0.500000 0.396240 0.750000
O O7 0.588143 0.355327 0.861861
O O8 0.748099 0.852418 0.500000
O O9 0.684507 0.775342 0.385161
O O10 0.710911 0.972114 0.391273
O O11 0.824020 0.500000 0.250000
O O12 0.720824 0.606384 0.311005
#
# Coordination Sequence:
#
# PCOD8293617 Si02
#       5
#    16  16  16  16  16
#     4  10  19  35  57  83 110 146 184 226 269 331
#     4   9  18  31  55  85 112 137 179 229 274 321
#     4  11  22  35  54  82 113 142 183 234 278 319
#     4  11  18  32  58  80 107 146 189 224 269 319
#     4  10  19  34  58  81 110 144 182 227 271 326
#
# _framework density 18.378115999999999
#
# number of rings (size 3 to 8) (size 9 to 14) (size 15 to 20)
#    0.000    1.800    4.000    2.400    2.800    3.200 
#    0.000    2.000    0.000    3.600    0.000    0.000 
#    0.000    0.000    0.000    0.000    0.000    0.000 
#
# Total GULP energy -495834.546836 kJ/mol
# GULP energy per Si atom -12395.863671 kJ/mol
# Density = 1.833629 g / cm^3
# Si number density = 18.378116 Si / 1000 Ang^3
#
#
#
# Elastic Constant Matrix: (Units=GPa)
#
#
# Indices 1 2 3 4 5 6 
#
# 1 44.4421 21.3811 5.8641 0.0000 0.0000 0.0000
# 2 21.3811 111.5643 15.9085 0.0000 0.0000 0.0000
# 3 5.8641 15.9085 41.9681 0.0000 0.0000 0.0000
# 4 0.0000 0.0000 0.0000 20.2020 0.0000 0.0000
# 5 0.0000 0.0000 0.0000 0.0000 0.6204 0.0000
# 6 0.0000 0.0000 0.0000 0.0000 0.0000 18.3649
#
#
#
# Elastic Compliance Matrix: (Units=1/GPa)
#
#
# Indices 1 2 3 4 5 6 
#
# 1 0.024910 -0.004522 -0.001766 0.000000 0.000000 0.000000
# 2 -0.004522 0.010297 -0.003271 0.000000 0.000000 0.000000
# 3 -0.001766 -0.003271 0.025314 0.000000 0.000000 0.000000
# 4 0.000000 0.000000 0.000000 0.049500 0.000000 0.000000
# 5 0.000000 0.000000 0.000000 0.000000 1.611974 0.000000
# 6 0.000000 0.000000 0.000000 0.000000 0.000000 0.054452
#
#
# Mechanical properties :
#
#
# Convention : Reuss Voigt Hill
#
# Bulk Modulus (GPa) = 24.15375 31.58688 27.87032
# Shear Modulus (GPa) = 2.76340 18.15884 10.46112
#
# Velocity S-wave (km/s) = 1.22756 3.14677 2.38841
# Velocity P-wave (km/s) = 3.89620 5.51610 4.77534
#
# Compressibility (1/GPa) = 0.04140144
#
# Stress axis : x y z
#
# Youngs Moduli (GPa) = 40.14480 97.12012 39.50318
#
# Poissons Ratio (x) = 0.43918 0.06978
# Poissons Ratio (y) = 0.18154 0.12922
# Poissons Ratio (z) = 0.07091 0.31770
#
# Static dielectric constant tensor:
#      x y z
#    x 3.506110 0.000000 0.000000 
#    y 0.000000 3.654800 0.000000 
#    z 0.000000 0.000000 2.966030 
# 
# 
# High freq. dielectric constant tensor:
#      x y z
#    x 1.703710 0.000000 0.000000 
#    y 0.000000 1.727100 0.000000 
#    z 0.000000 0.000000 1.674200 
# 
# From -- ./inp_files/31372.got.cif
#   From: 2010.03.12/outbox.cif.g09.slc.cpg/sg72_16_cif.got.tgz:31372.got - 2010.04.16 14:54:00.
