data_PCOD8293060
_publ_section_title
;
Structure prediction by ZEFSAII (Michael W. Deem and Ramdas Pophale) SiO2 
 PCOD8293060
Probable space group: I B A M
;
_chemical_formula_sum "Si O2"
_cell_formula_units_Z 112
_cell_length_a 26.252043
_cell_length_b 10.954758
_cell_length_c 22.741562
_cell_angle_alpha 90.000000
_cell_angle_beta 90.000000
_cell_angle_gamma 90.000000
_cell_volume 6540.127061
_symmetry_space_group_name_H-M "I B A M"
_symmetry_group_IT_number 72
_symmetry_cell_setting 'orthorhombic'
loop_
_space_group_symop_operation_xyz
x,y,z
-x,-y,z
x,-y,1/2-z
-x,y,1/2-z
-x,-y,-z
x,y,-z
-x,y,1/2+z
x,-y,1/2+z
1/2+x,1/2+y,1/2+z
1/2-x,1/2-y,1/2+z
1/2+x,1/2-y,-z
1/2-x,1/2+y,-z
1/2-x,1/2-y,1/2-z
1/2+x,1/2+y,1/2-z
1/2-x,1/2+y,z
1/2+x,1/2-y,z
loop_
_atom_site_type_symbol
_atom_site_label
_atom_site_fract_x
_atom_site_fract_y
_atom_site_fract_z
Si Si1 0.863986 0.795636 0.290205
Si Si2 0.346684 0.874720 0.066355
Si Si3 0.870281 0.182021 0.657455
Si Si4 0.790660 0.014161 0.839127
Si Si5 0.057335 0.020929 0.318868
Si Si6 0.188487 0.589828 0.862044
Si Si7 0.730333 0.696362 0.935029
O O1 0.877225 0.762342 0.222897
O O2 0.819089 0.900688 0.290137
O O3 0.914189 0.847036 0.325876
O O4 0.846177 0.669260 0.318735
O O5 0.378886 0.783379 0.107545
O O6 0.290047 0.824736 0.062746
O O7 0.348311 0.005625 0.098546
O O8 0.369758 0.883359 0.000000
O O9 0.815013 0.119176 0.653916
O O10 0.911991 0.078981 0.644502
O O11 0.797471 0.088512 0.899801
O O12 0.730199 0.992567 0.825804
O O13 0.061505 0.000000 0.250000
O O14 0.000000 0.000000 0.341511
O O15 0.220553 0.673000 0.906280
O O16 0.706619 0.695916 0.000000
#
# Coordination Sequence:
#
# PCOD8293060 Si02
#       7
#    16  16  16  16  16  16  16
#     4   9  19  31  46  70 100 123 157 196 231 296
#     4  10  20  31  44  63  92 130 165 200 233 267
#     4  10  18  32  46  71  97 119 158 197 239 290
#     4   9  17  29  41  63  94 128 155 190 236 273
#     4   8  15  31  56  77  95 118 148 196 248 284
#     4  10  18  31  43  65  96 135 163 191 231 280
#     4   9  17  29  43  59  85 128 178 207 220 258
#
# _framework density 17.125050000000002
#
# number of rings (size 3 to 8) (size 9 to 14) (size 15 to 20)
#    0.000    2.714    1.429    1.714    0.000    2.286 
#    5.143    0.000    0.000    1.286    0.000    5.000 
#    0.000    0.000    0.000    0.000    0.000    0.000 
#
# Total GULP energy -693885.619717 kJ/mol
# GULP energy per Si atom -12390.814638 kJ/mol
# Density = 1.708607 g / cm^3
# Si number density = 17.125050 Si / 1000 Ang^3
#
#
#
# Elastic Constant Matrix: (Units=GPa)
#
#
# Indices 1 2 3 4 5 6 
#
# 1 65.3239 22.2620 26.5725 0.0000 0.0000 0.0000
# 2 22.2620 88.5111 40.2378 0.0000 0.0000 0.0000
# 3 26.5725 40.2378 76.5112 0.0000 0.0000 0.0000
# 4 0.0000 0.0000 0.0000 20.8878 0.0000 0.0000
# 5 0.0000 0.0000 0.0000 0.0000 6.9527 0.0000
# 6 0.0000 0.0000 0.0000 0.0000 0.0000 14.7425
#
#
#
# Elastic Compliance Matrix: (Units=1/GPa)
#
#
# Indices 1 2 3 4 5 6 
#
# 1 0.018157 -0.002234 -0.005131 0.000000 0.000000 0.000000
# 2 -0.002234 0.015123 -0.007177 0.000000 0.000000 0.000000
# 3 -0.005131 -0.007177 0.018627 0.000000 0.000000 0.000000
# 4 0.000000 0.000000 0.000000 0.047875 0.000000 0.000000
# 5 0.000000 0.000000 0.000000 0.000000 0.143829 0.000000
# 6 0.000000 0.000000 0.000000 0.000000 0.000000 0.067831
#
#
# Mechanical properties :
#
#
# Convention : Reuss Voigt Hill
#
# Bulk Modulus (GPa) = 43.81844 45.38788 44.60316
# Shear Modulus (GPa) = 14.36233 17.93486 16.14860
#
# Velocity S-wave (km/s) = 2.89913 3.23969 3.07413
# Velocity P-wave (km/s) = 6.07038 6.36832 6.22113
#
# Compressibility (1/GPa) = 0.02282144
#
# Stress axis : x y z
#
# Youngs Moduli (GPa) = 55.07550 66.12537 53.68680
#
# Poissons Ratio (x) = 0.14774 0.27547
# Poissons Ratio (y) = 0.12305 0.38532
# Poissons Ratio (z) = 0.28259 0.47460
#
# Static dielectric constant tensor:
#      x y z
#    x 3.036880 0.000000 0.000000 
#    y 0.000000 3.190960 0.000000 
#    z 0.000000 0.000000 3.263090 
# 
# 
# High freq. dielectric constant tensor:
#      x y z
#    x 1.612130 0.000000 0.000000 
#    y 0.000000 1.662250 0.000000 
#    z 0.000000 0.000000 1.649550 
# 
# From -- ./inp_files/45745.got.cif
#   From: 2010.03.12/outbox.cif.g09.slc.cpg/sg72_23_cif.got.tgz:45745.got - 2010.04.16 14:54:00.
