data_PCOD8293521
_publ_section_title
;
Structure prediction by ZEFSAII (Michael W. Deem and Ramdas Pophale) SiO2 
 PCOD8293521
Probable space group: I B A M
;
_chemical_formula_sum "Si O2"
_cell_formula_units_Z 80
_cell_length_a 17.912749
_cell_length_b 13.331228
_cell_length_c 18.433106
_cell_angle_alpha 90.000000
_cell_angle_beta 90.000000
_cell_angle_gamma 90.000000
_cell_volume 4401.806193
_symmetry_space_group_name_H-M "I B A M"
_symmetry_group_IT_number 72
_symmetry_cell_setting 'orthorhombic'
loop_
_space_group_symop_operation_xyz
x,y,z
-x,-y,z
x,-y,1/2-z
-x,y,1/2-z
-x,-y,-z
x,y,-z
-x,y,1/2+z
x,-y,1/2+z
1/2+x,1/2+y,1/2+z
1/2-x,1/2-y,1/2+z
1/2+x,1/2-y,-z
1/2-x,1/2+y,-z
1/2-x,1/2-y,1/2-z
1/2+x,1/2+y,1/2-z
1/2-x,1/2+y,z
1/2+x,1/2-y,z
loop_
_atom_site_type_symbol
_atom_site_label
_atom_site_fract_x
_atom_site_fract_y
_atom_site_fract_z
Si Si1 0.990401 0.712885 0.330969
Si Si2 0.805280 0.807780 0.085500
Si Si3 0.357011 0.114413 0.335200
Si Si4 0.835608 0.388671 0.168617
Si Si5 0.460275 0.399638 0.414603
O O1 0.912632 0.663651 0.351784
O O2 0.000000 0.757376 0.250000
O O3 0.053745 0.627756 0.338081
O O4 0.995537 0.804459 0.385825
O O5 0.821636 0.694353 0.110156
O O6 0.731499 0.838449 0.126644
O O7 0.872704 0.884822 0.106808
O O8 0.791473 0.807946 0.000000
O O9 0.323398 0.125740 0.254439
O O10 0.338451 0.002453 0.360039
O O11 0.500000 0.500000 0.382341
O O12 0.468877 0.400171 0.500000
#
# Coordination Sequence:
#
# PCOD8293521 Si02
#       5
#    16  16  16  16  16
#     4   9  18  33  54  79 103 129 168 212 257 309
#     4  10  21  35  51  76 108 137 172 218 260 301
#     4   9  19  36  54  75 105 137 167 209 260 310
#     4  10  19  33  56  80 102 133 171 212 260 312
#     4   9  19  36  53  70 101 143 177 208 253 307
#
# _framework density 18.174358000000002
#
# number of rings (size 3 to 8) (size 9 to 14) (size 15 to 20)
#    0.000    2.600    0.000    1.200    0.000    6.000 
#    0.000    6.000    0.000    6.000    0.000    0.000 
#    0.000    0.000    0.000    0.000    0.000    0.000 
#
# Total GULP energy -495811.698717 kJ/mol
# GULP energy per Si atom -12395.292468 kJ/mol
# Density = 1.813299 g / cm^3
# Si number density = 18.174358 Si / 1000 Ang^3
#
#
#
# Elastic Constant Matrix: (Units=GPa)
#
#
# Indices 1 2 3 4 5 6 
#
# 1 147.3342 63.7367 55.6379 0.0000 0.0000 0.0000
# 2 63.7367 87.3842 29.8314 0.0000 0.0000 0.0000
# 3 55.6379 29.8314 38.1942 0.0000 0.0000 0.0000
# 4 0.0000 0.0000 0.0000 25.0163 0.0000 0.0000
# 5 0.0000 0.0000 0.0000 0.0000 28.6856 0.0000
# 6 0.0000 0.0000 0.0000 0.0000 0.0000 7.4966
#
#
#
# Elastic Compliance Matrix: (Units=1/GPa)
#
#
# Indices 1 2 3 4 5 6 
#
# 1 0.016704 -0.005286 -0.020203 0.000000 0.000000 0.000000
# 2 -0.005286 0.017277 -0.005794 0.000000 0.000000 0.000000
# 3 -0.020203 -0.005794 0.060138 0.000000 0.000000 0.000000
# 4 0.000000 0.000000 0.000000 0.039974 0.000000 0.000000
# 5 0.000000 0.000000 0.000000 0.000000 0.034861 0.000000
# 6 0.000000 0.000000 0.000000 0.000000 0.000000 0.133394
#
#
# Mechanical properties :
#
#
# Convention : Reuss Voigt Hill
#
# Bulk Modulus (GPa) = 31.69411 63.48052 47.58731
# Shear Modulus (GPa) = 13.31801 20.48680 16.90240
#
# Velocity S-wave (km/s) = 2.70995 3.36108 3.05292
# Velocity P-wave (km/s) = 5.22193 7.07580 6.21834
#
# Compressibility (1/GPa) = 0.03155161
#
# Stress axis : x y z
#
# Youngs Moduli (GPa) = 59.86753 57.87931 16.62844
#
# Poissons Ratio (x) = 0.30596 0.33595
# Poissons Ratio (y) = 0.31647 0.09634
# Poissons Ratio (z) = 1.20953 0.33535
#
# Static dielectric constant tensor:
#      x y z
#    x 3.458950 0.000000 0.000000 
#    y 0.000000 3.409850 0.000000 
#    z 0.000000 0.000000 3.289010 
# 
# 
# High freq. dielectric constant tensor:
#      x y z
#    x 1.709400 0.000000 0.000000 
#    y 0.000000 1.706510 0.000000 
#    z 0.000000 0.000000 1.696800 
# 
# From -- ./inp_files/31355.got.cif
#   From: 2010.03.12/outbox.cif.g09.slc.cpg/sg72_16_cif.got.tgz:31355.got - 2010.04.16 14:54:00.
