data_PCOD8293633
_publ_section_title
;
Structure prediction by ZEFSAII (Michael W. Deem and Ramdas Pophale) SiO2 
 PCOD8293633
Probable space group: I B A M
;
_chemical_formula_sum "Si O2"
_cell_formula_units_Z 112
_cell_length_a 15.843779
_cell_length_b 14.785565
_cell_length_c 21.775061
_cell_angle_alpha 90.000000
_cell_angle_beta 90.000000
_cell_angle_gamma 90.000000
_cell_volume 5101.008898
_symmetry_space_group_name_H-M "I B A M"
_symmetry_group_IT_number 72
_symmetry_cell_setting 'orthorhombic'
loop_
_space_group_symop_operation_xyz
x,y,z
-x,-y,z
x,-y,1/2-z
-x,y,1/2-z
-x,-y,-z
x,y,-z
-x,y,1/2+z
x,-y,1/2+z
1/2+x,1/2+y,1/2+z
1/2-x,1/2-y,1/2+z
1/2+x,1/2-y,-z
1/2-x,1/2+y,-z
1/2-x,1/2-y,1/2-z
1/2+x,1/2+y,1/2-z
1/2-x,1/2+y,z
1/2+x,1/2-y,z
loop_
_atom_site_type_symbol
_atom_site_label
_atom_site_fract_x
_atom_site_fract_y
_atom_site_fract_z
Si Si1 0.564245 0.275470 0.197896
Si Si2 0.500042 0.749713 0.567699
Si Si3 0.924531 0.555365 0.068406
Si Si4 0.307701 0.272784 0.930395
Si Si5 0.270968 0.641563 0.160880
Si Si6 0.145352 0.400144 0.759630
Si Si7 0.751351 0.054246 0.132803
O O1 0.500000 0.312235 0.250000
O O2 0.530423 0.301897 0.129436
O O3 0.654529 0.323604 0.205526
O O4 0.576993 0.166992 0.209087
O O5 0.514338 0.701120 0.500000
O O6 0.553621 0.840057 0.566963
O O7 0.400659 0.769339 0.574860
O O8 0.839584 0.537024 0.103696
O O9 0.000000 0.500000 0.101214
O O10 0.911804 0.516391 0.000000
O O11 0.239556 0.211437 0.895198
O O12 0.308611 0.375164 0.904300
O O13 0.275544 0.277136 0.000000
O O14 0.180617 0.639534 0.195592
O O15 0.297828 0.542624 0.135709
O O16 0.104364 0.500000 0.750000
O O17 0.231467 0.408101 0.799503
#
# Coordination Sequence:
#
# PCOD8293633 Si02
#       7
#    16  16  16  16  16  16  16
#     4  12  24  40  66  97 130 179 220 274 333 402
#     4  10  22  40  61  90 129 173 215 272 339 396
#     4  10  19  34  59  93 131 162 206 272 338 396
#     4  11  23  41  68  96 131 177 228 275 332 408
#     4  11  24  42  66  94 134 173 222 279 335 401
#     4  10  22  41  64  95 129 171 217 278 339 402
#     4  11  22  40  66  92 130 175 225 272 333 398
#
# _framework density 21.956441000000002
#
# number of rings (size 3 to 8) (size 9 to 14) (size 15 to 20)
#    0.000    1.286    2.857    2.571    2.000    5.429 
#    0.000    0.714    0.000    1.714    0.000    0.000 
#    0.000    0.000    0.000    0.000    0.000    0.000 
#
# Total GULP energy -694207.185891 kJ/mol
# GULP energy per Si atom -12396.556891 kJ/mol
# Density = 2.190647 g / cm^3
# Si number density = 21.956441 Si / 1000 Ang^3
#
#
#
# Elastic Constant Matrix: (Units=GPa)
#
#
# Indices 1 2 3 4 5 6 
#
# 1 65.2342 19.2168 25.4084 0.0000 0.0000 0.0000
# 2 19.2168 84.5907 35.7011 0.0000 0.0000 0.0000
# 3 25.4084 35.7011 127.3411 0.0000 0.0000 0.0000
# 4 0.0000 0.0000 0.0000 18.8653 0.0000 0.0000
# 5 0.0000 0.0000 0.0000 0.0000 22.5139 0.0000
# 6 0.0000 0.0000 0.0000 0.0000 0.0000 28.9574
#
#
#
# Elastic Compliance Matrix: (Units=1/GPa)
#
#
# Indices 1 2 3 4 5 6 
#
# 1 0.017181 -0.002786 -0.002647 0.000000 0.000000 0.000000
# 2 -0.002786 0.013860 -0.003330 0.000000 0.000000 0.000000
# 3 -0.002647 -0.003330 0.009315 0.000000 0.000000 0.000000
# 4 0.000000 0.000000 0.000000 0.053007 0.000000 0.000000
# 5 0.000000 0.000000 0.000000 0.000000 0.044417 0.000000
# 6 0.000000 0.000000 0.000000 0.000000 0.000000 0.034534
#
#
# Mechanical properties :
#
#
# Convention : Reuss Voigt Hill
#
# Bulk Modulus (GPa) = 43.80224 48.64655 46.22440
# Shear Modulus (GPa) = 25.32297 27.18996 26.25647
#
# Velocity S-wave (km/s) = 3.39975 3.52285 3.46185
# Velocity P-wave (km/s) = 5.95013 6.22506 6.08914
#
# Compressibility (1/GPa) = 0.02282988
#
# Stress axis : x y z
#
# Youngs Moduli (GPa) = 58.20356 72.15081 107.35778
#
# Poissons Ratio (x) = 0.20101 0.28419
# Poissons Ratio (y) = 0.16215 0.35749
# Poissons Ratio (z) = 0.15407 0.24025
#
# Static dielectric constant tensor:
#      x y z
#    x 3.672450 0.000000 0.000000 
#    y 0.000000 3.752480 0.000000 
#    z 0.000000 0.000000 4.467110 
# 
# 
# High freq. dielectric constant tensor:
#      x y z
#    x 1.845890 0.000000 0.000000 
#    y 0.000000 1.837790 0.000000 
#    z 0.000000 0.000000 1.883130 
# 
# From -- ./inp_files/44339.got.cif
#   From: 2010.03.12/outbox.cif.g09.slc.cpg/sg72_23_cif.got.tgz:44339.got - 2010.04.16 14:54:00.
