data_PCOD8293244
_publ_section_title
;
Structure prediction by ZEFSAII (Michael W. Deem and Ramdas Pophale) SiO2 
 PCOD8293244
Probable space group: I B A M
;
_chemical_formula_sum "Si O2"
_cell_formula_units_Z 128
_cell_length_a 21.362786
_cell_length_b 19.175492
_cell_length_c 17.754840
_cell_angle_alpha 90.000000
_cell_angle_beta 90.000000
_cell_angle_gamma 90.000000
_cell_volume 7273.126961
_symmetry_space_group_name_H-M "I B A M"
_symmetry_group_IT_number 72
_symmetry_cell_setting 'orthorhombic'
loop_
_space_group_symop_operation_xyz
x,y,z
-x,-y,z
x,-y,1/2-z
-x,y,1/2-z
-x,-y,-z
x,y,-z
-x,y,1/2+z
x,-y,1/2+z
1/2+x,1/2+y,1/2+z
1/2-x,1/2-y,1/2+z
1/2+x,1/2-y,-z
1/2-x,1/2+y,-z
1/2-x,1/2-y,1/2-z
1/2+x,1/2+y,1/2-z
1/2-x,1/2+y,z
1/2+x,1/2-y,z
loop_
_atom_site_type_symbol
_atom_site_label
_atom_site_fract_x
_atom_site_fract_y
_atom_site_fract_z
Si Si1 0.523360 0.577748 0.587871
Si Si2 0.112300 0.325008 0.589895
Si Si3 0.241494 0.629119 0.917145
Si Si4 0.350131 0.422781 0.665889
Si Si5 0.305017 0.028218 0.415558
Si Si6 0.434442 0.028499 0.910156
Si Si7 0.813755 0.927062 0.339577
Si Si8 0.591466 0.672485 0.911426
O O1 0.500000 0.500000 0.602989
O O2 0.542461 0.587654 0.500000
O O3 0.579352 0.597802 0.644534
O O4 0.468917 0.629621 0.613961
O O5 0.113065 0.329811 0.500000
O O6 0.184529 0.326486 0.618523
O O7 0.074518 0.392265 0.621171
O O8 0.083177 0.251943 0.618349
O O9 0.304453 0.635650 0.868849
O O10 0.219406 0.549819 0.920088
O O11 0.257863 0.657056 0.000000
O O12 0.332605 0.423175 0.752892
O O13 0.339980 0.499334 0.628866
O O14 0.302259 0.061376 0.500000
O O15 0.261313 0.073334 0.357874
O O16 0.377067 0.022956 0.385492
O O17 0.500000 0.000000 0.877044
O O18 0.435871 0.030022 0.000000
O O19 0.845400 0.862045 0.380379
O O20 0.598598 0.671873 0.000000
#
# Coordination Sequence:
#
# PCOD8293244 Si02
#       8
#    16  16  16  16  16  16  16  16
#     4  10  19  31  48  71  96 127 163 200 245 294
#     4   8  15  28  47  71  94 122 159 195 244 299
#     4   8  14  27  48  68  88 117 154 198 238 287
#     4  10  19  30  45  70  96 123 164 205 243 282
#     4   8  14  25  44  70  97 124 158 199 242 289
#     4   8  13  24  47  78 103 123 154 204 257 297
#     4  10  19  29  43  69  96 129 164 203 247 275
#     4  10  19  31  47  66  94 131 166 204 245 295
#
# _framework density 17.599032999999999
#
# number of rings (size 3 to 8) (size 9 to 14) (size 15 to 20)
#    0.000    3.000    1.250    2.250    0.000    1.500 
#    0.000    0.625    2.750    0.000    3.250   14.875 
#    0.000    0.000    0.000    0.000    0.000    0.125 
#
# Total GULP energy -792910.723834 kJ/mol
# GULP energy per Si atom -12389.230060 kJ/mol
# Density = 1.755898 g / cm^3
# Si number density = 17.599033 Si / 1000 Ang^3
#
#
#
# Elastic Constant Matrix: (Units=GPa)
#
#
# Indices 1 2 3 4 5 6 
#
# 1 161.0895 65.1654 43.5150 0.0000 0.0000 0.0000
# 2 65.1654 91.6172 22.2584 0.0000 0.0000 0.0000
# 3 43.5150 22.2584 39.7778 0.0000 0.0000 0.0000
# 4 0.0000 0.0000 0.0000 7.5414 0.0000 0.0000
# 5 0.0000 0.0000 0.0000 0.0000 9.9398 0.0000
# 6 0.0000 0.0000 0.0000 0.0000 0.0000 24.6342
#
#
#
# Elastic Compliance Matrix: (Units=1/GPa)
#
#
# Indices 1 2 3 4 5 6 
#
# 1 0.010818 -0.005578 -0.008713 0.000000 0.000000 0.000000
# 2 -0.005578 0.015508 -0.002576 0.000000 0.000000 0.000000
# 3 -0.008713 -0.002576 0.036113 0.000000 0.000000 0.000000
# 4 0.000000 0.000000 0.000000 0.132602 0.000000 0.000000
# 5 0.000000 0.000000 0.000000 0.000000 0.100606 0.000000
# 6 0.000000 0.000000 0.000000 0.000000 0.000000 0.040594
#
#
# Mechanical properties :
#
#
# Convention : Reuss Voigt Hill
#
# Bulk Modulus (GPa) = 34.83719 61.59580 48.21650
# Shear Modulus (GPa) = 13.17377 19.19278 16.18327
#
# Velocity S-wave (km/s) = 2.73893 3.30594 3.03571
# Velocity P-wave (km/s) = 5.46262 7.04612 6.30429
#
# Compressibility (1/GPa) = 0.02870496
#
# Stress axis : x y z
#
# Youngs Moduli (GPa) = 92.44165 64.48251 27.69104
#
# Poissons Ratio (x) = 0.35965 0.24127
# Poissons Ratio (y) = 0.51560 0.07134
# Poissons Ratio (z) = 0.80544 0.16612
#
# Static dielectric constant tensor:
#      x y z
#    x 3.585950 0.000000 0.000000 
#    y 0.000000 3.269110 0.000000 
#    z 0.000000 0.000000 2.956840 
# 
# 
# High freq. dielectric constant tensor:
#      x y z
#    x 1.686370 0.000000 0.000000 
#    y 0.000000 1.647370 0.000000 
#    z 0.000000 0.000000 1.643190 
# 
# From -- ./inp_files/32915.got.cif
#   From: 2010.03.12/outbox.cif.g09.slc.cpg/sg72_17_cif.got.tgz:32915.got - 2010.04.16 14:54:00.
