data_PCOD8293952
_publ_section_title
;
Structure prediction by ZEFSAII (Michael W. Deem and Ramdas Pophale) SiO2 
 PCOD8293952
Probable space group: I B A M
;
_chemical_formula_sum "Si O2"
_cell_formula_units_Z 72
_cell_length_a 8.692301
_cell_length_b 31.010309
_cell_length_c 13.427626
_cell_angle_alpha 90.000000
_cell_angle_beta 90.000000
_cell_angle_gamma 90.000000
_cell_volume 3619.429209
_symmetry_space_group_name_H-M "I B A M"
_symmetry_group_IT_number 72
_symmetry_cell_setting 'orthorhombic'
loop_
_space_group_symop_operation_xyz
x,y,z
-x,-y,z
x,-y,1/2-z
-x,y,1/2-z
-x,-y,-z
x,y,-z
-x,y,1/2+z
x,-y,1/2+z
1/2+x,1/2+y,1/2+z
1/2-x,1/2-y,1/2+z
1/2+x,1/2-y,-z
1/2-x,1/2+y,-z
1/2-x,1/2-y,1/2-z
1/2+x,1/2+y,1/2-z
1/2-x,1/2+y,z
1/2+x,1/2-y,z
loop_
_atom_site_type_symbol
_atom_site_label
_atom_site_fract_x
_atom_site_fract_y
_atom_site_fract_z
Si Si1 0.750927 0.545563 0.383023
Si Si2 0.332828 0.292067 0.291437
Si Si3 0.509658 0.187905 0.000000
Si Si4 0.782767 0.761500 0.000000
Si Si5 0.121809 0.632908 0.173725
Si Si6 0.000000 0.000000 0.250000
Si Si7 0.000000 0.500000 0.250000
O O1 0.742733 0.531494 0.500000
O O2 0.769594 0.597240 0.377635
O O3 0.599776 0.530243 0.323281
O O4 0.898521 0.527199 0.326627
O O5 0.500000 0.299558 0.250000
O O6 0.250000 0.250000 0.250000
O O7 0.356322 0.286618 0.408207
O O8 0.230124 0.333813 0.266894
O O9 0.679662 0.209870 0.000000
O O10 0.482460 0.158514 0.904807
O O11 0.400835 0.230647 0.000000
O O12 0.000000 0.611463 0.250000
#
# Coordination Sequence:
#
# PCOD8293952 Si02
#       7
#    16  16   8   8  16   4   4
#     4  11  22  43  68  97 129 161 205 258 319 389
#     4  11  22  37  57  82 117 163 207 257 299 357
#     4  10  20  36  56  82 116 163 199 259 303 352
#     4  10  20  34  56  78 110 152 209 241 299 353
#     4  11  22  37  60  88 123 159 201 259 315 364
#     4  10  26  42  72  92 126 170 202 254 328 404
#     4  10  22  42  72 100 122 162 202 250 324 384
#
# _framework density 19.892638000000002
#
# number of rings (size 3 to 8) (size 9 to 14) (size 15 to 20)
#    0.000    1.333    2.222    5.333    1.556    0.000 
#    0.000    0.000    2.444    0.000    0.000    0.000 
#    0.000    0.000    0.000    0.000    0.000    0.000 
#
# Total GULP energy -446234.952478 kJ/mol
# GULP energy per Si atom -12395.415347 kJ/mol
# Density = 1.984736 g / cm^3
# Si number density = 19.892638 Si / 1000 Ang^3
#
#
#
# Elastic Constant Matrix: (Units=GPa)
#
#
# Indices 1 2 3 4 5 6 
#
# 1 92.1110 37.9057 60.2551 -0.0002 0.0001 0.0000
# 2 37.9057 100.8814 35.4178 -0.0004 0.0000 0.0000
# 3 60.2551 35.4178 138.3764 -0.0021 0.0002 0.0001
# 4 -0.0002 -0.0004 -0.0021 39.6425 0.0000 0.0000
# 5 0.0001 0.0000 0.0002 0.0000 28.6390 -0.0002
# 6 0.0000 0.0000 0.0001 0.0000 -0.0002 36.0288
#
#
#
# Elastic Compliance Matrix: (Units=1/GPa)
#
#
# Indices 1 2 3 4 5 6 
#
# 1 0.016565 -0.004056 -0.006175 0.000000 0.000000 0.000000
# 2 -0.004056 0.011885 -0.001276 0.000000 0.000000 0.000000
# 3 -0.006175 -0.001276 0.010242 0.000001 0.000000 0.000000
# 4 0.000000 0.000000 0.000001 0.025225 0.000000 0.000000
# 5 0.000000 0.000000 0.000000 0.000000 0.034917 0.000000
# 6 0.000000 0.000000 0.000000 0.000000 0.000000 0.027756
#
#
# Mechanical properties :
#
#
# Convention : Reuss Voigt Hill
#
# Bulk Modulus (GPa) = 63.78370 66.50288 65.14329
# Shear Modulus (GPa) = 32.29352 34.04809 33.17081
#
# Velocity S-wave (km/s) = 4.03350 4.14163 4.08792
# Velocity P-wave (km/s) = 7.33661 7.50828 7.42294
#
# Compressibility (1/GPa) = 0.01567799
#
# Stress axis : x y z
#
# Youngs Moduli (GPa) = 60.36783 84.14241 97.63726
#
# Poissons Ratio (x) = 0.34131 0.60290
# Poissons Ratio (y) = 0.24487 0.12455
# Poissons Ratio (z) = 0.37277 0.10733
#
# Static dielectric constant tensor:
#      x y z
#    x 3.581850 0.000000 0.000010 
#    y 0.000000 3.568390 0.000000 
#    z 0.000010 0.000000 4.002730 
# 
# 
# High freq. dielectric constant tensor:
#      x y z
#    x 1.773590 0.000000 0.000000 
#    y 0.000000 1.768500 0.000000 
#    z 0.000000 0.000000 1.792900 
# 
# From -- ./inp_files/18959.got.cif
#   From: 2010.03.12/outbox.cif.g09.slc.cpg/sg72_10_cif.got.tgz:18959.got - 2010.04.16 14:54:00.
