data_PCOD8293815
_publ_section_title
;
Structure prediction by ZEFSAII (Michael W. Deem and Ramdas Pophale) SiO2 
 PCOD8293815
Probable space group: I B A M
;
_chemical_formula_sum "Si O2"
_cell_formula_units_Z 64
_cell_length_a 15.447934
_cell_length_b 13.548349
_cell_length_c 17.727509
_cell_angle_alpha 90.000000
_cell_angle_beta 90.000000
_cell_angle_gamma 90.000000
_cell_volume 3710.261289
_symmetry_space_group_name_H-M "I B A M"
_symmetry_group_IT_number 72
_symmetry_cell_setting 'orthorhombic'
loop_
_space_group_symop_operation_xyz
x,y,z
-x,-y,z
x,-y,1/2-z
-x,y,1/2-z
-x,-y,-z
x,y,-z
-x,y,1/2+z
x,-y,1/2+z
1/2+x,1/2+y,1/2+z
1/2-x,1/2-y,1/2+z
1/2+x,1/2-y,-z
1/2-x,1/2+y,-z
1/2-x,1/2-y,1/2-z
1/2+x,1/2+y,1/2-z
1/2-x,1/2+y,z
1/2+x,1/2-y,z
loop_
_atom_site_type_symbol
_atom_site_label
_atom_site_fract_x
_atom_site_fract_y
_atom_site_fract_z
Si Si1 0.189429 0.272799 0.589928
Si Si2 0.858532 0.456628 0.170422
Si Si3 0.141890 0.656383 0.587786
Si Si4 0.521172 0.216557 0.330975
O O1 0.182467 0.287947 0.500000
O O2 0.208077 0.378047 0.631680
O O3 0.264970 0.197781 0.613183
O O4 0.098531 0.228486 0.622976
O O5 0.823779 0.500000 0.250000
O O6 0.869864 0.544134 0.111644
O O7 0.949389 0.398188 0.182557
O O8 0.130327 0.663918 0.500000
O O9 0.067097 0.723727 0.622740
O O10 0.500000 0.265997 0.250000
#
# Coordination Sequence:
#
# PCOD8293815 Si02
#       4
#    16  16  16  16
#     4   9  21  34  47  77 108 131 172 213 248 305
#     4  10  20  32  51  77 107 131 167 211 256 304
#     4  11  20  32  53  75 101 142 171 207 262 297
#     4  10  20  32  51  77 107 131 167 211 256 304
#
# _framework density 17.249458000000001
#
# number of rings (size 3 to 8) (size 9 to 14) (size 15 to 20)
#    1.500    0.500    2.500    2.250    0.000    5.000 
#    0.000    0.000    0.000    1.500    0.000   10.500 
#    0.000    0.000    0.000    0.000    0.000    0.000 
#
# Total GULP energy -396428.589527 kJ/mol
# GULP energy per Si atom -12388.393423 kJ/mol
# Density = 1.721020 g / cm^3
# Si number density = 17.249458 Si / 1000 Ang^3
#
#
#
# Elastic Constant Matrix: (Units=GPa)
#
#
# Indices 1 2 3 4 5 6 
#
# 1 91.3540 15.6184 47.1278 0.0000 0.0000 0.0000
# 2 15.6184 13.9551 17.9506 0.0000 0.0000 0.0000
# 3 47.1278 17.9506 96.4591 0.0000 0.0000 0.0000
# 4 0.0000 0.0000 0.0000 22.3353 0.0000 0.0000
# 5 0.0000 0.0000 0.0000 0.0000 23.0619 0.0000
# 6 0.0000 0.0000 0.0000 0.0000 0.0000 31.7012
#
#
#
# Elastic Compliance Matrix: (Units=1/GPa)
#
#
# Indices 1 2 3 4 5 6 
#
# 1 0.015647 -0.010095 -0.005766 0.000000 0.000000 0.000000
# 2 -0.010095 0.100722 -0.013812 0.000000 0.000000 0.000000
# 3 -0.005766 -0.013812 0.015755 0.000000 0.000000 0.000000
# 4 0.000000 0.000000 0.000000 0.044772 0.000000 0.000000
# 5 0.000000 0.000000 0.000000 0.000000 0.043362 0.000000
# 6 0.000000 0.000000 0.000000 0.000000 0.000000 0.031545
#
#
# Mechanical properties :
#
#
# Convention : Reuss Voigt Hill
#
# Bulk Modulus (GPa) = 13.74034 40.35133 27.04584
# Shear Modulus (GPa) = 14.90724 23.49110 19.19917
#
# Velocity S-wave (km/s) = 2.94294 3.69432 3.33983
# Velocity P-wave (km/s) = 4.41937 6.45298 5.53045
#
# Compressibility (1/GPa) = 0.07277838
#
# Stress axis : x y z
#
# Youngs Moduli (GPa) = 63.91028 9.92827 63.47334
#
# Poissons Ratio (x) = 0.10022 0.36600
# Poissons Ratio (y) = 0.64516 0.87669
# Poissons Ratio (z) = 0.36852 0.13713
#
# Static dielectric constant tensor:
#      x y z
#    x 3.197090 0.000000 0.000000 
#    y 0.000000 3.006880 0.000000 
#    z 0.000000 0.000000 3.314220 
# 
# 
# High freq. dielectric constant tensor:
#      x y z
#    x 1.656470 0.000000 0.000000 
#    y 0.000000 1.619310 0.000000 
#    z 0.000000 0.000000 1.688110 
# 
# From -- ./inp_files/21376.got.cif
#   From: 2010.03.12/outbox.cif.g09.slc.cpg/sg72_11_cif.got.tgz:21376.got - 2010.04.16 14:54:00.
