data_PCOD8293189
_publ_section_title
;
Structure prediction by ZEFSAII (Michael W. Deem and Ramdas Pophale) SiO2 
 PCOD8293189
Probable space group: I B A M
;
_chemical_formula_sum "Si O2"
_cell_formula_units_Z 104
_cell_length_a 15.462823
_cell_length_b 14.865485
_cell_length_c 23.366795
_cell_angle_alpha 90.000000
_cell_angle_beta 90.000000
_cell_angle_gamma 90.000000
_cell_volume 5371.146723
_symmetry_space_group_name_H-M "I B A M"
_symmetry_group_IT_number 72
_symmetry_cell_setting 'orthorhombic'
loop_
_space_group_symop_operation_xyz
x,y,z
-x,-y,z
x,-y,1/2-z
-x,y,1/2-z
-x,-y,-z
x,y,-z
-x,y,1/2+z
x,-y,1/2+z
1/2+x,1/2+y,1/2+z
1/2-x,1/2-y,1/2+z
1/2+x,1/2-y,-z
1/2-x,1/2+y,-z
1/2-x,1/2-y,1/2-z
1/2+x,1/2+y,1/2-z
1/2-x,1/2+y,z
1/2+x,1/2-y,z
loop_
_atom_site_type_symbol
_atom_site_label
_atom_site_fract_x
_atom_site_fract_y
_atom_site_fract_z
Si Si1 0.748166 0.515711 0.433758
Si Si2 0.325993 0.177999 0.878281
Si Si3 0.981935 0.743337 0.869607
Si Si4 0.063317 0.917324 0.564199
Si Si5 0.320486 0.103457 0.244241
Si Si6 0.798443 0.337513 0.368562
Si Si7 0.500000 0.818497 0.250000
O O1 0.746994 0.487010 0.500000
O O2 0.811906 0.599360 0.424162
O O3 0.654513 0.548185 0.412093
O O4 0.778820 0.433081 0.395912
O O5 0.427660 0.197160 0.886665
O O6 0.290029 0.146430 0.815856
O O7 0.268901 0.265290 0.894036
O O8 0.976633 0.842077 0.895259
O O9 0.896938 0.686164 0.887260
O O10 0.983551 0.751025 0.801238
O O11 0.073501 0.877879 0.500000
O O12 0.000000 0.000000 0.564515
O O13 0.284963 0.157147 0.299676
O O14 0.423356 0.111148 0.241669
O O15 0.291908 0.000000 0.250000
#
# Coordination Sequence:
#
# PCOD8293189 Si02
#       7
#    16  16  16  16  16  16   8
#     4  11  24  40  61  90 121 160 207 257 302 355
#     4  11  22  39  61  90 122 157 201 256 304 364
#     4  10  21  38  62  87 121 159 198 244 312 360
#     4  10  21  40  63  85 115 160 210 248 296 363
#     4  10  18  34  59  85 118 159 201 241 307 366
#     4  11  22  39  61  88 123 160 200 252 306 365
#     4   8  19  32  55  90 120 154 194 245 292 375
#
# _framework density 19.362717
#
# number of rings (size 3 to 8) (size 9 to 14) (size 15 to 20)
#    0.000    1.692    3.077    1.615    0.000    2.462 
#    0.000    1.154    0.000    0.000    0.000    0.000 
#    0.000    0.000    0.000    0.000    0.000    0.000 
#
# Total GULP energy -644635.816681 kJ/mol
# GULP energy per Si atom -12396.842628 kJ/mol
# Density = 1.931865 g / cm^3
# Si number density = 19.362717 Si / 1000 Ang^3
#
#
#
# Elastic Constant Matrix: (Units=GPa)
#
#
# Indices 1 2 3 4 5 6 
#
# 1 115.9536 43.2877 25.0101 0.0000 0.0000 0.0000
# 2 43.2877 106.6705 23.0455 0.0000 0.0000 0.0000
# 3 25.0101 23.0455 47.8445 0.0000 0.0000 0.0000
# 4 0.0000 0.0000 0.0000 48.7762 0.0000 0.0000
# 5 0.0000 0.0000 0.0000 0.0000 153.0481 0.0000
# 6 0.0000 0.0000 0.0000 0.0000 0.0000 30.0569
#
#
#
# Elastic Compliance Matrix: (Units=1/GPa)
#
#
# Indices 1 2 3 4 5 6 
#
# 1 0.010791 -0.003528 -0.003942 0.000000 0.000000 0.000000
# 2 -0.003528 0.011617 -0.003751 0.000000 0.000000 0.000000
# 3 -0.003942 -0.003751 0.024769 0.000000 0.000000 0.000000
# 4 0.000000 0.000000 0.000000 0.020502 0.000000 0.000000
# 5 0.000000 0.000000 0.000000 0.000000 0.006534 0.000000
# 6 0.000000 0.000000 0.000000 0.000000 0.000000 0.033270
#
#
# Mechanical properties :
#
#
# Convention : Reuss Voigt Hill
#
# Bulk Modulus (GPa) = 40.42896 50.35057 45.38976
# Shear Modulus (GPa) = 36.18754 58.31792 47.25273
#
# Velocity S-wave (km/s) = 4.32780 5.49400 4.94540
# Velocity P-wave (km/s) = 6.77483 8.14283 7.49013
#
# Compressibility (1/GPa) = 0.02473474
#
# Stress axis : x y z
#
# Youngs Moduli (GPa) = 92.66749 86.08337 40.37374
#
# Poissons Ratio (x) = 0.30366 0.15915
# Poissons Ratio (y) = 0.32689 0.15146
# Poissons Ratio (z) = 0.36528 0.32294
#
# Static dielectric constant tensor:
#      x y z
#    x 3.643280 0.000000 0.000000 
#    y 0.000000 3.363920 0.000000 
#    z 0.000000 0.000000 3.637420 
# 
# 
# High freq. dielectric constant tensor:
#      x y z
#    x 1.759110 0.000000 0.000000 
#    y 0.000000 1.752780 0.000000 
#    z 0.000000 0.000000 1.749190 
# 
# From -- ./inp_files/44366.got.cif
#   From: 2010.03.12/outbox.cif.g09.slc.cpg/sg72_23_cif.got.tgz:44366.got - 2010.04.16 14:54:00.
