data_PCOD8293490
_publ_section_title
;
Structure prediction by ZEFSAII (Michael W. Deem and Ramdas Pophale) SiO2 
 PCOD8293490
Probable space group: I B A M
;
_chemical_formula_sum "Si O2"
_cell_formula_units_Z 88
_cell_length_a 10.333024
_cell_length_b 19.033046
_cell_length_c 22.893927
_cell_angle_alpha 90.000000
_cell_angle_beta 90.000000
_cell_angle_gamma 90.000000
_cell_volume 4502.523923
_symmetry_space_group_name_H-M "I B A M"
_symmetry_group_IT_number 72
_symmetry_cell_setting 'orthorhombic'
loop_
_space_group_symop_operation_xyz
x,y,z
-x,-y,z
x,-y,1/2-z
-x,y,1/2-z
-x,-y,-z
x,y,-z
-x,y,1/2+z
x,-y,1/2+z
1/2+x,1/2+y,1/2+z
1/2-x,1/2-y,1/2+z
1/2+x,1/2-y,-z
1/2-x,1/2+y,-z
1/2-x,1/2-y,1/2-z
1/2+x,1/2+y,1/2-z
1/2-x,1/2+y,z
1/2+x,1/2-y,z
loop_
_atom_site_type_symbol
_atom_site_label
_atom_site_fract_x
_atom_site_fract_y
_atom_site_fract_z
Si Si1 0.886730 0.416368 0.344353
Si Si2 0.196628 0.923401 0.743563
Si Si3 0.826767 0.438561 0.871284
Si Si4 0.435875 0.235279 0.370895
Si Si5 0.500000 0.693105 0.250000
Si Si6 0.698102 0.196362 0.432826
O O1 0.829485 0.423381 0.279684
O O2 0.818754 0.477525 0.385213
O O3 0.864287 0.340201 0.372806
O O4 0.038536 0.427453 0.338099
O O5 0.219771 0.911465 0.674739
O O6 0.114051 0.859355 0.769721
O O7 0.128523 0.000000 0.750000
O O8 0.816325 0.388818 0.928012
O O9 0.458080 0.258285 0.303893
O O10 0.576272 0.234380 0.402005
O O11 0.336095 0.285346 0.404246
O O12 0.698738 0.218538 0.500000
#
# Coordination Sequence:
#
# PCOD8293490 Si02
#       6
#    16  16  16  16   8  16
#     4   9  19  33  56  85 116 148 189 245 301 357
#     4  10  19  33  53  83 119 158 188 235 291 363
#     4   9  18  36  56  82 113 152 198 239 295 350
#     4  11  24  38  61  90 123 155 200 251 309 359
#     4  12  23  34  56  89 126 158 192 242 306 365
#     4  11  23  42  62  85 118 163 207 250 294 355
#
# _framework density 19.544592999999999
#
# number of rings (size 3 to 8) (size 9 to 14) (size 15 to 20)
#    0.000    1.818    1.818    2.455    5.091    3.636 
#    0.000    8.182    0.000    0.000    0.000    5.091 
#    0.000    0.000    0.000    0.000    0.000    0.000 
#
# Total GULP energy -545196.356197 kJ/mol
# GULP energy per Si atom -12390.826277 kJ/mol
# Density = 1.950011 g / cm^3
# Si number density = 19.544593 Si / 1000 Ang^3
#
#
#
# Elastic Constant Matrix: (Units=GPa)
#
#
# Indices 1 2 3 4 5 6 
#
# 1 79.0002 34.9770 37.1662 0.0000 0.0000 0.0000
# 2 34.9770 122.4200 37.6621 0.0000 0.0000 0.0000
# 3 37.1662 37.6621 100.7027 0.0000 0.0000 0.0000
# 4 0.0000 0.0000 0.0000 20.0944 0.0000 0.0000
# 5 0.0000 0.0000 0.0000 0.0000 19.0682 0.0000
# 6 0.0000 0.0000 0.0000 0.0000 0.0000 23.4931
#
#
#
# Elastic Compliance Matrix: (Units=1/GPa)
#
#
# Indices 1 2 3 4 5 6 
#
# 1 0.016345 -0.003180 -0.004843 0.000000 0.000000 0.000000
# 2 -0.003180 0.009849 -0.002510 0.000000 0.000000 0.000000
# 3 -0.004843 -0.002510 0.012656 0.000000 0.000000 0.000000
# 4 0.000000 0.000000 0.000000 0.049765 0.000000 0.000000
# 5 0.000000 0.000000 0.000000 0.000000 0.052443 0.000000
# 6 0.000000 0.000000 0.000000 0.000000 0.000000 0.042566
#
#
# Mechanical properties :
#
#
# Convention : Reuss Voigt Hill
#
# Bulk Modulus (GPa) = 56.22898 57.97040 57.09969
# Shear Modulus (GPa) = 23.73966 25.35233 24.54599
#
# Velocity S-wave (km/s) = 3.48895 3.60551 3.54771
# Velocity P-wave (km/s) = 6.71285 6.85988 6.78676
#
# Compressibility (1/GPa) = 0.01778442
#
# Stress axis : x y z
#
# Youngs Moduli (GPa) = 61.18259 101.52976 79.01190
#
# Poissons Ratio (x) = 0.32286 0.38265
# Poissons Ratio (y) = 0.19456 0.19832
# Poissons Ratio (z) = 0.29631 0.25484
#
# Static dielectric constant tensor:
#      x y z
#    x 3.455460 0.000000 0.000000 
#    y 0.000000 4.069680 0.000000 
#    z 0.000000 0.000000 3.111990 
# 
# 
# High freq. dielectric constant tensor:
#      x y z
#    x 1.756680 0.000000 0.000000 
#    y 0.000000 1.781110 0.000000 
#    z 0.000000 0.000000 1.721370 
# 
# From -- ./inp_files/42274.got.cif
#   From: 2010.03.12/outbox.cif.g09.slc.cpg/sg72_22_cif.got.tgz:42274.got - 2010.04.16 14:54:00.
