data_PCOD8293453
_publ_section_title
;
Structure prediction by ZEFSAII (Michael W. Deem and Ramdas Pophale) SiO2 
 PCOD8293453
Probable space group: I B A M
;
_chemical_formula_sum "Si O2"
_cell_formula_units_Z 80
_cell_length_a 5.086424
_cell_length_b 32.756909
_cell_length_c 30.339926
_cell_angle_alpha 90.000000
_cell_angle_beta 90.000000
_cell_angle_gamma 90.000000
_cell_volume 5055.102793
_symmetry_space_group_name_H-M "I B A M"
_symmetry_group_IT_number 72
_symmetry_cell_setting 'orthorhombic'
loop_
_space_group_symop_operation_xyz
x,y,z
-x,-y,z
x,-y,1/2-z
-x,y,1/2-z
-x,-y,-z
x,y,-z
-x,y,1/2+z
x,-y,1/2+z
1/2+x,1/2+y,1/2+z
1/2-x,1/2-y,1/2+z
1/2+x,1/2-y,-z
1/2-x,1/2+y,-z
1/2-x,1/2-y,1/2-z
1/2+x,1/2+y,1/2-z
1/2-x,1/2+y,z
1/2+x,1/2-y,z
loop_
_atom_site_type_symbol
_atom_site_label
_atom_site_fract_x
_atom_site_fract_y
_atom_site_fract_z
Si Si1 0.750689 0.024068 0.947593
Si Si2 0.500000 0.277772 0.250000
Si Si3 0.145182 0.837956 0.576131
Si Si4 0.952163 0.220987 0.345414
Si Si5 0.750757 0.277794 0.000000
Si Si6 0.632959 0.885591 0.448688
O O1 0.729783 0.070530 0.930718
O O2 0.500000 0.000000 0.930065
O O3 0.768023 0.024143 0.000000
O O4 0.000000 0.000000 0.927595
O O5 0.250000 0.250000 0.250000
O O6 0.523725 0.301227 0.203098
O O7 0.075920 0.817492 0.622582
O O8 0.260774 0.804354 0.543682
O O9 0.376893 0.871901 0.579666
O O10 0.876378 0.855294 0.556444
O O11 0.710764 0.251851 0.352988
O O12 0.506384 0.248820 0.000000
O O13 0.547504 0.887669 0.500000
#
# Coordination Sequence:
#
# PCOD8293453 Si02
#       6
#    16   8  16  16   8  16
#     4   9  17  29  46  64  81 109 149 186 217 259
#     4   8  16  30  50  66  82 106 143 194 239 274
#     4  12  21  32  45  63  89 122 152 192 227 265
#     4  10  19  33  48  66  86 114 155 194 232 272
#     4  12  22  32  42  56  80 120 160 188 212 248
#     4  11  20  33  45  63  91 121 151 185 227 268
#
# _framework density 15.825594000000001
#
# number of rings (size 3 to 8) (size 9 to 14) (size 15 to 20)
#    0.000    1.600    2.000    4.800    0.000    3.200 
#    0.000    0.000    0.000    0.000    0.000    0.000 
#    0.000    0.000    0.000   13.500    0.000    1.200 
#
# Total GULP energy -495708.034789 kJ/mol
# GULP energy per Si atom -12392.700870 kJ/mol
# Density = 1.578957 g / cm^3
# Si number density = 15.825594 Si / 1000 Ang^3
#
#
#
# Elastic Constant Matrix: (Units=GPa)
#
#
# Indices 1 2 3 4 5 6 
#
# 1 111.5030 30.8096 15.6370 0.0000 0.0000 0.0000
# 2 30.8096 80.7182 37.3718 0.0000 0.0000 0.0000
# 3 15.6370 37.3718 80.0412 0.0000 0.0000 0.0000
# 4 0.0000 0.0000 0.0000 12.3916 0.0000 0.0000
# 5 0.0000 0.0000 0.0000 0.0000 16.8358 0.0000
# 6 0.0000 0.0000 0.0000 0.0000 0.0000 32.1839
#
#
#
# Elastic Compliance Matrix: (Units=1/GPa)
#
#
# Indices 1 2 3 4 5 6 
#
# 1 0.010029 -0.003726 -0.000219 0.000000 0.000000 0.000000
# 2 -0.003726 0.017190 -0.007298 0.000000 0.000000 0.000000
# 3 -0.000219 -0.007298 0.015944 0.000000 0.000000 0.000000
# 4 0.000000 0.000000 0.000000 0.080700 0.000000 0.000000
# 5 0.000000 0.000000 0.000000 0.000000 0.059397 0.000000
# 6 0.000000 0.000000 0.000000 0.000000 0.000000 0.031071
#
#
# Mechanical properties :
#
#
# Convention : Reuss Voigt Hill
#
# Bulk Modulus (GPa) = 48.36751 48.87768 48.62259
# Shear Modulus (GPa) = 20.51609 24.84518 22.68064
#
# Velocity S-wave (km/s) = 3.60444 3.96654 3.78982
# Velocity P-wave (km/s) = 6.92473 7.20626 7.06690
#
# Compressibility (1/GPa) = 0.02067504
#
# Stress axis : x y z
#
# Youngs Moduli (GPa) = 99.71319 58.17307 62.71954
#
# Poissons Ratio (x) = 0.21677 0.01376
# Poissons Ratio (y) = 0.37156 0.45774
# Poissons Ratio (z) = 0.02188 0.42456
#
# Static dielectric constant tensor:
#      x y z
#    x 3.307960 0.000000 0.000000 
#    y 0.000000 3.035280 0.000000 
#    z 0.000000 0.000000 3.171830 
# 
# 
# High freq. dielectric constant tensor:
#      x y z
#    x 1.639230 0.000000 0.000000 
#    y 0.000000 1.590710 0.000000 
#    z 0.000000 0.000000 1.565540 
# 
# From -- ./inp_files/46761.got.cif
#   From: 2010.03.12/outbox.cif.g09.slc.cpg/sg72_24_cif.got.tgz:46761.got - 2010.04.16 14:54:00.
