data_PCOD8293657
_publ_section_title
;
Structure prediction by ZEFSAII (Michael W. Deem and Ramdas Pophale) SiO2 
 PCOD8293657
Probable space group: I B A M
;
_chemical_formula_sum "Si O2"
_cell_formula_units_Z 104
_cell_length_a 31.996717
_cell_length_b 4.975909
_cell_length_c 34.008245
_cell_angle_alpha 90.000000
_cell_angle_beta 90.000000
_cell_angle_gamma 90.000000
_cell_volume 5414.546280
_symmetry_space_group_name_H-M "I B A M"
_symmetry_group_IT_number 72
_symmetry_cell_setting 'orthorhombic'
loop_
_space_group_symop_operation_xyz
x,y,z
-x,-y,z
x,-y,1/2-z
-x,y,1/2-z
-x,-y,-z
x,y,-z
-x,y,1/2+z
x,-y,1/2+z
1/2+x,1/2+y,1/2+z
1/2-x,1/2-y,1/2+z
1/2+x,1/2-y,-z
1/2-x,1/2+y,-z
1/2-x,1/2-y,1/2-z
1/2+x,1/2+y,1/2-z
1/2-x,1/2+y,z
1/2+x,1/2-y,z
loop_
_atom_site_type_symbol
_atom_site_label
_atom_site_fract_x
_atom_site_fract_y
_atom_site_fract_z
Si Si1 0.276656 0.836910 0.500000
Si Si2 0.596601 0.912762 0.791572
Si Si3 0.861798 0.438534 0.128150
Si Si4 0.046800 0.079406 0.812692
Si Si5 0.472125 0.240816 0.543715
Si Si6 0.588689 0.560537 0.392679
Si Si7 0.721310 0.938622 0.084646
O O1 0.234628 0.021550 0.500000
O O2 0.300302 0.906744 0.458999
O O3 0.558430 0.115199 0.801892
O O4 0.617107 0.000000 0.750000
O O5 0.632352 0.901830 0.824937
O O6 0.577021 0.617147 0.788188
O O7 0.891434 0.236141 0.103109
O O8 0.813629 0.389557 0.117565
O O9 0.873406 0.744062 0.118639
O O10 0.052969 0.044194 0.859450
O O11 0.000000 0.000000 0.801261
O O12 0.500000 0.500000 0.541195
O O13 0.457465 0.151044 0.500000
O O14 0.431131 0.318777 0.567984
O O15 0.500000 0.000000 0.562862
O O16 0.740492 0.233311 0.089800
#
# Coordination Sequence:
#
# PCOD8293657 Si02
#       7
#     8  16  16  16  16  16  16
#     4   8  16  30  50  76 102 126 154 194 246 302
#     4  10  21  35  51  73 105 138 168 213 266 313
#     4  10  21  36  54  77 104 136 172 211 261 323
#     4  10  20  32  51  75 100 135 177 217 258 309
#     4  10  20  34  52  72 100 141 185 225 262 303
#     4  10  20  35  50  74 106 135 176 217 264 309
#     4  10  19  35  57  79 105 134 169 207 255 315
#
# _framework density 19.207516999999999
#
# number of rings (size 3 to 8) (size 9 to 14) (size 15 to 20)
#    0.000    2.154    0.000    3.231    0.000    4.308 
#    2.769    0.000    0.000    0.923    0.000    0.000 
#    0.000    0.000    0.000    0.000    0.000    0.000 
#
# Total GULP energy -644627.728972 kJ/mol
# GULP energy per Si atom -12396.687096 kJ/mol
# Density = 1.916380 g / cm^3
# Si number density = 19.207517 Si / 1000 Ang^3
#
#
#
# Elastic Constant Matrix: (Units=GPa)
#
#
# Indices 1 2 3 4 5 6 
#
# 1 70.0934 9.0257 52.5702 0.0000 0.0000 0.0000
# 2 9.0257 84.1077 16.7694 0.0000 0.0000 0.0000
# 3 52.5702 16.7694 107.9970 0.0000 0.0000 0.0000
# 4 0.0000 0.0000 0.0000 25.8207 0.0000 0.0000
# 5 0.0000 0.0000 0.0000 0.0000 17.7815 0.0000
# 6 0.0000 0.0000 0.0000 0.0000 0.0000 20.3458
#
#
#
# Elastic Compliance Matrix: (Units=1/GPa)
#
#
# Indices 1 2 3 4 5 6 
#
# 1 0.022475 -0.000238 -0.010903 0.000000 0.000000 0.000000
# 2 -0.000238 0.012272 -0.001790 0.000000 0.000000 0.000000
# 3 -0.010903 -0.001790 0.014845 0.000000 0.000000 0.000000
# 4 0.000000 0.000000 0.000000 0.038729 0.000000 0.000000
# 5 0.000000 0.000000 0.000000 0.000000 0.056238 0.000000
# 6 0.000000 0.000000 0.000000 0.000000 0.000000 0.049150
#
#
# Mechanical properties :
#
#
# Convention : Reuss Voigt Hill
#
# Bulk Modulus (GPa) = 42.14118 46.54766 44.34442
# Shear Modulus (GPa) = 21.97996 25.04512 23.51254
#
# Velocity S-wave (km/s) = 3.38648 3.61490 3.50256
# Velocity P-wave (km/s) = 6.10562 6.45833 6.28445
#
# Compressibility (1/GPa) = 0.02372976
#
# Stress axis : x y z
#
# Youngs Moduli (GPa) = 44.49447 81.48711 67.36363
#
# Poissons Ratio (x) = 0.01939 0.73448
# Poissons Ratio (y) = 0.01059 0.12056
# Poissons Ratio (z) = 0.48513 0.14584
#
# Static dielectric constant tensor:
#      x y z
#    x 2.939870 0.000000 0.000000 
#    y 0.000000 3.711330 0.000000 
#    z 0.000000 0.000000 3.717140 
# 
# 
# High freq. dielectric constant tensor:
#      x y z
#    x 1.693520 0.000000 0.000000 
#    y 0.000000 1.773970 0.000000 
#    z 0.000000 0.000000 1.745320 
# 
# From -- ./inp_files/52596.got.cif
#   From: 2010.03.12/outbox.cif.g09.slc.cpg/sg72_27_cif.got.tgz:52596.got - 2010.04.16 14:54:00.
