data_PCOD8293604
_publ_section_title
;
Structure prediction by ZEFSAII (Michael W. Deem and Ramdas Pophale) SiO2 
 PCOD8293604
Probable space group: I B A M
;
_chemical_formula_sum "Si O2"
_cell_formula_units_Z 80
_cell_length_a 8.461764
_cell_length_b 29.425588
_cell_length_c 15.749035
_cell_angle_alpha 90.000000
_cell_angle_beta 90.000000
_cell_angle_gamma 90.000000
_cell_volume 3921.389727
_symmetry_space_group_name_H-M "I B A M"
_symmetry_group_IT_number 72
_symmetry_cell_setting 'orthorhombic'
loop_
_space_group_symop_operation_xyz
x,y,z
-x,-y,z
x,-y,1/2-z
-x,y,1/2-z
-x,-y,-z
x,y,-z
-x,y,1/2+z
x,-y,1/2+z
1/2+x,1/2+y,1/2+z
1/2-x,1/2-y,1/2+z
1/2+x,1/2-y,-z
1/2-x,1/2+y,-z
1/2-x,1/2-y,1/2-z
1/2+x,1/2+y,1/2-z
1/2-x,1/2+y,z
1/2+x,1/2-y,z
loop_
_atom_site_type_symbol
_atom_site_label
_atom_site_fract_x
_atom_site_fract_y
_atom_site_fract_z
Si Si1 0.224692 0.386835 0.595765
Si Si2 0.086225 0.199759 0.159585
Si Si3 0.764587 0.782008 0.404326
Si Si4 0.903307 0.630972 0.164138
Si Si5 0.813416 0.549663 0.743670
O O1 0.282286 0.396490 0.500000
O O2 0.327751 0.346851 0.636603
O O3 0.248389 0.431396 0.653614
O O4 0.036543 0.376096 0.592216
O O5 0.217283 0.239392 0.154409
O O6 0.000000 0.196466 0.250000
O O7 0.953586 0.213589 0.091163
O O8 0.699789 0.776496 0.500000
O O9 0.704632 0.827422 0.359820
O O10 0.785293 0.587250 0.180939
O O11 0.000000 0.641572 0.250000
O O12 0.730365 0.500000 0.750000
O O13 0.000000 0.542674 0.750000
#
# Coordination Sequence:
#
# PCOD8293604 Si02
#       5
#    16  16  16  16  16
#     4  10  19  34  56  84 111 141 182 230 271 313
#     4  12  24  39  57  78 108 148 184 218 267 329
#     4  12  23  36  54  81 112 143 179 224 267 313
#     4   9  18  34  55  80 111 148 182 218 266 325
#     4   8  16  33  55  80 111 143 180 223 273 327
#
# _framework density 20.400931
#
# number of rings (size 3 to 8) (size 9 to 14) (size 15 to 20)
#    0.000    2.200    0.000    7.200    0.000    0.000 
#    0.000    9.000    0.000    5.400    0.000    7.000 
#    0.000    0.000    0.000    0.000    0.000    0.000 
#
# Total GULP energy -495527.278215 kJ/mol
# GULP energy per Si atom -12388.181955 kJ/mol
# Density = 2.035450 g / cm^3
# Si number density = 20.400931 Si / 1000 Ang^3
#
#
#
# Elastic Constant Matrix: (Units=GPa)
#
#
# Indices 1 2 3 4 5 6 
#
# 1 55.7328 46.1481 20.1220 0.0000 0.0000 0.0000
# 2 46.1481 177.5950 72.4070 0.0001 0.0000 0.0000
# 3 20.1220 72.4070 122.5423 0.0003 0.0001 -0.0002
# 4 0.0000 0.0001 0.0003 14.7660 0.0000 0.0000
# 5 0.0000 0.0000 0.0001 0.0000 24.2550 0.0000
# 6 0.0000 0.0000 -0.0002 0.0000 0.0000 11.1559
#
#
#
# Elastic Compliance Matrix: (Units=1/GPa)
#
#
# Indices 1 2 3 4 5 6 
#
# 1 0.022871 -0.005812 -0.000321 0.000000 0.000000 0.000000
# 2 -0.005812 0.008895 -0.004301 0.000000 0.000000 0.000000
# 3 -0.000321 -0.004301 0.010755 0.000000 0.000000 0.000000
# 4 0.000000 0.000000 0.000000 0.067723 0.000000 0.000000
# 5 0.000000 0.000000 0.000000 0.000000 0.041229 0.000000
# 6 0.000000 0.000000 0.000000 0.000000 0.000000 0.089639
#
#
# Mechanical properties :
#
#
# Convention : Reuss Voigt Hill
#
# Bulk Modulus (GPa) = 46.18660 70.35827 58.27243
# Shear Modulus (GPa) = 18.57371 24.51491 21.54431
#
# Velocity S-wave (km/s) = 3.02061 3.47025 3.25321
# Velocity P-wave (km/s) = 5.90373 7.11474 6.53734
#
# Compressibility (1/GPa) = 0.02165130
#
# Stress axis : x y z
#
# Youngs Moduli (GPa) = 43.72283 112.42605 92.98227
#
# Poissons Ratio (x) = 0.65343 0.02988
# Poissons Ratio (y) = 0.25412 0.39994
# Poissons Ratio (z) = 0.01405 0.48358
#
# Static dielectric constant tensor:
#      x y z
#    x 3.696980 0.000000 0.000000 
#    y 0.000000 4.385230 0.000000 
#    z 0.000000 0.000000 3.699910 
# 
# 
# High freq. dielectric constant tensor:
#      x y z
#    x 1.776940 0.000000 0.000000 
#    y 0.000000 1.800110 0.000000 
#    z 0.000000 0.000000 1.793410 
# 
# From -- ./inp_files/28324.got.cif
#   From: 2010.03.12/outbox.cif.g09.slc.cpg/sg72_15_cif.got.tgz:28324.got - 2010.04.16 14:54:00.
