data_PCOD8293036
_publ_section_title
;
Structure prediction by ZEFSAII (Michael W. Deem and Ramdas Pophale) SiO2 
 PCOD8293036
Probable space group: I B A M
;
_chemical_formula_sum "Si O2"
_cell_formula_units_Z 128
_cell_length_a 11.951210
_cell_length_b 27.591121
_cell_length_c 20.955457
_cell_angle_alpha 90.000000
_cell_angle_beta 90.000000
_cell_angle_gamma 90.000000
_cell_volume 6910.004972
_symmetry_space_group_name_H-M "I B A M"
_symmetry_group_IT_number 72
_symmetry_cell_setting 'orthorhombic'
loop_
_space_group_symop_operation_xyz
x,y,z
-x,-y,z
x,-y,1/2-z
-x,y,1/2-z
-x,-y,-z
x,y,-z
-x,y,1/2+z
x,-y,1/2+z
1/2+x,1/2+y,1/2+z
1/2-x,1/2-y,1/2+z
1/2+x,1/2-y,-z
1/2-x,1/2+y,-z
1/2-x,1/2-y,1/2-z
1/2+x,1/2+y,1/2-z
1/2-x,1/2+y,z
1/2+x,1/2-y,z
loop_
_atom_site_type_symbol
_atom_site_label
_atom_site_fract_x
_atom_site_fract_y
_atom_site_fract_z
Si Si1 0.673267 0.659097 0.214762
Si Si2 0.445968 0.952563 0.573220
Si Si3 0.554982 0.314210 0.165581
Si Si4 0.198794 0.979148 0.573728
Si Si5 0.694887 0.586254 0.110639
Si Si6 0.908901 0.294972 0.692794
Si Si7 0.417561 0.863450 0.926332
Si Si8 0.548942 0.393918 0.071123
O O1 0.579740 0.688832 0.174149
O O2 0.618406 0.651462 0.283535
O O3 0.691908 0.606388 0.183095
O O4 0.788855 0.688475 0.219208
O O5 0.484983 0.953721 0.500000
O O6 0.314071 0.950563 0.581690
O O7 0.496121 0.903256 0.601199
O O8 0.500000 0.000000 0.607217
O O9 0.603328 0.260660 0.171941
O O10 0.584638 0.342293 0.100809
O O11 0.175778 0.993646 0.500000
O O12 0.104935 0.942496 0.601544
O O13 0.206299 0.028349 0.614390
O O14 0.794873 0.612673 0.073372
O O15 0.583400 0.600005 0.072984
O O16 0.934865 0.320979 0.625342
O O17 0.000000 0.302944 0.750000
O O18 0.442443 0.846217 0.000000
O O19 0.595234 0.390977 0.000000
#
# Coordination Sequence:
#
# PCOD8293036 Si02
#       8
#    16  16  16  16  16  16  16  16
#     4   9  20  37  57  81 101 136 185 222 269 323
#     4   9  16  29  50  75 109 150 182 211 262 327
#     4  10  20  38  58  74 105 144 179 227 274 328
#     4  10  18  30  50  78 111 148 181 213 264 326
#     4  10  18  32  56  81 110 141 177 221 267 323
#     4  11  22  36  61  83 103 142 188 230 272 327
#     4  10  20  34  55  86 114 140 181 229 271 322
#     4  10  21  33  51  81 111 140 177 225 276 321
#
# _framework density 18.523864
#
# number of rings (size 3 to 8) (size 9 to 14) (size 15 to 20)
#    0.000    2.125    2.500    1.875    0.000    2.500 
#    0.000    0.625    0.000    3.375    0.000    0.000 
#    0.000    0.000    0.000    0.000    0.000    0.000 
#
# Total GULP energy -793048.034750 kJ/mol
# GULP energy per Si atom -12391.375543 kJ/mol
# Density = 1.848170 g / cm^3
# Si number density = 18.523864 Si / 1000 Ang^3
#
#
#
# Elastic Constant Matrix: (Units=GPa)
#
#
# Indices 1 2 3 4 5 6 
#
# 1 86.9706 48.0133 31.4827 0.0000 0.0000 0.0000
# 2 48.0133 111.4387 55.3397 -0.0001 0.0000 0.0000
# 3 31.4827 55.3397 76.9393 -0.0001 0.0000 0.0000
# 4 0.0000 -0.0001 -0.0001 23.2296 0.0000 0.0000
# 5 0.0000 0.0000 0.0000 0.0000 15.9586 0.0000
# 6 0.0000 0.0000 0.0000 0.0000 0.0000 26.7831
#
#
#
# Elastic Compliance Matrix: (Units=1/GPa)
#
#
# Indices 1 2 3 4 5 6 
#
# 1 0.015360 -0.005440 -0.002373 0.000000 0.000000 0.000000
# 2 -0.005440 0.015886 -0.009200 0.000000 0.000000 0.000000
# 3 -0.002373 -0.009200 0.020586 0.000000 0.000000 0.000000
# 4 0.000000 0.000000 0.000000 0.043049 0.000000 0.000000
# 5 0.000000 0.000000 0.000000 0.000000 0.062662 0.000000
# 6 0.000000 0.000000 0.000000 0.000000 0.000000 0.037337
#
#
# Mechanical properties :
#
#
# Convention : Reuss Voigt Hill
#
# Bulk Modulus (GPa) = 56.15968 60.55777 58.35873
# Shear Modulus (GPa) = 21.29105 22.56178 21.92642
#
# Velocity S-wave (km/s) = 3.39394 3.49375 3.44420
# Velocity P-wave (km/s) = 6.76326 7.00270 6.88402
#
# Compressibility (1/GPa) = 0.01780637
#
# Stress axis : x y z
#
# Youngs Moduli (GPa) = 65.10408 62.94817 48.57754
#
# Poissons Ratio (x) = 0.34242 0.11526
# Poissons Ratio (y) = 0.35414 0.44694
# Poissons Ratio (z) = 0.15447 0.57915
#
# Static dielectric constant tensor:
#      x y z
#    x 3.484370 0.000000 0.000000 
#    y 0.000000 3.418070 0.000000 
#    z 0.000000 0.000000 3.266950 
# 
# 
# High freq. dielectric constant tensor:
#      x y z
#    x 1.730800 0.000000 0.000000 
#    y 0.000000 1.715810 0.000000 
#    z 0.000000 0.000000 1.688550 
# 
# From -- ./inp_files/43676.got.cif
#   From: 2010.03.12/outbox.cif.g09.slc.cpg/sg72_22_cif.got.tgz:43676.got - 2010.04.16 14:54:00.
