data_PCOD8293169
_publ_section_title
;
Structure prediction by ZEFSAII (Michael W. Deem and Ramdas Pophale) SiO2 
 PCOD8293169
Probable space group: I B A M
;
_chemical_formula_sum "Si O2"
_cell_formula_units_Z 116
_cell_length_a 27.645481
_cell_length_b 22.865380
_cell_length_c 9.081863
_cell_angle_alpha 90.000000
_cell_angle_beta 90.000000
_cell_angle_gamma 90.000000
_cell_volume 5740.867457
_symmetry_space_group_name_H-M "I B A M"
_symmetry_group_IT_number 72
_symmetry_cell_setting 'orthorhombic'
loop_
_space_group_symop_operation_xyz
x,y,z
-x,-y,z
x,-y,1/2-z
-x,y,1/2-z
-x,-y,-z
x,y,-z
-x,y,1/2+z
x,-y,1/2+z
1/2+x,1/2+y,1/2+z
1/2-x,1/2-y,1/2+z
1/2+x,1/2-y,-z
1/2-x,1/2+y,-z
1/2-x,1/2-y,1/2-z
1/2+x,1/2+y,1/2-z
1/2-x,1/2+y,z
1/2+x,1/2-y,z
loop_
_atom_site_type_symbol
_atom_site_label
_atom_site_fract_x
_atom_site_fract_y
_atom_site_fract_z
Si Si1 0.451603 0.313128 0.671068
Si Si2 0.685542 0.102828 0.830327
Si Si3 0.049130 0.694392 0.826355
Si Si4 0.298513 0.231945 0.670273
Si Si5 0.500000 0.000000 0.250000
Si Si6 0.849339 0.849794 0.833114
Si Si7 0.713915 0.558198 0.173898
Si Si8 0.919097 0.411027 0.336898
O O1 0.500000 0.337846 0.750000
O O2 0.463346 0.300062 0.500000
O O3 0.433826 0.253906 0.750440
O O4 0.407370 0.358623 0.686672
O O5 0.681442 0.169658 0.767982
O O6 0.732104 0.070420 0.760399
O O7 0.635839 0.064926 0.809416
O O8 0.698722 0.108591 0.000000
O O9 0.081142 0.638032 0.789392
O O10 0.000000 0.674547 0.750000
O O11 0.044776 0.703221 0.000000
O O12 0.285524 0.226697 0.500000
O O13 0.250000 0.250000 0.750000
O O14 0.338638 0.281579 0.698407
O O15 0.462248 0.959065 0.161662
O O16 0.821393 0.888986 0.716532
O O17 0.834034 0.866601 0.000000
O O18 0.693813 0.500000 0.250000
O O19 0.712342 0.549826 0.000000
O O20 0.920722 0.382261 0.500000
#
# Coordination Sequence:
#
# PCOD8293169 Si02
#       8
#    16  16  16  16   4  16  16  16
#     4  10  20  36  60  90 124 158 191 234 289 352
#     4   9  20  38  60  84 115 158 195 244 313 368
#     4  11  21  35  56  82 113 150 193 239 292 355
#     4  10  18  33  57  87 119 152 192 238 300 362
#     4  12  26  36  64  86 106 152 214 272 322 364
#     4  10  21  37  61  90 124 162 196 241 301 358
#     4  11  23  40  62  86 118 158 204 247 293 356
#     4  11  23  41  59  77 110 149 198 258 313 366
#
# _framework density 20.206004
#
# number of rings (size 3 to 8) (size 9 to 14) (size 15 to 20)
#    0.000    1.655    2.069    3.931    0.966    3.862 
#    0.000    3.448    0.000    0.414    0.000    2.897 
#    0.000    0.000    0.000    0.000    0.000    0.000 
#
# Total GULP energy -718520.731787 kJ/mol
# GULP energy per Si atom -12388.288479 kJ/mol
# Density = 2.016001 g / cm^3
# Si number density = 20.206004 Si / 1000 Ang^3
#
#
#
# Elastic Constant Matrix: (Units=GPa)
#
#
# Indices 1 2 3 4 5 6 
#
# 1 133.2257 35.4577 45.2388 0.0000 0.0000 0.0000
# 2 35.4577 67.1626 29.2089 0.0000 0.0000 0.0000
# 3 45.2388 29.2089 108.1078 0.0000 0.0000 0.0000
# 4 0.0000 0.0000 0.0000 25.5110 0.0000 0.0000
# 5 0.0000 0.0000 0.0000 0.0000 28.0230 0.0000
# 6 0.0000 0.0000 0.0000 0.0000 0.0000 23.1745
#
#
#
# Elastic Compliance Matrix: (Units=1/GPa)
#
#
# Indices 1 2 3 4 5 6 
#
# 1 0.009507 -0.003727 -0.002971 0.000000 0.000000 0.000000
# 2 -0.003727 0.018333 -0.003394 0.000000 0.000000 0.000000
# 3 -0.002971 -0.003394 0.011410 0.000000 0.000000 0.000000
# 4 0.000000 0.000000 0.000000 0.039199 0.000000 0.000000
# 5 0.000000 0.000000 0.000000 0.000000 0.035685 0.000000
# 6 0.000000 0.000000 0.000000 0.000000 0.000000 0.043151
#
#
# Mechanical properties :
#
#
# Convention : Reuss Voigt Hill
#
# Bulk Modulus (GPa) = 52.44865 58.70077 55.57471
# Shear Modulus (GPa) = 27.19999 28.58108 27.89053
#
# Velocity S-wave (km/s) = 3.67295 3.76504 3.71928
# Velocity P-wave (km/s) = 6.63330 6.92928 6.78291
#
# Compressibility (1/GPa) = 0.01906627
#
# Stress axis : x y z
#
# Youngs Moduli (GPa) = 105.18665 54.54738 87.63996
#
# Poissons Ratio (x) = 0.20329 0.26041
# Poissons Ratio (y) = 0.39201 0.29742
# Poissons Ratio (z) = 0.31254 0.18511
#
# Static dielectric constant tensor:
#      x y z
#    x 3.795500 0.000000 0.000000 
#    y 0.000000 3.463950 0.000000 
#    z 0.000000 0.000000 3.525580 
# 
# 
# High freq. dielectric constant tensor:
#      x y z
#    x 1.800350 0.000000 0.000000 
#    y 0.000000 1.761230 0.000000 
#    z 0.000000 0.000000 1.776700 
# 
# From -- ./inp_files/8370.got.cif
#   From: 2010.03.12/outbox.cif.g09.slc.cpg/sg72_5_cif.got.tgz:8370.got - 2010.04.16 14:54:00.
