data_PCOD8293951
_publ_section_title
;
Structure prediction by ZEFSAII (Michael W. Deem and Ramdas Pophale) SiO2 
 PCOD8293951
Probable space group: I B A M
;
_chemical_formula_sum "Si O2"
_cell_formula_units_Z 76
_cell_length_a 14.898177
_cell_length_b 8.401296
_cell_length_c 29.543170
_cell_angle_alpha 90.000000
_cell_angle_beta 90.000000
_cell_angle_gamma 90.000000
_cell_volume 3697.741177
_symmetry_space_group_name_H-M "I B A M"
_symmetry_group_IT_number 72
_symmetry_cell_setting 'orthorhombic'
loop_
_space_group_symop_operation_xyz
x,y,z
-x,-y,z
x,-y,1/2-z
-x,y,1/2-z
-x,-y,-z
x,y,-z
-x,y,1/2+z
x,-y,1/2+z
1/2+x,1/2+y,1/2+z
1/2-x,1/2-y,1/2+z
1/2+x,1/2-y,-z
1/2-x,1/2+y,-z
1/2-x,1/2-y,1/2-z
1/2+x,1/2+y,1/2-z
1/2-x,1/2+y,z
1/2+x,1/2-y,z
loop_
_atom_site_type_symbol
_atom_site_label
_atom_site_fract_x
_atom_site_fract_y
_atom_site_fract_z
Si Si1 0.145775 0.798795 0.298953
Si Si2 0.284483 0.554156 0.447031
Si Si3 0.500000 0.500000 0.750000
Si Si4 0.360790 0.244160 0.595634
Si Si5 0.468717 0.318688 0.949758
Si Si6 0.292001 0.000000 0.250000
O O1 0.146284 0.789629 0.352460
O O2 0.232796 0.899147 0.284987
O O3 0.146050 0.621576 0.278010
O O4 0.057391 0.888641 0.282686
O O5 0.260632 0.563073 0.500000
O O6 0.318130 0.378193 0.436263
O O7 0.196712 0.587487 0.416404
O O8 0.364017 0.681550 0.434626
O O9 0.466339 0.217957 0.583535
O O10 0.500000 0.500000 0.949550
O O11 0.477759 0.245961 0.000000
#
# Coordination Sequence:
#
# PCOD8293951 Si02
#       6
#    16  16   4  16  16   8
#     4  10  21  38  62  86 117 155 205 251 318 380
#     4  10  20  34  55  85 120 157 195 242 296 349
#     4  10  24  38  60  90 118 156 200 270 328 370
#     4  11  20  34  59  85 111 156 200 246 287 367
#     4   8  16  31  50  77 113 152 188 229 283 341
#     4   9  20  42  58  83 118 158 188 259 322 370
#
# _framework density 20.553089
#
# number of rings (size 3 to 8) (size 9 to 14) (size 15 to 20)
#    0.000    2.316    0.000    4.421    4.421    0.421 
#    0.000    1.053    4.632    3.789    0.000    0.000 
#    0.000    0.000    0.000    0.000    0.000    0.000 
#
# Total GULP energy -471118.539405 kJ/mol
# GULP energy per Si atom -12397.856300 kJ/mol
# Density = 2.050631 g / cm^3
# Si number density = 20.553089 Si / 1000 Ang^3
#
#
#
# Elastic Constant Matrix: (Units=GPa)
#
#
# Indices 1 2 3 4 5 6 
#
# 1 61.4618 16.0117 24.2029 0.0000 0.0000 0.0000
# 2 16.0117 65.2072 16.1087 0.0000 0.0000 0.0000
# 3 24.2029 16.1087 113.7430 0.0000 0.0000 0.0000
# 4 0.0000 0.0000 0.0000 22.1051 0.0000 0.0000
# 5 0.0000 0.0000 0.0000 0.0000 16.6066 0.0000
# 6 0.0000 0.0000 0.0000 0.0000 0.0000 25.3511
#
#
#
# Elastic Compliance Matrix: (Units=1/GPa)
#
#
# Indices 1 2 3 4 5 6 
#
# 1 0.018589 -0.003717 -0.003429 0.000000 0.000000 0.000000
# 2 -0.003717 0.016635 -0.001565 0.000000 0.000000 0.000000
# 3 -0.003429 -0.001565 0.009743 0.000000 0.000000 0.000000
# 4 0.000000 0.000000 0.000000 0.045238 0.000000 0.000000
# 5 0.000000 0.000000 0.000000 0.000000 0.060217 0.000000
# 6 0.000000 0.000000 0.000000 0.000000 0.000000 0.039446
#
#
# Mechanical properties :
#
#
# Convention : Reuss Voigt Hill
#
# Bulk Modulus (GPa) = 36.30496 39.22874 37.76685
# Shear Modulus (GPa) = 23.09761 25.08516 24.09139
#
# Velocity S-wave (km/s) = 3.35595 3.49736 3.42739
# Velocity P-wave (km/s) = 5.72004 5.95287 5.83762
#
# Compressibility (1/GPa) = 0.02754445
#
# Stress axis : x y z
#
# Youngs Moduli (GPa) = 53.79521 60.11374 102.63755
#
# Poissons Ratio (x) = 0.22347 0.35195
# Poissons Ratio (y) = 0.19998 0.16062
# Poissons Ratio (z) = 0.18446 0.09407
#
# Static dielectric constant tensor:
#      x y z
#    x 4.225500 0.000000 0.000000 
#    y 0.000000 3.566490 0.000000 
#    z 0.000000 0.000000 3.527770 
# 
# 
# High freq. dielectric constant tensor:
#      x y z
#    x 1.809810 0.000000 0.000000 
#    y 0.000000 1.783330 0.000000 
#    z 0.000000 0.000000 1.797040 
# 
# From -- ./inp_files/52012.got.cif
#   From: 2010.03.12/outbox.cif.g09.slc.cpg/sg72_27_cif.got.tgz:52012.got - 2010.04.16 14:54:00.
