data_PCOD8293581
_publ_section_title
;
Structure prediction by ZEFSAII (Michael W. Deem and Ramdas Pophale) SiO2 
 PCOD8293581
Probable space group: I B A M
;
_chemical_formula_sum "Si O2"
_cell_formula_units_Z 96
_cell_length_a 9.134432
_cell_length_b 25.540997
_cell_length_c 23.300918
_cell_angle_alpha 90.000000
_cell_angle_beta 90.000000
_cell_angle_gamma 90.000000
_cell_volume 5436.162429
_symmetry_space_group_name_H-M "I B A M"
_symmetry_group_IT_number 72
_symmetry_cell_setting 'orthorhombic'
loop_
_space_group_symop_operation_xyz
x,y,z
-x,-y,z
x,-y,1/2-z
-x,y,1/2-z
-x,-y,-z
x,y,-z
-x,y,1/2+z
x,-y,1/2+z
1/2+x,1/2+y,1/2+z
1/2-x,1/2-y,1/2+z
1/2+x,1/2-y,-z
1/2-x,1/2+y,-z
1/2-x,1/2-y,1/2-z
1/2+x,1/2+y,1/2-z
1/2-x,1/2+y,z
1/2+x,1/2-y,z
loop_
_atom_site_type_symbol
_atom_site_label
_atom_site_fract_x
_atom_site_fract_y
_atom_site_fract_z
Si Si1 0.321293 0.304977 0.187330
Si Si2 0.162748 0.201493 0.818348
Si Si3 0.331562 0.995886 0.682523
Si Si4 0.178667 0.903181 0.378149
Si Si5 0.323317 0.443111 0.500000
Si Si6 0.331255 0.439951 0.000000
Si Si7 0.166985 0.090701 0.623645
O O1 0.231331 0.256335 0.161756
O O2 0.284380 0.313565 0.254297
O O3 0.489916 0.291976 0.178516
O O4 0.273292 0.356703 0.153064
O O5 0.216162 0.156456 0.861648
O O6 0.270007 0.939989 0.663776
O O7 0.500000 0.000000 0.663601
O O8 0.312668 0.000000 0.750000
O O9 0.237932 0.040881 0.653059
O O10 0.230388 0.912317 0.443581
O O11 0.007181 0.914905 0.369218
O O12 0.258209 0.502141 0.500000
O O13 0.496287 0.447035 0.500000
O O14 0.284609 0.408061 0.056784
#
# Coordination Sequence:
#
# PCOD8293581 Si02
#       7
#    16  16  16  16   8   8  16
#     4   9  18  32  51  74  99 131 169 209 254 300
#     4   9  18  32  51  74  99 131 169 209 254 300
#     4  11  23  34  47  74 108 135 162 207 264 307
#     4  10  19  34  55  76 100 133 175 211 246 302
#     4   9  16  30  53  78 100 130 170 212 253 290
#     4   9  16  30  53  78 100 130 170 212 253 290
#     4  10  19  34  55  76 100 133 175 211 246 302
#
# _framework density 17.659517000000001
#
# number of rings (size 3 to 8) (size 9 to 14) (size 15 to 20)
#    0.000    2.333    1.667    1.500    0.000    4.000 
#    0.000    5.833    0.000    0.000    0.000    0.000 
#    0.000    0.000    0.000    0.000    0.000    0.000 
#
# Total GULP energy -595229.284978 kJ/mol
# GULP energy per Si atom -12400.610104 kJ/mol
# Density = 1.761932 g / cm^3
# Si number density = 17.659517 Si / 1000 Ang^3
#
#
#
# Elastic Constant Matrix: (Units=GPa)
#
#
# Indices 1 2 3 4 5 6 
#
# 1 28.8294 8.8989 10.9282 0.0000 0.0000 0.0000
# 2 8.8989 71.5816 25.5909 0.0000 0.0000 0.0000
# 3 10.9282 25.5909 80.7665 0.0000 0.0000 0.0000
# 4 0.0000 0.0000 0.0000 23.4933 0.0000 0.0000
# 5 0.0000 0.0000 0.0000 0.0000 6.3976 0.0000
# 6 0.0000 0.0000 0.0000 0.0000 0.0000 29.8702
#
#
#
# Elastic Compliance Matrix: (Units=1/GPa)
#
#
# Indices 1 2 3 4 5 6 
#
# 1 0.037195 -0.003186 -0.004023 0.000000 0.000000 0.000000
# 2 -0.003186 0.016028 -0.004647 0.000000 0.000000 0.000000
# 3 -0.004023 -0.004647 0.014398 0.000000 0.000000 0.000000
# 4 0.000000 0.000000 0.000000 0.042565 0.000000 0.000000
# 5 0.000000 0.000000 0.000000 0.000000 0.156308 0.000000
# 6 0.000000 0.000000 0.000000 0.000000 0.000000 0.033478
#
#
# Mechanical properties :
#
#
# Convention : Reuss Voigt Hill
#
# Bulk Modulus (GPa) = 22.77467 30.22372 26.49920
# Shear Modulus (GPa) = 14.77886 21.00285 17.89085
#
# Velocity S-wave (km/s) = 2.89602 3.45240 3.18638
# Velocity P-wave (km/s) = 4.90990 5.74838 5.34561
#
# Compressibility (1/GPa) = 0.04390843
#
# Stress axis : x y z
#
# Youngs Moduli (GPa) = 26.88513 62.39259 69.45283
#
# Poissons Ratio (x) = 0.19876 0.27944
# Poissons Ratio (y) = 0.08565 0.32277
# Poissons Ratio (z) = 0.10817 0.28996
#
# Static dielectric constant tensor:
#      x y z
#    x 3.109000 0.000000 0.000000 
#    y 0.000000 3.337880 0.000000 
#    z 0.000000 0.000000 3.567380 
# 
# 
# High freq. dielectric constant tensor:
#      x y z
#    x 1.660980 0.000000 0.000000 
#    y 0.000000 1.685200 0.000000 
#    z 0.000000 0.000000 1.684050 
# 
# From -- ./inp_files/42588.got.cif
#   From: 2010.03.12/outbox.cif.g09.slc.cpg/sg72_22_cif.got.tgz:42588.got - 2010.04.16 14:54:00.
