data_PCOD8293882
_publ_section_title
;
Structure prediction by ZEFSAII (Michael W. Deem and Ramdas Pophale) SiO2 
 PCOD8293882
Probable space group: I B A M
;
_chemical_formula_sum "Si O2"
_cell_formula_units_Z 80
_cell_length_a 26.288557
_cell_length_b 6.372417
_cell_length_c 17.684590
_cell_angle_alpha 90.000000
_cell_angle_beta 90.000000
_cell_angle_gamma 90.000000
_cell_volume 2962.551653
_symmetry_space_group_name_H-M "I B A M"
_symmetry_group_IT_number 72
_symmetry_cell_setting 'orthorhombic'
loop_
_space_group_symop_operation_xyz
x,y,z
-x,-y,z
x,-y,1/2-z
-x,y,1/2-z
-x,-y,-z
x,y,-z
-x,y,1/2+z
x,-y,1/2+z
1/2+x,1/2+y,1/2+z
1/2-x,1/2-y,1/2+z
1/2+x,1/2-y,-z
1/2-x,1/2+y,-z
1/2-x,1/2-y,1/2-z
1/2+x,1/2+y,1/2-z
1/2-x,1/2+y,z
1/2+x,1/2-y,z
loop_
_atom_site_type_symbol
_atom_site_label
_atom_site_fract_x
_atom_site_fract_y
_atom_site_fract_z
Si Si1 0.111864 0.858773 0.588602
Si Si2 0.681099 0.024680 0.660779
Si Si3 0.294028 0.520395 0.338418
Si Si4 0.086341 0.654099 0.913811
Si Si5 0.010257 0.233165 0.838680
O O1 0.115011 0.804887 0.500000
O O2 0.067843 0.722404 0.631543
O O3 0.169628 0.827060 0.630304
O O4 0.101297 0.104576 0.600978
O O5 0.677145 0.271005 0.641510
O O6 0.629700 0.975425 0.611323
O O7 0.672501 0.000000 0.750000
O O8 0.736519 0.955852 0.629310
O O9 0.285855 0.500000 0.250000
O O10 0.032834 0.608801 0.871461
O O11 0.075762 0.608080 0.000000
O O12 0.000000 0.248888 0.750000
O O13 0.000000 0.000000 0.869258
#
# Coordination Sequence:
#
# PCOD8293882 Si02
#       5
#    16  16  16  16  16
#     4   9  18  30  49  79 117 148 185 240 293 343
#     4  10  20  35  55  84 112 149 191 233 286 344
#     4  10  20  33  55  82 113 148 189 236 284 343
#     4   9  18  32  52  80 114 149 186 235 293 351
#     4   9  17  28  50  82 113 149 189 240 290 343
#
# _framework density 27.003748000000002
#
# number of rings (size 3 to 8) (size 9 to 14) (size 15 to 20)
#    0.000    2.600    0.000    3.000    8.400    3.200 
#    0.000    0.000    0.000    4.200    0.000    1.400 
#    0.000    0.000    0.000    0.000    0.000    0.000 
#
# Total GULP energy -495633.873775 kJ/mol
# GULP energy per Si atom -12390.846844 kJ/mol
# Density = 2.694229 g / cm^3
# Si number density = 27.003748 Si / 1000 Ang^3
#
#
#
# Elastic Constant Matrix: (Units=GPa)
#
#
# Indices 1 2 3 4 5 6 
#
# 1 287.2509 88.1674 138.3654 0.0000 0.0000 0.0000
# 2 88.1674 83.2642 9.5765 0.0000 0.0000 0.0000
# 3 138.3654 9.5765 152.7153 0.0000 0.0000 0.0000
# 4 0.0000 0.0000 0.0000 13.7025 0.0000 0.0000
# 5 0.0000 0.0000 0.0000 0.0000 42.1970 0.0000
# 6 0.0000 0.0000 0.0000 0.0000 0.0000 61.7972
#
#
#
# Elastic Compliance Matrix: (Units=1/GPa)
#
#
# Indices 1 2 3 4 5 6 
#
# 1 0.011703 -0.011254 -0.009898 0.000000 0.000000 0.000000
# 2 -0.011254 0.022919 0.008759 0.000000 0.000000 0.000000
# 3 -0.009898 0.008759 0.014967 0.000000 0.000000 0.000000
# 4 0.000000 0.000000 0.000000 0.072979 0.000000 0.000000
# 5 0.000000 0.000000 0.000000 0.000000 0.023698 0.000000
# 6 0.000000 0.000000 0.000000 0.000000 0.000000 0.016182
#
#
# Mechanical properties :
#
#
# Convention : Reuss Voigt Hill
#
# Bulk Modulus (GPa) = 40.31611 110.60545 75.46078
# Shear Modulus (GPa) = 25.57529 42.68076 34.12802
#
# Velocity S-wave (km/s) = 3.08084 3.97993 3.55889
# Velocity P-wave (km/s) = 5.25525 7.88467 6.70021
#
# Compressibility (1/GPa) = 0.02480398
#
# Stress axis : x y z
#
# Youngs Moduli (GPa) = 85.44741 43.63165 66.81578
#
# Poissons Ratio (x) = 0.49103 0.66132
# Poissons Ratio (y) = 0.96162 -0.58525
# Poissons Ratio (z) = 0.84573 -0.38218
#
# Static dielectric constant tensor:
#      x y z
#    x 5.593450 0.000000 0.000000 
#    y 0.000000 5.997600 0.000000 
#    z 0.000000 0.000000 4.184240 
# 
# 
# High freq. dielectric constant tensor:
#      x y z
#    x 2.137740 0.000000 0.000000 
#    y 0.000000 2.182810 0.000000 
#    z 0.000000 0.000000 2.036190 
# 
# From -- ./inp_files/33755.got.cif
#   From: 2010.03.12/outbox.cif.g09.slc.cpg/sg72_17_cif.got.tgz:33755.got - 2010.04.16 14:54:00.
