data_PCOD8293924
_publ_section_title
;
Structure prediction by ZEFSAII (Michael W. Deem and Ramdas Pophale) SiO2 
 PCOD8293924
Probable space group: I B A M
;
_chemical_formula_sum "Si O2"
_cell_formula_units_Z 96
_cell_length_a 20.079371
_cell_length_b 25.818813
_cell_length_c 9.601668
_cell_angle_alpha 90.000000
_cell_angle_beta 90.000000
_cell_angle_gamma 90.000000
_cell_volume 4977.749774
_symmetry_space_group_name_H-M "I B A M"
_symmetry_group_IT_number 72
_symmetry_cell_setting 'orthorhombic'
loop_
_space_group_symop_operation_xyz
x,y,z
-x,-y,z
x,-y,1/2-z
-x,y,1/2-z
-x,-y,-z
x,y,-z
-x,y,1/2+z
x,-y,1/2+z
1/2+x,1/2+y,1/2+z
1/2-x,1/2-y,1/2+z
1/2+x,1/2-y,-z
1/2-x,1/2+y,-z
1/2-x,1/2-y,1/2-z
1/2+x,1/2+y,1/2-z
1/2-x,1/2+y,z
1/2+x,1/2-y,z
loop_
_atom_site_type_symbol
_atom_site_label
_atom_site_fract_x
_atom_site_fract_y
_atom_site_fract_z
Si Si1 0.796654 0.878069 0.656615
Si Si2 0.438190 0.337910 0.159588
Si Si3 0.181242 0.549181 0.343773
Si Si4 0.264500 0.203609 0.150884
Si Si5 0.084310 0.719011 0.152809
Si Si6 0.060128 0.376546 0.164758
O O1 0.784761 0.854688 0.500000
O O2 0.876021 0.877227 0.685460
O O3 0.759228 0.933474 0.666148
O O4 0.761282 0.847492 0.777698
O O5 0.500000 0.358182 0.250000
O O6 0.418980 0.278980 0.202795
O O7 0.460345 0.339861 0.000000
O O8 0.167702 0.500000 0.250000
O O9 0.164940 0.531615 0.500000
O O10 0.130382 0.595548 0.302153
O O11 0.250000 0.250000 0.250000
O O12 0.341873 0.200237 0.126811
O O13 0.229103 0.210272 0.000000
O O14 0.057602 0.682691 0.276914
O O15 0.048432 0.712319 0.000000
O O16 0.000000 0.405340 0.250000
O O17 0.045370 0.375962 0.000000
#
# Coordination Sequence:
#
# PCOD8293924 Si02
#       6
#    16  16  16  16  16  16
#     4  10  20  39  59  80 111 147 187 234 285 335
#     4  10  21  36  54  80 117 152 187 227 271 326
#     4  10  23  41  63  85 108 140 183 237 294 344
#     4  11  20  31  52  82 113 148 188 231 274 323
#     4  10  20  34  53  80 114 155 193 228 266 316
#     4  11  23  38  57  82 114 153 190 231 277 329
#
# _framework density 19.285823000000001
#
# number of rings (size 3 to 8) (size 9 to 14) (size 15 to 20)
#    0.000    1.667    3.333    1.500    0.000    5.667 
#    0.000    1.667    0.000    0.500    0.000    3.500 
#    0.000    0.000    0.000    0.000    0.000    0.000 
#
# Total GULP energy -594639.479171 kJ/mol
# GULP energy per Si atom -12388.322483 kJ/mol
# Density = 1.924193 g / cm^3
# Si number density = 19.285823 Si / 1000 Ang^3
#
#
#
# Elastic Constant Matrix: (Units=GPa)
#
#
# Indices 1 2 3 4 5 6 
#
# 1 118.3454 27.0719 48.5798 0.0000 0.0000 0.0000
# 2 27.0719 53.4798 34.5707 0.0000 0.0000 0.0000
# 3 48.5798 34.5707 122.3444 0.0000 0.0000 0.0000
# 4 0.0000 0.0000 0.0000 25.4421 0.0000 0.0000
# 5 0.0000 0.0000 0.0000 0.0000 31.4476 0.0000
# 6 0.0000 0.0000 0.0000 0.0000 0.0000 14.1239
#
#
#
# Elastic Compliance Matrix: (Units=1/GPa)
#
#
# Indices 1 2 3 4 5 6 
#
# 1 0.010528 -0.003214 -0.003272 0.000000 0.000000 0.000000
# 2 -0.003214 0.023859 -0.005465 0.000000 0.000000 0.000000
# 3 -0.003272 -0.005465 0.011017 0.000000 0.000000 0.000000
# 4 0.000000 0.000000 0.000000 0.039305 0.000000 0.000000
# 5 0.000000 0.000000 0.000000 0.000000 0.031799 0.000000
# 6 0.000000 0.000000 0.000000 0.000000 0.000000 0.070802
#
#
# Mechanical properties :
#
#
# Convention : Reuss Voigt Hill
#
# Bulk Modulus (GPa) = 46.51055 57.17936 51.84496
# Shear Modulus (GPa) = 22.89575 26.46588 24.68081
#
# Velocity S-wave (km/s) = 3.44929 3.70847 3.58122
# Velocity P-wave (km/s) = 6.32710 6.93179 6.63634
#
# Compressibility (1/GPa) = 0.02150050
#
# Stress axis : x y z
#
# Youngs Moduli (GPa) = 94.98151 41.91340 90.76599
#
# Poissons Ratio (x) = 0.13472 0.29701
# Poissons Ratio (y) = 0.30529 0.49607
# Poissons Ratio (z) = 0.31081 0.22907
#
# Static dielectric constant tensor:
#      x y z
#    x 3.788290 0.000000 0.000000 
#    y 0.000000 3.203680 0.000000 
#    z 0.000000 0.000000 4.110110 
# 
# 
# High freq. dielectric constant tensor:
#      x y z
#    x 1.756220 0.000000 0.000000 
#    y 0.000000 1.701190 0.000000 
#    z 0.000000 0.000000 1.766420 
# 
# From -- ./inp_files/5949.got.cif
#   From: 2010.03.12/outbox.cif.g09.slc.cpg/sg72_3_cif.got.tgz:5949.got - 2010.04.16 14:54:00.
