data_PCOD8293998
_publ_section_title
;
Structure prediction by ZEFSAII (Michael W. Deem and Ramdas Pophale) SiO2 
 PCOD8293998
Probable space group: I B A M
;
_chemical_formula_sum "Si O2"
_cell_formula_units_Z 88
_cell_length_a 26.601677
_cell_length_b 10.576301
_cell_length_c 16.036166
_cell_angle_alpha 90.000000
_cell_angle_beta 90.000000
_cell_angle_gamma 90.000000
_cell_volume 4511.732697
_symmetry_space_group_name_H-M "I B A M"
_symmetry_group_IT_number 72
_symmetry_cell_setting 'orthorhombic'
loop_
_space_group_symop_operation_xyz
x,y,z
-x,-y,z
x,-y,1/2-z
-x,y,1/2-z
-x,-y,-z
x,y,-z
-x,y,1/2+z
x,-y,1/2+z
1/2+x,1/2+y,1/2+z
1/2-x,1/2-y,1/2+z
1/2+x,1/2-y,-z
1/2-x,1/2+y,-z
1/2-x,1/2-y,1/2-z
1/2+x,1/2+y,1/2-z
1/2-x,1/2+y,z
1/2+x,1/2-y,z
loop_
_atom_site_type_symbol
_atom_site_label
_atom_site_fract_x
_atom_site_fract_y
_atom_site_fract_z
Si Si1 0.944712 0.278660 0.229233
Si Si2 0.380604 0.589217 0.825035
Si Si3 0.294355 0.970143 0.902667
Si Si4 0.782961 0.187816 0.405247
Si Si5 0.046301 0.920241 0.905775
Si Si6 0.631079 0.000000 0.250000
O O1 0.926495 0.179437 0.298655
O O2 0.947283 0.212015 0.140062
O O3 0.903983 0.386750 0.222063
O O4 0.000000 0.332585 0.250000
O O5 0.362708 0.500000 0.750000
O O6 0.333196 0.670946 0.852295
O O7 0.402421 0.501954 0.898899
O O8 0.265227 0.834479 0.894888
O O9 0.338082 0.967698 0.833908
O O10 0.259309 0.088171 0.876229
O O11 0.313193 0.985445 0.000000
O O12 0.796679 0.157316 0.500000
O O13 0.034687 0.884895 0.000000
O O14 0.000000 0.000000 0.866915
#
# Coordination Sequence:
#
# PCOD8293998 Si02
#       6
#    16  16  16  16  16   8
#     4  11  22  40  60  90 127 162 208 260 310 377
#     4  10  20  34  61  91 120 158 202 260 311 376
#     4  10  24  43  66  93 126 164 214 267 318 385
#     4  10  21  41  63  90 125 163 206 263 319 375
#     4  10  20  35  61  91 122 161 207 264 320 370
#     4  12  25  42  66  90 126 178 211 256 320 380
#
# _framework density 19.504702000000002
#
# number of rings (size 3 to 8) (size 9 to 14) (size 15 to 20)
#    0.000    1.636    3.636    0.818    1.273    4.364 
#    0.000    2.727    0.000    2.182    0.000    0.000 
#    0.000    0.000    0.000    0.000    0.000    0.000 
#
# Total GULP energy -545392.296156 kJ/mol
# GULP energy per Si atom -12395.279458 kJ/mol
# Density = 1.946031 g / cm^3
# Si number density = 19.504702 Si / 1000 Ang^3
#
#
#
# Elastic Constant Matrix: (Units=GPa)
#
#
# Indices 1 2 3 4 5 6 
#
# 1 94.5903 54.9696 47.0703 0.0000 0.0000 0.0000
# 2 54.9696 132.6258 45.7975 0.0000 0.0000 0.0000
# 3 47.0703 45.7975 80.3510 0.0000 0.0000 0.0000
# 4 0.0000 0.0000 0.0000 21.4535 0.0000 0.0000
# 5 0.0000 0.0000 0.0000 0.0000 21.3227 0.0000
# 6 0.0000 0.0000 0.0000 0.0000 0.0000 45.0085
#
#
#
# Elastic Compliance Matrix: (Units=1/GPa)
#
#
# Indices 1 2 3 4 5 6 
#
# 1 0.016784 -0.004434 -0.007305 0.000000 0.000000 0.000000
# 2 -0.004434 0.010559 -0.003421 0.000000 0.000000 0.000000
# 3 -0.007305 -0.003421 0.018674 0.000000 0.000000 0.000000
# 4 0.000000 0.000000 0.000000 0.046612 0.000000 0.000000
# 5 0.000000 0.000000 0.000000 0.000000 0.046898 0.000000
# 6 0.000000 0.000000 0.000000 0.000000 0.000000 0.022218
#
#
# Mechanical properties :
#
#
# Convention : Reuss Voigt Hill
#
# Bulk Modulus (GPa) = 63.70293 67.02689 65.36491
# Shear Modulus (GPa) = 25.34241 28.20559 26.77400
#
# Velocity S-wave (km/s) = 3.60849 3.80688 3.70901
# Velocity P-wave (km/s) = 7.07762 7.33227 7.20607
#
# Compressibility (1/GPa) = 0.01569786
#
# Stress axis : x y z
#
# Youngs Moduli (GPa) = 59.58186 94.70582 53.54911
#
# Poissons Ratio (x) = 0.41991 0.39117
# Poissons Ratio (y) = 0.26418 0.18319
# Poissons Ratio (z) = 0.43524 0.32398
#
# Static dielectric constant tensor:
#      x y z
#    x 3.436020 0.000000 0.000000 
#    y 0.000000 3.825050 0.000000 
#    z 0.000000 0.000000 3.474920 
# 
# 
# High freq. dielectric constant tensor:
#      x y z
#    x 1.750130 0.000000 0.000000 
#    y 0.000000 1.767180 0.000000 
#    z 0.000000 0.000000 1.759080 
# 
# From -- ./inp_files/24983.got.cif
#   From: 2010.03.12/outbox.cif.g09.slc.cpg/sg72_13_cif.got.tgz:24983.got - 2010.04.16 14:54:00.
