data_PCOD8293480
_publ_section_title
;
Structure prediction by ZEFSAII (Michael W. Deem and Ramdas Pophale) SiO2 
 PCOD8293480
Probable space group: I B A M
;
_chemical_formula_sum "Si O2"
_cell_formula_units_Z 64
_cell_length_a 30.315179
_cell_length_b 14.929755
_cell_length_c 8.669493
_cell_angle_alpha 90.000000
_cell_angle_beta 90.000000
_cell_angle_gamma 90.000000
_cell_volume 3923.796886
_symmetry_space_group_name_H-M "I B A M"
_symmetry_group_IT_number 72
_symmetry_cell_setting 'orthorhombic'
loop_
_space_group_symop_operation_xyz
x,y,z
-x,-y,z
x,-y,1/2-z
-x,y,1/2-z
-x,-y,-z
x,y,-z
-x,y,1/2+z
x,-y,1/2+z
1/2+x,1/2+y,1/2+z
1/2-x,1/2-y,1/2+z
1/2+x,1/2-y,-z
1/2-x,1/2+y,-z
1/2-x,1/2-y,1/2-z
1/2+x,1/2+y,1/2-z
1/2-x,1/2+y,z
1/2+x,1/2-y,z
loop_
_atom_site_type_symbol
_atom_site_label
_atom_site_fract_x
_atom_site_fract_y
_atom_site_fract_z
Si Si1 0.202904 0.759078 0.326000
Si Si2 0.546992 0.904994 0.317960
Si Si3 0.137376 0.096128 0.825934
Si Si4 0.115729 0.729939 0.180676
O O1 0.205020 0.721517 0.500000
O O2 0.250000 0.750000 0.250000
O O3 0.187410 0.863687 0.325795
O O4 0.165946 0.702996 0.230196
O O5 0.500000 0.875604 0.250000
O O6 0.542877 0.913554 0.500000
O O7 0.582476 0.831033 0.274697
O O8 0.562316 0.000000 0.250000
O O9 0.106794 0.166169 0.730004
O O10 0.136864 0.000000 0.750000
O O11 0.119216 0.088835 0.000000
O O12 0.108739 0.716539 0.000000
#
# Coordination Sequence:
#
# PCOD8293480 Si02
#       4
#    16  16  16  16
#     4   9  18  31  49  73 102 135 175 218 262 311
#     4  11  21  36  56  81 109 140 179 220 268 324
#     4   9  18  31  50  75 101 134 174 213 256 310
#     4  10  19  33  53  76 105 140 175 217 263 311
#
# _framework density 16.310732999999999
#
# number of rings (size 3 to 8) (size 9 to 14) (size 15 to 20)
#    1.500    0.750    0.000    6.000    0.000    0.000 
#    0.000    1.250    0.000    3.750    0.000    5.250 
#    0.000    0.000    0.000    0.000    0.000    0.000 
#
# Total GULP energy -396469.222322 kJ/mol
# GULP energy per Si atom -12389.663198 kJ/mol
# Density = 1.627361 g / cm^3
# Si number density = 16.310733 Si / 1000 Ang^3
#
#
#
# Elastic Constant Matrix: (Units=GPa)
#
#
# Indices 1 2 3 4 5 6 
#
# 1 86.6390 51.9499 36.4561 0.0000 0.0000 0.0000
# 2 51.9499 88.5346 36.5502 0.0000 0.0000 0.0000
# 3 36.4561 36.5502 143.0094 0.0000 0.0000 0.0000
# 4 0.0000 0.0000 0.0000 31.0693 0.0000 0.0000
# 5 0.0000 0.0000 0.0000 0.0000 30.2053 0.0000
# 6 0.0000 0.0000 0.0000 0.0000 0.0000 20.5488
#
#
#
# Elastic Compliance Matrix: (Units=1/GPa)
#
#
# Indices 1 2 3 4 5 6 
#
# 1 0.018384 -0.009897 -0.002157 0.000000 0.000000 0.000000
# 2 -0.009897 0.017955 -0.002066 0.000000 0.000000 0.000000
# 3 -0.002157 -0.002066 0.008070 0.000000 0.000000 0.000000
# 4 0.000000 0.000000 0.000000 0.032186 0.000000 0.000000
# 5 0.000000 0.000000 0.000000 0.000000 0.033107 0.000000
# 6 0.000000 0.000000 0.000000 0.000000 0.000000 0.048665
#
#
# Mechanical properties :
#
#
# Convention : Reuss Voigt Hill
#
# Bulk Modulus (GPa) = 61.84355 63.12171 62.48263
# Shear Modulus (GPa) = 26.04209 29.24648 27.64428
#
# Velocity S-wave (km/s) = 4.00011 4.23907 4.12132
# Velocity P-wave (km/s) = 7.70277 7.92106 7.81268
#
# Compressibility (1/GPa) = 0.01616983
#
# Stress axis : x y z
#
# Youngs Moduli (GPa) = 54.39501 55.69437 123.90847
#
# Poissons Ratio (x) = 0.55119 0.26728
# Poissons Ratio (y) = 0.53834 0.25600
# Poissons Ratio (z) = 0.11733 0.11507
#
# Static dielectric constant tensor:
#      x y z
#    x 2.870150 0.000000 0.000000 
#    y 0.000000 2.894150 0.000000 
#    z 0.000000 0.000000 3.244630 
# 
# 
# High freq. dielectric constant tensor:
#      x y z
#    x 1.605820 0.000000 0.000000 
#    y 0.000000 1.608960 0.000000 
#    z 0.000000 0.000000 1.653830 
# 
# From -- ./inp_files/4528.got.cif
#   From: 2010.03.12/outbox.cif.g09.slc.cpg/sg72_3_cif.got.tgz:4528.got - 2010.04.16 14:54:00.
