data_PCOD8293277
_publ_section_title
;
Structure prediction by ZEFSAII (Michael W. Deem and Ramdas Pophale) SiO2 
 PCOD8293277
Probable space group: I B A M
;
_chemical_formula_sum "Si O2"
_cell_formula_units_Z 104
_cell_length_a 9.127560
_cell_length_b 23.482136
_cell_length_c 26.166100
_cell_angle_alpha 90.000000
_cell_angle_beta 90.000000
_cell_angle_gamma 90.000000
_cell_volume 5608.300715
_symmetry_space_group_name_H-M "I B A M"
_symmetry_group_IT_number 72
_symmetry_cell_setting 'orthorhombic'
loop_
_space_group_symop_operation_xyz
x,y,z
-x,-y,z
x,-y,1/2-z
-x,y,1/2-z
-x,-y,-z
x,y,-z
-x,y,1/2+z
x,-y,1/2+z
1/2+x,1/2+y,1/2+z
1/2-x,1/2-y,1/2+z
1/2+x,1/2-y,-z
1/2-x,1/2+y,-z
1/2-x,1/2-y,1/2-z
1/2+x,1/2+y,1/2-z
1/2-x,1/2+y,z
1/2+x,1/2-y,z
loop_
_atom_site_type_symbol
_atom_site_label
_atom_site_fract_x
_atom_site_fract_y
_atom_site_fract_z
Si Si1 0.386648 0.638141 0.389702
Si Si2 0.000000 0.703500 0.250000
Si Si3 0.937015 0.302317 0.500000
Si Si4 0.957397 0.065422 0.694304
Si Si5 0.075502 0.771181 0.347079
Si Si6 0.192347 0.363181 0.323172
Si Si7 0.593516 0.681300 0.000000
Si Si8 0.437025 0.845654 0.103827
O O1 0.464173 0.589762 0.355985
O O2 0.421996 0.698116 0.361513
O O3 0.440882 0.643276 0.449071
O O4 0.215616 0.621380 0.388775
O O5 0.930534 0.745082 0.208900
O O6 0.871203 0.662949 0.270988
O O7 0.761091 0.298364 0.500000
O O8 0.994008 0.342292 0.546132
O O9 0.995888 0.238074 0.500000
O O10 0.783276 0.079064 0.688226
O O11 0.000000 0.092652 0.750000
O O12 0.000000 0.000000 0.695761
O O13 0.205507 0.816805 0.351044
O O14 0.101041 0.720341 0.385816
O O15 0.056799 0.376096 0.360738
#
# Coordination Sequence:
#
# PCOD8293277 Si02
#       8
#    16   8   8  16  16  16   8  16
#     4  10  21  35  57  77 117 150 190 229 271 326
#     4  10  20  30  50  79 121 142 186 210 270 326
#     4  10  20  30  52  77 128 158 186 215 256 321
#     4  10  24  44  63  78 102 139 189 242 301 337
#     4  10  19  30  48  79 115 159 183 210 258 326
#     4  10  22  33  54  79 110 148 187 226 275 330
#     4  10  20  34  51  85 111 164 189 219 265 321
#     4  10  19  33  50  83 118 151 185 220 264 323
#
# _framework density 18.543942000000001
#
# number of rings (size 3 to 8) (size 9 to 14) (size 15 to 20)
#    0.000    2.000    1.538    2.308   10.769    0.000 
#    0.000    1.154    0.000    0.000    0.000    3.231 
#    0.000    0.000    0.000    0.000    0.000    0.000 
#
# Total GULP energy -644317.364197 kJ/mol
# GULP energy per Si atom -12390.718542 kJ/mol
# Density = 1.850173 g / cm^3
# Si number density = 18.543942 Si / 1000 Ang^3
#
#
#
# Elastic Constant Matrix: (Units=GPa)
#
#
# Indices 1 2 3 4 5 6 
#
# 1 91.1820 24.6638 52.1870 0.0000 0.0000 0.0000
# 2 24.6638 55.1844 31.9810 0.0001 0.0000 0.0000
# 3 52.1870 31.9810 151.3350 0.0000 0.0000 0.0000
# 4 0.0000 0.0001 0.0000 184.5568 0.0000 0.0000
# 5 0.0000 0.0000 0.0000 0.0000 27.5126 0.0000
# 6 0.0000 0.0000 0.0000 0.0000 0.0000 21.0290
#
#
#
# Elastic Compliance Matrix: (Units=1/GPa)
#
#
# Indices 1 2 3 4 5 6 
#
# 1 0.014420 -0.004060 -0.004115 0.000000 0.000000 0.000000
# 2 -0.004060 0.021793 -0.003205 0.000000 0.000000 0.000000
# 3 -0.004115 -0.003205 0.008704 0.000000 0.000000 0.000000
# 4 0.000000 0.000000 0.000000 0.005418 0.000000 0.000000
# 5 0.000000 0.000000 0.000000 0.000000 0.036347 0.000000
# 6 0.000000 0.000000 0.000000 0.000000 0.000000 0.047553
#
#
# Mechanical properties :
#
#
# Convention : Reuss Voigt Hill
#
# Bulk Modulus (GPa) = 45.13223 57.26275 51.19749
# Shear Modulus (GPa) = 30.41676 59.21100 44.81388
#
# Velocity S-wave (km/s) = 4.05440 5.65680 4.92126
# Velocity P-wave (km/s) = 6.80502 8.57977 7.74341
#
# Compressibility (1/GPa) = 0.02215712
#
# Stress axis : x y z
#
# Youngs Moduli (GPa) = 69.34637 45.88559 114.88759
#
# Poissons Ratio (x) = 0.18631 0.47273
# Poissons Ratio (y) = 0.28157 0.36825
# Poissons Ratio (z) = 0.28534 0.14708
#
# Static dielectric constant tensor:
#      x y z
#    x 3.565420 0.000000 0.000000 
#    y 0.000000 2.958080 0.000000 
#    z 0.000000 0.000000 4.736470 
# 
# 
# High freq. dielectric constant tensor:
#      x y z
#    x 1.725720 0.000000 0.000000 
#    y 0.000000 1.663910 0.000000 
#    z 0.000000 0.000000 1.740010 
# 
# From -- ./inp_files/47589.got.cif
#   From: 2010.03.12/outbox.cif.g09.slc.cpg/sg72_24_cif.got.tgz:47589.got - 2010.04.16 14:54:00.
