data_PCOD8293982
_publ_section_title
;
Structure prediction by ZEFSAII (Michael W. Deem and Ramdas Pophale) SiO2 
 PCOD8293982
Probable space group: I B A M
;
_chemical_formula_sum "Si O2"
_cell_formula_units_Z 112
_cell_length_a 11.514283
_cell_length_b 32.086823
_cell_length_c 14.421100
_cell_angle_alpha 90.000000
_cell_angle_beta 90.000000
_cell_angle_gamma 90.000000
_cell_volume 5327.972890
_symmetry_space_group_name_H-M "I B A M"
_symmetry_group_IT_number 72
_symmetry_cell_setting 'orthorhombic'
loop_
_space_group_symop_operation_xyz
x,y,z
-x,-y,z
x,-y,1/2-z
-x,y,1/2-z
-x,-y,-z
x,y,-z
-x,y,1/2+z
x,-y,1/2+z
1/2+x,1/2+y,1/2+z
1/2-x,1/2-y,1/2+z
1/2+x,1/2-y,-z
1/2-x,1/2+y,-z
1/2-x,1/2-y,1/2-z
1/2+x,1/2+y,1/2-z
1/2-x,1/2+y,z
1/2+x,1/2-y,z
loop_
_atom_site_type_symbol
_atom_site_label
_atom_site_fract_x
_atom_site_fract_y
_atom_site_fract_z
Si Si1 0.296248 0.128552 0.780542
Si Si2 0.185792 0.954397 0.735124
Si Si3 0.957694 0.682375 0.398100
Si Si4 0.778815 0.674169 0.894014
Si Si5 0.566939 0.727507 0.845404
Si Si6 0.018835 0.068869 0.608241
Si Si7 0.409901 0.344420 0.399674
O O1 0.283120 0.078960 0.799194
O O2 0.414389 0.147894 0.823565
O O3 0.288166 0.132880 0.669220
O O4 0.191090 0.155405 0.824230
O O5 0.134769 0.940767 0.834669
O O6 0.087355 0.956742 0.655045
O O7 0.242389 0.000000 0.750000
O O8 0.928285 0.664344 0.500000
O O9 0.900137 0.727665 0.387250
O O10 0.093243 0.693522 0.389747
O O11 0.692525 0.705784 0.842474
O O12 0.740625 0.663513 0.000000
O O13 0.500000 0.733533 0.750000
O O14 0.480994 0.698500 0.904988
O O15 0.030974 0.056129 0.500000
O O16 0.999669 0.118272 0.621570
O O17 0.351194 0.351641 0.500000
#
# Coordination Sequence:
#
# PCOD8293982 Si02
#       7
#    16  16  16  16  16  16  16
#     4  11  22  41  62  85 122 166 209 257 319 379
#     4  10  21  34  56  89 121 157 209 263 314 385
#     4  11  26  43  62  88 120 165 216 266 316 371
#     4  11  24  42  62  89 122 162 210 257 310 373
#     4  12  23  38  61  91 128 162 209 260 312 367
#     4   9  18  33  54  85 129 171 200 243 317 389
#     4  10  20  34  57  88 124 166 206 250 305 375
#
# _framework density 21.021127
#
# number of rings (size 3 to 8) (size 9 to 14) (size 15 to 20)
#    0.000    1.429    1.429    4.714    4.000    4.571 
#    0.000    0.000    0.000    1.714    0.000    2.000 
#    0.000    0.000    0.000    0.000    0.000    0.000 
#
# Total GULP energy -694016.153815 kJ/mol
# GULP energy per Si atom -12393.145604 kJ/mol
# Density = 2.097328 g / cm^3
# Si number density = 21.021127 Si / 1000 Ang^3
#
#
#
# Elastic Constant Matrix: (Units=GPa)
#
#
# Indices 1 2 3 4 5 6 
#
# 1 73.5451 31.2176 29.5905 -0.0002 0.0002 0.0001
# 2 31.2176 114.5281 31.0395 0.0008 -0.0002 -0.0002
# 3 29.5905 31.0395 141.4794 0.0024 -0.0006 -0.0004
# 4 -0.0002 0.0008 0.0024 18.1698 -0.0003 -0.0003
# 5 0.0002 -0.0002 -0.0006 -0.0003 22.3505 0.0002
# 6 0.0001 -0.0002 -0.0004 -0.0003 0.0002 21.8314
#
#
#
# Elastic Compliance Matrix: (Units=1/GPa)
#
#
# Indices 1 2 3 4 5 6 
#
# 1 0.016213 -0.003721 -0.002574 0.000001 0.000000 0.000000
# 2 -0.003721 0.010138 -0.001446 0.000000 0.000000 0.000000
# 3 -0.002574 -0.001446 0.007924 -0.000001 0.000000 0.000000
# 4 0.000001 0.000000 -0.000001 0.055036 0.000001 0.000001
# 5 0.000000 0.000000 0.000000 0.000001 0.044742 0.000000
# 6 0.000000 0.000000 0.000000 0.000001 0.000000 0.045806
#
#
# Mechanical properties :
#
#
# Convention : Reuss Voigt Hill
#
# Bulk Modulus (GPa) = 53.21762 57.02752 55.12257
# Shear Modulus (GPa) = 24.80104 28.31734 26.55919
#
# Velocity S-wave (km/s) = 3.43857 3.67425 3.55836
# Velocity P-wave (km/s) = 6.41375 6.72218 6.56978
#
# Compressibility (1/GPa) = 0.01879077
#
# Stress axis : x y z
#
# Youngs Moduli (GPa) = 61.68074 98.64177 126.20202
#
# Poissons Ratio (x) = 0.36709 0.32490
# Poissons Ratio (y) = 0.22954 0.18246
# Poissons Ratio (z) = 0.15879 0.14262
#
# Static dielectric constant tensor:
#      x y z
#    x 3.605390 0.000000 0.000000 
#    y 0.000000 3.680410 0.000000 
#    z 0.000000 0.000000 4.032240 
# 
# 
# High freq. dielectric constant tensor:
#      x y z
#    x 1.795870 0.000000 0.000000 
#    y 0.000000 1.803070 0.000000 
#    z 0.000000 0.000000 1.840530 
# 
# From -- ./inp_files/20705.got.cif
#   From: 2010.03.12/outbox.cif.g09.slc.cpg/sg72_11_cif.got.tgz:20705.got - 2010.04.16 14:54:00.
