data_PCOD8293307
_publ_section_title
;
Structure prediction by ZEFSAII (Michael W. Deem and Ramdas Pophale) SiO2 
 PCOD8293307
Probable space group: I B A M
;
_chemical_formula_sum "Si O2"
_cell_formula_units_Z 96
_cell_length_a 21.203985
_cell_length_b 17.542067
_cell_length_c 14.852534
_cell_angle_alpha 90.000000
_cell_angle_beta 90.000000
_cell_angle_gamma 90.000000
_cell_volume 5524.574175
_symmetry_space_group_name_H-M "I B A M"
_symmetry_group_IT_number 72
_symmetry_cell_setting 'orthorhombic'
loop_
_space_group_symop_operation_xyz
x,y,z
-x,-y,z
x,-y,1/2-z
-x,y,1/2-z
-x,-y,-z
x,y,-z
-x,y,1/2+z
x,-y,1/2+z
1/2+x,1/2+y,1/2+z
1/2-x,1/2-y,1/2+z
1/2+x,1/2-y,-z
1/2-x,1/2+y,-z
1/2-x,1/2-y,1/2-z
1/2+x,1/2+y,1/2-z
1/2-x,1/2+y,z
1/2+x,1/2-y,z
loop_
_atom_site_type_symbol
_atom_site_label
_atom_site_fract_x
_atom_site_fract_y
_atom_site_fract_z
Si Si1 0.727365 0.437719 0.396871
Si Si2 0.240643 0.388141 0.399049
Si Si3 0.203978 0.682017 0.728265
Si Si4 0.410487 0.530141 0.600742
Si Si5 0.525166 0.615217 0.654387
Si Si6 0.637694 0.285997 0.101164
O O1 0.732744 0.410305 0.500000
O O2 0.754653 0.521967 0.384812
O O3 0.764962 0.380402 0.335260
O O4 0.654792 0.435015 0.363670
O O5 0.216528 0.368817 0.500000
O O6 0.189608 0.356468 0.325912
O O7 0.309682 0.351355 0.382279
O O8 0.250000 0.750000 0.750000
O O9 0.144571 0.717404 0.674237
O O10 0.399911 0.496351 0.500000
O O11 0.463550 0.596200 0.594661
O O12 0.432766 0.461455 0.665252
O O13 0.500000 0.643350 0.750000
O O14 0.567430 0.680849 0.610563
O O15 0.644957 0.253062 0.000000
#
# Coordination Sequence:
#
# PCOD8293307 Si02
#       6
#    16  16  16  16  16  16
#     4  10  19  32  52  77 103 136 178 217 257 305
#     4   9  18  32  52  72  98 133 168 214 263 306
#     4  10  21  31  49  70 101 136 178 211 257 310
#     4  10  19  31  48  70  99 134 175 219 250 288
#     4  11  21  29  47  70  98 136 180 212 247 295
#     4  10  19  35  50  67 101 144 176 209 261 312
#
# _framework density 17.376905000000001
#
# number of rings (size 3 to 8) (size 9 to 14) (size 15 to 20)
#    0.000    2.000    1.667    4.000    4.667    2.000 
#    0.000    0.000    0.000    0.000    0.000    0.000 
#    0.000    2.667    0.000   10.000    2.000    0.000 
#
# Total GULP energy -594865.749512 kJ/mol
# GULP energy per Si atom -12393.036448 kJ/mol
# Density = 1.733735 g / cm^3
# Si number density = 17.376905 Si / 1000 Ang^3
#
#
#
# Elastic Constant Matrix: (Units=GPa)
#
#
# Indices 1 2 3 4 5 6 
#
# 1 50.1311 33.0845 29.6762 0.0000 0.0000 0.0000
# 2 33.0845 77.5065 50.1209 0.0000 0.0000 0.0000
# 3 29.6762 50.1209 110.2190 0.0000 0.0000 0.0000
# 4 0.0000 0.0000 0.0000 37.2574 0.0000 0.0000
# 5 0.0000 0.0000 0.0000 0.0000 24.2475 0.0000
# 6 0.0000 0.0000 0.0000 0.0000 0.0000 26.9402
#
#
#
# Elastic Compliance Matrix: (Units=1/GPa)
#
#
# Indices 1 2 3 4 5 6 
#
# 1 0.028468 -0.010192 -0.003030 0.000000 0.000000 0.000000
# 2 -0.010192 0.021926 -0.007226 0.000000 0.000000 0.000000
# 3 -0.003030 -0.007226 0.013175 0.000000 0.000000 0.000000
# 4 0.000000 0.000000 0.000000 0.026840 0.000000 0.000000
# 5 0.000000 0.000000 0.000000 0.000000 0.041241 0.000000
# 6 0.000000 0.000000 0.000000 0.000000 0.000000 0.037119
#
#
# Mechanical properties :
#
#
# Convention : Reuss Voigt Hill
#
# Bulk Modulus (GPa) = 44.10898 51.51332 47.81115
# Shear Modulus (GPa) = 23.01769 26.02069 24.51919
#
# Velocity S-wave (km/s) = 3.64347 3.87386 3.76043
# Velocity P-wave (km/s) = 6.56800 7.05111 6.81384
#
# Compressibility (1/GPa) = 0.02267112
#
# Stress axis : x y z
#
# Youngs Moduli (GPa) = 35.12712 45.60814 75.90279
#
# Poissons Ratio (x) = 0.46486 0.22999
# Poissons Ratio (y) = 0.35803 0.54849
# Poissons Ratio (z) = 0.10644 0.32958
#
# Static dielectric constant tensor:
#      x y z
#    x 3.001160 0.000000 0.000000 
#    y 0.000000 3.237810 0.000000 
#    z 0.000000 0.000000 3.706640 
# 
# 
# High freq. dielectric constant tensor:
#      x y z
#    x 1.621520 0.000000 0.000000 
#    y 0.000000 1.645130 0.000000 
#    z 0.000000 0.000000 1.696190 
# 
# From -- ./inp_files/24416.got.cif
#   From: 2010.03.12/outbox.cif.g09.slc.cpg/sg72_13_cif.got.tgz:24416.got - 2010.04.16 14:54:00.
