data_PCOD8293505
_publ_section_title
;
Structure prediction by ZEFSAII (Michael W. Deem and Ramdas Pophale) SiO2 
 PCOD8293505
Probable space group: I B A M
;
_chemical_formula_sum "Si O2"
_cell_formula_units_Z 128
_cell_length_a 22.848160
_cell_length_b 11.952036
_cell_length_c 25.835793
_cell_angle_alpha 90.000000
_cell_angle_beta 90.000000
_cell_angle_gamma 90.000000
_cell_volume 7055.290821
_symmetry_space_group_name_H-M "I B A M"
_symmetry_group_IT_number 72
_symmetry_cell_setting 'orthorhombic'
loop_
_space_group_symop_operation_xyz
x,y,z
-x,-y,z
x,-y,1/2-z
-x,y,1/2-z
-x,-y,-z
x,y,-z
-x,y,1/2+z
x,-y,1/2+z
1/2+x,1/2+y,1/2+z
1/2-x,1/2-y,1/2+z
1/2+x,1/2-y,-z
1/2-x,1/2+y,-z
1/2-x,1/2-y,1/2-z
1/2+x,1/2+y,1/2-z
1/2-x,1/2+y,z
1/2+x,1/2-y,z
loop_
_atom_site_type_symbol
_atom_site_label
_atom_site_fract_x
_atom_site_fract_y
_atom_site_fract_z
Si Si1 0.335177 0.817833 0.557079
Si Si2 0.467380 0.244866 0.304321
Si Si3 0.563544 0.965745 0.358001
Si Si4 0.084470 0.712381 0.854646
Si Si5 0.673551 0.371531 0.695798
Si Si6 0.648941 0.620631 0.687764
Si Si7 0.767423 0.275868 0.376261
Si Si8 0.150406 0.421563 0.942666
O O1 0.332522 0.761751 0.500000
O O2 0.393105 0.770437 0.586340
O O3 0.278700 0.793876 0.591141
O O4 0.336445 0.949259 0.550898
O O5 0.500000 0.253793 0.250000
O O6 0.437426 0.122159 0.310189
O O7 0.517143 0.253423 0.349259
O O8 0.419114 0.341778 0.309856
O O9 0.594127 0.904480 0.406344
O O10 0.500000 0.000000 0.378444
O O11 0.594234 0.080934 0.339511
O O12 0.124334 0.779671 0.814985
O O13 0.650701 0.489780 0.672786
O O14 0.681787 0.369932 0.757366
O O15 0.735868 0.341559 0.670483
O O16 0.683112 0.693268 0.645581
O O17 0.794635 0.364324 0.415513
O O18 0.139449 0.369425 0.000000
#
# Coordination Sequence:
#
# PCOD8293505 Si02
#       8
#    16  16  16  16  16  16  16  16
#     4   9  19  35  56  80 108 145 189 229 278 339
#     4  11  20  36  57  82 113 148 188 227 281 331
#     4   9  19  34  54  80 114 142 182 231 278 334
#     4   9  19  35  55  80 110 146 186 227 276 325
#     4  10  22  38  54  82 112 150 192 227 276 338
#     4  11  22  37  57  81 115 147 189 232 276 336
#     4  11  20  36  57  79 113 145 184 235 283 325
#     4  10  19  33  54  82 109 140 182 228 285 333
#
# _framework density 18.142412
#
# number of rings (size 3 to 8) (size 9 to 14) (size 15 to 20)
#    0.000    2.000    2.500    1.500    0.000    3.000 
#    0.000    1.875    0.000    0.750    0.000    3.500 
#    0.000    0.000    0.000    0.000    0.000    0.000 
#
# Total GULP energy -793354.065654 kJ/mol
# GULP energy per Si atom -12396.157276 kJ/mol
# Density = 1.810112 g / cm^3
# Si number density = 18.142412 Si / 1000 Ang^3
#
#
#
# Elastic Constant Matrix: (Units=GPa)
#
#
# Indices 1 2 3 4 5 6 
#
# 1 94.0136 36.7359 45.7704 0.0000 0.0000 0.0000
# 2 36.7359 57.1463 25.1438 0.0000 0.0000 0.0000
# 3 45.7704 25.1438 93.7138 0.0000 0.0000 0.0000
# 4 0.0000 0.0000 0.0000 19.6951 0.0000 0.0000
# 5 0.0000 0.0000 0.0000 0.0000 14.6664 0.0000
# 6 0.0000 0.0000 0.0000 0.0000 0.0000 30.1505
#
#
#
# Elastic Compliance Matrix: (Units=1/GPa)
#
#
# Indices 1 2 3 4 5 6 
#
# 1 0.016725 -0.008115 -0.005991 0.000000 0.000000 0.000000
# 2 -0.008115 0.023779 -0.002416 0.000000 0.000000 0.000000
# 3 -0.005991 -0.002416 0.014245 0.000000 0.000000 0.000000
# 4 0.000000 0.000000 0.000000 0.050774 0.000000 0.000000
# 5 0.000000 0.000000 0.000000 0.000000 0.068183 0.000000
# 6 0.000000 0.000000 0.000000 0.000000 0.000000 0.033167
#
#
# Mechanical properties :
#
#
# Convention : Reuss Voigt Hill
#
# Bulk Modulus (GPa) = 46.07601 51.13044 48.60323
# Shear Modulus (GPa) = 20.23042 22.05063 21.14052
#
# Velocity S-wave (km/s) = 3.34292 3.49007 3.41729
# Velocity P-wave (km/s) = 6.35233 6.66969 6.51294
#
# Compressibility (1/GPa) = 0.02170327
#
# Stress axis : x y z
#
# Youngs Moduli (GPa) = 59.79250 42.05400 70.19918
#
# Poissons Ratio (x) = 0.34128 0.42056
# Poissons Ratio (y) = 0.48523 0.16963
# Poissons Ratio (z) = 0.35822 0.10162
#
# Static dielectric constant tensor:
#      x y z
#    x 3.428970 0.000000 0.000000 
#    y 0.000000 3.428430 0.000000 
#    z 0.000000 0.000000 3.511570 
# 
# 
# High freq. dielectric constant tensor:
#      x y z
#    x 1.705230 0.000000 0.000000 
#    y 0.000000 1.697690 0.000000 
#    z 0.000000 0.000000 1.696720 
# 
# From -- ./inp_files/43667.got.cif
#   From: 2010.03.12/outbox.cif.g09.slc.cpg/sg72_22_cif.got.tgz:43667.got - 2010.04.16 14:54:00.
