data_PCOD8293075
_publ_section_title
;
Structure prediction by ZEFSAII (Michael W. Deem and Ramdas Pophale) SiO2 
 PCOD8293075
Probable space group: I B A M
;
_chemical_formula_sum "Si O2"
_cell_formula_units_Z 116
_cell_length_a 34.806879
_cell_length_b 24.132369
_cell_length_c 8.932254
_cell_angle_alpha 90.000000
_cell_angle_beta 90.000000
_cell_angle_gamma 90.000000
_cell_volume 7502.847256
_symmetry_space_group_name_H-M "I B A M"
_symmetry_group_IT_number 72
_symmetry_cell_setting 'orthorhombic'
loop_
_space_group_symop_operation_xyz
x,y,z
-x,-y,z
x,-y,1/2-z
-x,y,1/2-z
-x,-y,-z
x,y,-z
-x,y,1/2+z
x,-y,1/2+z
1/2+x,1/2+y,1/2+z
1/2-x,1/2-y,1/2+z
1/2+x,1/2-y,-z
1/2-x,1/2+y,-z
1/2-x,1/2-y,1/2-z
1/2+x,1/2+y,1/2-z
1/2-x,1/2+y,z
1/2+x,1/2-y,z
loop_
_atom_site_type_symbol
_atom_site_label
_atom_site_fract_x
_atom_site_fract_y
_atom_site_fract_z
Si Si1 0.460992 0.293175 0.677684
Si Si2 0.000000 0.000000 0.750000
Si Si3 0.131959 0.903628 0.825606
Si Si4 0.559233 0.585273 0.336523
Si Si5 0.116735 0.777168 0.822589
Si Si6 0.747949 0.663132 0.675796
Si Si7 0.809032 0.261720 0.324035
Si Si8 0.785796 0.057714 0.178924
O O1 0.500000 0.268762 0.750000
O O2 0.461871 0.284284 0.500000
O O3 0.458511 0.357726 0.727010
O O4 0.424378 0.261815 0.749636
O O5 0.973376 0.961232 0.851433
O O6 0.094876 0.936125 0.762684
O O7 0.128379 0.839647 0.779280
O O8 0.171160 0.929295 0.761268
O O9 0.131563 0.911968 0.000000
O O10 0.576116 0.597552 0.500000
O O11 0.148736 0.738167 0.748281
O O12 0.115153 0.767832 0.000000
O O13 0.753405 0.653095 0.500000
O O14 0.786464 0.688984 0.743534
O O15 0.712030 0.703451 0.708950
O O16 0.741974 0.605310 0.759951
O O17 0.811513 0.273709 0.500000
O O18 0.772148 0.000000 0.250000
O O19 0.783349 0.055647 0.000000
#
# Coordination Sequence:
#
# PCOD8293075 Si02
#       8
#    16   4  16  16  16  16  16  16
#     4  10  19  33  47  63  83 110 142 179 226 278
#     4  12  22  36  44  62  74 100 136 190 238 288
#     4   9  20  35  49  63  84 109 141 184 232 279
#     4  10  22  34  46  58  74 100 135 179 228 280
#     4  10  18  31  50  70  90 115 147 187 232 282
#     4  10  20  33  50  71  95 123 153 189 232 280
#     4  10  19  31  50  74  97 120 148 189 235 282
#     4  11  22  36  50  68  92 122 155 191 231 280
#
# _framework density 15.460798
#
# number of rings (size 3 to 8) (size 9 to 14) (size 15 to 20)
#    0.000    1.931    2.069    2.276    0.966    4.414 
#    0.000    0.000    0.000    0.000    0.000    0.000 
#    0.000    0.000    0.000    0.000    0.000    0.690 
#
# Total GULP energy -719213.026989 kJ/mol
# GULP energy per Si atom -12400.224603 kJ/mol
# Density = 1.542561 g / cm^3
# Si number density = 15.460798 Si / 1000 Ang^3
#
#
#
# Elastic Constant Matrix: (Units=GPa)
#
#
# Indices 1 2 3 4 5 6 
#
# 1 118.7032 43.3844 47.7606 0.0000 0.0000 0.0000
# 2 43.3844 58.6663 31.7334 0.0000 0.0000 0.0000
# 3 47.7606 31.7334 75.0573 0.0000 0.0000 0.0000
# 4 0.0000 0.0000 0.0000 18.7456 0.0000 0.0000
# 5 0.0000 0.0000 0.0000 0.0000 27.6182 0.0000
# 6 0.0000 0.0000 0.0000 0.0000 0.0000 21.9610
#
#
#
# Elastic Compliance Matrix: (Units=1/GPa)
#
#
# Indices 1 2 3 4 5 6 
#
# 1 0.013085 -0.006706 -0.005491 0.000000 0.000000 0.000000
# 2 -0.006706 0.025537 -0.006529 0.000000 0.000000 0.000000
# 3 -0.005491 -0.006529 0.019578 0.000000 0.000000 0.000000
# 4 0.000000 0.000000 0.000000 0.053346 0.000000 0.000000
# 5 0.000000 0.000000 0.000000 0.000000 0.036208 0.000000
# 6 0.000000 0.000000 0.000000 0.000000 0.000000 0.045535
#
#
# Mechanical properties :
#
#
# Convention : Reuss Voigt Hill
#
# Bulk Modulus (GPa) = 48.20129 55.35375 51.77752
# Shear Modulus (GPa) = 21.03883 22.30153 21.67018
#
# Velocity S-wave (km/s) = 3.69288 3.80209 3.74788
# Velocity P-wave (km/s) = 7.03046 7.42663 7.23126
#
# Compressibility (1/GPa) = 0.02074633
#
# Stress axis : x y z
#
# Youngs Moduli (GPa) = 76.42566 39.15937 51.07895
#
# Poissons Ratio (x) = 0.26261 0.28046
# Poissons Ratio (y) = 0.51253 0.33351
# Poissons Ratio (z) = 0.41963 0.25568
#
# Static dielectric constant tensor:
#      x y z
#    x 2.999440 0.000000 0.000000 
#    y 0.000000 2.581290 0.000000 
#    z 0.000000 0.000000 2.961150 
# 
# 
# High freq. dielectric constant tensor:
#      x y z
#    x 1.588700 0.000000 0.000000 
#    y 0.000000 1.537280 0.000000 
#    z 0.000000 0.000000 1.608590 
# 
# From -- ./inp_files/8708.got.cif
#   From: 2010.03.12/outbox.cif.g09.slc.cpg/sg72_5_cif.got.tgz:8708.got - 2010.04.16 14:54:00.
