data_PCOD8293677
_publ_section_title
;
Structure prediction by ZEFSAII (Michael W. Deem and Ramdas Pophale) SiO2 
 PCOD8293677
Probable space group: I B A M
;
_chemical_formula_sum "Si O2"
_cell_formula_units_Z 64
_cell_length_a 20.842788
_cell_length_b 8.849451
_cell_length_c 15.559326
_cell_angle_alpha 90.000000
_cell_angle_beta 90.000000
_cell_angle_gamma 90.000000
_cell_volume 2869.874599
_symmetry_space_group_name_H-M "I B A M"
_symmetry_group_IT_number 72
_symmetry_cell_setting 'orthorhombic'
loop_
_space_group_symop_operation_xyz
x,y,z
-x,-y,z
x,-y,1/2-z
-x,y,1/2-z
-x,-y,-z
x,y,-z
-x,y,1/2+z
x,-y,1/2+z
1/2+x,1/2+y,1/2+z
1/2-x,1/2-y,1/2+z
1/2+x,1/2-y,-z
1/2-x,1/2+y,-z
1/2-x,1/2-y,1/2-z
1/2+x,1/2+y,1/2-z
1/2-x,1/2+y,z
1/2+x,1/2-y,z
loop_
_atom_site_type_symbol
_atom_site_label
_atom_site_fract_x
_atom_site_fract_y
_atom_site_fract_z
Si Si1 0.190716 0.918807 0.098085
Si Si2 0.938156 0.400512 0.601056
Si Si3 0.935241 0.933014 0.844712
Si Si4 0.314744 0.915219 0.602595
O O1 0.181101 0.754484 0.141486
O O2 0.126635 0.018102 0.101611
O O3 0.250519 0.007045 0.140895
O O4 0.209723 0.892705 0.000000
O O5 0.934681 0.361016 0.500000
O O6 0.940962 0.247461 0.655901
O O7 0.876324 0.491842 0.633788
O O8 0.000000 0.500000 0.622651
O O9 0.927542 0.000000 0.750000
O O10 0.000000 0.000000 0.887765
O O11 0.314360 0.908057 0.500000
#
# Coordination Sequence:
#
# PCOD8293677 Si02
#       4
#    16  16  16  16
#     4  10  19  35  59  84 114 151 192 238 288 344
#     4  10  20  37  63  91 116 147 194 246 291 340
#     4  11  24  40  55  80 117 154 192 236 291 351
#     4   9  18  33  57  89 116 142 184 241 295 336
#
# _framework density 22.300626999999999
#
# number of rings (size 3 to 8) (size 9 to 14) (size 15 to 20)
#    0.000    2.000    0.000    3.750    0.000    8.000 
#    0.000   13.750    0.000    0.000    0.000    0.000 
#    0.000    0.000    0.000    0.000    0.000    0.000 
#
# Total GULP energy -396830.515466 kJ/mol
# GULP energy per Si atom -12400.953608 kJ/mol
# Density = 2.224987 g / cm^3
# Si number density = 22.300627 Si / 1000 Ang^3
#
#
#
# Elastic Constant Matrix: (Units=GPa)
#
#
# Indices 1 2 3 4 5 6 
#
# 1 214.5746 93.6428 1.9460 0.0000 0.0000 0.0000
# 2 93.6428 218.5038 23.6207 0.0000 0.0000 0.0000
# 3 1.9460 23.6207 28.1767 0.0000 0.0000 0.0000
# 4 0.0000 0.0000 0.0000 25.4537 0.0000 0.0000
# 5 0.0000 0.0000 0.0000 0.0000 7.7206 0.0000
# 6 0.0000 0.0000 0.0000 0.0000 0.0000 48.1730
#
#
#
# Elastic Compliance Matrix: (Units=1/GPa)
#
#
# Indices 1 2 3 4 5 6 
#
# 1 0.005820 -0.002695 0.001857 0.000000 0.000000 0.000000
# 2 -0.002695 0.006281 -0.005079 0.000000 0.000000 0.000000
# 3 0.001857 -0.005079 0.039620 0.000000 0.000000 0.000000
# 4 0.000000 0.000000 0.000000 0.039287 0.000000 0.000000
# 5 0.000000 0.000000 0.000000 0.000000 0.129524 0.000000
# 6 0.000000 0.000000 0.000000 0.000000 0.000000 0.020759
#
#
# Mechanical properties :
#
#
# Convention : Reuss Voigt Hill
#
# Bulk Modulus (GPa) = 25.07102 77.74157 51.40630
# Shear Modulus (GPa) = 18.76748 39.07250 28.91999
#
# Velocity S-wave (km/s) = 2.90413 4.19033 3.60505
# Velocity P-wave (km/s) = 4.74468 7.63860 6.35846
#
# Compressibility (1/GPa) = 0.03988669
#
# Stress axis : x y z
#
# Youngs Moduli (GPa) = 171.83328 159.22240 25.23999
#
# Poissons Ratio (x) = 0.42908 -0.04687
# Poissons Ratio (y) = 0.46306 0.12819
# Poissons Ratio (z) = -0.31912 0.80867
#
# Static dielectric constant tensor:
#      x y z
#    x 4.307000 0.000000 0.000000 
#    y 0.000000 4.236400 0.000000 
#    z 0.000000 0.000000 3.371770 
# 
# 
# High freq. dielectric constant tensor:
#      x y z
#    x 1.897830 0.000000 0.000000 
#    y 0.000000 1.895700 0.000000 
#    z 0.000000 0.000000 1.830110 
# 
# From -- ./inp_files/27636.got.cif
#   From: 2010.03.12/outbox.cif.g09.slc.cpg/sg72_14_cif.got.tgz:27636.got - 2010.04.16 14:54:00.
