data_PCOD8293308
_publ_section_title
;
Structure prediction by ZEFSAII (Michael W. Deem and Ramdas Pophale) SiO2 
 PCOD8293308
Probable space group: I B A M
;
_chemical_formula_sum "Si O2"
_cell_formula_units_Z 80
_cell_length_a 26.022425
_cell_length_b 19.399443
_cell_length_c 8.912236
_cell_angle_alpha 90.000000
_cell_angle_beta 90.000000
_cell_angle_gamma 90.000000
_cell_volume 4499.079884
_symmetry_space_group_name_H-M "I B A M"
_symmetry_group_IT_number 72
_symmetry_cell_setting 'orthorhombic'
loop_
_space_group_symop_operation_xyz
x,y,z
-x,-y,z
x,-y,1/2-z
-x,y,1/2-z
-x,-y,-z
x,y,-z
-x,y,1/2+z
x,-y,1/2+z
1/2+x,1/2+y,1/2+z
1/2-x,1/2-y,1/2+z
1/2+x,1/2-y,-z
1/2-x,1/2+y,-z
1/2-x,1/2-y,1/2-z
1/2+x,1/2+y,1/2-z
1/2-x,1/2+y,z
1/2+x,1/2-y,z
loop_
_atom_site_type_symbol
_atom_site_label
_atom_site_fract_x
_atom_site_fract_y
_atom_site_fract_z
Si Si1 0.646384 0.075141 0.178305
Si Si2 0.746230 0.925962 0.824333
Si Si3 0.552500 0.325628 0.822558
Si Si4 0.552224 0.831044 0.676487
Si Si5 0.359315 0.426250 0.675134
O O1 0.599103 0.121975 0.231660
O O2 0.639129 0.000000 0.250000
O O3 0.698564 0.112138 0.241735
O O4 0.649685 0.069286 0.000000
O O5 0.802539 0.892941 0.794996
O O6 0.748700 0.000000 0.750000
O O7 0.733983 0.931695 0.000000
O O8 0.500000 0.353489 0.750000
O O9 0.563157 0.247235 0.771220
O O10 0.599171 0.372336 0.761346
O O11 0.547467 0.330997 0.000000
O O12 0.500000 0.859360 0.750000
O O13 0.545298 0.835513 0.500000
O O14 0.367277 0.500000 0.750000
O O15 0.367173 0.438553 0.500000
#
# Coordination Sequence:
#
# PCOD8293308 Si02
#       5
#    16  16  16  16  16
#     4  10  19  31  48  71  95 121 152 191 232 273
#     4   9  16  28  46  68  93 123 153 185 227 274
#     4   9  18  34  51  68  92 124 157 191 230 274
#     4   9  19  34  51  68  91 123 157 190 230 275
#     4   9  18  31  49  71  96 123 154 191 230 270
#
# _framework density 17.781413000000001
#
# number of rings (size 3 to 8) (size 9 to 14) (size 15 to 20)
#    0.000    2.800    0.000    2.400    0.000    4.000 
#    0.000    5.000    0.000    0.000    0.000    0.000 
#    0.000    0.000    0.000    0.000    0.000    0.000 
#
# Total GULP energy -495740.149624 kJ/mol
# GULP energy per Si atom -12393.503741 kJ/mol
# Density = 1.774094 g / cm^3
# Si number density = 17.781413 Si / 1000 Ang^3
#
#
#
# Elastic Constant Matrix: (Units=GPa)
#
#
# Indices 1 2 3 4 5 6 
#
# 1 202.1966 78.6997 51.8527 0.0000 0.0000 0.0000
# 2 78.6997 67.2016 26.3634 0.0000 0.0000 0.0000
# 3 51.8527 26.3634 52.3723 0.0000 0.0000 0.0000
# 4 0.0000 0.0000 0.0000 18.4432 0.0000 0.0000
# 5 0.0000 0.0000 0.0000 0.0000 32.7431 0.0000
# 6 0.0000 0.0000 0.0000 0.0000 0.0000 17.3640
#
#
#
# Elastic Compliance Matrix: (Units=1/GPa)
#
#
# Indices 1 2 3 4 5 6 
#
# 1 0.010044 -0.009796 -0.005013 0.000000 0.000000 0.000000
# 2 -0.009796 0.028096 -0.004444 0.000000 0.000000 0.000000
# 3 -0.005013 -0.004444 0.026295 0.000000 0.000000 0.000000
# 4 0.000000 0.000000 0.000000 0.054220 0.000000 0.000000
# 5 0.000000 0.000000 0.000000 0.000000 0.030541 0.000000
# 6 0.000000 0.000000 0.000000 0.000000 0.000000 0.057591
#
#
# Mechanical properties :
#
#
# Convention : Reuss Voigt Hill
#
# Bulk Modulus (GPa) = 38.56866 70.62244 54.59555
# Shear Modulus (GPa) = 19.68992 24.70037 22.19515
#
# Velocity S-wave (km/s) = 3.33127 3.73112 3.53685
# Velocity P-wave (km/s) = 6.04434 7.63969 6.88836
#
# Compressibility (1/GPa) = 0.02592778
#
# Stress axis : x y z
#
# Youngs Moduli (GPa) = 99.56045 35.59204 38.03015
#
# Poissons Ratio (x) = 0.34866 0.19066
# Poissons Ratio (y) = 0.97529 0.16902
# Poissons Ratio (z) = 0.49913 0.15819
#
# Static dielectric constant tensor:
#      x y z
#    x 4.125430 0.000000 0.000000 
#    y 0.000000 3.117240 0.000000 
#    z 0.000000 0.000000 3.272680 
# 
# 
# High freq. dielectric constant tensor:
#      x y z
#    x 1.710110 0.000000 0.000000 
#    y 0.000000 1.652470 0.000000 
#    z 0.000000 0.000000 1.688680 
# 
# From -- ./inp_files/12754.got.cif
#   From: 2010.03.12/outbox.cif.g09.slc.cpg/sg72_7_cif.got.tgz:12754.got - 2010.04.16 14:54:00.
