data_PCOD8293251
_publ_section_title
;
Structure prediction by ZEFSAII (Michael W. Deem and Ramdas Pophale) SiO2 
 PCOD8293251
Probable space group: I B A M
;
_chemical_formula_sum "Si O2"
_cell_formula_units_Z 88
_cell_length_a 20.824574
_cell_length_b 8.855251
_cell_length_c 21.828241
_cell_angle_alpha 90.000000
_cell_angle_beta 90.000000
_cell_angle_gamma 90.000000
_cell_volume 4025.276722
_symmetry_space_group_name_H-M "I B A M"
_symmetry_group_IT_number 72
_symmetry_cell_setting 'orthorhombic'
loop_
_space_group_symop_operation_xyz
x,y,z
-x,-y,z
x,-y,1/2-z
-x,y,1/2-z
-x,-y,-z
x,y,-z
-x,y,1/2+z
x,-y,1/2+z
1/2+x,1/2+y,1/2+z
1/2-x,1/2-y,1/2+z
1/2+x,1/2-y,-z
1/2-x,1/2+y,-z
1/2-x,1/2-y,1/2-z
1/2+x,1/2+y,1/2-z
1/2-x,1/2+y,z
1/2+x,1/2-y,z
loop_
_atom_site_type_symbol
_atom_site_label
_atom_site_fract_x
_atom_site_fract_y
_atom_site_fract_z
Si Si1 0.101464 0.295813 0.500000
Si Si2 0.690387 0.054647 0.000000
Si Si3 0.439425 0.893472 0.633317
Si Si4 0.185360 0.082991 0.131029
Si Si5 0.669180 0.503646 0.500000
Si Si6 0.562634 0.429848 0.682676
Si Si7 0.179946 0.414190 0.866721
O O1 0.171529 0.375428 0.500000
O O2 0.063667 0.342376 0.438074
O O3 0.110613 0.115214 0.500000
O O4 0.765346 0.091410 0.000000
O O5 0.661692 0.121140 0.062438
O O6 0.444854 0.750487 0.678656
O O7 0.500000 0.000000 0.642656
O O8 0.377497 0.984159 0.659014
O O9 0.184096 0.247363 0.164298
O O10 0.170460 0.109732 0.059304
O O11 0.130394 0.971911 0.153599
O O12 0.253625 0.003614 0.142626
O O13 0.500000 0.500000 0.648057
O O14 0.562713 0.500000 0.750000
#
# Coordination Sequence:
#
# PCOD8293251 Si02
#       7
#     8   8  16  16   8  16  16
#     4  10  19  36  56  99 132 176 214 263 317 396
#     4   8  19  27  53  85 134 167 214 239 305 381
#     4  11  22  42  66  95 135 173 215 270 328 393
#     4  11  21  38  61  93 130 166 218 265 321 385
#     4  10  19  29  59  88 131 172 207 254 319 372
#     4  11  25  46  67  89 120 164 216 270 325 393
#     4  10  21  35  61  94 127 171 211 262 322 383
#
# _framework density 21.86185
#
# number of rings (size 3 to 8) (size 9 to 14) (size 15 to 20)
#    0.000    1.636    1.818    3.000   12.727    0.000 
#    0.000   13.636    0.000    0.000    0.000    0.000 
#    0.000    0.000    0.000    0.000    0.000    0.000 
#
# Total GULP energy -545115.871282 kJ/mol
# GULP energy per Si atom -12388.997075 kJ/mol
# Density = 2.181209 g / cm^3
# Si number density = 21.861850 Si / 1000 Ang^3
#
#
#
# Elastic Constant Matrix: (Units=GPa)
#
#
# Indices 1 2 3 4 5 6 
#
# 1 171.7720 82.1552 25.1227 0.0000 0.0000 0.0000
# 2 82.1552 193.6821 25.4549 0.0000 0.0000 0.0000
# 3 25.1227 25.4549 50.2317 0.0000 0.0000 0.0000
# 4 0.0000 0.0000 0.0000 22.0437 0.0000 0.0000
# 5 0.0000 0.0000 0.0000 0.0000 32.7971 0.0000
# 6 0.0000 0.0000 0.0000 0.0000 0.0000 43.8766
#
#
#
# Elastic Compliance Matrix: (Units=1/GPa)
#
#
# Indices 1 2 3 4 5 6 
#
# 1 0.007545 -0.002897 -0.002305 0.000000 0.000000 0.000000
# 2 -0.002897 0.006644 -0.001918 0.000000 0.000000 0.000000
# 3 -0.002305 -0.001918 0.022033 0.000000 0.000000 0.000000
# 4 0.000000 0.000000 0.000000 0.045364 0.000000 0.000000
# 5 0.000000 0.000000 0.000000 0.000000 0.030491 0.000000
# 6 0.000000 0.000000 0.000000 0.000000 0.000000 0.022791
#
#
# Mechanical properties :
#
#
# Convention : Reuss Voigt Hill
#
# Bulk Modulus (GPa) = 45.49456 75.68349 60.58903
# Shear Modulus (GPa) = 31.96222 38.60698 35.28460
#
# Velocity S-wave (km/s) = 3.82777 4.20688 4.02180
# Velocity P-wave (km/s) = 6.35539 7.63487 7.02432
#
# Compressibility (1/GPa) = 0.02198065
#
# Stress axis : x y z
#
# Youngs Moduli (GPa) = 132.54686 150.50946 45.38748
#
# Poissons Ratio (x) = 0.43606 0.10462
# Poissons Ratio (y) = 0.38402 0.08705
# Poissons Ratio (z) = 0.30553 0.28866
#
# Static dielectric constant tensor:
#      x y z
#    x 4.204070 0.000000 0.000000 
#    y 0.000000 3.955950 0.000000 
#    z 0.000000 0.000000 3.806990 
# 
# 
# High freq. dielectric constant tensor:
#      x y z
#    x 1.858930 0.000000 0.000000 
#    y 0.000000 1.875870 0.000000 
#    z 0.000000 0.000000 1.824130 
# 
# From -- ./inp_files/42326.got.cif
#   From: 2010.03.12/outbox.cif.g09.slc.cpg/sg72_22_cif.got.tgz:42326.got - 2010.04.16 14:54:00.
