data_PCOD8293835
_publ_section_title
;
Structure prediction by ZEFSAII (Michael W. Deem and Ramdas Pophale) SiO2 
 PCOD8293835
Probable space group: I B A M
;
_chemical_formula_sum "Si O2"
_cell_formula_units_Z 112
_cell_length_a 26.882225
_cell_length_b 16.666771
_cell_length_c 14.470282
_cell_angle_alpha 90.000000
_cell_angle_beta 90.000000
_cell_angle_gamma 90.000000
_cell_volume 6483.263527
_symmetry_space_group_name_H-M "I B A M"
_symmetry_group_IT_number 72
_symmetry_cell_setting 'orthorhombic'
loop_
_space_group_symop_operation_xyz
x,y,z
-x,-y,z
x,-y,1/2-z
-x,y,1/2-z
-x,-y,-z
x,y,-z
-x,y,1/2+z
x,-y,1/2+z
1/2+x,1/2+y,1/2+z
1/2-x,1/2-y,1/2+z
1/2+x,1/2-y,-z
1/2-x,1/2+y,-z
1/2-x,1/2-y,1/2-z
1/2+x,1/2+y,1/2-z
1/2-x,1/2+y,z
1/2+x,1/2-y,z
loop_
_atom_site_type_symbol
_atom_site_label
_atom_site_fract_x
_atom_site_fract_y
_atom_site_fract_z
Si Si1 0.704964 0.298094 0.393744
Si Si2 0.874018 0.670407 0.397041
Si Si3 0.192276 0.220073 0.894886
Si Si4 0.795756 0.082389 0.731079
Si Si5 0.795592 0.530059 0.605101
Si Si6 0.443016 0.095180 0.252627
Si Si7 0.361565 0.880646 0.891931
O O1 0.705774 0.328563 0.500000
O O2 0.652800 0.254492 0.368741
O O3 0.748795 0.232784 0.380288
O O4 0.715634 0.374531 0.328927
O O5 0.896480 0.678928 0.500000
O O6 0.832525 0.603491 0.395520
O O7 0.918342 0.644196 0.330837
O O8 0.174593 0.144740 0.833414
O O9 0.164178 0.298659 0.860269
O O10 0.179011 0.199993 0.000000
O O11 0.747577 0.049187 0.677040
O O12 0.827166 0.000000 0.750000
O O13 0.775240 0.515936 0.500000
O O14 0.825774 0.452259 0.641947
O O15 0.500000 0.122473 0.250000
O O16 0.416040 0.119391 0.347236
O O17 0.437835 0.000000 0.250000
O O18 0.370117 0.887073 0.000000
#
# Coordination Sequence:
#
# PCOD8293835 Si02
#       7
#    16  16  16  16  16  16  16
#     4  10  21  35  50  73 101 134 175 215 253 302
#     4  10  20  36  55  70  99 139 176 216 255 300
#     4  10  20  34  50  72 100 130 171 217 256 298
#     4  12  23  30  49  72 101 140 167 211 256 302
#     4  10  20  33  49  72  98 133 180 215 245 297
#     4  11  23  34  50  76 106 137 178 224 260 300
#     4  10  21  36  55  74 102 141 180 220 255 301
#
# _framework density 17.275251000000001
#
# number of rings (size 3 to 8) (size 9 to 14) (size 15 to 20)
#    0.000    1.571    2.857    2.571    4.000    2.857 
#    0.000    1.429    0.000    0.000    0.000    0.000 
#    0.000    9.143    0.000   25.143    0.000    0.000 
#
# Total GULP energy -694116.224609 kJ/mol
# GULP energy per Si atom -12394.932582 kJ/mol
# Density = 1.723593 g / cm^3
# Si number density = 17.275251 Si / 1000 Ang^3
#
#
#
# Elastic Constant Matrix: (Units=GPa)
#
#
# Indices 1 2 3 4 5 6 
#
# 1 85.4807 33.9514 41.3017 0.0000 0.0000 0.0000
# 2 33.9514 112.4109 51.9007 0.0000 0.0000 0.0000
# 3 41.3017 51.9007 88.8273 0.0000 0.0000 0.0000
# 4 0.0000 0.0000 0.0000 31.1647 0.0000 0.0000
# 5 0.0000 0.0000 0.0000 0.0000 13.4472 0.0000
# 6 0.0000 0.0000 0.0000 0.0000 0.0000 15.3545
#
#
#
# Elastic Compliance Matrix: (Units=1/GPa)
#
#
# Indices 1 2 3 4 5 6 
#
# 1 0.015360 -0.001837 -0.006068 0.000000 0.000000 0.000000
# 2 -0.001837 0.012402 -0.006392 0.000000 0.000000 0.000000
# 3 -0.006068 -0.006392 0.017814 0.000000 0.000000 0.000000
# 4 0.000000 0.000000 0.000000 0.032088 0.000000 0.000000
# 5 0.000000 0.000000 0.000000 0.000000 0.074365 0.000000
# 6 0.000000 0.000000 0.000000 0.000000 0.000000 0.065128
#
#
# Mechanical properties :
#
#
# Convention : Reuss Voigt Hill
#
# Bulk Modulus (GPa) = 58.88994 60.11406 59.50200
# Shear Modulus (GPa) = 19.88757 22.63095 21.25926
#
# Velocity S-wave (km/s) = 3.39664 3.62335 3.51182
# Velocity P-wave (km/s) = 7.03890 7.23728 7.13878
#
# Compressibility (1/GPa) = 0.01698083
#
# Stress axis : x y z
#
# Youngs Moduli (GPa) = 65.10222 80.63114 56.13480
#
# Poissons Ratio (x) = 0.14816 0.34065
# Poissons Ratio (y) = 0.11962 0.35882
# Poissons Ratio (z) = 0.39507 0.51540
#
# Static dielectric constant tensor:
#      x y z
#    x 2.897530 0.000000 0.000000 
#    y 0.000000 3.444100 0.000000 
#    z 0.000000 0.000000 3.930130 
# 
# 
# High freq. dielectric constant tensor:
#      x y z
#    x 1.605260 0.000000 0.000000 
#    y 0.000000 1.669670 0.000000 
#    z 0.000000 0.000000 1.691830 
# 
# From -- ./inp_files/25977.got.cif
#   From: 2010.03.12/outbox.cif.g09.slc.cpg/sg72_13_cif.got.tgz:25977.got - 2010.04.16 14:54:00.
