data_PCOD8293337
_publ_section_title
;
Structure prediction by ZEFSAII (Michael W. Deem and Ramdas Pophale) SiO2 
 PCOD8293337
Probable space group: I B A M
;
_chemical_formula_sum "Si O2"
_cell_formula_units_Z 112
_cell_length_a 27.737637
_cell_length_b 14.599892
_cell_length_c 15.334967
_cell_angle_alpha 90.000000
_cell_angle_beta 90.000000
_cell_angle_gamma 90.000000
_cell_volume 6210.147983
_symmetry_space_group_name_H-M "I B A M"
_symmetry_group_IT_number 72
_symmetry_cell_setting 'orthorhombic'
loop_
_space_group_symop_operation_xyz
x,y,z
-x,-y,z
x,-y,1/2-z
-x,y,1/2-z
-x,-y,-z
x,y,-z
-x,y,1/2+z
x,-y,1/2+z
1/2+x,1/2+y,1/2+z
1/2-x,1/2-y,1/2+z
1/2+x,1/2-y,-z
1/2-x,1/2+y,-z
1/2-x,1/2-y,1/2-z
1/2+x,1/2+y,1/2-z
1/2-x,1/2+y,z
1/2+x,1/2-y,z
loop_
_atom_site_type_symbol
_atom_site_label
_atom_site_fract_x
_atom_site_fract_y
_atom_site_fract_z
Si Si1 0.943970 0.889942 0.000000
Si Si2 0.785784 0.480711 0.596074
Si Si3 0.211472 0.721458 0.603936
Si Si4 0.315156 0.511673 0.347818
Si Si5 0.879649 0.820862 0.348135
Si Si6 0.307336 0.175115 0.895867
Si Si7 0.442932 0.605696 0.500000
Si Si8 0.620932 0.658069 0.348571
O O1 0.923205 0.835788 0.915876
O O2 0.000629 0.876464 0.000000
O O3 0.930599 0.997805 0.000000
O O4 0.807932 0.470338 0.500000
O O5 0.791204 0.382294 0.644170
O O6 0.728959 0.505084 0.587303
O O7 0.809881 0.570129 0.641126
O O8 0.213786 0.718050 0.500000
O O9 0.259055 0.773615 0.640369
O O10 0.162775 0.768688 0.635773
O O11 0.295299 0.500000 0.250000
O O12 0.334759 0.612644 0.365594
O O13 0.358304 0.442426 0.365694
O O14 0.857044 0.720769 0.363949
O O15 0.922515 0.844409 0.414099
O O16 0.899456 0.830741 0.249462
O O17 0.304809 0.173957 0.000000
#
# Coordination Sequence:
#
# PCOD8293337 Si02
#       8
#     8  16  16  16  16  16   8  16
#     4  11  24  40  61  83 109 143 177 226 285 333
#     4  10  20  30  48  78 113 152 192 229 256 306
#     4  10  19  31  51  78 112 153 190 224 265 317
#     4  10  20  30  46  75 112 147 182 224 262 311
#     4  11  22  36  56  81 110 149 189 223 267 326
#     4  10  19  31  51  78 112 153 190 224 265 317
#     4  11  24  40  61  83 109 143 177 226 285 333
#     4  11  22  36  56  81 110 149 189 223 267 326
#
# _framework density 18.034996
#
# number of rings (size 3 to 8) (size 9 to 14) (size 15 to 20)
#    0.000    1.571    5.714    0.000    2.000    2.286 
#    0.000    1.429    0.000    0.000    0.000    2.000 
#    0.000    2.286    0.000    0.000    0.000    0.000 
#
# Total GULP energy -694099.353411 kJ/mol
# GULP energy per Si atom -12394.631311 kJ/mol
# Density = 1.799395 g / cm^3
# Si number density = 18.034996 Si / 1000 Ang^3
#
#
#
# Elastic Constant Matrix: (Units=GPa)
#
#
# Indices 1 2 3 4 5 6 
#
# 1 84.5981 30.9866 42.3669 0.0000 0.0000 0.0000
# 2 30.9866 109.2058 27.8702 0.0000 0.0000 0.0000
# 3 42.3669 27.8702 70.7696 0.0000 0.0000 0.0000
# 4 0.0000 0.0000 0.0000 14.2021 0.0000 0.0000
# 5 0.0000 0.0000 0.0000 0.0000 10.3538 0.0000
# 6 0.0000 0.0000 0.0000 0.0000 0.0000 17.9424
#
#
#
# Elastic Compliance Matrix: (Units=1/GPa)
#
#
# Indices 1 2 3 4 5 6 
#
# 1 0.017497 -0.002547 -0.009472 0.000000 0.000000 0.000000
# 2 -0.002547 0.010551 -0.002630 0.000000 0.000000 0.000000
# 3 -0.009472 -0.002630 0.020836 0.000000 0.000000 0.000000
# 4 0.000000 0.000000 0.000000 0.070412 0.000000 0.000000
# 5 0.000000 0.000000 0.000000 0.000000 0.096583 0.000000
# 6 0.000000 0.000000 0.000000 0.000000 0.000000 0.055734
#
#
# Mechanical properties :
#
#
# Convention : Reuss Voigt Hill
#
# Bulk Modulus (GPa) = 51.05626 51.89122 51.47374
# Shear Modulus (GPa) = 16.26330 19.38963 17.82647
#
# Velocity S-wave (km/s) = 3.00620 3.28245 3.14735
# Velocity P-wave (km/s) = 6.35772 6.57274 6.46612
#
# Compressibility (1/GPa) = 0.01958624
#
# Stress axis : x y z
#
# Youngs Moduli (GPa) = 57.15250 94.77693 47.99303
#
# Poissons Ratio (x) = 0.24144 0.45457
# Poissons Ratio (y) = 0.14560 0.12623
# Poissons Ratio (z) = 0.54132 0.24927
#
# Static dielectric constant tensor:
#      x y z
#    x 2.914760 0.000000 0.000000 
#    y 0.000000 3.573230 0.000000 
#    z 0.000000 0.000000 3.330780 
# 
# 
# High freq. dielectric constant tensor:
#      x y z
#    x 1.649960 0.000000 0.000000 
#    y 0.000000 1.700810 0.000000 
#    z 0.000000 0.000000 1.699950 
# 
# From -- ./inp_files/22272.got.cif
#   From: 2010.03.12/outbox.cif.g09.slc.cpg/sg72_12_cif.got.tgz:22272.got - 2010.04.16 14:54:00.
