data_PCOD8293997
_publ_section_title
;
Structure prediction by ZEFSAII (Michael W. Deem and Ramdas Pophale) SiO2 
 PCOD8293997
Probable space group: I B A M
;
_chemical_formula_sum "Si O2"
_cell_formula_units_Z 96
_cell_length_a 11.668869
_cell_length_b 22.743629
_cell_length_c 18.098598
_cell_angle_alpha 90.000000
_cell_angle_beta 90.000000
_cell_angle_gamma 90.000000
_cell_volume 4803.230855
_symmetry_space_group_name_H-M "I B A M"
_symmetry_group_IT_number 72
_symmetry_cell_setting 'orthorhombic'
loop_
_space_group_symop_operation_xyz
x,y,z
-x,-y,z
x,-y,1/2-z
-x,y,1/2-z
-x,-y,-z
x,y,-z
-x,y,1/2+z
x,-y,1/2+z
1/2+x,1/2+y,1/2+z
1/2-x,1/2-y,1/2+z
1/2+x,1/2-y,-z
1/2-x,1/2+y,-z
1/2-x,1/2-y,1/2-z
1/2+x,1/2+y,1/2-z
1/2-x,1/2+y,z
1/2+x,1/2-y,z
loop_
_atom_site_type_symbol
_atom_site_label
_atom_site_fract_x
_atom_site_fract_y
_atom_site_fract_z
Si Si1 0.366363 0.726869 0.084700
Si Si2 0.452090 0.434754 0.324186
Si Si3 0.999267 0.433836 0.337906
Si Si4 0.189958 0.343220 0.833371
Si Si5 0.273681 0.871811 0.667521
Si Si6 0.578633 0.350091 0.417681
O O1 0.363925 0.783463 0.136368
O O2 0.279023 0.677194 0.113755
O O3 0.498528 0.707103 0.088973
O O4 0.331288 0.741445 0.000000
O O5 0.500000 0.500000 0.323974
O O6 0.500000 0.402840 0.250000
O O7 0.314472 0.426831 0.322181
O O8 0.499851 0.405602 0.398289
O O9 0.885688 0.398272 0.362766
O O10 0.000000 0.500000 0.371258
O O11 0.000000 0.437332 0.250000
O O12 0.111349 0.399332 0.367613
O O13 0.194162 0.341083 0.744895
O O14 0.318361 0.347900 0.861308
O O15 0.627080 0.357408 0.500000
#
# Coordination Sequence:
#
# PCOD8293997 Si02
#       6
#    16  16  16  16  16  16
#     4  10  23  40  60  86 120 160 201 252 311 360
#     4  10  20  34  61  90 118 157 201 248 301 353
#     4   9  21  37  61  91 122 157 196 246 308 362
#     4  11  21  38  63  90 120 160 202 248 304 369
#     4  10  21  39  61  92 123 154 203 255 299 362
#     4  10  22  39  58  87 121 156 201 251 302 359
#
# _framework density 19.986547000000002
#
# number of rings (size 3 to 8) (size 9 to 14) (size 15 to 20)
#    0.000    2.000    1.667    1.000    4.667    1.667 
#    3.000    0.833    0.000    2.500    0.000    0.000 
#    0.000    0.000    0.000    0.000    0.000    0.000 
#
# Total GULP energy -595049.760769 kJ/mol
# GULP energy per Si atom -12396.870016 kJ/mol
# Density = 1.994106 g / cm^3
# Si number density = 19.986547 Si / 1000 Ang^3
#
#
#
# Elastic Constant Matrix: (Units=GPa)
#
#
# Indices 1 2 3 4 5 6 
#
# 1 113.2126 43.5789 31.3391 0.0000 0.0000 0.0000
# 2 43.5789 124.0639 39.0663 0.0000 0.0000 0.0000
# 3 31.3391 39.0663 68.5668 0.0001 0.0001 -0.0001
# 4 0.0000 0.0000 0.0001 11.0197 0.0000 0.0000
# 5 0.0000 0.0000 0.0001 0.0000 13.2070 0.0000
# 6 0.0000 0.0000 -0.0001 0.0000 0.0000 27.3722
#
#
#
# Elastic Compliance Matrix: (Units=1/GPa)
#
#
# Indices 1 2 3 4 5 6 
#
# 1 0.010824 -0.002735 -0.003389 0.000000 0.000000 0.000000
# 2 -0.002735 0.010514 -0.004740 0.000000 0.000000 0.000000
# 3 -0.003389 -0.004740 0.018834 0.000000 0.000000 0.000000
# 4 0.000000 0.000000 0.000000 0.090747 0.000000 0.000000
# 5 0.000000 0.000000 0.000000 0.000000 0.075718 0.000000
# 6 0.000000 0.000000 0.000000 0.000000 0.000000 0.036533
#
#
# Mechanical properties :
#
#
# Convention : Reuss Voigt Hill
#
# Bulk Modulus (GPa) = 54.21969 59.31241 56.76605
# Shear Modulus (GPa) = 18.44714 23.11039 20.77877
#
# Velocity S-wave (km/s) = 3.04135 3.40413 3.22784
# Velocity P-wave (km/s) = 6.28650 6.72245 6.50813
#
# Compressibility (1/GPa) = 0.01844348
#
# Stress axis : x y z
#
# Youngs Moduli (GPa) = 92.38932 95.11445 53.09545
#
# Poissons Ratio (x) = 0.26012 0.17994
# Poissons Ratio (y) = 0.25267 0.25168
# Poissons Ratio (z) = 0.31310 0.45086
#
# Static dielectric constant tensor:
#      x y z
#    x 3.794310 0.000000 0.000000 
#    y 0.000000 3.667580 0.000000 
#    z 0.000000 0.000000 3.630060 
# 
# 
# High freq. dielectric constant tensor:
#      x y z
#    x 1.793330 0.000000 0.000000 
#    y 0.000000 1.775920 0.000000 
#    z 0.000000 0.000000 1.761220 
# 
# From -- ./inp_files/37090.got.cif
#   From: 2010.03.12/outbox.cif.g09.slc.cpg/sg72_19_cif.got.tgz:37090.got - 2010.04.16 14:54:00.
