data_PCOD8293548
_publ_section_title
;
Structure prediction by ZEFSAII (Michael W. Deem and Ramdas Pophale) SiO2 
 PCOD8293548
Probable space group: I B A M
;
_chemical_formula_sum "Si O2"
_cell_formula_units_Z 80
_cell_length_a 8.772674
_cell_length_b 24.764869
_cell_length_c 18.289542
_cell_angle_alpha 90.000000
_cell_angle_beta 90.000000
_cell_angle_gamma 90.000000
_cell_volume 3973.478396
_symmetry_space_group_name_H-M "I B A M"
_symmetry_group_IT_number 72
_symmetry_cell_setting 'orthorhombic'
loop_
_space_group_symop_operation_xyz
x,y,z
-x,-y,z
x,-y,1/2-z
-x,y,1/2-z
-x,-y,-z
x,y,-z
-x,y,1/2+z
x,-y,1/2+z
1/2+x,1/2+y,1/2+z
1/2-x,1/2-y,1/2+z
1/2+x,1/2-y,-z
1/2-x,1/2+y,-z
1/2-x,1/2-y,1/2-z
1/2+x,1/2+y,1/2-z
1/2-x,1/2+y,z
1/2+x,1/2-y,z
loop_
_atom_site_type_symbol
_atom_site_label
_atom_site_fract_x
_atom_site_fract_y
_atom_site_fract_z
Si Si1 0.951156 0.124045 0.666088
Si Si2 0.247947 0.917249 0.086331
Si Si3 0.268901 0.287232 0.586541
Si Si4 0.438347 0.818510 0.914461
Si Si5 0.822662 0.985198 0.171489
O O1 0.891635 0.178935 0.631673
O O2 0.000000 0.131914 0.750000
O O3 0.093925 0.105449 0.619411
O O4 0.815119 0.079208 0.658076
O O5 0.385245 0.877824 0.112981
O O6 0.272650 0.979278 0.112683
O O7 0.233548 0.916862 0.000000
O O8 0.285889 0.299228 0.500000
O O9 0.306467 0.224824 0.604513
O O10 0.101487 0.300989 0.618648
O O11 0.463883 0.820145 0.000000
O O12 0.752401 0.000000 0.250000
O O13 0.000000 0.000000 0.169277
#
# Coordination Sequence:
#
# PCOD8293548 Si02
#       5
#    16  16  16  16  16
#     4  11  20  34  56  83 117 155 188 238 283 340
#     4  10  19  33  59  86 110 146 197 240 281 341
#     4  10  20  36  59  83 116 154 191 235 291 346
#     4   9  19  37  58  85 116 148 189 244 292 337
#     4   9  16  33  54  77 112 150 181 232 289 327
#
# _framework density 20.133492
#
# number of rings (size 3 to 8) (size 9 to 14) (size 15 to 20)
#    0.000    2.200    4.000    1.800    0.000    7.600 
#    0.000    6.000    0.000    4.800    0.000    0.000 
#    0.000    0.000    0.000    0.000    0.000    0.000 
#
# Total GULP energy -495713.703448 kJ/mol
# GULP energy per Si atom -12392.842586 kJ/mol
# Density = 2.008767 g / cm^3
# Si number density = 20.133492 Si / 1000 Ang^3
#
#
#
# Elastic Constant Matrix: (Units=GPa)
#
#
# Indices 1 2 3 4 5 6 
#
# 1 65.1020 18.5824 24.3507 0.0000 0.0000 0.0000
# 2 18.5824 82.0307 40.0702 0.0000 0.0000 0.0000
# 3 24.3507 40.0702 83.9000 0.0003 -0.0001 0.0000
# 4 0.0000 0.0000 0.0003 20.8171 0.0000 0.0000
# 5 0.0000 0.0000 -0.0001 0.0000 9.3844 0.0000
# 6 0.0000 0.0000 0.0000 0.0000 0.0000 30.5258
#
#
#
# Elastic Compliance Matrix: (Units=1/GPa)
#
#
# Indices 1 2 3 4 5 6 
#
# 1 0.017462 -0.001930 -0.004146 0.000000 0.000000 0.000000
# 2 -0.001930 0.016113 -0.007135 0.000000 0.000000 0.000000
# 3 -0.004146 -0.007135 0.016530 0.000000 0.000000 0.000000
# 4 0.000000 0.000000 0.000000 0.048037 0.000000 0.000000
# 5 0.000000 0.000000 0.000000 0.000000 0.106560 0.000000
# 6 0.000000 0.000000 0.000000 0.000000 0.000000 0.032759
#
#
# Mechanical properties :
#
#
# Convention : Reuss Voigt Hill
#
# Bulk Modulus (GPa) = 42.22648 44.11549 43.17098
# Shear Modulus (GPa) = 18.39721 22.01409 20.20565
#
# Velocity S-wave (km/s) = 3.02613 3.31026 3.17138
# Velocity P-wave (km/s) = 5.76444 6.04727 5.90755
#
# Compressibility (1/GPa) = 0.02368182
#
# Stress axis : x y z
#
# Youngs Moduli (GPa) = 57.26594 62.06046 60.49554
#
# Poissons Ratio (x) = 0.11980 0.25083
# Poissons Ratio (y) = 0.11055 0.43166
# Poissons Ratio (z) = 0.23744 0.44282
#
# Static dielectric constant tensor:
#      x y z
#    x 3.512100 0.000000 0.000000 
#    y 0.000000 4.294200 0.000000 
#    z 0.000000 0.000000 3.564780 
# 
# 
# High freq. dielectric constant tensor:
#      x y z
#    x 1.759060 0.000000 0.000000 
#    y 0.000000 1.799290 0.000000 
#    z 0.000000 0.000000 1.765590 
# 
# From -- ./inp_files/28137.got.cif
#   From: 2010.03.12/outbox.cif.g09.slc.cpg/sg72_15_cif.got.tgz:28137.got - 2010.04.16 14:54:00.
