data_PCOD8293725
_publ_section_title
;
Structure prediction by ZEFSAII (Michael W. Deem and Ramdas Pophale) SiO2 
 PCOD8293725
Probable space group: I B A M
;
_chemical_formula_sum "Si O2"
_cell_formula_units_Z 96
_cell_length_a 9.134159
_cell_length_b 18.959101
_cell_length_c 25.334798
_cell_angle_alpha 90.000000
_cell_angle_beta 90.000000
_cell_angle_gamma 90.000000
_cell_volume 4387.364868
_symmetry_space_group_name_H-M "I B A M"
_symmetry_group_IT_number 72
_symmetry_cell_setting 'orthorhombic'
loop_
_space_group_symop_operation_xyz
x,y,z
-x,-y,z
x,-y,1/2-z
-x,y,1/2-z
-x,-y,-z
x,y,-z
-x,y,1/2+z
x,-y,1/2+z
1/2+x,1/2+y,1/2+z
1/2-x,1/2-y,1/2+z
1/2+x,1/2-y,-z
1/2-x,1/2+y,-z
1/2-x,1/2-y,1/2-z
1/2+x,1/2+y,1/2-z
1/2-x,1/2+y,z
1/2+x,1/2-y,z
loop_
_atom_site_type_symbol
_atom_site_label
_atom_site_fract_x
_atom_site_fract_y
_atom_site_fract_z
Si Si1 0.350803 0.060763 0.717238
Si Si2 0.790497 0.209116 0.802300
Si Si3 0.986674 0.664945 0.940797
Si Si4 0.567713 0.710348 0.631027
Si Si5 0.355689 0.033058 0.598515
Si Si6 0.800745 0.906093 0.060386
O O1 0.500000 0.077423 0.750000
O O2 0.259505 0.130273 0.708581
O O3 0.377806 0.026151 0.660760
O O4 0.263635 0.000000 0.750000
O O5 0.750000 0.250000 0.750000
O O6 0.714695 0.251206 0.849865
O O7 0.961408 0.202848 0.818001
O O8 0.004124 0.738541 0.911539
O O9 0.854340 0.615718 0.917894
O O10 0.141359 0.627257 0.935181
O O11 0.943704 0.683180 0.000000
O O12 0.595582 0.635229 0.602054
O O13 0.500000 0.000000 0.570781
O O14 0.213732 0.988792 0.578106
O O15 0.860437 0.901769 0.000000
#
# Coordination Sequence:
#
# PCOD8293725 Si02
#       6
#    16  16  16  16  16  16
#     4  11  22  39  68  99 129 174 230 286 338 400
#     4  12  27  43  68  98 132 178 223 284 348 412
#     4  10  20  37  65  98 133 177 228 279 334 404
#     4  12  23  44  67  97 138 175 224 280 343 414
#     4  10  19  36  63  97 133 171 223 280 337 401
#     4  10  22  39  66 100 136 176 222 280 339 404
#
# _framework density 21.881015000000001
#
# number of rings (size 3 to 8) (size 9 to 14) (size 15 to 20)
#    0.000    1.167    5.000    2.500    2.333    2.000 
#    0.000    0.833    0.000    1.000    0.000    0.000 
#    0.000    0.000    0.000    0.000    0.000    0.000 
#
# Total GULP energy -594768.180350 kJ/mol
# GULP energy per Si atom -12391.003757 kJ/mol
# Density = 2.183121 g / cm^3
# Si number density = 21.881015 Si / 1000 Ang^3
#
#
#
# Elastic Constant Matrix: (Units=GPa)
#
#
# Indices 1 2 3 4 5 6 
#
# 1 56.9009 35.6340 29.2186 0.0000 0.0000 0.0000
# 2 35.6340 122.2041 45.1244 0.0000 0.0000 0.0000
# 3 29.2186 45.1244 130.9093 0.0000 0.0000 0.0000
# 4 0.0000 0.0000 0.0000 32.4306 0.0000 0.0000
# 5 0.0000 0.0000 0.0000 0.0000 28.0483 0.0000
# 6 0.0000 0.0000 0.0000 0.0000 0.0000 31.1983
#
#
#
# Elastic Compliance Matrix: (Units=1/GPa)
#
#
# Indices 1 2 3 4 5 6 
#
# 1 0.022598 -0.005416 -0.003177 0.000000 0.000000 0.000000
# 2 -0.005416 0.010675 -0.002471 0.000000 0.000000 0.000000
# 3 -0.003177 -0.002471 0.009200 0.000000 0.000000 0.000000
# 4 0.000000 0.000000 0.000000 0.030835 0.000000 0.000000
# 5 0.000000 0.000000 0.000000 0.000000 0.035653 0.000000
# 6 0.000000 0.000000 0.000000 0.000000 0.000000 0.032053
#
#
# Mechanical properties :
#
#
# Convention : Reuss Voigt Hill
#
# Bulk Modulus (GPa) = 49.15343 58.88536 54.01940
# Shear Modulus (GPa) = 29.42534 31.67126 30.54830
#
# Velocity S-wave (km/s) = 3.67111 3.80864 3.74051
# Velocity P-wave (km/s) = 6.36256 6.80522 6.58761
#
# Compressibility (1/GPa) = 0.02034446
#
# Stress axis : x y z
#
# Youngs Moduli (GPa) = 44.25251 93.67946 108.70100
#
# Poissons Ratio (x) = 0.50740 0.34531
# Poissons Ratio (y) = 0.23969 0.26856
# Poissons Ratio (z) = 0.14058 0.23145
#
# Static dielectric constant tensor:
#      x y z
#    x 3.580240 0.000000 0.000000 
#    y 0.000000 4.198440 0.000000 
#    z 0.000000 0.000000 4.242030 
# 
# 
# High freq. dielectric constant tensor:
#      x y z
#    x 1.817490 0.000000 0.000000 
#    y 0.000000 1.871000 0.000000 
#    z 0.000000 0.000000 1.876090 
# 
# From -- ./inp_files/47338.got.cif
#   From: 2010.03.12/outbox.cif.g09.slc.cpg/sg72_24_cif.got.tgz:47338.got - 2010.04.16 14:54:00.
