data_PCOD8293329
_publ_section_title
;
Structure prediction by ZEFSAII (Michael W. Deem and Ramdas Pophale) SiO2 
 PCOD8293329
Probable space group: I B A M
;
_chemical_formula_sum "Si O2"
_cell_formula_units_Z 80
_cell_length_a 25.894449
_cell_length_b 18.549626
_cell_length_c 9.185305
_cell_angle_alpha 90.000000
_cell_angle_beta 90.000000
_cell_angle_gamma 90.000000
_cell_volume 4411.999085
_symmetry_space_group_name_H-M "I B A M"
_symmetry_group_IT_number 72
_symmetry_cell_setting 'orthorhombic'
loop_
_space_group_symop_operation_xyz
x,y,z
-x,-y,z
x,-y,1/2-z
-x,y,1/2-z
-x,-y,-z
x,y,-z
-x,y,1/2+z
x,-y,1/2+z
1/2+x,1/2+y,1/2+z
1/2-x,1/2-y,1/2+z
1/2+x,1/2-y,-z
1/2-x,1/2+y,-z
1/2-x,1/2-y,1/2-z
1/2+x,1/2+y,1/2-z
1/2-x,1/2+y,z
1/2+x,1/2-y,z
loop_
_atom_site_type_symbol
_atom_site_label
_atom_site_fract_x
_atom_site_fract_y
_atom_site_fract_z
Si Si1 0.049041 0.329908 0.164174
Si Si2 0.660109 0.671741 0.673422
Si Si3 0.452720 0.341362 0.659596
Si Si4 0.848405 0.680042 0.670761
Si Si5 0.254485 0.074148 0.168066
O O1 0.043363 0.244450 0.156295
O O2 0.100386 0.350892 0.252467
O O3 0.000000 0.363061 0.250000
O O4 0.051474 0.361741 0.000000
O O5 0.661012 0.687793 0.500000
O O6 0.604248 0.638844 0.720746
O O7 0.670528 0.745784 0.757614
O O8 0.703494 0.615633 0.723137
O O9 0.500000 0.375310 0.750000
O O10 0.459194 0.374384 0.500000
O O11 0.859205 0.692462 0.500000
O O12 0.804143 0.622312 0.699213
O O13 0.260967 0.000000 0.250000
O O14 0.248470 0.055901 0.000000
#
# Coordination Sequence:
#
# PCOD8293329 Si02
#       5
#    16  16  16  16  16
#     4   9  16  27  45  71 102 133 162 198 243 292
#     4   9  18  33  51  73 100 131 166 207 250 295
#     4   8  14  24  41  66  96 124 153 191 236 283
#     4  10  19  31  50  77 103 129 164 206 249 299
#     4  10  22  37  52  71  98 131 169 210 254 303
#
# _framework density 18.132370000000002
#
# number of rings (size 3 to 8) (size 9 to 14) (size 15 to 20)
#    0.000    2.800    0.000    3.000    0.000    7.200 
#    0.000    0.000    0.000    1.200    0.000    8.400 
#    0.000    0.000    0.000    0.000    0.000    0.000 
#
# Total GULP energy -495857.029775 kJ/mol
# GULP energy per Si atom -12396.425744 kJ/mol
# Density = 1.809110 g / cm^3
# Si number density = 18.132370 Si / 1000 Ang^3
#
#
#
# Elastic Constant Matrix: (Units=GPa)
#
#
# Indices 1 2 3 4 5 6 
#
# 1 169.4622 75.7888 86.9410 0.0000 0.0000 0.0000
# 2 75.7888 97.5382 67.3718 0.0000 0.0000 0.0000
# 3 86.9410 67.3718 114.0466 0.0000 0.0000 0.0000
# 4 0.0000 0.0000 0.0000 12.1780 0.0000 0.0000
# 5 0.0000 0.0000 0.0000 0.0000 33.8676 0.0000
# 6 0.0000 0.0000 0.0000 0.0000 0.0000 -2.3426
#
#
#
# Elastic Compliance Matrix: (Units=1/GPa)
#
#
# Indices 1 2 3 4 5 6 
#
# 1 0.010770 -0.004557 -0.005519 0.000000 0.000000 0.000000
# 2 -0.004557 0.019247 -0.007896 0.000000 0.000000 0.000000
# 3 -0.005519 -0.007896 0.017640 0.000000 0.000000 0.000000
# 4 0.000000 0.000000 0.000000 0.082116 0.000000 0.000000
# 5 0.000000 0.000000 0.000000 0.000000 0.029527 0.000000
# 6 0.000000 0.000000 0.000000 0.000000 0.000000 -0.426868
#
#
# Mechanical properties :
#
#
# Convention : Reuss Voigt Hill
#
# Bulk Modulus (GPa) = 85.36751 93.47225 89.41988
# Shear Modulus (GPa) = -21.95681 18.80360 -1.57660
#
# Velocity S-wave (km/s) = -3.48360 3.22377 -0.93348
# Velocity P-wave (km/s) = 5.56792 8.09437 6.94696
#
# Compressibility (1/GPa) = 0.01171406
#
# Stress axis : x y z
#
# Youngs Moduli (GPa) = 92.84845 51.95531 56.68953
#
# Poissons Ratio (x) = 0.23675 0.31284
# Poissons Ratio (y) = 0.42310 0.44764
# Poissons Ratio (z) = 0.51239 0.41025
#
# Static dielectric constant tensor:
#      x y z
#    x 3.728640 0.000000 0.000000 
#    y 0.000000 2.785520 0.000000 
#    z 0.000000 0.000000 3.513580 
# 
# 
# High freq. dielectric constant tensor:
#      x y z
#    x 1.726260 0.000000 0.000000 
#    y 0.000000 1.643110 0.000000 
#    z 0.000000 0.000000 1.707480 
# 
# From -- ./inp_files/4783.got.cif
#   From: 2010.03.12/outbox.cif.g09.slc.cpg/sg72_3_cif.got.tgz:4783.got - 2010.04.16 14:54:00.
