data_PCOD8293167
_publ_section_title
;
Structure prediction by ZEFSAII (Michael W. Deem and Ramdas Pophale) SiO2 
 PCOD8293167
Probable space group: I B A M
;
_chemical_formula_sum "Si O2"
_cell_formula_units_Z 84
_cell_length_a 19.193386
_cell_length_b 11.631324
_cell_length_c 18.633223
_cell_angle_alpha 90.000000
_cell_angle_beta 90.000000
_cell_angle_gamma 90.000000
_cell_volume 4159.764388
_symmetry_space_group_name_H-M "I B A M"
_symmetry_group_IT_number 72
_symmetry_cell_setting 'orthorhombic'
loop_
_space_group_symop_operation_xyz
x,y,z
-x,-y,z
x,-y,1/2-z
-x,y,1/2-z
-x,-y,-z
x,y,-z
-x,y,1/2+z
x,-y,1/2+z
1/2+x,1/2+y,1/2+z
1/2-x,1/2-y,1/2+z
1/2+x,1/2-y,-z
1/2-x,1/2+y,-z
1/2-x,1/2-y,1/2-z
1/2+x,1/2+y,1/2-z
1/2-x,1/2+y,z
1/2+x,1/2-y,z
loop_
_atom_site_type_symbol
_atom_site_label
_atom_site_fract_x
_atom_site_fract_y
_atom_site_fract_z
Si Si1 0.605665 0.322548 0.584068
Si Si2 0.061326 0.410706 0.083470
Si Si3 0.500000 0.500000 0.750000
Si Si4 0.827911 0.593291 0.584559
Si Si5 0.047665 0.166167 0.866216
Si Si6 0.677909 0.457210 0.082485
O O1 0.616093 0.317817 0.500000
O O2 0.628845 0.200597 0.618644
O O3 0.526465 0.360663 0.597892
O O4 0.654841 0.421559 0.617792
O O5 0.133883 0.473344 0.101447
O O6 0.052973 0.304915 0.139276
O O7 0.000000 0.500000 0.097771
O O8 0.057873 0.368138 0.000000
O O9 0.450452 0.410877 0.706139
O O10 0.825787 0.614174 0.500000
O O11 0.749880 0.588329 0.618224
O O12 0.114911 0.133036 0.912800
O O13 0.695569 0.478605 0.000000
#
# Coordination Sequence:
#
# PCOD8293167 Si02
#       6
#    16  16   4  16  16  16
#     4  10  18  33  57  87 119 148 185 232 288 357
#     4  10  19  34  60  94 123 149 179 224 295 365
#     4  12  28  44  56  80 108 152 218 264 280 304
#     4   9  19  32  52  91 132 150 169 221 295 370
#     4  12  22  39  59  78 109 156 200 247 284 331
#     4  10  20  32  55  89 121 153 184 226 297 362
#
# _framework density 20.193449999999999
#
# number of rings (size 3 to 8) (size 9 to 14) (size 15 to 20)
#    0.000    1.714    3.810    1.714    2.667    1.524 
#    0.000    0.476    0.000    4.571    0.000    0.000 
#    0.000    0.000    0.000    0.000    0.000    0.000 
#
# Total GULP energy -520348.663093 kJ/mol
# GULP energy per Si atom -12389.253883 kJ/mol
# Density = 2.014749 g / cm^3
# Si number density = 20.193450 Si / 1000 Ang^3
#
#
#
# Elastic Constant Matrix: (Units=GPa)
#
#
# Indices 1 2 3 4 5 6 
#
# 1 162.2866 58.6523 16.1656 0.0000 0.0000 0.0000
# 2 58.6523 149.4970 38.9397 0.0000 0.0000 0.0000
# 3 16.1656 38.9397 23.4327 0.0000 0.0000 0.0000
# 4 0.0000 0.0000 0.0000 28.4140 0.0000 0.0000
# 5 0.0000 0.0000 0.0000 0.0000 6.4957 0.0000
# 6 0.0000 0.0000 0.0000 0.0000 0.0000 32.0556
#
#
#
# Elastic Compliance Matrix: (Units=1/GPa)
#
#
# Indices 1 2 3 4 5 6 
#
# 1 0.007183 -0.002693 -0.000480 0.000000 0.000000 0.000000
# 2 -0.002693 0.012804 -0.019419 0.000000 0.000000 0.000000
# 3 -0.000480 -0.019419 0.075276 0.000000 0.000000 0.000000
# 4 0.000000 0.000000 0.000000 0.035194 0.000000 0.000000
# 5 0.000000 0.000000 0.000000 0.000000 0.153948 0.000000
# 6 0.000000 0.000000 0.000000 0.000000 0.000000 0.031196
#
#
# Mechanical properties :
#
#
# Convention : Reuss Voigt Hill
#
# Bulk Modulus (GPa) = 19.96854 62.52573 41.24714
# Shear Modulus (GPa) = 13.24581 28.15697 20.70139
#
# Velocity S-wave (km/s) = 2.56392 3.73817 3.20528
# Velocity P-wave (km/s) = 4.32146 7.04716 5.84540
#
# Compressibility (1/GPa) = 0.05007877
#
# Stress axis : x y z
#
# Youngs Moduli (GPa) = 139.21615 78.10217 13.28440
#
# Poissons Ratio (x) = 0.21034 0.00638
# Poissons Ratio (y) = 0.37492 0.25797
# Poissons Ratio (z) = 0.06684 1.51666
#
# Static dielectric constant tensor:
#      x y z
#    x 3.942510 0.000000 0.000000 
#    y 0.000000 4.170580 0.000000 
#    z 0.000000 0.000000 3.032630 
# 
# 
# High freq. dielectric constant tensor:
#      x y z
#    x 1.801220 0.000000 0.000000 
#    y 0.000000 1.810010 0.000000 
#    z 0.000000 0.000000 1.703290 
# 
# From -- ./inp_files/39653.got.cif
#   From: 2010.03.12/outbox.cif.g09.slc.cpg/sg72_20_cif.got.tgz:39653.got - 2010.04.16 14:54:00.
