data_PCOD8293386
_publ_section_title
;
Structure prediction by ZEFSAII (Michael W. Deem and Ramdas Pophale) SiO2 
 PCOD8293386
Probable space group: I B A M
;
_chemical_formula_sum "Si O2"
_cell_formula_units_Z 80
_cell_length_a 19.355387
_cell_length_b 26.141290
_cell_length_c 8.974728
_cell_angle_alpha 90.000000
_cell_angle_beta 90.000000
_cell_angle_gamma 90.000000
_cell_volume 4540.986067
_symmetry_space_group_name_H-M "I B A M"
_symmetry_group_IT_number 72
_symmetry_cell_setting 'orthorhombic'
loop_
_space_group_symop_operation_xyz
x,y,z
-x,-y,z
x,-y,1/2-z
-x,y,1/2-z
-x,-y,-z
x,y,-z
-x,y,1/2+z
x,-y,1/2+z
1/2+x,1/2+y,1/2+z
1/2-x,1/2-y,1/2+z
1/2+x,1/2-y,-z
1/2-x,1/2+y,-z
1/2-x,1/2-y,1/2-z
1/2+x,1/2+y,1/2-z
1/2-x,1/2+y,z
1/2+x,1/2-y,z
loop_
_atom_site_type_symbol
_atom_site_label
_atom_site_fract_x
_atom_site_fract_y
_atom_site_fract_z
Si Si1 0.424888 0.637379 0.675967
Si Si2 0.327290 0.948160 0.325293
Si Si3 0.571590 0.748377 0.828889
Si Si4 0.668273 0.447442 0.824156
Si Si5 0.574359 0.141050 0.324232
O O1 0.500000 0.632524 0.750000
O O2 0.431042 0.625874 0.500000
O O3 0.390651 0.694207 0.705481
O O4 0.374134 0.598359 0.753939
O O5 0.336643 0.954784 0.500000
O O6 0.247980 0.937487 0.283396
O O7 0.372543 0.901154 0.262364
O O8 0.354331 0.000000 0.250000
O O9 0.500000 0.745879 0.750000
O O10 0.607693 0.802537 0.784423
O O11 0.552914 0.750770 0.000000
O O12 0.642448 0.500000 0.750000
O O13 0.655463 0.450237 0.000000
O O14 0.500000 0.133284 0.250000
O O15 0.564706 0.134556 0.500000
#
# Coordination Sequence:
#
# PCOD8293386 Si02
#       5
#    16  16  16  16  16
#     4  10  19  32  51  75  99 125 157 196 237 282
#     4   9  19  34  51  69  95 129 163 198 240 285
#     4   8  15  28  47  69  96 126 156 190 233 280
#     4  10  20  35  52  70  94 127 162 198 239 285
#     4   9  17  31  50  73  98 127 161 198 237 280
#
# _framework density 17.617318999999998
#
# number of rings (size 3 to 8) (size 9 to 14) (size 15 to 20)
#    0.000    2.800    0.000    1.200    0.000    3.200 
#    0.000    5.000    0.000    0.000    0.000    0.000 
#    0.000    0.000    0.000    0.000    0.000    0.000 
#
# Total GULP energy -495524.220440 kJ/mol
# GULP energy per Si atom -12388.105511 kJ/mol
# Density = 1.757722 g / cm^3
# Si number density = 17.617319 Si / 1000 Ang^3
#
#
#
# Elastic Constant Matrix: (Units=GPa)
#
#
# Indices 1 2 3 4 5 6 
#
# 1 66.3884 80.3714 31.9426 0.0000 0.0000 0.0000
# 2 80.3714 203.2280 59.2387 0.0000 0.0000 0.0000
# 3 31.9426 59.2387 55.8853 0.0000 0.0000 0.0000
# 4 0.0000 0.0000 0.0000 22.4432 0.0000 0.0000
# 5 0.0000 0.0000 0.0000 0.0000 22.3582 0.0000
# 6 0.0000 0.0000 0.0000 0.0000 0.0000 -78.3152
#
#
#
# Elastic Compliance Matrix: (Units=1/GPa)
#
#
# Indices 1 2 3 4 5 6 
#
# 1 0.030557 -0.010120 -0.006738 0.000000 0.000000 0.000000
# 2 -0.010120 0.010473 -0.005316 0.000000 0.000000 0.000000
# 3 -0.006738 -0.005316 0.027380 0.000000 0.000000 0.000000
# 4 0.000000 0.000000 0.000000 0.044557 0.000000 0.000000
# 5 0.000000 0.000000 0.000000 0.000000 0.044726 0.000000
# 6 0.000000 0.000000 0.000000 0.000000 0.000000 -0.012769
#
#
# Mechanical properties :
#
#
# Convention : Reuss Voigt Hill
#
# Bulk Modulus (GPa) = 41.56188 74.28965 57.92577
# Shear Modulus (GPa) = 25.34293 3.56051 14.45172
#
# Velocity S-wave (km/s) = 3.79690 1.42317 2.86722
# Velocity P-wave (km/s) = 6.54711 6.70527 6.62666
#
# Compressibility (1/GPa) = 0.02406051
#
# Stress axis : x y z
#
# Youngs Moduli (GPa) = 32.72597 95.48690 36.52242
#
# Poissons Ratio (x) = 0.96637 0.24608
# Poissons Ratio (y) = 0.33120 0.19417
# Poissons Ratio (z) = 0.22050 0.50765
#
# Static dielectric constant tensor:
#      x y z
#    x 3.011950 0.000000 0.000000 
#    y 0.000000 4.102780 0.000000 
#    z 0.000000 0.000000 3.206720 
# 
# 
# High freq. dielectric constant tensor:
#      x y z
#    x 1.644080 0.000000 0.000000 
#    y 0.000000 1.708070 0.000000 
#    z 0.000000 0.000000 1.686440 
# 
# From -- ./inp_files/4744.got.cif
#   From: 2010.03.12/outbox.cif.g09.slc.cpg/sg72_3_cif.got.tgz:4744.got - 2010.04.16 14:54:00.
