data_PCOD8293894
_publ_section_title
;
Structure prediction by ZEFSAII (Michael W. Deem and Ramdas Pophale) SiO2 
 PCOD8293894
Probable space group: I B A M
;
_chemical_formula_sum "Si O2"
_cell_formula_units_Z 80
_cell_length_a 27.824014
_cell_length_b 17.760752
_cell_length_c 8.568764
_cell_angle_alpha 90.000000
_cell_angle_beta 90.000000
_cell_angle_gamma 90.000000
_cell_volume 4234.472483
_symmetry_space_group_name_H-M "I B A M"
_symmetry_group_IT_number 72
_symmetry_cell_setting 'orthorhombic'
loop_
_space_group_symop_operation_xyz
x,y,z
-x,-y,z
x,-y,1/2-z
-x,y,1/2-z
-x,-y,-z
x,y,-z
-x,y,1/2+z
x,-y,1/2+z
1/2+x,1/2+y,1/2+z
1/2-x,1/2-y,1/2+z
1/2+x,1/2-y,-z
1/2-x,1/2+y,-z
1/2-x,1/2-y,1/2-z
1/2+x,1/2+y,1/2-z
1/2-x,1/2+y,z
1/2+x,1/2-y,z
loop_
_atom_site_type_symbol
_atom_site_label
_atom_site_fract_x
_atom_site_fract_y
_atom_site_fract_z
Si Si1 0.787992 0.582777 0.183644
Si Si2 0.306751 0.349930 0.683546
Si Si3 0.949792 0.227561 0.818760
Si Si4 0.399113 0.578395 0.685578
Si Si5 0.148389 0.296976 0.683323
O O1 0.781682 0.500000 0.250000
O O2 0.742169 0.632597 0.226911
O O3 0.835124 0.620851 0.260761
O O4 0.794934 0.579149 0.000000
O O5 0.298471 0.359144 0.500000
O O6 0.346780 0.408817 0.740563
O O7 0.321229 0.264947 0.723403
O O8 0.934534 0.144797 0.756306
O O9 0.908135 0.287480 0.776468
O O10 0.000000 0.255394 0.750000
O O11 0.957505 0.221657 0.000000
O O12 0.420199 0.500000 0.750000
O O13 0.394134 0.577608 0.500000
O O14 0.157354 0.284800 0.500000
#
# Coordination Sequence:
#
# PCOD8293894 Si02
#       5
#    16  16  16  16  16
#     4  12  24  38  56  81 111 145 179 219 266 317
#     4  11  21  35  55  80 110 148 185 220 259 311
#     4   9  20  36  56  78 104 136 176 222 270 320
#     4  10  20  34  50  75 109 146 183 224 266 313
#     4  10  21  39  58  81 110 142 179 222 265 315
#
# _framework density 18.892555000000002
#
# number of rings (size 3 to 8) (size 9 to 14) (size 15 to 20)
#    0.000    1.600    0.000    7.200    0.000    5.200 
#    0.000    2.000    0.000    0.600    0.000    4.200 
#    0.000    0.000    0.000    0.000    0.000    0.000 
#
# Total GULP energy -496114.987262 kJ/mol
# GULP energy per Si atom -12402.874682 kJ/mol
# Density = 1.884955 g / cm^3
# Si number density = 18.892555 Si / 1000 Ang^3
#
#
#
# Elastic Constant Matrix: (Units=GPa)
#
#
# Indices 1 2 3 4 5 6 
#
# 1 121.7521 29.0971 32.1588 0.0000 0.0000 0.0000
# 2 29.0971 41.4234 14.4875 0.0000 0.0000 0.0000
# 3 32.1588 14.4875 70.2095 0.0000 0.0000 0.0000
# 4 0.0000 0.0000 0.0000 32.8459 0.0000 0.0000
# 5 0.0000 0.0000 0.0000 0.0000 30.8893 0.0000
# 6 0.0000 0.0000 0.0000 0.0000 0.0000 23.8803
#
#
#
# Elastic Compliance Matrix: (Units=1/GPa)
#
#
# Indices 1 2 3 4 5 6 
#
# 1 0.010650 -0.006224 -0.003594 0.000000 0.000000 0.000000
# 2 -0.006224 0.029656 -0.003269 0.000000 0.000000 0.000000
# 3 -0.003594 -0.003269 0.016564 0.000000 0.000000 0.000000
# 4 0.000000 0.000000 0.000000 0.030445 0.000000 0.000000
# 5 0.000000 0.000000 0.000000 0.000000 0.032374 0.000000
# 6 0.000000 0.000000 0.000000 0.000000 0.000000 0.041875
#
#
# Mechanical properties :
#
#
# Convention : Reuss Voigt Hill
#
# Bulk Modulus (GPa) = 32.57657 42.76354 37.67005
# Shear Modulus (GPa) = 25.25642 28.03256 26.64449
#
# Velocity S-wave (km/s) = 3.66026 3.85618 3.75949
# Velocity P-wave (km/s) = 5.92822 6.52005 6.23117
#
# Compressibility (1/GPa) = 0.03069691
#
# Stress axis : x y z
#
# Youngs Moduli (GPa) = 93.89539 33.71990 60.37307
#
# Poissons Ratio (x) = 0.20988 0.21697
# Poissons Ratio (y) = 0.58441 0.19733
# Poissons Ratio (z) = 0.33745 0.11021
#
# Static dielectric constant tensor:
#      x y z
#    x 3.800100 0.000000 0.000000 
#    y 0.000000 3.571790 0.000000 
#    z 0.000000 0.000000 3.500620 
# 
# 
# High freq. dielectric constant tensor:
#      x y z
#    x 1.726260 0.000000 0.000000 
#    y 0.000000 1.720690 0.000000 
#    z 0.000000 0.000000 1.746720 
# 
# From -- ./inp_files/4768.got.cif
#   From: 2010.03.12/outbox.cif.g09.slc.cpg/sg72_3_cif.got.tgz:4768.got - 2010.04.16 14:54:00.
