data_PCOD8293970
_publ_section_title
;
Structure prediction by ZEFSAII (Michael W. Deem and Ramdas Pophale) SiO2 
 PCOD8293970
Probable space group: I B A M
;
_chemical_formula_sum "Si O2"
_cell_formula_units_Z 112
_cell_length_a 14.643884
_cell_length_b 14.216959
_cell_length_c 29.014349
_cell_angle_alpha 90.000000
_cell_angle_beta 90.000000
_cell_angle_gamma 90.000000
_cell_volume 6040.540794
_symmetry_space_group_name_H-M "I B A M"
_symmetry_group_IT_number 72
_symmetry_cell_setting 'orthorhombic'
loop_
_space_group_symop_operation_xyz
x,y,z
-x,-y,z
x,-y,1/2-z
-x,y,1/2-z
-x,-y,-z
x,y,-z
-x,y,1/2+z
x,-y,1/2+z
1/2+x,1/2+y,1/2+z
1/2-x,1/2-y,1/2+z
1/2+x,1/2-y,-z
1/2-x,1/2+y,-z
1/2-x,1/2-y,1/2-z
1/2+x,1/2+y,1/2-z
1/2-x,1/2+y,z
1/2+x,1/2-y,z
loop_
_atom_site_type_symbol
_atom_site_label
_atom_site_fract_x
_atom_site_fract_y
_atom_site_fract_z
Si Si1 0.197609 0.157997 0.334510
Si Si2 0.348012 0.688775 0.146750
Si Si3 0.763398 0.009547 0.395480
Si Si4 0.426085 0.433674 0.052114
Si Si5 0.962548 0.760587 0.602559
Si Si6 0.601596 0.389370 0.755989
Si Si7 0.585288 0.931569 0.946685
O O1 0.280304 0.227486 0.342439
O O2 0.109170 0.195619 0.361513
O O3 0.170826 0.156133 0.280792
O O4 0.233947 0.053856 0.349062
O O5 0.301345 0.614726 0.111974
O O6 0.437506 0.736105 0.124962
O O7 0.366869 0.632825 0.193007
O O8 0.665925 0.014462 0.420261
O O9 0.825381 0.950189 0.429866
O O10 0.500000 0.500000 0.078717
O O11 0.458509 0.326526 0.057595
O O12 0.423895 0.464194 0.000000
O O13 0.938592 0.657501 0.584992
O O14 0.599759 0.500000 0.750000
O O15 0.500000 0.347349 0.750000
O O16 0.500000 0.000000 0.947453
O O17 0.611401 0.905116 0.000000
#
# Coordination Sequence:
#
# PCOD8293970 Si02
#       7
#    16  16  16  16  16  16  16
#     4  11  23  39  62  89 121 164 203 253 308 367
#     4  12  22  39  62  88 126 160 204 253 308 368
#     4  11  22  39  62  88 117 163 205 248 311 367
#     4  10  20  34  56  87 121 150 195 255 306 356
#     4  11  22  38  62  90 117 159 206 249 308 363
#     4  11  22  37  63  91 121 159 202 256 310 370
#     4  11  24  44  64  87 125 165 208 253 302 368
#
# _framework density 18.541387
#
# number of rings (size 3 to 8) (size 9 to 14) (size 15 to 20)
#    0.000    1.000    5.714    2.143    0.000    0.000 
#    0.000    0.000    0.000    0.000    0.000    2.000 
#    0.000    0.000    0.000    0.000    0.000    0.000 
#
# Total GULP energy -694238.979857 kJ/mol
# GULP energy per Si atom -12397.124640 kJ/mol
# Density = 1.849919 g / cm^3
# Si number density = 18.541387 Si / 1000 Ang^3
#
#
#
# Elastic Constant Matrix: (Units=GPa)
#
#
# Indices 1 2 3 4 5 6 
#
# 1 127.1739 35.7788 33.7125 0.0000 0.0000 0.0000
# 2 35.7788 83.6770 12.6234 0.0000 0.0000 0.0000
# 3 33.7125 12.6234 78.9667 0.0000 0.0000 0.0000
# 4 0.0000 0.0000 0.0000 26.5613 0.0000 0.0000
# 5 0.0000 0.0000 0.0000 0.0000 15.3228 0.0000
# 6 0.0000 0.0000 0.0000 0.0000 0.0000 35.0548
#
#
#
# Elastic Compliance Matrix: (Units=1/GPa)
#
#
# Indices 1 2 3 4 5 6 
#
# 1 0.009855 -0.003668 -0.003621 0.000000 0.000000 0.000000
# 2 -0.003668 0.013611 -0.000610 0.000000 0.000000 0.000000
# 3 -0.003621 -0.000610 0.014307 0.000000 0.000000 0.000000
# 4 0.000000 0.000000 0.000000 0.037649 0.000000 0.000000
# 5 0.000000 0.000000 0.000000 0.000000 0.065262 0.000000
# 6 0.000000 0.000000 0.000000 0.000000 0.000000 0.028527
#
#
# Mechanical properties :
#
#
# Convention : Reuss Voigt Hill
#
# Bulk Modulus (GPa) = 45.50492 50.44968 47.97730
# Shear Modulus (GPa) = 25.99656 29.23463 27.61559
#
# Velocity S-wave (km/s) = 3.74850 3.97510 3.86347
# Velocity P-wave (km/s) = 6.58260 6.95248 6.77006
#
# Compressibility (1/GPa) = 0.02197565
#
# Stress axis : x y z
#
# Youngs Moduli (GPa) = 101.47178 73.47034 69.89604
#
# Poissons Ratio (x) = 0.26946 0.25309
# Poissons Ratio (y) = 0.37215 0.04264
# Poissons Ratio (z) = 0.36743 0.04482
#
# Static dielectric constant tensor:
#      x y z
#    x 3.554360 0.000000 0.000000 
#    y 0.000000 3.491860 0.000000 
#    z 0.000000 0.000000 3.495890 
# 
# 
# High freq. dielectric constant tensor:
#      x y z
#    x 1.728790 0.000000 0.000000 
#    y 0.000000 1.722260 0.000000 
#    z 0.000000 0.000000 1.721530 
# 
# From -- ./inp_files/51463.got.cif
#   From: 2010.03.12/outbox.cif.g09.slc.cpg/sg72_26_cif.got.tgz:51463.got - 2010.04.16 14:54:00.
