data_PCOD8293152
_publ_section_title
;
Structure prediction by ZEFSAII (Michael W. Deem and Ramdas Pophale) SiO2 
 PCOD8293152
Probable space group: I B A M
;
_chemical_formula_sum "Si O2"
_cell_formula_units_Z 64
_cell_length_a 24.338285
_cell_length_b 14.530142
_cell_length_c 8.603893
_cell_angle_alpha 90.000000
_cell_angle_beta 90.000000
_cell_angle_gamma 90.000000
_cell_volume 3042.669855
_symmetry_space_group_name_H-M "I B A M"
_symmetry_group_IT_number 72
_symmetry_cell_setting 'orthorhombic'
loop_
_space_group_symop_operation_xyz
x,y,z
-x,-y,z
x,-y,1/2-z
-x,y,1/2-z
-x,-y,-z
x,y,-z
-x,y,1/2+z
x,-y,1/2+z
1/2+x,1/2+y,1/2+z
1/2-x,1/2-y,1/2+z
1/2+x,1/2-y,-z
1/2-x,1/2+y,-z
1/2-x,1/2-y,1/2-z
1/2+x,1/2+y,1/2-z
1/2-x,1/2+y,z
1/2+x,1/2-y,z
loop_
_atom_site_type_symbol
_atom_site_label
_atom_site_fract_x
_atom_site_fract_y
_atom_site_fract_z
Si Si1 0.442118 0.761128 0.316682
Si Si2 0.376936 0.398683 0.683494
Si Si3 0.653918 0.898877 0.817111
Si Si4 0.764975 0.102387 0.184183
O O1 0.500000 0.795547 0.250000
O O2 0.445193 0.746892 0.500000
O O3 0.427420 0.664451 0.236227
O O4 0.397865 0.837750 0.269032
O O5 0.386796 0.500000 0.750000
O O6 0.373092 0.404895 0.500000
O O7 0.320843 0.352084 0.750696
O O8 0.708972 0.850423 0.746323
O O9 0.643815 0.000000 0.750000
O O10 0.661731 0.906002 0.000000
O O11 0.763636 0.000000 0.250000
O O12 0.766423 0.103962 0.000000
#
# Coordination Sequence:
#
# PCOD8293152 Si02
#       4
#    16  16  16  16
#     4  11  25  43  61  85 116 153 200 247 290 342
#     4  11  22  39  63  89 120 155 192 238 292 348
#     4  10  21  38  61  88 120 155 193 239 291 347
#     4  10  18  32  57  88 121 153 190 235 287 348
#
# _framework density 21.03416
#
# number of rings (size 3 to 8) (size 9 to 14) (size 15 to 20)
#    0.000    1.500    0.000    9.000    0.000    6.000 
#    0.000    5.000    0.000    0.000    0.000    0.000 
#    0.000    0.000    0.000    0.000    0.000    0.000 
#
# Total GULP energy -396849.357585 kJ/mol
# GULP energy per Si atom -12401.542425 kJ/mol
# Density = 2.098629 g / cm^3
# Si number density = 21.034160 Si / 1000 Ang^3
#
#
#
# Elastic Constant Matrix: (Units=GPa)
#
#
# Indices 1 2 3 4 5 6 
#
# 1 111.7320 14.1164 26.7350 0.0000 0.0000 0.0000
# 2 14.1164 45.3303 12.7511 0.0000 0.0000 0.0000
# 3 26.7350 12.7511 136.4322 0.0000 0.0000 0.0000
# 4 0.0000 0.0000 0.0000 27.3355 0.0000 0.0000
# 5 0.0000 0.0000 0.0000 0.0000 41.0304 0.0000
# 6 0.0000 0.0000 0.0000 0.0000 0.0000 37.5248
#
#
#
# Elastic Compliance Matrix: (Units=1/GPa)
#
#
# Indices 1 2 3 4 5 6 
#
# 1 0.009668 -0.002545 -0.001657 0.000000 0.000000 0.000000
# 2 -0.002545 0.023326 -0.001681 0.000000 0.000000 0.000000
# 3 -0.001657 -0.001681 0.007811 0.000000 0.000000 0.000000
# 4 0.000000 0.000000 0.000000 0.036582 0.000000 0.000000
# 5 0.000000 0.000000 0.000000 0.000000 0.024372 0.000000
# 6 0.000000 0.000000 0.000000 0.000000 0.000000 0.026649
#
#
# Mechanical properties :
#
#
# Convention : Reuss Voigt Hill
#
# Bulk Modulus (GPa) = 34.43582 44.52217 39.47900
# Shear Modulus (GPa) = 33.36581 37.17096 35.26838
#
# Velocity S-wave (km/s) = 3.98712 4.20833 4.09922
# Velocity P-wave (km/s) = 6.13213 6.69522 6.41985
#
# Compressibility (1/GPa) = 0.02903953
#
# Stress axis : x y z
#
# Youngs Moduli (GPa) = 103.43518 42.87112 128.01758
#
# Poissons Ratio (x) = 0.10909 0.21208
# Poissons Ratio (y) = 0.26321 0.21525
# Poissons Ratio (z) = 0.17136 0.07208
#
# Static dielectric constant tensor:
#      x y z
#    x 4.488530 0.000000 0.000000 
#    y 0.000000 3.635790 0.000000 
#    z 0.000000 0.000000 3.856480 
# 
# 
# High freq. dielectric constant tensor:
#      x y z
#    x 1.835760 0.000000 0.000000 
#    y 0.000000 1.810340 0.000000 
#    z 0.000000 0.000000 1.841270 
# 
# From -- ./inp_files/3430.got.cif
#   From: 2010.03.12/outbox.cif.g09.slc.cpg/sg72_2_cif.got.tgz:3430.got - 2010.04.16 14:54:00.
