data_PCOD8293373
_publ_section_title
;
Structure prediction by ZEFSAII (Michael W. Deem and Ramdas Pophale) SiO2 
 PCOD8293373
Probable space group: I B A M
;
_chemical_formula_sum "Si O2"
_cell_formula_units_Z 96
_cell_length_a 20.593638
_cell_length_b 30.013500
_cell_length_c 8.826456
_cell_angle_alpha 90.000000
_cell_angle_beta 90.000000
_cell_angle_gamma 90.000000
_cell_volume 5455.519070
_symmetry_space_group_name_H-M "I B A M"
_symmetry_group_IT_number 72
_symmetry_cell_setting 'orthorhombic'
loop_
_space_group_symop_operation_xyz
x,y,z
-x,-y,z
x,-y,1/2-z
-x,y,1/2-z
-x,-y,-z
x,y,-z
-x,y,1/2+z
x,-y,1/2+z
1/2+x,1/2+y,1/2+z
1/2-x,1/2-y,1/2+z
1/2+x,1/2-y,-z
1/2-x,1/2+y,-z
1/2-x,1/2-y,1/2-z
1/2+x,1/2+y,1/2-z
1/2-x,1/2+y,z
1/2+x,1/2-y,z
loop_
_atom_site_type_symbol
_atom_site_label
_atom_site_fract_x
_atom_site_fract_y
_atom_site_fract_z
Si Si1 0.192763 0.278707 0.178108
Si Si2 0.262508 0.864506 0.680115
Si Si3 0.613239 0.542567 0.166035
Si Si4 0.232331 0.543847 0.330226
Si Si5 0.122577 0.860752 0.818641
Si Si6 0.064716 0.776404 0.677634
O O1 0.250000 0.250000 0.250000
O O2 0.188850 0.327078 0.256139
O O3 0.124316 0.255827 0.213482
O O4 0.205657 0.283367 0.000000
O O5 0.260617 0.863631 0.500000
O O6 0.287762 0.912492 0.735853
O O7 0.191989 0.851839 0.743377
O O8 0.582622 0.500000 0.250000
O O9 0.690635 0.539450 0.163440
O O10 0.595203 0.590852 0.236667
O O11 0.583468 0.539683 0.000000
O O12 0.202565 0.500000 0.250000
O O13 0.203943 0.547571 0.500000
O O14 0.073355 0.823682 0.761160
O O15 0.131046 0.860179 0.000000
O O16 0.056107 0.784534 0.500000
O O17 0.000000 0.754668 0.750000
#
# Coordination Sequence:
#
# PCOD8293373 Si02
#       6
#    16  16  16  16  16  16
#     4  11  22  36  55  79 105 136 175 218 264 315
#     4  11  20  30  48  75 104 137 175 214 260 310
#     4   8  15  25  40  64  91 124 161 204 254 301
#     4   9  16  27  42  65  99 136 170 209 257 308
#     4  10  19  32  50  71  99 132 171 216 261 308
#     4  11  24  39  56  77 102 135 174 214 266 320
#
# _framework density 17.596858999999998
#
# number of rings (size 3 to 8) (size 9 to 14) (size 15 to 20)
#    0.000    2.000    1.667    4.500    0.000    6.667 
#    0.000    0.000    0.000    0.500    0.000    3.500 
#    0.000    0.667    0.000    7.000    0.000    4.000 
#
# Total GULP energy -595094.239410 kJ/mol
# GULP energy per Si atom -12397.796654 kJ/mol
# Density = 1.755681 g / cm^3
# Si number density = 17.596859 Si / 1000 Ang^3
#
#
#
# Elastic Constant Matrix: (Units=GPa)
#
#
# Indices 1 2 3 4 5 6 
#
# 1 63.8033 44.5816 43.1429 0.0000 0.0000 0.0000
# 2 44.5816 131.4819 60.7123 0.0000 0.0000 0.0000
# 3 43.1429 60.7123 126.9982 0.0000 0.0000 0.0000
# 4 0.0000 0.0000 0.0000 35.1442 0.0000 0.0000
# 5 0.0000 0.0000 0.0000 0.0000 19.7685 0.0000
# 6 0.0000 0.0000 0.0000 0.0000 0.0000 9.9851
#
#
#
# Elastic Compliance Matrix: (Units=1/GPa)
#
#
# Indices 1 2 3 4 5 6 
#
# 1 0.022964 -0.005370 -0.005234 0.000000 0.000000 0.000000
# 2 -0.005370 0.011016 -0.003442 0.000000 0.000000 0.000000
# 3 -0.005234 -0.003442 0.011298 0.000000 0.000000 0.000000
# 4 0.000000 0.000000 0.000000 0.028454 0.000000 0.000000
# 5 0.000000 0.000000 0.000000 0.000000 0.050586 0.000000
# 6 0.000000 0.000000 0.000000 0.000000 0.000000 0.100149
#
#
# Mechanical properties :
#
#
# Convention : Reuss Voigt Hill
#
# Bulk Modulus (GPa) = 58.18677 68.79522 63.49100
# Shear Modulus (GPa) = 19.35829 24.56933 21.96381
#
# Velocity S-wave (km/s) = 3.32037 3.74067 3.53677
# Velocity P-wave (km/s) = 6.91652 7.60506 7.26894
#
# Compressibility (1/GPa) = 0.01718604
#
# Stress axis : x y z
#
# Youngs Moduli (GPa) = 43.54548 90.78017 88.51308
#
# Poissons Ratio (x) = 0.48745 0.46331
# Poissons Ratio (y) = 0.23382 0.30466
# Poissons Ratio (z) = 0.22793 0.31246
#
# Static dielectric constant tensor:
#      x y z
#    x 2.799840 0.000000 0.000000 
#    y 0.000000 3.619540 0.000000 
#    z 0.000000 0.000000 3.458330 
# 
# 
# High freq. dielectric constant tensor:
#      x y z
#    x 1.616510 0.000000 0.000000 
#    y 0.000000 1.694960 0.000000 
#    z 0.000000 0.000000 1.696730 
# 
# From -- ./inp_files/5974.got.cif
#   From: 2010.03.12/outbox.cif.g09.slc.cpg/sg72_3_cif.got.tgz:5974.got - 2010.04.16 14:54:00.
