data_PCOD8293320
_publ_section_title
;
Structure prediction by ZEFSAII (Michael W. Deem and Ramdas Pophale) SiO2 
 PCOD8293320
Probable space group: I B A M
;
_chemical_formula_sum "Si O2"
_cell_formula_units_Z 116
_cell_length_a 23.892993
_cell_length_b 34.762413
_cell_length_c 8.896494
_cell_angle_alpha 90.000000
_cell_angle_beta 90.000000
_cell_angle_gamma 90.000000
_cell_volume 7389.232998
_symmetry_space_group_name_H-M "I B A M"
_symmetry_group_IT_number 72
_symmetry_cell_setting 'orthorhombic'
loop_
_space_group_symop_operation_xyz
x,y,z
-x,-y,z
x,-y,1/2-z
-x,y,1/2-z
-x,-y,-z
x,y,-z
-x,y,1/2+z
x,-y,1/2+z
1/2+x,1/2+y,1/2+z
1/2-x,1/2-y,1/2+z
1/2+x,1/2-y,-z
1/2-x,1/2+y,-z
1/2-x,1/2-y,1/2-z
1/2+x,1/2+y,1/2-z
1/2-x,1/2+y,z
1/2+x,1/2-y,z
loop_
_atom_site_type_symbol
_atom_site_label
_atom_site_fract_x
_atom_site_fract_y
_atom_site_fract_z
Si Si1 0.709841 0.961077 0.323358
Si Si2 0.058477 0.710434 0.677992
Si Si3 0.662718 0.242607 0.673725
Si Si4 0.586139 0.059706 0.835437
Si Si5 0.772555 0.616573 0.325722
Si Si6 0.245196 0.809190 0.174063
Si Si7 0.097519 0.366688 0.672255
Si Si8 0.500000 0.000000 0.250000
O O1 0.721423 0.961717 0.500000
O O2 0.644208 0.959106 0.281586
O O3 0.740749 0.924385 0.250279
O O4 0.734300 0.000000 0.250000
O O5 0.054200 0.712553 0.500000
O O6 0.104802 0.740602 0.736136
O O7 0.074204 0.667395 0.726590
O O8 0.000000 0.723058 0.750000
O O9 0.651830 0.232375 0.500000
O O10 0.704949 0.210822 0.735959
O O11 0.688028 0.285160 0.693839
O O12 0.567740 0.093457 0.721243
O O13 0.539224 0.026985 0.850638
O O14 0.594939 0.078221 0.000000
O O15 0.756601 0.614327 0.500000
O O16 0.734615 0.648683 0.243472
O O17 0.836683 0.628671 0.300487
O O18 0.262684 0.811978 0.000000
O O19 0.082391 0.358135 0.500000
#
# Coordination Sequence:
#
# PCOD8293320 Si02
#       8
#    16  16  16  16  16  16  16   4
#     4  10  19  33  48  63  84 111 145 182 230 283
#     4  12  24  37  53  69  92 123 157 192 233 282
#     4  10  20  34  50  72  99 123 153 191 233 281
#     4  10  22  35  47  60  77 104 137 181 232 283
#     4  10  19  31  50  71  93 118 149 189 233 282
#     4  10  19  31  51  75  98 123 151 189 236 282
#     4  10  21  36  51  66  87 112 145 189 234 281
#     4  12  22  36  48  62  78  96 144 190 242 288
#
# _framework density 15.698517000000001
#
# number of rings (size 3 to 8) (size 9 to 14) (size 15 to 20)
#    0.000    1.655    2.069    3.517    0.966    4.414 
#    0.000    0.000    0.000    0.000    0.000    0.000 
#    0.000    0.000    0.000    0.000    0.000    0.690 
#
# Total GULP energy -719293.011638 kJ/mol
# GULP energy per Si atom -12401.603649 kJ/mol
# Density = 1.566279 g / cm^3
# Si number density = 15.698517 Si / 1000 Ang^3
#
#
#
# Elastic Constant Matrix: (Units=GPa)
#
#
# Indices 1 2 3 4 5 6 
#
# 1 48.7144 35.2730 35.9991 0.0000 0.0000 0.0000
# 2 35.2730 115.7659 56.2216 0.0000 0.0000 0.0000
# 3 35.9991 56.2216 126.0526 0.0000 0.0000 0.0000
# 4 0.0000 0.0000 0.0000 28.7531 0.0000 0.0000
# 5 0.0000 0.0000 0.0000 0.0000 18.5151 0.0000
# 6 0.0000 0.0000 0.0000 0.0000 0.0000 22.6877
#
#
#
# Elastic Compliance Matrix: (Units=1/GPa)
#
#
# Indices 1 2 3 4 5 6 
#
# 1 0.029102 -0.006167 -0.005561 0.000000 0.000000 0.000000
# 2 -0.006167 0.012333 -0.003740 0.000000 0.000000 0.000000
# 3 -0.005561 -0.003740 0.011189 0.000000 0.000000 0.000000
# 4 0.000000 0.000000 0.000000 0.034779 0.000000 0.000000
# 5 0.000000 0.000000 0.000000 0.000000 0.054010 0.000000
# 6 0.000000 0.000000 0.000000 0.000000 0.000000 0.044077
#
#
# Mechanical properties :
#
#
# Convention : Reuss Voigt Hill
#
# Bulk Modulus (GPa) = 46.10328 60.61339 53.35833
# Shear Modulus (GPa) = 22.35587 24.86046 23.60817
#
# Velocity S-wave (km/s) = 3.77779 3.98379 3.88215
# Velocity P-wave (km/s) = 6.96136 7.73663 7.35921
#
# Compressibility (1/GPa) = 0.02169043
#
# Stress axis : x y z
#
# Youngs Moduli (GPa) = 34.36152 81.08166 89.37116
#
# Poissons Ratio (x) = 0.50000 0.49698
# Poissons Ratio (y) = 0.21190 0.33422
# Poissons Ratio (z) = 0.19108 0.30322
#
# Static dielectric constant tensor:
#      x y z
#    x 2.701030 0.000000 0.000000 
#    y 0.000000 3.069610 0.000000 
#    z 0.000000 0.000000 3.097480 
# 
# 
# High freq. dielectric constant tensor:
#      x y z
#    x 1.544230 0.000000 0.000000 
#    y 0.000000 1.599340 0.000000 
#    z 0.000000 0.000000 1.623910 
# 
# From -- ./inp_files/8711.got.cif
#   From: 2010.03.12/outbox.cif.g09.slc.cpg/sg72_5_cif.got.tgz:8711.got - 2010.04.16 14:54:00.
