data_PCOD8293271
_publ_section_title
;
Structure prediction by ZEFSAII (Michael W. Deem and Ramdas Pophale) SiO2 
 PCOD8293271
Probable space group: I B A M
;
_chemical_formula_sum "Si O2"
_cell_formula_units_Z 80
_cell_length_a 23.094655
_cell_length_b 24.273133
_cell_length_c 9.132266
_cell_angle_alpha 90.000000
_cell_angle_beta 90.000000
_cell_angle_gamma 90.000000
_cell_volume 5119.362317
_symmetry_space_group_name_H-M "I B A M"
_symmetry_group_IT_number 72
_symmetry_cell_setting 'orthorhombic'
loop_
_space_group_symop_operation_xyz
x,y,z
-x,-y,z
x,-y,1/2-z
-x,y,1/2-z
-x,-y,-z
x,y,-z
-x,y,1/2+z
x,-y,1/2+z
1/2+x,1/2+y,1/2+z
1/2-x,1/2-y,1/2+z
1/2+x,1/2-y,-z
1/2-x,1/2+y,-z
1/2-x,1/2-y,1/2-z
1/2+x,1/2+y,1/2-z
1/2-x,1/2+y,z
1/2+x,1/2-y,z
loop_
_atom_site_type_symbol
_atom_site_label
_atom_site_fract_x
_atom_site_fract_y
_atom_site_fract_z
Si Si1 0.265879 0.672061 0.832438
Si Si2 0.838487 0.274369 0.331074
Si Si3 0.747273 0.052216 0.667947
Si Si4 0.885519 0.553811 0.328869
Si Si5 0.439867 0.831095 0.326091
O O1 0.215883 0.690009 0.721997
O O2 0.322775 0.709630 0.812267
O O3 0.282468 0.608464 0.798226
O O4 0.242103 0.676517 0.000000
O O5 0.851147 0.289044 0.500000
O O6 0.894097 0.286547 0.232602
O O7 0.749747 0.036211 0.500000
O O8 0.681065 0.062201 0.718597
O O9 0.775375 0.000000 0.750000
O O10 0.912021 0.500000 0.250000
O O11 0.891936 0.544322 0.500000
O O12 0.920404 0.607708 0.278301
O O13 0.500000 0.817060 0.250000
O O14 0.444986 0.825259 0.500000
#
# Coordination Sequence:
#
# PCOD8293271 Si02
#       5
#    16  16  16  16  16
#     4   9  17  31  48  67  94 121 148 186 228 272
#     4  10  19  30  48  70  89 117 154 188 229 275
#     4   9  16  28  44  65  92 121 149 183 225 265
#     4   9  18  31  46  61  85 118 153 193 231 265
#     4  11  22  36  49  64  89 119 154 197 236 272
#
# _framework density 15.626944999999999
#
# number of rings (size 3 to 8) (size 9 to 14) (size 15 to 20)
#    0.000    2.400    2.000    1.200    0.000    3.600 
#    0.000    2.000    0.000    0.000    0.000    0.000 
#    0.000    0.800    0.000    9.200    0.000    2.800 
#
# Total GULP energy -495941.430369 kJ/mol
# GULP energy per Si atom -12398.535759 kJ/mol
# Density = 1.559138 g / cm^3
# Si number density = 15.626945 Si / 1000 Ang^3
#
#
#
# Elastic Constant Matrix: (Units=GPa)
#
#
# Indices 1 2 3 4 5 6 
#
# 1 61.1039 46.8023 34.9266 0.0000 0.0000 0.0000
# 2 46.8023 121.0542 49.6346 0.0000 0.0000 0.0000
# 3 34.9266 49.6346 66.9148 0.0000 0.0000 0.0000
# 4 0.0000 0.0000 0.0000 26.5811 0.0000 0.0000
# 5 0.0000 0.0000 0.0000 0.0000 21.1089 0.0000
# 6 0.0000 0.0000 0.0000 0.0000 0.0000 18.3158
#
#
#
# Elastic Compliance Matrix: (Units=1/GPa)
#
#
# Indices 1 2 3 4 5 6 
#
# 1 0.026532 -0.006581 -0.008967 0.000000 0.000000 0.000000
# 2 -0.006581 0.013504 -0.006581 0.000000 0.000000 0.000000
# 3 -0.008967 -0.006581 0.024506 0.000000 0.000000 0.000000
# 4 0.000000 0.000000 0.000000 0.037621 0.000000 0.000000
# 5 0.000000 0.000000 0.000000 0.000000 0.047373 0.000000
# 6 0.000000 0.000000 0.000000 0.000000 0.000000 0.054598
#
#
# Mechanical properties :
#
#
# Convention : Reuss Voigt Hill
#
# Bulk Modulus (GPa) = 49.30191 56.86667 53.08429
# Shear Modulus (GPa) = 19.59606 21.04846 20.32226
#
# Velocity S-wave (km/s) = 3.54502 3.67404 3.61011
# Velocity P-wave (km/s) = 6.95514 7.38019 7.17082
#
# Compressibility (1/GPa) = 0.02028319
#
# Stress axis : x y z
#
# Youngs Moduli (GPa) = 37.69066 74.05375 40.80561
#
# Poissons Ratio (x) = 0.48736 0.36589
# Poissons Ratio (y) = 0.24805 0.26856
# Poissons Ratio (z) = 0.33796 0.48738
#
# Static dielectric constant tensor:
#      x y z
#    x 2.684840 0.000000 0.000000 
#    y 0.000000 3.207650 0.000000 
#    z 0.000000 0.000000 3.041050 
# 
# 
# High freq. dielectric constant tensor:
#      x y z
#    x 1.550170 0.000000 0.000000 
#    y 0.000000 1.602490 0.000000 
#    z 0.000000 0.000000 1.609300 
# 
# From -- ./inp_files/4803.got.cif
#   From: 2010.03.12/outbox.cif.g09.slc.cpg/sg72_3_cif.got.tgz:4803.got - 2010.04.16 14:54:00.
