data_PCOD8293874
_publ_section_title
;
Structure prediction by ZEFSAII (Michael W. Deem and Ramdas Pophale) SiO2 
 PCOD8293874
Probable space group: I B A M
;
_chemical_formula_sum "Si O2"
_cell_formula_units_Z 96
_cell_length_a 23.266444
_cell_length_b 25.632652
_cell_length_c 8.398490
_cell_angle_alpha 90.000000
_cell_angle_beta 90.000000
_cell_angle_gamma 90.000000
_cell_volume 5008.697029
_symmetry_space_group_name_H-M "I B A M"
_symmetry_group_IT_number 72
_symmetry_cell_setting 'orthorhombic'
loop_
_space_group_symop_operation_xyz
x,y,z
-x,-y,z
x,-y,1/2-z
-x,y,1/2-z
-x,-y,-z
x,y,-z
-x,y,1/2+z
x,-y,1/2+z
1/2+x,1/2+y,1/2+z
1/2-x,1/2-y,1/2+z
1/2+x,1/2-y,-z
1/2-x,1/2+y,-z
1/2-x,1/2-y,1/2-z
1/2+x,1/2+y,1/2-z
1/2-x,1/2+y,z
1/2+x,1/2-y,z
loop_
_atom_site_type_symbol
_atom_site_label
_atom_site_fract_x
_atom_site_fract_y
_atom_site_fract_z
Si Si1 0.563915 0.747051 0.689909
Si Si2 0.184091 0.556030 0.814399
Si Si3 0.635352 0.153284 0.818871
Si Si4 0.816024 0.057166 0.311566
Si Si5 0.140246 0.156330 0.685529
Si Si6 0.254217 0.193672 0.182934
O O1 0.500000 0.754862 0.750000
O O2 0.567814 0.743313 0.500000
O O3 0.598374 0.798494 0.754023
O O4 0.586831 0.692841 0.764903
O O5 0.165904 0.500000 0.750000
O O6 0.132947 0.596524 0.764709
O O7 0.249635 0.571578 0.761340
O O8 0.184494 0.552296 0.000000
O O9 0.702202 0.165580 0.800243
O O10 0.616902 0.146108 0.000000
O O11 0.824288 0.060362 0.500000
O O12 0.863748 0.094517 0.223907
O O13 0.831016 0.000000 0.250000
O O14 0.153274 0.166068 0.500000
O O15 0.191669 0.169892 0.804821
O O16 0.250000 0.250000 0.250000
O O17 0.275698 0.190910 0.000000
#
# Coordination Sequence:
#
# PCOD8293874 Si02
#       6
#    16  16  16  16  16  16
#     4  11  25  43  62  84 113 149 195 244 292 345
#     4  10  20  33  53  81 119 157 192 231 279 340
#     4  11  22  36  57  83 116 152 189 234 287 345
#     4  10  20  34  53  82 120 157 194 232 279 339
#     4  12  23  36  58  84 117 155 191 235 288 343
#     4  12  22  33  51  81 116 151 188 229 284 345
#
# _framework density 19.16666
#
# number of rings (size 3 to 8) (size 9 to 14) (size 15 to 20)
#    0.000    1.000    3.333    5.000    0.000    3.333 
#    0.000    0.000    0.000    1.000    0.000    7.000 
#    0.000    0.000    0.000    0.000    0.000    0.000 
#
# Total GULP energy -594696.348399 kJ/mol
# GULP energy per Si atom -12389.507258 kJ/mol
# Density = 1.912304 g / cm^3
# Si number density = 19.166660 Si / 1000 Ang^3
#
#
#
# Elastic Constant Matrix: (Units=GPa)
#
#
# Indices 1 2 3 4 5 6 
#
# 1 65.9056 45.4936 19.0237 0.0000 0.0000 0.0000
# 2 45.4936 155.3387 46.9261 0.0000 0.0000 0.0000
# 3 19.0237 46.9261 75.7632 0.0000 0.0000 0.0000
# 4 0.0000 0.0000 0.0000 33.8177 0.0000 0.0000
# 5 0.0000 0.0000 0.0000 0.0000 23.3943 0.0000
# 6 0.0000 0.0000 0.0000 0.0000 0.0000 16.5420
#
#
#
# Elastic Compliance Matrix: (Units=1/GPa)
#
#
# Indices 1 2 3 4 5 6 
#
# 1 0.019183 -0.005121 -0.001645 0.000000 0.000000 0.000000
# 2 -0.005121 0.009286 -0.004466 0.000000 0.000000 0.000000
# 3 -0.001645 -0.004466 0.016378 0.000000 0.000000 0.000000
# 4 0.000000 0.000000 0.000000 0.029570 0.000000 0.000000
# 5 0.000000 0.000000 0.000000 0.000000 0.042745 0.000000
# 6 0.000000 0.000000 0.000000 0.000000 0.000000 0.060452
#
#
# Mechanical properties :
#
#
# Convention : Reuss Voigt Hill
#
# Bulk Modulus (GPa) = 44.67516 57.76604 51.22060
# Shear Modulus (GPa) = 24.09163 27.12175 25.60669
#
# Velocity S-wave (km/s) = 3.54920 3.76579 3.65910
# Velocity P-wave (km/s) = 6.33681 7.00803 6.68086
#
# Compressibility (1/GPa) = 0.02238380
#
# Stress axis : x y z
#
# Youngs Moduli (GPa) = 52.12924 107.68320 61.05710
#
# Poissons Ratio (x) = 0.55147 0.10042
# Poissons Ratio (y) = 0.26697 0.27268
# Poissons Ratio (z) = 0.08574 0.48091
#
# Static dielectric constant tensor:
#      x y z
#    x 3.221110 0.000000 0.000000 
#    y 0.000000 3.942440 0.000000 
#    z 0.000000 0.000000 3.513430 
# 
# 
# High freq. dielectric constant tensor:
#      x y z
#    x 1.688060 0.000000 0.000000 
#    y 0.000000 1.772590 0.000000 
#    z 0.000000 0.000000 1.756170 
# 
# From -- ./inp_files/6024.got.cif
#   From: 2010.03.12/outbox.cif.g09.slc.cpg/sg72_4_cif.got.tgz:6024.got - 2010.04.16 14:54:00.
