data_PCOD8293312
_publ_section_title
;
Structure prediction by ZEFSAII (Michael W. Deem and Ramdas Pophale) SiO2 
 PCOD8293312
Probable space group: I B A M
;
_chemical_formula_sum "Si O2"
_cell_formula_units_Z 108
_cell_length_a 29.911578
_cell_length_b 12.431728
_cell_length_c 14.277446
_cell_angle_alpha 90.000000
_cell_angle_beta 90.000000
_cell_angle_gamma 90.000000
_cell_volume 5309.105441
_symmetry_space_group_name_H-M "I B A M"
_symmetry_group_IT_number 72
_symmetry_cell_setting 'orthorhombic'
loop_
_space_group_symop_operation_xyz
x,y,z
-x,-y,z
x,-y,1/2-z
-x,y,1/2-z
-x,-y,-z
x,y,-z
-x,y,1/2+z
x,-y,1/2+z
1/2+x,1/2+y,1/2+z
1/2-x,1/2-y,1/2+z
1/2+x,1/2-y,-z
1/2-x,1/2+y,-z
1/2-x,1/2-y,1/2-z
1/2+x,1/2+y,1/2-z
1/2-x,1/2+y,z
1/2+x,1/2-y,z
loop_
_atom_site_type_symbol
_atom_site_label
_atom_site_fract_x
_atom_site_fract_y
_atom_site_fract_z
Si Si1 0.207997 0.985781 0.110474
Si Si2 0.433431 0.391434 0.891447
Si Si3 0.796361 0.238239 0.196006
Si Si4 0.303938 0.051939 0.895068
Si Si5 0.623107 0.604676 0.604982
Si Si6 0.392342 0.767331 0.253681
Si Si7 0.622387 0.000000 0.250000
Si Si8 0.500000 0.500000 0.750000
O O1 0.191610 0.879645 0.161514
O O2 0.257987 0.004632 0.147310
O O3 0.174870 0.085241 0.137945
O O4 0.205938 0.969131 0.000000
O O5 0.398056 0.486984 0.889392
O O6 0.410245 0.282301 0.851620
O O7 0.473174 0.421664 0.820354
O O8 0.449446 0.371763 0.000000
O O9 0.750000 0.250000 0.250000
O O10 0.797289 0.319344 0.107669
O O11 0.838540 0.276087 0.257855
O O12 0.346610 0.007187 0.841154
O O13 0.310762 0.012431 0.000000
O O14 0.621233 0.650864 0.500000
O O15 0.594429 0.687076 0.668661
O O16 0.408814 0.891891 0.242874
#
# Coordination Sequence:
#
# PCOD8293312 Si02
#       8
#    16  16  16  16  16  16   8   4
#     4  10  19  31  49  72 104 147 202 259 315 370
#     4  11  23  40  67 101 131 161 196 245 320 396
#     4  11  21  31  50  75 111 159 213 267 316 365
#     4  10  21  35  48  71 109 158 214 270 322 364
#     4  10  20  35  57  87 116 152 199 251 315 379
#     4  11  21  38  58  84 123 165 208 263 309 370
#     4  10  24  38  55  81 114 168 222 258 302 362
#     4  12  22  44  70 108 140 156 186 254 326 406
#
# _framework density 20.342410999999998
#
# number of rings (size 3 to 8) (size 9 to 14) (size 15 to 20)
#    0.000    1.481    2.963    3.333    0.000    4.148 
#    0.000    3.704    0.000    0.444    0.000    1.037 
#    0.000    0.000    0.000    0.000    0.000    0.000 
#
# Total GULP energy -669158.056354 kJ/mol
# GULP energy per Si atom -12391.815858 kJ/mol
# Density = 2.029611 g / cm^3
# Si number density = 20.342411 Si / 1000 Ang^3
#
#
#
# Elastic Constant Matrix: (Units=GPa)
#
#
# Indices 1 2 3 4 5 6 
#
# 1 48.2837 6.8379 23.5631 0.0000 0.0000 0.0000
# 2 6.8379 132.9431 50.0881 0.0000 0.0000 0.0000
# 3 23.5631 50.0881 107.8784 0.0000 0.0000 0.0000
# 4 0.0000 0.0000 0.0000 22.4880 0.0000 0.0000
# 5 0.0000 0.0000 0.0000 0.0000 28.5550 0.0000
# 6 0.0000 0.0000 0.0000 0.0000 0.0000 16.3134
#
#
#
# Elastic Compliance Matrix: (Units=1/GPa)
#
#
# Indices 1 2 3 4 5 6 
#
# 1 0.023265 0.000870 -0.005486 0.000000 0.000000 0.000000
# 2 0.000870 0.009149 -0.004438 0.000000 0.000000 0.000000
# 3 -0.005486 -0.004438 0.012529 0.000000 0.000000 0.000000
# 4 0.000000 0.000000 0.000000 0.044468 0.000000 0.000000
# 5 0.000000 0.000000 0.000000 0.000000 0.035020 0.000000
# 6 0.000000 0.000000 0.000000 0.000000 0.000000 0.061299
#
#
# Mechanical properties :
#
#
# Convention : Reuss Voigt Hill
#
# Bulk Modulus (GPa) = 37.26407 50.00928 43.63668
# Shear Modulus (GPa) = 23.49818 27.37903 25.43860
#
# Velocity S-wave (km/s) = 3.40241 3.67264 3.54011
# Velocity P-wave (km/s) = 5.81321 6.52852 6.18122
#
# Compressibility (1/GPa) = 0.02683550
#
# Stress axis : x y z
#
# Youngs Moduli (GPa) = 42.98356 109.29696 79.81799
#
# Poissons Ratio (x) = -0.09510 0.43785
# Poissons Ratio (y) = -0.03740 0.35424
# Poissons Ratio (z) = 0.23579 0.48507
#
# Static dielectric constant tensor:
#      x y z
#    x 3.443120 0.000000 0.000000 
#    y 0.000000 4.006090 0.000000 
#    z 0.000000 0.000000 3.971220 
# 
# 
# High freq. dielectric constant tensor:
#      x y z
#    x 1.755380 0.000000 0.000000 
#    y 0.000000 1.790560 0.000000 
#    z 0.000000 0.000000 1.801870 
# 
# From -- ./inp_files/26452.got.cif
#   From: 2010.03.12/outbox.cif.g09.slc.cpg/sg72_14_cif.got.tgz:26452.got - 2010.04.16 14:54:00.
