data_PCOD8293535
_publ_section_title
;
Structure prediction by ZEFSAII (Michael W. Deem and Ramdas Pophale) SiO2 
 PCOD8293535
Probable space group: I B A M
;
_chemical_formula_sum "Si O2"
_cell_formula_units_Z 96
_cell_length_a 28.470861
_cell_length_b 20.146073
_cell_length_c 8.932123
_cell_angle_alpha 90.000000
_cell_angle_beta 90.000000
_cell_angle_gamma 90.000000
_cell_volume 5123.251776
_symmetry_space_group_name_H-M "I B A M"
_symmetry_group_IT_number 72
_symmetry_cell_setting 'orthorhombic'
loop_
_space_group_symop_operation_xyz
x,y,z
-x,-y,z
x,-y,1/2-z
-x,y,1/2-z
-x,-y,-z
x,y,-z
-x,y,1/2+z
x,-y,1/2+z
1/2+x,1/2+y,1/2+z
1/2-x,1/2-y,1/2+z
1/2+x,1/2-y,-z
1/2-x,1/2+y,-z
1/2-x,1/2-y,1/2-z
1/2+x,1/2+y,1/2-z
1/2-x,1/2+y,z
1/2+x,1/2-y,z
loop_
_atom_site_type_symbol
_atom_site_label
_atom_site_fract_x
_atom_site_fract_y
_atom_site_fract_z
Si Si1 0.589754 0.684251 0.167873
Si Si2 0.631355 0.071363 0.322526
Si Si3 0.791677 0.656839 0.172417
Si Si4 0.050390 0.327357 0.324203
Si Si5 0.449788 0.562861 0.175143
Si Si6 0.804776 0.789994 0.333491
O O1 0.571873 0.756235 0.221242
O O2 0.574155 0.632389 0.291533
O O3 0.645349 0.675335 0.166720
O O4 0.570193 0.669311 0.000000
O O5 0.633024 0.064411 0.500000
O O6 0.680854 0.102629 0.270171
O O7 0.587795 0.117407 0.270282
O O8 0.623784 0.000000 0.250000
O O9 0.807131 0.731243 0.213724
O O10 0.735348 0.654980 0.204743
O O11 0.803757 0.642666 0.000000
O O12 0.043054 0.332184 0.500000
O O13 0.000000 0.339921 0.250000
O O14 0.422438 0.500000 0.250000
O O15 0.500000 0.566206 0.250000
O O16 0.453501 0.551481 0.000000
O O17 0.794277 0.760393 0.500000
#
# Coordination Sequence:
#
# PCOD8293535 Si02
#       6
#    16  16  16  16  16  16
#     4  10  19  36  58  84 116 151 185 232 285 334
#     4  11  23  41  60  82 114 155 196 244 298 350
#     4  10  19  33  57  87 113 146 187 228 276 336
#     4  10  22  38  58  82 114 150 191 241 294 343
#     4  11  22  37  56  80 109 147 189 230 277 336
#     4   9  18  34  57  84 117 148 181 226 278 330
#
# _framework density 18.738098999999998
#
# number of rings (size 3 to 8) (size 9 to 14) (size 15 to 20)
#    0.000    1.833    1.667    3.500    0.000    5.000 
#    0.000    2.500    0.000    0.000    0.000    0.000 
#    0.000    0.000    0.000    0.000    0.000    0.000 
#
# Total GULP energy -595030.185936 kJ/mol
# GULP energy per Si atom -12396.462207 kJ/mol
# Density = 1.869545 g / cm^3
# Si number density = 18.738099 Si / 1000 Ang^3
#
#
#
# Elastic Constant Matrix: (Units=GPa)
#
#
# Indices 1 2 3 4 5 6 
#
# 1 104.8403 62.4042 42.8631 0.0000 0.0000 0.0000
# 2 62.4042 137.2997 57.2233 0.0000 0.0000 0.0000
# 3 42.8631 57.2233 99.2064 0.0000 0.0000 0.0000
# 4 0.0000 0.0000 0.0000 33.2154 0.0000 0.0000
# 5 0.0000 0.0000 0.0000 0.0000 24.7766 0.0000
# 6 0.0000 0.0000 0.0000 0.0000 0.0000 24.6677
#
#
#
# Elastic Compliance Matrix: (Units=1/GPa)
#
#
# Indices 1 2 3 4 5 6 
#
# 1 0.013754 -0.004969 -0.003076 0.000000 0.000000 0.000000
# 2 -0.004969 0.011384 -0.004419 0.000000 0.000000 0.000000
# 3 -0.003076 -0.004419 0.013958 0.000000 0.000000 0.000000
# 4 0.000000 0.000000 0.000000 0.030107 0.000000 0.000000
# 5 0.000000 0.000000 0.000000 0.000000 0.040361 0.000000
# 6 0.000000 0.000000 0.000000 0.000000 0.000000 0.040539
#
#
# Mechanical properties :
#
#
# Convention : Reuss Voigt Hill
#
# Bulk Modulus (GPa) = 70.58943 74.03640 72.31292
# Shear Modulus (GPa) = 27.81593 28.45566 28.13580
#
# Velocity S-wave (km/s) = 3.85705 3.90115 3.87916
# Velocity P-wave (km/s) = 7.58875 7.73879 7.66414
#
# Compressibility (1/GPa) = 0.01416643
#
# Stress axis : x y z
#
# Youngs Moduli (GPa) = 72.70718 87.84478 71.64260
#
# Poissons Ratio (x) = 0.43651 0.22039
# Poissons Ratio (y) = 0.36129 0.31661
# Poissons Ratio (z) = 0.22366 0.38821
#
# Static dielectric constant tensor:
#      x y z
#    x 3.586920 0.000000 0.000000 
#    y 0.000000 3.905590 0.000000 
#    z 0.000000 0.000000 3.571220 
# 
# 
# High freq. dielectric constant tensor:
#      x y z
#    x 1.730000 0.000000 0.000000 
#    y 0.000000 1.714590 0.000000 
#    z 0.000000 0.000000 1.733880 
# 
# From -- ./inp_files/8067.got.cif
#   From: 2010.03.12/outbox.cif.g09.slc.cpg/sg72_5_cif.got.tgz:8067.got - 2010.04.16 14:54:00.
