data_PCOD8293132
_publ_section_title
;
Structure prediction by ZEFSAII (Michael W. Deem and Ramdas Pophale) SiO2 
 PCOD8293132
Probable space group: I B A M
;
_chemical_formula_sum "Si O2"
_cell_formula_units_Z 96
_cell_length_a 29.373216
_cell_length_b 10.362915
_cell_length_c 17.514331
_cell_angle_alpha 90.000000
_cell_angle_beta 90.000000
_cell_angle_gamma 90.000000
_cell_volume 5331.224706
_symmetry_space_group_name_H-M "I B A M"
_symmetry_group_IT_number 72
_symmetry_cell_setting 'orthorhombic'
loop_
_space_group_symop_operation_xyz
x,y,z
-x,-y,z
x,-y,1/2-z
-x,y,1/2-z
-x,-y,-z
x,y,-z
-x,y,1/2+z
x,-y,1/2+z
1/2+x,1/2+y,1/2+z
1/2-x,1/2-y,1/2+z
1/2+x,1/2-y,-z
1/2-x,1/2+y,-z
1/2-x,1/2-y,1/2-z
1/2+x,1/2+y,1/2-z
1/2-x,1/2+y,z
1/2+x,1/2-y,z
loop_
_atom_site_type_symbol
_atom_site_label
_atom_site_fract_x
_atom_site_fract_y
_atom_site_fract_z
Si Si1 0.882214 0.491245 0.839833
Si Si2 0.286075 0.988632 0.590959
Si Si3 0.520692 0.370251 0.090424
Si Si4 0.386033 0.736556 0.089895
Si Si5 0.032124 0.380636 0.410065
Si Si6 0.285173 0.719199 0.090124
O O1 0.877533 0.500000 0.750000
O O2 0.834207 0.446234 0.874591
O O3 0.897717 0.628375 0.871875
O O4 0.920369 0.388430 0.864724
O O5 0.289631 0.982191 0.500000
O O6 0.248953 0.887815 0.624698
O O7 0.273058 0.134793 0.617080
O O8 0.500000 0.500000 0.127293
O O9 0.574103 0.362486 0.113422
O O10 0.492665 0.247725 0.120645
O O11 0.516128 0.373951 0.000000
O O12 0.336686 0.683846 0.116466
O O13 0.385805 0.763445 0.000000
O O14 0.042365 0.375812 0.500000
O O15 0.000000 0.500000 0.389078
O O16 0.281251 0.711374 0.000000
#
# Coordination Sequence:
#
# PCOD8293132 Si02
#       6
#    16  16  16  16  16  16
#     4  11  21  32  50  76 103 133 176 211 249 296
#     4   9  17  33  52  75 101 130 165 211 259 301
#     4   9  17  30  50  78 105 128 161 204 255 309
#     4   9  16  32  53  72 101 137 165 202 259 308
#     4  10  18  32  54  77  99 130 168 209 254 300
#     4   8  15  28  51  75  98 126 163 204 249 295
#
# _framework density 18.007118999999999
#
# number of rings (size 3 to 8) (size 9 to 14) (size 15 to 20)
#    0.000    2.667    1.667    2.500    0.000    0.333 
#    3.000    3.333    0.000    2.000    0.000    0.000 
#    0.000    0.000    0.000    0.000    0.000    0.000 
#
# Total GULP energy -595002.815864 kJ/mol
# GULP energy per Si atom -12395.891997 kJ/mol
# Density = 1.796613 g / cm^3
# Si number density = 18.007119 Si / 1000 Ang^3
#
#
#
# Elastic Constant Matrix: (Units=GPa)
#
#
# Indices 1 2 3 4 5 6 
#
# 1 167.6922 99.3820 28.7385 0.0000 0.0000 0.0000
# 2 99.3820 132.7037 17.8020 0.0000 0.0000 0.0000
# 3 28.7385 17.8020 33.5151 0.0000 0.0000 0.0000
# 4 0.0000 0.0000 0.0000 5.2228 0.0000 0.0000
# 5 0.0000 0.0000 0.0000 0.0000 7.6777 0.0000
# 6 0.0000 0.0000 0.0000 0.0000 0.0000 34.8863
#
#
#
# Elastic Compliance Matrix: (Units=1/GPa)
#
#
# Indices 1 2 3 4 5 6 
#
# 1 0.011677 -0.007970 -0.005780 0.000000 0.000000 0.000000
# 2 -0.007970 0.013553 -0.000365 0.000000 0.000000 0.000000
# 3 -0.005780 -0.000365 0.034987 0.000000 0.000000 0.000000
# 4 0.000000 0.000000 0.000000 0.191470 0.000000 0.000000
# 5 0.000000 0.000000 0.000000 0.000000 0.130247 0.000000
# 6 0.000000 0.000000 0.000000 0.000000 0.000000 0.028665
#
#
# Mechanical properties :
#
#
# Convention : Reuss Voigt Hill
#
# Bulk Modulus (GPa) = 31.26122 69.52844 50.39483
# Shear Modulus (GPa) = 11.12373 22.08992 16.60683
#
# Velocity S-wave (km/s) = 2.48814 3.50627 3.04013
# Velocity P-wave (km/s) = 5.06484 7.42209 6.35374
#
# Compressibility (1/GPa) = 0.03198852
#
# Stress axis : x y z
#
# Youngs Moduli (GPa) = 85.63927 73.78466 28.58193
#
# Poissons Ratio (x) = 0.58803 0.16519
# Poissons Ratio (y) = 0.68250 0.01044
# Poissons Ratio (z) = 0.49496 0.02694
#
# Static dielectric constant tensor:
#      x y z
#    x 3.642180 0.000000 0.000000 
#    y 0.000000 3.577400 0.000000 
#    z 0.000000 0.000000 2.878130 
# 
# 
# High freq. dielectric constant tensor:
#      x y z
#    x 1.712020 0.000000 0.000000 
#    y 0.000000 1.685620 0.000000 
#    z 0.000000 0.000000 1.650110 
# 
# From -- ./inp_files/40842.got.cif
#   From: 2010.03.12/outbox.cif.g09.slc.cpg/sg72_21_cif.got.tgz:40842.got - 2010.04.16 14:54:00.
