data_PCOD8293591
_publ_section_title
;
Structure prediction by ZEFSAII (Michael W. Deem and Ramdas Pophale) SiO2 
 PCOD8293591
Probable space group: I B A M
;
_chemical_formula_sum "Si O2"
_cell_formula_units_Z 96
_cell_length_a 13.174971
_cell_length_b 16.424644
_cell_length_c 22.487481
_cell_angle_alpha 90.000000
_cell_angle_beta 90.000000
_cell_angle_gamma 90.000000
_cell_volume 4866.160650
_symmetry_space_group_name_H-M "I B A M"
_symmetry_group_IT_number 72
_symmetry_cell_setting 'orthorhombic'
loop_
_space_group_symop_operation_xyz
x,y,z
-x,-y,z
x,-y,1/2-z
-x,y,1/2-z
-x,-y,-z
x,y,-z
-x,y,1/2+z
x,-y,1/2+z
1/2+x,1/2+y,1/2+z
1/2-x,1/2-y,1/2+z
1/2+x,1/2-y,-z
1/2-x,1/2+y,-z
1/2-x,1/2-y,1/2-z
1/2+x,1/2+y,1/2-z
1/2-x,1/2+y,z
1/2+x,1/2-y,z
loop_
_atom_site_type_symbol
_atom_site_label
_atom_site_fract_x
_atom_site_fract_y
_atom_site_fract_z
Si Si1 0.825960 0.065975 0.826674
Si Si2 0.782812 0.881933 0.201900
Si Si3 0.140959 0.291922 0.380124
Si Si4 0.003710 0.829354 0.683611
Si Si5 0.726057 0.844212 0.430020
Si Si6 0.488237 0.910134 0.931492
O O1 0.780407 0.124741 0.773921
O O2 0.947318 0.081989 0.820913
O O3 0.790901 0.091553 0.892152
O O4 0.789027 0.975756 0.816061
O O5 0.682622 0.838226 0.178012
O O6 0.878186 0.839909 0.168621
O O7 0.051495 0.231121 0.361583
O O8 0.232352 0.246208 0.414661
O O9 0.091045 0.359398 0.422378
O O10 0.000000 0.793597 0.750000
O O11 0.741797 0.861089 0.500000
O O12 0.609494 0.858290 0.408877
O O13 0.500000 0.000000 0.900763
O O14 0.469962 0.925619 0.000000
#
# Coordination Sequence:
#
# PCOD8293591 Si02
#       6
#    16  16  16  16  16  16
#     4   9  19  35  57  80 105 138 177 221 266 316
#     4  10  19  34  55  81 108 137 175 218 267 318
#     4  11  21  33  54  80 108 138 176 224 267 310
#     4   9  19  33  52  77 106 139 171 208 263 324
#     4  10  21  37  56  78 107 142 181 223 264 314
#     4  10  21  37  55  75 104 144 183 217 264 325
#
# _framework density 19.728079000000001
#
# number of rings (size 3 to 8) (size 9 to 14) (size 15 to 20)
#    0.000    2.167    0.000    3.000    0.000    9.333 
#    0.000    0.833    0.000   13.000    0.000    0.000 
#    0.000    0.000    0.000    0.000    0.000    0.000 
#
# Total GULP energy -594750.796810 kJ/mol
# GULP energy per Si atom -12390.641600 kJ/mol
# Density = 1.968318 g / cm^3
# Si number density = 19.728079 Si / 1000 Ang^3
#
#
#
# Elastic Constant Matrix: (Units=GPa)
#
#
# Indices 1 2 3 4 5 6 
#
# 1 97.5720 45.4722 27.3932 0.0000 0.0000 0.0000
# 2 45.4722 103.1387 25.5683 0.0000 0.0000 0.0000
# 3 27.3932 25.5683 76.6716 0.0000 0.0000 0.0000
# 4 0.0000 0.0000 0.0000 21.8662 0.0000 0.0000
# 5 0.0000 0.0000 0.0000 0.0000 25.6636 0.0000
# 6 0.0000 0.0000 0.0000 0.0000 0.0000 28.3591
#
#
#
# Elastic Compliance Matrix: (Units=1/GPa)
#
#
# Indices 1 2 3 4 5 6 
#
# 1 0.013545 -0.005202 -0.003105 0.000000 0.000000 0.000000
# 2 -0.005202 0.012567 -0.002332 0.000000 0.000000 0.000000
# 3 -0.003105 -0.002332 0.014930 0.000000 0.000000 0.000000
# 4 0.000000 0.000000 0.000000 0.045733 0.000000 0.000000
# 5 0.000000 0.000000 0.000000 0.000000 0.038966 0.000000
# 6 0.000000 0.000000 0.000000 0.000000 0.000000 0.035262
#
#
# Mechanical properties :
#
#
# Convention : Reuss Voigt Hill
#
# Bulk Modulus (GPa) = 50.59722 52.69440 51.64581
# Shear Modulus (GPa) = 26.47352 27.10770 26.79061
#
# Velocity S-wave (km/s) = 3.66720 3.71086 3.68909
# Velocity P-wave (km/s) = 6.60561 6.71781 6.66195
#
# Compressibility (1/GPa) = 0.01976393
#
# Stress axis : x y z
#
# Youngs Moduli (GPa) = 73.82916 79.57106 66.98104
#
# Poissons Ratio (x) = 0.41393 0.20794
# Poissons Ratio (y) = 0.38406 0.15622
# Poissons Ratio (z) = 0.22920 0.18559
#
# Static dielectric constant tensor:
#      x y z
#    x 3.689700 0.000000 0.000000 
#    y 0.000000 3.612070 0.000000 
#    z 0.000000 0.000000 3.403890 
# 
# 
# High freq. dielectric constant tensor:
#      x y z
#    x 1.769510 0.000000 0.000000 
#    y 0.000000 1.768720 0.000000 
#    z 0.000000 0.000000 1.752300 
# 
# From -- ./inp_files/48109.got.cif
#   From: 2010.03.12/outbox.cif.g09.slc.cpg/sg72_25_cif.got.tgz:48109.got - 2010.04.16 14:54:00.
