data_PCOD8293130
_publ_section_title
;
Structure prediction by ZEFSAII (Michael W. Deem and Ramdas Pophale) SiO2 
 PCOD8293130
Probable space group: I B A M
;
_chemical_formula_sum "Si O2"
_cell_formula_units_Z 60
_cell_length_a 14.285078
_cell_length_b 8.026025
_cell_length_c 26.047488
_cell_angle_alpha 90.000000
_cell_angle_beta 90.000000
_cell_angle_gamma 90.000000
_cell_volume 2986.406835
_symmetry_space_group_name_H-M "I B A M"
_symmetry_group_IT_number 72
_symmetry_cell_setting 'orthorhombic'
loop_
_space_group_symop_operation_xyz
x,y,z
-x,-y,z
x,-y,1/2-z
-x,y,1/2-z
-x,-y,-z
x,y,-z
-x,y,1/2+z
x,-y,1/2+z
1/2+x,1/2+y,1/2+z
1/2-x,1/2-y,1/2+z
1/2+x,1/2-y,-z
1/2-x,1/2+y,-z
1/2-x,1/2-y,1/2-z
1/2+x,1/2+y,1/2-z
1/2-x,1/2+y,z
1/2+x,1/2-y,z
loop_
_atom_site_type_symbol
_atom_site_label
_atom_site_fract_x
_atom_site_fract_y
_atom_site_fract_z
Si Si1 0.794768 0.516513 0.374249
Si Si2 0.339037 0.273220 0.442852
Si Si3 0.378050 0.329993 0.166099
Si Si4 0.000000 0.000000 0.250000
Si Si5 0.000000 0.000000 0.416013
O O1 0.746804 0.625064 0.418863
O O2 0.858369 0.381169 0.404245
O O3 0.719370 0.430768 0.336647
O O4 0.858377 0.631809 0.337230
O O5 0.310680 0.211852 0.500000
O O6 0.430951 0.387124 0.449658
O O7 0.433658 0.377702 0.217451
O O8 0.440527 0.373295 0.117587
#
# Coordination Sequence:
#
# PCOD8293130 Si02
#       5
#    16  16  16   4   8
#     4   9  19  34  54  77 112 143 178 222 268 314
#     4  10  18  32  53  80 110 150 187 217 257 319
#     4   9  19  36  55  78 105 141 175 223 275 322
#     4  10  20  36  62  82 106 136 178 224 280 344
#     4   9  19  33  51  76 114 144 177 227 271 299
#
# _framework density 20.091034000000001
#
# number of rings (size 3 to 8) (size 9 to 14) (size 15 to 20)
#    0.000    2.667    0.000    1.200    0.000    2.133 
#    0.000    5.333    0.000   25.600    0.000    0.000 
#    0.000    0.000    0.000    0.000    0.000    0.000 
#
# Total GULP energy -371877.428653 kJ/mol
# GULP energy per Si atom -12395.914288 kJ/mol
# Density = 2.004531 g / cm^3
# Si number density = 20.091034 Si / 1000 Ang^3
#
#
#
# Elastic Constant Matrix: (Units=GPa)
#
#
# Indices 1 2 3 4 5 6 
#
# 1 79.2346 49.2959 39.7479 0.0000 0.0000 0.0000
# 2 49.2959 125.4683 52.4806 0.0000 0.0000 0.0000
# 3 39.7479 52.4806 113.4140 0.0000 0.0000 0.0000
# 4 0.0000 0.0000 0.0000 18.0705 0.0000 0.0000
# 5 0.0000 0.0000 0.0000 0.0000 10.3204 0.0000
# 6 0.0000 0.0000 0.0000 0.0000 0.0000 24.8847
#
#
#
# Elastic Compliance Matrix: (Units=1/GPa)
#
#
# Indices 1 2 3 4 5 6 
#
# 1 0.017900 -0.005467 -0.003744 0.000000 0.000000 0.000000
# 2 -0.005467 0.011553 -0.003430 0.000000 0.000000 0.000000
# 3 -0.003744 -0.003430 0.011716 0.000000 0.000000 0.000000
# 4 0.000000 0.000000 0.000000 0.055339 0.000000 0.000000
# 5 0.000000 0.000000 0.000000 0.000000 0.096895 0.000000
# 6 0.000000 0.000000 0.000000 0.000000 0.000000 0.040185
#
#
# Mechanical properties :
#
#
# Convention : Reuss Voigt Hill
#
# Bulk Modulus (GPa) = 62.93960 66.79619 64.86789
# Shear Modulus (GPa) = 18.92754 22.42796 20.67775
#
# Velocity S-wave (km/s) = 3.07268 3.34476 3.21160
# Velocity P-wave (km/s) = 6.63202 6.94518 6.79040
#
# Compressibility (1/GPa) = 0.01588825
#
# Stress axis : x y z
#
# Youngs Moduli (GPa) = 55.86595 86.55977 85.35060
#
# Poissons Ratio (x) = 0.47322 0.31952
# Poissons Ratio (y) = 0.30542 0.29274
# Poissons Ratio (z) = 0.20914 0.29689
#
# Static dielectric constant tensor:
#      x y z
#    x 3.774130 0.000000 0.000000 
#    y 0.000000 3.824140 0.000000 
#    z 0.000000 0.000000 3.389460 
# 
# 
# High freq. dielectric constant tensor:
#      x y z
#    x 1.777690 0.000000 0.000000 
#    y 0.000000 1.786800 0.000000 
#    z 0.000000 0.000000 1.767270 
# 
# From -- ./inp_files/41847.got.cif
#   From: 2010.03.12/outbox.cif.g09.slc.cpg/sg72_21_cif.got.tgz:41847.got - 2010.04.16 14:54:00.
