data_PCOD8293893
_publ_section_title
;
Structure prediction by ZEFSAII (Michael W. Deem and Ramdas Pophale) SiO2 
 PCOD8293893
Probable space group: I B A M
;
_chemical_formula_sum "Si O2"
_cell_formula_units_Z 112
_cell_length_a 16.273448
_cell_length_b 19.525941
_cell_length_c 19.048635
_cell_angle_alpha 90.000000
_cell_angle_beta 90.000000
_cell_angle_gamma 90.000000
_cell_volume 6052.787309
_symmetry_space_group_name_H-M "I B A M"
_symmetry_group_IT_number 72
_symmetry_cell_setting 'orthorhombic'
loop_
_space_group_symop_operation_xyz
x,y,z
-x,-y,z
x,-y,1/2-z
-x,y,1/2-z
-x,-y,-z
x,y,-z
-x,y,1/2+z
x,-y,1/2+z
1/2+x,1/2+y,1/2+z
1/2-x,1/2-y,1/2+z
1/2+x,1/2-y,-z
1/2-x,1/2+y,-z
1/2-x,1/2-y,1/2-z
1/2+x,1/2+y,1/2-z
1/2-x,1/2+y,z
1/2+x,1/2-y,z
loop_
_atom_site_type_symbol
_atom_site_label
_atom_site_fract_x
_atom_site_fract_y
_atom_site_fract_z
Si Si1 0.720305 0.896573 0.341471
Si Si2 0.791537 0.246658 0.850725
Si Si3 0.892334 0.356979 0.079250
Si Si4 0.256674 0.033028 0.082183
Si Si5 0.662938 0.432843 0.782788
Si Si6 0.872374 0.213062 0.709377
Si Si7 0.039627 0.659670 0.678616
O O1 0.773590 0.832293 0.370209
O O2 0.756052 0.920743 0.266000
O O3 0.626592 0.876299 0.330735
O O4 0.723279 0.954134 0.401248
O O5 0.844083 0.285454 0.909381
O O6 0.844656 0.252568 0.779702
O O7 0.705854 0.287475 0.842753
O O8 0.836066 0.421382 0.100011
O O9 0.978804 0.361499 0.117675
O O10 0.918882 0.361111 0.000000
O O11 0.184385 0.055932 0.135241
O O12 0.230255 0.041020 0.000000
O O13 0.617655 0.500000 0.750000
O O14 0.603029 0.366451 0.778033
O O15 0.948073 0.257014 0.678629
O O16 0.000000 0.633082 0.750000
#
# Coordination Sequence:
#
# PCOD8293893 Si02
#       7
#    16  16  16  16  16  16  16
#     4   9  20  33  54  78 101 133 178 224 255 309
#     4   9  16  32  54  76  97 130 174 225 262 295
#     4  11  22  34  49  75 111 144 174 210 262 321
#     4  10  20  34  50  72 108 144 172 209 265 316
#     4   9  16  31  54  82 101 125 172 225 267 307
#     4   9  16  30  56  77 100 126 175 224 260 302
#     4  11  20  33  53  76 103 141 176 214 263 306
#
# _framework density 18.503872000000001
#
# number of rings (size 3 to 8) (size 9 to 14) (size 15 to 20)
#    0.000    2.286    2.857    1.714    0.000    1.714 
#    0.000    5.000    0.000    0.429    0.000    0.000 
#    0.000    5.143    0.000    0.000    0.000    0.000 
#
# Total GULP energy -694112.220412 kJ/mol
# GULP energy per Si atom -12394.861079 kJ/mol
# Density = 1.846176 g / cm^3
# Si number density = 18.503872 Si / 1000 Ang^3
#
#
#
# Elastic Constant Matrix: (Units=GPa)
#
#
# Indices 1 2 3 4 5 6 
#
# 1 21.7302 -3.2838 9.9660 0.0000 0.0000 0.0000
# 2 -3.2838 100.0740 17.7759 0.0000 0.0000 0.0000
# 3 9.9660 17.7759 71.9424 0.0000 0.0000 0.0000
# 4 0.0000 0.0000 0.0000 20.7047 0.0000 0.0000
# 5 0.0000 0.0000 0.0000 0.0000 21.3903 0.0000
# 6 0.0000 0.0000 0.0000 0.0000 0.0000 20.2118
#
#
#
# Elastic Compliance Matrix: (Units=1/GPa)
#
#
# Indices 1 2 3 4 5 6 
#
# 1 0.049989 0.003002 -0.007667 0.000000 0.000000 0.000000
# 2 0.003002 0.010632 -0.003043 0.000000 0.000000 0.000000
# 3 -0.007667 -0.003043 0.015714 0.000000 0.000000 0.000000
# 4 0.000000 0.000000 0.000000 0.048298 0.000000 0.000000
# 5 0.000000 0.000000 0.000000 0.000000 0.046750 0.000000
# 6 0.000000 0.000000 0.000000 0.000000 0.000000 0.049476
#
#
# Mechanical properties :
#
#
# Convention : Reuss Voigt Hill
#
# Bulk Modulus (GPa) = 16.41505 26.96253 21.68879
# Shear Modulus (GPa) = 19.48712 23.74725 21.61718
#
# Velocity S-wave (km/s) = 3.24873 3.58630 3.42168
# Velocity P-wave (km/s) = 4.79194 5.63486 5.23041
#
# Compressibility (1/GPa) = 0.06091971
#
# Stress axis : x y z
#
# Youngs Moduli (GPa) = 20.00452 94.05924 63.63805
#
# Poissons Ratio (x) = -0.28238 0.48789
# Poissons Ratio (y) = -0.06006 0.19364
# Poissons Ratio (z) = 0.15337 0.28620
#
# Static dielectric constant tensor:
#      x y z
#    x 3.076970 0.000000 0.000000 
#    y 0.000000 3.724640 0.000000 
#    z 0.000000 0.000000 3.245480 
# 
# 
# High freq. dielectric constant tensor:
#      x y z
#    x 1.685740 0.000000 0.000000 
#    y 0.000000 1.735020 0.000000 
#    z 0.000000 0.000000 1.699070 
# 
# From -- ./inp_files/31904.got.cif
#   From: 2010.03.12/outbox.cif.g09.slc.cpg/sg72_16_cif.got.tgz:31904.got - 2010.04.16 14:54:00.
