data_PCOD8293142
_publ_section_title
;
Structure prediction by ZEFSAII (Michael W. Deem and Ramdas Pophale) SiO2 
 PCOD8293142
Probable space group: I B A M
;
_chemical_formula_sum "Si O2"
_cell_formula_units_Z 112
_cell_length_a 17.654795
_cell_length_b 19.306166
_cell_length_c 16.676441
_cell_angle_alpha 90.000000
_cell_angle_beta 90.000000
_cell_angle_gamma 90.000000
_cell_volume 5684.104929
_symmetry_space_group_name_H-M "I B A M"
_symmetry_group_IT_number 72
_symmetry_cell_setting 'orthorhombic'
loop_
_space_group_symop_operation_xyz
x,y,z
-x,-y,z
x,-y,1/2-z
-x,y,1/2-z
-x,-y,-z
x,y,-z
-x,y,1/2+z
x,-y,1/2+z
1/2+x,1/2+y,1/2+z
1/2-x,1/2-y,1/2+z
1/2+x,1/2-y,-z
1/2-x,1/2+y,-z
1/2-x,1/2-y,1/2-z
1/2+x,1/2+y,1/2-z
1/2-x,1/2+y,z
1/2+x,1/2-y,z
loop_
_atom_site_type_symbol
_atom_site_label
_atom_site_fract_x
_atom_site_fract_y
_atom_site_fract_z
Si Si1 0.314001 0.522866 0.161843
Si Si2 0.357048 0.037169 0.165733
Si Si3 0.783652 0.121155 0.093163
Si Si4 0.621326 0.898471 0.408412
Si Si5 0.461473 0.428267 0.405141
Si Si6 0.538208 0.848031 0.096070
Si Si7 0.070321 0.191928 0.404782
O O1 0.337896 0.500000 0.250000
O O2 0.231309 0.558627 0.162737
O O3 0.313998 0.456612 0.103758
O O4 0.376373 0.576926 0.129824
O O5 0.403783 0.106221 0.147573
O O6 0.377750 0.000000 0.250000
O O7 0.379130 0.981741 0.097577
O O8 0.699605 0.129600 0.133699
O O9 0.845803 0.173594 0.129891
O O10 0.773767 0.135588 0.000000
O O11 0.621848 0.876162 0.500000
O O12 0.545601 0.866231 0.370969
O O13 0.500000 0.500000 0.376614
O O14 0.456568 0.424636 0.500000
O O15 0.508875 0.362870 0.370897
O O16 0.550670 0.769045 0.121725
O O17 0.548053 0.859995 0.000000
O O18 0.072125 0.184431 0.500000
#
# Coordination Sequence:
#
# PCOD8293142 Si02
#       7
#    16  16  16  16  16  16  16
#     4  10  20  33  53  80 110 139 185 235 274 320
#     4  10  21  36  56  77 107 144 184 226 274 329
#     4   9  16  32  55  76 103 143 180 218 275 333
#     4   9  18  32  55  79 101 134 179 226 274 329
#     4  10  18  32  56  81 106 143 188 230 273 325
#     4  10  20  35  54  83 113 138 179 234 284 330
#     4   9  18  33  53  78 111 144 177 225 281 338
#
# _framework density 19.704070000000002
#
# number of rings (size 3 to 8) (size 9 to 14) (size 15 to 20)
#    0.000    2.429    1.429    1.286    0.000    4.286 
#    2.571    0.000    6.286    2.571    0.000    0.000 
#    0.000    0.000    0.000    0.000    0.000    0.000 
#
# Total GULP energy -694036.871199 kJ/mol
# GULP energy per Si atom -12393.515557 kJ/mol
# Density = 1.965922 g / cm^3
# Si number density = 19.704070 Si / 1000 Ang^3
#
#
#
# Elastic Constant Matrix: (Units=GPa)
#
#
# Indices 1 2 3 4 5 6 
#
# 1 185.9334 98.0785 30.4851 0.0000 0.0000 0.0000
# 2 98.0785 135.7803 21.4739 0.0000 0.0000 0.0000
# 3 30.4851 21.4739 27.0963 0.0000 0.0000 0.0000
# 4 0.0000 0.0000 0.0000 14.6961 0.0000 0.0000
# 5 0.0000 0.0000 0.0000 0.0000 20.8274 0.0000
# 6 0.0000 0.0000 0.0000 0.0000 0.0000 19.3533
#
#
#
# Elastic Compliance Matrix: (Units=1/GPa)
#
#
# Indices 1 2 3 4 5 6 
#
# 1 0.009467 -0.005893 -0.005981 0.000000 0.000000 0.000000
# 2 -0.005893 0.012088 -0.002950 0.000000 0.000000 0.000000
# 3 -0.005981 -0.002950 0.045973 0.000000 0.000000 0.000000
# 4 0.000000 0.000000 0.000000 0.068045 0.000000 0.000000
# 5 0.000000 0.000000 0.000000 0.000000 0.048014 0.000000
# 6 0.000000 0.000000 0.000000 0.000000 0.000000 0.051671
#
#
# Mechanical properties :
#
#
# Convention : Reuss Voigt Hill
#
# Bulk Modulus (GPa) = 26.39930 72.09833 49.24882
# Shear Modulus (GPa) = 18.01591 24.22685 21.12138
#
# Velocity S-wave (km/s) = 3.02706 3.51028 3.27759
# Velocity P-wave (km/s) = 5.06403 7.28693 6.27470
#
# Compressibility (1/GPa) = 0.03787979
#
# Stress axis : x y z
#
# Youngs Moduli (GPa) = 105.62762 82.72840 21.75193
#
# Poissons Ratio (x) = 0.48748 0.13011
# Poissons Ratio (y) = 0.62241 0.06417
# Poissons Ratio (z) = 0.63180 0.24406
#
# Static dielectric constant tensor:
#      x y z
#    x 4.092830 0.000000 0.000000 
#    y 0.000000 3.408220 0.000000 
#    z 0.000000 0.000000 3.250880 
# 
# 
# High freq. dielectric constant tensor:
#      x y z
#    x 1.791650 0.000000 0.000000 
#    y 0.000000 1.736510 0.000000 
#    z 0.000000 0.000000 1.737940 
# 
# From -- ./inp_files/31884.got.cif
#   From: 2010.03.12/outbox.cif.g09.slc.cpg/sg72_16_cif.got.tgz:31884.got - 2010.04.16 14:54:00.
