data_PCOD8293988
_publ_section_title
;
Structure prediction by ZEFSAII (Michael W. Deem and Ramdas Pophale) SiO2 
 PCOD8293988
Probable space group: I B A M
;
_chemical_formula_sum "Si O2"
_cell_formula_units_Z 96
_cell_length_a 28.490386
_cell_length_b 19.840106
_cell_length_c 8.717892
_cell_angle_alpha 90.000000
_cell_angle_beta 90.000000
_cell_angle_gamma 90.000000
_cell_volume 4927.808314
_symmetry_space_group_name_H-M "I B A M"
_symmetry_group_IT_number 72
_symmetry_cell_setting 'orthorhombic'
loop_
_space_group_symop_operation_xyz
x,y,z
-x,-y,z
x,-y,1/2-z
-x,y,1/2-z
-x,-y,-z
x,y,-z
-x,y,1/2+z
x,-y,1/2+z
1/2+x,1/2+y,1/2+z
1/2-x,1/2-y,1/2+z
1/2+x,1/2-y,-z
1/2-x,1/2+y,-z
1/2-x,1/2-y,1/2-z
1/2+x,1/2+y,1/2-z
1/2-x,1/2+y,z
1/2+x,1/2-y,z
loop_
_atom_site_type_symbol
_atom_site_label
_atom_site_fract_x
_atom_site_fract_y
_atom_site_fract_z
Si Si1 0.135627 0.926006 0.317598
Si Si2 0.223137 0.149100 0.328913
Si Si3 0.949847 0.167253 0.319177
Si Si4 0.691140 0.800713 0.829645
Si Si5 0.949684 0.568050 0.679184
Si Si6 0.595161 0.193375 0.821886
O O1 0.137817 0.928760 0.500000
O O2 0.182707 0.891109 0.258246
O O3 0.090230 0.883958 0.260177
O O4 0.130769 0.000000 0.250000
O O5 0.229062 0.118206 0.500000
O O6 0.271740 0.143900 0.233690
O O7 0.213189 0.227580 0.343468
O O8 0.953862 0.162792 0.500000
O O9 0.935648 0.242689 0.268145
O O10 0.000000 0.146948 0.250000
O O11 0.649492 0.792713 0.707759
O O12 0.674576 0.824135 0.000000
O O13 0.927704 0.500000 0.750000
O O14 0.955071 0.558159 0.500000
O O15 0.916711 0.630181 0.716722
O O16 0.000000 0.583398 0.750000
O O17 0.586497 0.177492 0.000000
#
# Coordination Sequence:
#
# PCOD8293988 Si02
#       6
#    16  16  16  16  16  16
#     4  11  23  41  61  86 118 159 203 252 306 363
#     4  10  20  36  59  87 116 152 192 236 287 347
#     4  10  23  39  59  85 118 155 200 252 303 355
#     4  10  20  34  58  89 119 151 189 237 287 345
#     4  11  22  38  58  83 114 154 197 239 289 350
#     4  11  21  37  59  88 121 157 196 245 297 351
#
# _framework density 19.481276000000001
#
# number of rings (size 3 to 8) (size 9 to 14) (size 15 to 20)
#    0.000    1.500    1.667    4.500    0.000    5.667 
#    0.000    2.500    0.000    0.000    0.000    0.000 
#    0.000    0.000    0.000    0.000    0.000    0.000 
#
# Total GULP energy -595236.479292 kJ/mol
# GULP energy per Si atom -12400.759985 kJ/mol
# Density = 1.943694 g / cm^3
# Si number density = 19.481276 Si / 1000 Ang^3
#
#
#
# Elastic Constant Matrix: (Units=GPa)
#
#
# Indices 1 2 3 4 5 6 
#
# 1 83.2920 30.5870 29.0209 0.0000 0.0000 0.0000
# 2 30.5870 84.1040 38.6628 0.0000 0.0000 0.0000
# 3 29.0209 38.6628 108.9982 0.0000 0.0000 0.0000
# 4 0.0000 0.0000 0.0000 27.0233 0.0000 0.0000
# 5 0.0000 0.0000 0.0000 0.0000 35.5232 0.0000
# 6 0.0000 0.0000 0.0000 0.0000 0.0000 14.4395
#
#
#
# Elastic Compliance Matrix: (Units=1/GPa)
#
#
# Indices 1 2 3 4 5 6 
#
# 1 0.014344 -0.004135 -0.002352 0.000000 0.000000 0.000000
# 2 -0.004135 0.015399 -0.004361 0.000000 0.000000 0.000000
# 3 -0.002352 -0.004361 0.011348 0.000000 0.000000 0.000000
# 4 0.000000 0.000000 0.000000 0.037005 0.000000 0.000000
# 5 0.000000 0.000000 0.000000 0.000000 0.028151 0.000000
# 6 0.000000 0.000000 0.000000 0.000000 0.000000 0.069254
#
#
# Mechanical properties :
#
#
# Convention : Reuss Voigt Hill
#
# Bulk Modulus (GPa) = 51.56446 52.54841 52.05643
# Shear Modulus (GPa) = 24.55043 27.27211 25.91127
#
# Velocity S-wave (km/s) = 3.55379 3.74560 3.65096
# Velocity P-wave (km/s) = 6.58524 6.76302 6.67472
#
# Compressibility (1/GPa) = 0.01939320
#
# Stress axis : x y z
#
# Youngs Moduli (GPa) = 69.71486 64.94018 88.12369
#
# Poissons Ratio (x) = 0.26855 0.20729
# Poissons Ratio (y) = 0.28829 0.38431
# Poissons Ratio (z) = 0.16399 0.28321
#
# Static dielectric constant tensor:
#      x y z
#    x 3.667090 0.000000 0.000000 
#    y 0.000000 3.515060 0.000000 
#    z 0.000000 0.000000 3.738600 
# 
# 
# High freq. dielectric constant tensor:
#      x y z
#    x 1.760230 0.000000 0.000000 
#    y 0.000000 1.745390 0.000000 
#    z 0.000000 0.000000 1.772910 
# 
# From -- ./inp_files/6037.got.cif
#   From: 2010.03.12/outbox.cif.g09.slc.cpg/sg72_4_cif.got.tgz:6037.got - 2010.04.16 14:54:00.
