data_PCOD8293544
_publ_section_title
;
Structure prediction by ZEFSAII (Michael W. Deem and Ramdas Pophale) SiO2 
 PCOD8293544
Probable space group: I B A M
;
_chemical_formula_sum "Si O2"
_cell_formula_units_Z 96
_cell_length_a 20.042565
_cell_length_b 28.782652
_cell_length_c 8.655537
_cell_angle_alpha 90.000000
_cell_angle_beta 90.000000
_cell_angle_gamma 90.000000
_cell_volume 4993.190376
_symmetry_space_group_name_H-M "I B A M"
_symmetry_group_IT_number 72
_symmetry_cell_setting 'orthorhombic'
loop_
_space_group_symop_operation_xyz
x,y,z
-x,-y,z
x,-y,1/2-z
-x,y,1/2-z
-x,-y,-z
x,y,-z
-x,y,1/2+z
x,-y,1/2+z
1/2+x,1/2+y,1/2+z
1/2-x,1/2-y,1/2+z
1/2+x,1/2-y,-z
1/2-x,1/2+y,-z
1/2-x,1/2-y,1/2-z
1/2+x,1/2+y,1/2-z
1/2-x,1/2+y,z
1/2+x,1/2-y,z
loop_
_atom_site_type_symbol
_atom_site_label
_atom_site_fract_x
_atom_site_fract_y
_atom_site_fract_z
Si Si1 0.188217 0.099874 0.682034
Si Si2 0.159732 0.288821 0.682024
Si Si3 0.675001 0.948133 0.683705
Si Si4 0.689277 0.696942 0.318378
Si Si5 0.926071 0.376390 0.815830
Si Si6 0.935014 0.050445 0.683867
O O1 0.186879 0.103852 0.500000
O O2 0.260421 0.081369 0.738082
O O3 0.164590 0.148338 0.753959
O O4 0.134391 0.064643 0.743291
O O5 0.154970 0.285105 0.500000
O O6 0.234447 0.299383 0.739378
O O7 0.142239 0.238408 0.753551
O O8 0.110973 0.329398 0.742773
O O9 0.670048 0.951110 0.500000
O O10 0.610483 0.921908 0.750432
O O11 0.678471 0.000000 0.750000
O O12 0.683487 0.697405 0.500000
O O13 0.000000 0.375260 0.750000
O O14 0.926980 0.379095 0.000000
O O15 0.932318 0.053081 0.500000
O O16 0.000000 0.078966 0.750000
O O17 0.945075 0.000000 0.750000
#
# Coordination Sequence:
#
# PCOD8293544 Si02
#       6
#    16  16  16  16  16  16
#     4  11  22  37  59  89 122 157 197 245 297 353
#     4   9  19  36  57  84 116 151 189 237 290 348
#     4  11  24  40  61  88 119 156 201 253 305 357
#     4  10  19  33  58  88 117 149 190 239 290 346
#     4  11  23  41  63  87 120 158 201 249 303 363
#     4  11  22  38  59  83 115 154 197 239 289 350
#
# _framework density 19.226184
#
# number of rings (size 3 to 8) (size 9 to 14) (size 15 to 20)
#    0.000    1.500    1.667    4.500    0.000    5.667 
#    0.000    2.500    0.000    2.000    0.000    0.000 
#    0.000    0.000    0.000    0.000    0.000    0.000 
#
# Total GULP energy -595081.058672 kJ/mol
# GULP energy per Si atom -12397.522056 kJ/mol
# Density = 1.918242 g / cm^3
# Si number density = 19.226184 Si / 1000 Ang^3
#
#
#
# Elastic Constant Matrix: (Units=GPa)
#
#
# Indices 1 2 3 4 5 6 
#
# 1 102.5184 43.3792 64.1484 0.0000 0.0000 0.0000
# 2 43.3792 131.9352 63.4473 0.0000 0.0000 0.0000
# 3 64.1484 63.4473 185.3290 0.0000 0.0000 0.0000
# 4 0.0000 0.0000 0.0000 34.8315 0.0000 0.0000
# 5 0.0000 0.0000 0.0000 0.0000 26.5759 0.0000
# 6 0.0000 0.0000 0.0000 0.0000 0.0000 30.2929
#
#
#
# Elastic Compliance Matrix: (Units=1/GPa)
#
#
# Indices 1 2 3 4 5 6 
#
# 1 0.013132 -0.002552 -0.003672 0.000000 0.000000 0.000000
# 2 -0.002552 0.009569 -0.002393 0.000000 0.000000 0.000000
# 3 -0.003672 -0.002393 0.007486 0.000000 0.000000 0.000000
# 4 0.000000 0.000000 0.000000 0.028710 0.000000 0.000000
# 5 0.000000 0.000000 0.000000 0.000000 0.037628 0.000000
# 6 0.000000 0.000000 0.000000 0.000000 0.000000 0.033011
#
#
# Mechanical properties :
#
#
# Convention : Reuss Voigt Hill
#
# Bulk Modulus (GPa) = 77.19552 84.63693 80.91623
# Shear Modulus (GPa) = 33.09379 34.92725 34.01052
#
# Velocity S-wave (km/s) = 4.15334 4.26684 4.21047
# Velocity P-wave (km/s) = 7.95228 8.26994 8.11266
#
# Compressibility (1/GPa) = 0.01295412
#
# Stress axis : x y z
#
# Youngs Moduli (GPa) = 76.15240 104.50232 133.58586
#
# Poissons Ratio (x) = 0.26668 0.49048
# Poissons Ratio (y) = 0.19433 0.31963
# Poissons Ratio (z) = 0.27960 0.25004
#
# Static dielectric constant tensor:
#      x y z
#    x 3.801640 0.000000 0.000000 
#    y 0.000000 3.713840 0.000000 
#    z 0.000000 0.000000 3.545310 
# 
# 
# High freq. dielectric constant tensor:
#      x y z
#    x 1.740300 0.000000 0.000000 
#    y 0.000000 1.754430 0.000000 
#    z 0.000000 0.000000 1.758470 
# 
# From -- ./inp_files/7102.got.cif
#   From: 2010.03.12/outbox.cif.g09.slc.cpg/sg72_4_cif.got.tgz:7102.got - 2010.04.16 14:54:00.
