data_PCOD8293666
_publ_section_title
;
Structure prediction by ZEFSAII (Michael W. Deem and Ramdas Pophale) SiO2 
 PCOD8293666
Probable space group: I B A M
;
_chemical_formula_sum "Si O2"
_cell_formula_units_Z 96
_cell_length_a 29.435680
_cell_length_b 9.524914
_cell_length_c 18.030566
_cell_angle_alpha 90.000000
_cell_angle_beta 90.000000
_cell_angle_gamma 90.000000
_cell_volume 5055.271630
_symmetry_space_group_name_H-M "I B A M"
_symmetry_group_IT_number 72
_symmetry_cell_setting 'orthorhombic'
loop_
_space_group_symop_operation_xyz
x,y,z
-x,-y,z
x,-y,1/2-z
-x,y,1/2-z
-x,-y,-z
x,y,-z
-x,y,1/2+z
x,-y,1/2+z
1/2+x,1/2+y,1/2+z
1/2-x,1/2-y,1/2+z
1/2+x,1/2-y,-z
1/2-x,1/2+y,-z
1/2-x,1/2-y,1/2-z
1/2+x,1/2+y,1/2-z
1/2-x,1/2+y,z
1/2+x,1/2-y,z
loop_
_atom_site_type_symbol
_atom_site_label
_atom_site_fract_x
_atom_site_fract_y
_atom_site_fract_z
Si Si1 0.949103 0.665574 0.834038
Si Si2 0.776927 0.068043 0.673455
Si Si3 0.048639 0.643048 0.160731
Si Si4 0.619977 0.583943 0.323255
Si Si5 0.721979 0.707735 0.915492
Si Si6 0.880235 0.176298 0.082191
O O1 0.937925 0.512613 0.869939
O O2 0.953051 0.640177 0.747970
O O3 0.911273 0.784605 0.847877
O O4 0.999353 0.701969 0.866871
O O5 0.827621 0.128692 0.690250
O O6 0.747257 0.198225 0.645410
O O7 0.757895 0.000000 0.750000
O O8 0.773801 0.954146 0.608126
O O9 0.087616 0.747404 0.138849
O O10 0.601801 0.500000 0.250000
O O11 0.620556 0.485749 0.395046
O O12 0.669035 0.748302 0.913288
O O13 0.740971 0.724619 0.000000
O O14 0.900337 0.187401 0.000000
#
# Coordination Sequence:
#
# PCOD8293666 Si02
#       6
#    16  16  16  16  16  16
#     4   9  18  34  57  80 108 140 187 230 273 321
#     4  10  21  36  56  83 114 142 191 243 285 330
#     4   9  18  35  55  81 108 142 184 230 269 330
#     4  10  19  35  57  83 111 145 186 233 282 333
#     4  10  21  38  57  78 111 154 188 226 288 352
#     4  10  21  37  54  79 114 146 180 230 286 336
#
# _framework density 18.990076999999999
#
# number of rings (size 3 to 8) (size 9 to 14) (size 15 to 20)
#    0.000    2.333    1.667    2.000    0.000    2.667 
#    3.000    4.167    0.000    0.000    0.000    0.000 
#    0.000    0.000    0.000    0.000    0.000    0.000 
#
# Total GULP energy -594720.364338 kJ/mol
# GULP energy per Si atom -12390.007590 kJ/mol
# Density = 1.894685 g / cm^3
# Si number density = 18.990077 Si / 1000 Ang^3
#
#
#
# Elastic Constant Matrix: (Units=GPa)
#
#
# Indices 1 2 3 4 5 6 
#
# 1 89.4969 59.1904 24.6347 0.0000 0.0000 0.0000
# 2 59.1904 89.4783 16.9348 0.0000 0.0000 0.0000
# 3 24.6347 16.9348 54.3773 0.0000 0.0000 0.0000
# 4 0.0000 0.0000 0.0000 20.3566 0.0000 0.0000
# 5 0.0000 0.0000 0.0000 0.0000 13.7769 0.0000
# 6 0.0000 0.0000 0.0000 0.0000 0.0000 46.6000
#
#
#
# Elastic Compliance Matrix: (Units=1/GPa)
#
#
# Indices 1 2 3 4 5 6 
#
# 1 0.021360 -0.013069 -0.005607 0.000000 0.000000 0.000000
# 2 -0.013069 0.019872 -0.000268 0.000000 0.000000 0.000000
# 3 -0.005607 -0.000268 0.021014 0.000000 0.000000 0.000000
# 4 0.000000 0.000000 0.000000 0.049124 0.000000 0.000000
# 5 0.000000 0.000000 0.000000 0.000000 0.072585 0.000000
# 6 0.000000 0.000000 0.000000 0.000000 0.000000 0.021459
#
#
# Mechanical properties :
#
#
# Convention : Reuss Voigt Hill
#
# Bulk Modulus (GPa) = 41.05409 48.31914 44.68661
# Shear Modulus (GPa) = 19.88700 24.98621 22.43661
#
# Velocity S-wave (km/s) = 3.23961 3.63126 3.44101
# Velocity P-wave (km/s) = 5.97152 6.56362 6.27456
#
# Compressibility (1/GPa) = 0.02435811
#
# Stress axis : x y z
#
# Youngs Moduli (GPa) = 46.81637 50.32310 47.58823
#
# Poissons Ratio (x) = 0.65765 0.26682
# Poissons Ratio (y) = 0.61183 0.01276
# Poissons Ratio (z) = 0.26249 0.01349
#
# Static dielectric constant tensor:
#      x y z
#    x 3.569530 0.000000 0.000000 
#    y 0.000000 3.497920 0.000000 
#    z 0.000000 0.000000 3.332610 
# 
# 
# High freq. dielectric constant tensor:
#      x y z
#    x 1.734620 0.000000 0.000000 
#    y 0.000000 1.732680 0.000000 
#    z 0.000000 0.000000 1.724280 
# 
# From -- ./inp_files/40709.got.cif
#   From: 2010.03.12/outbox.cif.g09.slc.cpg/sg72_21_cif.got.tgz:40709.got - 2010.04.16 14:54:00.
