data_PCOD8293467
_publ_section_title
;
Structure prediction by ZEFSAII (Michael W. Deem and Ramdas Pophale) SiO2 
 PCOD8293467
Probable space group: I B A M
;
_chemical_formula_sum "Si O2"
_cell_formula_units_Z 112
_cell_length_a 24.179418
_cell_length_b 13.490515
_cell_length_c 17.748414
_cell_angle_alpha 90.000000
_cell_angle_beta 90.000000
_cell_angle_gamma 90.000000
_cell_volume 5789.404880
_symmetry_space_group_name_H-M "I B A M"
_symmetry_group_IT_number 72
_symmetry_cell_setting 'orthorhombic'
loop_
_space_group_symop_operation_xyz
x,y,z
-x,-y,z
x,-y,1/2-z
-x,y,1/2-z
-x,-y,-z
x,y,-z
-x,y,1/2+z
x,-y,1/2+z
1/2+x,1/2+y,1/2+z
1/2-x,1/2-y,1/2+z
1/2+x,1/2-y,-z
1/2-x,1/2+y,-z
1/2-x,1/2-y,1/2-z
1/2+x,1/2+y,1/2-z
1/2-x,1/2+y,z
1/2+x,1/2-y,z
loop_
_atom_site_type_symbol
_atom_site_label
_atom_site_fract_x
_atom_site_fract_y
_atom_site_fract_z
Si Si1 0.945161 0.707761 0.847121
Si Si2 0.250473 0.057611 0.087479
Si Si3 0.935037 0.505950 0.082179
Si Si4 0.653239 0.697139 0.587523
Si Si5 0.065840 0.683168 0.173011
Si Si6 0.315570 0.790024 0.325765
Si Si7 0.221675 0.357103 0.170298
O O1 0.918281 0.616065 0.892397
O O2 0.905867 0.801678 0.867343
O O3 0.945198 0.677654 0.760922
O O4 0.010461 0.726130 0.868537
O O5 0.188442 0.097908 0.107306
O O6 0.293171 0.146607 0.103803
O O7 0.267689 0.966955 0.140187
O O8 0.254295 0.027628 0.000000
O O9 0.916336 0.425606 0.143331
O O10 0.000000 0.500000 0.075379
O O11 0.907868 0.485131 0.000000
O O12 0.639233 0.700581 0.500000
O O13 0.688777 0.793654 0.608723
O O14 0.121382 0.746600 0.158230
O O15 0.281868 0.689301 0.314201
O O16 0.312052 0.856256 0.249070
#
# Coordination Sequence:
#
# PCOD8293467 Si02
#       7
#    16  16  16  16  16  16  16
#     4  10  19  33  52  73 106 147 181 225 275 329
#     4  10  22  37  55  82 113 146 184 231 279 329
#     4   9  18  30  44  68 102 141 182 218 263 328
#     4  10  20  35  56  82 110 146 192 228 273 340
#     4  10  20  33  50  76 108 140 181 227 277 332
#     4  10  21  36  55  83 109 141 184 227 275 336
#     4  10  20  37  58  79 109 145 182 228 282 325
#
# _framework density 19.345683999999999
#
# number of rings (size 3 to 8) (size 9 to 14) (size 15 to 20)
#    0.000    2.143    1.429    1.714    2.000    4.571 
#    0.000    0.000    0.000    0.857    0.000    4.000 
#    0.000    0.000    0.000    0.000    0.000    0.000 
#
# Total GULP energy -693921.324680 kJ/mol
# GULP energy per Si atom -12391.452226 kJ/mol
# Density = 1.930165 g / cm^3
# Si number density = 19.345684 Si / 1000 Ang^3
#
#
#
# Elastic Constant Matrix: (Units=GPa)
#
#
# Indices 1 2 3 4 5 6 
#
# 1 133.2419 19.7032 15.3641 0.0000 0.0000 0.0000
# 2 19.7032 38.7097 9.3275 0.0000 0.0000 0.0000
# 3 15.3641 9.3275 72.7697 0.0000 0.0000 0.0000
# 4 0.0000 0.0000 0.0000 17.9052 0.0000 0.0000
# 5 0.0000 0.0000 0.0000 0.0000 23.3744 0.0000
# 6 0.0000 0.0000 0.0000 0.0000 0.0000 20.9601
#
#
#
# Elastic Compliance Matrix: (Units=1/GPa)
#
#
# Indices 1 2 3 4 5 6 
#
# 1 0.008223 -0.003887 -0.001238 0.000000 0.000000 0.000000
# 2 -0.003887 0.028494 -0.002832 0.000000 0.000000 0.000000
# 3 -0.001238 -0.002832 0.014366 0.000000 0.000000 0.000000
# 4 0.000000 0.000000 0.000000 0.055850 0.000000 0.000000
# 5 0.000000 0.000000 0.000000 0.000000 0.042782 0.000000
# 6 0.000000 0.000000 0.000000 0.000000 0.000000 0.047710
#
#
# Mechanical properties :
#
#
# Convention : Reuss Voigt Hill
#
# Bulk Modulus (GPa) = 28.43331 37.05677 32.74504
# Shear Modulus (GPa) = 22.21624 25.80306 24.00965
#
# Velocity S-wave (km/s) = 3.39246 3.65607 3.52673
# Velocity P-wave (km/s) = 5.48401 6.08433 5.79196
#
# Compressibility (1/GPa) = 0.03517001
#
# Stress axis : x y z
#
# Youngs Moduli (GPa) = 121.61484 35.09496 69.60738
#
# Poissons Ratio (x) = 0.13642 0.08616
# Poissons Ratio (y) = 0.47272 0.19710
# Poissons Ratio (z) = 0.15054 0.09938
#
# Static dielectric constant tensor:
#      x y z
#    x 3.952530 0.000000 0.000000 
#    y 0.000000 3.233640 0.000000 
#    z 0.000000 0.000000 3.715000 
# 
# 
# High freq. dielectric constant tensor:
#      x y z
#    x 1.765330 0.000000 0.000000 
#    y 0.000000 1.699490 0.000000 
#    z 0.000000 0.000000 1.759710 
# 
# From -- ./inp_files/25955.got.cif
#   From: 2010.03.12/outbox.cif.g09.slc.cpg/sg72_13_cif.got.tgz:25955.got - 2010.04.16 14:54:00.
