data_PCOD8293089
_publ_section_title
;
Structure prediction by ZEFSAII (Michael W. Deem and Ramdas Pophale) SiO2 
 PCOD8293089
Probable space group: I B A M
;
_chemical_formula_sum "Si O2"
_cell_formula_units_Z 64
_cell_length_a 9.340331
_cell_length_b 37.145781
_cell_length_c 9.133997
_cell_angle_alpha 90.000000
_cell_angle_beta 90.000000
_cell_angle_gamma 90.000000
_cell_volume 3169.075789
_symmetry_space_group_name_H-M "I B A M"
_symmetry_group_IT_number 72
_symmetry_cell_setting 'orthorhombic'
loop_
_space_group_symop_operation_xyz
x,y,z
-x,-y,z
x,-y,1/2-z
-x,y,1/2-z
-x,-y,-z
x,y,-z
-x,y,1/2+z
x,-y,1/2+z
1/2+x,1/2+y,1/2+z
1/2-x,1/2-y,1/2+z
1/2+x,1/2-y,-z
1/2-x,1/2+y,-z
1/2-x,1/2-y,1/2-z
1/2+x,1/2+y,1/2-z
1/2-x,1/2+y,z
1/2+x,1/2-y,z
loop_
_atom_site_type_symbol
_atom_site_label
_atom_site_fract_x
_atom_site_fract_y
_atom_site_fract_z
Si Si1 0.842704 0.465072 0.322721
Si Si2 0.088234 0.225591 0.000000
Si Si3 0.840287 0.167021 0.724109
Si Si4 0.732478 0.294694 0.500000
Si Si5 0.643695 0.896921 0.165151
O O1 0.764552 0.500000 0.250000
O O2 0.842547 0.467234 0.500000
O O3 0.773812 0.428049 0.260793
O O4 0.000000 0.463591 0.250000
O O5 0.148536 0.204530 0.138677
O O6 0.916662 0.226960 0.000000
O O7 0.137902 0.266711 0.000000
O O8 0.750319 0.136431 0.644035
O O9 0.000000 0.151602 0.750000
O O10 0.754045 0.177544 0.867883
O O11 0.500000 0.884954 0.250000
O O12 0.605475 0.910532 0.000000
#
# Coordination Sequence:
#
# PCOD8293089 Si02
#       5
#    16   8  16   8  16
#     4  10  18  31  52  80 115 151 187 228 282 331
#     4  10  20  40  54  86 105 150 181 239 280 345
#     4  10  22  39  58  81 113 153 189 231 284 342
#     4  10  22  34  62  78 115 138 193 225 292 339
#     4  11  22  36  56  85 117 148 192 238 282 331
#
# _framework density 20.195163000000001
#
# number of rings (size 3 to 8) (size 9 to 14) (size 15 to 20)
#    0.000    1.750    1.250    6.000    3.500    2.000 
#    0.000    0.000    0.000    0.750    0.000    3.500 
#    0.000    0.000    0.000    0.000    0.000    0.000 
#
# Total GULP energy -396517.967894 kJ/mol
# GULP energy per Si atom -12391.186497 kJ/mol
# Density = 2.014920 g / cm^3
# Si number density = 20.195163 Si / 1000 Ang^3
#
#
#
# Elastic Constant Matrix: (Units=GPa)
#
#
# Indices 1 2 3 4 5 6 
#
# 1 42.3293 28.4099 14.4988 0.0103 0.0037 0.0035
# 2 28.4099 88.6827 25.9350 0.0370 0.0169 0.0160
# 3 14.4988 25.9350 164.4320 0.0326 0.0110 0.0202
# 4 0.0103 0.0370 0.0326 46.5003 0.0233 0.0284
# 5 0.0037 0.0169 0.0110 0.0233 22.5563 0.0173
# 6 0.0035 0.0160 0.0202 0.0284 0.0173 16.7968
#
#
#
# Elastic Compliance Matrix: (Units=1/GPa)
#
#
# Indices 1 2 3 4 5 6 
#
# 1 0.030318 -0.009363 -0.001197 0.000002 0.000003 0.000004
# 2 -0.009363 0.014713 -0.001495 -0.000009 -0.000009 -0.000010
# 3 -0.001197 -0.001495 0.006423 -0.000003 -0.000002 -0.000006
# 4 0.000002 -0.000009 -0.000003 0.021505 -0.000022 -0.000036
# 5 0.000003 -0.000009 -0.000002 -0.000022 0.044334 -0.000046
# 6 0.000004 -0.000010 -0.000006 -0.000036 -0.000046 0.059535
#
#
# Mechanical properties :
#
#
# Convention : Reuss Voigt Hill
#
# Bulk Modulus (GPa) = 36.56947 48.12571 42.34759
# Shear Modulus (GPa) = 23.80376 32.27739 28.04058
#
# Velocity S-wave (km/s) = 3.43692 4.00218 3.73027
# Velocity P-wave (km/s) = 5.82214 6.72597 6.29031
#
# Compressibility (1/GPa) = 0.02734521
#
# Stress axis : x y z
#
# Youngs Moduli (GPa) = 32.98377 67.96848 155.69409
#
# Poissons Ratio (x) = 0.63636 0.18630
# Poissons Ratio (y) = 0.30881 0.23276
# Poissons Ratio (z) = 0.03947 0.10161
#
# Static dielectric constant tensor:
#      x y z
#    x 3.188510 -0.000010 0.000020 
#    y -0.000010 4.136820 0.000080 
#    z 0.000020 0.000080 4.028990 
# 
# 
# High freq. dielectric constant tensor:
#      x y z
#    x 1.734880 0.000000 0.000000 
#    y 0.000000 1.797540 0.000000 
#    z 0.000000 0.000000 1.814930 
# 
# From -- ./inp_files/2646.got.cif
#   From: 2010.03.12/outbox.cif.g09.slc.cpg/sg72_2_cif.got.tgz:2646.got - 2010.04.16 14:54:00.
