data_PCOD8293517
_publ_section_title
;
Structure prediction by ZEFSAII (Michael W. Deem and Ramdas Pophale) SiO2 
 PCOD8293517
Probable space group: I B A M
;
_chemical_formula_sum "Si O2"
_cell_formula_units_Z 128
_cell_length_a 19.376060
_cell_length_b 20.385417
_cell_length_c 16.885629
_cell_angle_alpha 90.000000
_cell_angle_beta 90.000000
_cell_angle_gamma 90.000000
_cell_volume 6669.638775
_symmetry_space_group_name_H-M "I B A M"
_symmetry_group_IT_number 72
_symmetry_cell_setting 'orthorhombic'
loop_
_space_group_symop_operation_xyz
x,y,z
-x,-y,z
x,-y,1/2-z
-x,y,1/2-z
-x,-y,-z
x,y,-z
-x,y,1/2+z
x,-y,1/2+z
1/2+x,1/2+y,1/2+z
1/2-x,1/2-y,1/2+z
1/2+x,1/2-y,-z
1/2-x,1/2+y,-z
1/2-x,1/2-y,1/2-z
1/2+x,1/2+y,1/2-z
1/2-x,1/2+y,z
1/2+x,1/2-y,z
loop_
_atom_site_type_symbol
_atom_site_label
_atom_site_fract_x
_atom_site_fract_y
_atom_site_fract_z
Si Si1 0.705083 0.595450 0.909987
Si Si2 0.286797 0.550367 0.093009
Si Si3 0.736039 0.779148 0.336247
Si Si4 0.402107 0.242662 0.591450
Si Si5 0.054883 0.270850 0.592964
Si Si6 0.569692 0.372203 0.342354
Si Si7 0.583985 0.384679 0.839975
Si Si8 0.688727 0.838095 0.909047
O O1 0.737251 0.524197 0.889841
O O2 0.730857 0.649396 0.847404
O O3 0.622366 0.590179 0.899978
O O4 0.723588 0.615691 0.000000
O O5 0.361591 0.560968 0.132388
O O6 0.228924 0.599943 0.130366
O O7 0.295593 0.562729 0.000000
O O8 0.750000 0.750000 0.250000
O O9 0.654887 0.790104 0.352201
O O10 0.766726 0.727942 0.399203
O O11 0.382252 0.232161 0.500000
O O12 0.475851 0.207746 0.610011
O O13 0.403363 0.319570 0.609307
O O14 0.065980 0.257106 0.500000
O O15 0.069404 0.204604 0.639281
O O16 0.110447 0.325491 0.623673
O O17 0.595839 0.374542 0.252625
O O18 0.495292 0.406506 0.354761
O O19 0.681845 0.855552 0.000000
#
# Coordination Sequence:
#
# PCOD8293517 Si02
#       8
#    16  16  16  16  16  16  16  16
#     4  11  23  38  55  79 111 148 187 234 285 336
#     4  10  22  37  55  78 108 149 191 232 283 341
#     4  12  23  36  56  85 110 142 184 234 285 341
#     4  10  19  33  55  81 109 144 187 234 281 333
#     4   9  18  32  55  82 109 145 188 234 285 334
#     4  10  20  33  51  78 113 149 186 232 278 332
#     4  10  20  34  51  78 113 149 188 228 278 331
#     4  10  19  35  56  78 107 144 184 229 278 334
#
# _framework density 19.191444000000001
#
# number of rings (size 3 to 8) (size 9 to 14) (size 15 to 20)
#    0.000    1.750    2.500    2.625    0.000    2.500 
#    0.000    2.500    0.000    0.750    0.000    4.375 
#    0.000    2.000    0.000    0.125    0.000    0.000 
#
# Total GULP energy -793290.938665 kJ/mol
# GULP energy per Si atom -12395.170917 kJ/mol
# Density = 1.914776 g / cm^3
# Si number density = 19.191444 Si / 1000 Ang^3
#
#
#
# Elastic Constant Matrix: (Units=GPa)
#
#
# Indices 1 2 3 4 5 6 
#
# 1 129.6802 56.4217 40.3660 0.0000 0.0000 0.0000
# 2 56.4217 103.9544 33.6867 0.0000 0.0000 0.0000
# 3 40.3660 33.6867 62.8546 0.0000 0.0000 0.0000
# 4 0.0000 0.0000 0.0000 18.5771 0.0000 0.0000
# 5 0.0000 0.0000 0.0000 0.0000 26.1859 0.0000
# 6 0.0000 0.0000 0.0000 0.0000 0.0000 22.3209
#
#
#
# Elastic Compliance Matrix: (Units=1/GPa)
#
#
# Indices 1 2 3 4 5 6 
#
# 1 0.011152 -0.004516 -0.004742 0.000000 0.000000 0.000000
# 2 -0.004516 0.013470 -0.004319 0.000000 0.000000 0.000000
# 3 -0.004742 -0.004319 0.021270 0.000000 0.000000 0.000000
# 4 0.000000 0.000000 0.000000 0.053830 0.000000 0.000000
# 5 0.000000 0.000000 0.000000 0.000000 0.038189 0.000000
# 6 0.000000 0.000000 0.000000 0.000000 0.000000 0.044801
#
#
# Mechanical properties :
#
#
# Convention : Reuss Voigt Hill
#
# Bulk Modulus (GPa) = 53.36630 61.93756 57.65193
# Shear Modulus (GPa) = 23.13622 24.48443 23.81032
#
# Velocity S-wave (km/s) = 3.47587 3.57571 3.52614
# Velocity P-wave (km/s) = 6.63148 7.02789 6.83256
#
# Compressibility (1/GPa) = 0.01873842
#
# Stress axis : x y z
#
# Youngs Moduli (GPa) = 89.66840 74.23646 47.01564
#
# Poissons Ratio (x) = 0.33528 0.22293
# Poissons Ratio (y) = 0.40498 0.20306
# Poissons Ratio (z) = 0.42516 0.32062
#
# Static dielectric constant tensor:
#      x y z
#    x 4.016170 0.000000 0.000000 
#    y 0.000000 3.301750 0.000000 
#    z 0.000000 0.000000 3.423880 
# 
# 
# High freq. dielectric constant tensor:
#      x y z
#    x 1.753530 0.000000 0.000000 
#    y 0.000000 1.710450 0.000000 
#    z 0.000000 0.000000 1.743610 
# 
# From -- ./inp_files/32970.got.cif
#   From: 2010.03.12/outbox.cif.g09.slc.cpg/sg72_17_cif.got.tgz:32970.got - 2010.04.16 14:54:00.
