data_PCOD8293442
_publ_section_title
;
Structure prediction by ZEFSAII (Michael W. Deem and Ramdas Pophale) SiO2 
 PCOD8293442
Probable space group: I B A M
;
_chemical_formula_sum "Si O2"
_cell_formula_units_Z 72
_cell_length_a 20.762912
_cell_length_b 9.479617
_cell_length_c 19.433185
_cell_angle_alpha 90.000000
_cell_angle_beta 90.000000
_cell_angle_gamma 90.000000
_cell_volume 3824.926019
_symmetry_space_group_name_H-M "I B A M"
_symmetry_group_IT_number 72
_symmetry_cell_setting 'orthorhombic'
loop_
_space_group_symop_operation_xyz
x,y,z
-x,-y,z
x,-y,1/2-z
-x,y,1/2-z
-x,-y,-z
x,y,-z
-x,y,1/2+z
x,-y,1/2+z
1/2+x,1/2+y,1/2+z
1/2-x,1/2-y,1/2+z
1/2+x,1/2-y,-z
1/2-x,1/2+y,-z
1/2-x,1/2-y,1/2-z
1/2+x,1/2+y,1/2-z
1/2-x,1/2+y,z
1/2+x,1/2-y,z
loop_
_atom_site_type_symbol
_atom_site_label
_atom_site_fract_x
_atom_site_fract_y
_atom_site_fract_z
Si Si1 0.748799 0.653006 0.162912
Si Si2 0.881322 0.796576 0.270896
Si Si3 0.427660 0.472728 0.359134
Si Si4 0.196345 0.090976 0.922243
Si Si5 0.148176 0.500000 0.750000
O O1 0.697488 0.682701 0.225889
O O2 0.773526 0.798275 0.130645
O O3 0.718016 0.563988 0.101002
O O4 0.809309 0.563857 0.188946
O O5 0.916734 0.868941 0.206211
O O6 0.896876 0.629475 0.275438
O O7 0.907027 0.868686 0.339541
O O8 0.500000 0.500000 0.384575
O O9 0.382188 0.409488 0.418813
O O10 0.218086 0.122858 0.000000
#
# Coordination Sequence:
#
# PCOD8293442 Si02
#       5
#    16  16  16  16   8
#     4  11  20  34  53  86 115 140 177 227 291 345
#     4  10  19  32  56  81 110 140 172 230 292 334
#     4  10  21  38  55  78 110 147 191 231 271 327
#     4  11  22  36  56  80 113 154 190 226 270 333
#     4  12  18  30  55  84 111 138 164 226 296 338
#
# _framework density 18.823893999999999
#
# number of rings (size 3 to 8) (size 9 to 14) (size 15 to 20)
#    0.000    1.333    4.444    5.333    0.000    0.444 
#    0.000    2.222    0.000    0.000    0.000    1.556 
#    0.000    0.000    0.000    0.000    0.000    0.000 
#
# Total GULP energy -446026.700105 kJ/mol
# GULP energy per Si atom -12389.630558 kJ/mol
# Density = 1.878105 g / cm^3
# Si number density = 18.823894 Si / 1000 Ang^3
#
#
#
# Elastic Constant Matrix: (Units=GPa)
#
#
# Indices 1 2 3 4 5 6 
#
# 1 75.3533 22.3904 -0.4944 0.0000 0.0000 0.0000
# 2 22.3904 133.6673 14.9956 0.0000 0.0000 0.0000
# 3 -0.4944 14.9956 58.9295 0.0000 0.0000 0.0000
# 4 0.0000 0.0000 0.0000 17.5517 0.0000 0.0000
# 5 0.0000 0.0000 0.0000 0.0000 16.0087 0.0000
# 6 0.0000 0.0000 0.0000 0.0000 0.0000 22.4472
#
#
#
# Elastic Compliance Matrix: (Units=1/GPa)
#
#
# Indices 1 2 3 4 5 6 
#
# 1 0.013997 -0.002427 0.000735 0.000000 0.000000 0.000000
# 2 -0.002427 0.008122 -0.002087 0.000000 0.000000 0.000000
# 3 0.000735 -0.002087 0.017507 0.000000 0.000000 0.000000
# 4 0.000000 0.000000 0.000000 0.056975 0.000000 0.000000
# 5 0.000000 0.000000 0.000000 0.000000 0.062466 0.000000
# 6 0.000000 0.000000 0.000000 0.000000 0.000000 0.044549
#
#
# Mechanical properties :
#
#
# Convention : Reuss Voigt Hill
#
# Bulk Modulus (GPa) = 31.18452 37.97036 34.57744
# Shear Modulus (GPa) = 22.53649 26.60541 24.57095
#
# Velocity S-wave (km/s) = 3.46385 3.76358 3.61682
# Velocity P-wave (km/s) = 5.70965 6.25310 5.98754
#
# Compressibility (1/GPa) = 0.03206720
#
# Stress axis : x y z
#
# Youngs Moduli (GPa) = 71.44479 123.12298 57.12100
#
# Poissons Ratio (x) = 0.29883 -0.04199
# Poissons Ratio (y) = 0.17340 0.11922
# Poissons Ratio (z) = -0.05251 0.25697
#
# Static dielectric constant tensor:
#      x y z
#    x 3.448990 0.000000 0.000000 
#    y 0.000000 3.882980 0.000000 
#    z 0.000000 0.000000 3.080870 
# 
# 
# High freq. dielectric constant tensor:
#      x y z
#    x 1.714110 0.000000 0.000000 
#    y 0.000000 1.744980 0.000000 
#    z 0.000000 0.000000 1.697390 
# 
# From -- ./inp_files/39552.got.cif
#   From: 2010.03.12/outbox.cif.g09.slc.cpg/sg72_20_cif.got.tgz:39552.got - 2010.04.16 14:54:00.
