data_PCOD8293798
_publ_section_title
;
Structure prediction by ZEFSAII (Michael W. Deem and Ramdas Pophale) SiO2 
 PCOD8293798
Probable space group: I B A M
;
_chemical_formula_sum "Si O2"
_cell_formula_units_Z 104
_cell_length_a 21.919225
_cell_length_b 8.726856
_cell_length_c 30.008142
_cell_angle_alpha 90.000000
_cell_angle_beta 90.000000
_cell_angle_gamma 90.000000
_cell_volume 5740.135056
_symmetry_space_group_name_H-M "I B A M"
_symmetry_group_IT_number 72
_symmetry_cell_setting 'orthorhombic'
loop_
_space_group_symop_operation_xyz
x,y,z
-x,-y,z
x,-y,1/2-z
-x,y,1/2-z
-x,-y,-z
x,y,-z
-x,y,1/2+z
x,-y,1/2+z
1/2+x,1/2+y,1/2+z
1/2-x,1/2-y,1/2+z
1/2+x,1/2-y,-z
1/2-x,1/2+y,-z
1/2-x,1/2-y,1/2-z
1/2+x,1/2+y,1/2-z
1/2-x,1/2+y,z
1/2+x,1/2-y,z
loop_
_atom_site_type_symbol
_atom_site_label
_atom_site_fract_x
_atom_site_fract_y
_atom_site_fract_z
Si Si1 0.071647 0.156333 0.450792
Si Si2 0.668348 0.763850 0.710281
Si Si3 0.256561 0.500000 0.750000
Si Si4 0.434742 0.671863 0.267415
Si Si5 0.572831 0.312367 0.951662
Si Si6 0.942078 0.701221 0.360795
Si Si7 0.582804 0.852237 0.634103
O O1 0.095974 0.213454 0.500000
O O2 0.091457 0.252024 0.407082
O O3 0.999495 0.172895 0.451718
O O4 0.096320 0.984616 0.442270
O O5 0.702257 0.602101 0.717125
O O6 0.716279 0.900323 0.716105
O O7 0.615727 0.784001 0.747102
O O8 0.634786 0.767603 0.662671
O O9 0.424595 0.500000 0.250000
O O10 0.500000 0.732878 0.250000
O O11 0.424281 0.684647 0.320543
O O12 0.599204 0.187095 0.917170
O O13 0.595572 0.255353 0.000000
O O14 0.918199 0.529995 0.352838
O O15 0.015231 0.716056 0.360062
#
# Coordination Sequence:
#
# PCOD8293798 Si02
#       7
#    16  16   8  16  16  16  16
#     4   8  15  27  45  67 103 146 180 205 238 308
#     4  11  21  40  53  77  99 140 182 223 266 310
#     4  10  24  38  58  68 100 136 186 230 260 304
#     4  11  22  33  53  80 107 142 173 218 269 324
#     4   8  15  27  45  71 101 139 176 209 252 310
#     4  10  20  31  46  77 110 143 174 206 265 319
#     4  10  20  32  50  74 108 140 171 219 263 317
#
# _framework density 18.118041000000002
#
# number of rings (size 3 to 8) (size 9 to 14) (size 15 to 20)
#    0.000    2.308    2.308    1.846    2.154    1.846 
#    0.000    3.077    0.000    0.000    0.000    1.077 
#    0.000    4.923    0.000    0.308    0.000    0.000 
#
# Total GULP energy -644182.087979 kJ/mol
# GULP energy per Si atom -12388.117077 kJ/mol
# Density = 1.807680 g / cm^3
# Si number density = 18.118041 Si / 1000 Ang^3
#
#
#
# Elastic Constant Matrix: (Units=GPa)
#
#
# Indices 1 2 3 4 5 6 
#
# 1 67.5074 30.3837 33.7387 0.0000 0.0000 0.0000
# 2 30.3837 84.4173 60.8742 0.0000 0.0000 0.0000
# 3 33.7387 60.8742 167.7078 0.0000 0.0000 0.0000
# 4 0.0000 0.0000 0.0000 30.3404 0.0000 0.0000
# 5 0.0000 0.0000 0.0000 0.0000 12.9352 0.0000
# 6 0.0000 0.0000 0.0000 0.0000 0.0000 12.2809
#
#
#
# Elastic Compliance Matrix: (Units=1/GPa)
#
#
# Indices 1 2 3 4 5 6 
#
# 1 0.018037 -0.005249 -0.001723 0.000000 0.000000 0.000000
# 2 -0.005249 0.017574 -0.005323 0.000000 0.000000 0.000000
# 3 -0.001723 -0.005323 0.008241 0.000000 0.000000 0.000000
# 4 0.000000 0.000000 0.000000 0.032959 0.000000 0.000000
# 5 0.000000 0.000000 0.000000 0.000000 0.077308 0.000000
# 6 0.000000 0.000000 0.000000 0.000000 0.000000 0.081427
#
#
# Mechanical properties :
#
#
# Convention : Reuss Voigt Hill
#
# Bulk Modulus (GPa) = 51.91716 63.29174 57.60445
# Shear Modulus (GPa) = 18.75765 24.08704 21.42235
#
# Velocity S-wave (km/s) = 3.22110 3.65012 3.44230
# Velocity P-wave (km/s) = 6.52312 7.26452 6.90378
#
# Compressibility (1/GPa) = 0.01926146
#
# Stress axis : x y z
#
# Youngs Moduli (GPa) = 55.44154 56.90374 121.33755
#
# Poissons Ratio (x) = 0.29870 0.20909
# Poissons Ratio (y) = 0.29103 0.64585
# Poissons Ratio (z) = 0.09554 0.30289
#
# Static dielectric constant tensor:
#      x y z
#    x 3.055270 0.000000 0.000000 
#    y 0.000000 3.316340 0.000000 
#    z 0.000000 0.000000 3.752610 
# 
# 
# High freq. dielectric constant tensor:
#      x y z
#    x 1.646750 0.000000 0.000000 
#    y 0.000000 1.699280 0.000000 
#    z 0.000000 0.000000 1.710680 
# 
# From -- ./inp_files/52399.got.cif
#   From: 2010.03.12/outbox.cif.g09.slc.cpg/sg72_27_cif.got.tgz:52399.got - 2010.04.16 14:54:00.
