data_PCOD8293486
_publ_section_title
;
Structure prediction by ZEFSAII (Michael W. Deem and Ramdas Pophale) SiO2 
 PCOD8293486
Probable space group: I B A M
;
_chemical_formula_sum "Si O2"
_cell_formula_units_Z 116
_cell_length_a 26.587574
_cell_length_b 26.371685
_cell_length_c 8.790728
_cell_angle_alpha 90.000000
_cell_angle_beta 90.000000
_cell_angle_gamma 90.000000
_cell_volume 6163.699165
_symmetry_space_group_name_H-M "I B A M"
_symmetry_group_IT_number 72
_symmetry_cell_setting 'orthorhombic'
loop_
_space_group_symop_operation_xyz
x,y,z
-x,-y,z
x,-y,1/2-z
-x,y,1/2-z
-x,-y,-z
x,y,-z
-x,y,1/2+z
x,-y,1/2+z
1/2+x,1/2+y,1/2+z
1/2-x,1/2-y,1/2+z
1/2+x,1/2-y,-z
1/2-x,1/2+y,-z
1/2-x,1/2-y,1/2-z
1/2+x,1/2+y,1/2-z
1/2-x,1/2+y,z
1/2+x,1/2-y,z
loop_
_atom_site_type_symbol
_atom_site_label
_atom_site_fract_x
_atom_site_fract_y
_atom_site_fract_z
Si Si1 0.820296 0.923055 0.827227
Si Si2 0.284510 0.950171 0.822307
Si Si3 0.680526 0.842770 0.677369
Si Si4 0.363947 0.753544 0.320665
Si Si5 0.947954 0.183503 0.319938
Si Si6 0.420455 0.579363 0.668829
Si Si7 0.784062 0.186527 0.325362
Si Si8 0.500000 0.500000 0.250000
O O1 0.770061 0.944200 0.752362
O O2 0.869177 0.943775 0.738571
O O3 0.821179 0.861863 0.821296
O O4 0.822688 0.942685 0.000000
O O5 0.321769 0.903018 0.788074
O O6 0.310392 0.000000 0.750000
O O7 0.276165 0.956987 0.000000
O O8 0.673658 0.831174 0.500000
O O9 0.636890 0.813001 0.770689
O O10 0.734758 0.824677 0.730933
O O11 0.369781 0.747860 0.500000
O O12 0.407474 0.723413 0.237663
O O13 0.310678 0.732616 0.260867
O O14 0.950188 0.185384 0.500000
O O15 0.938073 0.125735 0.272686
O O16 0.000000 0.202478 0.250000
O O17 0.409415 0.600185 0.500000
O O18 0.463334 0.536291 0.653011
O O19 0.771064 0.200793 0.500000
#
# Coordination Sequence:
#
# PCOD8293486 Si02
#       8
#    16  16  16  16  16  16  16   4
#     4  10  21  36  56  78 105 140 184 232 282 337
#     4  10  21  37  57  80 111 149 189 229 276 328
#     4  10  21  36  54  80 114 148 187 230 274 332
#     4  12  23  36  57  83 112 147 183 226 282 340
#     4  12  25  43  64  85 110 142 184 233 289 347
#     4  12  25  42  61  79 104 138 184 238 296 347
#     4  10  19  33  53  79 111 145 181 225 277 336
#     4  12  30  44  60  78 110 136 190 248 304 344
#
# _framework density 18.819866999999999
#
# number of rings (size 3 to 8) (size 9 to 14) (size 15 to 20)
#    0.000    1.103    2.069    5.172    0.966    4.414 
#    0.000    0.000    0.000    0.000    0.000    0.000 
#    0.000    0.552    0.000    5.793    0.000    3.172 
#
# Total GULP energy -719222.921108 kJ/mol
# GULP energy per Si atom -12400.395192 kJ/mol
# Density = 1.877703 g / cm^3
# Si number density = 18.819867 Si / 1000 Ang^3
#
#
#
# Elastic Constant Matrix: (Units=GPa)
#
#
# Indices 1 2 3 4 5 6 
#
# 1 44.2299 34.8995 18.9771 0.0000 0.0000 0.0000
# 2 34.8995 112.4365 49.6605 0.0000 0.0000 0.0000
# 3 18.9771 49.6605 124.8355 0.0000 0.0000 0.0000
# 4 0.0000 0.0000 0.0000 26.0390 0.0000 0.0000
# 5 0.0000 0.0000 0.0000 0.0000 24.9956 0.0000
# 6 0.0000 0.0000 0.0000 0.0000 0.0000 33.7961
#
#
#
# Elastic Compliance Matrix: (Units=1/GPa)
#
#
# Indices 1 2 3 4 5 6 
#
# 1 0.030054 -0.008869 -0.001041 0.000000 0.000000 0.000000
# 2 -0.008869 0.013407 -0.003985 0.000000 0.000000 0.000000
# 3 -0.001041 -0.003985 0.009754 0.000000 0.000000 0.000000
# 4 0.000000 0.000000 0.000000 0.038404 0.000000 0.000000
# 5 0.000000 0.000000 0.000000 0.000000 0.040007 0.000000
# 6 0.000000 0.000000 0.000000 0.000000 0.000000 0.029589
#
#
# Mechanical properties :
#
#
# Convention : Reuss Voigt Hill
#
# Bulk Modulus (GPa) = 39.33072 54.28624 46.80848
# Shear Modulus (GPa) = 25.31917 28.83047 27.07482
#
# Velocity S-wave (km/s) = 3.67187 3.91822 3.79704
# Velocity P-wave (km/s) = 6.23865 7.02693 6.64449
#
# Compressibility (1/GPa) = 0.02542542
#
# Stress axis : x y z
#
# Youngs Moduli (GPa) = 33.27393 74.58861 102.52158
#
# Poissons Ratio (x) = 0.66151 0.10668
# Poissons Ratio (y) = 0.29510 0.40856
# Poissons Ratio (z) = 0.03462 0.29725
#
# Static dielectric constant tensor:
#      x y z
#    x 3.301410 0.000000 0.000000 
#    y 0.000000 3.781070 0.000000 
#    z 0.000000 0.000000 3.695790 
# 
# 
# High freq. dielectric constant tensor:
#      x y z
#    x 1.690310 0.000000 0.000000 
#    y 0.000000 1.733350 0.000000 
#    z 0.000000 0.000000 1.750600 
# 
# From -- ./inp_files/7259.got.cif
#   From: 2010.03.12/outbox.cif.g09.slc.cpg/sg72_4_cif.got.tgz:7259.got - 2010.04.16 14:54:00.
