data_PCOD8293511
_publ_section_title
;
Structure prediction by ZEFSAII (Michael W. Deem and Ramdas Pophale) SiO2 
 PCOD8293511
Probable space group: I B A M
;
_chemical_formula_sum "Si O2"
_cell_formula_units_Z 116
_cell_length_a 26.100359
_cell_length_b 16.818254
_cell_length_c 14.051865
_cell_angle_alpha 90.000000
_cell_angle_beta 90.000000
_cell_angle_gamma 90.000000
_cell_volume 6168.241329
_symmetry_space_group_name_H-M "I B A M"
_symmetry_group_IT_number 72
_symmetry_cell_setting 'orthorhombic'
loop_
_space_group_symop_operation_xyz
x,y,z
-x,-y,z
x,-y,1/2-z
-x,y,1/2-z
-x,-y,-z
x,y,-z
-x,y,1/2+z
x,-y,1/2+z
1/2+x,1/2+y,1/2+z
1/2-x,1/2-y,1/2+z
1/2+x,1/2-y,-z
1/2-x,1/2+y,-z
1/2-x,1/2-y,1/2-z
1/2+x,1/2+y,1/2-z
1/2-x,1/2+y,z
1/2+x,1/2-y,z
loop_
_atom_site_type_symbol
_atom_site_label
_atom_site_fract_x
_atom_site_fract_y
_atom_site_fract_z
Si Si1 0.040943 0.940752 0.389186
Si Si2 0.290686 0.610805 0.608993
Si Si3 0.954053 0.229391 0.684186
Si Si4 0.432281 0.103952 0.392879
Si Si5 0.345099 0.548238 0.887597
Si Si6 0.000000 0.500000 0.250000
Si Si7 0.177580 0.348806 0.891987
Si Si8 0.159057 0.800885 0.270115
O O1 0.039817 0.955856 0.500000
O O2 0.026854 0.849027 0.370377
O O3 0.096870 0.964264 0.351527
O O4 0.000000 0.000000 0.339372
O O5 0.306512 0.626312 0.500000
O O6 0.313785 0.528223 0.647097
O O7 0.229621 0.601590 0.620118
O O8 0.314909 0.684305 0.667666
O O9 0.943591 0.301577 0.611973
O O10 0.902336 0.208261 0.742374
O O11 0.000000 0.259127 0.750000
O O12 0.445738 0.074892 0.500000
O O13 0.464209 0.054138 0.316321
O O14 0.371346 0.093900 0.371736
O O15 0.323609 0.627154 0.838415
O O16 0.341086 0.561508 0.000000
O O17 0.181570 0.278241 0.816378
O O18 0.172778 0.314846 0.000000
#
# Coordination Sequence:
#
# PCOD8293511 Si02
#       8
#    16  16  16  16  16   4  16  16
#     4   9  18  31  49  75 108 150 190 226 269 318
#     4  10  20  34  52  78 112 145 180 228 278 323
#     4  10  20  34  53  80 113 146 193 233 266 324
#     4  10  21  40  64  86 114 148 180 227 283 339
#     4   9  18  32  49  74 106 140 183 226 269 320
#     4  12  22  40  64  94 118 132 182 228 286 346
#     4   9  19  37  61  82 104 141 185 224 272 330
#     4  10  19  33  55  77 105 143 189 224 270 321
#
# _framework density 18.806009
#
# number of rings (size 3 to 8) (size 9 to 14) (size 15 to 20)
#    0.000    2.345    0.690    1.862    1.931    3.586 
#    2.483    0.690    0.000    0.000    0.000    0.000 
#    0.000    0.000    0.000    0.000    0.000    0.000 
#
# Total GULP energy -719049.911492 kJ/mol
# GULP energy per Si atom -12397.412267 kJ/mol
# Density = 1.876321 g / cm^3
# Si number density = 18.806009 Si / 1000 Ang^3
#
#
#
# Elastic Constant Matrix: (Units=GPa)
#
#
# Indices 1 2 3 4 5 6 
#
# 1 103.7704 45.8150 44.2205 0.0000 0.0000 0.0000
# 2 45.8150 85.6069 36.2282 0.0000 0.0000 0.0000
# 3 44.2205 36.2282 78.4796 0.0000 0.0000 0.0000
# 4 0.0000 0.0000 0.0000 28.4372 0.0000 0.0000
# 5 0.0000 0.0000 0.0000 0.0000 25.0157 0.0000
# 6 0.0000 0.0000 0.0000 0.0000 0.0000 28.2921
#
#
#
# Elastic Compliance Matrix: (Units=1/GPa)
#
#
# Indices 1 2 3 4 5 6 
#
# 1 0.014391 -0.005307 -0.005659 0.000000 0.000000 0.000000
# 2 -0.005307 0.016474 -0.004615 0.000000 0.000000 0.000000
# 3 -0.005659 -0.004615 0.018061 0.000000 0.000000 0.000000
# 4 0.000000 0.000000 0.000000 0.035165 0.000000 0.000000
# 5 0.000000 0.000000 0.000000 0.000000 0.039975 0.000000
# 6 0.000000 0.000000 0.000000 0.000000 0.000000 0.035346
#
#
# Mechanical properties :
#
#
# Convention : Reuss Voigt Hill
#
# Bulk Modulus (GPa) = 56.28993 57.82049 57.05521
# Shear Modulus (GPa) = 25.44581 25.78854 25.61717
#
# Velocity S-wave (km/s) = 3.68240 3.70711 3.69478
# Velocity P-wave (km/s) = 6.93375 7.00971 6.97184
#
# Compressibility (1/GPa) = 0.01776517
#
# Stress axis : x y z
#
# Youngs Moduli (GPa) = 69.48640 60.70014 55.36741
#
# Poissons Ratio (x) = 0.32214 0.31333
# Poissons Ratio (y) = 0.36877 0.25550
# Poissons Ratio (z) = 0.39323 0.28011
#
# Static dielectric constant tensor:
#      x y z
#    x 3.633100 0.000000 0.000000 
#    y 0.000000 3.314080 0.000000 
#    z 0.000000 0.000000 3.387010 
# 
# 
# High freq. dielectric constant tensor:
#      x y z
#    x 1.735550 0.000000 0.000000 
#    y 0.000000 1.715220 0.000000 
#    z 0.000000 0.000000 1.728460 
# 
# From -- ./inp_files/25415.got.cif
#   From: 2010.03.12/outbox.cif.g09.slc.cpg/sg72_13_cif.got.tgz:25415.got - 2010.04.16 14:54:00.
