data_PCOD8293703
_publ_section_title
;
Structure prediction by ZEFSAII (Michael W. Deem and Ramdas Pophale) SiO2 
 PCOD8293703
Probable space group: I B A M
;
_chemical_formula_sum "Si O2"
_cell_formula_units_Z 116
_cell_length_a 12.210435
_cell_length_b 26.969323
_cell_length_c 19.417395
_cell_angle_alpha 90.000000
_cell_angle_beta 90.000000
_cell_angle_gamma 90.000000
_cell_volume 6394.287309
_symmetry_space_group_name_H-M "I B A M"
_symmetry_group_IT_number 72
_symmetry_cell_setting 'orthorhombic'
loop_
_space_group_symop_operation_xyz
x,y,z
-x,-y,z
x,-y,1/2-z
-x,y,1/2-z
-x,-y,-z
x,y,-z
-x,y,1/2+z
x,-y,1/2+z
1/2+x,1/2+y,1/2+z
1/2-x,1/2-y,1/2+z
1/2+x,1/2-y,-z
1/2-x,1/2+y,-z
1/2-x,1/2-y,1/2-z
1/2+x,1/2+y,1/2-z
1/2-x,1/2+y,z
1/2+x,1/2-y,z
loop_
_atom_site_type_symbol
_atom_site_label
_atom_site_fract_x
_atom_site_fract_y
_atom_site_fract_z
Si Si1 0.877484 0.495678 0.669024
Si Si2 0.751477 0.732961 0.361155
Si Si3 0.863587 0.172991 0.079729
Si Si4 0.500000 0.500000 0.750000
Si Si5 0.180208 0.065773 0.817923
Si Si6 0.111610 0.150473 0.078030
Si Si7 0.775307 0.605663 0.179396
Si Si8 0.378312 0.802734 0.236679
O O1 0.891087 0.500000 0.750000
O O2 0.786708 0.537330 0.649739
O O3 0.831411 0.442370 0.645811
O O4 0.000000 0.500000 0.635286
O O5 0.829153 0.771200 0.401135
O O6 0.691063 0.697719 0.415270
O O7 0.664461 0.762247 0.316011
O O8 0.817780 0.697411 0.309862
O O9 0.800124 0.131553 0.122880
O O10 0.990624 0.168279 0.097665
O O11 0.837942 0.163163 0.000000
O O12 0.422458 0.469894 0.697356
O O13 0.146037 0.105772 0.873548
O O14 0.203333 0.091792 0.745312
O O15 0.117202 0.131119 0.000000
O O16 0.870899 0.642768 0.203689
O O17 0.500000 0.786887 0.250000
#
# Coordination Sequence:
#
# PCOD8293703 Si02
#       8
#    16  16  16   4  16  16  16  16
#     4   9  19  34  57  85 113 145 185 233 287 338
#     4  10  20  37  54  80 114 149 186 231 281 340
#     4  10  22  38  56  81 114 151 191 232 285 344
#     4  12  20  36  60  84 116 148 188 244 300 332
#     4  11  21  36  58  87 115 146 192 240 284 349
#     4  11  23  38  58  82 115 156 191 235 287 344
#     4  10  19  36  57  85 110 145 183 235 282 328
#     4  10  20  31  55  87 112 140 182 234 283 327
#
# _framework density 18.141193999999999
#
# number of rings (size 3 to 8) (size 9 to 14) (size 15 to 20)
#    0.000    1.793    3.448    2.069    3.862    0.000 
#    1.241    1.034    0.000    7.448    0.000    0.000 
#    0.000    0.000    0.000    0.000    0.000    0.000 
#
# Total GULP energy -719069.687897 kJ/mol
# GULP energy per Si atom -12397.753240 kJ/mol
# Density = 1.809990 g / cm^3
# Si number density = 18.141194 Si / 1000 Ang^3
#
#
#
# Elastic Constant Matrix: (Units=GPa)
#
#
# Indices 1 2 3 4 5 6 
#
# 1 127.6832 72.4910 44.1764 0.0000 0.0000 0.0000
# 2 72.4910 122.4727 54.0803 0.0000 0.0000 0.0000
# 3 44.1764 54.0803 74.4404 0.0001 0.0000 0.0000
# 4 0.0000 0.0000 0.0001 9.5864 0.0000 0.0000
# 5 0.0000 0.0000 0.0000 0.0000 19.6235 0.0000
# 6 0.0000 0.0000 0.0000 0.0000 0.0000 12.9271
#
#
#
# Elastic Compliance Matrix: (Units=1/GPa)
#
#
# Indices 1 2 3 4 5 6 
#
# 1 0.012218 -0.005933 -0.002940 0.000000 0.000000 0.000000
# 2 -0.005933 0.014903 -0.007306 0.000000 0.000000 0.000000
# 3 -0.002940 -0.007306 0.020486 0.000000 0.000000 0.000000
# 4 0.000000 0.000000 0.000000 0.104314 0.000000 0.000000
# 5 0.000000 0.000000 0.000000 0.000000 0.050959 0.000000
# 6 0.000000 0.000000 0.000000 0.000000 0.000000 0.077357
#
#
# Mechanical properties :
#
#
# Convention : Reuss Voigt Hill
#
# Bulk Modulus (GPa) = 65.58110 74.01016 69.79563
# Shear Modulus (GPa) = 15.73922 18.68399 17.21161
#
# Velocity S-wave (km/s) = 2.94869 3.21272 3.08353
# Velocity P-wave (km/s) = 6.91534 7.39239 7.15784
#
# Compressibility (1/GPa) = 0.01524830
#
# Stress axis : x y z
#
# Youngs Moduli (GPa) = 81.84844 67.10045 48.81414
#
# Poissons Ratio (x) = 0.39813 0.14351
# Poissons Ratio (y) = 0.48564 0.35662
# Poissons Ratio (z) = 0.24063 0.49022
#
# Static dielectric constant tensor:
#      x y z
#    x 3.665270 0.000000 0.000000 
#    y 0.000000 3.519570 0.000000 
#    z 0.000000 0.000000 3.125330 
# 
# 
# High freq. dielectric constant tensor:
#      x y z
#    x 1.714500 0.000000 0.000000 
#    y 0.000000 1.714100 0.000000 
#    z 0.000000 0.000000 1.676990 
# 
# From -- ./inp_files/29702.got.cif
#   From: 2010.03.12/outbox.cif.g09.slc.cpg/sg72_15_cif.got.tgz:29702.got - 2010.04.16 14:54:00.
