data_PCOD8293949
_publ_section_title
;
Structure prediction by ZEFSAII (Michael W. Deem and Ramdas Pophale) SiO2 
 PCOD8293949
Probable space group: I B A M
;
_chemical_formula_sum "Si O2"
_cell_formula_units_Z 116
_cell_length_a 25.882098
_cell_length_b 24.973407
_cell_length_c 8.868177
_cell_angle_alpha 90.000000
_cell_angle_beta 90.000000
_cell_angle_gamma 90.000000
_cell_volume 5732.071843
_symmetry_space_group_name_H-M "I B A M"
_symmetry_group_IT_number 72
_symmetry_cell_setting 'orthorhombic'
loop_
_space_group_symop_operation_xyz
x,y,z
-x,-y,z
x,-y,1/2-z
-x,y,1/2-z
-x,-y,-z
x,y,-z
-x,y,1/2+z
x,-y,1/2+z
1/2+x,1/2+y,1/2+z
1/2-x,1/2-y,1/2+z
1/2+x,1/2-y,-z
1/2-x,1/2+y,-z
1/2-x,1/2-y,1/2-z
1/2+x,1/2+y,1/2-z
1/2-x,1/2+y,z
1/2+x,1/2-y,z
loop_
_atom_site_type_symbol
_atom_site_label
_atom_site_fract_x
_atom_site_fract_y
_atom_site_fract_z
Si Si1 0.728053 0.156412 0.178715
Si Si2 0.551177 0.837777 0.678154
Si Si3 0.154513 0.844322 0.178294
Si Si4 0.500000 0.500000 0.250000
Si Si5 0.310988 0.947772 0.668562
Si Si6 0.932538 0.552178 0.668784
Si Si7 0.144549 0.274735 0.320807
Si Si8 0.399228 0.449341 0.833151
O O1 0.786844 0.151043 0.236111
O O2 0.699541 0.102564 0.225896
O O3 0.700556 0.206767 0.259817
O O4 0.724489 0.164777 0.000000
O O5 0.500000 0.810478 0.750000
O O6 0.551063 0.830367 0.500000
O O7 0.551219 0.899665 0.723021
O O8 0.601310 0.810796 0.746855
O O9 0.133175 0.786481 0.229139
O O10 0.118315 0.892838 0.243825
O O11 0.153352 0.847059 0.000000
O O12 0.538204 0.540737 0.159729
O O13 0.287070 0.941326 0.500000
O O14 0.371682 0.953791 0.654078
O O15 0.286922 0.000000 0.750000
O O16 0.955878 0.500000 0.750000
O O17 0.955789 0.559964 0.500000
O O18 0.143945 0.282225 0.500000
O O19 0.372759 0.500000 0.750000
O O20 0.376582 0.449352 0.000000
#
# Coordination Sequence:
#
# PCOD8293949 Si02
#       8
#    16  16  16   4  16  16  16  16
#     4  11  21  36  60  87 119 162 206 251 307 367
#     4  12  25  42  63  87 118 155 200 251 305 361
#     4   9  21  39  60  88 124 161 199 249 304 361
#     4   8  18  32  70  88 122 156 206 232 302 352
#     4  10  20  34  55  83 118 157 200 246 297 355
#     4  10  20  36  59  86 117 151 194 242 296 352
#     4  11  22  41  63  84 117 161 205 253 308 363
#     4   9  18  36  60  89 122 156 195 242 298 358
#
# _framework density 20.237009
#
# number of rings (size 3 to 8) (size 9 to 14) (size 15 to 20)
#    0.414    1.379    1.379    3.517    0.000    1.931 
#    1.241    7.586    0.000    0.000    0.000    0.000 
#    0.000    0.000    0.000    0.000    0.000    0.000 
#
# Total GULP energy -718820.700593 kJ/mol
# GULP energy per Si atom -12393.460355 kJ/mol
# Density = 2.019095 g / cm^3
# Si number density = 20.237009 Si / 1000 Ang^3
#
#
#
# Elastic Constant Matrix: (Units=GPa)
#
#
# Indices 1 2 3 4 5 6 
#
# 1 93.7255 51.5720 28.5952 0.0000 0.0000 0.0000
# 2 51.5720 149.7323 38.5848 0.0000 0.0000 0.0000
# 3 28.5952 38.5848 109.8721 0.0000 0.0000 0.0000
# 4 0.0000 0.0000 0.0000 9.9319 0.0000 0.0000
# 5 0.0000 0.0000 0.0000 0.0000 21.2683 0.0000
# 6 0.0000 0.0000 0.0000 0.0000 0.0000 -37.6834
#
#
#
# Elastic Compliance Matrix: (Units=1/GPa)
#
#
# Indices 1 2 3 4 5 6 
#
# 1 0.013584 -0.004142 -0.002081 0.000000 0.000000 0.000000
# 2 -0.004142 0.008606 -0.001944 0.000000 0.000000 0.000000
# 3 -0.002081 -0.001944 0.010326 0.000000 0.000000 0.000000
# 4 0.000000 0.000000 0.000000 0.100686 0.000000 0.000000
# 5 0.000000 0.000000 0.000000 0.000000 0.047018 0.000000
# 6 0.000000 0.000000 0.000000 0.000000 0.000000 -0.026537
#
#
# Mechanical properties :
#
#
# Convention : Reuss Voigt Hill
#
# Bulk Modulus (GPa) = 61.79991 65.64824 63.72408
# Shear Modulus (GPa) = 28.50444 14.34188 21.42316
#
# Velocity S-wave (km/s) = 3.75711 2.66502 3.25716
# Velocity P-wave (km/s) = 7.03033 6.47919 6.76038
#
# Compressibility (1/GPa) = 0.01618125
#
# Stress axis : x y z
#
# Youngs Moduli (GPa) = 73.61845 116.19295 96.84524
#
# Poissons Ratio (x) = 0.48132 0.20149
# Poissons Ratio (y) = 0.30496 0.18829
# Poissons Ratio (z) = 0.15316 0.22591
#
# Static dielectric constant tensor:
#      x y z
#    x 3.698750 0.000000 0.000000 
#    y 0.000000 3.925220 0.000000 
#    z 0.000000 0.000000 3.672430 
# 
# 
# High freq. dielectric constant tensor:
#      x y z
#    x 1.783500 0.000000 0.000000 
#    y 0.000000 1.793020 0.000000 
#    z 0.000000 0.000000 1.785370 
# 
# From -- ./inp_files/8397.got.cif
#   From: 2010.03.12/outbox.cif.g09.slc.cpg/sg72_5_cif.got.tgz:8397.got - 2010.04.16 14:54:00.
