data_PCOD8293929
_publ_section_title
;
Structure prediction by ZEFSAII (Michael W. Deem and Ramdas Pophale) SiO2 
 PCOD8293929
Probable space group: I B A M
;
_chemical_formula_sum "Si O2"
_cell_formula_units_Z 112
_cell_length_a 31.291389
_cell_length_b 13.470505
_cell_length_c 14.499051
_cell_angle_alpha 90.000000
_cell_angle_beta 90.000000
_cell_angle_gamma 90.000000
_cell_volume 6111.506760
_symmetry_space_group_name_H-M "I B A M"
_symmetry_group_IT_number 72
_symmetry_cell_setting 'orthorhombic'
loop_
_space_group_symop_operation_xyz
x,y,z
-x,-y,z
x,-y,1/2-z
-x,y,1/2-z
-x,-y,-z
x,y,-z
-x,y,1/2+z
x,-y,1/2+z
1/2+x,1/2+y,1/2+z
1/2-x,1/2-y,1/2+z
1/2+x,1/2-y,-z
1/2-x,1/2+y,-z
1/2-x,1/2-y,1/2-z
1/2+x,1/2+y,1/2-z
1/2-x,1/2+y,z
1/2+x,1/2-y,z
loop_
_atom_site_type_symbol
_atom_site_label
_atom_site_fract_x
_atom_site_fract_y
_atom_site_fract_z
Si Si1 0.322124 0.883930 0.750000
Si Si2 0.612968 0.803411 0.607126
Si Si3 0.549916 0.883568 0.750000
Si Si4 0.659720 0.610822 0.104375
Si Si5 0.387032 0.196589 0.107126
Si Si6 0.340280 0.389178 0.395625
Si Si7 0.727608 0.617422 0.250000
O O1 0.347165 0.855530 0.842881
O O2 0.347165 0.855530 0.657119
O O3 0.274889 0.832101 0.750000
O O4 0.315856 0.000000 0.750000
O O5 0.611079 0.836203 0.500000
O O6 0.569301 0.834533 0.657671
O O7 0.619393 0.684489 0.617302
O O8 0.500000 0.862309 0.750000
O O9 0.569301 0.834533 0.842329
O O10 0.560796 0.000000 0.750000
O O11 0.619393 0.684490 0.117301
O O12 0.645310 0.500000 0.135732
O O13 0.700221 0.650412 0.161372
O O14 0.675679 0.610908 0.000000
O O15 0.388921 0.163796 0.000000
O O16 0.324321 0.389092 0.500000
O O17 0.299779 0.349588 0.338628
O O18 0.733900 0.500000 0.250000
#
# Coordination Sequence:
#
# PCOD8293929 Si02
#       7
#    16  16  16  16  16  16  16
#     4  10  21  33  45  69 104 136 170 212 250 287
#     4  10  20  34  54  76  98 129 165 202 248 297
#     4  10  22  39  57  78 102 125 155 197 242 296
#     4   9  18  32  50  73 100 132 171 208 241 283
#     4  10  20  34  54  76  98 129 165 202 248 297
#     4   9  18  32  50  73 100 132 171 208 241 283
#     4   9  17  30  47  66  97 140 175 208 248 282
#
# _framework density 18.326087000000001
#
# number of rings (size 3 to 8) (size 9 to 14) (size 15 to 20)
#    0.000    2.429    0.000    3.429    0.000    6.286 
#    0.000    7.143    0.000    1.714    0.000    4.000 
#    0.000    0.000    0.000    0.000    0.000    0.000 
#
# Total GULP energy -694183.980299 kJ/mol
# GULP energy per Si atom -12396.142505 kJ/mol
# Density = 1.828438 g / cm^3
# Si number density = 18.326087 Si / 1000 Ang^3
#
#
#
# Elastic Constant Matrix: (Units=GPa)
#
#
# Indices 1 2 3 4 5 6 
#
# 1 132.6091 53.4387 69.7154 0.0000 0.0000 0.0000
# 2 53.4387 75.8194 47.4856 0.0000 0.0000 0.0000
# 3 69.7154 47.4856 154.5076 0.0000 0.0000 0.0000
# 4 0.0000 0.0000 0.0000 24.2398 0.0000 0.0000
# 5 0.0000 0.0000 0.0000 0.0000 22.8384 0.0000
# 6 0.0000 0.0000 0.0000 0.0000 0.0000 25.0322
#
#
#
# Elastic Compliance Matrix: (Units=1/GPa)
#
#
# Indices 1 2 3 4 5 6 
#
# 1 0.011846 -0.006194 -0.003442 0.000000 0.000000 0.000000
# 2 -0.006194 0.019572 -0.003220 0.000000 0.000000 0.000000
# 3 -0.003442 -0.003220 0.009015 0.000000 0.000000 0.000000
# 4 0.000000 0.000000 0.000000 0.041254 0.000000 0.000000
# 5 0.000000 0.000000 0.000000 0.000000 0.043786 0.000000
# 6 0.000000 0.000000 0.000000 0.000000 0.000000 0.039949
#
#
# Mechanical properties :
#
#
# Convention : Reuss Voigt Hill
#
# Bulk Modulus (GPa) = 67.92970 78.24618 73.08794
# Shear Modulus (GPa) = 25.50493 27.24183 26.37338
#
# Velocity S-wave (km/s) = 3.73463 3.85971 3.79768
# Velocity P-wave (km/s) = 7.46621 7.91533 7.69405
#
# Compressibility (1/GPa) = 0.01472110
#
# Stress axis : x y z
#
# Youngs Moduli (GPa) = 84.41432 51.09407 110.92958
#
# Poissons Ratio (x) = 0.31648 0.38177
# Poissons Ratio (y) = 0.52287 0.35722
# Poissons Ratio (z) = 0.29052 0.16454
#
# Static dielectric constant tensor:
#      x y z
#    x 3.207140 0.000000 0.000000 
#    y 0.000000 3.656450 0.000000 
#    z 0.000000 0.000000 3.503240 
# 
# 
# High freq. dielectric constant tensor:
#      x y z
#    x 1.679340 0.000000 0.000000 
#    y 0.000000 1.727660 0.000000 
#    z 0.000000 0.000000 1.719630 
# 
# From -- ./inp_files/26526.got.cif
#   From: 2010.03.12/outbox.cif.g09.slc.cpg/sg72_14_cif.got.tgz:26526.got - 2010.04.16 14:54:00.
