data_PCOD8293233
_publ_section_title
;
Structure prediction by ZEFSAII (Michael W. Deem and Ramdas Pophale) SiO2 
 PCOD8293233
Probable space group: I B A M
;
_chemical_formula_sum "Si O2"
_cell_formula_units_Z 112
_cell_length_a 27.376678
_cell_length_b 15.428938
_cell_length_c 16.448211
_cell_angle_alpha 90.000000
_cell_angle_beta 90.000000
_cell_angle_gamma 90.000000
_cell_volume 6947.610299
_symmetry_space_group_name_H-M "I B A M"
_symmetry_group_IT_number 72
_symmetry_cell_setting 'orthorhombic'
loop_
_space_group_symop_operation_xyz
x,y,z
-x,-y,z
x,-y,1/2-z
-x,y,1/2-z
-x,-y,-z
x,y,-z
-x,y,1/2+z
x,-y,1/2+z
1/2+x,1/2+y,1/2+z
1/2-x,1/2-y,1/2+z
1/2+x,1/2-y,-z
1/2-x,1/2+y,-z
1/2-x,1/2-y,1/2-z
1/2+x,1/2+y,1/2-z
1/2-x,1/2+y,z
1/2+x,1/2-y,z
loop_
_atom_site_type_symbol
_atom_site_label
_atom_site_fract_x
_atom_site_fract_y
_atom_site_fract_z
Si Si1 0.512283 0.403676 0.343251
Si Si2 0.695934 0.639208 0.834329
Si Si3 0.081972 0.847904 0.593071
Si Si4 0.793054 0.595852 0.253669
Si Si5 0.337412 0.260054 0.682811
Si Si6 0.759580 0.303529 0.093351
Si Si7 0.108762 0.959106 0.904522
O O1 0.500000 0.500000 0.373539
O O2 0.500000 0.388835 0.250000
O O3 0.476564 0.339298 0.393213
O O4 0.569778 0.392318 0.362763
O O5 0.742682 0.592246 0.796284
O O6 0.664955 0.682252 0.763006
O O7 0.712207 0.712474 0.898361
O O8 0.663235 0.567878 0.879553
O O9 0.094981 0.833892 0.500000
O O10 0.109521 0.772957 0.643153
O O11 0.100693 0.942020 0.624850
O O12 0.816237 0.500000 0.250000
O O13 0.830391 0.660102 0.208133
O O14 0.784085 0.625870 0.346710
O O15 0.296555 0.289975 0.618364
O O16 0.762741 0.335912 0.000000
O O17 0.101363 0.951724 0.000000
#
# Coordination Sequence:
#
# PCOD8293233 Si02
#       7
#    16  16  16  16  16  16  16
#     4   9  17  29  42  60  88 124 158 189 225 265
#     4   9  18  29  45  63  86 119 151 187 231 280
#     4  10  19  29  43  64  92 125 156 188 228 273
#     4   9  19  33  47  66  89 121 157 197 238 285
#     4   9  18  31  45  62  86 119 153 189 234 281
#     4   9  17  31  46  63  89 115 149 195 239 277
#     4  10  19  28  42  66  92 121 159 196 226 268
#
# _framework density 16.120650999999999
#
# number of rings (size 3 to 8) (size 9 to 14) (size 15 to 20)
#    0.000    2.714    0.000    3.857    4.000    2.857 
#    0.000    3.571    0.000    0.000    0.000    0.000 
#    0.000   14.286    0.000   19.143    0.000    0.429 
#
# Total GULP energy -694206.728844 kJ/mol
# GULP energy per Si atom -12396.548729 kJ/mol
# Density = 1.608396 g / cm^3
# Si number density = 16.120651 Si / 1000 Ang^3
#
#
#
# Elastic Constant Matrix: (Units=GPa)
#
#
# Indices 1 2 3 4 5 6 
#
# 1 67.9821 24.0474 26.6864 0.0000 0.0000 0.0000
# 2 24.0474 73.1655 29.8043 0.0000 0.0000 0.0000
# 3 26.6864 29.8043 86.8629 0.0000 0.0000 0.0000
# 4 0.0000 0.0000 0.0000 16.9478 0.0000 0.0000
# 5 0.0000 0.0000 0.0000 0.0000 23.6143 0.0000
# 6 0.0000 0.0000 0.0000 0.0000 0.0000 23.0389
#
#
#
# Elastic Compliance Matrix: (Units=1/GPa)
#
#
# Indices 1 2 3 4 5 6 
#
# 1 0.017774 -0.004205 -0.004018 0.000000 0.000000 0.000000
# 2 -0.004205 0.016883 -0.004501 0.000000 0.000000 0.000000
# 3 -0.004018 -0.004501 0.014291 0.000000 0.000000 0.000000
# 4 0.000000 0.000000 0.000000 0.059005 0.000000 0.000000
# 5 0.000000 0.000000 0.000000 0.000000 0.042347 0.000000
# 6 0.000000 0.000000 0.000000 0.000000 0.000000 0.043405
#
#
# Mechanical properties :
#
#
# Convention : Reuss Voigt Hill
#
# Bulk Modulus (GPa) = 42.55195 43.23184 42.89189
# Shear Modulus (GPa) = 22.02763 22.55169 22.28966
#
# Velocity S-wave (km/s) = 3.70053 3.74429 3.72247
# Velocity P-wave (km/s) = 6.68668 6.75047 6.71865
#
# Compressibility (1/GPa) = 0.02350069
#
# Stress axis : x y z
#
# Youngs Moduli (GPa) = 56.26041 59.23010 69.97329
#
# Poissons Ratio (x) = 0.24908 0.28114
# Poissons Ratio (y) = 0.23659 0.31495
# Poissons Ratio (z) = 0.22605 0.26660
#
# Static dielectric constant tensor:
#      x y z
#    x 2.995590 0.000000 0.000000 
#    y 0.000000 2.777380 0.000000 
#    z 0.000000 0.000000 3.020340 
# 
# 
# High freq. dielectric constant tensor:
#      x y z
#    x 1.604610 0.000000 0.000000 
#    y 0.000000 1.577160 0.000000 
#    z 0.000000 0.000000 1.630370 
# 
# From -- ./inp_files/22278.got.cif
#   From: 2010.03.12/outbox.cif.g09.slc.cpg/sg72_12_cif.got.tgz:22278.got - 2010.04.16 14:54:00.
