data_PCOD8293044
_publ_section_title
;
Structure prediction by ZEFSAII (Michael W. Deem and Ramdas Pophale) SiO2 
 PCOD8293044
Probable space group: I B A M
;
_chemical_formula_sum "Si O2"
_cell_formula_units_Z 80
_cell_length_a 16.328714
_cell_length_b 14.806577
_cell_length_c 14.342979
_cell_angle_alpha 90.000000
_cell_angle_beta 90.000000
_cell_angle_gamma 90.000000
_cell_volume 3467.735899
_symmetry_space_group_name_H-M "I B A M"
_symmetry_group_IT_number 72
_symmetry_cell_setting 'orthorhombic'
loop_
_space_group_symop_operation_xyz
x,y,z
-x,-y,z
x,-y,1/2-z
-x,y,1/2-z
-x,-y,-z
x,y,-z
-x,y,1/2+z
x,-y,1/2+z
1/2+x,1/2+y,1/2+z
1/2-x,1/2-y,1/2+z
1/2+x,1/2-y,-z
1/2-x,1/2+y,-z
1/2-x,1/2-y,1/2-z
1/2+x,1/2+y,1/2-z
1/2-x,1/2+y,z
1/2+x,1/2-y,z
loop_
_atom_site_type_symbol
_atom_site_label
_atom_site_fract_x
_atom_site_fract_y
_atom_site_fract_z
Si Si1 0.972732 0.094865 0.891114
Si Si2 0.248487 0.857865 0.395480
Si Si3 0.208579 0.060034 0.604759
Si Si4 0.143076 0.600646 0.733425
Si Si5 0.589085 0.248125 0.890760
O O1 0.876792 0.109092 0.871606
O O2 0.024638 0.178634 0.850866
O O3 0.993186 0.089937 0.000000
O O4 0.000000 0.000000 0.844580
O O5 0.282780 0.846923 0.500000
O O6 0.329546 0.852888 0.330730
O O7 0.182193 0.780884 0.373966
O O8 0.199797 0.952247 0.384070
O O9 0.236445 0.084663 0.500000
O O10 0.273903 0.097825 0.675020
O O11 0.106700 0.500000 0.750000
O O12 0.077419 0.659210 0.674500
O O13 0.573411 0.225469 0.000000
#
# Coordination Sequence:
#
# PCOD8293044 Si02
#       5
#    16  16  16  16  16
#     4   9  15  27  50  77 108 152 199 243 301 370
#     4   9  17  30  49  70 103 153 202 246 296 352
#     4   9  16  29  48  74 112 154 194 240 300 367
#     4  10  20  31  46  75 117 156 197 246 301 357
#     4  10  18  30  51  77 107 150 201 254 307 359
#
# _framework density 23.069806
#
# number of rings (size 3 to 8) (size 9 to 14) (size 15 to 20)
#    0.000    2.600    2.000    1.200    0.000    0.800 
#    0.000    1.000    0.000    0.000    0.000    1.400 
#    0.000   28.000    0.000  122.200    0.000    0.600 
#
# Total GULP energy -495922.044922 kJ/mol
# GULP energy per Si atom -12398.051123 kJ/mol
# Density = 2.301730 g / cm^3
# Si number density = 23.069806 Si / 1000 Ang^3
#
#
#
# Elastic Constant Matrix: (Units=GPa)
#
#
# Indices 1 2 3 4 5 6 
#
# 1 32.0185 40.4436 20.3512 0.0000 0.0000 0.0000
# 2 40.4436 143.3401 46.5341 0.0000 0.0000 0.0000
# 3 20.3512 46.5341 86.4434 0.0000 0.0000 0.0000
# 4 0.0000 0.0000 0.0000 33.5387 0.0000 0.0000
# 5 0.0000 0.0000 0.0000 0.0000 19.1108 0.0000
# 6 0.0000 0.0000 0.0000 0.0000 0.0000 31.9539
#
#
#
# Elastic Compliance Matrix: (Units=1/GPa)
#
#
# Indices 1 2 3 4 5 6 
#
# 1 0.050311 -0.012542 -0.005093 0.000000 0.000000 0.000000
# 2 -0.012542 0.011580 -0.003281 0.000000 0.000000 0.000000
# 3 -0.005093 -0.003281 0.014534 0.000000 0.000000 0.000000
# 4 0.000000 0.000000 0.000000 0.029816 0.000000 0.000000
# 5 0.000000 0.000000 0.000000 0.000000 0.052326 0.000000
# 6 0.000000 0.000000 0.000000 0.000000 0.000000 0.031295
#
#
# Mechanical properties :
#
#
# Convention : Reuss Voigt Hill
#
# Bulk Modulus (GPa) = 28.90780 52.93999 40.92389
# Shear Modulus (GPa) = 20.55696 27.21888 23.88792
#
# Velocity S-wave (km/s) = 2.98833 3.43862 3.22135
# Velocity P-wave (km/s) = 4.94617 6.22600 5.62262
#
# Compressibility (1/GPa) = 0.03459274
#
# Stress axis : x y z
#
# Youngs Moduli (GPa) = 19.87625 86.35307 68.80586
#
# Poissons Ratio (x) = 1.08304 0.35044
# Poissons Ratio (y) = 0.24929 0.22577
# Poissons Ratio (z) = 0.10123 0.28334
#
# Static dielectric constant tensor:
#      x y z
#    x 3.641800 0.000000 0.000000 
#    y 0.000000 4.290720 0.000000 
#    z 0.000000 0.000000 4.251770 
# 
# 
# High freq. dielectric constant tensor:
#      x y z
#    x 1.869400 0.000000 0.000000 
#    y 0.000000 1.905740 0.000000 
#    z 0.000000 0.000000 1.914960 
# 
# From -- ./inp_files/32564.got.cif
#   From: 2010.03.12/outbox.cif.g09.slc.cpg/sg72_17_cif.got.tgz:32564.got - 2010.04.16 14:54:00.
