data_PCOD8293639
_publ_section_title
;
Structure prediction by ZEFSAII (Michael W. Deem and Ramdas Pophale) SiO2 
 PCOD8293639
Probable space group: I B A M
;
_chemical_formula_sum "Si O2"
_cell_formula_units_Z 68
_cell_length_a 8.836079
_cell_length_b 20.719075
_cell_length_c 18.567522
_cell_angle_alpha 90.000000
_cell_angle_beta 90.000000
_cell_angle_gamma 90.000000
_cell_volume 3399.256211
_symmetry_space_group_name_H-M "I B A M"
_symmetry_group_IT_number 72
_symmetry_cell_setting 'orthorhombic'
loop_
_space_group_symop_operation_xyz
x,y,z
-x,-y,z
x,-y,1/2-z
-x,y,1/2-z
-x,-y,-z
x,y,-z
-x,y,1/2+z
x,-y,1/2+z
1/2+x,1/2+y,1/2+z
1/2-x,1/2-y,1/2+z
1/2+x,1/2-y,-z
1/2-x,1/2+y,-z
1/2-x,1/2-y,1/2-z
1/2+x,1/2+y,1/2-z
1/2-x,1/2+y,z
1/2+x,1/2-y,z
loop_
_atom_site_type_symbol
_atom_site_label
_atom_site_fract_x
_atom_site_fract_y
_atom_site_fract_z
Si Si1 0.000000 0.000000 0.250000
Si Si2 0.018664 0.425117 0.079039
Si Si3 0.689105 0.162400 0.659704
Si Si4 0.282128 0.605953 0.312860
Si Si5 0.993492 0.788175 0.666181
O O1 0.106813 0.045433 0.298655
O O2 0.145749 0.415410 0.138040
O O3 0.000000 0.500000 0.069709
O O4 0.859741 0.394959 0.106752
O O5 0.058120 0.395626 0.000000
O O6 0.710403 0.135482 0.740058
O O7 0.553546 0.214537 0.653952
O O8 0.842628 0.197005 0.631448
O O9 0.369507 0.660073 0.360472
O O10 0.000000 0.804212 0.750000
#
# Coordination Sequence:
#
# PCOD8293639 Si02
#       5
#     4  16  16  16  16
#     4  12  20  36  64 100 128 148 212 262 304 364
#     4  11  25  42  59  84 123 168 209 252 311 371
#     4  11  20  39  63  94 123 159 204 252 307 366
#     4  11  21  37  63  95 123 158 206 255 306 363
#     4  10  19  34  62  95 125 153 196 255 309 361
#
# _framework density 20.004376000000001
#
# number of rings (size 3 to 8) (size 9 to 14) (size 15 to 20)
#    0.000    1.176    3.529    7.765    0.000    0.941 
#    0.000    6.471    0.000    0.000    0.000    0.000 
#    0.000    0.000    0.000    0.000    0.000    0.000 
#
# Total GULP energy -421441.225634 kJ/mol
# GULP energy per Si atom -12395.330166 kJ/mol
# Density = 1.995884 g / cm^3
# Si number density = 20.004376 Si / 1000 Ang^3
#
#
#
# Elastic Constant Matrix: (Units=GPa)
#
#
# Indices 1 2 3 4 5 6 
#
# 1 121.6622 54.7614 46.0227 0.0000 0.0000 0.0000
# 2 54.7614 113.7209 40.5280 0.0000 0.0000 0.0000
# 3 46.0227 40.5280 74.9689 0.0000 0.0000 0.0000
# 4 0.0000 0.0000 0.0000 7.3704 0.0000 0.0000
# 5 0.0000 0.0000 0.0000 0.0000 -2.5527 0.0000
# 6 0.0000 0.0000 0.0000 0.0000 0.0000 51.2962
#
#
#
# Elastic Compliance Matrix: (Units=1/GPa)
#
#
# Indices 1 2 3 4 5 6 
#
# 1 0.011950 -0.003889 -0.005233 0.000000 0.000000 0.000000
# 2 -0.003889 0.012158 -0.004185 0.000000 0.000000 0.000000
# 3 -0.005233 -0.004185 0.018814 0.000000 0.000000 0.000000
# 4 0.000000 0.000000 0.000000 0.135677 0.000000 0.000000
# 5 0.000000 0.000000 0.000000 0.000000 -0.391735 0.000000
# 6 0.000000 0.000000 0.000000 0.000000 0.000000 0.019495
#
#
# Mechanical properties :
#
#
# Convention : Reuss Voigt Hill
#
# Bulk Modulus (GPa) = 61.32531 65.88624 63.60578
# Shear Modulus (GPa) = -30.94229 22.49209 -4.22510
#
# Velocity S-wave (km/s) = -3.93717 3.35678 -1.45488
# Velocity P-wave (km/s) = 3.17081 6.93047 5.38913
#
# Compressibility (1/GPa) = 0.01630648
#
# Stress axis : x y z
#
# Youngs Moduli (GPa) = 83.68379 82.25239 53.15225
#
# Poissons Ratio (x) = 0.31990 0.27816
# Poissons Ratio (y) = 0.32547 0.22243
# Poissons Ratio (z) = 0.43794 0.34421
#
# Static dielectric constant tensor:
#      x y z
#    x 4.034230 0.000000 0.000000 
#    y 0.000000 3.915110 0.000000 
#    z 0.000000 0.000000 3.410050 
# 
# 
# High freq. dielectric constant tensor:
#      x y z
#    x 1.798470 0.000000 0.000000 
#    y 0.000000 1.802020 0.000000 
#    z 0.000000 0.000000 1.728840 
# 
# From -- ./inp_files/27764.got.cif
#   From: 2010.03.12/outbox.cif.g09.slc.cpg/sg72_14_cif.got.tgz:27764.got - 2010.04.16 14:54:00.
