data_PCOD8293978
_publ_section_title
;
Structure prediction by ZEFSAII (Michael W. Deem and Ramdas Pophale) SiO2 
 PCOD8293978
Probable space group: I B A M
;
_chemical_formula_sum "Si O2"
_cell_formula_units_Z 88
_cell_length_a 29.103761
_cell_length_b 10.920049
_cell_length_c 14.547850
_cell_angle_alpha 90.000000
_cell_angle_beta 90.000000
_cell_angle_gamma 90.000000
_cell_volume 4623.517619
_symmetry_space_group_name_H-M "I B A M"
_symmetry_group_IT_number 72
_symmetry_cell_setting 'orthorhombic'
loop_
_space_group_symop_operation_xyz
x,y,z
-x,-y,z
x,-y,1/2-z
-x,y,1/2-z
-x,-y,-z
x,y,-z
-x,y,1/2+z
x,-y,1/2+z
1/2+x,1/2+y,1/2+z
1/2-x,1/2-y,1/2+z
1/2+x,1/2-y,-z
1/2-x,1/2+y,-z
1/2-x,1/2-y,1/2-z
1/2+x,1/2+y,1/2-z
1/2-x,1/2+y,z
1/2+x,1/2-y,z
loop_
_atom_site_type_symbol
_atom_site_label
_atom_site_fract_x
_atom_site_fract_y
_atom_site_fract_z
Si Si1 0.552915 0.844919 0.500000
Si Si2 0.952118 0.365978 0.000000
Si Si3 0.809966 0.826880 0.600754
Si Si4 0.378432 0.873247 0.357750
Si Si5 0.217671 0.199011 0.106013
Si Si6 0.299697 0.500000 0.750000
Si Si7 0.125230 0.654063 0.647304
O O1 0.500744 0.792757 0.500000
O O2 0.581235 0.799926 0.410737
O O3 0.543945 0.988667 0.500000
O O4 0.924114 0.327644 0.090739
O O5 0.816607 0.887075 0.500000
O O6 0.834821 0.697658 0.603513
O O7 0.756170 0.802806 0.621271
O O8 0.829861 0.916364 0.680477
O O9 0.388434 0.841132 0.252960
O O10 0.364929 0.013313 0.379315
O O11 0.228259 0.088451 0.178721
O O12 0.168668 0.260780 0.126203
O O13 0.219330 0.151281 0.000000
#
# Coordination Sequence:
#
# PCOD8293978 Si02
#       7
#     8   8  16  16  16   8  16
#     4   9  18  34  55  83 117 145 179 234 292 345
#     4   9  18  34  55  83 117 145 179 234 292 345
#     4  11  24  38  57  83 115 153 195 229 276 329
#     4  10  20  34  57  85 115 150 186 228 281 341
#     4  11  24  38  57  83 115 153 195 229 276 329
#     4  12  24  40  54  82 115 156 187 246 262 330
#     4  10  20  34  57  85 115 150 186 228 281 341
#
# _framework density 19.033127
#
# number of rings (size 3 to 8) (size 9 to 14) (size 15 to 20)
#    0.000    1.636    3.636    1.091    2.545    0.727 
#    0.000    3.636    0.000    0.000    0.000    3.818 
#    0.000    0.000    0.000    0.000    0.000    0.000 
#
# Total GULP energy -545208.279822 kJ/mol
# GULP energy per Si atom -12391.097269 kJ/mol
# Density = 1.898981 g / cm^3
# Si number density = 19.033127 Si / 1000 Ang^3
#
#
#
# Elastic Constant Matrix: (Units=GPa)
#
#
# Indices 1 2 3 4 5 6 
#
# 1 118.2978 27.9766 43.8434 0.0000 0.0000 0.0000
# 2 27.9766 65.6672 46.6898 0.0000 0.0000 0.0000
# 3 43.8434 46.6898 167.5939 0.0000 0.0000 0.0000
# 4 0.0000 0.0000 0.0000 34.6398 0.0000 0.0000
# 5 0.0000 0.0000 0.0000 0.0000 21.5247 0.0000
# 6 0.0000 0.0000 0.0000 0.0000 0.0000 17.1982
#
#
#
# Elastic Compliance Matrix: (Units=1/GPa)
#
#
# Indices 1 2 3 4 5 6 
#
# 1 0.009793 -0.002931 -0.001745 0.000000 0.000000 0.000000
# 2 -0.002931 0.019867 -0.004768 0.000000 0.000000 0.000000
# 3 -0.001745 -0.004768 0.007752 0.000000 0.000000 0.000000
# 4 0.000000 0.000000 0.000000 0.028869 0.000000 0.000000
# 5 0.000000 0.000000 0.000000 0.000000 0.046458 0.000000
# 6 0.000000 0.000000 0.000000 0.000000 0.000000 0.058146
#
#
# Mechanical properties :
#
#
# Convention : Reuss Voigt Hill
#
# Bulk Modulus (GPa) = 53.98706 65.39760 59.69233
# Shear Modulus (GPa) = 25.51692 30.20912 27.86302
#
# Velocity S-wave (km/s) = 3.66547 3.98827 3.83027
# Velocity P-wave (km/s) = 6.80739 7.45942 7.14085
#
# Compressibility (1/GPa) = 0.01852296
#
# Stress axis : x y z
#
# Youngs Moduli (GPa) = 102.11009 50.33429 129.00428
#
# Poissons Ratio (x) = 0.14755 0.22516
# Poissons Ratio (y) = 0.29932 0.61508
# Poissons Ratio (z) = 0.17822 0.23999
#
# Static dielectric constant tensor:
#      x y z
#    x 3.446280 0.000000 0.000000 
#    y 0.000000 3.309570 0.000000 
#    z 0.000000 0.000000 3.919340 
# 
# 
# High freq. dielectric constant tensor:
#      x y z
#    x 1.709720 0.000000 0.000000 
#    y 0.000000 1.709440 0.000000 
#    z 0.000000 0.000000 1.772740 
# 
# From -- ./inp_files/20338.got.cif
#   From: 2010.03.12/outbox.cif.g09.slc.cpg/sg72_11_cif.got.tgz:20338.got - 2010.04.16 14:54:00.
