data_PCOD8293809
_publ_section_title
;
Structure prediction by ZEFSAII (Michael W. Deem and Ramdas Pophale) SiO2 
 PCOD8293809
Probable space group: I B A M
;
_chemical_formula_sum "Si O2"
_cell_formula_units_Z 80
_cell_length_a 18.418497
_cell_length_b 27.018177
_cell_length_c 8.880581
_cell_angle_alpha 90.000000
_cell_angle_beta 90.000000
_cell_angle_gamma 90.000000
_cell_volume 4419.280928
_symmetry_space_group_name_H-M "I B A M"
_symmetry_group_IT_number 72
_symmetry_cell_setting 'orthorhombic'
loop_
_space_group_symop_operation_xyz
x,y,z
-x,-y,z
x,-y,1/2-z
-x,y,1/2-z
-x,-y,-z
x,y,-z
-x,y,1/2+z
x,-y,1/2+z
1/2+x,1/2+y,1/2+z
1/2-x,1/2-y,1/2+z
1/2+x,1/2-y,-z
1/2-x,1/2+y,-z
1/2-x,1/2-y,1/2-z
1/2+x,1/2+y,1/2-z
1/2-x,1/2+y,z
1/2+x,1/2-y,z
loop_
_atom_site_type_symbol
_atom_site_label
_atom_site_fract_x
_atom_site_fract_y
_atom_site_fract_z
Si Si1 0.222630 0.300243 0.678234
Si Si2 0.280016 0.604032 0.325067
Si Si3 0.074827 0.349308 0.324611
Si Si4 0.927676 0.948432 0.325947
Si Si5 0.651469 0.949157 0.821309
O O1 0.232909 0.298749 0.500000
O O2 0.250000 0.250000 0.750000
O O3 0.271819 0.343521 0.744828
O O4 0.138459 0.310889 0.721027
O O5 0.258261 0.607614 0.500000
O O6 0.363537 0.590348 0.302470
O O7 0.230573 0.562392 0.246319
O O8 0.061547 0.348069 0.500000
O O9 0.097139 0.404852 0.274528
O O10 0.000000 0.332511 0.250000
O O11 0.943176 0.958458 0.500000
O O12 0.000000 0.925951 0.250000
O O13 0.905923 0.000000 0.250000
O O14 0.621369 0.000000 0.750000
O O15 0.658223 0.954244 0.000000
#
# Coordination Sequence:
#
# PCOD8293809 Si02
#       5
#    16  16  16  16  16
#     4  10  21  38  59  82 105 133 171 215 260 310
#     4  10  20  34  53  77 103 135 174 217 262 311
#     4   9  20  36  54  78 107 137 172 211 255 306
#     4  10  20  32  49  73 103 138 175 213 257 309
#     4  10  20  33  50  76 107 141 179 216 254 304
#
# _framework density 18.102492999999999
#
# number of rings (size 3 to 8) (size 9 to 14) (size 15 to 20)
#    0.000    2.200    0.000    4.800    0.000   10.000 
#    0.000    3.000    0.000    0.000    0.000    0.000 
#    0.000    0.000    0.000    0.000    0.000    0.000 
#
# Total GULP energy -496033.013921 kJ/mol
# GULP energy per Si atom -12400.825348 kJ/mol
# Density = 1.806129 g / cm^3
# Si number density = 18.102493 Si / 1000 Ang^3
#
#
#
# Elastic Constant Matrix: (Units=GPa)
#
#
# Indices 1 2 3 4 5 6 
#
# 1 127.5355 60.8545 63.6069 0.0000 0.0000 0.0000
# 2 60.8545 113.1999 52.4697 0.0000 0.0000 0.0000
# 3 63.6069 52.4697 110.8171 0.0000 0.0000 0.0000
# 4 0.0000 0.0000 0.0000 33.3712 0.0000 0.0000
# 5 0.0000 0.0000 0.0000 0.0000 33.0460 0.0000
# 6 0.0000 0.0000 0.0000 0.0000 0.0000 17.2978
#
#
#
# Elastic Compliance Matrix: (Units=1/GPa)
#
#
# Indices 1 2 3 4 5 6 
#
# 1 0.012448 -0.004331 -0.005095 0.000000 0.000000 0.000000
# 2 -0.004331 0.012824 -0.003586 0.000000 0.000000 0.000000
# 3 -0.005095 -0.003586 0.013646 0.000000 0.000000 0.000000
# 4 0.000000 0.000000 0.000000 0.029966 0.000000 0.000000
# 5 0.000000 0.000000 0.000000 0.000000 0.030261 0.000000
# 6 0.000000 0.000000 0.000000 0.000000 0.000000 0.057811
#
#
# Mechanical properties :
#
#
# Convention : Reuss Voigt Hill
#
# Bulk Modulus (GPa) = 77.54595 78.37941 77.96268
# Shear Modulus (GPa) = 26.69831 28.38443 27.54137
#
# Velocity S-wave (km/s) = 3.84453 3.96407 3.90476
# Velocity P-wave (km/s) = 7.91438 8.02144 7.96809
#
# Compressibility (1/GPa) = 0.01289558
#
# Stress axis : x y z
#
# Youngs Moduli (GPa) = 80.33311 77.97701 73.28056
#
# Poissons Ratio (x) = 0.33768 0.37334
# Poissons Ratio (y) = 0.34788 0.26281
# Poissons Ratio (z) = 0.40927 0.27966
#
# Static dielectric constant tensor:
#      x y z
#    x 3.382610 0.000000 0.000000 
#    y 0.000000 3.255110 0.000000 
#    z 0.000000 0.000000 3.477660 
# 
# 
# High freq. dielectric constant tensor:
#      x y z
#    x 1.700630 0.000000 0.000000 
#    y 0.000000 1.687460 0.000000 
#    z 0.000000 0.000000 1.717670 
# 
# From -- ./inp_files/4798.got.cif
#   From: 2010.03.12/outbox.cif.g09.slc.cpg/sg72_3_cif.got.tgz:4798.got - 2010.04.16 14:54:00.
