data_PCOD8293707
_publ_section_title
;
Structure prediction by ZEFSAII (Michael W. Deem and Ramdas Pophale) SiO2 
 PCOD8293707
Probable space group: I B A M
;
_chemical_formula_sum "Si O2"
_cell_formula_units_Z 80
_cell_length_a 12.621270
_cell_length_b 13.039648
_cell_length_c 22.297224
_cell_angle_alpha 90.000000
_cell_angle_beta 90.000000
_cell_angle_gamma 90.000000
_cell_volume 3669.608408
_symmetry_space_group_name_H-M "I B A M"
_symmetry_group_IT_number 72
_symmetry_cell_setting 'orthorhombic'
loop_
_space_group_symop_operation_xyz
x,y,z
-x,-y,z
x,-y,1/2-z
-x,y,1/2-z
-x,-y,-z
x,y,-z
-x,y,1/2+z
x,-y,1/2+z
1/2+x,1/2+y,1/2+z
1/2-x,1/2-y,1/2+z
1/2+x,1/2-y,-z
1/2-x,1/2+y,-z
1/2-x,1/2-y,1/2-z
1/2+x,1/2+y,1/2-z
1/2-x,1/2+y,z
1/2+x,1/2-y,z
loop_
_atom_site_type_symbol
_atom_site_label
_atom_site_fract_x
_atom_site_fract_y
_atom_site_fract_z
Si Si1 0.504038 0.819610 0.500000
Si Si2 0.061183 0.630988 0.372221
Si Si3 0.286667 0.717194 0.000000
Si Si4 0.626348 0.630045 0.000000
Si Si5 0.640678 0.945715 0.186084
Si Si6 0.000000 0.000000 0.593518
Si Si7 0.171575 0.153512 0.873945
O O1 0.514874 0.884029 0.560732
O O2 0.585485 0.724176 0.500000
O O3 0.394844 0.755501 0.500000
O O4 0.142464 0.537327 0.362819
O O5 0.124378 0.735041 0.360782
O O6 0.965469 0.622218 0.323861
O O7 0.252049 0.841372 0.000000
O O8 0.266856 0.652592 0.061368
O O9 0.582095 0.571605 0.942812
O O10 0.743533 0.874557 0.177109
O O11 0.641630 0.000000 0.250000
O O12 0.074525 0.926533 0.632213
#
# Coordination Sequence:
#
# PCOD8293707 Si02
#       7
#     8  16   8   8  16   8  16
#     4  10  19  36  59 106 126 173 214 250 344 417
#     4  10  22  43  66  97 139 168 215 282 334 404
#     4  10  20  35  61  99 134 175 206 253 355 413
#     4  11  19  35  60  88 147 169 203 257 324 418
#     4  11  26  46  68  94 128 181 238 272 328 392
#     4  11  22  38  59 100 136 174 207 273 332 392
#     4  11  24  40  67 101 132 175 221 277 339 405
#
# _framework density 21.800689999999999
#
# number of rings (size 3 to 8) (size 9 to 14) (size 15 to 20)
#    0.000    1.400    4.000    3.000    5.600    3.200 
#    0.000    2.500    0.000    0.000    0.000    0.000 
#    0.000    0.000    0.000    0.000    0.000    0.000 
#
# Total GULP energy -495607.617878 kJ/mol
# GULP energy per Si atom -12390.190447 kJ/mol
# Density = 2.175107 g / cm^3
# Si number density = 21.800690 Si / 1000 Ang^3
#
#
#
# Elastic Constant Matrix: (Units=GPa)
#
#
# Indices 1 2 3 4 5 6 
#
# 1 91.7533 52.9770 32.8992 0.0000 0.0000 0.0000
# 2 52.9770 128.3161 37.7938 0.0000 0.0000 0.0000
# 3 32.8992 37.7938 114.2230 0.0000 0.0000 0.0000
# 4 0.0000 0.0000 0.0000 32.8820 0.0000 0.0000
# 5 0.0000 0.0000 0.0000 0.0000 22.9520 0.0000
# 6 0.0000 0.0000 0.0000 0.0000 0.0000 55.6122
#
#
#
# Elastic Compliance Matrix: (Units=1/GPa)
#
#
# Indices 1 2 3 4 5 6 
#
# 1 0.014930 -0.005426 -0.002505 0.000000 0.000000 0.000000
# 2 -0.005426 0.010607 -0.001947 0.000000 0.000000 0.000000
# 3 -0.002505 -0.001947 0.010120 0.000000 0.000000 0.000000
# 4 0.000000 0.000000 0.000000 0.030412 0.000000 0.000000
# 5 0.000000 0.000000 0.000000 0.000000 0.043569 0.000000
# 6 0.000000 0.000000 0.000000 0.000000 0.000000 0.017982
#
#
# Mechanical properties :
#
#
# Convention : Reuss Voigt Hill
#
# Bulk Modulus (GPa) = 62.88613 64.62582 63.75597
# Shear Modulus (GPa) = 32.74910 36.33075 34.53992
#
# Velocity S-wave (km/s) = 3.88003 4.08670 3.98471
# Velocity P-wave (km/s) = 6.99867 7.20947 7.10485
#
# Compressibility (1/GPa) = 0.01590176
#
# Stress axis : x y z
#
# Youngs Moduli (GPa) = 66.97942 94.27797 98.81066
#
# Poissons Ratio (x) = 0.51158 0.24750
# Poissons Ratio (y) = 0.36345 0.19235
# Poissons Ratio (z) = 0.16777 0.18353
#
# Static dielectric constant tensor:
#      x y z
#    x 3.993650 0.000000 0.000000 
#    y 0.000000 3.955910 0.000000 
#    z 0.000000 0.000000 3.775970 
# 
# 
# High freq. dielectric constant tensor:
#      x y z
#    x 1.869870 0.000000 0.000000 
#    y 0.000000 1.858570 0.000000 
#    z 0.000000 0.000000 1.825520 
# 
# From -- ./inp_files/44122.got.cif
#   From: 2010.03.12/outbox.cif.g09.slc.cpg/sg72_23_cif.got.tgz:44122.got - 2010.04.16 14:54:00.
