data_PCOD8293057
_publ_section_title
;
Structure prediction by ZEFSAII (Michael W. Deem and Ramdas Pophale) SiO2 
 PCOD8293057
Probable space group: I B A M
;
_chemical_formula_sum "Si O2"
_cell_formula_units_Z 96
_cell_length_a 20.571862
_cell_length_b 14.064368
_cell_length_c 15.143067
_cell_angle_alpha 90.000000
_cell_angle_beta 90.000000
_cell_angle_gamma 90.000000
_cell_volume 4381.347173
_symmetry_space_group_name_H-M "I B A M"
_symmetry_group_IT_number 72
_symmetry_cell_setting 'orthorhombic'
loop_
_space_group_symop_operation_xyz
x,y,z
-x,-y,z
x,-y,1/2-z
-x,y,1/2-z
-x,-y,-z
x,y,-z
-x,y,1/2+z
x,-y,1/2+z
1/2+x,1/2+y,1/2+z
1/2-x,1/2-y,1/2+z
1/2+x,1/2-y,-z
1/2-x,1/2+y,-z
1/2-x,1/2-y,1/2-z
1/2+x,1/2+y,1/2-z
1/2-x,1/2+y,z
1/2+x,1/2-y,z
loop_
_atom_site_type_symbol
_atom_site_label
_atom_site_fract_x
_atom_site_fract_y
_atom_site_fract_z
Si Si1 0.189830 0.450487 0.099420
Si Si2 0.435809 0.955581 0.653832
Si Si3 0.485966 0.762496 0.604345
Si Si4 0.315943 0.552106 0.894383
Si Si5 0.135511 0.254688 0.894626
Si Si6 0.940170 0.058592 0.104584
O O1 0.127461 0.519248 0.097640
O O2 0.249448 0.507002 0.145697
O O3 0.172335 0.348445 0.144280
O O4 0.211544 0.429074 0.000000
O O5 0.446651 0.842855 0.657458
O O6 0.500000 0.000000 0.607601
O O7 0.426385 0.000000 0.750000
O O8 0.482463 0.782281 0.500000
O O9 0.560537 0.755776 0.636894
O O10 0.447544 0.667832 0.631499
O O11 0.328132 0.659806 0.859694
O O12 0.373173 0.484166 0.858411
O O13 0.313892 0.555200 0.000000
O O14 0.135783 0.257551 0.000000
O O15 0.941419 0.046374 0.000000
O O16 0.000000 0.000000 0.145923
#
# Coordination Sequence:
#
# PCOD8293057 Si02
#       6
#    16  16  16  16  16  16
#     4  10  20  33  53  79 109 143 182 228 275 335
#     4  11  23  37  53  77 102 143 188 236 281 328
#     4  10  18  30  55  84 111 143 185 230 278 334
#     4   9  17  29  48  79 117 147 176 220 277 333
#     4   9  16  28  48  77 110 144 176 220 280 322
#     4   9  15  26  48  82 117 145 175 221 274 329
#
# _framework density 21.911069999999999
#
# number of rings (size 3 to 8) (size 9 to 14) (size 15 to 20)
#    0.000    2.333    3.333    0.500    0.000    2.000 
#    0.000    5.000    0.000    4.000    0.000    7.000 
#    0.000    0.000    0.000    0.000    0.000    0.167 
#
# Total GULP energy -594996.829359 kJ/mol
# GULP energy per Si atom -12395.767278 kJ/mol
# Density = 2.186120 g / cm^3
# Si number density = 21.911070 Si / 1000 Ang^3
#
#
#
# Elastic Constant Matrix: (Units=GPa)
#
#
# Indices 1 2 3 4 5 6 
#
# 1 181.9260 108.6441 -0.9444 0.0000 0.0000 0.0000
# 2 108.6441 221.4274 13.1636 0.0000 0.0000 0.0000
# 3 -0.9444 13.1636 18.8913 0.0000 0.0000 0.0000
# 4 0.0000 0.0000 0.0000 13.9436 0.0000 0.0000
# 5 0.0000 0.0000 0.0000 0.0000 2.1169 0.0000
# 6 0.0000 0.0000 0.0000 0.0000 0.0000 42.3309
#
#
#
# Elastic Compliance Matrix: (Units=1/GPa)
#
#
# Indices 1 2 3 4 5 6 
#
# 1 0.007962 -0.004100 0.003255 0.000000 0.000000 0.000000
# 2 -0.004100 0.006823 -0.004959 0.000000 0.000000 0.000000
# 3 0.003255 -0.004959 0.056553 0.000000 0.000000 0.000000
# 4 0.000000 0.000000 0.000000 0.071717 0.000000 0.000000
# 5 0.000000 0.000000 0.000000 0.000000 0.472380 0.000000
# 6 0.000000 0.000000 0.000000 0.000000 0.000000 0.023623
#
#
# Mechanical properties :
#
#
# Convention : Reuss Voigt Hill
#
# Bulk Modulus (GPa) = 16.74225 73.77462 45.25843
# Shear Modulus (GPa) = 7.45627 31.77038 19.61333
#
# Velocity S-wave (km/s) = 1.84671 3.81198 2.99512
# Velocity P-wave (km/s) = 3.49353 7.28821 5.71501
#
# Compressibility (1/GPa) = 0.05972911
#
# Stress axis : x y z
#
# Youngs Moduli (GPa) = 125.59285 146.56851 17.68265
#
# Poissons Ratio (x) = 0.60096 -0.05756
# Poissons Ratio (y) = 0.51496 0.08769
# Poissons Ratio (z) = -0.40882 0.72685
#
# Static dielectric constant tensor:
#      x y z
#    x 4.150930 0.000000 0.000000 
#    y 0.000000 4.245310 0.000000 
#    z 0.000000 0.000000 3.203820 
# 
# 
# High freq. dielectric constant tensor:
#      x y z
#    x 1.858420 0.000000 0.000000 
#    y 0.000000 1.876020 0.000000 
#    z 0.000000 0.000000 1.806160 
# 
# From -- ./inp_files/39693.got.cif
#   From: 2010.03.12/outbox.cif.g09.slc.cpg/sg72_20_cif.got.tgz:39693.got - 2010.04.16 14:54:00.
