data_PCOD8293402
_publ_section_title
;
Structure prediction by ZEFSAII (Michael W. Deem and Ramdas Pophale) SiO2 
 PCOD8293402
Probable space group: I B A M
;
_chemical_formula_sum "Si O2"
_cell_formula_units_Z 80
_cell_length_a 23.340235
_cell_length_b 24.122075
_cell_length_c 8.475980
_cell_angle_alpha 90.000000
_cell_angle_beta 90.000000
_cell_angle_gamma 90.000000
_cell_volume 4772.103025
_symmetry_space_group_name_H-M "I B A M"
_symmetry_group_IT_number 72
_symmetry_cell_setting 'orthorhombic'
loop_
_space_group_symop_operation_xyz
x,y,z
-x,-y,z
x,-y,1/2-z
-x,y,1/2-z
-x,-y,-z
x,y,-z
-x,y,1/2+z
x,-y,1/2+z
1/2+x,1/2+y,1/2+z
1/2-x,1/2-y,1/2+z
1/2+x,1/2-y,-z
1/2-x,1/2+y,-z
1/2-x,1/2-y,1/2-z
1/2+x,1/2+y,1/2-z
1/2-x,1/2+y,z
1/2+x,1/2-y,z
loop_
_atom_site_type_symbol
_atom_site_label
_atom_site_fract_x
_atom_site_fract_y
_atom_site_fract_z
Si Si1 0.660806 0.730638 0.316937
Si Si2 0.439779 0.663323 0.315802
Si Si3 0.743441 0.558903 0.185627
Si Si4 0.277520 0.829728 0.684163
Si Si5 0.117612 0.942515 0.314491
O O1 0.645765 0.724247 0.500000
O O2 0.606896 0.710724 0.215774
O O3 0.674410 0.794441 0.275944
O O4 0.714766 0.692679 0.269252
O O5 0.500000 0.685538 0.250000
O O6 0.443377 0.650577 0.500000
O O7 0.425627 0.606747 0.223539
O O8 0.765413 0.500000 0.250000
O O9 0.782537 0.606581 0.263006
O O10 0.677613 0.569225 0.229742
O O11 0.750833 0.560934 0.000000
O O12 0.289112 0.823440 0.500000
O O13 0.128943 0.946638 0.500000
O O14 0.091022 0.000000 0.250000
#
# Coordination Sequence:
#
# PCOD8293402 Si02
#       5
#    16  16  16  16  16
#     4  10  20  34  52  74 100 129 166 206 251 300
#     4  12  24  38  54  72  97 130 169 213 256 298
#     4  11  20  31  49  73 102 134 167 205 250 297
#     4  10  19  32  52  75 102 131 164 204 249 301
#     4  11  21  35  51  70  95 128 169 212 254 297
#
# _framework density 16.764095999999999
#
# number of rings (size 3 to 8) (size 9 to 14) (size 15 to 20)
#    0.000    1.200    2.000    7.800    0.000    2.000 
#    0.000    2.000    0.000    0.000    0.000    0.000 
#    0.000    0.800    0.000    8.000    0.000    4.800 
#
# Total GULP energy -496218.740217 kJ/mol
# GULP energy per Si atom -12405.468505 kJ/mol
# Density = 1.672594 g / cm^3
# Si number density = 16.764096 Si / 1000 Ang^3
#
#
#
# Elastic Constant Matrix: (Units=GPa)
#
#
# Indices 1 2 3 4 5 6 
#
# 1 55.2919 41.0849 12.7819 0.0000 0.0000 0.0000
# 2 41.0849 110.6925 18.5852 0.0000 0.0000 0.0000
# 3 12.7819 18.5852 63.6778 0.0000 0.0000 0.0000
# 4 0.0000 0.0000 0.0000 32.0926 0.0000 0.0000
# 5 0.0000 0.0000 0.0000 0.0000 22.7600 0.0000
# 6 0.0000 0.0000 0.0000 0.0000 0.0000 15.3561
#
#
#
# Elastic Compliance Matrix: (Units=1/GPa)
#
#
# Indices 1 2 3 4 5 6 
#
# 1 0.025335 -0.008990 -0.002462 0.000000 0.000000 0.000000
# 2 -0.008990 0.012690 -0.001899 0.000000 0.000000 0.000000
# 3 -0.002462 -0.001899 0.016752 0.000000 0.000000 0.000000
# 4 0.000000 0.000000 0.000000 0.031160 0.000000 0.000000
# 5 0.000000 0.000000 0.000000 0.000000 0.043937 0.000000
# 6 0.000000 0.000000 0.000000 0.000000 0.000000 0.065120
#
#
# Mechanical properties :
#
#
# Convention : Reuss Voigt Hill
#
# Bulk Modulus (GPa) = 35.61809 41.61848 38.61829
# Shear Modulus (GPa) = 21.63992 24.52242 23.08117
#
# Velocity S-wave (km/s) = 3.59674 3.82880 3.71458
# Velocity P-wave (km/s) = 6.20818 6.66529 6.44079
#
# Compressibility (1/GPa) = 0.02807562
#
# Stress axis : x y z
#
# Youngs Moduli (GPa) = 39.47100 78.80413 59.69283
#
# Poissons Ratio (x) = 0.70846 0.14694
# Poissons Ratio (y) = 0.35485 0.11336
# Poissons Ratio (z) = 0.09716 0.14966
#
# Static dielectric constant tensor:
#      x y z
#    x 2.834560 0.000000 0.000000 
#    y 0.000000 5.225820 0.000000 
#    z 0.000000 0.000000 3.257430 
# 
# 
# High freq. dielectric constant tensor:
#      x y z
#    x 1.596220 0.000000 0.000000 
#    y 0.000000 1.647970 0.000000 
#    z 0.000000 0.000000 1.669800 
# 
# From -- ./inp_files/4808.got.cif
#   From: 2010.03.12/outbox.cif.g09.slc.cpg/sg72_3_cif.got.tgz:4808.got - 2010.04.16 14:54:00.
