data_PCOD8293928
_publ_section_title
;
Structure prediction by ZEFSAII (Michael W. Deem and Ramdas Pophale) SiO2 
 PCOD8293928
Probable space group: I B A M
;
_chemical_formula_sum "Si O2"
_cell_formula_units_Z 112
_cell_length_a 14.297789
_cell_length_b 23.754848
_cell_length_c 14.127376
_cell_angle_alpha 90.000000
_cell_angle_beta 90.000000
_cell_angle_gamma 90.000000
_cell_volume 4798.247477
_symmetry_space_group_name_H-M "I B A M"
_symmetry_group_IT_number 72
_symmetry_cell_setting 'orthorhombic'
loop_
_space_group_symop_operation_xyz
x,y,z
-x,-y,z
x,-y,1/2-z
-x,y,1/2-z
-x,-y,-z
x,y,-z
-x,y,1/2+z
x,-y,1/2+z
1/2+x,1/2+y,1/2+z
1/2-x,1/2-y,1/2+z
1/2+x,1/2-y,-z
1/2-x,1/2+y,-z
1/2-x,1/2-y,1/2-z
1/2+x,1/2+y,1/2-z
1/2-x,1/2+y,z
1/2+x,1/2-y,z
loop_
_atom_site_type_symbol
_atom_site_label
_atom_site_fract_x
_atom_site_fract_y
_atom_site_fract_z
Si Si1 0.921417 0.825511 0.886451
Si Si2 0.415643 0.030656 0.396746
Si Si3 0.237954 0.540748 0.160295
Si Si4 0.364377 0.151119 0.609955
Si Si5 0.774123 0.329600 0.206031
Si Si6 0.942755 0.050189 0.606769
Si Si7 0.952115 0.276826 0.891662
O O1 0.825731 0.806764 0.832234
O O2 0.954418 0.887251 0.849168
O O3 0.005946 0.783755 0.859786
O O4 0.900515 0.825003 0.000000
O O5 0.453601 0.049555 0.500000
O O6 0.376783 0.087565 0.350092
O O7 0.500000 0.000000 0.339202
O O8 0.336831 0.983602 0.412311
O O9 0.229341 0.500000 0.250000
O O10 0.215578 0.605680 0.177385
O O11 0.336149 0.532242 0.110214
O O12 0.330758 0.155800 0.500000
O O13 0.283836 0.176852 0.679069
O O14 0.464471 0.179442 0.625501
O O15 0.859727 0.292918 0.165467
O O16 0.980055 0.053884 0.500000
O O17 0.000000 0.000000 0.660065
O O18 0.921580 0.275015 0.000000
#
# Coordination Sequence:
#
# PCOD8293928 Si02
#       7
#    16  16  16  16  16  16  16
#     4   9  20  39  65  98 130 164 213 268 327 398
#     4  10  20  34  53  83 124 166 210 264 325 387
#     4  11  21  35  58  92 123 164 211 263 319 384
#     4  10  21  37  56  85 125 170 218 272 325 383
#     4  11  21  38  65  91 127 173 217 265 330 397
#     4   9  19  38  65  92 123 165 210 258 316 385
#     4  10  21  38  62  93 130 168 212 271 332 392
#
# _framework density 23.341857000000001
#
# number of rings (size 3 to 8) (size 9 to 14) (size 15 to 20)
#    0.000    2.000    1.429    2.143    0.000    4.000 
#    0.000    1.429   12.571    7.714    0.000    0.000 
#    0.000    5.143    0.000    0.000    0.000    0.000 
#
# Total GULP energy -693811.223682 kJ/mol
# GULP energy per Si atom -12389.486137 kJ/mol
# Density = 2.328873 g / cm^3
# Si number density = 23.341857 Si / 1000 Ang^3
#
#
#
# Elastic Constant Matrix: (Units=GPa)
#
#
# Indices 1 2 3 4 5 6 
#
# 1 92.5870 90.7424 31.4886 -0.0001 0.0000 0.0000
# 2 90.7424 139.9760 24.8418 -0.0002 0.0000 0.0000
# 3 31.4886 24.8418 87.1760 -0.0005 -0.0001 0.0000
# 4 -0.0001 -0.0002 -0.0005 19.1696 0.0000 0.0000
# 5 0.0000 0.0000 -0.0001 0.0000 20.3852 0.0000
# 6 0.0000 0.0000 0.0000 0.0000 0.0000 42.2738
#
#
#
# Elastic Compliance Matrix: (Units=1/GPa)
#
#
# Indices 1 2 3 4 5 6 
#
# 1 0.032361 -0.019911 -0.006015 0.000000 0.000000 0.000000
# 2 -0.019911 0.019776 0.001557 0.000000 0.000000 0.000000
# 3 -0.006015 0.001557 0.013200 0.000000 0.000000 0.000000
# 4 0.000000 0.000000 0.000000 0.052166 0.000000 0.000000
# 5 0.000000 0.000000 0.000000 0.000000 0.049055 0.000000
# 6 0.000000 0.000000 0.000000 0.000000 0.000000 0.023655
#
#
# Mechanical properties :
#
#
# Convention : Reuss Voigt Hill
#
# Bulk Modulus (GPa) = 60.24929 68.20942 64.22936
# Shear Modulus (GPa) = 20.45125 27.87680 24.16402
#
# Velocity S-wave (km/s) = 2.96321 3.45959 3.22098
# Velocity P-wave (km/s) = 6.12987 6.72635 6.43502
#
# Compressibility (1/GPa) = 0.01659771
#
# Stress axis : x y z
#
# Youngs Moduli (GPa) = 30.90173 50.56755 75.75688
#
# Poissons Ratio (x) = 1.00685 0.45568
# Poissons Ratio (y) = 0.61528 -0.11793
# Poissons Ratio (z) = 0.18588 -0.07872
#
# Static dielectric constant tensor:
#      x y z
#    x 4.141360 0.000000 0.000000 
#    y 0.000000 4.554880 0.000000 
#    z 0.000000 0.000000 4.102200 
# 
# 
# High freq. dielectric constant tensor:
#      x y z
#    x 1.908270 0.000000 0.000000 
#    y 0.000000 1.940360 0.000000 
#    z 0.000000 0.000000 1.920210 
# 
# From -- ./inp_files/22117.got.cif
#   From: 2010.03.12/outbox.cif.g09.slc.cpg/sg72_12_cif.got.tgz:22117.got - 2010.04.16 14:54:00.
