data_PCOD8293651
_publ_section_title
;
Structure prediction by ZEFSAII (Michael W. Deem and Ramdas Pophale) SiO2 
 PCOD8293651
Probable space group: I B A M
;
_chemical_formula_sum "Si O2"
_cell_formula_units_Z 128
_cell_length_a 10.097366
_cell_length_b 23.965454
_cell_length_c 25.065380
_cell_angle_alpha 90.000000
_cell_angle_beta 90.000000
_cell_angle_gamma 90.000000
_cell_volume 6065.520183
_symmetry_space_group_name_H-M "I B A M"
_symmetry_group_IT_number 72
_symmetry_cell_setting 'orthorhombic'
loop_
_space_group_symop_operation_xyz
x,y,z
-x,-y,z
x,-y,1/2-z
-x,y,1/2-z
-x,-y,-z
x,y,-z
-x,y,1/2+z
x,-y,1/2+z
1/2+x,1/2+y,1/2+z
1/2-x,1/2-y,1/2+z
1/2+x,1/2-y,-z
1/2-x,1/2+y,-z
1/2-x,1/2-y,1/2-z
1/2+x,1/2+y,1/2-z
1/2-x,1/2+y,z
1/2+x,1/2-y,z
loop_
_atom_site_type_symbol
_atom_site_label
_atom_site_fract_x
_atom_site_fract_y
_atom_site_fract_z
Si Si1 0.850870 0.513861 0.189273
Si Si2 0.125410 0.368317 0.785278
Si Si3 0.061194 0.915822 0.937470
Si Si4 0.817035 0.371525 0.059731
Si Si5 0.938600 0.183633 0.612524
Si Si6 0.734701 0.298452 0.792506
Si Si7 0.801861 0.020016 0.592049
Si Si8 0.976638 0.300167 0.867655
O O1 0.820188 0.500000 0.250000
O O2 0.826411 0.579653 0.179913
O O3 0.746103 0.480812 0.153174
O O4 0.000000 0.500000 0.171680
O O5 0.237112 0.353614 0.742003
O O6 0.000000 0.387693 0.750000
O O7 0.090435 0.317112 0.825083
O O8 0.062104 0.858039 0.902635
O O9 0.943765 0.951723 0.912224
O O10 0.190884 0.956173 0.931224
O O11 0.038284 0.902146 0.000000
O O12 0.686073 0.339406 0.079912
O O13 0.800520 0.438900 0.061467
O O14 0.944540 0.352515 0.093917
O O15 0.843816 0.352383 0.000000
O O16 0.904174 0.189385 0.676433
O O17 0.978121 0.246981 0.596736
O O18 0.750000 0.250000 0.750000
O O19 0.843755 0.284059 0.836713
#
# Coordination Sequence:
#
# PCOD8293651 Si02
#       8
#    16  16  16  16  16  16  16  16
#     4  11  22  35  58  88 121 160 195 246 306 360
#     4  10  19  35  55  80 115 162 197 231 288 362
#     4  10  21  40  67  87 114 159 204 259 313 360
#     4  10  21  37  62  85 112 156 204 254 301 356
#     4  10  20  35  57  88 117 150 200 248 298 358
#     4  10  20  34  56  84 116 158 198 235 283 351
#     4  10  20  38  62  88 114 153 208 250 304 373
#     4  10  21  35  58  84 118 154 200 240 291 359
#
# _framework density 21.102889999999999
#
# number of rings (size 3 to 8) (size 9 to 14) (size 15 to 20)
#    0.000    1.875    2.500    3.375    5.250    2.000 
#    0.000    1.250    0.000   10.875    0.000    0.000 
#    0.000    0.000    0.000    0.000    0.000    0.000 
#
# Total GULP energy -792863.904758 kJ/mol
# GULP energy per Si atom -12388.498512 kJ/mol
# Density = 2.105486 g / cm^3
# Si number density = 21.102890 Si / 1000 Ang^3
#
#
#
# Elastic Constant Matrix: (Units=GPa)
#
#
# Indices 1 2 3 4 5 6 
#
# 1 36.5634 31.4694 34.3885 0.0000 0.0000 0.0000
# 2 31.4694 133.7304 51.5952 0.0000 0.0000 0.0000
# 3 34.3885 51.5952 125.4926 0.0000 0.0000 0.0000
# 4 0.0000 0.0000 0.0000 33.7860 0.0000 0.0000
# 5 0.0000 0.0000 0.0000 0.0000 18.6652 0.0000
# 6 0.0000 0.0000 0.0000 0.0000 0.0000 21.7782
#
#
#
# Elastic Compliance Matrix: (Units=1/GPa)
#
#
# Indices 1 2 3 4 5 6 
#
# 1 0.040865 -0.006294 -0.008610 0.000000 0.000000 0.000000
# 2 -0.006294 0.009857 -0.002328 0.000000 0.000000 0.000000
# 3 -0.008610 -0.002328 0.011285 0.000000 0.000000 0.000000
# 4 0.000000 0.000000 0.000000 0.029598 0.000000 0.000000
# 5 0.000000 0.000000 0.000000 0.000000 0.053576 0.000000
# 6 0.000000 0.000000 0.000000 0.000000 0.000000 0.045918
#
#
# Mechanical properties :
#
#
# Convention : Reuss Voigt Hill
#
# Bulk Modulus (GPa) = 36.30762 58.96586 47.63674
# Shear Modulus (GPa) = 21.29972 26.73476 24.01724
#
# Velocity S-wave (km/s) = 3.18044 3.56318 3.37724
# Velocity P-wave (km/s) = 5.54340 6.70307 6.15063
#
# Compressibility (1/GPa) = 0.02754242
#
# Stress axis : x y z
#
# Youngs Moduli (GPa) = 24.47053 101.45039 88.61211
#
# Poissons Ratio (x) = 0.63857 0.76299
# Poissons Ratio (y) = 0.15403 0.20627
# Poissons Ratio (z) = 0.21070 0.23615
#
# Static dielectric constant tensor:
#      x y z
#    x 5.130260 0.000000 0.000000 
#    y 0.000000 4.352970 0.000000 
#    z 0.000000 0.000000 4.508720 
# 
# 
# High freq. dielectric constant tensor:
#      x y z
#    x 1.786490 0.000000 0.000000 
#    y 0.000000 1.840380 0.000000 
#    z 0.000000 0.000000 1.819730 
# 
# From -- ./inp_files/43665.got.cif
#   From: 2010.03.12/outbox.cif.g09.slc.cpg/sg72_22_cif.got.tgz:43665.got - 2010.04.16 14:54:00.
