data_PCOD8293202
_publ_section_title
;
Structure prediction by ZEFSAII (Michael W. Deem and Ramdas Pophale) SiO2 
 PCOD8293202
Probable space group: I B A M
;
_chemical_formula_sum "Si O2"
_cell_formula_units_Z 96
_cell_length_a 16.218492
_cell_length_b 17.537983
_cell_length_c 18.376893
_cell_angle_alpha 90.000000
_cell_angle_beta 90.000000
_cell_angle_gamma 90.000000
_cell_volume 5227.116774
_symmetry_space_group_name_H-M "I B A M"
_symmetry_group_IT_number 72
_symmetry_cell_setting 'orthorhombic'
loop_
_space_group_symop_operation_xyz
x,y,z
-x,-y,z
x,-y,1/2-z
-x,y,1/2-z
-x,-y,-z
x,y,-z
-x,y,1/2+z
x,-y,1/2+z
1/2+x,1/2+y,1/2+z
1/2-x,1/2-y,1/2+z
1/2+x,1/2-y,-z
1/2-x,1/2+y,-z
1/2-x,1/2-y,1/2-z
1/2+x,1/2+y,1/2-z
1/2-x,1/2+y,z
1/2+x,1/2-y,z
loop_
_atom_site_type_symbol
_atom_site_label
_atom_site_fract_x
_atom_site_fract_y
_atom_site_fract_z
Si Si1 0.094383 0.997608 0.584746
Si Si2 0.515399 0.917347 0.833428
Si Si3 0.377806 0.169608 0.416580
Si Si4 0.752901 0.931388 0.343947
Si Si5 0.325555 0.663187 0.917856
Si Si6 0.799090 0.404267 0.820520
O O1 0.103372 0.021048 0.500000
O O2 0.118298 0.910022 0.598026
O O3 0.150781 0.056074 0.633072
O O4 0.000000 0.000000 0.611169
O O5 0.500000 0.929872 0.750000
O O6 0.453543 0.857482 0.868160
O O7 0.606692 0.882784 0.834720
O O8 0.500000 0.000000 0.871715
O O9 0.396346 0.150287 0.500000
O O10 0.290989 0.130391 0.395374
O O11 0.375377 0.259891 0.402692
O O12 0.737644 0.904827 0.261088
O O13 0.709772 0.012600 0.356615
O O14 0.248362 0.661214 0.863905
O O15 0.291781 0.662212 0.000000
#
# Coordination Sequence:
#
# PCOD8293202 Si02
#       6
#    16  16  16  16  16  16
#     4   9  18  36  60  81 109 151 192 232 281 332
#     4  11  19  37  58  83 116 149 184 233 284 339
#     4  11  22  36  54  82 116 146 187 237 282 338
#     4  10  18  35  58  85 108 145 189 231 277 338
#     4   9  21  39  54  77 114 147 184 237 286 332
#     4  10  19  36  60  80 110 149 187 225 286 339
#
# _framework density 18.365763999999999
#
# number of rings (size 3 to 8) (size 9 to 14) (size 15 to 20)
#    0.000    2.000    3.333    1.500    0.000    2.333 
#    3.000    6.667    0.000    0.000    0.000    0.000 
#    0.000    0.000    0.000    0.000    0.000    0.000 
#
# Total GULP energy -594903.609633 kJ/mol
# GULP energy per Si atom -12393.825201 kJ/mol
# Density = 1.832396 g / cm^3
# Si number density = 18.365764 Si / 1000 Ang^3
#
#
#
# Elastic Constant Matrix: (Units=GPa)
#
#
# Indices 1 2 3 4 5 6 
#
# 1 163.4082 43.8812 61.4161 0.0000 0.0000 0.0000
# 2 43.8812 78.5354 52.9226 0.0000 0.0000 0.0000
# 3 61.4161 52.9226 79.7379 0.0000 0.0000 0.0000
# 4 0.0000 0.0000 0.0000 28.9339 0.0000 0.0000
# 5 0.0000 0.0000 0.0000 0.0000 32.0737 0.0000
# 6 0.0000 0.0000 0.0000 0.0000 0.0000 29.7129
#
#
#
# Elastic Compliance Matrix: (Units=1/GPa)
#
#
# Indices 1 2 3 4 5 6 
#
# 1 0.008630 -0.000620 -0.006235 0.000000 0.000000 0.000000
# 2 -0.000620 0.023081 -0.014841 0.000000 0.000000 0.000000
# 3 -0.006235 -0.014841 0.027194 0.000000 0.000000 0.000000
# 4 0.000000 0.000000 0.000000 0.034562 0.000000 0.000000
# 5 0.000000 0.000000 0.000000 0.000000 0.031178 0.000000
# 6 0.000000 0.000000 0.000000 0.000000 0.000000 0.033655
#
#
# Mechanical properties :
#
#
# Convention : Reuss Voigt Hill
#
# Bulk Modulus (GPa) = 64.46982 70.90237 67.68609
# Shear Modulus (GPa) = 24.17065 29.04153 26.60609
#
# Velocity S-wave (km/s) = 3.63170 3.98085 3.81028
# Velocity P-wave (km/s) = 7.26396 7.73428 7.50281
#
# Compressibility (1/GPa) = 0.01551113
#
# Stress axis : x y z
#
# Youngs Moduli (GPa) = 115.87984 43.32648 36.77303
#
# Poissons Ratio (x) = 0.02686 0.22929
# Poissons Ratio (y) = 0.07185 0.54576
# Poissons Ratio (z) = 0.72254 0.64302
#
# Static dielectric constant tensor:
#      x y z
#    x 3.226930 0.000000 0.000000 
#    y 0.000000 3.378960 0.000000 
#    z 0.000000 0.000000 3.424190 
# 
# 
# High freq. dielectric constant tensor:
#      x y z
#    x 1.711420 0.000000 0.000000 
#    y 0.000000 1.700470 0.000000 
#    z 0.000000 0.000000 1.711470 
# 
# From -- ./inp_files/38020.got.cif
#   From: 2010.03.12/outbox.cif.g09.slc.cpg/sg72_20_cif.got.tgz:38020.got - 2010.04.16 14:54:00.
