data_PCOD8293317
_publ_section_title
;
Structure prediction by ZEFSAII (Michael W. Deem and Ramdas Pophale) SiO2 
 PCOD8293317
Probable space group: I B A M
;
_chemical_formula_sum "Si O2"
_cell_formula_units_Z 96
_cell_length_a 19.706565
_cell_length_b 30.428468
_cell_length_c 9.027167
_cell_angle_alpha 90.000000
_cell_angle_beta 90.000000
_cell_angle_gamma 90.000000
_cell_volume 5413.055678
_symmetry_space_group_name_H-M "I B A M"
_symmetry_group_IT_number 72
_symmetry_cell_setting 'orthorhombic'
loop_
_space_group_symop_operation_xyz
x,y,z
-x,-y,z
x,-y,1/2-z
-x,y,1/2-z
-x,-y,-z
x,y,-z
-x,y,1/2+z
x,-y,1/2+z
1/2+x,1/2+y,1/2+z
1/2-x,1/2-y,1/2+z
1/2+x,1/2-y,-z
1/2-x,1/2+y,-z
1/2-x,1/2-y,1/2-z
1/2+x,1/2+y,1/2-z
1/2-x,1/2+y,z
1/2+x,1/2-y,z
loop_
_atom_site_type_symbol
_atom_site_label
_atom_site_fract_x
_atom_site_fract_y
_atom_site_fract_z
Si Si1 0.167200 0.456953 0.331991
Si Si2 0.931798 0.798627 0.672736
Si Si3 0.331162 0.131569 0.325440
Si Si4 0.325786 0.629510 0.672503
Si Si5 0.569828 0.197902 0.675204
Si Si6 0.828752 0.042506 0.666043
O O1 0.137563 0.500000 0.250000
O O2 0.139215 0.455079 0.500000
O O3 0.142264 0.414352 0.241852
O O4 0.247897 0.459010 0.332093
O O5 0.944381 0.803265 0.500000
O O6 0.868764 0.828370 0.725202
O O7 0.915528 0.748516 0.716121
O O8 0.000000 0.815558 0.750000
O O9 0.345729 0.131856 0.500000
O O10 0.252238 0.138772 0.288380
O O11 0.368923 0.171075 0.245224
O O12 0.334459 0.619878 0.500000
O O13 0.354383 0.586805 0.755958
O O14 0.500000 0.182106 0.750000
O O15 0.565763 0.189903 0.500000
O O16 0.857253 0.041816 0.500000
O O17 0.858393 0.000000 0.750000
#
# Coordination Sequence:
#
# PCOD8293317 Si02
#       6
#    16  16  16  16  16  16
#     4   9  16  27  44  68  98 130 163 199 239 285
#     4   9  19  35  53  72  96 129 166 203 245 294
#     4  10  19  31  49  74 102 131 163 201 245 289
#     4   9  18  32  49  72 102 131 161 201 247 291
#     4  10  20  35  53  72  96 128 166 204 244 293
#     4   9  16  26  43  68  97 129 163 198 239 287
#
# _framework density 17.7349
#
# number of rings (size 3 to 8) (size 9 to 14) (size 15 to 20)
#    0.000    2.667    0.000    2.000    0.000    6.667 
#    0.000    0.000    0.000    1.000    0.000    7.000 
#    0.000    0.000    0.000    0.000    0.000    0.000 
#
# Total GULP energy -595238.464025 kJ/mol
# GULP energy per Si atom -12400.801334 kJ/mol
# Density = 1.769453 g / cm^3
# Si number density = 17.734900 Si / 1000 Ang^3
#
#
#
# Elastic Constant Matrix: (Units=GPa)
#
#
# Indices 1 2 3 4 5 6 
#
# 1 62.6287 61.8980 44.3037 0.0000 0.0001 0.0000
# 2 61.8980 135.3033 67.9629 0.0000 0.0000 0.0000
# 3 44.3037 67.9629 106.7159 0.0005 0.0003 0.0001
# 4 0.0000 0.0000 0.0005 34.7601 0.0000 0.0001
# 5 0.0001 0.0000 0.0003 0.0000 22.2724 0.0000
# 6 0.0000 0.0000 0.0001 0.0001 0.0000 4.4721
#
#
#
# Elastic Compliance Matrix: (Units=1/GPa)
#
#
# Indices 1 2 3 4 5 6 
#
# 1 0.031341 -0.011472 -0.005705 0.000000 0.000000 0.000000
# 2 -0.011472 0.015066 -0.004832 0.000000 0.000000 0.000000
# 3 -0.005705 -0.004832 0.014817 0.000000 0.000000 0.000000
# 4 0.000000 0.000000 0.000000 0.028769 0.000000 0.000000
# 5 0.000000 0.000000 0.000000 0.000000 0.044899 0.000000
# 6 0.000000 0.000000 0.000000 0.000000 0.000000 0.223606
#
#
# Mechanical properties :
#
#
# Convention : Reuss Voigt Hill
#
# Bulk Modulus (GPa) = 58.12366 72.55303 65.33835
# Shear Modulus (GPa) = 12.24731 20.99982 16.62356
#
# Velocity S-wave (km/s) = 2.63073 3.44480 3.06492
# Velocity P-wave (km/s) = 6.48633 7.53796 7.03183
#
# Compressibility (1/GPa) = 0.01720470
#
# Stress axis : x y z
#
# Youngs Moduli (GPa) = 31.90662 66.37309 67.49046
#
# Poissons Ratio (x) = 0.76144 0.38507
# Poissons Ratio (y) = 0.36604 0.32614
# Poissons Ratio (z) = 0.18204 0.32074
#
# Static dielectric constant tensor:
#      x y z
#    x 2.973190 0.000000 0.000000 
#    y 0.000000 3.471800 0.000000 
#    z 0.000000 0.000000 3.420180 
# 
# 
# High freq. dielectric constant tensor:
#      x y z
#    x 1.642310 0.000000 0.000000 
#    y 0.000000 1.696430 0.000000 
#    z 0.000000 0.000000 1.698630 
# 
# From -- ./inp_files/5947.got.cif
#   From: 2010.03.12/outbox.cif.g09.slc.cpg/sg72_3_cif.got.tgz:5947.got - 2010.04.16 14:54:00.
