data_PCOD8293310
_publ_section_title
;
Structure prediction by ZEFSAII (Michael W. Deem and Ramdas Pophale) SiO2 
 PCOD8293310
Probable space group: I B A M
;
_chemical_formula_sum "Si O2"
_cell_formula_units_Z 96
_cell_length_a 22.352224
_cell_length_b 12.821900
_cell_length_c 18.628664
_cell_angle_alpha 90.000000
_cell_angle_beta 90.000000
_cell_angle_gamma 90.000000
_cell_volume 5338.937489
_symmetry_space_group_name_H-M "I B A M"
_symmetry_group_IT_number 72
_symmetry_cell_setting 'orthorhombic'
loop_
_space_group_symop_operation_xyz
x,y,z
-x,-y,z
x,-y,1/2-z
-x,y,1/2-z
-x,-y,-z
x,y,-z
-x,y,1/2+z
x,-y,1/2+z
1/2+x,1/2+y,1/2+z
1/2-x,1/2-y,1/2+z
1/2+x,1/2-y,-z
1/2-x,1/2+y,-z
1/2-x,1/2-y,1/2-z
1/2+x,1/2+y,1/2-z
1/2-x,1/2+y,z
1/2+x,1/2-y,z
loop_
_atom_site_type_symbol
_atom_site_label
_atom_site_fract_x
_atom_site_fract_y
_atom_site_fract_z
Si Si1 0.172841 0.808416 0.810009
Si Si2 0.433532 0.009864 0.364477
Si Si3 0.066083 0.673428 0.236891
Si Si4 0.327382 0.124414 0.579180
Si Si5 0.701647 0.524675 0.082443
Si Si6 0.283729 0.314019 0.341571
O O1 0.111343 0.768185 0.775003
O O2 0.160436 0.901926 0.866447
O O3 0.213945 0.721002 0.850192
O O4 0.209131 0.850805 0.740782
O O5 0.424979 0.096303 0.303117
O O6 0.384415 0.046566 0.421605
O O7 0.500000 0.000000 0.398394
O O8 0.422915 0.894535 0.334449
O O9 0.000000 0.721571 0.250000
O O10 0.323216 0.174979 0.500000
O O11 0.270242 0.053649 0.594841
O O12 0.327717 0.217106 0.637943
O O13 0.696815 0.404859 0.104840
O O14 0.680636 0.538119 0.000000
#
# Coordination Sequence:
#
# PCOD8293310 Si02
#       6
#    16  16  16  16  16  16
#     4  10  19  32  53  81 100 133 180 217 255 313
#     4   9  17  30  49  75 104 135 169 210 264 316
#     4   9  17  31  52  76 102 132 167 218 267 303
#     4  10  19  31  48  73 107 142 173 209 262 320
#     4  10  21  34  49  74 109 142 172 212 267 317
#     4  10  19  32  51  76 106 136 170 222 261 307
#
# _framework density 17.981107000000002
#
# number of rings (size 3 to 8) (size 9 to 14) (size 15 to 20)
#    0.000    2.333    1.667    3.000    0.000    1.000 
#    0.000    0.833    0.000    3.000    0.000    1.167 
#    0.000    0.000    0.000    0.000    0.000    0.000 
#
# Total GULP energy -594658.976563 kJ/mol
# GULP energy per Si atom -12388.728678 kJ/mol
# Density = 1.794018 g / cm^3
# Si number density = 17.981107 Si / 1000 Ang^3
#
#
#
# Elastic Constant Matrix: (Units=GPa)
#
#
# Indices 1 2 3 4 5 6 
#
# 1 86.4018 36.1340 15.7970 0.0000 0.0000 0.0000
# 2 36.1340 78.3386 31.2966 0.0000 0.0000 0.0000
# 3 15.7970 31.2966 75.3296 0.0000 0.0000 0.0000
# 4 0.0000 0.0000 0.0000 27.3894 0.0000 0.0000
# 5 0.0000 0.0000 0.0000 0.0000 20.6002 0.0000
# 6 0.0000 0.0000 0.0000 0.0000 0.0000 20.9642
#
#
#
# Elastic Compliance Matrix: (Units=1/GPa)
#
#
# Indices 1 2 3 4 5 6 
#
# 1 0.014346 -0.006493 -0.000311 0.000000 0.000000 0.000000
# 2 -0.006493 0.018244 -0.006218 0.000000 0.000000 0.000000
# 3 -0.000311 -0.006218 0.015924 0.000000 0.000000 0.000000
# 4 0.000000 0.000000 0.000000 0.036510 0.000000 0.000000
# 5 0.000000 0.000000 0.000000 0.000000 0.048543 0.000000
# 6 0.000000 0.000000 0.000000 0.000000 0.000000 0.047700
#
#
# Mechanical properties :
#
#
# Convention : Reuss Voigt Hill
#
# Bulk Modulus (GPa) = 44.50407 45.16947 44.83677
# Shear Modulus (GPa) = 23.27727 24.24692 23.76210
#
# Velocity S-wave (km/s) = 3.60188 3.67613 3.63919
# Velocity P-wave (km/s) = 6.48862 6.57219 6.53054
#
# Compressibility (1/GPa) = 0.02246986
#
# Stress axis : x y z
#
# Youngs Moduli (GPa) = 69.70528 54.81191 62.79988
#
# Poissons Ratio (x) = 0.35589 0.01952
# Poissons Ratio (y) = 0.45260 0.39050
# Poissons Ratio (z) = 0.02167 0.34083
#
# Static dielectric constant tensor:
#      x y z
#    x 3.229120 0.000000 0.000000 
#    y 0.000000 3.153460 0.000000 
#    z 0.000000 0.000000 3.267650 
# 
# 
# High freq. dielectric constant tensor:
#      x y z
#    x 1.673620 0.000000 0.000000 
#    y 0.000000 1.678550 0.000000 
#    z 0.000000 0.000000 1.693270 
# 
# From -- ./inp_files/29410.got.cif
#   From: 2010.03.12/outbox.cif.g09.slc.cpg/sg72_15_cif.got.tgz:29410.got - 2010.04.16 14:54:00.
