data_PCOD8293795
_publ_section_title
;
Structure prediction by ZEFSAII (Michael W. Deem and Ramdas Pophale) SiO2 
 PCOD8293795
Probable space group: I B A M
;
_chemical_formula_sum "Si O2"
_cell_formula_units_Z 88
_cell_length_a 23.227040
_cell_length_b 23.342033
_cell_length_c 8.927521
_cell_angle_alpha 90.000000
_cell_angle_beta 90.000000
_cell_angle_gamma 90.000000
_cell_volume 4840.201334
_symmetry_space_group_name_H-M "I B A M"
_symmetry_group_IT_number 72
_symmetry_cell_setting 'orthorhombic'
loop_
_space_group_symop_operation_xyz
x,y,z
-x,-y,z
x,-y,1/2-z
-x,y,1/2-z
-x,-y,-z
x,y,-z
-x,y,1/2+z
x,-y,1/2+z
1/2+x,1/2+y,1/2+z
1/2-x,1/2-y,1/2+z
1/2+x,1/2-y,-z
1/2-x,1/2+y,-z
1/2-x,1/2-y,1/2-z
1/2+x,1/2+y,1/2-z
1/2-x,1/2+y,z
1/2+x,1/2-y,z
loop_
_atom_site_type_symbol
_atom_site_label
_atom_site_fract_x
_atom_site_fract_y
_atom_site_fract_z
Si Si1 0.562338 0.443952 0.677975
Si Si2 0.811144 0.755152 0.326753
Si Si3 0.904360 0.663569 0.662380
Si Si4 0.562007 0.055748 0.176096
Si Si5 0.000000 0.750357 0.250000
Si Si6 0.098589 0.832546 0.667551
O O1 0.593555 0.500000 0.750000
O O2 0.500000 0.439736 0.750000
O O3 0.558605 0.449955 0.500000
O O4 0.594430 0.386074 0.721285
O O5 0.805629 0.774558 0.500000
O O6 0.750000 0.750000 0.250000
O O7 0.843705 0.694695 0.315055
O O8 0.846509 0.800254 0.230608
O O9 0.906158 0.633184 0.500000
O O10 0.905581 0.615110 0.789961
O O11 0.957370 0.708880 0.658210
O O12 0.500000 0.061868 0.250000
O O13 0.593116 0.000000 0.250000
O O14 0.557267 0.046905 0.000000
O O15 0.958440 0.792425 0.155741
O O16 0.111390 0.854261 0.500000
#
# Coordination Sequence:
#
# PCOD8293795 Si02
#       6
#    16  16  16  16   8  16
#     4  11  21  34  52  77 111 148 185 223 269 325
#     4  10  22  39  58  81 109 143 185 228 275 326
#     4  10  20  34  53  79 110 141 177 222 267 319
#     4  11  21  33  51  75 108 145 180 217 262 318
#     4  10  20  30  52  78 114 140 180 214 270 324
#     4  11  21  34  55  81 112 146 181 225 274 326
#
# _framework density 18.181063000000002
#
# number of rings (size 3 to 8) (size 9 to 14) (size 15 to 20)
#    0.000    1.455    1.818    6.000    0.000    5.091 
#    0.000    0.000    0.000    1.091    0.000    2.545 
#    0.000    0.000    0.000    0.000    0.000    0.000 
#
# Total GULP energy -545315.838867 kJ/mol
# GULP energy per Si atom -12393.541792 kJ/mol
# Density = 1.813968 g / cm^3
# Si number density = 18.181063 Si / 1000 Ang^3
#
#
#
# Elastic Constant Matrix: (Units=GPa)
#
#
# Indices 1 2 3 4 5 6 
#
# 1 96.9998 33.1861 38.0339 0.0000 0.0000 0.0000
# 2 33.1861 113.2160 52.1034 0.0000 0.0000 0.0000
# 3 38.0339 52.1034 167.7831 0.0000 0.0000 0.0000
# 4 0.0000 0.0000 0.0000 31.8037 0.0000 0.0000
# 5 0.0000 0.0000 0.0000 0.0000 21.0201 0.0000
# 6 0.0000 0.0000 0.0000 0.0000 0.0000 14.3560
#
#
#
# Elastic Compliance Matrix: (Units=1/GPa)
#
#
# Indices 1 2 3 4 5 6 
#
# 1 0.011952 -0.002633 -0.001892 0.000000 0.000000 0.000000
# 2 -0.002633 0.010885 -0.002784 0.000000 0.000000 0.000000
# 3 -0.001892 -0.002784 0.007253 0.000000 0.000000 0.000000
# 4 0.000000 0.000000 0.000000 0.031443 0.000000 0.000000
# 5 0.000000 0.000000 0.000000 0.000000 0.047573 0.000000
# 6 0.000000 0.000000 0.000000 0.000000 0.000000 0.069657
#
#
# Mechanical properties :
#
#
# Convention : Reuss Voigt Hill
#
# Bulk Modulus (GPa) = 64.62257 69.40508 67.01383
# Shear Modulus (GPa) = 25.18406 30.41434 27.79920
#
# Velocity S-wave (km/s) = 3.72584 4.09450 3.91451
# Velocity P-wave (km/s) = 7.35732 7.78527 7.57432
#
# Compressibility (1/GPa) = 0.01547447
#
# Stress axis : x y z
#
# Youngs Moduli (GPa) = 83.66963 91.86610 137.86822
#
# Poissons Ratio (x) = 0.24186 0.26081
# Poissons Ratio (y) = 0.22028 0.38376
# Poissons Ratio (z) = 0.15828 0.25571
#
# Static dielectric constant tensor:
#      x y z
#    x 3.037480 0.000000 0.000000 
#    y 0.000000 4.142260 0.000000 
#    z 0.000000 0.000000 3.474990 
# 
# 
# High freq. dielectric constant tensor:
#      x y z
#    x 1.660810 0.000000 0.000000 
#    y 0.000000 1.714950 0.000000 
#    z 0.000000 0.000000 1.721680 
# 
# From -- ./inp_files/5782.got.cif
#   From: 2010.03.12/outbox.cif.g09.slc.cpg/sg72_3_cif.got.tgz:5782.got - 2010.04.16 14:54:00.
