data_PCOD8293350
_publ_section_title
;
Structure prediction by ZEFSAII (Michael W. Deem and Ramdas Pophale) SiO2 
 PCOD8293350
Probable space group: I B A M
;
_chemical_formula_sum "Si O2"
_cell_formula_units_Z 112
_cell_length_a 10.118334
_cell_length_b 22.517230
_cell_length_c 25.900704
_cell_angle_alpha 90.000000
_cell_angle_beta 90.000000
_cell_angle_gamma 90.000000
_cell_volume 5901.134913
_symmetry_space_group_name_H-M "I B A M"
_symmetry_group_IT_number 72
_symmetry_cell_setting 'orthorhombic'
loop_
_space_group_symop_operation_xyz
x,y,z
-x,-y,z
x,-y,1/2-z
-x,y,1/2-z
-x,-y,-z
x,y,-z
-x,y,1/2+z
x,-y,1/2+z
1/2+x,1/2+y,1/2+z
1/2-x,1/2-y,1/2+z
1/2+x,1/2-y,-z
1/2-x,1/2+y,-z
1/2-x,1/2-y,1/2-z
1/2+x,1/2+y,1/2-z
1/2-x,1/2+y,z
1/2+x,1/2-y,z
loop_
_atom_site_type_symbol
_atom_site_label
_atom_site_fract_x
_atom_site_fract_y
_atom_site_fract_z
Si Si1 0.342447 0.933637 0.750838
Si Si2 0.324179 0.122946 0.147756
Si Si3 0.878635 0.645131 0.844361
Si Si4 0.356340 0.027441 0.058671
Si Si5 0.182570 0.236775 0.113242
Si Si6 0.915936 0.203374 0.058505
Si Si7 0.745941 0.096076 0.058303
O O1 0.500000 0.935306 0.750000
O O2 0.273884 0.908161 0.699683
O O3 0.303163 0.895360 0.801737
O O4 0.285523 0.000000 0.750000
O O5 0.465768 0.148749 0.163612
O O6 0.323929 0.079149 0.098752
O O7 0.223986 0.175563 0.138210
O O8 0.820631 0.711942 0.842754
O O9 0.863318 0.618484 0.901680
O O10 0.500000 0.000000 0.071257
O O11 0.244426 0.975494 0.064511
O O12 0.353554 0.052829 0.000000
O O13 0.285808 0.256912 0.069264
O O14 0.035557 0.227138 0.092305
O O15 0.882158 0.132951 0.068801
O O16 0.958627 0.212847 0.000000
O O17 0.696260 0.110722 0.000000
#
# Coordination Sequence:
#
# PCOD8293350 Si02
#       7
#    16  16  16  16  16  16  16
#     4   9  19  33  57  86 114 149 187 244 298 338
#     4  11  21  34  56  86 116 150 198 241 286 350
#     4  10  19  35  54  81 119 147 192 240 288 341
#     4  10  19  31  53  85 118 150 191 246 297 347
#     4  11  22  38  56  83 118 157 195 240 289 346
#     4  10  21  37  57  82 116 158 200 239 289 348
#     4   9  18  33  55  81 112 149 186 237 298 341
#
# _framework density 18.979399000000001
#
# number of rings (size 3 to 8) (size 9 to 14) (size 15 to 20)
#    0.000    2.000    2.857    1.286    2.000    2.286 
#    0.000    0.714    0.000    2.571    0.000    4.000 
#    0.000    0.000    0.000    0.000    0.000    0.000 
#
# Total GULP energy -693946.748959 kJ/mol
# GULP energy per Si atom -12391.906231 kJ/mol
# Density = 1.893620 g / cm^3
# Si number density = 18.979399 Si / 1000 Ang^3
#
#
#
# Elastic Constant Matrix: (Units=GPa)
#
#
# Indices 1 2 3 4 5 6 
#
# 1 55.5645 38.3413 27.1896 0.0000 0.0000 0.0000
# 2 38.3413 158.9217 77.7721 0.0000 0.0000 0.0000
# 3 27.1896 77.7721 122.6828 0.0000 0.0000 0.0000
# 4 0.0000 0.0000 0.0000 31.6756 0.0000 0.0000
# 5 0.0000 0.0000 0.0000 0.0000 11.2715 0.0000
# 6 0.0000 0.0000 0.0000 0.0000 0.0000 28.2838
#
#
#
# Elastic Compliance Matrix: (Units=1/GPa)
#
#
# Indices 1 2 3 4 5 6 
#
# 1 0.021990 -0.004234 -0.002190 0.000000 0.000000 0.000000
# 2 -0.004234 0.009938 -0.005361 0.000000 0.000000 0.000000
# 3 -0.002190 -0.005361 0.012035 0.000000 0.000000 0.000000
# 4 0.000000 0.000000 0.000000 0.031570 0.000000 0.000000
# 5 0.000000 0.000000 0.000000 0.000000 0.088719 0.000000
# 6 0.000000 0.000000 0.000000 0.000000 0.000000 0.035356
#
#
# Mechanical properties :
#
#
# Convention : Reuss Voigt Hill
#
# Bulk Modulus (GPa) = 49.03616 69.30834 59.17225
# Shear Modulus (GPa) = 21.74150 27.17058 24.45604
#
# Velocity S-wave (km/s) = 3.38824 3.78773 3.59354
# Velocity P-wave (km/s) = 6.41869 7.46500 6.96153
#
# Compressibility (1/GPa) = 0.02039311
#
# Stress axis : x y z
#
# Youngs Moduli (GPa) = 45.47522 100.62824 83.09007
#
# Poissons Ratio (x) = 0.42603 0.18194
# Poissons Ratio (y) = 0.19253 0.44548
# Poissons Ratio (z) = 0.09958 0.53951
#
# Static dielectric constant tensor:
#      x y z
#    x 3.071720 0.000000 0.000000 
#    y 0.000000 3.803590 0.000000 
#    z 0.000000 0.000000 3.599320 
# 
# 
# High freq. dielectric constant tensor:
#      x y z
#    x 1.691220 0.000000 0.000000 
#    y 0.000000 1.750480 0.000000 
#    z 0.000000 0.000000 1.738410 
# 
# From -- ./inp_files/43537.got.cif
#   From: 2010.03.12/outbox.cif.g09.slc.cpg/sg72_22_cif.got.tgz:43537.got - 2010.04.16 14:54:00.
