data_PCOD8293205
_publ_section_title
;
Structure prediction by ZEFSAII (Michael W. Deem and Ramdas Pophale) SiO2 
 PCOD8293205
Probable space group: I B A M
;
_chemical_formula_sum "Si O2"
_cell_formula_units_Z 112
_cell_length_a 31.676684
_cell_length_b 11.929416
_cell_length_c 15.262993
_cell_angle_alpha 90.000000
_cell_angle_beta 90.000000
_cell_angle_gamma 90.000000
_cell_volume 5767.646051
_symmetry_space_group_name_H-M "I B A M"
_symmetry_group_IT_number 72
_symmetry_cell_setting 'orthorhombic'
loop_
_space_group_symop_operation_xyz
x,y,z
-x,-y,z
x,-y,1/2-z
-x,y,1/2-z
-x,-y,-z
x,y,-z
-x,y,1/2+z
x,-y,1/2+z
1/2+x,1/2+y,1/2+z
1/2-x,1/2-y,1/2+z
1/2+x,1/2-y,-z
1/2-x,1/2+y,-z
1/2-x,1/2-y,1/2-z
1/2+x,1/2+y,1/2-z
1/2-x,1/2+y,z
1/2+x,1/2-y,z
loop_
_atom_site_type_symbol
_atom_site_label
_atom_site_fract_x
_atom_site_fract_y
_atom_site_fract_z
Si Si1 0.326278 0.362960 0.101116
Si Si2 0.950676 0.631233 0.754680
Si Si3 0.840723 0.509852 0.649196
Si Si4 0.400004 0.205882 0.903330
Si Si5 0.269961 0.836476 0.395869
Si Si6 0.322400 0.610821 0.104339
Si Si7 0.886288 0.705127 0.899582
O O1 0.373861 0.319216 0.113344
O O2 0.293012 0.274555 0.143584
O O3 0.324391 0.485639 0.145241
O O4 0.314001 0.375021 0.000000
O O5 0.940193 0.500000 0.750000
O O6 0.935675 0.696319 0.668899
O O7 0.927736 0.680120 0.841154
O O8 0.000000 0.654434 0.750000
O O9 0.854320 0.500000 0.750000
O O10 0.868299 0.602095 0.600008
O O11 0.792076 0.548887 0.639518
O O12 0.850656 0.391604 0.603920
O O13 0.420994 0.207947 0.000000
O O14 0.273799 0.838758 0.500000
O O15 0.221581 0.834079 0.364194
O O16 0.362347 0.684090 0.137287
O O17 0.324280 0.607407 0.000000
O O18 0.901525 0.719853 0.000000
#
# Coordination Sequence:
#
# PCOD8293205 Si02
#       7
#    16  16  16  16  16  16  16
#     4   8  16  31  51  77 108 147 195 234 270 324
#     4  11  23  39  59  88 119 141 176 238 295 353
#     4  11  19  33  53  78 114 151 190 234 278 329
#     4  10  18  35  60  80 106 150 188 223 279 343
#     4   9  18  31  52  79 109 152 200 240 275 322
#     4   9  19  33  53  82 114 152 196 239 282 328
#     4  11  21  36  58  83 116 157 187 228 290 348
#
# _framework density 19.418666999999999
#
# number of rings (size 3 to 8) (size 9 to 14) (size 15 to 20)
#    0.000    2.143    2.857    2.143    2.000    0.571 
#    0.000    4.286    0.000    1.714    0.000    4.000 
#    0.000    0.000    0.000    0.000    0.000    0.000 
#
# Total GULP energy -694151.050723 kJ/mol
# GULP energy per Si atom -12395.554477 kJ/mol
# Density = 1.937447 g / cm^3
# Si number density = 19.418667 Si / 1000 Ang^3
#
#
#
# Elastic Constant Matrix: (Units=GPa)
#
#
# Indices 1 2 3 4 5 6 
#
# 1 123.4966 56.9877 50.3352 0.0000 0.0000 0.0000
# 2 56.9877 125.1702 24.3480 0.0000 0.0000 0.0000
# 3 50.3352 24.3480 85.1622 0.0000 0.0000 0.0000
# 4 0.0000 0.0000 0.0000 10.0877 0.0000 0.0000
# 5 0.0000 0.0000 0.0000 0.0000 24.4637 0.0000
# 6 0.0000 0.0000 0.0000 0.0000 0.0000 20.7749
#
#
#
# Elastic Compliance Matrix: (Units=1/GPa)
#
#
# Indices 1 2 3 4 5 6 
#
# 1 0.012756 -0.004597 -0.006225 0.000000 0.000000 0.000000
# 2 -0.004597 0.010116 -0.000175 0.000000 0.000000 0.000000
# 3 -0.006225 -0.000175 0.015472 0.000000 0.000000 0.000000
# 4 0.000000 0.000000 0.000000 0.099131 0.000000 0.000000
# 5 0.000000 0.000000 0.000000 0.000000 0.040877 0.000000
# 6 0.000000 0.000000 0.000000 0.000000 0.000000 0.048135
#
#
# Mechanical properties :
#
#
# Convention : Reuss Voigt Hill
#
# Bulk Modulus (GPa) = 61.16431 66.35231 63.75831
# Shear Modulus (GPa) = 19.69046 24.54246 22.11646
#
# Velocity S-wave (km/s) = 3.18779 3.55894 3.37846
# Velocity P-wave (km/s) = 6.71680 7.15063 6.93711
#
# Compressibility (1/GPa) = 0.01634940
#
# Stress axis : x y z
#
# Youngs Moduli (GPa) = 78.39610 98.85367 64.63364
#
# Poissons Ratio (x) = 0.45439 0.40235
# Poissons Ratio (y) = 0.36035 0.01133
# Poissons Ratio (z) = 0.48803 0.01734
#
# Static dielectric constant tensor:
#      x y z
#    x 3.378330 0.000000 0.000000 
#    y 0.000000 3.785710 0.000000 
#    z 0.000000 0.000000 3.401350 
# 
# 
# High freq. dielectric constant tensor:
#      x y z
#    x 1.731650 0.000000 0.000000 
#    y 0.000000 1.751150 0.000000 
#    z 0.000000 0.000000 1.746220 
# 
# From -- ./inp_files/26363.got.cif
#   From: 2010.03.12/outbox.cif.g09.slc.cpg/sg72_14_cif.got.tgz:26363.got - 2010.04.16 14:54:00.
