data_PCOD8293877
_publ_section_title
;
Structure prediction by ZEFSAII (Michael W. Deem and Ramdas Pophale) SiO2 
 PCOD8293877
Probable space group: I B A M
;
_chemical_formula_sum "Si O2"
_cell_formula_units_Z 96
_cell_length_a 21.988156
_cell_length_b 8.169969
_cell_length_c 26.802564
_cell_angle_alpha 90.000000
_cell_angle_beta 90.000000
_cell_angle_gamma 90.000000
_cell_volume 4814.881021
_symmetry_space_group_name_H-M "I B A M"
_symmetry_group_IT_number 72
_symmetry_cell_setting 'orthorhombic'
loop_
_space_group_symop_operation_xyz
x,y,z
-x,-y,z
x,-y,1/2-z
-x,y,1/2-z
-x,-y,-z
x,y,-z
-x,y,1/2+z
x,-y,1/2+z
1/2+x,1/2+y,1/2+z
1/2-x,1/2-y,1/2+z
1/2+x,1/2-y,-z
1/2-x,1/2+y,-z
1/2-x,1/2-y,1/2-z
1/2+x,1/2+y,1/2-z
1/2-x,1/2+y,z
1/2+x,1/2-y,z
loop_
_atom_site_type_symbol
_atom_site_label
_atom_site_fract_x
_atom_site_fract_y
_atom_site_fract_z
Si Si1 0.330666 0.748570 0.914807
Si Si2 0.800605 0.864664 0.813520
Si Si3 0.852359 0.179027 0.131672
Si Si4 0.571605 0.512103 0.443325
Si Si5 0.215085 0.402302 0.444621
Si Si6 0.663699 0.163279 0.724225
O O1 0.318936 0.768984 0.855632
O O2 0.399536 0.689822 0.928276
O O3 0.288380 0.599326 0.936774
O O4 0.314986 0.919959 0.940224
O O5 0.730242 0.868033 0.799160
O O6 0.836966 0.814083 0.763493
O O7 0.817518 0.039510 0.836819
O O8 0.805689 0.274898 0.096850
O O9 0.878647 0.294709 0.176190
O O10 0.906205 0.120454 0.096628
O O11 0.500000 0.500000 0.437834
O O12 0.590351 0.468123 0.500000
O O13 0.199417 0.337821 0.500000
O O14 0.638595 0.000000 0.750000
#
# Coordination Sequence:
#
# PCOD8293877 Si02
#       6
#    16  16  16  16  16  16
#     4  11  22  37  57  87 124 156 194 243 294 360
#     4  10  20  33  53  83 120 157 191 234 293 358
#     4  11  22  36  57  85 121 154 199 243 296 355
#     4  10  22  42  65  86 113 157 208 250 292 350
#     4  12  23  35  55  88 125 160 189 237 307 368
#     4  11  20  32  53  83 122 153 188 235 294 363
#
# _framework density 19.938188
#
# number of rings (size 3 to 8) (size 9 to 14) (size 15 to 20)
#    0.000    1.167    1.667    7.500    0.000    0.000 
#    0.000    0.833    0.000   11.000    0.000    4.667 
#    0.000    0.000    0.000    0.000    0.000    0.000 
#
# Total GULP energy -594731.734522 kJ/mol
# GULP energy per Si atom -12390.244469 kJ/mol
# Density = 1.989281 g / cm^3
# Si number density = 19.938188 Si / 1000 Ang^3
#
#
#
# Elastic Constant Matrix: (Units=GPa)
#
#
# Indices 1 2 3 4 5 6 
#
# 1 72.3596 39.5271 39.2205 0.0000 0.0000 0.0000
# 2 39.5271 94.8788 51.8763 0.0000 0.0000 0.0000
# 3 39.2205 51.8763 191.3509 0.0000 0.0000 0.0000
# 4 0.0000 0.0000 0.0000 36.0510 0.0000 0.0000
# 5 0.0000 0.0000 0.0000 0.0000 21.6318 0.0000
# 6 0.0000 0.0000 0.0000 0.0000 0.0000 12.8482
#
#
#
# Elastic Compliance Matrix: (Units=1/GPa)
#
#
# Indices 1 2 3 4 5 6 
#
# 1 0.018522 -0.006622 -0.002001 0.000000 0.000000 0.000000
# 2 -0.006622 0.014742 -0.002639 0.000000 0.000000 0.000000
# 3 -0.002001 -0.002639 0.006352 0.000000 0.000000 0.000000
# 4 0.000000 0.000000 0.000000 0.027738 0.000000 0.000000
# 5 0.000000 0.000000 0.000000 0.000000 0.046228 0.000000
# 6 0.000000 0.000000 0.000000 0.000000 0.000000 0.077832
#
#
# Mechanical properties :
#
#
# Convention : Reuss Voigt Hill
#
# Bulk Modulus (GPa) = 58.51296 68.87080 63.69188
# Shear Modulus (GPa) = 22.76495 29.30388 26.03441
#
# Velocity S-wave (km/s) = 3.38268 3.83787 3.61745
# Velocity P-wave (km/s) = 6.68338 7.36588 7.03292
#
# Compressibility (1/GPa) = 0.01709023
#
# Stress axis : x y z
#
# Youngs Moduli (GPa) = 53.99003 67.83490 157.43940
#
# Poissons Ratio (x) = 0.44922 0.31504
# Poissons Ratio (y) = 0.35754 0.41552
# Poissons Ratio (z) = 0.10804 0.17903
#
# Static dielectric constant tensor:
#      x y z
#    x 3.093610 0.000000 0.000000 
#    y 0.000000 3.671300 0.000000 
#    z 0.000000 0.000000 4.494760 
# 
# 
# High freq. dielectric constant tensor:
#      x y z
#    x 1.702610 0.000000 0.000000 
#    y 0.000000 1.779920 0.000000 
#    z 0.000000 0.000000 1.824320 
# 
# From -- ./inp_files/47340.got.cif
#   From: 2010.03.12/outbox.cif.g09.slc.cpg/sg72_24_cif.got.tgz:47340.got - 2010.04.16 14:54:00.
