data_PCOD8293077
_publ_section_title
;
Structure prediction by ZEFSAII (Michael W. Deem and Ramdas Pophale) SiO2 
 PCOD8293077
Probable space group: I B A M
;
_chemical_formula_sum "Si O2"
_cell_formula_units_Z 96
_cell_length_a 17.937642
_cell_length_b 20.220116
_cell_length_c 14.770878
_cell_angle_alpha 90.000000
_cell_angle_beta 90.000000
_cell_angle_gamma 90.000000
_cell_volume 5357.415205
_symmetry_space_group_name_H-M "I B A M"
_symmetry_group_IT_number 72
_symmetry_cell_setting 'orthorhombic'
loop_
_space_group_symop_operation_xyz
x,y,z
-x,-y,z
x,-y,1/2-z
-x,y,1/2-z
-x,-y,-z
x,y,-z
-x,y,1/2+z
x,-y,1/2+z
1/2+x,1/2+y,1/2+z
1/2-x,1/2-y,1/2+z
1/2+x,1/2-y,-z
1/2-x,1/2+y,-z
1/2-x,1/2-y,1/2-z
1/2+x,1/2+y,1/2-z
1/2-x,1/2+y,z
1/2+x,1/2-y,z
loop_
_atom_site_type_symbol
_atom_site_label
_atom_site_fract_x
_atom_site_fract_y
_atom_site_fract_z
Si Si1 0.219858 0.699514 0.823224
Si Si2 0.514498 0.415406 0.500000
Si Si3 0.710970 0.441831 0.805544
Si Si4 0.928723 0.896974 0.692192
Si Si5 0.943262 0.742987 0.674724
Si Si6 0.349489 0.558470 0.000000
Si Si7 0.808461 0.789964 0.000000
Si Si8 0.028810 0.236355 0.000000
O O1 0.250000 0.750000 0.750000
O O2 0.239710 0.623609 0.804866
O O3 0.130822 0.699313 0.828331
O O4 0.257134 0.725656 0.914794
O O5 0.564524 0.425686 0.410055
O O6 0.438843 0.461569 0.500000
O O7 0.482160 0.341899 0.500000
O O8 0.754070 0.500000 0.750000
O O9 0.638454 0.429614 0.744876
O O10 0.690032 0.466641 0.907526
O O11 0.918141 0.818245 0.691354
O O12 0.000000 0.917108 0.750000
O O13 0.000000 0.717163 0.750000
O O14 0.989106 0.731009 0.584477
O O15 0.340367 0.636693 0.000000
O O16 0.883147 0.744927 0.000000
#
# Coordination Sequence:
#
# PCOD8293077 Si02
#       8
#    16   8  16  16  16   8   8   8
#     4  11  20  36  56  80 111 145 182 231 279 328
#     4   9  16  28  49  72 106 141 182 221 254 310
#     4  11  23  37  53  76 106 146 186 226 278 338
#     4  10  18  31  50  76 108 143 181 220 265 327
#     4  10  19  31  54  79 107 143 181 226 274 320
#     4   9  18  36  52  69 104 147 182 216 266 334
#     4   9  19  31  55  84 111 147 178 220 279 335
#     4   9  17  29  48  79 111 137 179 227 266 322
#
# _framework density 17.919090000000001
#
# number of rings (size 3 to 8) (size 9 to 14) (size 15 to 20)
#    0.000    2.000    3.333    1.500    4.667    1.000 
#    0.000    1.667    0.000    0.500    0.000    0.000 
#    0.000    6.667    0.000    0.000    0.000    0.000 
#
# Total GULP energy -595030.861062 kJ/mol
# GULP energy per Si atom -12396.476272 kJ/mol
# Density = 1.787830 g / cm^3
# Si number density = 17.919090 Si / 1000 Ang^3
#
#
#
# Elastic Constant Matrix: (Units=GPa)
#
#
# Indices 1 2 3 4 5 6 
#
# 1 121.9720 37.1908 63.2204 0.0000 0.0000 0.0000
# 2 37.1908 57.4937 41.6745 0.0000 0.0000 0.0000
# 3 63.2204 41.6745 174.0904 0.0000 0.0000 0.0000
# 4 0.0000 0.0000 0.0000 24.3542 0.0000 0.0000
# 5 0.0000 0.0000 0.0000 0.0000 18.3155 0.0000
# 6 0.0000 0.0000 0.0000 0.0000 0.0000 22.6613
#
#
#
# Elastic Compliance Matrix: (Units=1/GPa)
#
#
# Indices 1 2 3 4 5 6 
#
# 1 0.011264 -0.005229 -0.002839 0.000000 0.000000 0.000000
# 2 -0.005229 0.023472 -0.003720 0.000000 0.000000 0.000000
# 3 -0.002839 -0.003720 0.007666 0.000000 0.000000 0.000000
# 4 0.000000 0.000000 0.000000 0.041061 0.000000 0.000000
# 5 0.000000 0.000000 0.000000 0.000000 0.054599 0.000000
# 6 0.000000 0.000000 0.000000 0.000000 0.000000 0.044128
#
#
# Mechanical properties :
#
#
# Convention : Reuss Voigt Hill
#
# Bulk Modulus (GPa) = 53.11649 70.85865 61.98757
# Shear Modulus (GPa) = 23.58044 27.16424 25.37234
#
# Velocity S-wave (km/s) = 3.63152 3.89773 3.76698
# Velocity P-wave (km/s) = 6.87682 7.73860 7.32040
#
# Compressibility (1/GPa) = 0.01882654
#
# Stress axis : x y z
#
# Youngs Moduli (GPa) = 88.77529 42.60399 130.45271
#
# Poissons Ratio (x) = 0.22277 0.37035
# Poissons Ratio (y) = 0.46418 0.48529
# Poissons Ratio (z) = 0.25203 0.15849
#
# Static dielectric constant tensor:
#      x y z
#    x 3.241140 0.000000 0.000000 
#    y 0.000000 3.162350 0.000000 
#    z 0.000000 0.000000 3.184560 
# 
# 
# High freq. dielectric constant tensor:
#      x y z
#    x 1.676180 0.000000 0.000000 
#    y 0.000000 1.661100 0.000000 
#    z 0.000000 0.000000 1.719310 
# 
# From -- ./inp_files/22073.got.cif
#   From: 2010.03.12/outbox.cif.g09.slc.cpg/sg72_12_cif.got.tgz:22073.got - 2010.04.16 14:54:00.
