data_PCOD8293241
_publ_section_title
;
Structure prediction by ZEFSAII (Michael W. Deem and Ramdas Pophale) SiO2 
 PCOD8293241
Probable space group: I B A M
;
_chemical_formula_sum "Si O2"
_cell_formula_units_Z 64
_cell_length_a 13.447673
_cell_length_b 34.493070
_cell_length_c 8.905730
_cell_angle_alpha 90.000000
_cell_angle_beta 90.000000
_cell_angle_gamma 90.000000
_cell_volume 4130.936452
_symmetry_space_group_name_H-M "I B A M"
_symmetry_group_IT_number 72
_symmetry_cell_setting 'orthorhombic'
loop_
_space_group_symop_operation_xyz
x,y,z
-x,-y,z
x,-y,1/2-z
-x,y,1/2-z
-x,-y,-z
x,y,-z
-x,y,1/2+z
x,-y,1/2+z
1/2+x,1/2+y,1/2+z
1/2-x,1/2-y,1/2+z
1/2+x,1/2-y,-z
1/2-x,1/2+y,-z
1/2-x,1/2-y,1/2-z
1/2+x,1/2+y,1/2-z
1/2-x,1/2+y,z
1/2+x,1/2-y,z
loop_
_atom_site_type_symbol
_atom_site_label
_atom_site_fract_x
_atom_site_fract_y
_atom_site_fract_z
Si Si1 0.299567 0.692812 0.824369
Si Si2 0.606691 0.536249 0.173816
Si Si3 0.900096 0.263848 0.175491
Si Si4 0.392461 0.378029 0.824617
O O1 0.186718 0.705431 0.790921
O O2 0.376039 0.722574 0.749408
O O3 0.314239 0.650804 0.751619
O O4 0.322526 0.691390 0.000000
O O5 0.667190 0.500000 0.250000
O O6 0.500000 0.537838 0.250000
O O7 0.654217 0.578794 0.199645
O O8 0.595219 0.526923 0.000000
O O9 0.000000 0.280712 0.250000
O O10 0.915956 0.257345 0.000000
O O11 0.500000 0.373254 0.750000
O O12 0.404084 0.368622 0.000000
#
# Coordination Sequence:
#
# PCOD8293241 Si02
#       4
#    16  16  16  16
#     4  10  20  32  46  64  85 111 143 176 210 249
#     4   9  16  25  38  56  79 109 141 171 205 244
#     4  10  20  33  48  64  84 111 141 175 214 252
#     4  10  19  29  42  61  86 115 145 177 211 247
#
# _framework density 15.492856
#
# number of rings (size 3 to 8) (size 9 to 14) (size 15 to 20)
#    0.000    2.250    0.000    4.500    0.000    6.000 
#    0.000    0.000    0.000    0.000    0.000    0.000 
#    0.000    1.000    0.000   11.000    0.000    8.000 
#
# Total GULP energy -396667.303078 kJ/mol
# GULP energy per Si atom -12395.853221 kJ/mol
# Density = 1.545759 g / cm^3
# Si number density = 15.492856 Si / 1000 Ang^3
#
#
#
# Elastic Constant Matrix: (Units=GPa)
#
#
# Indices 1 2 3 4 5 6 
#
# 1 65.3995 40.1238 42.1824 -0.0003 0.0004 -0.0006
# 2 40.1238 132.6480 68.0523 0.0012 -0.0035 0.0002
# 3 42.1824 68.0523 119.3703 0.0010 0.0082 -0.0009
# 4 -0.0003 0.0012 0.0010 29.7945 -0.0015 0.0010
# 5 0.0004 -0.0035 0.0082 -0.0015 22.4911 0.0010
# 6 -0.0006 0.0002 -0.0009 0.0010 0.0010 16.7311
#
#
#
# Elastic Compliance Matrix: (Units=1/GPa)
#
#
# Indices 1 2 3 4 5 6 
#
# 1 0.020947 -0.003588 -0.005357 0.000001 0.000001 0.000000
# 2 -0.003588 0.011270 -0.005157 0.000000 0.000004 0.000000
# 3 -0.005357 -0.005157 0.013210 0.000000 -0.000005 0.000001
# 4 0.000001 0.000000 0.000000 0.033563 0.000002 -0.000002
# 5 0.000001 0.000004 -0.000005 0.000002 0.044462 -0.000003
# 6 0.000000 0.000000 0.000001 -0.000002 -0.000003 0.059769
#
#
# Mechanical properties :
#
#
# Convention : Reuss Voigt Hill
#
# Bulk Modulus (GPa) = 58.05940 68.68162 63.37051
# Shear Modulus (GPa) = 23.02396 24.94063 23.98229
#
# Velocity S-wave (km/s) = 3.85918 4.01660 3.93868
# Velocity P-wave (km/s) = 7.57720 8.12023 7.85341
#
# Compressibility (1/GPa) = 0.01722374
#
# Stress axis : x y z
#
# Youngs Moduli (GPa) = 47.73973 88.73360 75.69976
#
# Poissons Ratio (x) = 0.31838 0.40549
# Poissons Ratio (y) = 0.17129 0.39037
# Poissons Ratio (z) = 0.25572 0.45759
#
# Static dielectric constant tensor:
#      x y z
#    x 2.653130 0.000020 0.000000 
#    y 0.000020 3.678570 -0.000020 
#    z 0.000000 -0.000020 3.164140 
# 
# 
# High freq. dielectric constant tensor:
#      x y z
#    x 1.540260 0.000000 0.000000 
#    y 0.000000 1.601730 0.000000 
#    z 0.000000 0.000000 1.619930 
# 
# From -- ./inp_files/3780.got.cif
#   From: 2010.03.12/outbox.cif.g09.slc.cpg/sg72_2_cif.got.tgz:3780.got - 2010.04.16 14:54:00.
