data_PCOD8293185
_publ_section_title
;
Structure prediction by ZEFSAII (Michael W. Deem and Ramdas Pophale) SiO2 
 PCOD8293185
Probable space group: I B A M
;
_chemical_formula_sum "Si O2"
_cell_formula_units_Z 96
_cell_length_a 16.977036
_cell_length_b 22.544695
_cell_length_c 13.813726
_cell_angle_alpha 90.000000
_cell_angle_beta 90.000000
_cell_angle_gamma 90.000000
_cell_volume 5287.094479
_symmetry_space_group_name_H-M "I B A M"
_symmetry_group_IT_number 72
_symmetry_cell_setting 'orthorhombic'
loop_
_space_group_symop_operation_xyz
x,y,z
-x,-y,z
x,-y,1/2-z
-x,y,1/2-z
-x,-y,-z
x,y,-z
-x,y,1/2+z
x,-y,1/2+z
1/2+x,1/2+y,1/2+z
1/2-x,1/2-y,1/2+z
1/2+x,1/2-y,-z
1/2-x,1/2+y,-z
1/2-x,1/2-y,1/2-z
1/2+x,1/2+y,1/2-z
1/2-x,1/2+y,z
1/2+x,1/2-y,z
loop_
_atom_site_type_symbol
_atom_site_label
_atom_site_fract_x
_atom_site_fract_y
_atom_site_fract_z
Si Si1 0.415164 0.202199 0.000000
Si Si2 0.356235 0.270980 0.176379
Si Si3 0.421253 0.622302 0.794992
Si Si4 0.256920 0.563915 0.792623
Si Si5 0.696658 0.828019 0.677020
Si Si6 0.726322 0.110005 0.500000
Si Si7 0.408426 0.192561 0.500000
Si Si8 0.892987 0.166917 0.500000
O O1 0.409324 0.245863 0.908981
O O2 0.351709 0.149786 0.000000
O O3 0.500934 0.172011 0.000000
O O4 0.406508 0.316459 0.239243
O O5 0.332586 0.216153 0.241660
O O6 0.278678 0.303244 0.133365
O O7 0.500000 0.592807 0.750000
O O8 0.349904 0.576532 0.782623
O O9 0.434282 0.637198 0.907643
O O10 0.237782 0.500000 0.750000
O O11 0.207384 0.608965 0.727736
O O12 0.229817 0.568579 0.904791
O O13 0.632846 0.835386 0.593470
O O14 0.799201 0.155658 0.500000
O O15 0.402884 0.263153 0.500000
#
# Coordination Sequence:
#
# PCOD8293185 Si02
#       8
#     8  16  16  16  16   8   8   8
#     4  12  22  32  55  87 117 150 186 226 297 354
#     4  10  19  33  55  82 113 152 183 223 278 348
#     4  10  20  34  56  89 124 146 182 228 282 345
#     4  10  22  40  62  81 105 156 199 238 277 322
#     4  10  20  35  55  81 112 145 194 234 272 333
#     4  10  20  39  60  81 108 147 201 230 274 350
#     4  12  22  31  54  88 121 143 178 242 290 339
#     4  10  18  34  57  81 118 160 179 211 283 360
#
# _framework density 18.157420999999999
#
# number of rings (size 3 to 8) (size 9 to 14) (size 15 to 20)
#    0.000    1.667    3.333    2.500    0.000    1.000 
#    0.000    2.500    0.000    6.000    0.000    0.000 
#    0.000    0.000    0.000    0.000    0.000    0.000 
#
# Total GULP energy -595307.864167 kJ/mol
# GULP energy per Si atom -12402.247170 kJ/mol
# Density = 1.811609 g / cm^3
# Si number density = 18.157421 Si / 1000 Ang^3
#
#
#
# Elastic Constant Matrix: (Units=GPa)
#
#
# Indices 1 2 3 4 5 6 
#
# 1 106.2914 19.7583 62.8724 0.0000 0.0000 0.0000
# 2 19.7583 76.3667 45.3752 0.0000 0.0000 0.0000
# 3 62.8724 45.3752 132.1521 0.0000 0.0000 0.0000
# 4 0.0000 0.0000 0.0000 19.9638 0.0000 0.0000
# 5 0.0000 0.0000 0.0000 0.0000 29.7486 0.0000
# 6 0.0000 0.0000 0.0000 0.0000 0.0000 78.1730
#
#
#
# Elastic Compliance Matrix: (Units=1/GPa)
#
#
# Indices 1 2 3 4 5 6 
#
# 1 0.013102 0.000394 -0.006369 0.000000 0.000000 0.000000
# 2 0.000394 0.016463 -0.005840 0.000000 0.000000 0.000000
# 3 -0.006369 -0.005840 0.012602 0.000000 0.000000 0.000000
# 4 0.000000 0.000000 0.000000 0.050091 0.000000 0.000000
# 5 0.000000 0.000000 0.000000 0.000000 0.033615 0.000000
# 6 0.000000 0.000000 0.000000 0.000000 0.000000 0.012792
#
#
# Mechanical properties :
#
#
# Convention : Reuss Voigt Hill
#
# Bulk Modulus (GPa) = 53.94394 63.42466 58.68430
# Shear Modulus (GPa) = 29.67829 38.03071 33.85450
#
# Velocity S-wave (km/s) = 4.04728 4.58154 4.32267
# Velocity P-wave (km/s) = 7.18430 7.93685 7.56993
#
# Compressibility (1/GPa) = 0.01853776
#
# Stress axis : x y z
#
# Youngs Moduli (GPa) = 76.32435 60.74305 79.35069
#
# Poissons Ratio (x) = -0.02395 0.50536
# Poissons Ratio (y) = -0.03009 0.46342
# Poissons Ratio (z) = 0.48609 0.35475
#
# Static dielectric constant tensor:
#      x y z
#    x 3.502810 0.000000 0.000000 
#    y 0.000000 3.044030 0.000000 
#    z 0.000000 0.000000 3.476400 
# 
# 
# High freq. dielectric constant tensor:
#      x y z
#    x 1.701610 0.000000 0.000000 
#    y 0.000000 1.671870 0.000000 
#    z 0.000000 0.000000 1.718830 
# 
# From -- ./inp_files/22060.got.cif
#   From: 2010.03.12/outbox.cif.g09.slc.cpg/sg72_12_cif.got.tgz:22060.got - 2010.04.16 14:54:00.
