data_PCOD8293050
_publ_section_title
;
Structure prediction by ZEFSAII (Michael W. Deem and Ramdas Pophale) SiO2 
 PCOD8293050
Probable space group: I B A M
;
_chemical_formula_sum "Si O2"
_cell_formula_units_Z 104
_cell_length_a 21.192499
_cell_length_b 15.115373
_cell_length_c 18.759027
_cell_angle_alpha 90.000000
_cell_angle_beta 90.000000
_cell_angle_gamma 90.000000
_cell_volume 6009.126526
_symmetry_space_group_name_H-M "I B A M"
_symmetry_group_IT_number 72
_symmetry_cell_setting 'orthorhombic'
loop_
_space_group_symop_operation_xyz
x,y,z
-x,-y,z
x,-y,1/2-z
-x,y,1/2-z
-x,-y,-z
x,y,-z
-x,y,1/2+z
x,-y,1/2+z
1/2+x,1/2+y,1/2+z
1/2-x,1/2-y,1/2+z
1/2+x,1/2-y,-z
1/2-x,1/2+y,-z
1/2-x,1/2-y,1/2-z
1/2+x,1/2+y,1/2-z
1/2-x,1/2+y,z
1/2+x,1/2-y,z
loop_
_atom_site_type_symbol
_atom_site_label
_atom_site_fract_x
_atom_site_fract_y
_atom_site_fract_z
Si Si1 0.500000 0.750000 0.250000
Si Si2 0.676755 0.856739 0.916570
Si Si3 0.676755 0.356739 0.916570
Si Si4 0.379595 0.710931 0.322104
Si Si5 0.675934 0.474385 0.327484
Si Si6 0.675934 0.974385 0.327484
Si Si7 0.620405 0.789069 0.677896
O O1 0.453844 0.694593 0.302938
O O2 0.546156 0.805406 0.302938
O O3 0.750000 0.835697 0.898809
O O4 0.631638 0.781489 0.884646
O O5 0.656382 0.951010 0.883946
O O6 0.664569 0.861711 0.000000
O O7 0.656382 0.451010 0.883946
O O8 0.631638 0.281489 0.884646
O O9 0.664569 0.361711 0.000000
O O10 0.352805 0.618967 0.350566
O O11 0.345635 0.750000 0.250000
O O12 0.649062 0.500000 0.250000
O O13 0.750000 0.461426 0.324595
O O14 0.647195 0.881033 0.350566
O O15 0.649062 0.000000 0.250000
#
# Coordination Sequence:
#
# PCOD8293050 Si02
#       7
#     8  16  16  16  16  16  16
#     4   8  20  36  54  80 104 138 194 234 250 292
#     4  10  21  35  53  84 118 139 167 219 277 329
#     4  10  21  35  53  84 118 139 167 219 277 329
#     4  10  19  35  56  77 104 146 183 221 262 309
#     4  10  18  30  53  80 104 136 178 221 267 323
#     4  10  18  30  53  80 104 136 178 221 267 323
#     4  10  19  35  56  77 104 146 183 221 262 309
#
# _framework density 17.307008
#
# number of rings (size 3 to 8) (size 9 to 14) (size 15 to 20)
#    0.923    1.231    3.077    0.923    0.000    2.462 
#    0.000   10.769    0.000    1.846    0.000    0.000 
#    0.000    0.000    0.000    0.000    0.000    0.000 
#
# Total GULP energy -644430.081314 kJ/mol
# GULP energy per Si atom -12392.886179 kJ/mol
# Density = 1.726762 g / cm^3
# Si number density = 17.307008 Si / 1000 Ang^3
#
#
#
# Elastic Constant Matrix: (Units=GPa)
#
#
# Indices 1 2 3 4 5 6 
#
# 1 56.2219 52.5998 39.3652 0.0000 0.0000 0.0000
# 2 52.5998 153.8380 62.1218 0.0000 0.0000 0.0000
# 3 39.3652 62.1218 116.8349 0.0000 0.0000 0.0000
# 4 0.0000 0.0000 0.0000 28.6201 0.0000 0.0000
# 5 0.0000 0.0000 0.0000 0.0000 19.8841 0.0000
# 6 0.0000 0.0000 0.0000 0.0000 0.0000 1.7917
#
#
#
# Elastic Compliance Matrix: (Units=1/GPa)
#
#
# Indices 1 2 3 4 5 6 
#
# 1 0.028854 -0.007564 -0.005700 0.000000 0.000000 0.000000
# 2 -0.007564 0.010261 -0.002907 0.000000 0.000000 0.000000
# 3 -0.005700 -0.002907 0.012025 0.000000 0.000000 0.000000
# 4 0.000000 0.000000 0.000000 0.034940 0.000000 0.000000
# 5 0.000000 0.000000 0.000000 0.000000 0.050292 0.000000
# 6 0.000000 0.000000 0.000000 0.000000 0.000000 0.558117
#
#
# Mechanical properties :
#
#
# Convention : Reuss Voigt Hill
#
# Bulk Modulus (GPa) = 53.19728 70.56316 61.88022
# Shear Modulus (GPa) = 6.82038 21.57973 14.20005
#
# Velocity S-wave (km/s) = 1.98730 3.53495 2.86751
# Velocity P-wave (km/s) = 6.00583 7.58427 6.84073
#
# Compressibility (1/GPa) = 0.01879795
#
# Stress axis : x y z
#
# Youngs Moduli (GPa) = 34.65670 97.46100 83.15808
#
# Poissons Ratio (x) = 0.73720 0.47401
# Poissons Ratio (y) = 0.26215 0.24174
# Poissons Ratio (z) = 0.19755 0.28332
#
# Static dielectric constant tensor:
#      x y z
#    x 2.968330 0.000000 0.000000 
#    y 0.000000 3.161070 0.000000 
#    z 0.000000 0.000000 3.155220 
# 
# 
# High freq. dielectric constant tensor:
#      x y z
#    x 1.637390 0.000000 0.000000 
#    y 0.000000 1.670090 0.000000 
#    z 0.000000 0.000000 1.661210 
# 
# From -- ./inp_files/39836.got.cif
#   From: 2010.03.12/outbox.cif.g09.slc.cpg/sg72_20_cif.got.tgz:39836.got - 2010.04.16 14:54:00.
