data_PCOD8293450
_publ_section_title
;
Structure prediction by ZEFSAII (Michael W. Deem and Ramdas Pophale) SiO2 
 PCOD8293450
Probable space group: I B A M
;
_chemical_formula_sum "Si O2"
_cell_formula_units_Z 84
_cell_length_a 8.682237
_cell_length_b 23.982133
_cell_length_c 17.660716
_cell_angle_alpha 90.000000
_cell_angle_beta 90.000000
_cell_angle_gamma 90.000000
_cell_volume 3677.288898
_symmetry_space_group_name_H-M "I B A M"
_symmetry_group_IT_number 72
_symmetry_cell_setting 'orthorhombic'
loop_
_space_group_symop_operation_xyz
x,y,z
-x,-y,z
x,-y,1/2-z
-x,y,1/2-z
-x,-y,-z
x,y,-z
-x,y,1/2+z
x,-y,1/2+z
1/2+x,1/2+y,1/2+z
1/2-x,1/2-y,1/2+z
1/2+x,1/2-y,-z
1/2-x,1/2+y,-z
1/2-x,1/2-y,1/2-z
1/2+x,1/2+y,1/2-z
1/2-x,1/2+y,z
1/2+x,1/2-y,z
loop_
_atom_site_type_symbol
_atom_site_label
_atom_site_fract_x
_atom_site_fract_y
_atom_site_fract_z
Si Si1 0.500000 0.500000 0.250000
Si Si2 0.922851 0.798163 0.000000
Si Si3 0.368873 0.171635 0.500000
Si Si4 0.436020 0.309536 0.663786
Si Si5 0.317647 0.886946 0.500000
Si Si6 0.272518 0.420947 0.338606
Si Si7 0.776608 0.690882 0.838552
Si Si8 0.000000 0.389314 0.750000
O O1 0.394983 0.465388 0.308124
O O2 0.997276 0.820328 0.077688
O O3 0.748266 0.823554 0.000000
O O4 0.945390 0.732214 0.000000
O O5 0.497905 0.122485 0.500000
O O6 0.262759 0.168881 0.425098
O O7 0.329228 0.360364 0.688829
O O8 0.606504 0.308028 0.705032
O O9 0.336864 0.253590 0.666963
O O10 0.255861 0.923086 0.571252
O O11 0.107028 0.430081 0.299391
O O12 0.896866 0.649670 0.802052
#
# Coordination Sequence:
#
# PCOD8293450 Si02
#       8
#     4   8   8  16   8  16  16   8
#     4  12  28  50  76  96 128 174 224 308 364 414
#     4   8  19  28  59  87 130 176 217 258 310 384
#     4  10  19  32  57  92 134 178 223 260 318 394
#     4  10  21  37  57  94 133 177 222 267 321 398
#     4  10  20  43  66 100 135 179 229 282 324 408
#     4  11  25  46  71  99 132 176 231 287 351 403
#     4  11  22  33  59  91 138 180 217 262 322 402
#     4  12  24  40  64  96 128 172 212 270 340 414
#
# _framework density 22.842915999999999
#
# number of rings (size 3 to 8) (size 9 to 14) (size 15 to 20)
#    0.000    1.524    1.905    2.857   13.333    4.571 
#    0.000    0.000    0.000    3.429    0.000    0.000 
#    0.000    0.000    0.000    0.000    0.000    0.000 
#
# Total GULP energy -520431.949807 kJ/mol
# GULP energy per Si atom -12391.236900 kJ/mol
# Density = 2.279092 g / cm^3
# Si number density = 22.842916 Si / 1000 Ang^3
#
#
#
# Elastic Constant Matrix: (Units=GPa)
#
#
# Indices 1 2 3 4 5 6 
#
# 1 169.8072 40.0836 49.4358 0.0000 0.0000 0.0000
# 2 40.0836 60.1208 33.6006 0.0000 0.0000 0.0000
# 3 49.4358 33.6006 117.7118 0.0001 0.0000 0.0006
# 4 0.0000 0.0000 0.0001 25.6090 0.0000 0.0002
# 5 0.0000 0.0000 0.0000 0.0000 34.8668 -0.0001
# 6 0.0000 0.0000 0.0006 0.0002 -0.0001 -5.3958
#
#
#
# Elastic Compliance Matrix: (Units=1/GPa)
#
#
# Indices 1 2 3 4 5 6 
#
# 1 0.007369 -0.003788 -0.002014 0.000000 0.000000 0.000000
# 2 -0.003788 0.021737 -0.004614 0.000000 0.000000 0.000000
# 3 -0.002014 -0.004614 0.010658 0.000000 0.000000 0.000001
# 4 0.000000 0.000000 0.000000 0.039049 0.000000 0.000001
# 5 0.000000 0.000000 0.000000 0.000000 0.028681 0.000000
# 6 0.000000 0.000000 0.000001 0.000001 0.000000 -0.185328
#
#
# Mechanical properties :
#
#
# Convention : Reuss Voigt Hill
#
# Bulk Modulus (GPa) = 52.81633 65.98662 59.40147
# Shear Modulus (GPa) = -98.63549 25.98398 -36.32576
#
# Velocity S-wave (km/s) = -6.57827 3.37635 -3.99211
# Velocity P-wave (km/s) = 5.87592 6.64451 2.19352
#
# Compressibility (1/GPa) = 0.01893354
#
# Stress axis : x y z
#
# Youngs Moduli (GPa) = 135.69581 46.00380 93.82529
#
# Poissons Ratio (x) = 0.17426 0.18894
# Poissons Ratio (y) = 0.51400 0.43292
# Poissons Ratio (z) = 0.27325 0.21226
#
# Static dielectric constant tensor:
#      x y z
#    x 4.276710 0.000000 0.000000 
#    y 0.000000 3.505540 0.000000 
#    z 0.000000 0.000000 5.108340 
# 
# 
# High freq. dielectric constant tensor:
#      x y z
#    x 1.919530 0.000000 0.000000 
#    y 0.000000 1.839820 0.000000 
#    z 0.000000 0.000000 1.948330 
# 
# From -- ./inp_files/35820.got.cif
#   From: 2010.03.12/outbox.cif.g09.slc.cpg/sg72_18_cif.got.tgz:35820.got - 2010.04.16 14:54:00.
