data_PCOD8293314
_publ_section_title
;
Structure prediction by ZEFSAII (Michael W. Deem and Ramdas Pophale) SiO2 
 PCOD8293314
Probable space group: I B A M
;
_chemical_formula_sum "Si O2"
_cell_formula_units_Z 112
_cell_length_a 11.299842
_cell_length_b 16.625413
_cell_length_c 30.066609
_cell_angle_alpha 90.000000
_cell_angle_beta 90.000000
_cell_angle_gamma 90.000000
_cell_volume 5648.449672
_symmetry_space_group_name_H-M "I B A M"
_symmetry_group_IT_number 72
_symmetry_cell_setting 'orthorhombic'
loop_
_space_group_symop_operation_xyz
x,y,z
-x,-y,z
x,-y,1/2-z
-x,y,1/2-z
-x,-y,-z
x,y,-z
-x,y,1/2+z
x,-y,1/2+z
1/2+x,1/2+y,1/2+z
1/2-x,1/2-y,1/2+z
1/2+x,1/2-y,-z
1/2-x,1/2+y,-z
1/2-x,1/2-y,1/2-z
1/2+x,1/2+y,1/2-z
1/2-x,1/2+y,z
1/2+x,1/2-y,z
loop_
_atom_site_type_symbol
_atom_site_label
_atom_site_fract_x
_atom_site_fract_y
_atom_site_fract_z
Si Si1 0.095281 0.289294 0.172304
Si Si2 0.600480 0.793481 0.103197
Si Si3 0.059507 0.416911 0.052529
Si Si4 0.779659 0.137668 0.105092
Si Si5 0.629013 0.470481 0.321893
Si Si6 0.763593 0.860714 0.827833
Si Si7 0.669231 0.912100 0.740486
O O1 0.196749 0.318958 0.139901
O O2 0.133921 0.200805 0.188428
O O3 0.082801 0.357975 0.210079
O O4 0.972628 0.276317 0.147837
O O5 0.525091 0.843840 0.067704
O O6 0.642715 0.708476 0.081194
O O7 0.712102 0.840662 0.123274
O O8 0.000000 0.500000 0.069379
O O9 0.193941 0.409782 0.070862
O O10 0.068119 0.414646 0.000000
O O11 0.870670 0.081028 0.132257
O O12 0.500000 0.500000 0.306083
O O13 0.695911 0.549835 0.335696
O O14 0.699722 0.424940 0.282050
O O15 0.674584 0.861989 0.786110
O O16 0.612370 0.000000 0.750000
#
# Coordination Sequence:
#
# PCOD8293314 Si02
#       7
#    16  16  16  16  16  16  16
#     4   9  18  33  49  71 104 142 182 224 271 321
#     4  10  20  35  55  78 106 140 177 221 274 332
#     4  10  21  38  61  86 112 144 179 222 282 347
#     4   9  19  35  55  81 109 138 181 229 273 336
#     4  10  19  33  52  73 102 142 183 227 278 330
#     4  10  19  31  49  73 102 139 182 226 269 318
#     4   9  19  32  45  70 103 138 187 233 271 318
#
# _framework density 19.82845
#
# number of rings (size 3 to 8) (size 9 to 14) (size 15 to 20)
#    0.000    2.429    0.000    2.143    0.000    4.857 
#    0.000    3.571    0.000    0.429    0.000    0.000 
#    0.000    0.000    0.000    0.000    0.000    0.000 
#
# Total GULP energy -693781.448734 kJ/mol
# GULP energy per Si atom -12388.954442 kJ/mol
# Density = 1.978332 g / cm^3
# Si number density = 19.828450 Si / 1000 Ang^3
#
#
#
# Elastic Constant Matrix: (Units=GPa)
#
#
# Indices 1 2 3 4 5 6 
#
# 1 64.7173 9.8782 9.9662 0.0000 0.0000 0.0000
# 2 9.8782 80.8566 24.9513 0.0000 0.0000 0.0000
# 3 9.9662 24.9513 56.6438 0.0000 0.0000 0.0000
# 4 0.0000 0.0000 0.0000 26.8423 0.0000 0.0000
# 5 0.0000 0.0000 0.0000 0.0000 16.8926 0.0000
# 6 0.0000 0.0000 0.0000 0.0000 0.0000 23.0030
#
#
#
# Elastic Compliance Matrix: (Units=1/GPa)
#
#
# Indices 1 2 3 4 5 6 
#
# 1 0.015992 -0.001256 -0.002260 0.000000 0.000000 0.000000
# 2 -0.001256 0.014412 -0.006127 0.000000 0.000000 0.000000
# 3 -0.002260 -0.006127 0.020751 0.000000 0.000000 0.000000
# 4 0.000000 0.000000 0.000000 0.037255 0.000000 0.000000
# 5 0.000000 0.000000 0.000000 0.000000 0.059198 0.000000
# 6 0.000000 0.000000 0.000000 0.000000 0.000000 0.043473
#
#
# Mechanical properties :
#
#
# Convention : Reuss Voigt Hill
#
# Bulk Modulus (GPa) = 31.38062 32.42321 31.90192
# Shear Modulus (GPa) = 22.62554 23.84238 23.23396
#
# Velocity S-wave (km/s) = 3.38163 3.47137 3.42680
# Velocity P-wave (km/s) = 5.57742 5.69689 5.63747
#
# Compressibility (1/GPa) = 0.03186680
#
# Stress axis : x y z
#
# Youngs Moduli (GPa) = 62.53274 69.38727 48.19061
#
# Poissons Ratio (x) = 0.08716 0.10892
# Poissons Ratio (y) = 0.07855 0.29528
# Poissons Ratio (z) = 0.14134 0.42516
#
# Static dielectric constant tensor:
#      x y z
#    x 3.870230 0.000000 0.000000 
#    y 0.000000 3.986690 0.000000 
#    z 0.000000 0.000000 3.422920 
# 
# 
# High freq. dielectric constant tensor:
#      x y z
#    x 1.767050 0.000000 0.000000 
#    y 0.000000 1.789760 0.000000 
#    z 0.000000 0.000000 1.738650 
# 
# From -- ./inp_files/51448.got.cif
#   From: 2010.03.12/outbox.cif.g09.slc.cpg/sg72_26_cif.got.tgz:51448.got - 2010.04.16 14:54:00.
