data_PCOD8293489
_publ_section_title
;
Structure prediction by ZEFSAII (Michael W. Deem and Ramdas Pophale) SiO2 
 PCOD8293489
Probable space group: I B A M
;
_chemical_formula_sum "Si O2"
_cell_formula_units_Z 96
_cell_length_a 9.738452
_cell_length_b 19.790409
_cell_length_c 26.414853
_cell_angle_alpha 90.000000
_cell_angle_beta 90.000000
_cell_angle_gamma 90.000000
_cell_volume 5090.880418
_symmetry_space_group_name_H-M "I B A M"
_symmetry_group_IT_number 72
_symmetry_cell_setting 'orthorhombic'
loop_
_space_group_symop_operation_xyz
x,y,z
-x,-y,z
x,-y,1/2-z
-x,y,1/2-z
-x,-y,-z
x,y,-z
-x,y,1/2+z
x,-y,1/2+z
1/2+x,1/2+y,1/2+z
1/2-x,1/2-y,1/2+z
1/2+x,1/2-y,-z
1/2-x,1/2+y,-z
1/2-x,1/2-y,1/2-z
1/2+x,1/2+y,1/2-z
1/2-x,1/2+y,z
1/2+x,1/2-y,z
loop_
_atom_site_type_symbol
_atom_site_label
_atom_site_fract_x
_atom_site_fract_y
_atom_site_fract_z
Si Si1 0.334149 0.641917 0.304302
Si Si2 0.613969 0.555418 0.054517
Si Si3 0.536578 0.706860 0.941502
Si Si4 0.842346 0.141599 0.689589
Si Si5 0.216837 0.745222 0.381072
Si Si6 0.337467 0.495977 0.844961
O O1 0.305456 0.663248 0.246748
O O2 0.494336 0.651454 0.319188
O O3 0.235947 0.681263 0.343498
O O4 0.296428 0.562360 0.305669
O O5 0.500000 0.500000 0.044961
O O6 0.542827 0.626528 0.071156
O O7 0.715955 0.527758 0.098796
O O8 0.691522 0.566143 0.000000
O O9 0.681956 0.740734 0.928646
O O10 0.432571 0.747523 0.905546
O O11 0.500184 0.719165 0.000000
O O12 0.754537 0.189325 0.653160
O O13 0.784682 0.067130 0.675941
O O14 0.500000 0.500000 0.850771
#
# Coordination Sequence:
#
# PCOD8293489 Si02
#       6
#    16  16  16  16  16  16
#     4  10  19  33  53  82 112 147 184 229 278 325
#     4   9  16  29  51  80 107 135 175 229 281 321
#     4  11  23  37  57  83 112 146 183 228 281 335
#     4  10  20  32  54  82 114 144 184 229 280 325
#     4  12  20  38  53  83 112 147 183 228 274 330
#     4   9  15  30  50  79 111 139 175 232 282 321
#
# _framework density 18.857250000000001
#
# number of rings (size 3 to 8) (size 9 to 14) (size 15 to 20)
#    0.000    1.833    3.333    3.500    0.000    2.000 
#    0.000    0.833    0.000    1.000    0.000    3.500 
#    0.000    0.000    0.000    0.000    0.000    0.000 
#
# Total GULP energy -594643.576251 kJ/mol
# GULP energy per Si atom -12388.407839 kJ/mol
# Density = 1.881433 g / cm^3
# Si number density = 18.857250 Si / 1000 Ang^3
#
#
#
# Elastic Constant Matrix: (Units=GPa)
#
#
# Indices 1 2 3 4 5 6 
#
# 1 29.2724 27.8797 18.9228 0.0000 0.0000 0.0000
# 2 27.8797 116.3774 41.1411 0.0000 0.0000 0.0000
# 3 18.9228 41.1411 117.5240 0.0000 0.0000 0.0000
# 4 0.0000 0.0000 0.0000 59.9620 0.0000 0.0000
# 5 0.0000 0.0000 0.0000 0.0000 23.6002 0.0000
# 6 0.0000 0.0000 0.0000 0.0000 0.0000 16.4997
#
#
#
# Elastic Compliance Matrix: (Units=1/GPa)
#
#
# Indices 1 2 3 4 5 6 
#
# 1 0.045882 -0.009563 -0.004040 0.000000 0.000000 0.000000
# 2 -0.009563 0.011800 -0.002591 0.000000 0.000000 0.000000
# 3 -0.004040 -0.002591 0.010066 0.000000 0.000000 0.000000
# 4 0.000000 0.000000 0.000000 0.016677 0.000000 0.000000
# 5 0.000000 0.000000 0.000000 0.000000 0.042373 0.000000
# 6 0.000000 0.000000 0.000000 0.000000 0.000000 0.060607
#
#
# Mechanical properties :
#
#
# Convention : Reuss Voigt Hill
#
# Bulk Modulus (GPa) = 28.28077 48.78457 38.53267
# Shear Modulus (GPa) = 21.59088 31.69437 26.64263
#
# Velocity S-wave (km/s) = 3.38740 4.10415 3.76288
# Velocity P-wave (km/s) = 5.50719 6.95595 6.27354
#
# Compressibility (1/GPa) = 0.03535971
#
# Stress axis : x y z
#
# Youngs Moduli (GPa) = 21.79520 84.74810 99.34137
#
# Poissons Ratio (x) = 0.81048 0.40131
# Poissons Ratio (y) = 0.20844 0.25738
# Poissons Ratio (z) = 0.08805 0.21957
#
# Static dielectric constant tensor:
#      x y z
#    x 2.835970 0.000000 0.000000 
#    y 0.000000 3.639270 0.000000 
#    z 0.000000 0.000000 4.033570 
# 
# 
# High freq. dielectric constant tensor:
#      x y z
#    x 1.648410 0.000000 0.000000 
#    y 0.000000 1.742220 0.000000 
#    z 0.000000 0.000000 1.768590 
# 
# From -- ./inp_files/48112.got.cif
#   From: 2010.03.12/outbox.cif.g09.slc.cpg/sg72_25_cif.got.tgz:48112.got - 2010.04.16 14:54:00.
