data_PCOD8293656
_publ_section_title
;
Structure prediction by ZEFSAII (Michael W. Deem and Ramdas Pophale) SiO2 
 PCOD8293656
Probable space group: I B A M
;
_chemical_formula_sum "Si O2"
_cell_formula_units_Z 112
_cell_length_a 25.435942
_cell_length_b 12.215052
_cell_length_c 18.220575
_cell_angle_alpha 90.000000
_cell_angle_beta 90.000000
_cell_angle_gamma 90.000000
_cell_volume 5661.157327
_symmetry_space_group_name_H-M "I B A M"
_symmetry_group_IT_number 72
_symmetry_cell_setting 'orthorhombic'
loop_
_space_group_symop_operation_xyz
x,y,z
-x,-y,z
x,-y,1/2-z
-x,y,1/2-z
-x,-y,-z
x,y,-z
-x,y,1/2+z
x,-y,1/2+z
1/2+x,1/2+y,1/2+z
1/2-x,1/2-y,1/2+z
1/2+x,1/2-y,-z
1/2-x,1/2+y,-z
1/2-x,1/2-y,1/2-z
1/2+x,1/2+y,1/2-z
1/2-x,1/2+y,z
1/2+x,1/2-y,z
loop_
_atom_site_type_symbol
_atom_site_label
_atom_site_fract_x
_atom_site_fract_y
_atom_site_fract_z
Si Si1 0.897998 0.088075 0.914763
Si Si2 0.598520 0.337485 0.913745
Si Si3 0.809282 0.738138 0.584107
Si Si4 0.308433 0.182283 0.416774
Si Si5 0.009034 0.196822 0.331006
Si Si6 0.452792 0.057898 0.171174
Si Si7 0.661690 0.026157 0.335672
O O1 0.847993 0.162556 0.892419
O O2 0.951108 0.117832 0.872593
O O3 0.885755 0.962313 0.895076
O O4 0.910559 0.103000 0.000000
O O5 0.647573 0.265106 0.884824
O O6 0.546243 0.296655 0.872991
O O7 0.588836 0.323178 0.000000
O O8 0.821783 0.701251 0.500000
O O9 0.749284 0.771045 0.590882
O O10 0.813283 0.641842 0.643359
O O11 0.323002 0.157124 0.500000
O O12 0.306949 0.068800 0.374773
O O13 0.000000 0.148289 0.250000
O O14 0.036863 0.313904 0.322982
O O15 0.397660 0.033378 0.132450
O O16 0.500000 0.000000 0.125245
O O17 0.450887 0.000000 0.250000
O O18 0.663852 0.000000 0.250000
#
# Coordination Sequence:
#
# PCOD8293656 Si02
#       7
#    16  16  16  16  16  16  16
#     4  10  22  41  62  88 123 163 204 253 311 365
#     4  10  23  41  61  89 125 161 202 256 312 362
#     4  10  22  41  67  92 120 162 212 259 305 365
#     4  10  23  41  66  93 122 162 210 260 305 363
#     4  12  22  37  63  90 120 159 208 248 301 372
#     4  10  19  35  56  85 119 165 196 235 298 361
#     4  11  23  39  63  92 128 164 201 252 312 370
#
# _framework density 19.783942
#
# number of rings (size 3 to 8) (size 9 to 14) (size 15 to 20)
#    0.000    1.571    2.857    2.143    4.000    2.857 
#    0.000    0.000    0.000    3.429    0.000    0.000 
#    0.000    0.000    0.000    0.000    0.000    0.000 
#
# Total GULP energy -694268.078939 kJ/mol
# GULP energy per Si atom -12397.644267 kJ/mol
# Density = 1.973891 g / cm^3
# Si number density = 19.783942 Si / 1000 Ang^3
#
#
#
# Elastic Constant Matrix: (Units=GPa)
#
#
# Indices 1 2 3 4 5 6 
#
# 1 106.2277 21.2173 37.0878 0.0000 0.0000 0.0000
# 2 21.2173 98.9960 35.1822 0.0000 0.0000 0.0000
# 3 37.0878 35.1822 53.8029 0.0000 0.0000 0.0000
# 4 0.0000 0.0000 0.0000 24.4060 0.0000 0.0000
# 5 0.0000 0.0000 0.0000 0.0000 10.8783 0.0000
# 6 0.0000 0.0000 0.0000 0.0000 0.0000 15.1362
#
#
#
# Elastic Compliance Matrix: (Units=1/GPa)
#
#
# Indices 1 2 3 4 5 6 
#
# 1 0.012416 0.000496 -0.008883 0.000000 0.000000 0.000000
# 2 0.000496 0.013179 -0.008960 0.000000 0.000000 0.000000
# 3 -0.008883 -0.008960 0.030569 0.000000 0.000000 0.000000
# 4 0.000000 0.000000 0.000000 0.040973 0.000000 0.000000
# 5 0.000000 0.000000 0.000000 0.000000 0.091926 0.000000
# 6 0.000000 0.000000 0.000000 0.000000 0.000000 0.066067
#
#
# Mechanical properties :
#
#
# Convention : Reuss Voigt Hill
#
# Bulk Modulus (GPa) = 46.57666 49.55567 48.06616
# Shear Modulus (GPa) = 16.83607 21.12005 18.97806
#
# Velocity S-wave (km/s) = 2.92035 3.27086 3.10056
# Velocity P-wave (km/s) = 5.91312 6.27435 6.09641
#
# Compressibility (1/GPa) = 0.02146998
#
# Stress axis : x y z
#
# Youngs Moduli (GPa) = 80.54083 75.87592 32.71329
#
# Poissons Ratio (x) = -0.03762 0.29059
# Poissons Ratio (y) = -0.03994 0.29311
# Poissons Ratio (z) = 0.71544 0.67984
#
# Static dielectric constant tensor:
#      x y z
#    x 4.353820 0.000000 0.000000 
#    y 0.000000 3.716120 0.000000 
#    z 0.000000 0.000000 3.557550 
# 
# 
# High freq. dielectric constant tensor:
#      x y z
#    x 1.787820 0.000000 0.000000 
#    y 0.000000 1.782610 0.000000 
#    z 0.000000 0.000000 1.751130 
# 
# From -- ./inp_files/40345.got.cif
#   From: 2010.03.12/outbox.cif.g09.slc.cpg/sg72_21_cif.got.tgz:40345.got - 2010.04.16 14:54:00.
