data_PCOD8293315
_publ_section_title
;
Structure prediction by ZEFSAII (Michael W. Deem and Ramdas Pophale) SiO2 
 PCOD8293315
Probable space group: I B A M
;
_chemical_formula_sum "Si O2"
_cell_formula_units_Z 80
_cell_length_a 26.707500
_cell_length_b 18.559565
_cell_length_c 8.774565
_cell_angle_alpha 90.000000
_cell_angle_beta 90.000000
_cell_angle_gamma 90.000000
_cell_volume 4349.372714
_symmetry_space_group_name_H-M "I B A M"
_symmetry_group_IT_number 72
_symmetry_cell_setting 'orthorhombic'
loop_
_space_group_symop_operation_xyz
x,y,z
-x,-y,z
x,-y,1/2-z
-x,y,1/2-z
-x,-y,-z
x,y,-z
-x,y,1/2+z
x,-y,1/2+z
1/2+x,1/2+y,1/2+z
1/2-x,1/2-y,1/2+z
1/2+x,1/2-y,-z
1/2-x,1/2+y,-z
1/2-x,1/2-y,1/2-z
1/2+x,1/2+y,1/2-z
1/2-x,1/2+y,z
1/2+x,1/2-y,z
loop_
_atom_site_type_symbol
_atom_site_label
_atom_site_fract_x
_atom_site_fract_y
_atom_site_fract_z
Si Si1 0.053330 0.926800 0.321372
Si Si2 0.845098 0.423567 0.318462
Si Si3 0.109007 0.216799 0.823790
Si Si4 0.201595 0.713717 0.820491
Si Si5 0.551875 0.856575 0.675277
O O1 0.046054 0.936969 0.500000
O O2 0.091424 0.863075 0.282634
O O3 0.000000 0.908016 0.250000
O O4 0.075659 0.000000 0.250000
O O5 0.829392 0.500000 0.250000
O O6 0.841302 0.424329 0.500000
O O7 0.806532 0.364462 0.254855
O O8 0.901440 0.403822 0.262971
O O9 0.155141 0.234072 0.714838
O O10 0.063598 0.272470 0.792722
O O11 0.126109 0.224013 0.000000
O O12 0.250000 0.750000 0.750000
O O13 0.208102 0.704348 0.000000
O O14 0.500000 0.880411 0.750000
O O15 0.544642 0.872717 0.500000
#
# Coordination Sequence:
#
# PCOD8293315 Si02
#       5
#    16  16  16  16  16
#     4  10  19  31  49  73 106 143 179 219 264 315
#     4  10  21  38  57  81 112 144 179 219 263 313
#     4   9  19  35  52  74 104 138 177 223 268 316
#     4  11  22  38  61  84 106 136 174 220 270 322
#     4   9  18  31  49  74 106 141 178 217 257 306
#
# _framework density 18.393457999999999
#
# number of rings (size 3 to 8) (size 9 to 14) (size 15 to 20)
#    0.000    2.200    0.000    5.400    0.000    6.000 
#    0.000    3.000    0.000    2.400    0.000    0.000 
#    0.000    0.000    0.000    0.000    0.000    0.000 
#
# Total GULP energy -496024.050610 kJ/mol
# GULP energy per Si atom -12400.601265 kJ/mol
# Density = 1.835159 g / cm^3
# Si number density = 18.393458 Si / 1000 Ang^3
#
#
#
# Elastic Constant Matrix: (Units=GPa)
#
#
# Indices 1 2 3 4 5 6 
#
# 1 92.8383 56.8095 43.9579 0.0000 0.0000 0.0000
# 2 56.8095 149.1544 58.6932 0.0000 0.0000 0.0000
# 3 43.9579 58.6932 100.8604 0.0000 0.0000 0.0000
# 4 0.0000 0.0000 0.0000 31.8819 0.0000 0.0000
# 5 0.0000 0.0000 0.0000 0.0000 33.3936 0.0000
# 6 0.0000 0.0000 0.0000 0.0000 0.0000 19.0533
#
#
#
# Elastic Compliance Matrix: (Units=1/GPa)
#
#
# Indices 1 2 3 4 5 6 
#
# 1 0.015338 -0.004165 -0.004261 0.000000 0.000000 0.000000
# 2 -0.004165 0.009827 -0.003903 0.000000 0.000000 0.000000
# 3 -0.004261 -0.003903 0.014043 0.000000 0.000000 0.000000
# 4 0.000000 0.000000 0.000000 0.031366 0.000000 0.000000
# 5 0.000000 0.000000 0.000000 0.000000 0.029946 0.000000
# 6 0.000000 0.000000 0.000000 0.000000 0.000000 0.052484
#
#
# Mechanical properties :
#
#
# Convention : Reuss Voigt Hill
#
# Bulk Modulus (GPa) = 68.73205 73.53048 71.13126
# Shear Modulus (GPa) = 27.39562 29.09195 28.24379
#
# Velocity S-wave (km/s) = 3.86349 3.98131 3.92284
# Velocity P-wave (km/s) = 7.57303 7.82289 7.69898
#
# Compressibility (1/GPa) = 0.01454925
#
# Stress axis : x y z
#
# Youngs Moduli (GPa) = 65.19960 101.76286 71.20974
#
# Poissons Ratio (x) = 0.42385 0.30341
# Poissons Ratio (y) = 0.27156 0.27795
# Poissons Ratio (z) = 0.27780 0.39720
#
# Static dielectric constant tensor:
#      x y z
#    x 3.284620 0.000000 0.000000 
#    y 0.000000 3.471880 0.000000 
#    z 0.000000 0.000000 3.408940 
# 
# 
# High freq. dielectric constant tensor:
#      x y z
#    x 1.696050 0.000000 0.000000 
#    y 0.000000 1.719290 0.000000 
#    z 0.000000 0.000000 1.720290 
# 
# From -- ./inp_files/5037.got.cif
#   From: 2010.03.12/outbox.cif.g09.slc.cpg/sg72_3_cif.got.tgz:5037.got - 2010.04.16 14:54:00.
