data_PCOD8293323
_publ_section_title
;
Structure prediction by ZEFSAII (Michael W. Deem and Ramdas Pophale) SiO2 
 PCOD8293323
Probable space group: I B A M
;
_chemical_formula_sum "Si O2"
_cell_formula_units_Z 96
_cell_length_a 30.572630
_cell_length_b 19.466586
_cell_length_c 8.959162
_cell_angle_alpha 90.000000
_cell_angle_beta 90.000000
_cell_angle_gamma 90.000000
_cell_volume 5331.998060
_symmetry_space_group_name_H-M "I B A M"
_symmetry_group_IT_number 72
_symmetry_cell_setting 'orthorhombic'
loop_
_space_group_symop_operation_xyz
x,y,z
-x,-y,z
x,-y,1/2-z
-x,y,1/2-z
-x,-y,-z
x,y,-z
-x,y,1/2+z
x,-y,1/2+z
1/2+x,1/2+y,1/2+z
1/2-x,1/2-y,1/2+z
1/2+x,1/2-y,-z
1/2-x,1/2+y,-z
1/2-x,1/2-y,1/2-z
1/2+x,1/2+y,1/2-z
1/2-x,1/2+y,z
1/2+x,1/2-y,z
loop_
_atom_site_type_symbol
_atom_site_label
_atom_site_fract_x
_atom_site_fract_y
_atom_site_fract_z
Si Si1 0.165224 0.568036 0.174177
Si Si2 0.242399 0.931786 0.825456
Si Si3 0.453323 0.284314 0.326448
Si Si4 0.046881 0.936041 0.673469
Si Si5 0.376519 0.210993 0.173048
Si Si6 0.209468 0.786020 0.173360
O O1 0.144629 0.500000 0.250000
O O2 0.211251 0.585653 0.250838
O O3 0.132170 0.630590 0.199874
O O4 0.173565 0.554802 0.000000
O O5 0.210031 0.867866 0.797336
O O6 0.221748 0.000000 0.750000
O O7 0.249643 0.945185 0.000000
O O8 0.500000 0.274942 0.250000
O O9 0.460501 0.270712 0.500000
O O10 0.432500 0.360634 0.298768
O O11 0.419938 0.228796 0.262925
O O12 0.042139 0.952071 0.500000
O O13 0.000000 0.933839 0.750000
O O14 0.073612 0.000000 0.750000
O O15 0.335872 0.255619 0.236221
O O16 0.384265 0.227882 0.000000
O O17 0.250000 0.750000 0.250000
O O18 0.213413 0.767926 0.000000
#
# Coordination Sequence:
#
# PCOD8293323 Si02
#       6
#    16  16  16  16  16  16
#     4  10  19  32  52  77 106 138 174 217 262 311
#     4  10  19  31  50  74 104 143 181 218 262 310
#     4  10  21  36  55  79 106 138 178 222 269 319
#     4   9  16  27  46  72  98 127 165 208 254 303
#     4  10  21  36  54  78 108 141 176 218 268 317
#     4  10  20  34  52  76 106 140 175 216 263 311
#
# _framework density 18.004508000000001
#
# number of rings (size 3 to 8) (size 9 to 14) (size 15 to 20)
#    0.000    2.167    1.667    3.500    0.000    4.667 
#    0.000    0.833    0.000    4.500    0.000    3.500 
#    0.000    0.000    0.000    0.000    0.000    0.000 
#
# Total GULP energy -595003.879539 kJ/mol
# GULP energy per Si atom -12395.914157 kJ/mol
# Density = 1.796353 g / cm^3
# Si number density = 18.004508 Si / 1000 Ang^3
#
#
#
# Elastic Constant Matrix: (Units=GPa)
#
#
# Indices 1 2 3 4 5 6 
#
# 1 81.7174 53.8581 41.8948 0.0000 0.0000 0.0000
# 2 53.8581 126.9580 60.4285 0.0000 0.0000 0.0000
# 3 41.8948 60.4285 108.4273 0.0000 0.0000 0.0000
# 4 0.0000 0.0000 0.0000 31.6495 0.0000 0.0000
# 5 0.0000 0.0000 0.0000 0.0000 23.8900 0.0000
# 6 0.0000 0.0000 0.0000 0.0000 0.0000 24.9024
#
#
#
# Elastic Compliance Matrix: (Units=1/GPa)
#
#
# Indices 1 2 3 4 5 6 
#
# 1 0.018001 -0.005888 -0.003674 0.000000 0.000000 0.000000
# 2 -0.005888 0.012646 -0.004773 0.000000 0.000000 0.000000
# 3 -0.003674 -0.004773 0.013302 0.000000 0.000000 0.000000
# 4 0.000000 0.000000 0.000000 0.031596 0.000000 0.000000
# 5 0.000000 0.000000 0.000000 0.000000 0.041859 0.000000
# 6 0.000000 0.000000 0.000000 0.000000 0.000000 0.040157
#
#
# Mechanical properties :
#
#
# Convention : Reuss Voigt Hill
#
# Bulk Modulus (GPa) = 65.44383 69.94061 67.69222
# Shear Modulus (GPa) = 26.13359 26.81646 26.47503
#
# Velocity S-wave (km/s) = 3.81399 3.86350 3.83883
# Velocity P-wave (km/s) = 7.47147 7.67025 7.57151
#
# Compressibility (1/GPa) = 0.01528028
#
# Stress axis : x y z
#
# Youngs Moduli (GPa) = 55.55105 79.07559 75.17404
#
# Poissons Ratio (x) = 0.46558 0.27620
# Poissons Ratio (y) = 0.32707 0.35880
# Poissons Ratio (z) = 0.20410 0.37742
#
# Static dielectric constant tensor:
#      x y z
#    x 2.918890 0.000000 0.000000 
#    y 0.000000 3.918620 0.000000 
#    z 0.000000 0.000000 3.857210 
# 
# 
# High freq. dielectric constant tensor:
#      x y z
#    x 1.650640 0.000000 0.000000 
#    y 0.000000 1.712880 0.000000 
#    z 0.000000 0.000000 1.709250 
# 
# From -- ./inp_files/8072.got.cif
#   From: 2010.03.12/outbox.cif.g09.slc.cpg/sg72_5_cif.got.tgz:8072.got - 2010.04.16 14:54:00.
