data_PCOD8293820
_publ_section_title
;
Structure prediction by ZEFSAII (Michael W. Deem and Ramdas Pophale) SiO2 
 PCOD8293820
Probable space group: I B A M
;
_chemical_formula_sum "Si O2"
_cell_formula_units_Z 96
_cell_length_a 9.692383
_cell_length_b 21.300562
_cell_length_c 23.939266
_cell_angle_alpha 90.000000
_cell_angle_beta 90.000000
_cell_angle_gamma 90.000000
_cell_volume 4942.338192
_symmetry_space_group_name_H-M "I B A M"
_symmetry_group_IT_number 72
_symmetry_cell_setting 'orthorhombic'
loop_
_space_group_symop_operation_xyz
x,y,z
-x,-y,z
x,-y,1/2-z
-x,y,1/2-z
-x,-y,-z
x,y,-z
-x,y,1/2+z
x,-y,1/2+z
1/2+x,1/2+y,1/2+z
1/2-x,1/2-y,1/2+z
1/2+x,1/2-y,-z
1/2-x,1/2+y,-z
1/2-x,1/2-y,1/2-z
1/2+x,1/2+y,1/2-z
1/2-x,1/2+y,z
1/2+x,1/2-y,z
loop_
_atom_site_type_symbol
_atom_site_label
_atom_site_fract_x
_atom_site_fract_y
_atom_site_fract_z
Si Si1 0.529160 0.148805 0.098073
Si Si2 0.469846 0.285152 0.564005
Si Si3 0.265159 0.397180 0.564485
Si Si4 0.150602 0.010573 0.354782
Si Si5 0.924200 0.556757 0.190618
Si Si6 0.316976 0.616650 0.561175
O O1 0.540504 0.223929 0.102718
O O2 0.391330 0.125450 0.069057
O O3 0.549525 0.122818 0.160816
O O4 0.652448 0.119879 0.061714
O O5 0.451238 0.263061 0.500000
O O6 0.357037 0.337039 0.580368
O O7 0.620713 0.314743 0.574908
O O8 0.292354 0.418895 0.500000
O O9 0.293854 0.451384 0.609740
O O10 0.261751 0.035893 0.308664
O O11 0.119858 0.066074 0.397748
O O12 0.000000 0.000000 0.325931
O O13 0.000000 0.500000 0.157085
O O14 0.000000 0.561991 0.250000
O O15 0.368217 0.596215 0.500000
#
# Coordination Sequence:
#
# PCOD8293820 Si02
#       6
#    16  16  16  16  16  16
#     4  11  21  35  57  83 113 159 205 245 288 349
#     4  10  20  34  53  82 126 170 198 227 278 351
#     4  11  21  33  55  89 126 163 196 232 280 347
#     4  11  21  37  60  90 118 153 196 241 298 354
#     4  10  22  43  65  86 107 141 198 259 319 349
#     4  10  20  32  52  84 125 166 199 234 278 344
#
# _framework density 19.424004
#
# number of rings (size 3 to 8) (size 9 to 14) (size 15 to 20)
#    0.000    1.500    3.333    3.000    0.000    3.333 
#    0.000    4.167    0.000    9.000    0.000    0.000 
#    0.000    0.000    0.000    0.000    0.000    0.000 
#
# Total GULP energy -594822.417509 kJ/mol
# GULP energy per Si atom -12392.133698 kJ/mol
# Density = 1.937979 g / cm^3
# Si number density = 19.424004 Si / 1000 Ang^3
#
#
#
# Elastic Constant Matrix: (Units=GPa)
#
#
# Indices 1 2 3 4 5 6 
#
# 1 131.1888 25.5876 46.7258 0.0000 0.0000 0.0000
# 2 25.5876 113.3417 56.5397 0.0000 0.0000 0.0000
# 3 46.7258 56.5397 77.9164 0.0000 0.0000 0.0000
# 4 0.0000 0.0000 0.0000 22.3828 0.0000 0.0000
# 5 0.0000 0.0000 0.0000 0.0000 18.6001 0.0000
# 6 0.0000 0.0000 0.0000 0.0000 0.0000 29.4791
#
#
#
# Elastic Compliance Matrix: (Units=1/GPa)
#
#
# Indices 1 2 3 4 5 6 
#
# 1 0.009784 0.001125 -0.006684 0.000000 0.000000 0.000000
# 2 0.001125 0.013958 -0.010804 0.000000 0.000000 0.000000
# 3 -0.006684 -0.010804 0.024682 0.000000 0.000000 0.000000
# 4 0.000000 0.000000 0.000000 0.044677 0.000000 0.000000
# 5 0.000000 0.000000 0.000000 0.000000 0.053763 0.000000
# 6 0.000000 0.000000 0.000000 0.000000 0.000000 0.033922
#
#
# Mechanical properties :
#
#
# Convention : Reuss Voigt Hill
#
# Bulk Modulus (GPa) = 63.69459 64.46147 64.07803
# Shear Modulus (GPa) = 22.85781 26.99867 24.92824
#
# Velocity S-wave (km/s) = 3.43415 3.73227 3.58631
# Velocity P-wave (km/s) = 6.97046 7.19942 7.08587
#
# Compressibility (1/GPa) = 0.01569992
#
# Stress axis : x y z
#
# Youngs Moduli (GPa) = 102.21078 71.64312 40.51515
#
# Poissons Ratio (x) = -0.08063 0.27080
# Poissons Ratio (y) = -0.11504 0.43771
# Poissons Ratio (z) = 0.68317 0.77400
#
# Static dielectric constant tensor:
#      x y z
#    x 3.882900 0.000000 0.000000 
#    y 0.000000 3.776820 0.000000 
#    z 0.000000 0.000000 3.112780 
# 
# 
# High freq. dielectric constant tensor:
#      x y z
#    x 1.783600 0.000000 0.000000 
#    y 0.000000 1.761000 0.000000 
#    z 0.000000 0.000000 1.710070 
# 
# From -- ./inp_files/47480.got.cif
#   From: 2010.03.12/outbox.cif.g09.slc.cpg/sg72_24_cif.got.tgz:47480.got - 2010.04.16 14:54:00.
