data_PCOD8293881
_publ_section_title
;
Structure prediction by ZEFSAII (Michael W. Deem and Ramdas Pophale) SiO2 
 PCOD8293881
Probable space group: I B A M
;
_chemical_formula_sum "Si O2"
_cell_formula_units_Z 88
_cell_length_a 12.640596
_cell_length_b 17.124054
_cell_length_c 21.679649
_cell_angle_alpha 90.000000
_cell_angle_beta 90.000000
_cell_angle_gamma 90.000000
_cell_volume 4692.738851
_symmetry_space_group_name_H-M "I B A M"
_symmetry_group_IT_number 72
_symmetry_cell_setting 'orthorhombic'
loop_
_space_group_symop_operation_xyz
x,y,z
-x,-y,z
x,-y,1/2-z
-x,y,1/2-z
-x,-y,-z
x,y,-z
-x,y,1/2+z
x,-y,1/2+z
1/2+x,1/2+y,1/2+z
1/2-x,1/2-y,1/2+z
1/2+x,1/2-y,-z
1/2-x,1/2+y,-z
1/2-x,1/2-y,1/2-z
1/2+x,1/2+y,1/2-z
1/2-x,1/2+y,z
1/2+x,1/2-y,z
loop_
_atom_site_type_symbol
_atom_site_label
_atom_site_fract_x
_atom_site_fract_y
_atom_site_fract_z
Si Si1 0.572730 0.831188 0.929902
Si Si2 0.500000 0.225282 0.250000
Si Si3 0.380638 0.853653 0.144773
Si Si4 0.145575 0.199191 0.349487
Si Si5 0.330020 0.999757 0.429647
Si Si6 0.098232 0.947635 0.070243
O O1 0.450320 0.815889 0.910529
O O2 0.647874 0.774410 0.892413
O O3 0.615209 0.917796 0.915735
O O4 0.585449 0.808448 0.000000
O O5 0.555325 0.162001 0.206574
O O6 0.417920 0.282371 0.213893
O O7 0.268766 0.815791 0.159894
O O8 0.372272 0.943523 0.123968
O O9 0.094400 0.125438 0.383839
O O10 0.360529 0.027135 0.500000
O O11 0.202920 0.998696 0.423481
O O12 0.087524 0.916756 0.000000
O O13 0.000000 0.000000 0.089785
#
# Coordination Sequence:
#
# PCOD8293881 Si02
#       6
#    16   8  16  16  16  16
#     4  10  20  33  54  85 114 140 173 216 270 332
#     4  10  22  38  56  76 104 142 188 234 267 308
#     4  10  20  36  55  74 103 143 180 222 271 316
#     4  10  21  37  56  78 108 144 181 222 270 318
#     4   9  18  33  54  81 111 140 173 216 270 330
#     4   9  18  34  57  84 112 140 172 216 270 328
#
# _framework density 18.752375000000001
#
# number of rings (size 3 to 8) (size 9 to 14) (size 15 to 20)
#    0.000    2.364    0.000    2.182    0.000    6.545 
#    0.000    9.545    0.000   10.909    0.000    0.000 
#    0.000    0.000    0.000    0.000    0.000    0.000 
#
# Total GULP energy -545141.985290 kJ/mol
# GULP energy per Si atom -12389.590575 kJ/mol
# Density = 1.870969 g / cm^3
# Si number density = 18.752375 Si / 1000 Ang^3
#
#
#
# Elastic Constant Matrix: (Units=GPa)
#
#
# Indices 1 2 3 4 5 6 
#
# 1 113.1483 54.5577 56.3359 0.0000 0.0000 0.0000
# 2 54.5577 79.0827 56.1264 0.0000 0.0000 0.0000
# 3 56.3359 56.1264 102.6243 0.0000 0.0000 0.0000
# 4 0.0000 0.0000 0.0000 27.0383 0.0000 0.0000
# 5 0.0000 0.0000 0.0000 0.0000 20.3156 0.0000
# 6 0.0000 0.0000 0.0000 0.0000 0.0000 22.1246
#
#
#
# Elastic Compliance Matrix: (Units=1/GPa)
#
#
# Indices 1 2 3 4 5 6 
#
# 1 0.014171 -0.006955 -0.003975 0.000000 0.000000 0.000000
# 2 -0.006955 0.024080 -0.009352 0.000000 0.000000 0.000000
# 3 -0.003975 -0.009352 0.017041 0.000000 0.000000 0.000000
# 4 0.000000 0.000000 0.000000 0.036985 0.000000 0.000000
# 5 0.000000 0.000000 0.000000 0.000000 0.049223 0.000000
# 6 0.000000 0.000000 0.000000 0.000000 0.000000 0.045199
#
#
# Mechanical properties :
#
#
# Convention : Reuss Voigt Hill
#
# Bulk Modulus (GPa) = 67.89770 69.87727 68.88748
# Shear Modulus (GPa) = 21.53575 22.41803 21.97689
#
# Velocity S-wave (km/s) = 3.39252 3.46132 3.42709
# Velocity P-wave (km/s) = 7.18552 7.30194 7.24397
#
# Compressibility (1/GPa) = 0.01472804
#
# Stress axis : x y z
#
# Youngs Moduli (GPa) = 70.56805 41.52807 58.68101
#
# Poissons Ratio (x) = 0.28881 0.23328
# Poissons Ratio (y) = 0.49078 0.54878
# Poissons Ratio (z) = 0.28054 0.38837
#
# Static dielectric constant tensor:
#      x y z
#    x 3.667550 0.000000 0.000000 
#    y 0.000000 3.405590 0.000000 
#    z 0.000000 0.000000 3.496470 
# 
# 
# High freq. dielectric constant tensor:
#      x y z
#    x 1.744870 0.000000 0.000000 
#    y 0.000000 1.717820 0.000000 
#    z 0.000000 0.000000 1.724890 
# 
# From -- ./inp_files/36867.got.cif
#   From: 2010.03.12/outbox.cif.g09.slc.cpg/sg72_19_cif.got.tgz:36867.got - 2010.04.16 14:54:00.
