data_PCOD8293934
_publ_section_title
;
Structure prediction by ZEFSAII (Michael W. Deem and Ramdas Pophale) SiO2 
 PCOD8293934
Probable space group: I B A M
;
_chemical_formula_sum "Si O2"
_cell_formula_units_Z 96
_cell_length_a 19.722173
_cell_length_b 9.096326
_cell_length_c 26.908236
_cell_angle_alpha 90.000000
_cell_angle_beta 90.000000
_cell_angle_gamma 90.000000
_cell_volume 4827.319107
_symmetry_space_group_name_H-M "I B A M"
_symmetry_group_IT_number 72
_symmetry_cell_setting 'orthorhombic'
loop_
_space_group_symop_operation_xyz
x,y,z
-x,-y,z
x,-y,1/2-z
-x,y,1/2-z
-x,-y,-z
x,y,-z
-x,y,1/2+z
x,-y,1/2+z
1/2+x,1/2+y,1/2+z
1/2-x,1/2-y,1/2+z
1/2+x,1/2-y,-z
1/2-x,1/2+y,-z
1/2-x,1/2-y,1/2-z
1/2+x,1/2+y,1/2-z
1/2-x,1/2+y,z
1/2+x,1/2-y,z
loop_
_atom_site_type_symbol
_atom_site_label
_atom_site_fract_x
_atom_site_fract_y
_atom_site_fract_z
Si Si1 0.170195 0.844030 0.558119
Si Si2 0.747293 0.911264 0.390649
Si Si3 0.479284 0.833131 0.302876
Si Si4 0.446869 0.125567 0.056319
Si Si5 0.470847 0.652997 0.107969
Si Si6 0.156966 0.342897 0.641837
O O1 0.153434 0.837401 0.500000
O O2 0.199780 0.689212 0.575513
O O3 0.104455 0.871727 0.590613
O O4 0.218416 0.980498 0.569686
O O5 0.800228 0.808668 0.360550
O O6 0.705691 0.013798 0.350908
O O7 0.500000 0.760222 0.250000
O O8 0.525055 0.759758 0.344963
O O9 0.398332 0.821855 0.314306
O O10 0.500000 0.000000 0.301758
O O11 0.484570 0.281580 0.062705
O O12 0.380043 0.123282 0.089647
O O13 0.500000 0.000000 0.072934
O O14 0.422940 0.103450 0.000000
O O15 0.500000 0.500000 0.126294
#
# Coordination Sequence:
#
# PCOD8293934 Si02
#       6
#    16  16  16  16  16  16
#     4  11  21  34  52  77 112 154 196 227 265 324
#     4  10  22  35  53  78 115 155 186 222 267 323
#     4  10  21  40  67  87 105 138 185 236 287 343
#     4  10  20  34  54  80 114 156 200 243 280 321
#     4  11  22  35  55  84 115 144 180 241 301 334
#     4  10  20  37  57  83 113 147 187 227 274 333
#
# _framework density 19.886814000000001
#
# number of rings (size 3 to 8) (size 9 to 14) (size 15 to 20)
#    0.000    1.667    0.000    7.000    0.000    8.333 
#    0.000    0.000    0.000   18.000    0.000    0.000 
#    0.000    0.000    0.000    0.000    0.000    0.000 
#
# Total GULP energy -595103.376127 kJ/mol
# GULP energy per Si atom -12397.987003 kJ/mol
# Density = 1.984155 g / cm^3
# Si number density = 19.886814 Si / 1000 Ang^3
#
#
#
# Elastic Constant Matrix: (Units=GPa)
#
#
# Indices 1 2 3 4 5 6 
#
# 1 103.5735 24.5089 51.9462 0.0000 0.0000 0.0000
# 2 24.5089 93.1396 26.0164 0.0000 0.0000 0.0000
# 3 51.9462 26.0164 109.1426 0.0000 0.0000 0.0000
# 4 0.0000 0.0000 0.0000 13.7739 0.0000 0.0000
# 5 0.0000 0.0000 0.0000 0.0000 -199.7184 0.0000
# 6 0.0000 0.0000 0.0000 0.0000 0.0000 25.8587
#
#
#
# Elastic Compliance Matrix: (Units=1/GPa)
#
#
# Indices 1 2 3 4 5 6 
#
# 1 0.012960 -0.001808 -0.005738 0.000000 0.000000 0.000000
# 2 -0.001808 0.011755 -0.001942 0.000000 0.000000 0.000000
# 3 -0.005738 -0.001942 0.012356 0.000000 0.000000 0.000000
# 4 0.000000 0.000000 0.000000 0.072601 0.000000 0.000000
# 5 0.000000 0.000000 0.000000 0.000000 -0.005007 0.000000
# 6 0.000000 0.000000 0.000000 0.000000 0.000000 0.038672
#
#
# Mechanical properties :
#
#
# Convention : Reuss Voigt Hill
#
# Bulk Modulus (GPa) = 55.25731 56.75542 56.00637
# Shear Modulus (GPa) = 29.70130 -18.45821 5.62154
#
# Velocity S-wave (km/s) = 3.86880 -3.04988 1.68312
# Velocity P-wave (km/s) = 6.91397 4.02477 5.65693
#
# Compressibility (1/GPa) = 0.01809715
#
# Stress axis : x y z
#
# Youngs Moduli (GPa) = 77.15839 85.07315 80.93295
#
# Poissons Ratio (x) = 0.15379 0.46436
# Poissons Ratio (y) = 0.13948 0.15714
# Poissons Ratio (z) = 0.44270 0.16517
#
# Static dielectric constant tensor:
#      x y z
#    x 3.698600 0.000000 0.000000 
#    y 0.000000 3.812000 0.000000 
#    z 0.000000 0.000000 3.516170 
# 
# 
# High freq. dielectric constant tensor:
#      x y z
#    x 1.786070 0.000000 0.000000 
#    y 0.000000 1.792840 0.000000 
#    z 0.000000 0.000000 1.743650 
# 
# From -- ./inp_files/49373.got.cif
#   From: 2010.03.12/outbox.cif.g09.slc.cpg/sg72_25_cif.got.tgz:49373.got - 2010.04.16 14:54:00.
