data_PCOD8293353
_publ_section_title
;
Structure prediction by ZEFSAII (Michael W. Deem and Ramdas Pophale) SiO2 
 PCOD8293353
Probable space group: I B A M
;
_chemical_formula_sum "Si O2"
_cell_formula_units_Z 64
_cell_length_a 15.618959
_cell_length_b 8.265641
_cell_length_c 22.966519
_cell_angle_alpha 90.000000
_cell_angle_beta 90.000000
_cell_angle_gamma 90.000000
_cell_volume 2964.993861
_symmetry_space_group_name_H-M "I B A M"
_symmetry_group_IT_number 72
_symmetry_cell_setting 'orthorhombic'
loop_
_space_group_symop_operation_xyz
x,y,z
-x,-y,z
x,-y,1/2-z
-x,y,1/2-z
-x,-y,-z
x,y,-z
-x,y,1/2+z
x,-y,1/2+z
1/2+x,1/2+y,1/2+z
1/2-x,1/2-y,1/2+z
1/2+x,1/2-y,-z
1/2-x,1/2+y,-z
1/2-x,1/2-y,1/2-z
1/2+x,1/2+y,1/2-z
1/2-x,1/2+y,z
1/2+x,1/2-y,z
loop_
_atom_site_type_symbol
_atom_site_label
_atom_site_fract_x
_atom_site_fract_y
_atom_site_fract_z
Si Si1 0.721525 0.154623 0.935308
Si Si2 0.621181 0.836188 0.064221
Si Si3 0.789112 0.000000 0.250000
Si Si4 0.000000 0.500000 0.652170
Si Si5 0.847654 0.702954 0.817053
O O1 0.824467 0.172407 0.923689
O O2 0.665364 0.243740 0.885390
O O3 0.697844 0.966678 0.932270
O O4 0.698861 0.224114 0.000000
O O5 0.549019 0.869098 0.111907
O O6 0.577758 0.834676 0.000000
O O7 0.850564 0.868547 0.219360
O O8 0.730615 0.911404 0.297585
O O9 0.064316 0.602957 0.692454
#
# Coordination Sequence:
#
# PCOD8293353 Si02
#       5
#    16  16   8   8  16
#     4   9  17  31  55  83 110 143 186 229 279 344
#     4   9  17  30  52  82 114 149 185 228 283 345
#     4  10  22  39  62  81 112 160 208 236 272 350
#     4  10  19  31  56  86 118 144 183 241 298 340
#     4  10  20  37  60  86 113 153 197 243 289 339
#
# _framework density 21.585204000000001
#
# number of rings (size 3 to 8) (size 9 to 14) (size 15 to 20)
#    0.000    2.500    0.000    3.375    0.000    1.500 
#    0.000    0.000    0.000   54.000    0.000   47.250 
#    0.000    0.000    0.000    1.125    0.000    0.000 
#
# Total GULP energy -396562.346443 kJ/mol
# GULP energy per Si atom -12392.573326 kJ/mol
# Density = 2.153607 g / cm^3
# Si number density = 21.585204 Si / 1000 Ang^3
#
#
#
# Elastic Constant Matrix: (Units=GPa)
#
#
# Indices 1 2 3 4 5 6 
#
# 1 93.3745 41.9922 39.6965 0.0000 0.0000 0.0000
# 2 41.9922 76.8450 44.7933 0.0000 0.0000 0.0000
# 3 39.6965 44.7933 100.1746 0.0000 0.0000 0.0000
# 4 0.0000 0.0000 0.0000 27.7600 0.0000 0.0000
# 5 0.0000 0.0000 0.0000 0.0000 24.6276 0.0000
# 6 0.0000 0.0000 0.0000 0.0000 0.0000 42.3694
#
#
#
# Elastic Compliance Matrix: (Units=1/GPa)
#
#
# Indices 1 2 3 4 5 6 
#
# 1 0.014859 -0.006340 -0.003053 0.000000 0.000000 0.000000
# 2 -0.006340 0.020306 -0.006568 0.000000 0.000000 0.000000
# 3 -0.003053 -0.006568 0.014129 0.000000 0.000000 0.000000
# 4 0.000000 0.000000 0.000000 0.036023 0.000000 0.000000
# 5 0.000000 0.000000 0.000000 0.000000 0.040605 0.000000
# 6 0.000000 0.000000 0.000000 0.000000 0.000000 0.023602
#
#
# Mechanical properties :
#
#
# Convention : Reuss Voigt Hill
#
# Bulk Modulus (GPa) = 57.56200 58.15091 57.85645
# Shear Modulus (GPa) = 26.70433 28.54555 27.62494
#
# Velocity S-wave (km/s) = 3.52114 3.64051 3.58132
# Velocity P-wave (km/s) = 6.57697 6.68354 6.63047
#
# Compressibility (1/GPa) = 0.01737257
#
# Stress axis : x y z
#
# Youngs Moduli (GPa) = 67.30049 49.24684 70.77562
#
# Poissons Ratio (x) = 0.31222 0.21609
# Poissons Ratio (y) = 0.42668 0.46482
# Poissons Ratio (z) = 0.20548 0.32343
#
# Static dielectric constant tensor:
#      x y z
#    x 3.669900 0.000000 0.000000 
#    y 0.000000 3.779550 0.000000 
#    z 0.000000 0.000000 4.134120 
# 
# 
# High freq. dielectric constant tensor:
#      x y z
#    x 1.817170 0.000000 0.000000 
#    y 0.000000 1.825120 0.000000 
#    z 0.000000 0.000000 1.864410 
# 
# From -- ./inp_files/43950.got.cif
#   From: 2010.03.12/outbox.cif.g09.slc.cpg/sg72_22_cif.got.tgz:43950.got - 2010.04.16 14:54:00.
