data_PCOD8293692
_publ_section_title
;
Structure prediction by ZEFSAII (Michael W. Deem and Ramdas Pophale) SiO2 
 PCOD8293692
Probable space group: I B A M
;
_chemical_formula_sum "Si O2"
_cell_formula_units_Z 112
_cell_length_a 15.622950
_cell_length_b 23.718363
_cell_length_c 13.710352
_cell_angle_alpha 90.000000
_cell_angle_beta 90.000000
_cell_angle_gamma 90.000000
_cell_volume 5080.381891
_symmetry_space_group_name_H-M "I B A M"
_symmetry_group_IT_number 72
_symmetry_cell_setting 'orthorhombic'
loop_
_space_group_symop_operation_xyz
x,y,z
-x,-y,z
x,-y,1/2-z
-x,y,1/2-z
-x,-y,-z
x,y,-z
-x,y,1/2+z
x,-y,1/2+z
1/2+x,1/2+y,1/2+z
1/2-x,1/2-y,1/2+z
1/2+x,1/2-y,-z
1/2-x,1/2+y,-z
1/2-x,1/2-y,1/2-z
1/2+x,1/2+y,1/2-z
1/2-x,1/2+y,z
1/2+x,1/2-y,z
loop_
_atom_site_type_symbol
_atom_site_label
_atom_site_fract_x
_atom_site_fract_y
_atom_site_fract_z
Si Si1 0.293184 0.435577 0.274293
Si Si2 0.368696 0.366193 0.887711
Si Si3 0.806556 0.744083 0.612680
Si Si4 0.386844 0.260783 0.612665
Si Si5 0.866679 0.369334 0.197612
Si Si6 0.043543 0.643390 0.388799
Si Si7 0.438576 0.619532 0.884999
O O1 0.277235 0.500000 0.250000
O O2 0.299583 0.400217 0.174451
O O3 0.210718 0.410888 0.332428
O O4 0.379058 0.428823 0.338498
O O5 0.363273 0.299321 0.867755
O O6 0.462254 0.389482 0.857945
O O7 0.347562 0.378347 0.000000
O O8 0.814571 0.724194 0.500000
O O9 0.708782 0.758433 0.641288
O O10 0.839652 0.695637 0.684373
O O11 0.391287 0.275527 0.500000
O O12 0.454511 0.210796 0.633835
O O13 0.410634 0.320326 0.663095
O O14 0.891844 0.383577 0.310053
O O15 0.948121 0.380261 0.127560
O O16 0.073407 0.630471 0.500000
O O17 0.425838 0.616436 0.000000
#
# Coordination Sequence:
#
# PCOD8293692 Si02
#       7
#    16  16  16  16  16  16  16
#     4  12  27  44  64  90 123 168 226 278 315 373
#     4  10  23  41  63  92 130 170 211 266 329 389
#     4  10  19  35  63  99 136 168 206 259 321 393
#     4   9  17  32  57  91 130 164 195 245 310 379
#     4  11  23  39  65  91 124 171 210 259 326 388
#     4  10  22  39  61  94 130 161 202 258 322 392
#     4  10  21  39  62  90 124 167 214 260 313 377
#
# _framework density 22.045587000000001
#
# number of rings (size 3 to 8) (size 9 to 14) (size 15 to 20)
#    0.000    1.714    1.429    2.571    2.000    7.429 
#    0.000    2.857    0.000    0.857    0.000    0.000 
#    0.000    0.000    0.000    0.000    0.000    0.000 
#
# Total GULP energy -694342.891787 kJ/mol
# GULP energy per Si atom -12398.980210 kJ/mol
# Density = 2.199541 g / cm^3
# Si number density = 22.045587 Si / 1000 Ang^3
#
#
#
# Elastic Constant Matrix: (Units=GPa)
#
#
# Indices 1 2 3 4 5 6 
#
# 1 108.0772 40.4744 35.0960 0.0000 0.0000 0.0000
# 2 40.4744 76.6751 8.8139 -0.0004 -0.0001 -0.0001
# 3 35.0960 8.8139 61.7428 -0.0007 -0.0003 0.0000
# 4 0.0000 -0.0004 -0.0007 16.0903 -0.0002 -0.0001
# 5 0.0000 -0.0001 -0.0003 -0.0002 29.9955 0.0000
# 6 0.0000 -0.0001 0.0000 -0.0001 0.0000 14.3315
#
#
#
# Elastic Compliance Matrix: (Units=1/GPa)
#
#
# Indices 1 2 3 4 5 6 
#
# 1 0.013996 -0.006581 -0.007016 0.000000 0.000000 0.000000
# 2 -0.006581 0.016354 0.001406 0.000000 0.000000 0.000000
# 3 -0.007016 0.001406 0.019983 0.000001 0.000000 0.000000
# 4 0.000000 0.000000 0.000001 0.062149 0.000000 0.000000
# 5 0.000000 0.000000 0.000000 0.000000 0.033338 0.000000
# 6 0.000000 0.000000 0.000000 0.000000 0.000000 0.069776
#
#
# Mechanical properties :
#
#
# Convention : Reuss Voigt Hill
#
# Bulk Modulus (GPa) = 38.53310 46.14041 42.33676
# Shear Modulus (GPa) = 20.11023 22.89086 21.50054
#
# Velocity S-wave (km/s) = 3.02356 3.22583 3.12633
# Velocity P-wave (km/s) = 5.45032 5.90335 5.68136
#
# Compressibility (1/GPa) = 0.02595171
#
# Stress axis : x y z
#
# Youngs Moduli (GPa) = 71.45093 61.14534 50.04140
#
# Poissons Ratio (x) = 0.40242 0.35109
# Poissons Ratio (y) = 0.47024 -0.07038
# Poissons Ratio (z) = 0.50129 -0.08599
#
# Static dielectric constant tensor:
#      x y z
#    x 4.058480 0.000000 0.000000 
#    y 0.000000 3.429230 0.000000 
#    z 0.000000 0.000000 4.072020 
# 
# 
# High freq. dielectric constant tensor:
#      x y z
#    x 1.877680 0.000000 0.000000 
#    y 0.000000 1.811310 0.000000 
#    z 0.000000 0.000000 1.879280 
# 
# From -- ./inp_files/22167.got.cif
#   From: 2010.03.12/outbox.cif.g09.slc.cpg/sg72_12_cif.got.tgz:22167.got - 2010.04.16 14:54:00.
