data_PCOD8293557
_publ_section_title
;
Structure prediction by ZEFSAII (Michael W. Deem and Ramdas Pophale) SiO2 
 PCOD8293557
Probable space group: I B A M
;
_chemical_formula_sum "Si O2"
_cell_formula_units_Z 96
_cell_length_a 12.855472
_cell_length_b 13.542870
_cell_length_c 31.117430
_cell_angle_alpha 90.000000
_cell_angle_beta 90.000000
_cell_angle_gamma 90.000000
_cell_volume 5417.544130
_symmetry_space_group_name_H-M "I B A M"
_symmetry_group_IT_number 72
_symmetry_cell_setting 'orthorhombic'
loop_
_space_group_symop_operation_xyz
x,y,z
-x,-y,z
x,-y,1/2-z
-x,y,1/2-z
-x,-y,-z
x,y,-z
-x,y,1/2+z
x,-y,1/2+z
1/2+x,1/2+y,1/2+z
1/2-x,1/2-y,1/2+z
1/2+x,1/2-y,-z
1/2-x,1/2+y,-z
1/2-x,1/2-y,1/2-z
1/2+x,1/2+y,1/2-z
1/2-x,1/2+y,z
1/2+x,1/2-y,z
loop_
_atom_site_type_symbol
_atom_site_label
_atom_site_fract_x
_atom_site_fract_y
_atom_site_fract_z
Si Si1 0.476379 0.613512 0.952321
Si Si2 0.744510 0.062664 0.840029
Si Si3 0.000000 0.652848 0.750000
Si Si4 0.295497 0.364364 0.385982
Si Si5 0.926660 0.280486 0.337030
Si Si6 0.674225 0.000000 0.750000
Si Si7 0.381939 0.715325 0.386581
O O1 0.500000 0.500000 0.956275
O O2 0.369706 0.625974 0.926702
O O3 0.574221 0.663579 0.928998
O O4 0.463885 0.659890 0.000000
O O5 0.636148 0.119614 0.848423
O O6 0.748229 0.032235 0.789643
O O7 0.841084 0.133844 0.852103
O O8 0.747932 0.967906 0.870881
O O9 0.039976 0.723475 0.712415
O O10 0.097955 0.587547 0.766180
O O11 0.358424 0.317235 0.345880
O O12 0.206915 0.289839 0.401502
O O13 0.029253 0.281941 0.365569
#
# Coordination Sequence:
#
# PCOD8293557 Si02
#       7
#    16  16   8  16  16   8  16
#     4  10  20  37  59  79 103 136 168 210 264 315
#     4  10  19  34  50  77 108 138 181 219 252 310
#     4   9  16  32  46  71 106 142 182 213 252 307
#     4  10  20  34  56  79 104 138 173 214 263 308
#     4   9  20  32  51  76 104 142 179 216 259 301
#     4   9  18  28  50  71 102 148 176 213 262 293
#     4  10  20  35  55  80 104 138 174 212 261 312
#
# _framework density 17.720206999999998
#
# number of rings (size 3 to 8) (size 9 to 14) (size 15 to 20)
#    0.000    2.333    1.667    1.000    0.000    4.000 
#    0.000    5.000    0.000    3.000    0.000    4.667 
#    0.000    0.000    0.000    0.000    0.000    0.000 
#
# Total GULP energy -595125.354460 kJ/mol
# GULP energy per Si atom -12398.444885 kJ/mol
# Density = 1.767987 g / cm^3
# Si number density = 17.720207 Si / 1000 Ang^3
#
#
#
# Elastic Constant Matrix: (Units=GPa)
#
#
# Indices 1 2 3 4 5 6 
#
# 1 103.9005 50.5916 70.1111 0.0000 0.0000 0.0000
# 2 50.5916 89.0651 60.2179 0.0000 0.0000 0.0000
# 3 70.1111 60.2179 137.7458 0.0000 0.0000 0.0000
# 4 0.0000 0.0000 0.0000 22.3023 0.0000 0.0000
# 5 0.0000 0.0000 0.0000 0.0000 21.5159 0.0000
# 6 0.0000 0.0000 0.0000 0.0000 0.0000 20.5574
#
#
#
# Elastic Compliance Matrix: (Units=1/GPa)
#
#
# Indices 1 2 3 4 5 6 
#
# 1 0.016161 -0.005137 -0.005980 0.000000 0.000000 0.000000
# 2 -0.005137 0.017572 -0.005067 0.000000 0.000000 0.000000
# 3 -0.005980 -0.005067 0.012519 0.000000 0.000000 0.000000
# 4 0.000000 0.000000 0.000000 0.044838 0.000000 0.000000
# 5 0.000000 0.000000 0.000000 0.000000 0.046477 0.000000
# 6 0.000000 0.000000 0.000000 0.000000 0.000000 0.048644
#
#
# Mechanical properties :
#
#
# Convention : Reuss Voigt Hill
#
# Bulk Modulus (GPa) = 72.02916 76.95029 74.48972
# Shear Modulus (GPa) = 22.40067 22.86117 22.63092
#
# Velocity S-wave (km/s) = 3.55932 3.59572 3.57757
# Velocity P-wave (km/s) = 7.59131 7.79477 7.69371
#
# Compressibility (1/GPa) = 0.01388327
#
# Stress axis : x y z
#
# Youngs Moduli (GPa) = 61.87653 56.91031 79.87962
#
# Poissons Ratio (x) = 0.29233 0.47770
# Poissons Ratio (y) = 0.31784 0.40476
# Poissons Ratio (z) = 0.37004 0.28837
#
# Static dielectric constant tensor:
#      x y z
#    x 3.485060 0.000000 0.000000 
#    y 0.000000 3.323670 0.000000 
#    z 0.000000 0.000000 3.313170 
# 
# 
# High freq. dielectric constant tensor:
#      x y z
#    x 1.691130 0.000000 0.000000 
#    y 0.000000 1.686790 0.000000 
#    z 0.000000 0.000000 1.671050 
# 
# From -- ./inp_files/51405.got.cif
#   From: 2010.03.12/outbox.cif.g09.slc.cpg/sg72_26_cif.got.tgz:51405.got - 2010.04.16 14:54:00.
