data_PCOD8293808
_publ_section_title
;
Structure prediction by ZEFSAII (Michael W. Deem and Ramdas Pophale) SiO2 
 PCOD8293808
Probable space group: I B A M
;
_chemical_formula_sum "Si O2"
_cell_formula_units_Z 80
_cell_length_a 27.786020
_cell_length_b 17.603209
_cell_length_c 9.059632
_cell_angle_alpha 90.000000
_cell_angle_beta 90.000000
_cell_angle_gamma 90.000000
_cell_volume 4431.275446
_symmetry_space_group_name_H-M "I B A M"
_symmetry_group_IT_number 72
_symmetry_cell_setting 'orthorhombic'
loop_
_space_group_symop_operation_xyz
x,y,z
-x,-y,z
x,-y,1/2-z
-x,y,1/2-z
-x,-y,-z
x,y,-z
-x,y,1/2+z
x,-y,1/2+z
1/2+x,1/2+y,1/2+z
1/2-x,1/2-y,1/2+z
1/2+x,1/2-y,-z
1/2-x,1/2+y,-z
1/2-x,1/2-y,1/2-z
1/2+x,1/2+y,1/2-z
1/2-x,1/2+y,z
1/2+x,1/2-y,z
loop_
_atom_site_type_symbol
_atom_site_label
_atom_site_fract_x
_atom_site_fract_y
_atom_site_fract_z
Si Si1 0.220500 0.814831 0.829045
Si Si2 0.638421 0.792811 0.832284
Si Si3 0.449003 0.569314 0.170770
Si Si4 0.949346 0.238372 0.670172
Si Si5 0.215309 0.578270 0.825719
O O1 0.250000 0.750000 0.750000
O O2 0.164855 0.789327 0.814320
O O3 0.233828 0.893349 0.745465
O O4 0.235690 0.821028 0.000000
O O5 0.590768 0.795690 0.732477
O O6 0.673546 0.861565 0.786453
O O7 0.621713 0.803741 0.000000
O O8 0.419026 0.500000 0.250000
O O9 0.500000 0.571927 0.250000
O O10 0.427283 0.653371 0.192471
O O11 0.454676 0.548995 0.000000
O O12 0.958323 0.256587 0.500000
O O13 0.000000 0.250705 0.750000
O O14 0.200084 0.500000 0.750000
O O15 0.222378 0.568325 0.000000
#
# Coordination Sequence:
#
# PCOD8293808 Si02
#       5
#    16  16  16  16  16
#     4   9  17  31  51  75 102 132 164 203 250 303
#     4   9  19  34  52  75 103 134 170 210 254 303
#     4   9  16  26  41  62  85 114 152 194 240 287
#     4  10  20  32  49  72  99 134 176 218 259 303
#     4  10  20  34  54  80 107 136 169 209 257 312
#
# _framework density 18.053491999999999
#
# number of rings (size 3 to 8) (size 9 to 14) (size 15 to 20)
#    0.000    2.600    0.000    4.200    0.000    7.200 
#    0.000    1.000    0.000    3.000    0.000    4.200 
#    0.000    0.000    0.000    0.000    0.000    0.000 
#
# Total GULP energy -495581.299784 kJ/mol
# GULP energy per Si atom -12389.532495 kJ/mol
# Density = 1.801240 g / cm^3
# Si number density = 18.053492 Si / 1000 Ang^3
#
#
#
# Elastic Constant Matrix: (Units=GPa)
#
#
# Indices 1 2 3 4 5 6 
#
# 1 73.2096 39.7176 53.6488 0.0000 0.0000 0.0000
# 2 39.7176 88.2180 52.7485 0.0000 0.0000 0.0000
# 3 53.6488 52.7485 135.8659 0.0000 0.0000 0.0000
# 4 0.0000 0.0000 0.0000 31.1455 0.0000 0.0000
# 5 0.0000 0.0000 0.0000 0.0000 28.7610 0.0000
# 6 0.0000 0.0000 0.0000 0.0000 0.0000 17.6980
#
#
#
# Elastic Compliance Matrix: (Units=1/GPa)
#
#
# Indices 1 2 3 4 5 6 
#
# 1 0.021387 -0.005964 -0.006130 0.000000 0.000000 0.000000
# 2 -0.005964 0.016425 -0.004022 0.000000 0.000000 0.000000
# 3 -0.006130 -0.004022 0.011342 0.000000 0.000000 0.000000
# 4 0.000000 0.000000 0.000000 0.032107 0.000000 0.000000
# 5 0.000000 0.000000 0.000000 0.000000 0.034769 0.000000
# 6 0.000000 0.000000 0.000000 0.000000 0.000000 0.056504
#
#
# Mechanical properties :
#
#
# Convention : Reuss Voigt Hill
#
# Bulk Modulus (GPa) = 59.08941 65.50258 62.29599
# Shear Modulus (GPa) = 23.76357 25.59949 24.68153
#
# Velocity S-wave (km/s) = 3.63200 3.76969 3.70149
# Velocity P-wave (km/s) = 7.09858 7.43698 7.26975
#
# Compressibility (1/GPa) = 0.01692351
#
# Stress axis : x y z
#
# Youngs Moduli (GPa) = 46.75837 60.88096 88.16704
#
# Poissons Ratio (x) = 0.36307 0.54042
# Poissons Ratio (y) = 0.27885 0.35462
# Poissons Ratio (z) = 0.28661 0.24487
#
# Static dielectric constant tensor:
#      x y z
#    x 3.029460 0.000000 0.000000 
#    y 0.000000 3.750300 0.000000 
#    z 0.000000 0.000000 3.575150 
# 
# 
# High freq. dielectric constant tensor:
#      x y z
#    x 1.665580 0.000000 0.000000 
#    y 0.000000 1.683240 0.000000 
#    z 0.000000 0.000000 1.717590 
# 
# From -- ./inp_files/5026.got.cif
#   From: 2010.03.12/outbox.cif.g09.slc.cpg/sg72_3_cif.got.tgz:5026.got - 2010.04.16 14:54:00.
