data_PCOD8293686
_publ_section_title
;
Structure prediction by ZEFSAII (Michael W. Deem and Ramdas Pophale) SiO2 
 PCOD8293686
Probable space group: I B A M
;
_chemical_formula_sum "Si O2"
_cell_formula_units_Z 112
_cell_length_a 16.652123
_cell_length_b 18.400203
_cell_length_c 18.628950
_cell_angle_alpha 90.000000
_cell_angle_beta 90.000000
_cell_angle_gamma 90.000000
_cell_volume 5707.955801
_symmetry_space_group_name_H-M "I B A M"
_symmetry_group_IT_number 72
_symmetry_cell_setting 'orthorhombic'
loop_
_space_group_symop_operation_xyz
x,y,z
-x,-y,z
x,-y,1/2-z
-x,y,1/2-z
-x,-y,-z
x,y,-z
-x,y,1/2+z
x,-y,1/2+z
1/2+x,1/2+y,1/2+z
1/2-x,1/2-y,1/2+z
1/2+x,1/2-y,-z
1/2-x,1/2+y,-z
1/2-x,1/2-y,1/2-z
1/2+x,1/2+y,1/2-z
1/2-x,1/2+y,z
1/2+x,1/2-y,z
loop_
_atom_site_type_symbol
_atom_site_label
_atom_site_fract_x
_atom_site_fract_y
_atom_site_fract_z
Si Si1 0.268715 0.307387 0.346904
Si Si2 0.857222 0.420683 0.841495
Si Si3 0.933435 0.197802 0.583471
Si Si4 0.018425 0.085792 0.670275
Si Si5 0.992339 0.328866 0.334953
Si Si6 0.313738 0.661237 0.314126
Si Si7 0.343371 0.080075 0.328458
O O1 0.219646 0.378109 0.372746
O O2 0.339134 0.287825 0.402140
O O3 0.311657 0.327180 0.271573
O O4 0.202400 0.242595 0.344354
O O5 0.938105 0.380460 0.865764
O O6 0.854953 0.503321 0.869281
O O7 0.856133 0.424889 0.756082
O O8 0.950710 0.205097 0.500000
O O9 0.957578 0.118340 0.611708
O O10 0.993510 0.251756 0.625698
O O11 0.108108 0.118099 0.657041
O O12 0.000000 0.112860 0.750000
O O13 0.000000 0.000000 0.663875
O O14 0.000000 0.315363 0.250000
O O15 0.908730 0.364574 0.358706
O O16 0.244312 0.609698 0.344486
#
# Coordination Sequence:
#
# PCOD8293686 Si02
#       7
#    16  16  16  16  16  16  16
#     4  10  20  35  57  87 119 159 198 247 296 350
#     4   9  18  29  56  89 123 147 186 243 302 362
#     4  12  25  41  59  84 124 164 203 248 307 365
#     4  11  24  39  65  95 123 157 205 258 301 357
#     4  10  19  36  61  90 116 151 196 246 300 359
#     4  10  19  35  60  91 118 149 202 253 299 349
#     4   9  17  30  56  93 123 144 178 249 314 353
#
# _framework density 19.621735999999999
#
# number of rings (size 3 to 8) (size 9 to 14) (size 15 to 20)
#    0.000    1.857    2.857    1.714    4.000    3.143 
#    0.000    2.857    0.000    2.571    0.000    0.000 
#    0.000    0.000    0.000    0.000    0.000    0.000 
#
# Total GULP energy -694040.195309 kJ/mol
# GULP energy per Si atom -12393.574916 kJ/mol
# Density = 1.957708 g / cm^3
# Si number density = 19.621736 Si / 1000 Ang^3
#
#
#
# Elastic Constant Matrix: (Units=GPa)
#
#
# Indices 1 2 3 4 5 6 
#
# 1 111.0415 50.1930 23.0817 0.0000 0.0000 0.0000
# 2 50.1930 125.5961 37.5955 0.0000 0.0000 0.0000
# 3 23.0817 37.5955 56.3048 0.0000 0.0000 0.0000
# 4 0.0000 0.0000 0.0000 6.4215 0.0000 0.0000
# 5 0.0000 0.0000 0.0000 0.0000 13.4901 0.0000
# 6 0.0000 0.0000 0.0000 0.0000 0.0000 31.6373
#
#
#
# Elastic Compliance Matrix: (Units=1/GPa)
#
#
# Indices 1 2 3 4 5 6 
#
# 1 0.011168 -0.003865 -0.001997 0.000000 0.000000 0.000000
# 2 -0.003865 0.011289 -0.005953 0.000000 0.000000 0.000000
# 3 -0.001997 -0.005953 0.022554 0.000000 0.000000 0.000000
# 4 0.000000 0.000000 0.000000 0.155726 0.000000 0.000000
# 5 0.000000 0.000000 0.000000 0.000000 0.074128 0.000000
# 6 0.000000 0.000000 0.000000 0.000000 0.000000 0.031608
#
#
# Mechanical properties :
#
#
# Convention : Reuss Voigt Hill
#
# Bulk Modulus (GPa) = 46.77368 57.18697 51.98033
# Shear Modulus (GPa) = 14.82660 22.44793 18.63727
#
# Velocity S-wave (km/s) = 2.75184 3.38603 3.08527
# Velocity P-wave (km/s) = 5.82977 6.67045 6.26423
#
# Compressibility (1/GPa) = 0.02137954
#
# Stress axis : x y z
#
# Youngs Moduli (GPa) = 89.54146 88.58393 44.33759
#
# Poissons Ratio (x) = 0.34240 0.08856
# Poissons Ratio (y) = 0.34610 0.26395
# Poissons Ratio (z) = 0.17884 0.52735
#
# Static dielectric constant tensor:
#      x y z
#    x 3.645130 0.000000 0.000000 
#    y 0.000000 3.894170 0.000000 
#    z 0.000000 0.000000 2.930690 
# 
# 
# High freq. dielectric constant tensor:
#      x y z
#    x 1.778390 0.000000 0.000000 
#    y 0.000000 1.783840 0.000000 
#    z 0.000000 0.000000 1.689300 
# 
# From -- ./inp_files/39234.got.cif
#   From: 2010.03.12/outbox.cif.g09.slc.cpg/sg72_20_cif.got.tgz:39234.got - 2010.04.16 14:54:00.
