data_PCOD8293051
_publ_section_title
;
Structure prediction by ZEFSAII (Michael W. Deem and Ramdas Pophale) SiO2 
 PCOD8293051
Probable space group: I B A M
;
_chemical_formula_sum "Si O2"
_cell_formula_units_Z 68
_cell_length_a 20.771968
_cell_length_b 9.020520
_cell_length_c 20.678892
_cell_angle_alpha 90.000000
_cell_angle_beta 90.000000
_cell_angle_gamma 90.000000
_cell_volume 3874.685733
_symmetry_space_group_name_H-M "I B A M"
_symmetry_group_IT_number 72
_symmetry_cell_setting 'orthorhombic'
loop_
_space_group_symop_operation_xyz
x,y,z
-x,-y,z
x,-y,1/2-z
-x,y,1/2-z
-x,-y,-z
x,y,-z
-x,y,1/2+z
x,-y,1/2+z
1/2+x,1/2+y,1/2+z
1/2-x,1/2-y,1/2+z
1/2+x,1/2-y,-z
1/2-x,1/2+y,-z
1/2-x,1/2-y,1/2-z
1/2+x,1/2+y,1/2-z
1/2-x,1/2+y,z
1/2+x,1/2-y,z
loop_
_atom_site_type_symbol
_atom_site_label
_atom_site_fract_x
_atom_site_fract_y
_atom_site_fract_z
Si Si1 0.688044 0.589775 0.076534
Si Si2 0.059325 0.590572 0.626441
Si Si3 0.816843 0.429422 0.923170
Si Si4 0.063677 0.920882 0.576691
Si Si5 0.500000 0.000000 0.750000
O O1 0.752490 0.510488 0.101490
O O2 0.687530 0.759410 0.099105
O O3 0.625956 0.505097 0.105502
O O4 0.686239 0.579879 0.000000
O O5 0.124336 0.502231 0.614028
O O6 0.065014 0.751660 0.596979
O O7 0.000000 0.500000 0.593146
O O8 0.045541 0.601355 0.703825
O O9 0.826687 0.445907 0.000000
O O10 0.064370 0.929715 0.500000
O O11 0.000000 0.000000 0.604603
#
# Coordination Sequence:
#
# PCOD8293051 Si02
#       5
#    16  16  16  16   4
#     4   9  18  30  47  82 119 140 163 201 261 333
#     4  10  20  36  54  71 101 142 177 225 266 301
#     4  10  18  30  53  80 110 143 170 207 267 326
#     4  10  19  31  52  84 114 135 166 212 265 329
#     4   8  24  40  52  72  96 140 192 238 256 296
#
# _framework density 17.549810000000001
#
# number of rings (size 3 to 8) (size 9 to 14) (size 15 to 20)
#    0.706    1.647    0.000    3.529    0.000    7.529 
#    0.000    0.588    0.000    5.647    0.000    0.000 
#    0.000    0.000    0.000    0.000    0.000    0.000 
#
# Total GULP energy -421470.083297 kJ/mol
# GULP energy per Si atom -12396.178921 kJ/mol
# Density = 1.750987 g / cm^3
# Si number density = 17.549810 Si / 1000 Ang^3
#
#
#
# Elastic Constant Matrix: (Units=GPa)
#
#
# Indices 1 2 3 4 5 6 
#
# 1 192.9877 95.4722 27.7654 0.0000 0.0000 0.0000
# 2 95.4722 155.1772 7.2708 0.0000 0.0000 0.0000
# 3 27.7654 7.2708 21.2713 0.0000 0.0000 0.0000
# 4 0.0000 0.0000 0.0000 1.5816 0.0000 0.0000
# 5 0.0000 0.0000 0.0000 0.0000 18.7163 0.0000
# 6 0.0000 0.0000 0.0000 0.0000 0.0000 42.1773
#
#
#
# Elastic Compliance Matrix: (Units=1/GPa)
#
#
# Indices 1 2 3 4 5 6 
#
# 1 0.009231 -0.005198 -0.010273 0.000000 0.000000 0.000000
# 2 -0.005198 0.009476 0.003546 0.000000 0.000000 0.000000
# 3 -0.010273 0.003546 0.059208 0.000000 0.000000 0.000000
# 4 0.000000 0.000000 0.000000 0.632251 0.000000 0.000000
# 5 0.000000 0.000000 0.000000 0.000000 0.053429 0.000000
# 6 0.000000 0.000000 0.000000 0.000000 0.000000 0.023709
#
#
# Mechanical properties :
#
#
# Convention : Reuss Voigt Hill
#
# Bulk Modulus (GPa) = 18.49583 70.05033 44.27308
# Shear Modulus (GPa) = 6.03007 28.42358 17.22683
#
# Velocity S-wave (km/s) = 1.85565 4.02878 3.13644
# Velocity P-wave (km/s) = 3.89271 7.85132 6.19663
#
# Compressibility (1/GPa) = 0.05406623
#
# Stress axis : x y z
#
# Youngs Moduli (GPa) = 108.32898 105.52740 16.88952
#
# Poissons Ratio (x) = 0.54854 0.17350
# Poissons Ratio (y) = 0.56311 -0.05989
# Poissons Ratio (z) = 1.11282 -0.37420
#
# Static dielectric constant tensor:
#      x y z
#    x 3.651800 0.000000 0.000000 
#    y 0.000000 3.554550 0.000000 
#    z 0.000000 0.000000 2.747420 
# 
# 
# High freq. dielectric constant tensor:
#      x y z
#    x 1.700030 0.000000 0.000000 
#    y 0.000000 1.691260 0.000000 
#    z 0.000000 0.000000 1.616040 
# 
# From -- ./inp_files/32271.got.cif
#   From: 2010.03.12/outbox.cif.g09.slc.cpg/sg72_17_cif.got.tgz:32271.got - 2010.04.16 14:54:00.
