data_PCOD8293147
_publ_section_title
;
Structure prediction by ZEFSAII (Michael W. Deem and Ramdas Pophale) SiO2 
 PCOD8293147
Probable space group: I B A M
;
_chemical_formula_sum "Si O2"
_cell_formula_units_Z 96
_cell_length_a 9.066418
_cell_length_b 26.010833
_cell_length_c 22.644248
_cell_angle_alpha 90.000000
_cell_angle_beta 90.000000
_cell_angle_gamma 90.000000
_cell_volume 5340.081698
_symmetry_space_group_name_H-M "I B A M"
_symmetry_group_IT_number 72
_symmetry_cell_setting 'orthorhombic'
loop_
_space_group_symop_operation_xyz
x,y,z
-x,-y,z
x,-y,1/2-z
-x,y,1/2-z
-x,-y,-z
x,y,-z
-x,y,1/2+z
x,-y,1/2+z
1/2+x,1/2+y,1/2+z
1/2-x,1/2-y,1/2+z
1/2+x,1/2-y,-z
1/2-x,1/2+y,-z
1/2-x,1/2-y,1/2-z
1/2+x,1/2+y,1/2-z
1/2-x,1/2+y,z
1/2+x,1/2-y,z
loop_
_atom_site_type_symbol
_atom_site_label
_atom_site_fract_x
_atom_site_fract_y
_atom_site_fract_z
Si Si1 0.952900 0.232575 0.314955
Si Si2 0.335727 0.997729 0.566147
Si Si3 0.752624 0.819320 0.653564
Si Si4 0.843230 0.899610 0.566534
Si Si5 0.091989 0.949068 0.643917
Si Si6 0.336483 0.361802 0.270970
O O1 0.886467 0.281458 0.349259
O O2 0.820494 0.188393 0.313583
O O3 0.000000 0.251894 0.250000
O O4 0.096183 0.212706 0.349097
O O5 0.342578 0.974555 0.500000
O O6 0.232532 0.961572 0.604656
O O7 0.500000 0.000000 0.593642
O O8 0.269104 0.053879 0.564811
O O9 0.750735 0.853273 0.594621
O O10 0.736382 0.856852 0.712001
O O11 0.895822 0.886243 0.500000
O O12 0.985322 0.912007 0.606823
O O13 0.164347 0.918196 0.699124
O O14 0.000000 0.000000 0.664480
O O15 0.500000 0.350363 0.250000
#
# Coordination Sequence:
#
# PCOD8293147 Si02
#       6
#    16  16  16  16  16  16
#     4   9  17  33  55  74 101 135 174 212 256 316
#     4   9  19  36  54  75 106 141 175 210 256 316
#     4  10  19  35  53  79 103 138 176 222 261 312
#     4  10  19  35  55  76 102 138 180 218 253 309
#     4  10  18  32  57  80 103 138 177 216 262 314
#     4   9  16  31  51  79 102 131 171 215 260 309
#
# _framework density 17.977253000000001
#
# number of rings (size 3 to 8) (size 9 to 14) (size 15 to 20)
#    0.000    2.833    3.333    2.500    0.000    2.333 
#    6.000    0.833    0.000    1.000    0.000    0.000 
#    0.000    0.000    0.000    0.000    0.000    0.000 
#
# Total GULP energy -594650.115990 kJ/mol
# GULP energy per Si atom -12388.544083 kJ/mol
# Density = 1.793634 g / cm^3
# Si number density = 17.977253 Si / 1000 Ang^3
#
#
#
# Elastic Constant Matrix: (Units=GPa)
#
#
# Indices 1 2 3 4 5 6 
#
# 1 61.5412 21.5811 17.7263 0.0000 0.0000 0.0000
# 2 21.5811 91.8588 50.2589 0.0000 0.0000 0.0000
# 3 17.7263 50.2589 67.0171 -0.0001 0.0000 0.0000
# 4 0.0000 0.0000 -0.0001 19.3005 0.0000 0.0000
# 5 0.0000 0.0000 0.0000 0.0000 15.9454 0.0000
# 6 0.0000 0.0000 0.0000 0.0000 0.0000 16.1967
#
#
#
# Elastic Compliance Matrix: (Units=1/GPa)
#
#
# Indices 1 2 3 4 5 6 
#
# 1 0.017991 -0.002752 -0.002694 0.000000 0.000000 0.000000
# 2 -0.002752 0.018882 -0.013433 0.000000 0.000000 0.000000
# 3 -0.002694 -0.013433 0.025708 0.000000 0.000000 0.000000
# 4 0.000000 0.000000 0.000000 0.051812 0.000000 0.000000
# 5 0.000000 0.000000 0.000000 0.000000 0.062714 0.000000
# 6 0.000000 0.000000 0.000000 0.000000 0.000000 0.061741
#
#
# Mechanical properties :
#
#
# Convention : Reuss Voigt Hill
#
# Bulk Modulus (GPa) = 40.28700 44.39440 42.34070
# Shear Modulus (GPa) = 17.55121 19.01192 18.28157
#
# Velocity S-wave (km/s) = 3.12797 3.25553 3.19239
# Velocity P-wave (km/s) = 5.95854 6.23536 6.09852
#
# Compressibility (1/GPa) = 0.02482190
#
# Stress axis : x y z
#
# Youngs Moduli (GPa) = 55.58458 52.95960 38.89860
#
# Poissons Ratio (x) = 0.14577 0.10481
# Poissons Ratio (y) = 0.15300 0.52251
# Poissons Ratio (z) = 0.14977 0.71138
#
# Static dielectric constant tensor:
#      x y z
#    x 3.113570 0.000000 0.000000 
#    y 0.000000 3.509820 0.000000 
#    z 0.000000 0.000000 3.375470 
# 
# 
# High freq. dielectric constant tensor:
#      x y z
#    x 1.675300 0.000000 0.000000 
#    y 0.000000 1.695220 0.000000 
#    z 0.000000 0.000000 1.671490 
# 
# From -- ./inp_files/42431.got.cif
#   From: 2010.03.12/outbox.cif.g09.slc.cpg/sg72_22_cif.got.tgz:42431.got - 2010.04.16 14:54:00.
