data_PCOD8293492
_publ_section_title
;
Structure prediction by ZEFSAII (Michael W. Deem and Ramdas Pophale) SiO2 
 PCOD8293492
Probable space group: I B A M
;
_chemical_formula_sum "Si O2"
_cell_formula_units_Z 96
_cell_length_a 17.412170
_cell_length_b 20.860372
_cell_length_c 14.316949
_cell_angle_alpha 90.000000
_cell_angle_beta 90.000000
_cell_angle_gamma 90.000000
_cell_volume 5200.264402
_symmetry_space_group_name_H-M "I B A M"
_symmetry_group_IT_number 72
_symmetry_cell_setting 'orthorhombic'
loop_
_space_group_symop_operation_xyz
x,y,z
-x,-y,z
x,-y,1/2-z
-x,y,1/2-z
-x,-y,-z
x,y,-z
-x,y,1/2+z
x,-y,1/2+z
1/2+x,1/2+y,1/2+z
1/2-x,1/2-y,1/2+z
1/2+x,1/2-y,-z
1/2-x,1/2+y,-z
1/2-x,1/2-y,1/2-z
1/2+x,1/2+y,1/2-z
1/2-x,1/2+y,z
1/2+x,1/2-y,z
loop_
_atom_site_type_symbol
_atom_site_label
_atom_site_fract_x
_atom_site_fract_y
_atom_site_fract_z
Si Si1 0.411847 0.707637 0.750920
Si Si2 0.220258 0.792581 0.890210
Si Si3 0.192477 0.161890 0.897631
Si Si4 0.075706 0.535247 0.392099
Si Si5 0.168083 0.414855 0.604215
Si Si6 0.636836 0.845699 0.288182
O O1 0.500000 0.687040 0.750000
O O2 0.365947 0.702199 0.652549
O O3 0.374610 0.657291 0.822837
O O4 0.406114 0.778176 0.795873
O O5 0.248732 0.720058 0.873131
O O6 0.277627 0.840203 0.833498
O O7 0.218081 0.810838 0.000000
O O8 0.239929 0.095263 0.895604
O O9 0.156596 0.173575 0.000000
O O10 0.064614 0.550372 0.500000
O O11 0.148412 0.488621 0.371936
O O12 0.087039 0.603059 0.344129
O O13 0.000000 0.500000 0.352157
O O14 0.135080 0.397778 0.500000
O O15 0.133848 0.366863 0.680480
#
# Coordination Sequence:
#
# PCOD8293492 Si02
#       6
#    16  16  16  16  16  16
#     4  11  22  33  51  80 109 137 181 229 280 325
#     4  10  19  35  55  74 103 140 181 230 272 322
#     4   9  17  34  54  73 100 138 183 221 265 323
#     4  10  23  37  51  81 118 148 181 221 266 320
#     4  10  19  33  54  74 104 146 180 216 262 317
#     4  11  20  35  55  78 106 148 188 217 261 326
#
# _framework density 18.460599999999999
#
# number of rings (size 3 to 8) (size 9 to 14) (size 15 to 20)
#    0.000    1.833    3.333    2.000    2.333    2.000 
#    0.000    0.000    0.000    0.000    0.000    2.333 
#    0.000    5.333    0.000    0.000    0.000    0.000 
#
# Total GULP energy -594933.937556 kJ/mol
# GULP energy per Si atom -12394.457032 kJ/mol
# Density = 1.841858 g / cm^3
# Si number density = 18.460600 Si / 1000 Ang^3
#
#
#
# Elastic Constant Matrix: (Units=GPa)
#
#
# Indices 1 2 3 4 5 6 
#
# 1 109.0147 25.3844 45.0747 0.0000 0.0000 0.0000
# 2 25.3844 61.9399 24.4852 0.0000 0.0000 0.0000
# 3 45.0747 24.4852 98.1982 0.0000 0.0000 0.0000
# 4 0.0000 0.0000 0.0000 23.8105 0.0000 0.0000
# 5 0.0000 0.0000 0.0000 0.0000 23.9264 0.0000
# 6 0.0000 0.0000 0.0000 0.0000 0.0000 27.5076
#
#
#
# Elastic Compliance Matrix: (Units=1/GPa)
#
#
# Indices 1 2 3 4 5 6 
#
# 1 0.011801 -0.002990 -0.004671 0.000000 0.000000 0.000000
# 2 -0.002990 0.018667 -0.003282 0.000000 0.000000 0.000000
# 3 -0.004671 -0.003282 0.013146 0.000000 0.000000 0.000000
# 4 0.000000 0.000000 0.000000 0.041998 0.000000 0.000000
# 5 0.000000 0.000000 0.000000 0.000000 0.041795 0.000000
# 6 0.000000 0.000000 0.000000 0.000000 0.000000 0.036354
#
#
# Mechanical properties :
#
#
# Convention : Reuss Voigt Hill
#
# Bulk Modulus (GPa) = 46.02404 51.00458 48.51431
# Shear Modulus (GPa) = 25.92153 26.66281 26.29217
#
# Velocity S-wave (km/s) = 3.75127 3.80453 3.77799
# Velocity P-wave (km/s) = 6.61421 6.85479 6.73557
#
# Compressibility (1/GPa) = 0.02172778
#
# Stress axis : x y z
#
# Youngs Moduli (GPa) = 84.74111 53.56931 76.06815
#
# Poissons Ratio (x) = 0.16015 0.35533
# Poissons Ratio (y) = 0.25334 0.24968
# Poissons Ratio (z) = 0.39585 0.17583
#
# Static dielectric constant tensor:
#      x y z
#    x 3.330520 0.000000 0.000000 
#    y 0.000000 3.223240 0.000000 
#    z 0.000000 0.000000 3.651960 
# 
# 
# High freq. dielectric constant tensor:
#      x y z
#    x 1.689840 0.000000 0.000000 
#    y 0.000000 1.681390 0.000000 
#    z 0.000000 0.000000 1.739090 
# 
# From -- ./inp_files/21831.got.cif
#   From: 2010.03.12/outbox.cif.g09.slc.cpg/sg72_11_cif.got.tgz:21831.got - 2010.04.16 14:54:00.
