data_PCOD8293670
_publ_section_title
;
Structure prediction by ZEFSAII (Michael W. Deem and Ramdas Pophale) SiO2 
 PCOD8293670
Probable space group: I B A M
;
_chemical_formula_sum "Si O2"
_cell_formula_units_Z 88
_cell_length_a 24.960207
_cell_length_b 11.689088
_cell_length_c 14.405727
_cell_angle_alpha 90.000000
_cell_angle_beta 90.000000
_cell_angle_gamma 90.000000
_cell_volume 4203.044529
_symmetry_space_group_name_H-M "I B A M"
_symmetry_group_IT_number 72
_symmetry_cell_setting 'orthorhombic'
loop_
_space_group_symop_operation_xyz
x,y,z
-x,-y,z
x,-y,1/2-z
-x,y,1/2-z
-x,-y,-z
x,y,-z
-x,y,1/2+z
x,-y,1/2+z
1/2+x,1/2+y,1/2+z
1/2-x,1/2-y,1/2+z
1/2+x,1/2-y,-z
1/2-x,1/2+y,-z
1/2-x,1/2-y,1/2-z
1/2+x,1/2+y,1/2-z
1/2-x,1/2+y,z
1/2+x,1/2-y,z
loop_
_atom_site_type_symbol
_atom_site_label
_atom_site_fract_x
_atom_site_fract_y
_atom_site_fract_z
Si Si1 0.841397 0.135585 0.108759
Si Si2 0.999325 0.313722 0.650314
Si Si3 0.041170 0.913715 0.101341
Si Si4 0.687816 0.102885 0.393539
Si Si5 0.732986 0.500000 0.250000
Si Si6 0.078578 0.497133 0.894772
O O1 0.900045 0.098174 0.146859
O O2 0.836648 0.271673 0.118587
O O3 0.800171 0.076706 0.178403
O O4 0.831601 0.101414 0.000000
O O5 0.941633 0.367309 0.622314
O O6 0.000000 0.252200 0.750000
O O7 0.015344 0.211403 0.582837
O O8 0.043339 0.413709 0.662820
O O9 0.051154 0.967973 0.000000
O O10 0.000000 0.000000 0.155228
O O11 0.709053 0.086412 0.500000
O O12 0.641331 0.009179 0.371784
O O13 0.733129 0.083727 0.316601
O O14 0.067294 0.533007 0.000000
#
# Coordination Sequence:
#
# PCOD8293670 Si02
#       6
#    16  16  16  16   8  16
#     4  10  22  43  64  87 122 162 204 252 313 373
#     4  11  21  31  55  89 123 152 190 240 292 355
#     4  10  21  40  62  84 118 163 200 235 294 371
#     4  10  22  40  64  91 121 163 204 250 313 370
#     4  12  24  38  67  89 120 152 214 268 304 352
#     4  10  19  35  58  82 116 156 195 233 290 359
#
# _framework density 20.937204000000001
#
# number of rings (size 3 to 8) (size 9 to 14) (size 15 to 20)
#    0.000    1.636    1.818    4.364    2.545    1.818 
#    0.000    1.818    0.000    4.364    0.000    0.000 
#    0.000    0.000    0.000    0.000    0.000    0.000 
#
# Total GULP energy -545179.811066 kJ/mol
# GULP energy per Si atom -12390.450251 kJ/mol
# Density = 2.088955 g / cm^3
# Si number density = 20.937204 Si / 1000 Ang^3
#
#
#
# Elastic Constant Matrix: (Units=GPa)
#
#
# Indices 1 2 3 4 5 6 
#
# 1 147.2489 65.4072 59.8169 0.0000 0.0000 0.0000
# 2 65.4072 85.3995 23.6990 0.0000 0.0000 0.0000
# 3 59.8169 23.6990 98.0902 0.0000 0.0000 0.0000
# 4 0.0000 0.0000 0.0000 44.5000 0.0000 0.0000
# 5 0.0000 0.0000 0.0000 0.0000 27.6471 0.0000
# 6 0.0000 0.0000 0.0000 0.0000 0.0000 36.4650
#
#
#
# Elastic Compliance Matrix: (Units=1/GPa)
#
#
# Indices 1 2 3 4 5 6 
#
# 1 0.012790 -0.008180 -0.005823 0.000000 0.000000 0.000000
# 2 -0.008180 0.017783 0.000692 0.000000 0.000000 0.000000
# 3 -0.005823 0.000692 0.013579 0.000000 0.000000 0.000000
# 4 0.000000 0.000000 0.000000 0.022472 0.000000 0.000000
# 5 0.000000 0.000000 0.000000 0.000000 0.036170 0.000000
# 6 0.000000 0.000000 0.000000 0.000000 0.000000 0.027424
#
#
# Mechanical properties :
#
#
# Convention : Reuss Voigt Hill
#
# Bulk Modulus (GPa) = 57.04914 69.84277 63.44595
# Shear Modulus (GPa) = 30.73447 33.84345 32.28896
#
# Velocity S-wave (km/s) = 3.83552 4.02484 3.93132
# Velocity P-wave (km/s) = 6.84995 7.41821 7.13973
#
# Compressibility (1/GPa) = 0.01752875
#
# Stress axis : x y z
#
# Youngs Moduli (GPa) = 78.18330 56.23419 73.64450
#
# Poissons Ratio (x) = 0.46000 0.42887
# Poissons Ratio (y) = 0.63955 -0.05096
# Poissons Ratio (z) = 0.45530 -0.03891
#
# Static dielectric constant tensor:
#      x y z
#    x 3.855130 0.000000 0.000000 
#    y 0.000000 3.623480 0.000000 
#    z 0.000000 0.000000 3.828690 
# 
# 
# High freq. dielectric constant tensor:
#      x y z
#    x 1.810810 0.000000 0.000000 
#    y 0.000000 1.806010 0.000000 
#    z 0.000000 0.000000 1.829900 
# 
# From -- ./inp_files/20326.got.cif
#   From: 2010.03.12/outbox.cif.g09.slc.cpg/sg72_11_cif.got.tgz:20326.got - 2010.04.16 14:54:00.
