data_PCOD8293484
_publ_section_title
;
Structure prediction by ZEFSAII (Michael W. Deem and Ramdas Pophale) SiO2 
 PCOD8293484
Probable space group: I B A M
;
_chemical_formula_sum "Si O2"
_cell_formula_units_Z 72
_cell_length_a 24.342033
_cell_length_b 16.362050
_cell_length_c 9.331231
_cell_angle_alpha 90.000000
_cell_angle_beta 90.000000
_cell_angle_gamma 90.000000
_cell_volume 3716.494574
_symmetry_space_group_name_H-M "I B A M"
_symmetry_group_IT_number 72
_symmetry_cell_setting 'orthorhombic'
loop_
_space_group_symop_operation_xyz
x,y,z
-x,-y,z
x,-y,1/2-z
-x,y,1/2-z
-x,-y,-z
x,y,-z
-x,y,1/2+z
x,-y,1/2+z
1/2+x,1/2+y,1/2+z
1/2-x,1/2-y,1/2+z
1/2+x,1/2-y,-z
1/2-x,1/2+y,-z
1/2-x,1/2-y,1/2-z
1/2+x,1/2+y,1/2-z
1/2-x,1/2+y,z
1/2+x,1/2-y,z
loop_
_atom_site_type_symbol
_atom_site_label
_atom_site_fract_x
_atom_site_fract_y
_atom_site_fract_z
Si Si1 0.716768 0.624063 0.657651
Si Si2 0.628593 0.751451 0.335158
Si Si3 0.131975 0.000000 0.250000
Si Si4 0.178451 0.420802 0.167103
Si Si5 0.946430 0.137555 0.838255
O O1 0.744300 0.630856 0.500000
O O2 0.687153 0.708994 0.700182
O O3 0.670187 0.554136 0.646930
O O4 0.761461 0.603009 0.776301
O O5 0.612525 0.733834 0.500000
O O6 0.635429 0.847846 0.306343
O O7 0.580955 0.717279 0.233759
O O8 0.094405 0.060527 0.343430
O O9 0.155610 0.500000 0.250000
O O10 0.184817 0.441319 0.000000
O O11 0.000000 0.112184 0.750000
O O12 0.962788 0.160659 0.000000
#
# Coordination Sequence:
#
# PCOD8293484 Si02
#       5
#    16  16   8  16  16
#     4  10  19  33  53  78 112 149 187 228 270 325
#     4   9  21  39  56  78 109 145 187 235 283 331
#     4  10  21  34  54  84 118 154 189 222 268 326
#     4  11  22  35  54  80 112 148 186 230 280 334
#     4  11  23  38  59  84 112 149 191 235 283 334
#
# _framework density 19.373094999999999
#
# number of rings (size 3 to 8) (size 9 to 14) (size 15 to 20)
#    0.000    1.778    1.111    3.000    0.000    8.889 
#    0.000    0.000    0.000    0.667    0.000    4.667 
#    0.000    0.000    0.000    0.000    0.000    0.000 
#
# Total GULP energy -446429.198580 kJ/mol
# GULP energy per Si atom -12400.811072 kJ/mol
# Density = 1.932900 g / cm^3
# Si number density = 19.373095 Si / 1000 Ang^3
#
#
#
# Elastic Constant Matrix: (Units=GPa)
#
#
# Indices 1 2 3 4 5 6 
#
# 1 46.5875 12.8785 25.7050 0.0000 0.0000 0.0000
# 2 12.8785 105.8820 38.3329 0.0000 0.0000 0.0000
# 3 25.7050 38.3329 119.9870 0.0000 0.0000 0.0000
# 4 0.0000 0.0000 0.0000 26.1473 0.0000 0.0000
# 5 0.0000 0.0000 0.0000 0.0000 26.8880 0.0000
# 6 0.0000 0.0000 0.0000 0.0000 0.0000 17.1667
#
#
#
# Elastic Compliance Matrix: (Units=1/GPa)
#
#
# Indices 1 2 3 4 5 6 
#
# 1 0.024481 -0.001220 -0.004855 0.000000 0.000000 0.000000
# 2 -0.001220 0.010741 -0.003170 0.000000 0.000000 0.000000
# 3 -0.004855 -0.003170 0.010387 0.000000 0.000000 0.000000
# 4 0.000000 0.000000 0.000000 0.038245 0.000000 0.000000
# 5 0.000000 0.000000 0.000000 0.000000 0.037191 0.000000
# 6 0.000000 0.000000 0.000000 0.000000 0.000000 0.058252
#
#
# Mechanical properties :
#
#
# Convention : Reuss Voigt Hill
#
# Bulk Modulus (GPa) = 36.87471 47.36547 42.12009
# Shear Modulus (GPa) = 24.17490 27.07641 25.62565
#
# Velocity S-wave (km/s) = 3.53634 3.74254 3.64090
# Velocity P-wave (km/s) = 5.97909 6.57097 6.28201
#
# Compressibility (1/GPa) = 0.02711886
#
# Stress axis : x y z
#
# Youngs Moduli (GPa) = 40.84808 93.10550 96.27401
#
# Poissons Ratio (x) = 0.11359 0.46739
# Poissons Ratio (y) = 0.04984 0.30518
# Poissons Ratio (z) = 0.19831 0.29514
#
# Static dielectric constant tensor:
#      x y z
#    x 3.227370 0.000000 0.000000 
#    y 0.000000 3.739230 0.000000 
#    z 0.000000 0.000000 3.436070 
# 
# 
# High freq. dielectric constant tensor:
#      x y z
#    x 1.721060 0.000000 0.000000 
#    y 0.000000 1.757740 0.000000 
#    z 0.000000 0.000000 1.758700 
# 
# From -- ./inp_files/3683.got.cif
#   From: 2010.03.12/outbox.cif.g09.slc.cpg/sg72_2_cif.got.tgz:3683.got - 2010.04.16 14:54:00.
