data_PCOD8293749
_publ_section_title
;
Structure prediction by ZEFSAII (Michael W. Deem and Ramdas Pophale) SiO2 
 PCOD8293749
Probable space group: I B A M
;
_chemical_formula_sum "Si O2"
_cell_formula_units_Z 80
_cell_length_a 15.239414
_cell_length_b 15.027141
_cell_length_c 17.376095
_cell_angle_alpha 90.000000
_cell_angle_beta 90.000000
_cell_angle_gamma 90.000000
_cell_volume 3979.209559
_symmetry_space_group_name_H-M "I B A M"
_symmetry_group_IT_number 72
_symmetry_cell_setting 'orthorhombic'
loop_
_space_group_symop_operation_xyz
x,y,z
-x,-y,z
x,-y,1/2-z
-x,y,1/2-z
-x,-y,-z
x,y,-z
-x,y,1/2+z
x,-y,1/2+z
1/2+x,1/2+y,1/2+z
1/2-x,1/2-y,1/2+z
1/2+x,1/2-y,-z
1/2-x,1/2+y,-z
1/2-x,1/2-y,1/2-z
1/2+x,1/2+y,1/2-z
1/2-x,1/2+y,z
1/2+x,1/2-y,z
loop_
_atom_site_type_symbol
_atom_site_label
_atom_site_fract_x
_atom_site_fract_y
_atom_site_fract_z
Si Si1 0.256041 0.009734 0.839715
Si Si2 0.464996 0.728604 0.410120
Si Si3 0.850536 0.162197 0.591738
Si Si4 0.428791 0.072844 0.911097
Si Si5 0.724571 0.678465 0.908450
O O1 0.263283 0.913454 0.878268
O O2 0.240593 0.000000 0.750000
O O3 0.176289 0.066713 0.874689
O O4 0.345458 0.061950 0.856659
O O5 0.462896 0.709892 0.500000
O O6 0.551579 0.681743 0.375631
O O7 0.473202 0.833117 0.393230
O O8 0.374184 0.690658 0.374931
O O9 0.849321 0.157387 0.500000
O O10 0.784940 0.239946 0.620727
O O11 0.500000 0.000000 0.889806
O O12 0.397919 0.066309 0.000000
O O13 0.725071 0.677248 0.000000
#
# Coordination Sequence:
#
# PCOD8293749 Si02
#       5
#    16  16  16  16  16
#     4  12  25  38  58  87 130 167 199 238 307 379
#     4   9  18  34  61  91 113 148 203 260 308 350
#     4  10  20  39  64  89 120 158 206 261 307 354
#     4  10  19  37  64  92 117 149 206 265 307 351
#     4  10  20  38  63  88 116 154 206 258 306 357
#
# _framework density 20.104496000000001
#
# number of rings (size 3 to 8) (size 9 to 14) (size 15 to 20)
#    0.000    1.800    2.000    3.000    0.000    5.200 
#    0.000    5.000    0.000    0.000    0.000    0.000 
#    0.000    0.000    0.000    0.000    0.000    0.000 
#
# Total GULP energy -496061.616744 kJ/mol
# GULP energy per Si atom -12401.540419 kJ/mol
# Density = 2.005874 g / cm^3
# Si number density = 20.104496 Si / 1000 Ang^3
#
#
#
# Elastic Constant Matrix: (Units=GPa)
#
#
# Indices 1 2 3 4 5 6 
#
# 1 110.0925 3.9982 25.2261 0.0000 0.0000 -0.0001
# 2 3.9982 48.1693 6.1218 0.0000 0.0000 -0.0002
# 3 25.2261 6.1218 22.0519 0.0000 0.0000 -0.0001
# 4 0.0000 0.0000 0.0000 7.2951 0.0000 -0.0001
# 5 0.0000 0.0000 0.0000 0.0000 -39.1977 -0.0008
# 6 -0.0001 -0.0002 -0.0001 -0.0001 -0.0008 241.3044
#
#
#
# Elastic Compliance Matrix: (Units=1/GPa)
#
#
# Indices 1 2 3 4 5 6 
#
# 1 0.012339 0.000798 -0.014337 0.000000 0.000000 0.000000
# 2 0.000798 0.021571 -0.006901 0.000000 0.000000 0.000000
# 3 -0.014337 -0.006901 0.063664 0.000000 0.000000 0.000000
# 4 0.000000 0.000000 0.000000 0.137078 0.000000 0.000000
# 5 0.000000 0.000000 0.000000 0.000000 -0.025512 0.000000
# 6 0.000000 0.000000 0.000000 0.000000 0.000000 0.004144
#
#
# Mechanical properties :
#
#
# Convention : Reuss Voigt Hill
#
# Bulk Modulus (GPa) = 17.63854 27.88956 22.76405
# Shear Modulus (GPa) = 18.31081 51.54487 34.92784
#
# Velocity S-wave (km/s) = 3.02119 5.06894 4.17263
# Velocity P-wave (km/s) = 4.57849 6.93983 5.87894
#
# Compressibility (1/GPa) = 0.05669404
#
# Stress axis : x y z
#
# Youngs Moduli (GPa) = 81.04101 46.35874 15.70747
#
# Poissons Ratio (x) = -0.03699 0.22520
# Poissons Ratio (y) = -0.06466 0.10840
# Poissons Ratio (z) = 1.16189 0.31992
#
# Static dielectric constant tensor:
#      x y z
#    x 4.012390 0.000000 0.000000 
#    y 0.000000 3.871720 0.000000 
#    z 0.000000 0.000000 3.210440 
# 
# 
# High freq. dielectric constant tensor:
#      x y z
#    x 1.798380 0.000000 0.000000 
#    y 0.000000 1.795400 0.000000 
#    z 0.000000 0.000000 1.738440 
# 
# From -- ./inp_files/30479.got.cif
#   From: 2010.03.12/outbox.cif.g09.slc.cpg/sg72_16_cif.got.tgz:30479.got - 2010.04.16 14:54:00.
