data_PCOD8293240
_publ_section_title
;
Structure prediction by ZEFSAII (Michael W. Deem and Ramdas Pophale) SiO2 
 PCOD8293240
Probable space group: I B A M
;
_chemical_formula_sum "Si O2"
_cell_formula_units_Z 120
_cell_length_a 29.626531
_cell_length_b 12.582900
_cell_length_c 21.508517
_cell_angle_alpha 90.000000
_cell_angle_beta 90.000000
_cell_angle_gamma 90.000000
_cell_volume 8018.110086
_symmetry_space_group_name_H-M "I B A M"
_symmetry_group_IT_number 72
_symmetry_cell_setting 'orthorhombic'
loop_
_space_group_symop_operation_xyz
x,y,z
-x,-y,z
x,-y,1/2-z
-x,y,1/2-z
-x,-y,-z
x,y,-z
-x,y,1/2+z
x,-y,1/2+z
1/2+x,1/2+y,1/2+z
1/2-x,1/2-y,1/2+z
1/2+x,1/2-y,-z
1/2-x,1/2+y,-z
1/2-x,1/2-y,1/2-z
1/2+x,1/2+y,1/2-z
1/2-x,1/2+y,z
1/2+x,1/2-y,z
loop_
_atom_site_type_symbol
_atom_site_label
_atom_site_fract_x
_atom_site_fract_y
_atom_site_fract_z
Si Si1 0.818338 0.262132 0.427762
Si Si2 0.728156 0.451644 0.071015
Si Si3 0.784286 0.500000 0.250000
Si Si4 0.004507 0.381426 0.573868
Si Si5 0.408718 0.860820 0.072952
Si Si6 0.760651 0.859510 0.651722
Si Si7 0.397889 0.892155 0.572875
Si Si8 0.810153 0.645104 0.643384
O O1 0.812561 0.296677 0.500000
O O2 0.810486 0.136705 0.420187
O O3 0.868290 0.287872 0.400818
O O4 0.783737 0.328686 0.386719
O O5 0.712616 0.553786 0.110340
O O6 0.776099 0.405706 0.093648
O O7 0.733786 0.485713 0.000000
O O8 0.752440 0.586843 0.216874
O O9 0.815190 0.564838 0.298470
O O10 0.003786 0.384929 0.500000
O O11 0.054006 0.337358 0.593754
O O12 0.000000 0.500000 0.599951
O O13 0.958593 0.322285 0.598320
O O14 0.398944 0.983228 0.089301
O O15 0.409530 0.845833 0.000000
O O16 0.792520 0.759700 0.665987
O O17 0.388776 0.873726 0.500000
O O18 0.358563 0.836645 0.612019
#
# Coordination Sequence:
#
# PCOD8293240 Si02
#       8
#    16  16   8  16  16  16  16  16
#     4   9  16  25  40  62  83 105 133 161 194 235
#     4   9  17  27  39  59  84 106 130 161 196 236
#     4  10  20  32  42  54  75 104 141 172 196 232
#     4   7  11  19  32  54  83 109 129 150 181 227
#     4   8  12  20  35  56  84 112 132 151 180 225
#     4  10  19  30  42  56  78 106 135 167 200 233
#     4   9  15  23  38  62  86 105 128 156 192 239
#     4  10  19  29  42  58  78 106 134 165 201 235
#
# _framework density 14.96612
#
# number of rings (size 3 to 8) (size 9 to 14) (size 15 to 20)
#    0.000    3.067    0.000    4.400    0.000    2.667 
#    0.000    0.000    0.000    0.000    0.000   12.600 
#    0.000    5.333    0.000   11.333    0.000    1.333 
#
# Total GULP energy -743287.238277 kJ/mol
# GULP energy per Si atom -12388.120638 kJ/mol
# Density = 1.493206 g / cm^3
# Si number density = 14.966120 Si / 1000 Ang^3
#
#
#
# Elastic Constant Matrix: (Units=GPa)
#
#
# Indices 1 2 3 4 5 6 
#
# 1 129.9667 38.2435 28.2839 0.0000 0.0000 0.0000
# 2 38.2435 58.0089 21.3440 0.0000 0.0000 0.0000
# 3 28.2839 21.3440 49.6617 0.0000 0.0000 0.0000
# 4 0.0000 0.0000 0.0000 20.3196 0.0000 0.0000
# 5 0.0000 0.0000 0.0000 0.0000 9.0002 0.0000
# 6 0.0000 0.0000 0.0000 0.0000 0.0000 14.3006
#
#
#
# Elastic Compliance Matrix: (Units=1/GPa)
#
#
# Indices 1 2 3 4 5 6 
#
# 1 0.010008 -0.005346 -0.003402 0.000000 0.000000 0.000000
# 2 -0.005346 0.023333 -0.006983 0.000000 0.000000 0.000000
# 3 -0.003402 -0.006983 0.025075 0.000000 0.000000 0.000000
# 4 0.000000 0.000000 0.000000 0.049214 0.000000 0.000000
# 5 0.000000 0.000000 0.000000 0.000000 0.111108 0.000000
# 6 0.000000 0.000000 0.000000 0.000000 0.000000 0.069927
#
#
# Mechanical properties :
#
#
# Convention : Reuss Voigt Hill
#
# Bulk Modulus (GPa) = 37.10205 45.93112 41.51659
# Shear Modulus (GPa) = 15.19241 18.70849 16.95045
#
# Velocity S-wave (km/s) = 3.18955 3.53945 3.36905
# Velocity P-wave (km/s) = 6.19749 6.88914 6.55245
#
# Compressibility (1/GPa) = 0.02695269
#
# Stress axis : x y z
#
# Youngs Moduli (GPa) = 99.92253 42.85831 39.88005
#
# Poissons Ratio (x) = 0.22912 0.13567
# Poissons Ratio (y) = 0.53419 0.27850
# Poissons Ratio (z) = 0.33994 0.29930
#
# Static dielectric constant tensor:
#      x y z
#    x 3.369000 0.000000 0.000000 
#    y 0.000000 2.804380 0.000000 
#    z 0.000000 0.000000 2.673700 
# 
# 
# High freq. dielectric constant tensor:
#      x y z
#    x 1.567230 0.000000 0.000000 
#    y 0.000000 1.547010 0.000000 
#    z 0.000000 0.000000 1.546080 
# 
# From -- ./inp_files/46240.got.cif
#   From: 2010.03.12/outbox.cif.g09.slc.cpg/sg72_24_cif.got.tgz:46240.got - 2010.04.16 14:54:00.
