data_PCOD8293916
_publ_section_title
;
Structure prediction by ZEFSAII (Michael W. Deem and Ramdas Pophale) SiO2 
 PCOD8293916
Probable space group: I B A M
;
_chemical_formula_sum "Si O2"
_cell_formula_units_Z 104
_cell_length_a 23.728345
_cell_length_b 9.486479
_cell_length_c 22.969017
_cell_angle_alpha 90.000000
_cell_angle_beta 90.000000
_cell_angle_gamma 90.000000
_cell_volume 5170.290045
_symmetry_space_group_name_H-M "I B A M"
_symmetry_group_IT_number 72
_symmetry_cell_setting 'orthorhombic'
loop_
_space_group_symop_operation_xyz
x,y,z
-x,-y,z
x,-y,1/2-z
-x,y,1/2-z
-x,-y,-z
x,y,-z
-x,y,1/2+z
x,-y,1/2+z
1/2+x,1/2+y,1/2+z
1/2-x,1/2-y,1/2+z
1/2+x,1/2-y,-z
1/2-x,1/2+y,-z
1/2-x,1/2-y,1/2-z
1/2+x,1/2+y,1/2-z
1/2-x,1/2+y,z
1/2+x,1/2-y,z
loop_
_atom_site_type_symbol
_atom_site_label
_atom_site_fract_x
_atom_site_fract_y
_atom_site_fract_z
Si Si1 0.123969 0.318017 0.393830
Si Si2 0.291631 0.576956 0.431994
Si Si3 0.842192 0.871677 0.160028
Si Si4 0.063925 0.052571 0.626960
Si Si5 0.734802 0.500000 0.750000
Si Si6 0.189252 0.574119 0.646063
Si Si7 0.054487 0.601880 0.000000
Si Si8 0.943659 0.078645 0.000000
O O1 0.173568 0.220334 0.419817
O O2 0.077987 0.218016 0.358850
O O3 0.153192 0.430017 0.350981
O O4 0.093255 0.414993 0.442579
O O5 0.293790 0.541166 0.500000
O O6 0.313157 0.443870 0.395371
O O7 0.226657 0.595052 0.412043
O O8 0.852948 0.707074 0.148391
O O9 0.902439 0.948357 0.169248
O O10 0.804820 0.886687 0.217830
O O11 0.089145 0.041224 0.559688
O O12 0.000000 0.000000 0.630840
O O13 0.771442 0.417331 0.702813
O O14 0.000000 0.500000 0.000000
O O15 0.034028 0.762053 0.000000
O O16 0.000000 0.000000 0.000000
#
# Coordination Sequence:
#
# PCOD8293916 Si02
#       8
#    16  16  16  16   8  16   8   8
#     4  10  21  36  56  86 124 162 200 242 305 367
#     4  10  20  37  56  80 123 163 191 235 305 378
#     4  10  22  36  61  87 109 150 209 247 289 363
#     4   9  19  37  58  82 115 160 201 238 293 354
#     4  10  22  44  61  80 119 158 194 244 316 378
#     4  11  23  36  59  91 117 153 195 257 310 362
#     4  10  20  34  52  80 121 164 199 238 288 348
#     4   8  16  32  54  74 107 154 193 230 278 336
#
# _framework density 20.114926000000001
#
# number of rings (size 3 to 8) (size 9 to 14) (size 15 to 20)
#    0.000    2.154    0.769    2.308    4.308    8.000 
#    0.000    0.385    0.000    0.000    0.000    3.769 
#    0.000    0.000    0.000    0.000    0.000    0.000 
#
# Total GULP energy -644189.932378 kJ/mol
# GULP energy per Si atom -12388.267930 kJ/mol
# Density = 2.006914 g / cm^3
# Si number density = 20.114926 Si / 1000 Ang^3
#
#
#
# Elastic Constant Matrix: (Units=GPa)
#
#
# Indices 1 2 3 4 5 6 
#
# 1 103.9807 64.6516 33.8070 0.0000 0.0000 0.0000
# 2 64.6516 117.6382 43.2753 0.0000 0.0000 0.0000
# 3 33.8070 43.2753 86.0218 0.0000 0.0000 0.0000
# 4 0.0000 0.0000 0.0000 14.9458 0.0000 0.0000
# 5 0.0000 0.0000 0.0000 0.0000 23.7302 0.0000
# 6 0.0000 0.0000 0.0000 0.0000 0.0000 39.7240
#
#
#
# Elastic Compliance Matrix: (Units=1/GPa)
#
#
# Indices 1 2 3 4 5 6 
#
# 1 0.014922 -0.007416 -0.002134 0.000000 0.000000 0.000000
# 2 -0.007416 0.014117 -0.004187 0.000000 0.000000 0.000000
# 3 -0.002134 -0.004187 0.014570 0.000000 0.000000 0.000000
# 4 0.000000 0.000000 0.000000 0.066909 0.000000 0.000000
# 5 0.000000 0.000000 0.000000 0.000000 0.042140 0.000000
# 6 0.000000 0.000000 0.000000 0.000000 0.000000 0.025174
#
#
# Mechanical properties :
#
#
# Convention : Reuss Voigt Hill
#
# Bulk Modulus (GPa) = 61.97718 65.67874 63.82796
# Shear Modulus (GPa) = 23.73240 26.74045 25.23642
#
# Velocity S-wave (km/s) = 3.43861 3.65003 3.54589
# Velocity P-wave (km/s) = 6.82963 7.10537 6.96886
#
# Compressibility (1/GPa) = 0.01613497
#
# Stress axis : x y z
#
# Youngs Moduli (GPa) = 67.01627 70.83880 68.63432
#
# Poissons Ratio (x) = 0.52533 0.14644
# Poissons Ratio (y) = 0.49698 0.28739
# Poissons Ratio (z) = 0.14299 0.29662
#
# Static dielectric constant tensor:
#      x y z
#    x 3.682710 0.000000 0.000000 
#    y 0.000000 3.552880 0.000000 
#    z 0.000000 0.000000 3.529470 
# 
# 
# High freq. dielectric constant tensor:
#      x y z
#    x 1.777970 0.000000 0.000000 
#    y 0.000000 1.781760 0.000000 
#    z 0.000000 0.000000 1.766410 
# 
# From -- ./inp_files/45970.got.cif
#   From: 2010.03.12/outbox.cif.g09.slc.cpg/sg72_23_cif.got.tgz:45970.got - 2010.04.16 14:54:00.
