data_PCOD8293439
_publ_section_title
;
Structure prediction by ZEFSAII (Michael W. Deem and Ramdas Pophale) SiO2 
 PCOD8293439
Probable space group: I B A M
;
_chemical_formula_sum "Si O2"
_cell_formula_units_Z 88
_cell_length_a 15.910468
_cell_length_b 19.176832
_cell_length_c 15.958893
_cell_angle_alpha 90.000000
_cell_angle_beta 90.000000
_cell_angle_gamma 90.000000
_cell_volume 4869.255696
_symmetry_space_group_name_H-M "I B A M"
_symmetry_group_IT_number 72
_symmetry_cell_setting 'orthorhombic'
loop_
_space_group_symop_operation_xyz
x,y,z
-x,-y,z
x,-y,1/2-z
-x,y,1/2-z
-x,-y,-z
x,y,-z
-x,y,1/2+z
x,-y,1/2+z
1/2+x,1/2+y,1/2+z
1/2-x,1/2-y,1/2+z
1/2+x,1/2-y,-z
1/2-x,1/2+y,-z
1/2-x,1/2-y,1/2-z
1/2+x,1/2+y,1/2-z
1/2-x,1/2+y,z
1/2+x,1/2-y,z
loop_
_atom_site_type_symbol
_atom_site_label
_atom_site_fract_x
_atom_site_fract_y
_atom_site_fract_z
Si Si1 0.029275 0.422723 0.098966
Si Si2 0.795503 0.000000 0.250000
Si Si3 0.070324 0.301339 0.686862
Si Si4 0.905973 0.975629 0.405268
Si Si5 0.846642 0.177176 0.904907
Si Si6 0.808509 0.373079 0.693425
O O1 0.122431 0.407927 0.132878
O O2 0.000000 0.500000 0.126171
O O3 0.963110 0.368459 0.136959
O O4 0.030623 0.414346 0.000000
O O5 0.849424 0.987826 0.165395
O O6 0.738122 0.067244 0.244320
O O7 0.094631 0.239801 0.624975
O O8 0.152073 0.321729 0.739072
O O9 0.000000 0.272418 0.750000
O O10 0.875673 0.995993 0.500000
O O11 0.901151 0.892662 0.393202
O O12 0.000000 0.000000 0.390074
O O13 0.757681 0.172565 0.858427
O O14 0.823252 0.191698 0.000000
#
# Coordination Sequence:
#
# PCOD8293439 Si02
#       6
#    16   8  16  16  16  16
#     4  10  20  35  56  79 105 140 181 222 265 317
#     4  10  19  32  55  78 104 140 174 214 269 320
#     4  10  21  35  53  76 104 137 176 218 262 317
#     4   9  19  35  54  78 106 137 176 219 262 315
#     4  10  20  35  54  75 104 138 172 213 263 316
#     4  10  20  34  52  77 107 137 172 218 267 315
#
# _framework density 18.072576999999999
#
# number of rings (size 3 to 8) (size 9 to 14) (size 15 to 20)
#    0.000    2.182    0.000    3.000    0.000    6.182 
#    0.000    1.818    0.000    4.364    0.000    0.000 
#    0.000    0.000    0.000    0.000    0.000    0.000 
#
# Total GULP energy -545649.843224 kJ/mol
# GULP energy per Si atom -12401.132801 kJ/mol
# Density = 1.803144 g / cm^3
# Si number density = 18.072577 Si / 1000 Ang^3
#
#
#
# Elastic Constant Matrix: (Units=GPa)
#
#
# Indices 1 2 3 4 5 6 
#
# 1 116.5707 62.2670 60.0269 0.0000 0.0000 0.0000
# 2 62.2670 99.9397 59.8663 0.0000 0.0000 0.0000
# 3 60.0269 59.8663 116.6698 0.0000 0.0000 0.0000
# 4 0.0000 0.0000 0.0000 34.9009 0.0000 0.0000
# 5 0.0000 0.0000 0.0000 0.0000 16.4658 0.0000
# 6 0.0000 0.0000 0.0000 0.0000 0.0000 10.5825
#
#
#
# Elastic Compliance Matrix: (Units=1/GPa)
#
#
# Indices 1 2 3 4 5 6 
#
# 1 0.014009 -0.006368 -0.003940 0.000000 0.000000 0.000000
# 2 -0.006368 0.017341 -0.005622 0.000000 0.000000 0.000000
# 3 -0.003940 -0.005622 0.013483 0.000000 0.000000 0.000000
# 4 0.000000 0.000000 0.000000 0.028653 0.000000 0.000000
# 5 0.000000 0.000000 0.000000 0.000000 0.060732 0.000000
# 6 0.000000 0.000000 0.000000 0.000000 0.000000 0.094496
#
#
# Mechanical properties :
#
#
# Convention : Reuss Voigt Hill
#
# Bulk Modulus (GPa) = 77.08088 77.50006 77.29047
# Shear Modulus (GPa) = 18.87520 22.45784 20.66652
#
# Velocity S-wave (km/s) = 3.23524 3.52894 3.38528
# Velocity P-wave (km/s) = 7.52988 7.71883 7.62494
#
# Compressibility (1/GPa) = 0.01297339
#
# Stress axis : x y z
#
# Youngs Moduli (GPa) = 71.38344 57.66604 74.16707
#
# Poissons Ratio (x) = 0.36722 0.29222
# Poissons Ratio (y) = 0.45457 0.41696
# Poissons Ratio (z) = 0.28125 0.32419
#
# Static dielectric constant tensor:
#      x y z
#    x 3.425340 0.000000 0.000000 
#    y 0.000000 3.275670 0.000000 
#    z 0.000000 0.000000 3.537920 
# 
# 
# High freq. dielectric constant tensor:
#      x y z
#    x 1.707340 0.000000 0.000000 
#    y 0.000000 1.694960 0.000000 
#    z 0.000000 0.000000 1.716090 
# 
# From -- ./inp_files/21656.got.cif
#   From: 2010.03.12/outbox.cif.g09.slc.cpg/sg72_11_cif.got.tgz:21656.got - 2010.04.16 14:54:00.
