data_PCOD8293153
_publ_section_title
;
Structure prediction by ZEFSAII (Michael W. Deem and Ramdas Pophale) SiO2 
 PCOD8293153
Probable space group: I B A M
;
_chemical_formula_sum "Si O2"
_cell_formula_units_Z 80
_cell_length_a 14.873951
_cell_length_b 8.840393
_cell_length_c 27.633942
_cell_angle_alpha 90.000000
_cell_angle_beta 90.000000
_cell_angle_gamma 90.000000
_cell_volume 3633.630483
_symmetry_space_group_name_H-M "I B A M"
_symmetry_group_IT_number 72
_symmetry_cell_setting 'orthorhombic'
loop_
_space_group_symop_operation_xyz
x,y,z
-x,-y,z
x,-y,1/2-z
-x,y,1/2-z
-x,-y,-z
x,y,-z
-x,y,1/2+z
x,-y,1/2+z
1/2+x,1/2+y,1/2+z
1/2-x,1/2-y,1/2+z
1/2+x,1/2-y,-z
1/2-x,1/2+y,-z
1/2-x,1/2-y,1/2-z
1/2+x,1/2+y,1/2-z
1/2-x,1/2+y,z
1/2+x,1/2-y,z
loop_
_atom_site_type_symbol
_atom_site_label
_atom_site_fract_x
_atom_site_fract_y
_atom_site_fract_z
Si Si1 0.544500 0.162672 0.850396
Si Si2 0.133536 0.329344 0.946752
Si Si3 0.316682 0.171401 0.946302
Si Si4 0.787633 0.527742 0.806553
Si Si5 0.362881 0.723015 0.652605
O O1 0.562622 0.214168 0.905507
O O2 0.635655 0.155299 0.818336
O O3 0.467326 0.275485 0.828880
O O4 0.500000 0.000000 0.851359
O O5 0.211099 0.205251 0.945196
O O6 0.173105 0.494457 0.934100
O O7 0.087371 0.330078 0.000000
O O8 0.365914 0.274687 0.906067
O O9 0.355390 0.209502 0.000000
O O10 0.783060 0.500000 0.750000
O O11 0.689873 0.580315 0.825730
O O12 0.808437 0.371797 0.832302
#
# Coordination Sequence:
#
# PCOD8293153 Si02
#       5
#    16  16  16  16  16
#     4  10  20  35  59  90 118 155 206 254 299 360
#     4  10  19  33  57  88 124 163 206 250 307 367
#     4  10  18  32  57  88 124 163 202 248 305 372
#     4  11  23  41  63  88 120 160 204 256 314 362
#     4  11  21  39  63  89 120 162 204 254 309 368
#
# _framework density 22.016548
#
# number of rings (size 3 to 8) (size 9 to 14) (size 15 to 20)
#    0.000    1.600    6.000    0.600    0.000    4.800 
#    0.000    1.000    0.000    1.200    0.000    8.400 
#    0.000    0.000    0.000    0.000    0.000    0.000 
#
# Total GULP energy -495749.137351 kJ/mol
# GULP energy per Si atom -12393.728434 kJ/mol
# Density = 2.196644 g / cm^3
# Si number density = 22.016548 Si / 1000 Ang^3
#
#
#
# Elastic Constant Matrix: (Units=GPa)
#
#
# Indices 1 2 3 4 5 6 
#
# 1 86.6733 17.4294 30.5074 0.0000 0.0000 0.0000
# 2 17.4294 7.5135 52.8821 0.0000 0.0000 0.0000
# 3 30.5074 52.8821 95.8546 0.0000 0.0000 0.0000
# 4 0.0000 0.0000 0.0000 15.8407 0.0000 0.0000
# 5 0.0000 0.0000 0.0000 0.0000 7.1445 0.0000
# 6 0.0000 0.0000 0.0000 0.0000 0.0000 19.0017
#
#
#
# Elastic Compliance Matrix: (Units=1/GPa)
#
#
# Indices 1 2 3 4 5 6 
#
# 1 0.012990 0.000359 -0.004333 0.000000 0.000000 0.000000
# 2 0.000359 -0.046156 0.025350 0.000000 0.000000 0.000000
# 3 -0.004333 0.025350 -0.002174 0.000000 0.000000 0.000000
# 4 0.000000 0.000000 0.000000 0.063128 0.000000 0.000000
# 5 0.000000 0.000000 0.000000 0.000000 0.139968 0.000000
# 6 0.000000 0.000000 0.000000 0.000000 0.000000 0.052627
#
#
# Mechanical properties :
#
#
# Convention : Reuss Voigt Hill
#
# Bulk Modulus (GPa) = 134.90056 43.51991 89.21023
# Shear Modulus (GPa) = 27.76190 14.34554 21.05372
#
# Velocity S-wave (km/s) = 3.55485 2.55538 3.09571
# Velocity P-wave (km/s) = 8.84616 5.34008 7.30654
#
# Compressibility (1/GPa) = 0.00741287
#
# Stress axis : x y z
#
# Youngs Moduli (GPa) = 76.98036 -21.66566 -460.03718
#
# Poissons Ratio (x) = 0.00778 -1.99312
# Poissons Ratio (y) = -0.02764 11.66173
# Poissons Ratio (z) = 0.33352 0.54921
#
# Static dielectric constant tensor:
#      x y z
#    x 4.289840 0.000000 0.000000 
#    y 0.000000 3.682210 0.000000 
#    z 0.000000 0.000000 4.729720 
# 
# 
# High freq. dielectric constant tensor:
#      x y z
#    x 1.860810 0.000000 0.000000 
#    y 0.000000 1.827680 0.000000 
#    z 0.000000 0.000000 1.874450 
# 
# From -- ./inp_files/48546.got.cif
#   From: 2010.03.12/outbox.cif.g09.slc.cpg/sg72_25_cif.got.tgz:48546.got - 2010.04.16 14:54:00.
