data_PCOD8293650
_publ_section_title
;
Structure prediction by ZEFSAII (Michael W. Deem and Ramdas Pophale) SiO2 
 PCOD8293650
Probable space group: I B A M
;
_chemical_formula_sum "Si O2"
_cell_formula_units_Z 96
_cell_length_a 18.762722
_cell_length_b 29.238541
_cell_length_c 9.068964
_cell_angle_alpha 90.000000
_cell_angle_beta 90.000000
_cell_angle_gamma 90.000000
_cell_volume 4975.184827
_symmetry_space_group_name_H-M "I B A M"
_symmetry_group_IT_number 72
_symmetry_cell_setting 'orthorhombic'
loop_
_space_group_symop_operation_xyz
x,y,z
-x,-y,z
x,-y,1/2-z
-x,y,1/2-z
-x,-y,-z
x,y,-z
-x,y,1/2+z
x,-y,1/2+z
1/2+x,1/2+y,1/2+z
1/2-x,1/2-y,1/2+z
1/2+x,1/2-y,-z
1/2-x,1/2+y,-z
1/2-x,1/2-y,1/2-z
1/2+x,1/2+y,1/2-z
1/2-x,1/2+y,z
1/2+x,1/2-y,z
loop_
_atom_site_type_symbol
_atom_site_label
_atom_site_fract_x
_atom_site_fract_y
_atom_site_fract_z
Si Si1 0.429193 0.327145 0.167330
Si Si2 0.069772 0.064564 0.669127
Si Si3 0.209276 0.042277 0.172362
Si Si4 0.775206 0.795232 0.671553
Si Si5 0.425990 0.046673 0.673230
Si Si6 0.797358 0.387868 0.331759
O O1 0.500000 0.308378 0.250000
O O2 0.424326 0.381204 0.179685
O O3 0.354032 0.308566 0.233314
O O4 0.438034 0.310950 0.000000
O O5 0.072259 0.048139 0.500000
O O6 0.130842 0.041087 0.762446
O O7 0.000000 0.046552 0.750000
O O8 0.245223 0.089536 0.214654
O O9 0.251375 0.000000 0.250000
O O10 0.209133 0.035053 0.000000
O O11 0.782346 0.785172 0.500000
O O12 0.750000 0.750000 0.750000
O O13 0.713644 0.833872 0.698102
O O14 0.500000 0.060092 0.750000
O O15 0.436801 0.036788 0.500000
O O16 0.375839 0.091274 0.697043
O O17 0.396103 0.000000 0.750000
O O18 0.773306 0.399088 0.500000
#
# Coordination Sequence:
#
# PCOD8293650 Si02
#       6
#    16  16  16  16  16  16
#     4   9  18  34  58  82 111 147 186 232 281 335
#     4  10  19  35  55  78 110 147 188 233 278 327
#     4  12  24  36  54  81 112 150 192 233 281 336
#     4  10  21  39  60  86 117 151 189 240 298 348
#     4  10  20  35  59  86 117 154 191 234 288 349
#     4  10  21  40  60  81 114 152 188 238 295 342
#
# _framework density 19.295766
#
# number of rings (size 3 to 8) (size 9 to 14) (size 15 to 20)
#    0.000    1.833    1.667    3.500    0.000    5.000 
#    0.000    2.500    0.000    4.000    0.000    0.000 
#    0.000    0.000    0.000    0.000    0.000    0.000 
#
# Total GULP energy -594903.166108 kJ/mol
# GULP energy per Si atom -12393.815961 kJ/mol
# Density = 1.925185 g / cm^3
# Si number density = 19.295766 Si / 1000 Ang^3
#
#
#
# Elastic Constant Matrix: (Units=GPa)
#
#
# Indices 1 2 3 4 5 6 
#
# 1 118.9269 56.5421 52.2392 0.0000 0.0001 0.0000
# 2 56.5421 104.8792 54.6624 0.0000 0.0000 0.0001
# 3 52.2392 54.6624 131.3114 -0.0015 -0.0025 -0.0013
# 4 0.0000 0.0000 -0.0015 31.2608 -0.0003 0.0000
# 5 0.0001 0.0000 -0.0025 -0.0003 32.0685 -0.0004
# 6 0.0000 0.0001 -0.0013 0.0000 -0.0004 22.0409
#
#
#
# Elastic Compliance Matrix: (Units=1/GPa)
#
#
# Indices 1 2 3 4 5 6 
#
# 1 0.011990 -0.005080 -0.002655 0.000000 0.000000 0.000000
# 2 -0.005080 0.014329 -0.003944 0.000000 0.000000 0.000000
# 3 -0.002655 -0.003944 0.010314 0.000001 0.000001 0.000001
# 4 0.000000 0.000000 0.000001 0.031989 0.000000 0.000000
# 5 0.000000 0.000000 0.000001 0.000000 0.031183 0.000001
# 6 0.000000 0.000000 0.000001 0.000000 0.000001 0.045370
#
#
# Mechanical properties :
#
#
# Convention : Reuss Voigt Hill
#
# Bulk Modulus (GPa) = 75.33398 75.77831 75.55614
# Shear Modulus (GPa) = 28.90867 29.85230 29.38048
#
# Velocity S-wave (km/s) = 3.87484 3.93757 3.90633
# Velocity P-wave (km/s) = 7.69062 7.74790 7.71931
#
# Compressibility (1/GPa) = 0.01327422
#
# Stress axis : x y z
#
# Youngs Moduli (GPa) = 83.40174 69.78793 96.95960
#
# Poissons Ratio (x) = 0.35454 0.25745
# Poissons Ratio (y) = 0.42370 0.38240
# Poissons Ratio (z) = 0.22145 0.27524
#
# Static dielectric constant tensor:
#      x y z
#    x 3.673080 0.000000 0.000000 
#    y 0.000000 3.472810 0.000000 
#    z 0.000000 0.000000 3.559620 
# 
# 
# High freq. dielectric constant tensor:
#      x y z
#    x 1.755160 0.000000 0.000000 
#    y 0.000000 1.734470 0.000000 
#    z 0.000000 0.000000 1.752730 
# 
# From -- ./inp_files/5985.got.cif
#   From: 2010.03.12/outbox.cif.g09.slc.cpg/sg72_3_cif.got.tgz:5985.got - 2010.04.16 14:54:00.
