data_PCOD8293192
_publ_section_title
;
Structure prediction by ZEFSAII (Michael W. Deem and Ramdas Pophale) SiO2 
 PCOD8293192
Probable space group: I B A M
;
_chemical_formula_sum "Si O2"
_cell_formula_units_Z 80
_cell_length_a 11.573968
_cell_length_b 23.574854
_cell_length_c 15.445567
_cell_angle_alpha 90.000000
_cell_angle_beta 90.000000
_cell_angle_gamma 90.000000
_cell_volume 4214.394095
_symmetry_space_group_name_H-M "I B A M"
_symmetry_group_IT_number 72
_symmetry_cell_setting 'orthorhombic'
loop_
_space_group_symop_operation_xyz
x,y,z
-x,-y,z
x,-y,1/2-z
-x,y,1/2-z
-x,-y,-z
x,y,-z
-x,y,1/2+z
x,-y,1/2+z
1/2+x,1/2+y,1/2+z
1/2-x,1/2-y,1/2+z
1/2+x,1/2-y,-z
1/2-x,1/2+y,-z
1/2-x,1/2-y,1/2-z
1/2+x,1/2+y,1/2-z
1/2-x,1/2+y,z
1/2+x,1/2-y,z
loop_
_atom_site_type_symbol
_atom_site_label
_atom_site_fract_x
_atom_site_fract_y
_atom_site_fract_z
Si Si1 0.502403 0.849793 0.848446
Si Si2 0.134688 0.933909 0.247607
Si Si3 0.240964 0.373880 0.404187
Si Si4 0.755890 0.861908 0.600003
Si Si5 0.653524 0.757534 0.099202
O O1 0.500000 0.869798 0.750000
O O2 0.602996 0.886787 0.895146
O O3 0.382149 0.861856 0.894847
O O4 0.538299 0.782578 0.853929
O O5 0.186344 0.906049 0.333040
O O6 0.190322 0.910674 0.159250
O O7 0.000000 0.920631 0.250000
O O8 0.162100 0.000000 0.250000
O O9 0.282474 0.393030 0.500000
O O10 0.255292 0.305329 0.392262
O O11 0.791617 0.872089 0.500000
O O12 0.803323 0.802028 0.638112
O O13 0.620299 0.747713 0.000000
#
# Coordination Sequence:
#
# PCOD8293192 Si02
#       5
#    16  16  16  16  16
#     4  10  18  34  61  92 127 158 191 247 298 358
#     4  11  26  44  60  85 118 157 213 262 295 353
#     4   9  19  40  63  86 122 162 193 242 310 359
#     4  11  21  38  63  93 126 160 200 246 302 364
#     4   8  18  33  55  91 128 157 186 232 295 361
#
# _framework density 18.982564
#
# number of rings (size 3 to 8) (size 9 to 14) (size 15 to 20)
#    1.200    1.000    2.000    1.200    0.000    7.200 
#    0.000    8.000    0.000    2.400    0.000    0.000 
#    0.000    0.000    0.000    0.000    0.000    0.000 
#
# Total GULP energy -495570.178797 kJ/mol
# GULP energy per Si atom -12389.254470 kJ/mol
# Density = 1.893936 g / cm^3
# Si number density = 18.982564 Si / 1000 Ang^3
#
#
#
# Elastic Constant Matrix: (Units=GPa)
#
#
# Indices 1 2 3 4 5 6 
#
# 1 102.0542 66.6188 48.6643 0.0000 0.0000 0.0000
# 2 66.6188 95.7159 59.5111 -0.0001 0.0000 0.0001
# 3 48.6643 59.5111 129.4882 -0.0004 0.0000 0.0006
# 4 0.0000 -0.0001 -0.0004 22.6523 0.0000 0.0002
# 5 0.0000 0.0000 0.0000 0.0000 15.7225 -0.0001
# 6 0.0000 0.0001 0.0006 0.0002 -0.0001 54.0283
#
#
#
# Elastic Compliance Matrix: (Units=1/GPa)
#
#
# Indices 1 2 3 4 5 6 
#
# 1 0.018142 -0.011744 -0.001421 0.000000 0.000000 0.000000
# 2 -0.011744 0.022229 -0.005803 0.000000 0.000000 0.000000
# 3 -0.001421 -0.005803 0.010924 0.000000 0.000000 0.000000
# 4 0.000000 0.000000 0.000000 0.044146 0.000000 0.000000
# 5 0.000000 0.000000 0.000000 0.000000 0.063603 0.000000
# 6 0.000000 0.000000 0.000000 0.000000 0.000000 0.018509
#
#
# Mechanical properties :
#
#
# Convention : Reuss Voigt Hill
#
# Bulk Modulus (GPa) = 74.84884 75.20519 75.02702
# Shear Modulus (GPa) = 22.73340 28.64489 25.68914
#
# Velocity S-wave (km/s) = 3.46438 3.88881 3.68272
# Velocity P-wave (km/s) = 7.45107 7.73743 7.59560
#
# Compressibility (1/GPa) = 0.01336026
#
# Stress axis : x y z
#
# Youngs Moduli (GPa) = 55.11972 44.98628 91.54499
#
# Poissons Ratio (x) = 0.52830 0.13009
# Poissons Ratio (y) = 0.64731 0.53120
# Poissons Ratio (z) = 0.07833 0.26104
#
# Static dielectric constant tensor:
#      x y z
#    x 3.355530 0.000000 0.000000 
#    y 0.000000 3.330840 0.000000 
#    z 0.000000 0.000000 3.449450 
# 
# 
# High freq. dielectric constant tensor:
#      x y z
#    x 1.728880 0.000000 0.000000 
#    y 0.000000 1.708030 0.000000 
#    z 0.000000 0.000000 1.749140 
# 
# From -- ./inp_files/20212.got.cif
#   From: 2010.03.12/outbox.cif.g09.slc.cpg/sg72_11_cif.got.tgz:20212.got - 2010.04.16 14:54:00.
