data_PCOD8293141
_publ_section_title
;
Structure prediction by ZEFSAII (Michael W. Deem and Ramdas Pophale) SiO2 
 PCOD8293141
Probable space group: I B A M
;
_chemical_formula_sum "Si O2"
_cell_formula_units_Z 64
_cell_length_a 18.307137
_cell_length_b 9.173053
_cell_length_c 21.024170
_cell_angle_alpha 90.000000
_cell_angle_beta 90.000000
_cell_angle_gamma 90.000000
_cell_volume 3530.638022
_symmetry_space_group_name_H-M "I B A M"
_symmetry_group_IT_number 72
_symmetry_cell_setting 'orthorhombic'
loop_
_space_group_symop_operation_xyz
x,y,z
-x,-y,z
x,-y,1/2-z
-x,y,1/2-z
-x,-y,-z
x,y,-z
-x,y,1/2+z
x,-y,1/2+z
1/2+x,1/2+y,1/2+z
1/2-x,1/2-y,1/2+z
1/2+x,1/2-y,-z
1/2-x,1/2+y,-z
1/2-x,1/2-y,1/2-z
1/2+x,1/2+y,1/2-z
1/2-x,1/2+y,z
1/2+x,1/2-y,z
loop_
_atom_site_type_symbol
_atom_site_label
_atom_site_fract_x
_atom_site_fract_y
_atom_site_fract_z
Si Si1 0.826866 0.535813 0.682209
Si Si2 0.581092 0.531304 0.574113
Si Si3 0.650402 0.837839 0.572507
Si Si4 0.794669 0.152732 0.863121
O O1 0.865118 0.500000 0.750000
O O2 0.871969 0.466793 0.622170
O O3 0.821233 0.708449 0.676317
O O4 0.746146 0.461455 0.683458
O O5 0.500000 0.500000 0.599900
O O6 0.586894 0.498149 0.500000
O O7 0.601766 0.697831 0.588908
O O8 0.634409 0.420455 0.608289
O O9 0.637451 0.890465 0.500000
O O10 0.736619 0.798253 0.581879
#
# Coordination Sequence:
#
# PCOD8293141 Si02
#       4
#    16  16  16  16
#     4  10  20  33  56  83 109 143 187 231 271 318
#     4  10  20  35  55  83 117 146 178 226 282 330
#     4   9  18  33  54  82 109 140 185 230 266 321
#     4  10  18  32  56  80 108 141 182 230 268 319
#
# _framework density 18.127034999999999
#
# number of rings (size 3 to 8) (size 9 to 14) (size 15 to 20)
#    1.500    0.750    2.500    1.500    0.000    2.000 
#    0.000    1.250    0.000   12.750    0.000    0.000 
#    0.000    0.000    0.000    0.000    0.000    0.000 
#
# Total GULP energy -396533.400064 kJ/mol
# GULP energy per Si atom -12391.668752 kJ/mol
# Density = 1.808578 g / cm^3
# Si number density = 18.127035 Si / 1000 Ang^3
#
#
#
# Elastic Constant Matrix: (Units=GPa)
#
#
# Indices 1 2 3 4 5 6 
#
# 1 64.0070 15.7502 20.1265 0.0000 0.0000 0.0000
# 2 15.7502 79.8604 38.1182 0.0000 0.0000 0.0000
# 3 20.1265 38.1182 96.3396 0.0000 0.0000 0.0000
# 4 0.0000 0.0000 0.0000 26.2030 0.0000 0.0000
# 5 0.0000 0.0000 0.0000 0.0000 7.6456 0.0000
# 6 0.0000 0.0000 0.0000 0.0000 0.0000 25.3380
#
#
#
# Elastic Compliance Matrix: (Units=1/GPa)
#
#
# Indices 1 2 3 4 5 6 
#
# 1 0.016988 -0.002042 -0.002741 0.000000 0.000000 0.000000
# 2 -0.002042 0.015683 -0.005778 0.000000 0.000000 0.000000
# 3 -0.002741 -0.005778 0.013239 0.000000 0.000000 0.000000
# 4 0.000000 0.000000 0.000000 0.038164 0.000000 0.000000
# 5 0.000000 0.000000 0.000000 0.000000 0.130794 0.000000
# 6 0.000000 0.000000 0.000000 0.000000 0.000000 0.039466
#
#
# Mechanical properties :
#
#
# Convention : Reuss Voigt Hill
#
# Bulk Modulus (GPa) = 40.34488 43.13298 41.73893
# Shear Modulus (GPa) = 17.62312 22.91814 20.27063
#
# Velocity S-wave (km/s) = 3.12140 3.55957 3.34766
# Velocity P-wave (km/s) = 5.94103 6.38283 6.16589
#
# Compressibility (1/GPa) = 0.02478629
#
# Stress axis : x y z
#
# Youngs Moduli (GPa) = 58.86630 63.76450 75.53494
#
# Poissons Ratio (x) = 0.13021 0.20704
# Poissons Ratio (y) = 0.12021 0.43648
# Poissons Ratio (z) = 0.16135 0.36846
#
# Static dielectric constant tensor:
#      x y z
#    x 3.092950 0.000000 0.000000 
#    y 0.000000 3.246400 0.000000 
#    z 0.000000 0.000000 3.228020 
# 
# 
# High freq. dielectric constant tensor:
#      x y z
#    x 1.662410 0.000000 0.000000 
#    y 0.000000 1.707390 0.000000 
#    z 0.000000 0.000000 1.695590 
# 
# From -- ./inp_files/40057.got.cif
#   From: 2010.03.12/outbox.cif.g09.slc.cpg/sg72_21_cif.got.tgz:40057.got - 2010.04.16 14:54:00.
