data_PCOD8293857
_publ_section_title
;
Structure prediction by ZEFSAII (Michael W. Deem and Ramdas Pophale) SiO2 
 PCOD8293857
Probable space group: I B A M
;
_chemical_formula_sum "Si O2"
_cell_formula_units_Z 52
_cell_length_a 13.577304
_cell_length_b 24.343490
_cell_length_c 9.419587
_cell_angle_alpha 90.000000
_cell_angle_beta 90.000000
_cell_angle_gamma 90.000000
_cell_volume 3113.352138
_symmetry_space_group_name_H-M "I B A M"
_symmetry_group_IT_number 72
_symmetry_cell_setting 'orthorhombic'
loop_
_space_group_symop_operation_xyz
x,y,z
-x,-y,z
x,-y,1/2-z
-x,y,1/2-z
-x,-y,-z
x,y,-z
-x,y,1/2+z
x,-y,1/2+z
1/2+x,1/2+y,1/2+z
1/2-x,1/2-y,1/2+z
1/2+x,1/2-y,-z
1/2-x,1/2+y,-z
1/2-x,1/2-y,1/2-z
1/2+x,1/2+y,1/2-z
1/2-x,1/2+y,z
1/2+x,1/2-y,z
loop_
_atom_site_type_symbol
_atom_site_label
_atom_site_fract_x
_atom_site_fract_y
_atom_site_fract_z
Si Si1 0.690079 0.451669 0.657613
Si Si2 0.500000 0.500000 0.250000
Si Si3 0.748073 0.167902 0.835737
Si Si4 0.599729 0.235889 0.665235
O O1 0.741285 0.500000 0.750000
O O2 0.731757 0.457339 0.500000
O O3 0.571012 0.460381 0.656764
O O4 0.717016 0.391867 0.717820
O O5 0.657990 0.185183 0.735443
O O6 0.839479 0.208417 0.815483
O O7 0.713774 0.167646 0.000000
O O8 0.500000 0.244752 0.750000
O O9 0.579505 0.222769 0.500000
#
# Coordination Sequence:
#
# PCOD8293857 Si02
#       4
#    16   4  16  16
#     4   9  18  30  47  70 100 131 161 198 239 291
#     4   8  18  28  46  72 100 128 162 196 240 296
#     4   9  19  35  50  72 103 134 168 203 244 295
#     4  10  20  33  52  75  99 132 168 207 250 293
#
# _framework density 16.702255000000001
#
# number of rings (size 3 to 8) (size 9 to 14) (size 15 to 20)
#    0.923    1.846    0.000    1.385    2.154    2.462 
#    0.000    0.000    0.000    0.923    0.000    6.462 
#    0.000    0.000    0.000    0.000    0.000    0.000 
#
# Total GULP energy -322201.957492 kJ/mol
# GULP energy per Si atom -12392.382980 kJ/mol
# Density = 1.666424 g / cm^3
# Si number density = 16.702255 Si / 1000 Ang^3
#
#
#
# Elastic Constant Matrix: (Units=GPa)
#
#
# Indices 1 2 3 4 5 6 
#
# 1 54.3388 23.2691 42.0044 0.0000 -0.0001 -0.0001
# 2 23.2691 129.5731 47.4897 0.0001 -0.0001 -0.0001
# 3 42.0044 47.4897 98.2580 0.0015 -0.0003 0.0002
# 4 0.0000 0.0001 0.0015 28.5967 -0.0001 0.0000
# 5 -0.0001 -0.0001 -0.0003 -0.0001 30.2778 0.0000
# 6 -0.0001 -0.0001 0.0002 0.0000 0.0000 21.3938
#
#
#
# Elastic Compliance Matrix: (Units=1/GPa)
#
#
# Indices 1 2 3 4 5 6 
#
# 1 0.027548 -0.000767 -0.011406 0.000001 0.000000 0.000000
# 2 -0.000767 0.009400 -0.004216 0.000000 0.000000 0.000000
# 3 -0.011406 -0.004216 0.017091 -0.000001 0.000000 0.000000
# 4 0.000001 0.000000 -0.000001 0.034969 0.000000 0.000000
# 5 0.000000 0.000000 0.000000 0.000000 0.033027 0.000000
# 6 0.000000 0.000000 0.000000 0.000000 0.000000 0.046743
#
#
# Mechanical properties :
#
#
# Convention : Reuss Voigt Hill
#
# Bulk Modulus (GPa) = 47.03082 56.41068 51.72075
# Shear Modulus (GPa) = 23.96437 27.34744 25.65591
#
# Velocity S-wave (km/s) = 3.79198 4.05081 3.92353
# Velocity P-wave (km/s) = 6.88416 7.46501 7.18046
#
# Compressibility (1/GPa) = 0.02126265
#
# Stress axis : x y z
#
# Youngs Moduli (GPa) = 36.29975 106.37847 58.51127
#
# Poissons Ratio (x) = 0.08157 0.66738
# Poissons Ratio (y) = 0.02783 0.24666
# Poissons Ratio (z) = 0.41404 0.44845
#
# Static dielectric constant tensor:
#      x y z
#    x 2.866070 0.000000 0.000000 
#    y 0.000000 3.142000 0.000000 
#    z 0.000000 0.000000 3.151200 
# 
# 
# High freq. dielectric constant tensor:
#      x y z
#    x 1.616140 0.000000 0.000000 
#    y 0.000000 1.642760 0.000000 
#    z 0.000000 0.000000 1.648760 
# 
# From -- ./inp_files/2276.got.cif
#   From: 2010.03.12/outbox.cif.g09.slc.cpg/sg72_2_cif.got.tgz:2276.got - 2010.04.16 14:54:00.
