data_PCOD8293917
_publ_section_title
;
Structure prediction by ZEFSAII (Michael W. Deem and Ramdas Pophale) SiO2 
 PCOD8293917
Probable space group: I B A M
;
_chemical_formula_sum "Si O2"
_cell_formula_units_Z 88
_cell_length_a 22.055089
_cell_length_b 8.591388
_cell_length_c 24.704389
_cell_angle_alpha 90.000000
_cell_angle_beta 90.000000
_cell_angle_gamma 90.000000
_cell_volume 4681.082171
_symmetry_space_group_name_H-M "I B A M"
_symmetry_group_IT_number 72
_symmetry_cell_setting 'orthorhombic'
loop_
_space_group_symop_operation_xyz
x,y,z
-x,-y,z
x,-y,1/2-z
-x,y,1/2-z
-x,-y,-z
x,y,-z
-x,y,1/2+z
x,-y,1/2+z
1/2+x,1/2+y,1/2+z
1/2-x,1/2-y,1/2+z
1/2+x,1/2-y,-z
1/2-x,1/2+y,-z
1/2-x,1/2-y,1/2-z
1/2+x,1/2+y,1/2-z
1/2-x,1/2+y,z
1/2+x,1/2-y,z
loop_
_atom_site_type_symbol
_atom_site_label
_atom_site_fract_x
_atom_site_fract_y
_atom_site_fract_z
Si Si1 0.167192 0.765072 0.203128
Si Si2 0.422851 0.806441 0.500000
Si Si3 0.243245 0.500000 0.750000
Si Si4 0.064380 0.673499 0.272242
Si Si5 0.583347 0.351053 0.608726
Si Si6 0.933576 0.348306 0.500000
Si Si7 0.557307 0.294311 0.112841
O O1 0.201619 0.601801 0.210322
O O2 0.215898 0.901546 0.208721
O O3 0.116109 0.786095 0.249158
O O4 0.132501 0.766869 0.146262
O O5 0.398157 0.702397 0.548976
O O6 0.494272 0.837588 0.500000
O O7 0.399564 0.984576 0.500000
O O8 0.073994 0.500000 0.250000
O O9 0.073722 0.680967 0.337082
O O10 0.000000 0.737526 0.250000
O O11 0.515150 0.292241 0.616283
O O12 0.585717 0.535066 0.619446
O O13 0.914346 0.266260 0.556304
#
# Coordination Sequence:
#
# PCOD8293917 Si02
#       7
#    16   8   8  16  16   8  16
#     4  11  21  40  56  82 110 156 189 248 276 350
#     4   9  19  31  53  83 110 155 187 232 278 346
#     4  10  24  38  58  76 108 150 210 230 290 326
#     4  11  22  33  56  87 123 148 185 236 297 353
#     4  10  20  35  56  80 119 149 192 231 287 342
#     4   9  19  31  53  77 122 155 193 214 270 356
#     4  10  20  34  52  85 119 160 181 225 282 356
#
# _framework density 18.799071000000001
#
# number of rings (size 3 to 8) (size 9 to 14) (size 15 to 20)
#    0.000    1.818    2.727    1.636    2.545    3.636 
#    0.000    0.000    0.000    1.091    0.000    5.091 
#    0.000    0.000    0.000    0.000    0.000    0.000 
#
# Total GULP energy -545251.285873 kJ/mol
# GULP energy per Si atom -12392.074679 kJ/mol
# Density = 1.875628 g / cm^3
# Si number density = 18.799071 Si / 1000 Ang^3
#
#
#
# Elastic Constant Matrix: (Units=GPa)
#
#
# Indices 1 2 3 4 5 6 
#
# 1 84.8297 39.2942 42.2039 0.0000 0.0000 0.0000
# 2 39.2942 108.6156 66.0427 0.0000 0.0000 0.0000
# 3 42.2039 66.0427 181.3825 0.0000 0.0000 0.0000
# 4 0.0000 0.0000 0.0000 32.9239 0.0000 0.0000
# 5 0.0000 0.0000 0.0000 0.0000 14.4168 0.0000
# 6 0.0000 0.0000 0.0000 0.0000 0.0000 14.0790
#
#
#
# Elastic Compliance Matrix: (Units=1/GPa)
#
#
# Indices 1 2 3 4 5 6 
#
# 1 0.014654 -0.004146 -0.001900 0.000000 0.000000 0.000000
# 2 -0.004146 0.012998 -0.003768 0.000000 0.000000 0.000000
# 3 -0.001900 -0.003768 0.007327 0.000000 0.000000 0.000000
# 4 0.000000 0.000000 0.000000 0.030373 0.000000 0.000000
# 5 0.000000 0.000000 0.000000 0.000000 0.069363 0.000000
# 6 0.000000 0.000000 0.000000 0.000000 0.000000 0.071028
#
#
# Mechanical properties :
#
#
# Convention : Reuss Voigt Hill
#
# Bulk Modulus (GPa) = 65.14240 74.43438 69.78839
# Shear Modulus (GPa) = 21.69305 27.43642 24.56474
#
# Velocity S-wave (km/s) = 3.40066 3.82443 3.61875
# Velocity P-wave (km/s) = 7.08142 7.69301 7.39354
#
# Compressibility (1/GPa) = 0.01535098
#
# Stress axis : x y z
#
# Youngs Moduli (GPa) = 68.23979 76.93632 136.47747
#
# Poissons Ratio (x) = 0.31899 0.25932
# Poissons Ratio (y) = 0.28293 0.51423
# Poissons Ratio (z) = 0.12966 0.28988
#
# Static dielectric constant tensor:
#      x y z
#    x 3.318580 0.000000 0.000000 
#    y 0.000000 3.507980 0.000000 
#    z 0.000000 0.000000 3.531520 
# 
# 
# High freq. dielectric constant tensor:
#      x y z
#    x 1.694800 0.000000 0.000000 
#    y 0.000000 1.736900 0.000000 
#    z 0.000000 0.000000 1.732590 
# 
# From -- ./inp_files/45322.got.cif
#   From: 2010.03.12/outbox.cif.g09.slc.cpg/sg72_23_cif.got.tgz:45322.got - 2010.04.16 14:54:00.
