data_PCOD8293219
_publ_section_title
;
Structure prediction by ZEFSAII (Michael W. Deem and Ramdas Pophale) SiO2 
 PCOD8293219
Probable space group: I B A M
;
_chemical_formula_sum "Si O2"
_cell_formula_units_Z 80
_cell_length_a 5.295463
_cell_length_b 30.082033
_cell_length_c 24.778621
_cell_angle_alpha 90.000000
_cell_angle_beta 90.000000
_cell_angle_gamma 90.000000
_cell_volume 3947.192021
_symmetry_space_group_name_H-M "I B A M"
_symmetry_group_IT_number 72
_symmetry_cell_setting 'orthorhombic'
loop_
_space_group_symop_operation_xyz
x,y,z
-x,-y,z
x,-y,1/2-z
-x,y,1/2-z
-x,-y,-z
x,y,-z
-x,y,1/2+z
x,-y,1/2+z
1/2+x,1/2+y,1/2+z
1/2-x,1/2-y,1/2+z
1/2+x,1/2-y,-z
1/2-x,1/2+y,-z
1/2-x,1/2-y,1/2-z
1/2+x,1/2+y,1/2-z
1/2-x,1/2+y,z
1/2+x,1/2-y,z
loop_
_atom_site_type_symbol
_atom_site_label
_atom_site_fract_x
_atom_site_fract_y
_atom_site_fract_z
Si Si1 0.866411 0.354450 0.916399
Si Si2 0.616019 0.881075 0.196064
Si Si3 0.000000 0.944149 0.750000
Si Si4 0.673182 0.778567 0.000000
Si Si5 0.305999 0.961539 0.154616
Si Si6 0.131183 0.090282 0.560284
O O1 0.830829 0.345517 0.851468
O O2 0.637841 0.385722 0.934958
O O3 0.136199 0.376000 0.930389
O O4 0.849324 0.307531 0.945903
O O5 0.500000 0.858023 0.250000
O O6 0.853895 0.911155 0.210158
O O7 0.418160 0.914208 0.169464
O O8 0.841364 0.976107 0.709313
O O9 0.449054 0.743117 0.000000
O O10 0.135516 0.951682 0.101805
O O11 0.500000 0.000000 0.139582
O O12 0.153559 0.070792 0.500000
#
# Coordination Sequence:
#
# PCOD8293219 Si02
#       6
#    16  16   8   8  16  16
#     4  11  21  40  63  90 127 156 202 257 297 378
#     4   9  20  35  58  86 112 163 216 252 306 360
#     4  10  18  37  54  80 114 154 222 258 316 352
#     4  12  24  40  66 102 127 154 191 246 324 380
#     4  10  22  34  52  84 123 162 212 271 318 354
#     4  11  20  38  62  86 117 172 211 251 310 363
#
# _framework density 20.267574
#
# number of rings (size 3 to 8) (size 9 to 14) (size 15 to 20)
#    0.000    1.600    4.000    1.200    0.000    5.600 
#    0.000    0.000    0.000    4.800    0.000    0.000 
#    0.000    0.800    0.000    0.000    0.000    0.000 
#
# Total GULP energy -495642.833478 kJ/mol
# GULP energy per Si atom -12391.070837 kJ/mol
# Density = 2.022144 g / cm^3
# Si number density = 20.267574 Si / 1000 Ang^3
#
#
#
# Elastic Constant Matrix: (Units=GPa)
#
#
# Indices 1 2 3 4 5 6 
#
# 1 70.9999 6.6162 8.9076 0.0000 0.0000 0.0000
# 2 6.6162 58.0648 41.3595 0.0000 0.0000 0.0000
# 3 8.9076 41.3595 183.5852 0.0000 0.0000 0.0000
# 4 0.0000 0.0000 0.0000 10.6500 0.0000 0.0000
# 5 0.0000 0.0000 0.0000 0.0000 -44.4519 0.0000
# 6 0.0000 0.0000 0.0000 0.0000 0.0000 41.1606
#
#
#
# Elastic Compliance Matrix: (Units=1/GPa)
#
#
# Indices 1 2 3 4 5 6 
#
# 1 0.014259 -0.001348 -0.000388 0.000000 0.000000 0.000000
# 2 -0.001348 0.020642 -0.004585 0.000000 0.000000 0.000000
# 3 -0.000388 -0.004585 0.006499 0.000000 0.000000 0.000000
# 4 0.000000 0.000000 0.000000 0.093896 0.000000 0.000000
# 5 0.000000 0.000000 0.000000 0.000000 -0.022496 0.000000
# 6 0.000000 0.000000 0.000000 0.000000 0.000000 0.024295
#
#
# Mechanical properties :
#
#
# Convention : Reuss Voigt Hill
#
# Bulk Modulus (GPa) = 34.77446 47.37963 41.07705
# Shear Modulus (GPa) = 31.38287 18.52286 24.95286
#
# Velocity S-wave (km/s) = 3.93928 3.02638 3.51261
# Velocity P-wave (km/s) = 6.15512 5.96991 6.06322
#
# Compressibility (1/GPa) = 0.02875673
#
# Stress axis : x y z
#
# Youngs Moduli (GPa) = 70.13183 48.44593 153.87432
#
# Poissons Ratio (x) = 0.06532 0.05972
# Poissons Ratio (y) = 0.09456 0.70550
# Poissons Ratio (z) = 0.02722 0.22212
#
# Static dielectric constant tensor:
#      x y z
#    x 3.951330 0.000000 0.000000 
#    y 0.000000 3.248360 0.000000 
#    z 0.000000 0.000000 4.922860 
# 
# 
# High freq. dielectric constant tensor:
#      x y z
#    x 1.812880 0.000000 0.000000 
#    y 0.000000 1.730670 0.000000 
#    z 0.000000 0.000000 1.823350 
# 
# From -- ./inp_files/41564.got.cif
#   From: 2010.03.12/outbox.cif.g09.slc.cpg/sg72_21_cif.got.tgz:41564.got - 2010.04.16 14:54:00.
