data_PCOD8293163
_publ_section_title
;
Structure prediction by ZEFSAII (Michael W. Deem and Ramdas Pophale) SiO2 
 PCOD8293163
Probable space group: I B A M
;
_chemical_formula_sum "Si O2"
_cell_formula_units_Z 112
_cell_length_a 15.035083
_cell_length_b 25.743515
_cell_length_c 14.340236
_cell_angle_alpha 90.000000
_cell_angle_beta 90.000000
_cell_angle_gamma 90.000000
_cell_volume 5550.472732
_symmetry_space_group_name_H-M "I B A M"
_symmetry_group_IT_number 72
_symmetry_cell_setting 'orthorhombic'
loop_
_space_group_symop_operation_xyz
x,y,z
-x,-y,z
x,-y,1/2-z
-x,y,1/2-z
-x,-y,-z
x,y,-z
-x,y,1/2+z
x,-y,1/2+z
1/2+x,1/2+y,1/2+z
1/2-x,1/2-y,1/2+z
1/2+x,1/2-y,-z
1/2-x,1/2+y,-z
1/2-x,1/2-y,1/2-z
1/2+x,1/2+y,1/2-z
1/2-x,1/2+y,z
1/2+x,1/2-y,z
loop_
_atom_site_type_symbol
_atom_site_label
_atom_site_fract_x
_atom_site_fract_y
_atom_site_fract_z
Si Si1 0.203802 0.282070 0.171274
Si Si2 0.511839 0.880127 0.103055
Si Si3 0.623232 0.673718 0.898521
Si Si4 0.398769 0.483457 0.393475
Si Si5 0.663496 0.576836 0.221594
Si Si6 0.985279 0.264130 0.642684
Si Si7 0.141637 0.610715 0.262014
O O1 0.250000 0.250000 0.250000
O O2 0.279703 0.298990 0.098435
O O3 0.161345 0.329050 0.227835
O O4 0.120357 0.251821 0.122981
O O5 0.510597 0.817469 0.091295
O O6 0.424017 0.903648 0.152614
O O7 0.596771 0.898811 0.161859
O O8 0.518234 0.904468 0.000000
O O9 0.620650 0.630540 0.816885
O O10 0.544679 0.715566 0.888566
O O11 0.611050 0.647001 0.000000
O O12 0.500000 0.500000 0.390060
O O13 0.370581 0.468709 0.500000
O O14 0.383355 0.435666 0.321172
O O15 0.344768 0.532654 0.356305
O O16 0.768767 0.578051 0.235914
O O17 0.000000 0.274985 0.750000
#
# Coordination Sequence:
#
# PCOD8293163 Si02
#       7
#    16  16  16  16  16  16  16
#     4  10  18  34  52  74 111 159 196 243 289 335
#     4  10  18  33  55  79 115 160 200 236 275 326
#     4  11  23  35  55  87 119 153 199 248 290 344
#     4  10  22  43  68  89 111 144 186 230 295 368
#     4  10  21  38  62  89 119 148 182 241 297 344
#     4  11  19  33  54  75 110 160 205 240 284 334
#     4   9  19  33  52  86 112 147 197 233 278 338
#
# _framework density 20.178460999999999
#
# number of rings (size 3 to 8) (size 9 to 14) (size 15 to 20)
#    0.000    1.857    4.286    1.714    0.000    8.000 
#    0.000    0.000    0.000    8.571    0.000    8.000 
#    0.000    0.000    0.000    0.000    0.000    0.000 
#
# Total GULP energy -693957.111785 kJ/mol
# GULP energy per Si atom -12392.091282 kJ/mol
# Density = 2.013253 g / cm^3
# Si number density = 20.178461 Si / 1000 Ang^3
#
#
#
# Elastic Constant Matrix: (Units=GPa)
#
#
# Indices 1 2 3 4 5 6 
#
# 1 139.7332 44.5610 57.1225 0.0000 0.0000 0.0000
# 2 44.5610 53.9514 33.9881 -0.0001 0.0000 0.0000
# 3 57.1225 33.9881 171.5601 -0.0008 0.0000 0.0000
# 4 0.0000 -0.0001 -0.0008 -17.4055 0.0000 0.0000
# 5 0.0000 0.0000 0.0000 0.0000 15.5522 0.0000
# 6 0.0000 0.0000 0.0000 0.0000 0.0000 32.9520
#
#
#
# Elastic Compliance Matrix: (Units=1/GPa)
#
#
# Indices 1 2 3 4 5 6 
#
# 1 0.010277 -0.007235 -0.001988 0.000000 0.000000 0.000000
# 2 -0.007235 0.026273 -0.002796 0.000000 0.000000 0.000000
# 3 -0.001988 -0.002796 0.007045 0.000000 0.000000 0.000000
# 4 0.000000 0.000000 0.000000 -0.057453 0.000000 0.000000
# 5 0.000000 0.000000 0.000000 0.000000 0.064300 0.000000
# 6 0.000000 0.000000 0.000000 0.000000 0.000000 0.030347
#
#
# Mechanical properties :
#
#
# Convention : Reuss Voigt Hill
#
# Bulk Modulus (GPa) = 51.13785 70.73197 60.93491
# Shear Modulus (GPa) = 44.90553 21.52462 33.21508
#
# Velocity S-wave (km/s) = 4.72255 3.26960 4.06158
# Velocity P-wave (km/s) = 7.42526 7.02730 7.22902
#
# Compressibility (1/GPa) = 0.01955499
#
# Stress axis : x y z
#
# Youngs Moduli (GPa) = 97.30765 38.06251 141.94940
#
# Poissons Ratio (x) = 0.27540 0.28224
# Poissons Ratio (y) = 0.70406 0.39686
# Poissons Ratio (z) = 0.19348 0.10642
#
# Static dielectric constant tensor:
#      x y z
#    x 3.981760 0.000000 0.000000 
#    y 0.000000 3.366450 0.000000 
#    z 0.000000 0.000000 3.541730 
# 
# 
# High freq. dielectric constant tensor:
#      x y z
#    x 1.803530 0.000000 0.000000 
#    y 0.000000 1.751810 0.000000 
#    z 0.000000 0.000000 1.789390 
# 
# From -- ./inp_files/22295.got.cif
#   From: 2010.03.12/outbox.cif.g09.slc.cpg/sg72_12_cif.got.tgz:22295.got - 2010.04.16 14:54:00.
