data_PCOD8293889
_publ_section_title
;
Structure prediction by ZEFSAII (Michael W. Deem and Ramdas Pophale) SiO2 
 PCOD8293889
Probable space group: I B A M
;
_chemical_formula_sum "Si O2"
_cell_formula_units_Z 96
_cell_length_a 10.753404
_cell_length_b 27.729491
_cell_length_c 14.971931
_cell_angle_alpha 90.000000
_cell_angle_beta 90.000000
_cell_angle_gamma 90.000000
_cell_volume 4464.426497
_symmetry_space_group_name_H-M "I B A M"
_symmetry_group_IT_number 72
_symmetry_cell_setting 'orthorhombic'
loop_
_space_group_symop_operation_xyz
x,y,z
-x,-y,z
x,-y,1/2-z
-x,y,1/2-z
-x,-y,-z
x,y,-z
-x,y,1/2+z
x,-y,1/2+z
1/2+x,1/2+y,1/2+z
1/2-x,1/2-y,1/2+z
1/2+x,1/2-y,-z
1/2-x,1/2+y,-z
1/2-x,1/2-y,1/2-z
1/2+x,1/2+y,1/2-z
1/2-x,1/2+y,z
1/2+x,1/2-y,z
loop_
_atom_site_type_symbol
_atom_site_label
_atom_site_fract_x
_atom_site_fract_y
_atom_site_fract_z
Si Si1 0.623136 0.979317 0.650780
Si Si2 0.372725 0.518384 0.148972
Si Si3 0.485463 0.114994 0.396561
Si Si4 0.507292 0.222026 0.148255
Si Si5 0.230827 0.117586 0.895528
Si Si6 0.763478 0.776114 0.154764
O O1 0.608252 0.921597 0.652888
O O2 0.500000 0.000000 0.599960
O O3 0.627625 0.000000 0.750000
O O4 0.751209 0.994590 0.601072
O O5 0.500000 0.500000 0.101497
O O6 0.376235 0.500000 0.250000
O O7 0.362113 0.576427 0.141673
O O8 0.451794 0.116743 0.500000
O O9 0.455926 0.166316 0.353807
O O10 0.628245 0.099218 0.380881
O O11 0.500000 0.239675 0.250000
O O12 0.370393 0.230270 0.103266
O O13 0.619865 0.252026 0.101755
O O14 0.208517 0.166631 0.839188
O O15 0.205063 0.127842 0.000000
O O16 0.750000 0.750000 0.250000
#
# Coordination Sequence:
#
# PCOD8293889 Si02
#       6
#    16  16  16  16  16  16
#     4  10  20  33  59  84 110 143 191 235 279 329
#     4  10  22  40  57  85 116 158 195 244 289 354
#     4  10  21  35  56  86 113 145 188 236 284 339
#     4   9  19  35  58  81 111 144 186 232 283 337
#     4  10  21  38  60  84 119 160 193 236 306 361
#     4   9  19  37  58  85 112 148 192 237 287 353
#
# _framework density 21.503322000000001
#
# number of rings (size 3 to 8) (size 9 to 14) (size 15 to 20)
#    0.000    2.333    1.667    0.000    2.333    6.000 
#   12.000    0.000    0.000    0.000    0.000    0.000 
#    0.000    0.000    0.000    0.000    0.000    0.000 
#
# Total GULP energy -594672.348760 kJ/mol
# GULP energy per Si atom -12389.007266 kJ/mol
# Density = 2.145438 g / cm^3
# Si number density = 21.503322 Si / 1000 Ang^3
#
#
#
# Elastic Constant Matrix: (Units=GPa)
#
#
# Indices 1 2 3 4 5 6 
#
# 1 208.2166 101.6135 -0.1578 0.0001 -0.0001 0.0000
# 2 101.6135 161.5165 17.6539 -0.0001 -0.0001 0.0000
# 3 -0.1578 17.6539 54.7298 -0.0008 -0.0002 0.0000
# 4 0.0001 -0.0001 -0.0008 -2.5375 -0.0001 0.0000
# 5 -0.0001 -0.0001 -0.0002 -0.0001 1.1469 0.0000
# 6 0.0000 0.0000 0.0000 0.0000 0.0000 43.4576
#
#
#
# Elastic Compliance Matrix: (Units=1/GPa)
#
#
# Indices 1 2 3 4 5 6 
#
# 1 0.007048 -0.004598 0.001504 0.000000 0.000000 0.000000
# 2 -0.004598 0.009418 -0.003051 0.000000 0.000000 0.000000
# 3 0.001504 -0.003051 0.019260 -0.000006 0.000004 0.000000
# 4 0.000000 0.000000 -0.000006 -0.394085 -0.000048 0.000000
# 5 0.000000 0.000000 0.000004 -0.000048 0.871907 -0.000001
# 6 0.000000 0.000000 0.000000 0.000000 -0.000001 0.023011
#
#
# Mechanical properties :
#
#
# Convention : Reuss Voigt Hill
#
# Bulk Modulus (GPa) = 42.67298 73.63136 58.15217
# Shear Modulus (GPa) = 8.98211 28.77028 18.87619
#
# Velocity S-wave (km/s) = 2.04601 3.66176 2.96603
# Velocity P-wave (km/s) = 5.04673 7.22455 6.23152
#
# Compressibility (1/GPa) = 0.02343403
#
# Stress axis : x y z
#
# Youngs Moduli (GPa) = 141.88623 106.18291 51.92086
#
# Poissons Ratio (x) = 0.48826 -0.07807
# Poissons Ratio (y) = 0.65244 0.15842
# Poissons Ratio (z) = -0.21334 0.32397
#
# Static dielectric constant tensor:
#      x y z
#    x 6.102980 0.000000 0.000000 
#    y 0.000000 3.940390 0.000000 
#    z 0.000000 0.000000 3.457370 
# 
# 
# High freq. dielectric constant tensor:
#      x y z
#    x 1.850490 0.000000 0.000000 
#    y 0.000000 1.846290 0.000000 
#    z 0.000000 0.000000 1.806480 
# 
# From -- ./inp_files/29457.got.cif
#   From: 2010.03.12/outbox.cif.g09.slc.cpg/sg72_15_cif.got.tgz:29457.got - 2010.04.16 14:54:00.
