data_PCOD8293231
_publ_section_title
;
Structure prediction by ZEFSAII (Michael W. Deem and Ramdas Pophale) SiO2 
 PCOD8293231
Probable space group: I B A M
;
_chemical_formula_sum "Si O2"
_cell_formula_units_Z 80
_cell_length_a 13.586552
_cell_length_b 24.866425
_cell_length_c 13.856782
_cell_angle_alpha 90.000000
_cell_angle_beta 90.000000
_cell_angle_gamma 90.000000
_cell_volume 4681.499614
_symmetry_space_group_name_H-M "I B A M"
_symmetry_group_IT_number 72
_symmetry_cell_setting 'orthorhombic'
loop_
_space_group_symop_operation_xyz
x,y,z
-x,-y,z
x,-y,1/2-z
-x,y,1/2-z
-x,-y,-z
x,y,-z
-x,y,1/2+z
x,-y,1/2+z
1/2+x,1/2+y,1/2+z
1/2-x,1/2-y,1/2+z
1/2+x,1/2-y,-z
1/2-x,1/2+y,-z
1/2-x,1/2-y,1/2-z
1/2+x,1/2+y,1/2-z
1/2-x,1/2+y,z
1/2+x,1/2-y,z
loop_
_atom_site_type_symbol
_atom_site_label
_atom_site_fract_x
_atom_site_fract_y
_atom_site_fract_z
Si Si1 0.664963 0.057431 0.257637
Si Si2 0.959837 0.303154 0.107210
Si Si3 0.656784 0.252373 0.887037
Si Si4 0.496188 0.922033 0.107181
Si Si5 0.724985 0.174406 0.737040
O O1 0.585716 0.050703 0.172466
O O2 0.606777 0.064523 0.358027
O O3 0.733817 0.110016 0.246076
O O4 0.723961 0.000000 0.250000
O O5 0.039833 0.256694 0.127691
O O6 0.022083 0.358244 0.112123
O O7 0.875542 0.304878 0.186648
O O8 0.913303 0.296335 0.000000
O O9 0.724360 0.204770 0.840160
O O10 0.684196 0.307751 0.831175
O O11 0.683521 0.255995 0.000000
O O12 0.484501 0.944906 0.000000
#
# Coordination Sequence:
#
# PCOD8293231 Si02
#       5
#    16  16  16  16  16
#     4  10  19  28  40  61  88 120 154 185 219 271
#     4   9  16  28  46  65  89 120 151 185 227 273
#     4  10  19  30  46  64  86 120 156 191 231 276
#     4   9  16  27  41  59  86 119 154 185 214 257
#     4  10  19  31  45  64  92 121 149 193 232 271
#
# _framework density 17.088540999999999
#
# number of rings (size 3 to 8) (size 9 to 14) (size 15 to 20)
#    0.000    2.400    2.000    2.400    0.000    2.400 
#    0.000    0.000    0.000    0.000    0.000    0.000 
#    0.000   12.800    0.000   30.400    0.000    0.000 
#
# Total GULP energy -495648.272445 kJ/mol
# GULP energy per Si atom -12391.206811 kJ/mol
# Density = 1.704965 g / cm^3
# Si number density = 17.088541 Si / 1000 Ang^3
#
#
#
# Elastic Constant Matrix: (Units=GPa)
#
#
# Indices 1 2 3 4 5 6 
#
# 1 27.7540 20.9059 2.9755 -0.0001 0.0000 0.0000
# 2 20.9059 120.5721 11.3656 0.0008 -0.0001 -0.0002
# 3 2.9755 11.3656 88.3408 0.0006 0.0000 -0.0001
# 4 -0.0001 0.0008 0.0006 5.0941 -0.0001 -0.0002
# 5 0.0000 -0.0001 0.0000 -0.0001 15.9196 0.0000
# 6 0.0000 -0.0002 -0.0001 -0.0002 0.0000 18.2747
#
#
#
# Elastic Compliance Matrix: (Units=1/GPa)
#
#
# Indices 1 2 3 4 5 6 
#
# 1 0.041464 -0.007144 -0.000477 0.000002 0.000000 0.000000
# 2 -0.007144 0.009627 -0.000998 -0.000001 0.000000 0.000000
# 3 -0.000477 -0.000998 0.011464 -0.000001 0.000000 0.000000
# 4 0.000002 -0.000001 -0.000001 0.196306 0.000001 0.000002
# 5 0.000000 0.000000 0.000000 0.000001 0.062816 0.000000
# 6 0.000000 0.000000 0.000000 0.000002 0.000000 0.054721
#
#
# Mechanical properties :
#
#
# Convention : Reuss Voigt Hill
#
# Bulk Modulus (GPa) = 22.06767 34.12898 28.09832
# Shear Modulus (GPa) = 12.23271 21.28568 16.75919
#
# Velocity S-wave (km/s) = 2.67843 3.53315 3.13505
# Velocity P-wave (km/s) = 4.74416 6.05470 5.43905
#
# Compressibility (1/GPa) = 0.04531516
#
# Stress axis : x y z
#
# Youngs Moduli (GPa) = 24.11759 103.87876 87.22762
#
# Poissons Ratio (x) = 0.74214 0.04164
# Poissons Ratio (y) = 0.17230 0.08704
# Poissons Ratio (z) = 0.01151 0.10366
#
# Static dielectric constant tensor:
#      x y z
#    x 2.711020 0.000000 0.000000 
#    y 0.000000 3.306270 0.000000 
#    z 0.000000 0.000000 3.446180 
# 
# 
# High freq. dielectric constant tensor:
#      x y z
#    x 1.590130 0.000000 0.000000 
#    y 0.000000 1.652620 0.000000 
#    z 0.000000 0.000000 1.679740 
# 
# From -- ./inp_files/20422.got.cif
#   From: 2010.03.12/outbox.cif.g09.slc.cpg/sg72_11_cif.got.tgz:20422.got - 2010.04.16 14:54:00.
