data_PCOD8293886
_publ_section_title
;
Structure prediction by ZEFSAII (Michael W. Deem and Ramdas Pophale) SiO2 
 PCOD8293886
Probable space group: I B A M
;
_chemical_formula_sum "Si O2"
_cell_formula_units_Z 96
_cell_length_a 23.105093
_cell_length_b 12.673304
_cell_length_c 16.455106
_cell_angle_alpha 90.000000
_cell_angle_beta 90.000000
_cell_angle_gamma 90.000000
_cell_volume 4818.349049
_symmetry_space_group_name_H-M "I B A M"
_symmetry_group_IT_number 72
_symmetry_cell_setting 'orthorhombic'
loop_
_space_group_symop_operation_xyz
x,y,z
-x,-y,z
x,-y,1/2-z
-x,y,1/2-z
-x,-y,-z
x,y,-z
-x,y,1/2+z
x,-y,1/2+z
1/2+x,1/2+y,1/2+z
1/2-x,1/2-y,1/2+z
1/2+x,1/2-y,-z
1/2-x,1/2+y,-z
1/2-x,1/2-y,1/2-z
1/2+x,1/2+y,1/2-z
1/2-x,1/2+y,z
1/2+x,1/2-y,z
loop_
_atom_site_type_symbol
_atom_site_label
_atom_site_fract_x
_atom_site_fract_y
_atom_site_fract_z
Si Si1 0.712300 0.360196 0.833605
Si Si2 0.562890 0.466708 0.842379
Si Si3 0.831541 0.257348 0.181756
Si Si4 0.608722 0.744600 0.594850
Si Si5 0.567287 0.876019 0.736927
Si Si6 0.170140 0.940162 0.910767
O O1 0.780509 0.341736 0.827578
O O2 0.680384 0.329283 0.750879
O O3 0.677026 0.289205 0.900433
O O4 0.706728 0.485470 0.849397
O O5 0.500000 0.500000 0.868277
O O6 0.577171 0.500000 0.750000
O O7 0.570279 0.342530 0.858115
O O8 0.603522 0.527492 0.904826
O O9 0.892707 0.315343 0.196531
O O10 0.828687 0.185608 0.101789
O O11 0.592284 0.760429 0.500000
O O12 0.592006 0.849841 0.646170
O O13 0.500000 0.842679 0.750000
O O14 0.574686 0.000000 0.750000
O O15 0.194558 0.963593 0.000000
#
# Coordination Sequence:
#
# PCOD8293886 Si02
#       6
#    16  16  16  16  16  16
#     4   9  19  37  59  83 118 153 199 246 296 365
#     4  10  20  33  56  85 119 158 197 241 299 365
#     4  10  21  37  62  86 109 158 207 246 295 363
#     4  10  21  37  61  88 120 161 201 252 316 367
#     4  10  23  43  63  85 118 161 212 259 302 362
#     4  11  22  35  53  86 127 154 189 249 307 361
#
# _framework density 19.923836999999999
#
# number of rings (size 3 to 8) (size 9 to 14) (size 15 to 20)
#    0.000    2.000    0.000    5.500    4.667    6.667 
#    0.000    2.500    0.000    0.000    0.000    0.000 
#    0.000    0.000    0.000    0.000    0.000    0.000 
#
# Total GULP energy -594763.303138 kJ/mol
# GULP energy per Si atom -12390.902149 kJ/mol
# Density = 1.987849 g / cm^3
# Si number density = 19.923837 Si / 1000 Ang^3
#
#
#
# Elastic Constant Matrix: (Units=GPa)
#
#
# Indices 1 2 3 4 5 6 
#
# 1 129.1147 47.1101 21.9932 0.0000 0.0000 0.0000
# 2 47.1101 100.9227 36.5488 0.0000 0.0000 0.0000
# 3 21.9932 36.5488 91.7817 0.0000 0.0000 0.0000
# 4 0.0000 0.0000 0.0000 15.6218 0.0000 0.0000
# 5 0.0000 0.0000 0.0000 0.0000 13.8905 0.0000
# 6 0.0000 0.0000 0.0000 0.0000 0.0000 17.8949
#
#
#
# Elastic Compliance Matrix: (Units=1/GPa)
#
#
# Indices 1 2 3 4 5 6 
#
# 1 0.009362 -0.004157 -0.000588 0.000000 0.000000 0.000000
# 2 -0.004157 0.013424 -0.004350 0.000000 0.000000 0.000000
# 3 -0.000588 -0.004350 0.012768 0.000000 0.000000 0.000000
# 4 0.000000 0.000000 0.000000 0.064013 0.000000 0.000000
# 5 0.000000 0.000000 0.000000 0.000000 0.071991 0.000000
# 6 0.000000 0.000000 0.000000 0.000000 0.000000 0.055882
#
#
# Mechanical properties :
#
#
# Convention : Reuss Voigt Hill
#
# Bulk Modulus (GPa) = 57.58617 59.23592 58.41104
# Shear Modulus (GPa) = 19.88714 23.89260 21.88987
#
# Velocity S-wave (km/s) = 3.16279 3.46670 3.31823
# Velocity P-wave (km/s) = 6.50412 6.76903 6.63789
#
# Compressibility (1/GPa) = 0.01736528
#
# Stress axis : x y z
#
# Youngs Moduli (GPa) = 106.81427 74.49156 78.31860
#
# Poissons Ratio (x) = 0.30968 0.04604
# Poissons Ratio (y) = 0.44405 0.34065
# Poissons Ratio (z) = 0.06280 0.32401
#
# Static dielectric constant tensor:
#      x y z
#    x 3.659730 0.000000 0.000000 
#    y 0.000000 3.565770 0.000000 
#    z 0.000000 0.000000 3.603360 
# 
# 
# High freq. dielectric constant tensor:
#      x y z
#    x 1.774470 0.000000 0.000000 
#    y 0.000000 1.773020 0.000000 
#    z 0.000000 0.000000 1.763600 
# 
# From -- ./inp_files/33240.got.cif
#   From: 2010.03.12/outbox.cif.g09.slc.cpg/sg72_17_cif.got.tgz:33240.got - 2010.04.16 14:54:00.
