data_PCOD8293641
_publ_section_title
;
Structure prediction by ZEFSAII (Michael W. Deem and Ramdas Pophale) SiO2 
 PCOD8293641
Probable space group: I B A M
;
_chemical_formula_sum "Si O2"
_cell_formula_units_Z 104
_cell_length_a 9.304463
_cell_length_b 24.518338
_cell_length_c 22.282845
_cell_angle_alpha 90.000000
_cell_angle_beta 90.000000
_cell_angle_gamma 90.000000
_cell_volume 5083.384733
_symmetry_space_group_name_H-M "I B A M"
_symmetry_group_IT_number 72
_symmetry_cell_setting 'orthorhombic'
loop_
_space_group_symop_operation_xyz
x,y,z
-x,-y,z
x,-y,1/2-z
-x,y,1/2-z
-x,-y,-z
x,y,-z
-x,y,1/2+z
x,-y,1/2+z
1/2+x,1/2+y,1/2+z
1/2-x,1/2-y,1/2+z
1/2+x,1/2-y,-z
1/2-x,1/2+y,-z
1/2-x,1/2-y,1/2-z
1/2+x,1/2+y,1/2-z
1/2-x,1/2+y,z
1/2+x,1/2-y,z
loop_
_atom_site_type_symbol
_atom_site_label
_atom_site_fract_x
_atom_site_fract_y
_atom_site_fract_z
Si Si1 0.773683 0.637867 0.371421
Si Si2 0.685262 0.118694 0.000000
Si Si3 0.047770 0.785902 0.316795
Si Si4 0.667801 0.357917 0.618619
Si Si5 0.941472 0.657365 0.814273
Si Si6 0.065037 0.049961 0.118422
Si Si7 0.712761 0.507239 0.500000
Si Si8 0.349653 0.883057 0.500000
O O1 0.701342 0.687702 0.335048
O O2 0.695492 0.581892 0.349689
O O3 0.761040 0.642326 0.443635
O O4 0.942494 0.633718 0.360201
O O5 0.748315 0.151323 0.943158
O O6 0.516577 0.131140 0.000000
O O7 0.723954 0.054229 0.000000
O O8 0.071853 0.722074 0.320571
O O9 0.000000 0.804322 0.250000
O O10 0.925836 0.804895 0.363649
O O11 0.786742 0.369052 0.670899
O O12 0.563527 0.408128 0.607725
O O13 0.000000 0.639323 0.750000
O O14 0.116098 0.019647 0.057886
O O15 0.000000 0.000000 0.158659
O O16 0.843044 0.550919 0.500000
#
# Coordination Sequence:
#
# PCOD8293641 Si02
#       8
#    16   8  16  16  16  16   8   8
#     4  10  21  37  60  89 125 154 197 245 308 354
#     4  12  20  36  59  96 129 155 199 248 299 366
#     4  10  22  41  64  88 113 156 216 259 290 347
#     4  11  22  35  62  93 122 154 201 251 303 355
#     4  11  22  41  64  85 113 158 213 259 296 349
#     4  10  19  35  57  90 119 152 195 241 289 358
#     4  10  19  34  63  87 116 166 208 235 285 348
#     4  10  21  37  55  94 129 161 190 244 304 370
#
# _framework density 20.458808999999999
#
# number of rings (size 3 to 8) (size 9 to 14) (size 15 to 20)
#    0.000    1.538    3.077    2.769    0.000    4.308 
#    0.000    5.385    0.000   17.538    0.000    0.000 
#    0.000    0.000    0.000    0.000    0.000    0.000 
#
# Total GULP energy -644398.756033 kJ/mol
# GULP energy per Si atom -12392.283770 kJ/mol
# Density = 2.041224 g / cm^3
# Si number density = 20.458809 Si / 1000 Ang^3
#
#
#
# Elastic Constant Matrix: (Units=GPa)
#
#
# Indices 1 2 3 4 5 6 
#
# 1 93.8377 9.9686 7.4513 0.0000 0.0000 0.0000
# 2 9.9686 51.4308 23.4789 0.0000 0.0000 0.0000
# 3 7.4513 23.4789 78.2278 0.0000 0.0000 0.0000
# 4 0.0000 0.0000 0.0000 27.9150 0.0000 0.0000
# 5 0.0000 0.0000 0.0000 0.0000 24.6587 0.0000
# 6 0.0000 0.0000 0.0000 0.0000 0.0000 26.6291
#
#
#
# Elastic Compliance Matrix: (Units=1/GPa)
#
#
# Indices 1 2 3 4 5 6 
#
# 1 0.010896 -0.001898 -0.000468 0.000000 0.000000 0.000000
# 2 -0.001898 0.022861 -0.006681 0.000000 0.000000 0.000000
# 3 -0.000468 -0.006681 0.014833 0.000000 0.000000 0.000000
# 4 0.000000 0.000000 0.000000 0.035823 0.000000 0.000000
# 5 0.000000 0.000000 0.000000 0.000000 0.040554 0.000000
# 6 0.000000 0.000000 0.000000 0.000000 0.000000 0.037553
#
#
# Mechanical properties :
#
#
# Convention : Reuss Voigt Hill
#
# Bulk Modulus (GPa) = 32.79132 33.92154 33.35643
# Shear Modulus (GPa) = 26.20840 28.01372 27.11106
#
# Velocity S-wave (km/s) = 3.58303 3.70439 3.64421
# Velocity P-wave (km/s) = 5.76023 5.90872 5.83495
#
# Compressibility (1/GPa) = 0.03049587
#
# Stress axis : x y z
#
# Youngs Moduli (GPa) = 91.78093 43.74191 67.41781
#
# Poissons Ratio (x) = 0.08303 0.03156
# Poissons Ratio (y) = 0.17421 0.45040
# Poissons Ratio (z) = 0.04296 0.29223
#
# Static dielectric constant tensor:
#      x y z
#    x 3.966900 0.000000 0.000000 
#    y 0.000000 3.661500 0.000000 
#    z 0.000000 0.000000 3.721090 
# 
# 
# High freq. dielectric constant tensor:
#      x y z
#    x 1.825340 0.000000 0.000000 
#    y 0.000000 1.781980 0.000000 
#    z 0.000000 0.000000 1.785940 
# 
# From -- ./inp_files/42664.got.cif
#   From: 2010.03.12/outbox.cif.g09.slc.cpg/sg72_22_cif.got.tgz:42664.got - 2010.04.16 14:54:00.
