data_PCOD8293538
_publ_section_title
;
Structure prediction by ZEFSAII (Michael W. Deem and Ramdas Pophale) SiO2 
 PCOD8293538
Probable space group: I B A M
;
_chemical_formula_sum "Si O2"
_cell_formula_units_Z 68
_cell_length_a 8.762056
_cell_length_b 15.707564
_cell_length_c 23.209989
_cell_angle_alpha 90.000000
_cell_angle_beta 90.000000
_cell_angle_gamma 90.000000
_cell_volume 3194.403677
_symmetry_space_group_name_H-M "I B A M"
_symmetry_group_IT_number 72
_symmetry_cell_setting 'orthorhombic'
loop_
_space_group_symop_operation_xyz
x,y,z
-x,-y,z
x,-y,1/2-z
-x,y,1/2-z
-x,-y,-z
x,y,-z
-x,y,1/2+z
x,-y,1/2+z
1/2+x,1/2+y,1/2+z
1/2-x,1/2-y,1/2+z
1/2+x,1/2-y,-z
1/2-x,1/2+y,-z
1/2-x,1/2-y,1/2-z
1/2+x,1/2+y,1/2-z
1/2-x,1/2+y,z
1/2+x,1/2-y,z
loop_
_atom_site_type_symbol
_atom_site_label
_atom_site_fract_x
_atom_site_fract_y
_atom_site_fract_z
Si Si1 0.324445 0.976458 0.563520
Si Si2 0.348418 0.865739 0.329671
Si Si3 0.410780 0.264527 0.364907
Si Si4 0.500000 0.000000 0.750000
Si Si5 0.823371 0.846933 0.567923
O O1 0.270457 0.946863 0.500000
O O2 0.305672 0.898295 0.606423
O O3 0.500000 0.000000 0.562067
O O4 0.226555 0.057466 0.584042
O O5 0.495831 0.805600 0.329122
O O6 0.193907 0.812378 0.316230
O O7 0.383684 0.943895 0.287623
O O8 0.305347 0.218917 0.412118
O O9 0.520183 0.329862 0.398261
O O10 0.847534 0.835916 0.500000
#
# Coordination Sequence:
#
# PCOD8293538 Si02
#       5
#    16  16  16   4  16
#     4  10  19  35  59  89 127 166 204 242 294 360
#     4  11  23  42  64  91 119 161 202 250 310 361
#     4  10  22  37  58  89 128 155 203 257 300 362
#     4  12  24  44  74  86 112 158 210 250 312 380
#     4  10  19  33  57  90 129 172 205 242 296 360
#
# _framework density 21.287227999999999
#
# number of rings (size 3 to 8) (size 9 to 14) (size 15 to 20)
#    0.000    1.647    3.529    0.706    0.000    6.588 
#    0.000    2.353    0.000   12.706    0.000    0.000 
#    0.000    0.000    0.000    0.000    0.000    0.000 
#
# Total GULP energy -421554.599243 kJ/mol
# GULP energy per Si atom -12398.664684 kJ/mol
# Density = 2.123878 g / cm^3
# Si number density = 21.287228 Si / 1000 Ang^3
#
#
#
# Elastic Constant Matrix: (Units=GPa)
#
#
# Indices 1 2 3 4 5 6 
#
# 1 138.3991 65.6948 42.4863 0.0000 0.0000 0.0000
# 2 65.6948 120.5449 51.4962 0.0000 0.0000 0.0000
# 3 42.4863 51.4962 69.6722 0.0000 0.0000 0.0000
# 4 0.0000 0.0000 0.0000 19.6201 0.0000 0.0000
# 5 0.0000 0.0000 0.0000 0.0000 16.8958 0.0000
# 6 0.0000 0.0000 0.0000 0.0000 0.0000 40.9209
#
#
#
# Elastic Compliance Matrix: (Units=1/GPa)
#
#
# Indices 1 2 3 4 5 6 
#
# 1 0.010180 -0.004232 -0.003080 0.000000 0.000000 0.000000
# 2 -0.004232 0.013883 -0.007681 0.000000 0.000000 0.000000
# 3 -0.003080 -0.007681 0.021908 0.000000 0.000000 0.000000
# 4 0.000000 0.000000 0.000000 0.050968 0.000000 0.000000
# 5 0.000000 0.000000 0.000000 0.000000 0.059186 0.000000
# 6 0.000000 0.000000 0.000000 0.000000 0.000000 0.024437
#
#
# Mechanical properties :
#
#
# Convention : Reuss Voigt Hill
#
# Bulk Modulus (GPa) = 62.55446 71.99676 67.27561
# Shear Modulus (GPa) = 23.16143 26.74994 24.95569
#
# Velocity S-wave (km/s) = 3.30213 3.54873 3.42765
# Velocity P-wave (km/s) = 6.63238 7.11943 6.88022
#
# Compressibility (1/GPa) = 0.01598607
#
# Stress axis : x y z
#
# Youngs Moduli (GPa) = 98.23386 72.02911 45.64601
#
# Poissons Ratio (x) = 0.30485 0.14057
# Poissons Ratio (y) = 0.41575 0.35059
# Poissons Ratio (z) = 0.30251 0.55323
#
# Static dielectric constant tensor:
#      x y z
#    x 3.973770 0.000000 0.000000 
#    y 0.000000 4.105220 0.000000 
#    z 0.000000 0.000000 3.704130 
# 
# 
# High freq. dielectric constant tensor:
#      x y z
#    x 1.842340 0.000000 0.000000 
#    y 0.000000 1.849050 0.000000 
#    z 0.000000 0.000000 1.809990 
# 
# From -- ./inp_files/35477.got.cif
#   From: 2010.03.12/outbox.cif.g09.slc.cpg/sg72_18_cif.got.tgz:35477.got - 2010.04.16 14:54:00.
