data_PCOD8293113
_publ_section_title
;
Structure prediction by ZEFSAII (Michael W. Deem and Ramdas Pophale) SiO2 
 PCOD8293113
Probable space group: I B A M
;
_chemical_formula_sum "Si O2"
_cell_formula_units_Z 80
_cell_length_a 23.220791
_cell_length_b 22.240070
_cell_length_c 10.045991
_cell_angle_alpha 90.000000
_cell_angle_beta 90.000000
_cell_angle_gamma 90.000000
_cell_volume 5188.071398
_symmetry_space_group_name_H-M "I B A M"
_symmetry_group_IT_number 72
_symmetry_cell_setting 'orthorhombic'
loop_
_space_group_symop_operation_xyz
x,y,z
-x,-y,z
x,-y,1/2-z
-x,y,1/2-z
-x,-y,-z
x,y,-z
-x,y,1/2+z
x,-y,1/2+z
1/2+x,1/2+y,1/2+z
1/2-x,1/2-y,1/2+z
1/2+x,1/2-y,-z
1/2-x,1/2+y,-z
1/2-x,1/2-y,1/2-z
1/2+x,1/2+y,1/2-z
1/2-x,1/2+y,z
1/2+x,1/2-y,z
loop_
_atom_site_type_symbol
_atom_site_label
_atom_site_fract_x
_atom_site_fract_y
_atom_site_fract_z
Si Si1 0.000000 0.777136 0.250000
Si Si2 0.604771 0.567721 0.000000
Si Si3 0.231021 0.302553 0.846602
Si Si4 0.331075 0.627222 0.255977
Si Si5 0.373233 0.428110 0.500000
Si Si6 0.994016 0.861143 0.000000
Si Si7 0.116007 0.749775 0.345658
O O1 0.992366 0.820683 0.373802
O O2 0.944335 0.734091 0.227075
O O3 0.634309 0.594648 0.129279
O O4 0.608433 0.496570 0.000000
O O5 0.537239 0.582631 0.000000
O O6 0.250000 0.250000 0.750000
O O7 0.264138 0.363173 0.801312
O O8 0.161053 0.306054 0.833274
O O9 0.247071 0.286910 0.000000
O O10 0.333158 0.585149 0.126997
O O11 0.358961 0.691637 0.226611
O O12 0.429366 0.386040 0.500000
O O13 0.104069 0.765444 0.500000
#
# Coordination Sequence:
#
# PCOD8293113 Si02
#       7
#     8   8  16  16   8   8  16
#     4  12  18  30  49  66  92 128 153 196 230 274
#     4  12  23  32  50  67  85 125 181 208 227 268
#     4   9  19  31  50  70  87 114 151 194 241 290
#     4  11  19  35  48  66  91 118 160 205 240 280
#     4  12  23  36  46  63  93 133 163 208 249 256
#     4  12  21  34  44  60  96 128 168 202 235 262
#     4  10  18  32  49  68  92 122 152 189 242 285
#
# _framework density 15.419988
#
# number of rings (size 3 to 8) (size 9 to 14) (size 15 to 20)
#    0.000    1.200    7.000    0.900    1.400    0.000 
#    0.000    3.000    0.000    0.000    0.000    0.000 
#    0.000    0.000    0.000    5.400    0.000    0.000 
#
# Total GULP energy -495702.549970 kJ/mol
# GULP energy per Si atom -12392.563749 kJ/mol
# Density = 1.538489 g / cm^3
# Si number density = 15.419988 Si / 1000 Ang^3
#
#
#
# Elastic Constant Matrix: (Units=GPa)
#
#
# Indices 1 2 3 4 5 6 
#
# 1 125.1145 39.7830 48.0567 0.0000 0.0000 0.0000
# 2 39.7830 29.8693 23.8984 0.0000 0.0000 0.0000
# 3 48.0567 23.8984 121.1150 0.0000 0.0000 0.0000
# 4 0.0000 0.0000 0.0000 25.9564 0.0000 0.0000
# 5 0.0000 0.0000 0.0000 0.0000 26.8527 0.0000
# 6 0.0000 0.0000 0.0000 0.0000 0.0000 20.9937
#
#
#
# Elastic Compliance Matrix: (Units=1/GPa)
#
#
# Indices 1 2 3 4 5 6 
#
# 1 0.014379 -0.017321 -0.002288 0.000000 0.000000 0.000000
# 2 -0.017321 0.060621 -0.005089 0.000000 0.000000 0.000000
# 3 -0.002288 -0.005089 0.010168 0.000000 0.000000 0.000000
# 4 0.000000 0.000000 0.000000 0.038526 0.000000 0.000000
# 5 0.000000 0.000000 0.000000 0.000000 0.037240 0.000000
# 6 0.000000 0.000000 0.000000 0.000000 0.000000 0.047633
#
#
# Mechanical properties :
#
#
# Convention : Reuss Voigt Hill
#
# Bulk Modulus (GPa) = 27.95396 55.50831 41.73114
# Shear Modulus (GPa) = 18.52624 25.71796 22.12210
#
# Velocity S-wave (km/s) = 3.46994 4.08834 3.79177
# Velocity P-wave (km/s) = 5.84994 7.63949 6.80381
#
# Compressibility (1/GPa) = 0.03577310
#
# Stress axis : x y z
#
# Youngs Moduli (GPa) = 69.54603 16.49595 98.34358
#
# Poissons Ratio (x) = 0.28573 0.22497
# Poissons Ratio (y) = 1.20461 0.50046
# Poissons Ratio (z) = 0.15909 0.08395
#
# Static dielectric constant tensor:
#      x y z
#    x 3.564460 0.000000 0.000000 
#    y 0.000000 2.743030 0.000000 
#    z 0.000000 0.000000 3.233810 
# 
# 
# High freq. dielectric constant tensor:
#      x y z
#    x 1.595010 0.000000 0.000000 
#    y 0.000000 1.532990 0.000000 
#    z 0.000000 0.000000 1.617580 
# 
# From -- ./inp_files/5913.got.cif
#   From: 2010.03.12/outbox.cif.g09.slc.cpg/sg72_3_cif.got.tgz:5913.got - 2010.04.16 14:54:00.
