data_PCOD8293107
_publ_section_title
;
Structure prediction by ZEFSAII (Michael W. Deem and Ramdas Pophale) SiO2 
 PCOD8293107
Probable space group: I B A M
;
_chemical_formula_sum "Si O2"
_cell_formula_units_Z 80
_cell_length_a 28.587049
_cell_length_b 8.652361
_cell_length_c 16.740334
_cell_angle_alpha 90.000000
_cell_angle_beta 90.000000
_cell_angle_gamma 90.000000
_cell_volume 4140.645746
_symmetry_space_group_name_H-M "I B A M"
_symmetry_group_IT_number 72
_symmetry_cell_setting 'orthorhombic'
loop_
_space_group_symop_operation_xyz
x,y,z
-x,-y,z
x,-y,1/2-z
-x,y,1/2-z
-x,-y,-z
x,y,-z
-x,y,1/2+z
x,-y,1/2+z
1/2+x,1/2+y,1/2+z
1/2-x,1/2-y,1/2+z
1/2+x,1/2-y,-z
1/2-x,1/2+y,-z
1/2-x,1/2-y,1/2-z
1/2+x,1/2+y,1/2-z
1/2-x,1/2+y,z
1/2+x,1/2-y,z
loop_
_atom_site_type_symbol
_atom_site_label
_atom_site_fract_x
_atom_site_fract_y
_atom_site_fract_z
Si Si1 0.203449 0.685752 0.658453
Si Si2 0.945487 0.674086 0.264654
Si Si3 0.378498 0.600929 0.825341
Si Si4 0.894548 0.197007 0.091305
Si Si5 0.700737 0.837005 0.848278
O O1 0.161868 0.799539 0.631838
O O2 0.251203 0.757300 0.624020
O O3 0.198460 0.514432 0.622182
O O4 0.199400 0.675316 0.753451
O O5 0.928329 0.500000 0.250000
O O6 0.919541 0.787126 0.203822
O O7 0.932630 0.712329 0.355992
O O8 0.000000 0.694473 0.250000
O O9 0.358939 0.500000 0.750000
O O10 0.399128 0.486009 0.891947
O O11 0.842030 0.247361 0.112596
O O12 0.906347 0.233135 0.000000
#
# Coordination Sequence:
#
# PCOD8293107 Si02
#       5
#    16  16  16  16  16
#     4  10  18  31  56  85 112 158 209 246 274 337
#     4  10  21  41  67  91 113 150 203 245 286 357
#     4  10  19  34  57  84 116 156 198 238 280 352
#     4  11  23  39  58  90 127 155 187 247 308 347
#     4  10  19  31  55  85 119 153 204 245 286 339
#
# _framework density 19.320657000000001
#
# number of rings (size 3 to 8) (size 9 to 14) (size 15 to 20)
#    0.000    1.800    4.000    2.400    2.800    3.600 
#    0.000   12.000    0.000    0.000    0.000    0.000 
#    0.000    0.000    0.000    0.000    0.000    0.000 
#
# Total GULP energy -496011.883163 kJ/mol
# GULP energy per Si atom -12400.297079 kJ/mol
# Density = 1.927668 g / cm^3
# Si number density = 19.320657 Si / 1000 Ang^3
#
#
#
# Elastic Constant Matrix: (Units=GPa)
#
#
# Indices 1 2 3 4 5 6 
#
# 1 106.4948 62.0819 49.7027 0.0000 0.0000 0.0000
# 2 62.0819 163.3418 41.3088 0.0000 0.0000 0.0000
# 3 49.7027 41.3088 88.6325 0.0000 0.0000 0.0000
# 4 0.0000 0.0000 0.0000 10.7768 0.0000 0.0000
# 5 0.0000 0.0000 0.0000 0.0000 9.2299 0.0000
# 6 0.0000 0.0000 0.0000 0.0000 0.0000 33.9883
#
#
#
# Elastic Compliance Matrix: (Units=1/GPa)
#
#
# Indices 1 2 3 4 5 6 
#
# 1 0.014682 -0.003965 -0.006385 0.000000 0.000000 0.000000
# 2 -0.003965 0.008011 -0.001510 0.000000 0.000000 0.000000
# 3 -0.006385 -0.001510 0.015567 0.000000 0.000000 0.000000
# 4 0.000000 0.000000 0.000000 0.092792 0.000000 0.000000
# 5 0.000000 0.000000 0.000000 0.000000 0.108344 0.000000
# 6 0.000000 0.000000 0.000000 0.000000 0.000000 0.029422
#
#
# Mechanical properties :
#
#
# Convention : Reuss Voigt Hill
#
# Bulk Modulus (GPa) = 68.78104 73.85067 71.31585
# Shear Modulus (GPa) = 16.81324 24.49071 20.65197
#
# Velocity S-wave (km/s) = 2.95315 3.56419 3.27296
# Velocity P-wave (km/s) = 6.87787 7.43267 7.16065
#
# Compressibility (1/GPa) = 0.01453889
#
# Stress axis : x y z
#
# Youngs Moduli (GPa) = 68.11181 124.82575 64.23909
#
# Poissons Ratio (x) = 0.49498 0.41016
# Poissons Ratio (y) = 0.27009 0.09701
# Poissons Ratio (z) = 0.43489 0.18850
#
# Static dielectric constant tensor:
#      x y z
#    x 3.462840 0.000000 0.000000 
#    y 0.000000 4.011700 0.000000 
#    z 0.000000 0.000000 3.147690 
# 
# 
# High freq. dielectric constant tensor:
#      x y z
#    x 1.748720 0.000000 0.000000 
#    y 0.000000 1.777590 0.000000 
#    z 0.000000 0.000000 1.702880 
# 
# From -- ./inp_files/28325.got.cif
#   From: 2010.03.12/outbox.cif.g09.slc.cpg/sg72_15_cif.got.tgz:28325.got - 2010.04.16 14:54:00.
