data_PCOD8293385
_publ_section_title
;
Structure prediction by ZEFSAII (Michael W. Deem and Ramdas Pophale) SiO2 
 PCOD8293385
Probable space group: I B A M
;
_chemical_formula_sum "Si O2"
_cell_formula_units_Z 112
_cell_length_a 22.064673
_cell_length_b 14.770782
_cell_length_c 17.671133
_cell_angle_alpha 90.000000
_cell_angle_beta 90.000000
_cell_angle_gamma 90.000000
_cell_volume 5759.242688
_symmetry_space_group_name_H-M "I B A M"
_symmetry_group_IT_number 72
_symmetry_cell_setting 'orthorhombic'
loop_
_space_group_symop_operation_xyz
x,y,z
-x,-y,z
x,-y,1/2-z
-x,y,1/2-z
-x,-y,-z
x,y,-z
-x,y,1/2+z
x,-y,1/2+z
1/2+x,1/2+y,1/2+z
1/2-x,1/2-y,1/2+z
1/2+x,1/2-y,-z
1/2-x,1/2+y,-z
1/2-x,1/2-y,1/2-z
1/2+x,1/2+y,1/2-z
1/2-x,1/2+y,z
1/2+x,1/2-y,z
loop_
_atom_site_type_symbol
_atom_site_label
_atom_site_fract_x
_atom_site_fract_y
_atom_site_fract_z
Si Si1 0.042000 0.627648 0.913448
Si Si2 0.905260 0.345965 0.588719
Si Si3 0.380216 0.700960 0.413753
Si Si4 0.357667 0.658515 0.910263
Si Si5 0.931093 0.013703 0.090578
Si Si6 0.780300 0.663251 0.590254
Si Si7 0.141125 0.513776 0.838112
O O1 0.063398 0.731008 0.905979
O O2 0.077670 0.562634 0.856843
O O3 0.972454 0.622738 0.889489
O O4 0.051949 0.593719 0.000000
O O5 0.894352 0.345576 0.500000
O O6 0.893999 0.245327 0.620848
O O7 0.857281 0.414455 0.625026
O O8 0.365383 0.678287 0.500000
O O9 0.400818 0.606084 0.375393
O O10 0.319602 0.749802 0.379835
O O11 0.389649 0.568408 0.878106
O O12 0.288660 0.670812 0.882863
O O13 0.359751 0.653559 0.000000
O O14 0.932283 0.017576 0.000000
O O15 0.000000 0.000000 0.120287
O O16 0.787995 0.654881 0.500000
O O17 0.804270 0.571203 0.627282
O O18 0.149850 0.500000 0.750000
#
# Coordination Sequence:
#
# PCOD8293385 Si02
#       7
#    16  16  16  16  16  16  16
#     4   9  17  31  51  75 103 133 167 209 259 315
#     4  10  19  32  51  75 103 134 166 207 262 313
#     4   8  14  25  43  66  95 130 160 195 248 300
#     4   9  18  30  48  75 102 131 169 210 251 303
#     4   9  15  24  42  72 105 129 155 200 255 304
#     4   9  18  34  52  73 102 134 174 216 252 299
#     4  11  22  34  50  75 103 137 175 211 255 307
#
# _framework density 19.447001
#
# number of rings (size 3 to 8) (size 9 to 14) (size 15 to 20)
#    0.000    2.714    0.000    3.429    0.000    6.857 
#    0.000    5.000    0.000    0.000    0.000    0.000 
#    0.000    9.143    0.000    0.000    0.000    0.000 
#
# Total GULP energy -694127.739161 kJ/mol
# GULP energy per Si atom -12395.138199 kJ/mol
# Density = 1.940274 g / cm^3
# Si number density = 19.447001 Si / 1000 Ang^3
#
#
#
# Elastic Constant Matrix: (Units=GPa)
#
#
# Indices 1 2 3 4 5 6 
#
# 1 90.7737 29.4087 19.2821 0.0000 0.0000 0.0000
# 2 29.4087 124.9556 15.8037 0.0000 0.0000 0.0000
# 3 19.2821 15.8037 28.3478 0.0000 0.0000 0.0000
# 4 0.0000 0.0000 0.0000 0.3686 0.0000 0.0000
# 5 0.0000 0.0000 0.0000 0.0000 6.5956 0.0000
# 6 0.0000 0.0000 0.0000 0.0000 0.0000 21.8922
#
#
#
# Elastic Compliance Matrix: (Units=1/GPa)
#
#
# Indices 1 2 3 4 5 6 
#
# 1 0.013394 -0.002152 -0.007911 0.000000 0.000000 0.000000
# 2 -0.002152 0.008956 -0.003529 0.000000 0.000000 0.000000
# 3 -0.007911 -0.003529 0.042625 0.000000 0.000000 0.000000
# 4 0.000000 0.000000 0.000000 2.713271 0.000000 0.000000
# 5 0.000000 0.000000 0.000000 0.000000 0.151616 0.000000
# 6 0.000000 0.000000 0.000000 0.000000 0.000000 0.045678
#
#
# Mechanical properties :
#
#
# Convention : Reuss Voigt Hill
#
# Bulk Modulus (GPa) = 26.46161 41.45179 33.95670
# Shear Modulus (GPa) = 1.65820 17.74343 9.70082
#
# Velocity S-wave (km/s) = 0.92441 3.02387 2.23588
# Velocity P-wave (km/s) = 3.84395 5.79252 4.91575
#
# Compressibility (1/GPa) = 0.03779059
#
# Stress axis : x y z
#
# Youngs Moduli (GPa) = 74.66034 111.66191 23.46063
#
# Poissons Ratio (x) = 0.24027 0.18560
# Poissons Ratio (y) = 0.16065 0.08279
# Poissons Ratio (z) = 0.59064 0.39406
#
# Static dielectric constant tensor:
#      x y z
#    x 3.615490 0.000000 0.000000 
#    y 0.000000 3.865690 0.000000 
#    z 0.000000 0.000000 2.894230 
# 
# 
# High freq. dielectric constant tensor:
#      x y z
#    x 1.758010 0.000000 0.000000 
#    y 0.000000 1.774910 0.000000 
#    z 0.000000 0.000000 1.686640 
# 
# From -- ./inp_files/25231.got.cif
#   From: 2010.03.12/outbox.cif.g09.slc.cpg/sg72_13_cif.got.tgz:25231.got - 2010.04.16 14:54:00.
