data_PCOD8293093
_publ_section_title
;
Structure prediction by ZEFSAII (Michael W. Deem and Ramdas Pophale) SiO2 
 PCOD8293093
Probable space group: I B A M
;
_chemical_formula_sum "Si O2"
_cell_formula_units_Z 112
_cell_length_a 13.350637
_cell_length_b 14.405675
_cell_length_c 30.531089
_cell_angle_alpha 90.000000
_cell_angle_beta 90.000000
_cell_angle_gamma 90.000000
_cell_volume 5871.889789
_symmetry_space_group_name_H-M "I B A M"
_symmetry_group_IT_number 72
_symmetry_cell_setting 'orthorhombic'
loop_
_space_group_symop_operation_xyz
x,y,z
-x,-y,z
x,-y,1/2-z
-x,y,1/2-z
-x,-y,-z
x,y,-z
-x,y,1/2+z
x,-y,1/2+z
1/2+x,1/2+y,1/2+z
1/2-x,1/2-y,1/2+z
1/2+x,1/2-y,-z
1/2-x,1/2+y,-z
1/2-x,1/2-y,1/2-z
1/2+x,1/2+y,1/2-z
1/2-x,1/2+y,z
1/2+x,1/2-y,z
loop_
_atom_site_type_symbol
_atom_site_label
_atom_site_fract_x
_atom_site_fract_y
_atom_site_fract_z
Si Si1 0.214824 0.099191 0.050063
Si Si2 0.764565 0.738265 0.384216
Si Si3 0.435677 0.677371 0.669735
Si Si4 0.295322 0.617291 0.450938
Si Si5 0.722938 0.394591 0.734697
Si Si6 0.138246 0.245400 0.803290
Si Si7 0.003471 0.893671 0.419080
O O1 0.288470 0.150172 0.084258
O O2 0.106738 0.145239 0.061226
O O3 0.218453 0.990542 0.060014
O O4 0.244476 0.120900 0.000000
O O5 0.862219 0.749942 0.353888
O O6 0.733923 0.825728 0.414933
O O7 0.668291 0.726825 0.353517
O O8 0.369341 0.608839 0.700145
O O9 0.517000 0.735175 0.698678
O O10 0.493331 0.617108 0.633352
O O11 0.259126 0.640379 0.500000
O O12 0.410187 0.651926 0.444717
O O13 0.745702 0.500000 0.750000
O O14 0.823011 0.346596 0.713722
O O15 0.691498 0.335984 0.776600
O O16 0.000000 0.000000 0.431973
#
# Coordination Sequence:
#
# PCOD8293093 Si02
#       7
#    16  16  16  16  16  16  16
#     4  10  18  31  53  78 111 149 185 232 286 334
#     4  10  20  33  54  79 108 149 188 226 283 340
#     4  10  20  34  55  82 115 148 185 236 284 342
#     4   9  18  31  48  77 110 140 186 236 280 335
#     4  10  23  38  61  88 114 149 193 237 293 350
#     4  10  21  38  56  83 119 145 186 243 288 345
#     4   9  17  28  49  80 110 140 178 230 285 336
#
# _framework density 19.073927999999999
#
# number of rings (size 3 to 8) (size 9 to 14) (size 15 to 20)
#    0.000    2.286    1.429    1.286    2.000    4.571 
#    0.000    0.000    0.000   23.143    0.000    2.000 
#    0.000    0.000    0.000    0.000    0.000    0.000 
#
# Total GULP energy -693977.548934 kJ/mol
# GULP energy per Si atom -12392.456231 kJ/mol
# Density = 1.903051 g / cm^3
# Si number density = 19.073928 Si / 1000 Ang^3
#
#
#
# Elastic Constant Matrix: (Units=GPa)
#
#
# Indices 1 2 3 4 5 6 
#
# 1 45.4269 26.5838 11.7621 0.0000 0.0000 0.0000
# 2 26.5838 90.2666 44.8266 0.0000 0.0000 0.0000
# 3 11.7621 44.8266 109.2640 0.0000 0.0000 0.0000
# 4 0.0000 0.0000 0.0000 34.9250 0.0000 0.0000
# 5 0.0000 0.0000 0.0000 0.0000 26.3821 0.0000
# 6 0.0000 0.0000 0.0000 0.0000 0.0000 18.6593
#
#
#
# Elastic Compliance Matrix: (Units=1/GPa)
#
#
# Indices 1 2 3 4 5 6 
#
# 1 0.026614 -0.008057 0.000440 0.000000 0.000000 0.000000
# 2 -0.008057 0.016352 -0.005841 0.000000 0.000000 0.000000
# 3 0.000440 -0.005841 0.011501 0.000000 0.000000 0.000000
# 4 0.000000 0.000000 0.000000 0.028633 0.000000 0.000000
# 5 0.000000 0.000000 0.000000 0.000000 0.037905 0.000000
# 6 0.000000 0.000000 0.000000 0.000000 0.000000 0.053593
#
#
# Mechanical properties :
#
#
# Convention : Reuss Voigt Hill
#
# Bulk Modulus (GPa) = 36.29491 45.70028 40.99760
# Shear Modulus (GPa) = 23.73090 26.77895 25.25492
#
# Velocity S-wave (km/s) = 3.53108 3.75100 3.64270
# Velocity P-wave (km/s) = 5.97449 6.54000 6.26363
#
# Compressibility (1/GPa) = 0.02755207
#
# Stress axis : x y z
#
# Youngs Moduli (GPa) = 37.57410 61.15565 86.94794
#
# Poissons Ratio (x) = 0.49271 -0.03829
# Poissons Ratio (y) = 0.30272 0.50788
# Poissons Ratio (z) = -0.01655 0.35722
#
# Static dielectric constant tensor:
#      x y z
#    x 3.529770 0.000000 0.000000 
#    y 0.000000 3.358910 0.000000 
#    z 0.000000 0.000000 3.715000 
# 
# 
# High freq. dielectric constant tensor:
#      x y z
#    x 1.717570 0.000000 0.000000 
#    y 0.000000 1.717980 0.000000 
#    z 0.000000 0.000000 1.765030 
# 
# From -- ./inp_files/51842.got.cif
#   From: 2010.03.12/outbox.cif.g09.slc.cpg/sg72_26_cif.got.tgz:51842.got - 2010.04.16 14:54:00.
