data_PCOD8293687
_publ_section_title
;
Structure prediction by ZEFSAII (Michael W. Deem and Ramdas Pophale) SiO2 
 PCOD8293687
Probable space group: I B A M
;
_chemical_formula_sum "Si O2"
_cell_formula_units_Z 112
_cell_length_a 14.651240
_cell_length_b 22.832185
_cell_length_c 14.624488
_cell_angle_alpha 90.000000
_cell_angle_beta 90.000000
_cell_angle_gamma 90.000000
_cell_volume 4892.181125
_symmetry_space_group_name_H-M "I B A M"
_symmetry_group_IT_number 72
_symmetry_cell_setting 'orthorhombic'
loop_
_space_group_symop_operation_xyz
x,y,z
-x,-y,z
x,-y,1/2-z
-x,y,1/2-z
-x,-y,-z
x,y,-z
-x,y,1/2+z
x,-y,1/2+z
1/2+x,1/2+y,1/2+z
1/2-x,1/2-y,1/2+z
1/2+x,1/2-y,-z
1/2-x,1/2+y,-z
1/2-x,1/2-y,1/2-z
1/2+x,1/2+y,1/2-z
1/2-x,1/2+y,z
1/2+x,1/2-y,z
loop_
_atom_site_type_symbol
_atom_site_label
_atom_site_fract_x
_atom_site_fract_y
_atom_site_fract_z
Si Si1 0.824988 0.857841 0.292723
Si Si2 0.893886 0.839820 0.898907
Si Si3 0.663661 0.904583 0.397590
Si Si4 0.529705 0.140383 0.650969
Si Si5 0.040871 0.060573 0.397372
Si Si6 0.595363 0.975548 0.107203
Si Si7 0.937603 0.766703 0.398077
O O1 0.821413 0.850954 0.182396
O O2 0.721662 0.865721 0.327221
O O3 0.883581 0.913810 0.327591
O O4 0.865633 0.797431 0.331479
O O5 0.957294 0.895856 0.902937
O O6 0.957706 0.784034 0.873399
O O7 0.847032 0.831256 0.000000
O O8 0.703777 0.897919 0.500000
O O9 0.559100 0.883021 0.402618
O O10 0.669099 0.973917 0.367703
O O11 0.500000 0.161061 0.750000
O O12 0.606907 0.088387 0.654868
O O13 0.573413 0.196830 0.603104
O O14 0.082589 0.051813 0.500000
O O15 0.000000 0.000000 0.358653
O O16 0.500000 0.000000 0.143763
O O17 0.594754 0.964048 0.000000
O O18 0.916264 0.790099 0.500000
#
# Coordination Sequence:
#
# PCOD8293687 Si02
#       7
#    16  16  16  16  16  16  16
#     4  11  20  35  61  91 121 156 204 255 309 368
#     4   9  19  34  53  81 121 164 203 248 300 360
#     4  10  21  38  61  89 119 153 198 259 318 360
#     4  11  21  36  60  88 119 163 210 247 296 369
#     4   9  17  31  53  82 114 152 200 249 300 363
#     4   8  16  33  56  82 113 150 195 245 300 363
#     4  10  19  35  61  91 124 165 211 253 300 365
#
# _framework density 22.893673
#
# number of rings (size 3 to 8) (size 9 to 14) (size 15 to 20)
#    0.000    2.286    0.000    6.857    0.000    3.714 
#    0.000    5.714    0.000    7.714    0.000    6.000 
#    0.000    0.571    0.000    0.000    0.000    0.000 
#
# Total GULP energy -694001.782357 kJ/mol
# GULP energy per Si atom -12392.888971 kJ/mol
# Density = 2.284157 g / cm^3
# Si number density = 22.893673 Si / 1000 Ang^3
#
#
#
# Elastic Constant Matrix: (Units=GPa)
#
#
# Indices 1 2 3 4 5 6 
#
# 1 50.2677 26.2289 32.3831 0.0000 0.0000 0.0000
# 2 26.2289 145.0267 25.0984 0.0001 0.0000 -0.0001
# 3 32.3831 25.0984 125.9409 0.0001 0.0000 -0.0001
# 4 0.0000 0.0001 0.0001 24.2243 0.0000 -0.0001
# 5 0.0000 0.0000 0.0000 0.0000 25.9616 0.0000
# 6 0.0000 -0.0001 -0.0001 -0.0001 0.0000 19.8470
#
#
#
# Elastic Compliance Matrix: (Units=1/GPa)
#
#
# Indices 1 2 3 4 5 6 
#
# 1 0.025544 -0.003608 -0.005849 0.000000 0.000000 0.000000
# 2 -0.003608 0.007651 -0.000597 0.000000 0.000000 0.000000
# 3 -0.005849 -0.000597 0.009563 0.000000 0.000000 0.000000
# 4 0.000000 0.000000 0.000000 0.041281 0.000000 0.000000
# 5 0.000000 0.000000 0.000000 0.000000 0.038518 0.000000
# 6 0.000000 0.000000 0.000000 0.000000 0.000000 0.050385
#
#
# Mechanical properties :
#
#
# Convention : Reuss Voigt Hill
#
# Bulk Modulus (GPa) = 44.14899 54.29511 49.22205
# Shear Modulus (GPa) = 24.92513 29.84158 27.38335
#
# Velocity S-wave (km/s) = 3.30318 3.61430 3.46223
# Velocity P-wave (km/s) = 5.82015 6.41757 6.12615
#
# Compressibility (1/GPa) = 0.02265057
#
# Stress axis : x y z
#
# Youngs Moduli (GPa) = 39.14818 130.70073 104.56714
#
# Poissons Ratio (x) = 0.47151 0.61163
# Poissons Ratio (y) = 0.14123 0.06244
# Poissons Ratio (z) = 0.22898 0.07805
#
# Static dielectric constant tensor:
#      x y z
#    x 3.568320 0.000000 0.000000 
#    y 0.000000 4.344950 0.000000 
#    z 0.000000 0.000000 4.250880 
# 
# 
# High freq. dielectric constant tensor:
#      x y z
#    x 1.844180 0.000000 0.000000 
#    y 0.000000 1.910290 0.000000 
#    z 0.000000 0.000000 1.913720 
# 
# From -- ./inp_files/22145.got.cif
#   From: 2010.03.12/outbox.cif.g09.slc.cpg/sg72_12_cif.got.tgz:22145.got - 2010.04.16 14:54:00.
