data_PCOD8293926
_publ_section_title
;
Structure prediction by ZEFSAII (Michael W. Deem and Ramdas Pophale) SiO2 
 PCOD8293926
Probable space group: I B A M
;
_chemical_formula_sum "Si O2"
_cell_formula_units_Z 80
_cell_length_a 17.448585
_cell_length_b 24.527089
_cell_length_c 9.778376
_cell_angle_alpha 90.000000
_cell_angle_beta 90.000000
_cell_angle_gamma 90.000000
_cell_volume 4184.783101
_symmetry_space_group_name_H-M "I B A M"
_symmetry_group_IT_number 72
_symmetry_cell_setting 'orthorhombic'
loop_
_space_group_symop_operation_xyz
x,y,z
-x,-y,z
x,-y,1/2-z
-x,y,1/2-z
-x,-y,-z
x,y,-z
-x,y,1/2+z
x,-y,1/2+z
1/2+x,1/2+y,1/2+z
1/2-x,1/2-y,1/2+z
1/2+x,1/2-y,-z
1/2-x,1/2+y,-z
1/2-x,1/2-y,1/2-z
1/2+x,1/2+y,1/2-z
1/2-x,1/2+y,z
1/2+x,1/2-y,z
loop_
_atom_site_type_symbol
_atom_site_label
_atom_site_fract_x
_atom_site_fract_y
_atom_site_fract_z
Si Si1 0.924405 0.051307 0.163033
Si Si2 0.067657 0.372362 0.000000
Si Si3 0.259143 0.676873 0.000000
Si Si4 0.135114 0.436276 0.764229
Si Si5 0.285383 0.624572 0.718055
Si Si6 0.284068 0.197904 0.500000
Si Si7 0.602349 0.869068 0.000000
O O1 0.866191 0.101566 0.167566
O O2 0.000000 0.067896 0.250000
O O3 0.889902 0.000000 0.250000
O O4 0.940582 0.038111 0.000000
O O5 0.075148 0.412148 0.128576
O O6 0.128935 0.323804 0.000000
O O7 0.983395 0.344451 0.000000
O O8 0.291929 0.642911 0.126318
O O9 0.291145 0.737466 0.000000
O O10 0.165721 0.679185 0.000000
O O11 0.123802 0.500000 0.750000
O O12 0.222174 0.422422 0.808766
O O13 0.116030 0.408267 0.624458
O O14 0.261909 0.678071 0.632916
#
# Coordination Sequence:
#
# PCOD8293926 Si02
#       7
#    16   8   8  16  16   8   8
#     4  11  23  39  61  90 125 159 193 237 302 362
#     4  10  21  34  56  77 114 144 186 232 283 331
#     4  10  22  37  63  81 113 151 204 241 299 345
#     4  10  20  34  53  81 113 150 184 218 274 337
#     4  10  21  38  59  84 116 150 195 246 283 353
#     4  10  20  41  59  83 109 155 196 249 299 341
#     4  10  21  36  50  83 110 146 184 234 273 333
#
# _framework density 19.116882
#
# number of rings (size 3 to 8) (size 9 to 14) (size 15 to 20)
#    0.000    1.800    1.000    3.600    2.800    2.400 
#    3.600    2.000    0.000    0.000    0.000    0.000 
#    0.000    0.000    0.000    0.000    0.000    0.000 
#
# Total GULP energy -495835.317988 kJ/mol
# GULP energy per Si atom -12395.882950 kJ/mol
# Density = 1.907337 g / cm^3
# Si number density = 19.116882 Si / 1000 Ang^3
#
#
#
# Elastic Constant Matrix: (Units=GPa)
#
#
# Indices 1 2 3 4 5 6 
#
# 1 90.8319 41.1982 25.9369 0.0000 0.0000 0.0000
# 2 41.1982 84.1094 11.6401 0.0000 0.0000 0.0000
# 3 25.9369 11.6401 135.6767 0.0000 0.0000 0.0000
# 4 0.0000 0.0000 0.0000 -17.2470 0.0000 0.0000
# 5 0.0000 0.0000 0.0000 0.0000 23.0116 0.0000
# 6 0.0000 0.0000 0.0000 0.0000 0.0000 20.9544
#
#
#
# Elastic Compliance Matrix: (Units=1/GPa)
#
#
# Indices 1 2 3 4 5 6 
#
# 1 0.014793 -0.006937 -0.002233 0.000000 0.000000 0.000000
# 2 -0.006937 0.015285 0.000015 0.000000 0.000000 0.000000
# 3 -0.002233 0.000015 0.007796 0.000000 0.000000 0.000000
# 4 0.000000 0.000000 0.000000 -0.057981 0.000000 0.000000
# 5 0.000000 0.000000 0.000000 0.000000 0.043456 0.000000
# 6 0.000000 0.000000 0.000000 0.000000 0.000000 0.047723
#
#
# Mechanical properties :
#
#
# Convention : Reuss Voigt Hill
#
# Bulk Modulus (GPa) = 51.11354 52.01873 51.56613
# Shear Modulus (GPa) = 52.13549 20.79998 36.46774
#
# Velocity S-wave (km/s) = 5.22792 3.30213 4.37237
# Velocity P-wave (km/s) = 7.95217 6.46596 7.24726
#
# Compressibility (1/GPa) = 0.01956429
#
# Stress axis : x y z
#
# Youngs Moduli (GPa) = 67.59802 65.42312 128.27026
#
# Poissons Ratio (x) = 0.45384 0.28641
# Poissons Ratio (y) = 0.46893 -0.00190
# Poissons Ratio (z) = 0.15094 -0.00097
#
# Static dielectric constant tensor:
#      x y z
#    x 3.614690 0.000000 0.000000 
#    y 0.000000 3.187540 0.000000 
#    z 0.000000 0.000000 3.815410 
# 
# 
# High freq. dielectric constant tensor:
#      x y z
#    x 1.742220 0.000000 0.000000 
#    y 0.000000 1.717600 0.000000 
#    z 0.000000 0.000000 1.771190 
# 
# From -- ./inp_files/4890.got.cif
#   From: 2010.03.12/outbox.cif.g09.slc.cpg/sg72_3_cif.got.tgz:4890.got - 2010.04.16 14:54:00.
