data_PCOD8293738
_publ_section_title
;
Structure prediction by ZEFSAII (Michael W. Deem and Ramdas Pophale) SiO2 
 PCOD8293738
Probable space group: I B A M
;
_chemical_formula_sum "Si O2"
_cell_formula_units_Z 96
_cell_length_a 28.673761
_cell_length_b 8.938386
_cell_length_c 18.191044
_cell_angle_alpha 90.000000
_cell_angle_beta 90.000000
_cell_angle_gamma 90.000000
_cell_volume 4662.312622
_symmetry_space_group_name_H-M "I B A M"
_symmetry_group_IT_number 72
_symmetry_cell_setting 'orthorhombic'
loop_
_space_group_symop_operation_xyz
x,y,z
-x,-y,z
x,-y,1/2-z
-x,y,1/2-z
-x,-y,-z
x,y,-z
-x,y,1/2+z
x,-y,1/2+z
1/2+x,1/2+y,1/2+z
1/2-x,1/2-y,1/2+z
1/2+x,1/2-y,-z
1/2-x,1/2+y,-z
1/2-x,1/2-y,1/2-z
1/2+x,1/2+y,1/2-z
1/2-x,1/2+y,z
1/2+x,1/2-y,z
loop_
_atom_site_type_symbol
_atom_site_label
_atom_site_fract_x
_atom_site_fract_y
_atom_site_fract_z
Si Si1 0.690003 0.066545 0.671505
Si Si2 0.459222 0.606253 0.086814
Si Si3 0.279958 0.415864 0.173182
Si Si4 0.605201 0.159061 0.418001
Si Si5 0.136633 0.990366 0.919759
Si Si6 0.510709 0.830701 0.170284
O O1 0.709372 0.238684 0.678947
O O2 0.644521 0.054586 0.619379
O O3 0.674248 0.000000 0.750000
O O4 0.729563 0.955843 0.636555
O O5 0.500000 0.500000 0.119580
O O6 0.408620 0.564657 0.119218
O O7 0.472927 0.771921 0.111327
O O8 0.457130 0.588171 0.000000
O O9 0.276064 0.500000 0.250000
O O10 0.318696 0.511508 0.130576
O O11 0.590544 0.097035 0.500000
O O12 0.628652 0.316545 0.431102
O O13 0.562470 0.186407 0.362182
O O14 0.145826 0.063495 0.000000
O O15 0.500000 0.752490 0.250000
O O16 0.500000 0.000000 0.181040
#
# Coordination Sequence:
#
# PCOD8293738 Si02
#       6
#    16  16  16  16  16  16
#     4  10  21  37  63  86 117 156 196 247 298 355
#     4  10  19  37  62  84 115 155 198 247 297 360
#     4  10  20  37  58  87 118 155 194 246 300 354
#     4  10  21  40  62  85 118 161 196 236 302 364
#     4   9  19  36  60  87 115 153 196 245 294 348
#     4  11  25  40  57  86 122 157 199 248 301 352
#
# _framework density 20.590638999999999
#
# number of rings (size 3 to 8) (size 9 to 14) (size 15 to 20)
#    0.000    2.000    1.667    2.500    2.333    5.000 
#    3.000    0.000    0.000    0.000    0.000    0.000 
#    0.000    0.000    0.000    0.000    0.000    0.000 
#
# Total GULP energy -594642.466926 kJ/mol
# GULP energy per Si atom -12388.384728 kJ/mol
# Density = 2.054377 g / cm^3
# Si number density = 20.590639 Si / 1000 Ang^3
#
#
#
# Elastic Constant Matrix: (Units=GPa)
#
#
# Indices 1 2 3 4 5 6 
#
# 1 149.5961 19.2488 74.0086 0.0000 0.0000 0.0000
# 2 19.2488 56.9020 20.7263 0.0000 0.0000 0.0000
# 3 74.0086 20.7263 75.2981 0.0000 0.0000 0.0000
# 4 0.0000 0.0000 0.0000 25.2135 0.0000 0.0000
# 5 0.0000 0.0000 0.0000 0.0000 31.9201 0.0000
# 6 0.0000 0.0000 0.0000 0.0000 0.0000 33.6934
#
#
#
# Elastic Compliance Matrix: (Units=1/GPa)
#
#
# Indices 1 2 3 4 5 6 
#
# 1 0.013016 0.000285 -0.012871 0.000000 0.000000 0.000000
# 2 0.000285 0.019539 -0.005659 0.000000 0.000000 0.000000
# 3 -0.012871 -0.005659 0.027489 0.000000 0.000000 0.000000
# 4 0.000000 0.000000 0.000000 0.039661 0.000000 0.000000
# 5 0.000000 0.000000 0.000000 0.000000 0.031328 0.000000
# 6 0.000000 0.000000 0.000000 0.000000 0.000000 0.029679
#
#
# Mechanical properties :
#
#
# Convention : Reuss Voigt Hill
#
# Bulk Modulus (GPa) = 42.45525 56.64038 49.54781
# Shear Modulus (GPa) = 24.38395 29.35291 26.86843
#
# Velocity S-wave (km/s) = 3.44499 3.77974 3.61624
# Velocity P-wave (km/s) = 6.04048 6.82760 6.44607
#
# Compressibility (1/GPa) = 0.02355422
#
# Stress axis : x y z
#
# Youngs Moduli (GPa) = 76.83022 51.18053 36.37808
#
# Poissons Ratio (x) = -0.01461 0.46824
# Poissons Ratio (y) = -0.02193 0.20585
# Poissons Ratio (z) = 0.98891 0.28961
#
# Static dielectric constant tensor:
#      x y z
#    x 3.966170 0.000000 0.000000 
#    y 0.000000 3.607250 0.000000 
#    z 0.000000 0.000000 4.075560 
# 
# 
# High freq. dielectric constant tensor:
#      x y z
#    x 1.816760 0.000000 0.000000 
#    y 0.000000 1.788260 0.000000 
#    z 0.000000 0.000000 1.798280 
# 
# From -- ./inp_files/40705.got.cif
#   From: 2010.03.12/outbox.cif.g09.slc.cpg/sg72_21_cif.got.tgz:40705.got - 2010.04.16 14:54:00.
