data_PCOD8293055
_publ_section_title
;
Structure prediction by ZEFSAII (Michael W. Deem and Ramdas Pophale) SiO2 
 PCOD8293055
Probable space group: I B A M
;
_chemical_formula_sum "Si O2"
_cell_formula_units_Z 88
_cell_length_a 11.271086
_cell_length_b 30.595974
_cell_length_c 14.372236
_cell_angle_alpha 90.000000
_cell_angle_beta 90.000000
_cell_angle_gamma 90.000000
_cell_volume 4956.263489
_symmetry_space_group_name_H-M "I B A M"
_symmetry_group_IT_number 72
_symmetry_cell_setting 'orthorhombic'
loop_
_space_group_symop_operation_xyz
x,y,z
-x,-y,z
x,-y,1/2-z
-x,y,1/2-z
-x,-y,-z
x,y,-z
-x,y,1/2+z
x,-y,1/2+z
1/2+x,1/2+y,1/2+z
1/2-x,1/2-y,1/2+z
1/2+x,1/2-y,-z
1/2-x,1/2+y,-z
1/2-x,1/2-y,1/2-z
1/2+x,1/2+y,1/2-z
1/2-x,1/2+y,z
1/2+x,1/2-y,z
loop_
_atom_site_type_symbol
_atom_site_label
_atom_site_fract_x
_atom_site_fract_y
_atom_site_fract_z
Si Si1 0.659347 0.333895 0.500000
Si Si2 0.497518 0.178432 0.353830
Si Si3 0.133531 0.553938 0.000000
Si Si4 0.723782 0.122913 0.361632
Si Si5 0.787488 0.612835 0.146038
Si Si6 0.883751 0.831180 0.000000
Si Si7 0.853000 0.454804 0.500000
Si Si8 0.367598 0.767716 0.000000
O O1 0.684735 0.360901 0.406370
O O2 0.522745 0.322439 0.500000
O O3 0.740104 0.290866 0.500000
O O4 0.500000 0.196585 0.250000
O O5 0.627810 0.161248 0.380474
O O6 0.412773 0.136819 0.366846
O O7 0.449775 0.219043 0.412731
O O8 0.180912 0.578201 0.908476
O O9 0.185939 0.505113 0.000000
O O10 0.992877 0.551945 0.000000
O O11 0.746376 0.110367 0.254418
O O12 0.843412 0.141666 0.408579
O O13 0.800055 0.566108 0.095045
O O14 0.830579 0.782591 0.000000
#
# Coordination Sequence:
#
# PCOD8293055 Si02
#       8
#     8  16   8  16  16   8   8   8
#     4   9  21  38  53  78 104 143 191 225 267 329
#     4   9  17  33  55  78 102 145 181 213 266 335
#     4  10  19  29  51  89 127 133 177 219 271 336
#     4  10  20  35  54  80 112 149 177 223 273 327
#     4   9  18  36  57  74 108 150 185 210 270 329
#     4  11  24  35  54  80 104 142 185 236 275 315
#     4  10  18  30  54  89 114 150 168 220 273 328
#     4  10  20  36  54  76 108 141 174 234 281 322
#
# _framework density 17.755310999999999
#
# number of rings (size 3 to 8) (size 9 to 14) (size 15 to 20)
#    0.000    2.364    1.818    1.636    2.545    1.455 
#    3.273    4.545    0.000    8.727    0.000   10.182 
#    0.000    0.000    0.000    0.000    0.000    0.000 
#
# Total GULP energy -545439.166197 kJ/mol
# GULP energy per Si atom -12396.344686 kJ/mol
# Density = 1.771490 g / cm^3
# Si number density = 17.755311 Si / 1000 Ang^3
#
#
#
# Elastic Constant Matrix: (Units=GPa)
#
#
# Indices 1 2 3 4 5 6 
#
# 1 84.0959 30.4930 35.1654 0.0005 0.0000 0.0000
# 2 30.4930 117.6297 60.1875 0.0002 0.0003 0.0000
# 3 35.1654 60.1875 154.3657 0.0006 0.0012 0.0001
# 4 0.0005 0.0002 0.0006 7.0315 0.0004 -0.0001
# 5 0.0000 0.0003 0.0012 0.0004 16.3213 0.0000
# 6 0.0000 0.0000 0.0001 -0.0001 0.0000 20.3336
#
#
#
# Elastic Compliance Matrix: (Units=1/GPa)
#
#
# Indices 1 2 3 4 5 6 
#
# 1 0.013681 -0.002438 -0.002166 -0.000001 0.000000 0.000000
# 2 -0.002438 0.011055 -0.003755 0.000000 0.000000 0.000000
# 3 -0.002166 -0.003755 0.008436 -0.000001 -0.000001 0.000000
# 4 -0.000001 0.000000 -0.000001 0.142217 -0.000003 0.000001
# 5 0.000000 0.000000 -0.000001 -0.000003 0.061270 0.000000
# 6 0.000000 0.000000 0.000000 0.000001 0.000000 0.049180
#
#
# Mechanical properties :
#
#
# Convention : Reuss Voigt Hill
#
# Bulk Modulus (GPa) = 60.77853 67.53145 64.15499
# Shear Modulus (GPa) = 16.23169 24.08698 20.15933
#
# Velocity S-wave (km/s) = 3.02683 3.68721 3.37322
# Velocity P-wave (km/s) = 6.82064 7.49963 7.16818
#
# Compressibility (1/GPa) = 0.01645318
#
# Stress axis : x y z
#
# Youngs Moduli (GPa) = 73.09405 90.46088 118.54648
#
# Poissons Ratio (x) = 0.22057 0.25676
# Poissons Ratio (y) = 0.17822 0.44511
# Poissons Ratio (z) = 0.15832 0.33966
#
# Static dielectric constant tensor:
#      x y z
#    x 3.071940 0.000000 0.000000 
#    y 0.000000 3.150440 0.000000 
#    z 0.000000 0.000000 3.365990 
# 
# 
# High freq. dielectric constant tensor:
#      x y z
#    x 1.667690 0.000000 0.000000 
#    y 0.000000 1.672320 0.000000 
#    z 0.000000 0.000000 1.697280 
# 
# From -- ./inp_files/20567.got.cif
#   From: 2010.03.12/outbox.cif.g09.slc.cpg/sg72_11_cif.got.tgz:20567.got - 2010.04.16 14:54:00.
