data_PCOD8293654
_publ_section_title
;
Structure prediction by ZEFSAII (Michael W. Deem and Ramdas Pophale) SiO2 
 PCOD8293654
Probable space group: I B A M
;
_chemical_formula_sum "Si O2"
_cell_formula_units_Z 112
_cell_length_a 24.732057
_cell_length_b 11.555372
_cell_length_c 20.579028
_cell_angle_alpha 90.000000
_cell_angle_beta 90.000000
_cell_angle_gamma 90.000000
_cell_volume 5881.241702
_symmetry_space_group_name_H-M "I B A M"
_symmetry_group_IT_number 72
_symmetry_cell_setting 'orthorhombic'
loop_
_space_group_symop_operation_xyz
x,y,z
-x,-y,z
x,-y,1/2-z
-x,y,1/2-z
-x,-y,-z
x,y,-z
-x,y,1/2+z
x,-y,1/2+z
1/2+x,1/2+y,1/2+z
1/2-x,1/2-y,1/2+z
1/2+x,1/2-y,-z
1/2-x,1/2+y,-z
1/2-x,1/2-y,1/2-z
1/2+x,1/2+y,1/2-z
1/2-x,1/2+y,z
1/2+x,1/2-y,z
loop_
_atom_site_type_symbol
_atom_site_label
_atom_site_fract_x
_atom_site_fract_y
_atom_site_fract_z
Si Si1 0.222108 0.332904 0.572297
Si Si2 0.224835 0.523731 0.321153
Si Si3 0.150742 0.978372 0.320311
Si Si4 0.569093 0.896110 0.575487
Si Si5 0.048354 0.647831 0.922804
Si Si6 0.671029 0.242193 0.877571
Si Si7 0.371577 0.657953 0.575394
O O1 0.209650 0.383259 0.500000
O O2 0.205967 0.429928 0.625086
O O3 0.285784 0.300604 0.573465
O O4 0.187093 0.217401 0.583846
O O5 0.200145 0.500000 0.250000
O O6 0.288961 0.527535 0.317693
O O7 0.203917 0.650770 0.335984
O O8 0.121928 0.044273 0.380076
O O9 0.122833 0.000000 0.250000
O O10 0.147585 0.841146 0.331048
O O11 0.559837 0.909952 0.500000
O O12 0.513531 0.838726 0.602650
O O13 0.621097 0.818050 0.587151
O O14 0.574201 0.026765 0.603885
O O15 0.083467 0.754195 0.896681
O O16 0.052469 0.650620 0.000000
O O17 0.380790 0.622161 0.500000
#
# Coordination Sequence:
#
# PCOD8293654 Si02
#       7
#    16  16  16  16  16  16  16
#     4  10  21  33  53  84 114 143 180 231 284 328
#     4  10  22  36  55  79 110 152 192 230 274 344
#     4  10  23  37  54  77 112 152 190 228 271 339
#     4   9  17  32  55  87 114 138 178 230 287 333
#     4   8  16  32  57  83 111 143 180 228 279 339
#     4  11  21  35  53  80 111 147 182 229 284 330
#     4  10  19  35  56  82 112 147 187 230 281 340
#
# _framework density 19.043596999999998
#
# number of rings (size 3 to 8) (size 9 to 14) (size 15 to 20)
#    0.000    2.286    1.429    2.143    2.000    6.857 
#    0.000    0.714    0.000    4.286    0.000    0.000 
#    0.000    0.000    0.000    0.000    0.000    0.000 
#
# Total GULP energy -694033.042095 kJ/mol
# GULP energy per Si atom -12393.447180 kJ/mol
# Density = 1.900025 g / cm^3
# Si number density = 19.043597 Si / 1000 Ang^3
#
#
#
# Elastic Constant Matrix: (Units=GPa)
#
#
# Indices 1 2 3 4 5 6 
#
# 1 69.8291 28.0681 5.9834 0.0000 0.0000 0.0000
# 2 28.0681 116.3890 45.2701 0.0000 0.0000 0.0000
# 3 5.9834 45.2701 101.1821 0.0000 0.0000 0.0000
# 4 0.0000 0.0000 0.0000 26.2736 0.0000 0.0000
# 5 0.0000 0.0000 0.0000 0.0000 7.0005 0.0000
# 6 0.0000 0.0000 0.0000 0.0000 0.0000 28.0497
#
#
#
# Elastic Compliance Matrix: (Units=1/GPa)
#
#
# Indices 1 2 3 4 5 6 
#
# 1 0.015931 -0.004208 0.000941 0.000000 0.000000 0.000000
# 2 -0.004208 0.011513 -0.004902 0.000000 0.000000 0.000000
# 3 0.000941 -0.004902 0.012021 0.000000 0.000000 0.000000
# 4 0.000000 0.000000 0.000000 0.038061 0.000000 0.000000
# 5 0.000000 0.000000 0.000000 0.000000 0.142847 0.000000
# 6 0.000000 0.000000 0.000000 0.000000 0.000000 0.035651
#
#
# Mechanical properties :
#
#
# Convention : Reuss Voigt Hill
#
# Bulk Modulus (GPa) = 43.24063 49.56039 46.40051
# Shear Modulus (GPa) = 17.85250 26.13665 21.99458
#
# Velocity S-wave (km/s) = 3.06511 3.70870 3.40216
# Velocity P-wave (km/s) = 5.93986 6.66487 6.31278
#
# Compressibility (1/GPa) = 0.02312640
#
# Stress axis : x y z
#
# Youngs Moduli (GPa) = 62.76899 86.85495 83.18806
#
# Poissons Ratio (x) = 0.36547 -0.07824
# Poissons Ratio (y) = 0.26412 0.40782
# Poissons Ratio (z) = -0.05904 0.42580
#
# Static dielectric constant tensor:
#      x y z
#    x 3.500620 0.000000 0.000000 
#    y 0.000000 3.495640 0.000000 
#    z 0.000000 0.000000 3.404290 
# 
# 
# High freq. dielectric constant tensor:
#      x y z
#    x 1.723360 0.000000 0.000000 
#    y 0.000000 1.742280 0.000000 
#    z 0.000000 0.000000 1.716390 
# 
# From -- ./inp_files/37327.got.cif
#   From: 2010.03.12/outbox.cif.g09.slc.cpg/sg72_19_cif.got.tgz:37327.got - 2010.04.16 14:54:00.
