data_PCOD8293579
_publ_section_title
;
Structure prediction by ZEFSAII (Michael W. Deem and Ramdas Pophale) SiO2 
 PCOD8293579
Probable space group: I B A M
;
_chemical_formula_sum "Si O2"
_cell_formula_units_Z 96
_cell_length_a 9.454692
_cell_length_b 29.142164
_cell_length_c 16.655721
_cell_angle_alpha 90.000000
_cell_angle_beta 90.000000
_cell_angle_gamma 90.000000
_cell_volume 4589.153886
_symmetry_space_group_name_H-M "I B A M"
_symmetry_group_IT_number 72
_symmetry_cell_setting 'orthorhombic'
loop_
_space_group_symop_operation_xyz
x,y,z
-x,-y,z
x,-y,1/2-z
-x,y,1/2-z
-x,-y,-z
x,y,-z
-x,y,1/2+z
x,-y,1/2+z
1/2+x,1/2+y,1/2+z
1/2-x,1/2-y,1/2+z
1/2+x,1/2-y,-z
1/2-x,1/2+y,-z
1/2-x,1/2-y,1/2-z
1/2+x,1/2+y,1/2-z
1/2-x,1/2+y,z
1/2+x,1/2-y,z
loop_
_atom_site_type_symbol
_atom_site_label
_atom_site_fract_x
_atom_site_fract_y
_atom_site_fract_z
Si Si1 0.703196 0.783793 0.095983
Si Si2 0.520248 0.300603 0.595115
Si Si3 0.899186 0.462206 0.907820
Si Si4 0.159081 0.013349 0.338777
Si Si5 0.013110 0.634239 0.905633
Si Si6 0.802718 0.886727 0.405860
O O1 0.634653 0.736301 0.127475
O O2 0.862923 0.790726 0.130118
O O3 0.601292 0.823611 0.131364
O O4 0.708096 0.784448 0.000000
O O5 0.514419 0.296604 0.500000
O O6 0.573096 0.351498 0.619801
O O7 0.740515 0.480457 0.900655
O O8 0.000000 0.500000 0.865520
O O9 0.923210 0.412614 0.867417
O O10 0.944545 0.457082 0.000000
O O11 0.183165 0.067057 0.354638
O O12 0.211042 0.000000 0.250000
O O13 0.000000 0.000000 0.353021
O O14 0.846641 0.637768 0.886180
O O15 0.039260 0.635391 0.000000
O O16 0.811601 0.899355 0.500000
#
# Coordination Sequence:
#
# PCOD8293579 Si02
#       6
#    16  16  16  16  16  16
#     4   9  16  27  43  73 113 148 177 218 274 331
#     4   9  17  27  45  73 109 147 181 220 274 328
#     4  10  19  35  57  82 108 140 184 232 280 331
#     4  11  25  40  53  75 111 147 190 229 284 336
#     4   9  17  29  48  75 109 141 175 221 275 326
#     4  10  19  34  54  78 107 145 188 234 278 325
#
# _framework density 20.918889
#
# number of rings (size 3 to 8) (size 9 to 14) (size 15 to 20)
#    0.000    2.333    1.667    1.500    2.333    5.667 
#    0.000    0.000    0.000    0.000    0.000    1.167 
#    0.000    0.000    0.000    0.000    0.000    0.000 
#
# Total GULP energy -594979.775412 kJ/mol
# GULP energy per Si atom -12395.411988 kJ/mol
# Density = 2.087128 g / cm^3
# Si number density = 20.918889 Si / 1000 Ang^3
#
#
#
# Elastic Constant Matrix: (Units=GPa)
#
#
# Indices 1 2 3 4 5 6 
#
# 1 136.5301 66.1662 21.3231 0.0001 0.0000 0.0000
# 2 66.1662 151.6929 29.3157 0.0001 0.0000 0.0000
# 3 21.3231 29.3157 18.7995 0.0003 0.0000 0.0000
# 4 0.0001 0.0001 0.0003 11.5124 0.0000 0.0000
# 5 0.0000 0.0000 0.0000 0.0000 9.0668 0.0000
# 6 0.0000 0.0000 0.0000 0.0000 0.0000 46.1579
#
#
#
# Elastic Compliance Matrix: (Units=1/GPa)
#
#
# Indices 1 2 3 4 5 6 
#
# 1 0.009792 -0.003041 -0.006364 0.000000 0.000000 0.000000
# 2 -0.003041 0.010380 -0.012738 0.000000 0.000000 0.000000
# 3 -0.006364 -0.012738 0.080274 -0.000002 0.000000 0.000000
# 4 0.000000 0.000000 -0.000002 0.086863 0.000000 0.000000
# 5 0.000000 0.000000 0.000000 0.000000 0.110292 0.000000
# 6 0.000000 0.000000 0.000000 0.000000 0.000000 0.021665
#
#
# Mechanical properties :
#
#
# Convention : Reuss Voigt Hill
#
# Bulk Modulus (GPa) = 17.80603 60.07029 38.93816
# Shear Modulus (GPa) = 13.07967 26.02859 19.55413
#
# Velocity S-wave (km/s) = 2.50323 3.53124 3.06070
# Velocity P-wave (km/s) = 4.10917 6.73827 5.58075
#
# Compressibility (1/GPa) = 0.05616073
#
# Stress axis : x y z
#
# Youngs Moduli (GPa) = 102.12158 96.33478 12.45732
#
# Poissons Ratio (x) = 0.29298 0.07928
# Poissons Ratio (y) = 0.31058 0.15868
# Poissons Ratio (z) = 0.64992 1.22707
#
# Static dielectric constant tensor:
#      x y z
#    x 3.949910 0.000000 0.000000 
#    y 0.000000 4.135760 0.000000 
#    z 0.000000 0.000000 3.121730 
# 
# 
# High freq. dielectric constant tensor:
#      x y z
#    x 1.832480 0.000000 0.000000 
#    y 0.000000 1.835790 0.000000 
#    z 0.000000 0.000000 1.745440 
# 
# From -- ./inp_files/36041.got.cif
#   From: 2010.03.12/outbox.cif.g09.slc.cpg/sg72_19_cif.got.tgz:36041.got - 2010.04.16 14:54:00.
