data_PCOD8293592
_publ_section_title
;
Structure prediction by ZEFSAII (Michael W. Deem and Ramdas Pophale) SiO2 
 PCOD8293592
Probable space group: I B A M
;
_chemical_formula_sum "Si O2"
_cell_formula_units_Z 100
_cell_length_a 21.138897
_cell_length_b 26.394208
_cell_length_c 8.996098
_cell_angle_alpha 90.000000
_cell_angle_beta 90.000000
_cell_angle_gamma 90.000000
_cell_volume 5019.322900
_symmetry_space_group_name_H-M "I B A M"
_symmetry_group_IT_number 72
_symmetry_cell_setting 'orthorhombic'
loop_
_space_group_symop_operation_xyz
x,y,z
-x,-y,z
x,-y,1/2-z
-x,y,1/2-z
-x,-y,-z
x,y,-z
-x,y,1/2+z
x,-y,1/2+z
1/2+x,1/2+y,1/2+z
1/2-x,1/2-y,1/2+z
1/2+x,1/2-y,-z
1/2-x,1/2+y,-z
1/2-x,1/2-y,1/2-z
1/2+x,1/2+y,1/2-z
1/2-x,1/2+y,z
1/2+x,1/2-y,z
loop_
_atom_site_type_symbol
_atom_site_label
_atom_site_fract_x
_atom_site_fract_y
_atom_site_fract_z
Si Si1 0.935749 0.693504 0.825724
Si Si2 0.817008 0.761013 0.823238
Si Si3 0.779629 0.448418 0.824553
Si Si4 0.065936 0.051447 0.822971
Si Si5 0.000000 0.500000 0.250000
Si Si6 0.326122 0.373925 0.675071
Si Si7 0.596979 0.080101 0.164260
O O1 0.873255 0.723640 0.768223
O O2 0.929210 0.634430 0.783260
O O3 0.000000 0.714539 0.750000
O O4 0.943662 0.702160 0.000000
O O5 0.750000 0.750000 0.750000
O O6 0.833734 0.817200 0.765068
O O7 0.809530 0.757541 0.000000
O O8 0.755217 0.500000 0.750000
O O9 0.736697 0.402092 0.764107
O O10 0.851816 0.437646 0.783141
O O11 0.774186 0.455440 0.000000
O O12 0.112435 0.095819 0.774342
O O13 0.000000 0.066364 0.750000
O O14 0.091999 0.000000 0.750000
O O15 0.059763 0.044822 0.000000
O O16 0.042580 0.537641 0.348812
O O17 0.320532 0.372818 0.500000
O O18 0.627539 0.085446 0.000000
#
# Coordination Sequence:
#
# PCOD8293592 Si02
#       7
#    16  16  16  16   4  16  16
#     4  10  22  39  60  86 116 149 189 239 286 337
#     4  10  21  40  62  84 112 148 192 239 288 337
#     4  11  22  36  56  82 113 149 188 229 278 332
#     4  10  19  34  55  81 114 148 184 225 276 335
#     4  12  22  36  60  78 118 148 184 212 272 320
#     4   9  20  37  57  81 111 148 186 229 280 336
#     4  11  23  38  56  84 116 149 189 228 273 328
#
# _framework density 19.923006000000001
#
# number of rings (size 3 to 8) (size 9 to 14) (size 15 to 20)
#    0.000    1.760    1.600    3.120    0.000    2.560 
#    0.000    4.800    0.000    0.000    0.000    0.000 
#    0.000    0.000    0.000    0.000    0.000    0.000 
#
# Total GULP energy -619894.187588 kJ/mol
# GULP energy per Si atom -12397.883752 kJ/mol
# Density = 1.987766 g / cm^3
# Si number density = 19.923006 Si / 1000 Ang^3
#
#
#
# Elastic Constant Matrix: (Units=GPa)
#
#
# Indices 1 2 3 4 5 6 
#
# 1 135.6863 95.6303 36.8127 0.0000 0.0000 0.0000
# 2 95.6303 165.4444 32.4243 0.0000 0.0000 0.0000
# 3 36.8127 32.4243 63.7980 0.0000 0.0000 0.0000
# 4 0.0000 0.0000 0.0000 22.9955 0.0000 0.0000
# 5 0.0000 0.0000 0.0000 0.0000 28.6473 0.0000
# 6 0.0000 0.0000 0.0000 0.0000 0.0000 39.1627
#
#
#
# Elastic Compliance Matrix: (Units=1/GPa)
#
#
# Indices 1 2 3 4 5 6 
#
# 1 0.013382 -0.006910 -0.004210 0.000000 0.000000 0.000000
# 2 -0.006910 0.010281 -0.001238 0.000000 0.000000 0.000000
# 3 -0.004210 -0.001238 0.018733 0.000000 0.000000 0.000000
# 4 0.000000 0.000000 0.000000 0.043487 0.000000 0.000000
# 5 0.000000 0.000000 0.000000 0.000000 0.034907 0.000000
# 6 0.000000 0.000000 0.000000 0.000000 0.000000 0.025535
#
#
# Mechanical properties :
#
#
# Convention : Reuss Voigt Hill
#
# Bulk Modulus (GPa) = 56.56000 77.18479 66.87239
# Shear Modulus (GPa) = 28.25904 31.49851 29.87878
#
# Velocity S-wave (km/s) = 3.77027 3.98051 3.87681
# Velocity P-wave (km/s) = 6.88507 7.74284 7.32652
#
# Compressibility (1/GPa) = 0.01768034
#
# Stress axis : x y z
#
# Youngs Moduli (GPa) = 74.72518 97.26499 53.38227
#
# Poissons Ratio (x) = 0.67212 0.22473
# Poissons Ratio (y) = 0.51637 0.06608
# Poissons Ratio (z) = 0.31458 0.12041
#
# Static dielectric constant tensor:
#      x y z
#    x 3.659560 0.000000 0.000000 
#    y 0.000000 -6.053460 0.000000 
#    z 0.000000 0.000000 3.374040 
# 
# 
# High freq. dielectric constant tensor:
#      x y z
#    x 1.785350 0.000000 0.000000 
#    y 0.000000 1.787760 0.000000 
#    z 0.000000 0.000000 1.758710 
# 
# From -- ./inp_files/6191.got.cif
#   From: 2010.03.12/outbox.cif.g09.slc.cpg/sg72_4_cif.got.tgz:6191.got - 2010.04.16 14:54:00.
