data_PCOD8293662
_publ_section_title
;
Structure prediction by ZEFSAII (Michael W. Deem and Ramdas Pophale) SiO2 
 PCOD8293662
Probable space group: I B A M
;
_chemical_formula_sum "Si O2"
_cell_formula_units_Z 96
_cell_length_a 8.491032
_cell_length_b 23.625612
_cell_length_c 23.205869
_cell_angle_alpha 90.000000
_cell_angle_beta 90.000000
_cell_angle_gamma 90.000000
_cell_volume 4655.232554
_symmetry_space_group_name_H-M "I B A M"
_symmetry_group_IT_number 72
_symmetry_cell_setting 'orthorhombic'
loop_
_space_group_symop_operation_xyz
x,y,z
-x,-y,z
x,-y,1/2-z
-x,y,1/2-z
-x,-y,-z
x,y,-z
-x,y,1/2+z
x,-y,1/2+z
1/2+x,1/2+y,1/2+z
1/2-x,1/2-y,1/2+z
1/2+x,1/2-y,-z
1/2-x,1/2+y,-z
1/2-x,1/2-y,1/2-z
1/2+x,1/2+y,1/2-z
1/2-x,1/2+y,z
1/2+x,1/2-y,z
loop_
_atom_site_type_symbol
_atom_site_label
_atom_site_fract_x
_atom_site_fract_y
_atom_site_fract_z
Si Si1 0.236648 0.418894 0.700190
Si Si2 0.177053 0.754160 0.000000
Si Si3 0.339735 0.533063 0.318347
Si Si4 0.894859 0.163234 0.500000
Si Si5 0.957708 0.312826 0.187265
Si Si6 0.731631 0.720609 0.873838
Si Si7 0.002984 0.122805 0.619298
O O1 0.211767 0.482132 0.672462
O O2 0.282713 0.425427 0.767355
O O3 0.082979 0.379670 0.693458
O O4 0.373755 0.386020 0.667547
O O5 0.263271 0.774680 0.058030
O O6 0.999192 0.778151 0.000000
O O7 0.212053 0.685464 0.000000
O O8 0.500000 0.500000 0.300736
O O9 0.369310 0.571149 0.375496
O O10 0.931309 0.124321 0.555159
O O11 0.810732 0.279660 0.157887
O O12 0.000000 0.287422 0.250000
O O13 0.110830 0.308058 0.148351
O O14 0.580490 0.681779 0.863287
#
# Coordination Sequence:
#
# PCOD8293662 Si02
#       7
#    16   8  16   8  16  16  16
#     4  10  19  36  58  79 107 146 185 220 269 333
#     4  10  20  38  56  75 105 151 195 222 260 328
#     4   9  18  35  60  81 105 144 186 226 270 327
#     4  10  20  32  55  81 109 143 184 232 276 324
#     4  12  24  36  53  84 117 145 179 227 285 337
#     4  11  23  38  57  81 113 150 186 228 276 331
#     4  10  19  35  57  82 108 142 183 228 277 325
#
# _framework density 20.621956999999998
#
# number of rings (size 3 to 8) (size 9 to 14) (size 15 to 20)
#    0.000    1.667    0.000    9.000    0.000    1.333 
#    0.000    9.583    0.000    0.000    0.000    3.500 
#    0.000    0.000    0.000    0.000    0.000    0.000 
#
# Total GULP energy -594635.654838 kJ/mol
# GULP energy per Si atom -12388.242809 kJ/mol
# Density = 2.057502 g / cm^3
# Si number density = 20.621957 Si / 1000 Ang^3
#
#
#
# Elastic Constant Matrix: (Units=GPa)
#
#
# Indices 1 2 3 4 5 6 
#
# 1 56.5525 26.3853 43.6330 0.0000 0.0000 0.0000
# 2 26.3853 105.0803 68.1738 0.0000 0.0000 0.0000
# 3 43.6330 68.1738 122.3466 0.0000 0.0000 0.0000
# 4 0.0000 0.0000 0.0000 33.5110 0.0000 0.0000
# 5 0.0000 0.0000 0.0000 0.0000 13.4431 0.0000
# 6 0.0000 0.0000 0.0000 0.0000 0.0000 35.4622
#
#
#
# Elastic Compliance Matrix: (Units=1/GPa)
#
#
# Indices 1 2 3 4 5 6 
#
# 1 0.024433 -0.000755 -0.008293 0.000000 0.000000 0.000000
# 2 -0.000755 0.014928 -0.008049 0.000000 0.000000 0.000000
# 3 -0.008293 -0.008049 0.015616 0.000000 0.000000 0.000000
# 4 0.000000 0.000000 0.000000 0.029841 0.000000 0.000000
# 5 0.000000 0.000000 0.000000 0.000000 0.074387 0.000000
# 6 0.000000 0.000000 0.000000 0.000000 0.000000 0.028199
#
#
# Mechanical properties :
#
#
# Convention : Reuss Voigt Hill
#
# Bulk Modulus (GPa) = 48.11448 62.26262 55.18855
# Shear Modulus (GPa) = 21.87925 26.20244 24.04084
#
# Velocity S-wave (km/s) = 3.26078 3.56843 3.41807
# Velocity P-wave (km/s) = 6.12856 6.87286 6.51135
#
# Compressibility (1/GPa) = 0.02078376
#
# Stress axis : x y z
#
# Youngs Moduli (GPa) = 40.92750 66.98789 64.03576
#
# Poissons Ratio (x) = 0.05055 0.53107
# Poissons Ratio (y) = 0.03089 0.51543
# Poissons Ratio (z) = 0.33942 0.53919
#
# Static dielectric constant tensor:
#      x y z
#    x 3.714720 0.000000 0.000000 
#    y 0.000000 4.274340 0.000000 
#    z 0.000000 0.000000 3.826270 
# 
# 
# High freq. dielectric constant tensor:
#      x y z
#    x 1.791780 0.000000 0.000000 
#    y 0.000000 1.807420 0.000000 
#    z 0.000000 0.000000 1.800040 
# 
# From -- ./inp_files/42482.got.cif
#   From: 2010.03.12/outbox.cif.g09.slc.cpg/sg72_22_cif.got.tgz:42482.got - 2010.04.16 14:54:00.
