data_PCOD8293615
_publ_section_title
;
Structure prediction by ZEFSAII (Michael W. Deem and Ramdas Pophale) SiO2 
 PCOD8293615
Probable space group: I B A M
;
_chemical_formula_sum "Si O2"
_cell_formula_units_Z 96
_cell_length_a 15.191715
_cell_length_b 16.660155
_cell_length_c 17.945846
_cell_angle_alpha 90.000000
_cell_angle_beta 90.000000
_cell_angle_gamma 90.000000
_cell_volume 4542.027701
_symmetry_space_group_name_H-M "I B A M"
_symmetry_group_IT_number 72
_symmetry_cell_setting 'orthorhombic'
loop_
_space_group_symop_operation_xyz
x,y,z
-x,-y,z
x,-y,1/2-z
-x,y,1/2-z
-x,-y,-z
x,y,-z
-x,y,1/2+z
x,-y,1/2+z
1/2+x,1/2+y,1/2+z
1/2-x,1/2-y,1/2+z
1/2+x,1/2-y,-z
1/2-x,1/2+y,-z
1/2-x,1/2-y,1/2-z
1/2+x,1/2+y,1/2-z
1/2-x,1/2+y,z
1/2+x,1/2-y,z
loop_
_atom_site_type_symbol
_atom_site_label
_atom_site_fract_x
_atom_site_fract_y
_atom_site_fract_z
Si Si1 0.414777 0.537693 0.667591
Si Si2 0.373259 0.279145 0.174663
Si Si3 0.308366 0.283477 0.336761
Si Si4 0.963682 0.715573 0.913164
Si Si5 0.413022 0.960735 0.912713
Si Si6 0.754455 0.535738 0.331150
O O1 0.500000 0.500000 0.626159
O O2 0.411441 0.500000 0.750000
O O3 0.416405 0.633206 0.669197
O O4 0.327077 0.507652 0.626830
O O5 0.356221 0.253779 0.260486
O O6 0.275016 0.272643 0.138077
O O7 0.446099 0.223434 0.134454
O O8 0.387698 0.282073 0.396882
O O9 0.265643 0.370391 0.325585
O O10 0.914527 0.632893 0.890770
O O11 0.990518 0.719225 0.000000
O O12 0.500000 0.000000 0.879482
O O13 0.336825 0.015384 0.880529
O O14 0.407249 0.971328 0.000000
O O15 0.771529 0.500000 0.250000
#
# Coordination Sequence:
#
# PCOD8293615 Si02
#       6
#    16  16  16  16  16  16
#     4  10  19  34  57  86 118 163 197 245 315 372
#     4  11  22  39  63  94 125 163 209 265 324 374
#     4  11  23  39  65  95 128 161 213 268 321 378
#     4  11  25  42  63  93 130 171 215 259 315 386
#     4  10  23  44  64  87 126 172 208 254 318 383
#     4  11  21  39  63  96 125 160 211 264 320 373
#
# _framework density 21.135933999999999
#
# number of rings (size 3 to 8) (size 9 to 14) (size 15 to 20)
#    0.000    1.333    3.333    3.500    4.667    1.667 
#    3.000    0.833    0.000    2.000    0.000    0.000 
#    0.000    0.000    0.000    0.000    0.000    0.000 
#
# Total GULP energy -594801.863630 kJ/mol
# GULP energy per Si atom -12391.705492 kJ/mol
# Density = 2.108783 g / cm^3
# Si number density = 21.135934 Si / 1000 Ang^3
#
#
#
# Elastic Constant Matrix: (Units=GPa)
#
#
# Indices 1 2 3 4 5 6 
#
# 1 175.3570 38.0573 52.3072 0.0000 0.0000 0.0000
# 2 38.0573 91.3505 36.0558 0.0000 0.0000 0.0000
# 3 52.3072 36.0558 53.6069 0.0000 0.0000 0.0000
# 4 0.0000 0.0000 0.0000 18.3214 0.0000 0.0000
# 5 0.0000 0.0000 0.0000 0.0000 186.4905 0.0000
# 6 0.0000 0.0000 0.0000 0.0000 0.0000 39.2261
#
#
#
# Elastic Compliance Matrix: (Units=1/GPa)
#
#
# Indices 1 2 3 4 5 6 
#
# 1 0.008052 -0.000345 -0.007625 0.000000 0.000000 0.000000
# 2 -0.000345 0.014918 -0.009697 0.000000 0.000000 0.000000
# 3 -0.007625 -0.009697 0.032616 0.000000 0.000000 0.000000
# 4 0.000000 0.000000 0.000000 0.054581 0.000000 0.000000
# 5 0.000000 0.000000 0.000000 0.000000 0.005362 0.000000
# 6 0.000000 0.000000 0.000000 0.000000 0.000000 0.025493
#
#
# Mechanical properties :
#
#
# Convention : Reuss Voigt Hill
#
# Bulk Modulus (GPa) = 49.37614 63.68387 56.53001
# Shear Modulus (GPa) = 27.30643 61.73387 44.52015
#
# Velocity S-wave (km/s) = 3.59826 5.41031 4.59450
# Velocity P-wave (km/s) = 6.37772 8.32013 7.41282
#
# Compressibility (1/GPa) = 0.02025269
#
# Stress axis : x y z
#
# Youngs Moduli (GPa) = 124.19471 67.03304 30.65955
#
# Poissons Ratio (x) = 0.02313 0.23377
# Poissons Ratio (y) = 0.04286 0.29731
# Poissons Ratio (z) = 0.94693 0.65003
#
# Static dielectric constant tensor:
#      x y z
#    x 5.412140 0.000000 0.000000 
#    y 0.000000 3.879710 0.000000 
#    z 0.000000 0.000000 3.445860 
# 
# 
# High freq. dielectric constant tensor:
#      x y z
#    x 1.859580 0.000000 0.000000 
#    y 0.000000 1.835450 0.000000 
#    z 0.000000 0.000000 1.783780 
# 
# From -- ./inp_files/38011.got.cif
#   From: 2010.03.12/outbox.cif.g09.slc.cpg/sg72_20_cif.got.tgz:38011.got - 2010.04.16 14:54:00.
