data_PCOD8293567
_publ_section_title
;
Structure prediction by ZEFSAII (Michael W. Deem and Ramdas Pophale) SiO2 
 PCOD8293567
Probable space group: I B A M
;
_chemical_formula_sum "Si O2"
_cell_formula_units_Z 116
_cell_length_a 27.470960
_cell_length_b 22.798235
_cell_length_c 9.148902
_cell_angle_alpha 90.000000
_cell_angle_beta 90.000000
_cell_angle_gamma 90.000000
_cell_volume 5729.860360
_symmetry_space_group_name_H-M "I B A M"
_symmetry_group_IT_number 72
_symmetry_cell_setting 'orthorhombic'
loop_
_space_group_symop_operation_xyz
x,y,z
-x,-y,z
x,-y,1/2-z
-x,y,1/2-z
-x,-y,-z
x,y,-z
-x,y,1/2+z
x,-y,1/2+z
1/2+x,1/2+y,1/2+z
1/2-x,1/2-y,1/2+z
1/2+x,1/2-y,-z
1/2-x,1/2+y,-z
1/2-x,1/2-y,1/2-z
1/2+x,1/2+y,1/2-z
1/2-x,1/2+y,z
1/2+x,1/2-y,z
loop_
_atom_site_type_symbol
_atom_site_label
_atom_site_fract_x
_atom_site_fract_y
_atom_site_fract_z
Si Si1 0.000000 0.000000 0.250000
Si Si2 0.135323 0.251218 0.835562
Si Si3 0.076055 0.093659 0.338314
Si Si4 0.254379 0.060717 0.325029
Si Si5 0.169324 0.876984 0.330622
Si Si6 0.149060 0.619471 0.331943
Si Si7 0.954934 0.222331 0.165551
Si Si8 0.450887 0.936943 0.176877
O O1 0.963181 0.041028 0.159318
O O2 0.167282 0.193356 0.809223
O O3 0.163803 0.312111 0.809254
O O4 0.092732 0.254512 0.719485
O O5 0.113721 0.249350 0.000000
O O6 0.099487 0.096698 0.500000
O O7 0.120304 0.088853 0.222492
O O8 0.047325 0.153001 0.303236
O O9 0.252180 0.056121 0.500000
O O10 0.214253 0.106214 0.270017
O O11 0.307040 0.081459 0.263415
O O12 0.241094 0.000000 0.250000
O O13 0.177127 0.894081 0.500000
O O14 0.148155 0.602762 0.500000
O O15 0.095399 0.602661 0.272266
O O16 0.000000 0.249796 0.250000
O O17 0.962902 0.238384 0.000000
O O18 0.500000 0.909731 0.250000
O O19 0.442222 0.000000 0.250000
O O20 0.456343 0.941205 0.000000
#
# Coordination Sequence:
#
# PCOD8293567 Si02
#       8
#     4  16  16  16  16  16  16  16
#     4  12  22  36  56  86 114 152 200 246 294 340
#     4   9  19  38  60  83 113 150 191 236 290 350
#     4  10  22  37  55  80 113 151 194 243 292 345
#     4  11  23  41  64  88 117 153 193 239 292 346
#     4  10  22  40  62  86 116 153 194 242 294 349
#     4   9  20  38  61  88 118 152 191 238 289 344
#     4  10  19  34  53  77 109 149 192 237 290 341
#     4  10  19  34  56  84 119 156 193 234 285 343
#
# _framework density 20.244821999999999
#
# number of rings (size 3 to 8) (size 9 to 14) (size 15 to 20)
#    0.000    2.069    0.690    2.690    0.966    3.310 
#    0.000    6.207    0.000    0.000    0.000    0.000 
#    0.000    0.000    0.000    0.000    0.000    0.000 
#
# Total GULP energy -718803.745206 kJ/mol
# GULP energy per Si atom -12393.168021 kJ/mol
# Density = 2.019874 g / cm^3
# Si number density = 20.244822 Si / 1000 Ang^3
#
#
#
# Elastic Constant Matrix: (Units=GPa)
#
#
# Indices 1 2 3 4 5 6 
#
# 1 117.2992 43.8480 60.6046 0.0000 0.0000 0.0000
# 2 43.8480 80.8575 25.6495 0.0000 0.0000 0.0000
# 3 60.6046 25.6495 96.3019 0.0000 0.0000 0.0000
# 4 0.0000 0.0000 0.0000 18.6890 0.0000 0.0000
# 5 0.0000 0.0000 0.0000 0.0000 31.3634 0.0000
# 6 0.0000 0.0000 0.0000 0.0000 0.0000 16.9766
#
#
#
# Elastic Compliance Matrix: (Units=1/GPa)
#
#
# Indices 1 2 3 4 5 6 
#
# 1 0.014537 -0.005441 -0.007699 0.000000 0.000000 0.000000
# 2 -0.005441 0.015545 -0.000716 0.000000 0.000000 0.000000
# 3 -0.007699 -0.000716 0.015420 0.000000 0.000000 0.000000
# 4 0.000000 0.000000 0.000000 0.053507 0.000000 0.000000
# 5 0.000000 0.000000 0.000000 0.000000 0.031884 0.000000
# 6 0.000000 0.000000 0.000000 0.000000 0.000000 0.058905
#
#
# Mechanical properties :
#
#
# Convention : Reuss Voigt Hill
#
# Bulk Modulus (GPa) = 56.21340 61.62918 58.92129
# Shear Modulus (GPa) = 22.37722 24.36290 23.37006
#
# Velocity S-wave (km/s) = 3.32826 3.47279 3.40129
# Velocity P-wave (km/s) = 6.52662 6.82557 6.67777
#
# Compressibility (1/GPa) = 0.01778935
#
# Stress axis : x y z
#
# Youngs Moduli (GPa) = 68.78969 64.32852 64.85037
#
# Poissons Ratio (x) = 0.35001 0.49930
# Poissons Ratio (y) = 0.37428 0.04645
# Poissons Ratio (z) = 0.52963 0.04608
#
# Static dielectric constant tensor:
#      x y z
#    x 3.784940 0.000000 0.000000 
#    y 0.000000 3.635580 0.000000 
#    z 0.000000 0.000000 3.609600 
# 
# 
# High freq. dielectric constant tensor:
#      x y z
#    x 1.787480 0.000000 0.000000 
#    y 0.000000 1.789170 0.000000 
#    z 0.000000 0.000000 1.785150 
# 
# From -- ./inp_files/8444.got.cif
#   From: 2010.03.12/outbox.cif.g09.slc.cpg/sg72_5_cif.got.tgz:8444.got - 2010.04.16 14:54:00.
