data_PCOD8293234
_publ_section_title
;
Structure prediction by ZEFSAII (Michael W. Deem and Ramdas Pophale) SiO2 
 PCOD8293234
Probable space group: I B A M
;
_chemical_formula_sum "Si O2"
_cell_formula_units_Z 80
_cell_length_a 22.805635
_cell_length_b 19.754932
_cell_length_c 10.397543
_cell_angle_alpha 90.000000
_cell_angle_beta 90.000000
_cell_angle_gamma 90.000000
_cell_volume 4684.340257
_symmetry_space_group_name_H-M "I B A M"
_symmetry_group_IT_number 72
_symmetry_cell_setting 'orthorhombic'
loop_
_space_group_symop_operation_xyz
x,y,z
-x,-y,z
x,-y,1/2-z
-x,y,1/2-z
-x,-y,-z
x,y,-z
-x,y,1/2+z
x,-y,1/2+z
1/2+x,1/2+y,1/2+z
1/2-x,1/2-y,1/2+z
1/2+x,1/2-y,-z
1/2-x,1/2+y,-z
1/2-x,1/2-y,1/2-z
1/2+x,1/2+y,1/2-z
1/2-x,1/2+y,z
1/2+x,1/2-y,z
loop_
_atom_site_type_symbol
_atom_site_label
_atom_site_fract_x
_atom_site_fract_y
_atom_site_fract_z
Si Si1 0.649176 0.119145 0.737754
Si Si2 0.796520 0.848977 0.500000
Si Si3 0.304609 0.337981 0.500000
Si Si4 0.034836 0.429267 0.358814
Si Si5 0.838090 0.689607 0.000000
Si Si6 0.170919 0.294950 0.500000
Si Si7 0.282898 0.577950 0.244096
O O1 0.601166 0.062574 0.696279
O O2 0.642666 0.176909 0.630015
O O3 0.712534 0.084405 0.736084
O O4 0.634001 0.153919 0.874479
O O5 0.730458 0.823538 0.500000
O O6 0.839807 0.785153 0.500000
O O7 0.809367 0.891695 0.626443
O O8 0.347295 0.271625 0.500000
O O9 0.239093 0.311576 0.500000
O O10 0.314696 0.384427 0.374384
O O11 0.035099 0.394792 0.500000
O O12 0.000000 0.500000 0.368963
O O13 0.000000 0.384928 0.250000
O O14 0.300168 0.500000 0.250000
#
# Coordination Sequence:
#
# PCOD8293234 Si02
#       7
#    16   8   8  16   8   8  16
#     4  10  19  32  47  68  84 121 167 204 244 276
#     4   9  17  30  42  66  87 117 152 195 249 272
#     4   9  17  30  44  64  89 119 150 199 253 264
#     4  10  22  37  48  64  88 124 157 205 250 286
#     4   9  18  30  48  66  86 110 158 211 235 287
#     4   9  16  30  50  60  84 114 160 209 233 285
#     4  10  19  28  43  66  95 123 155 196 234 295
#
# _framework density 17.078178999999999
#
# number of rings (size 3 to 8) (size 9 to 14) (size 15 to 20)
#    0.000    2.400    1.000    1.800    4.200    4.800 
#    0.000    0.000    0.000    0.000    0.000    0.000 
#    0.000    0.000    0.000    0.000    0.000   70.000 
#
# Total GULP energy -495525.887440 kJ/mol
# GULP energy per Si atom -12388.147186 kJ/mol
# Density = 1.703931 g / cm^3
# Si number density = 17.078179 Si / 1000 Ang^3
#
#
#
# Elastic Constant Matrix: (Units=GPa)
#
#
# Indices 1 2 3 4 5 6 
#
# 1 26.1518 9.1446 13.1360 0.0000 0.0000 0.0000
# 2 9.1446 112.1140 50.3561 0.0000 0.0000 0.0000
# 3 13.1360 50.3561 176.0510 0.0000 0.0000 0.0000
# 4 0.0000 0.0000 0.0000 19.7989 0.0000 0.0000
# 5 0.0000 0.0000 0.0000 0.0000 31.5297 0.0000
# 6 0.0000 0.0000 0.0000 0.0000 0.0000 16.6533
#
#
#
# Elastic Compliance Matrix: (Units=1/GPa)
#
#
# Indices 1 2 3 4 5 6 
#
# 1 0.040202 -0.002217 -0.002366 0.000000 0.000000 0.000000
# 2 -0.002217 0.010357 -0.002797 0.000000 0.000000 0.000000
# 3 -0.002366 -0.002797 0.006657 0.000000 0.000000 0.000000
# 4 0.000000 0.000000 0.000000 0.050508 0.000000 0.000000
# 5 0.000000 0.000000 0.000000 0.000000 0.031716 0.000000
# 6 0.000000 0.000000 0.000000 0.000000 0.000000 0.060048
#
#
# Mechanical properties :
#
#
# Convention : Reuss Voigt Hill
#
# Bulk Modulus (GPa) = 23.55343 51.06558 37.30951
# Shear Modulus (GPa) = 21.89167 29.70838 25.80003
#
# Velocity S-wave (km/s) = 3.58418 4.17532 3.89099
# Velocity P-wave (km/s) = 5.56327 7.29454 6.48692
#
# Compressibility (1/GPa) = 0.04245666
#
# Stress axis : x y z
#
# Youngs Moduli (GPa) = 24.87463 96.55757 150.22490
#
# Poissons Ratio (x) = 0.21402 0.35538
# Poissons Ratio (y) = 0.05514 0.42016
# Poissons Ratio (z) = 0.05884 0.27006
#
# Static dielectric constant tensor:
#      x y z
#    x 2.790670 0.000000 0.000000 
#    y 0.000000 3.135920 0.000000 
#    z 0.000000 0.000000 4.102190 
# 
# 
# High freq. dielectric constant tensor:
#      x y z
#    x 1.592110 0.000000 0.000000 
#    y 0.000000 1.640380 0.000000 
#    z 0.000000 0.000000 1.693390 
# 
# From -- ./inp_files/13757.got.cif
#   From: 2010.03.12/outbox.cif.g09.slc.cpg/sg72_7_cif.got.tgz:13757.got - 2010.04.16 14:54:00.
