data_PCOD8293819
_publ_section_title
;
Structure prediction by ZEFSAII (Michael W. Deem and Ramdas Pophale) SiO2 
 PCOD8293819
Probable space group: I B A M
;
_chemical_formula_sum "Si O2"
_cell_formula_units_Z 112
_cell_length_a 11.522221
_cell_length_b 23.756011
_cell_length_c 22.563811
_cell_angle_alpha 90.000000
_cell_angle_beta 90.000000
_cell_angle_gamma 90.000000
_cell_volume 6176.211674
_symmetry_space_group_name_H-M "I B A M"
_symmetry_group_IT_number 72
_symmetry_cell_setting 'orthorhombic'
loop_
_space_group_symop_operation_xyz
x,y,z
-x,-y,z
x,-y,1/2-z
-x,y,1/2-z
-x,-y,-z
x,y,-z
-x,y,1/2+z
x,-y,1/2+z
1/2+x,1/2+y,1/2+z
1/2-x,1/2-y,1/2+z
1/2+x,1/2-y,-z
1/2-x,1/2+y,-z
1/2-x,1/2-y,1/2-z
1/2+x,1/2+y,1/2-z
1/2-x,1/2+y,z
1/2+x,1/2-y,z
loop_
_atom_site_type_symbol
_atom_site_label
_atom_site_fract_x
_atom_site_fract_y
_atom_site_fract_z
Si Si1 0.610710 0.836142 0.617385
Si Si2 0.332304 0.279932 0.431839
Si Si3 0.135868 0.291014 0.245929
Si Si4 0.005768 0.875058 0.433166
Si Si5 0.774154 0.926413 0.570608
Si Si6 0.650587 0.847741 0.133168
Si Si7 0.727629 0.554244 0.432230
O O1 0.647871 0.785910 0.573864
O O2 0.648023 0.822334 0.683892
O O3 0.664704 0.894452 0.596518
O O4 0.476530 0.844784 0.607458
O O5 0.313282 0.297293 0.500000
O O6 0.438537 0.317998 0.404900
O O7 0.217674 0.295636 0.396079
O O8 0.250000 0.250000 0.250000
O O9 0.150448 0.338808 0.296045
O O10 0.000000 0.265244 0.250000
O O11 0.972528 0.859614 0.500000
O O12 0.094348 0.926947 0.430459
O O13 0.887992 0.895629 0.401428
O O14 0.777770 0.925008 0.500000
O O15 0.765730 0.990790 0.591621
O O16 0.701410 0.907883 0.114171
O O17 0.775339 0.560219 0.500000
#
# Coordination Sequence:
#
# PCOD8293819 Si02
#       7
#    16  16  16  16  16  16  16
#     4  11  23  35  53  82 111 143 184 231 278 336
#     4  10  20  32  52  80 113 146 175 220 284 337
#     4  10  21  40  61  80 108 150 194 237 286 334
#     4   8  16  31  52  78 107 146 186 221 268 327
#     4  10  20  33  53  82 115 147 184 228 277 335
#     4  10  21  38  56  76 107 143 188 229 275 332
#     4   9  18  35  57  79 109 150 187 226 278 333
#
# _framework density 18.134093
#
# number of rings (size 3 to 8) (size 9 to 14) (size 15 to 20)
#    0.000    2.286    1.429    2.143    2.000    4.571 
#    0.000    2.143    0.000    2.571    0.000    4.000 
#    0.000    0.000    0.000    0.000    0.000    0.000 
#
# Total GULP energy -693917.348296 kJ/mol
# GULP energy per Si atom -12391.381220 kJ/mol
# Density = 1.809282 g / cm^3
# Si number density = 18.134093 Si / 1000 Ang^3
#
#
#
# Elastic Constant Matrix: (Units=GPa)
#
#
# Indices 1 2 3 4 5 6 
#
# 1 106.7595 27.9142 23.5857 0.0000 0.0000 0.0000
# 2 27.9142 78.0339 19.1013 0.0000 0.0000 0.0000
# 3 23.5857 19.1013 46.3447 0.0000 0.0000 0.0000
# 4 0.0000 0.0000 0.0000 19.4049 0.0000 0.0000
# 5 0.0000 0.0000 0.0000 0.0000 22.5442 0.0000
# 6 0.0000 0.0000 0.0000 0.0000 0.0000 14.2754
#
#
#
# Elastic Compliance Matrix: (Units=1/GPa)
#
#
# Indices 1 2 3 4 5 6 
#
# 1 0.011106 -0.002880 -0.004465 0.000000 0.000000 0.000000
# 2 -0.002880 0.015000 -0.004717 0.000000 0.000000 0.000000
# 3 -0.004465 -0.004717 0.025794 0.000000 0.000000 0.000000
# 4 0.000000 0.000000 0.000000 0.051533 0.000000 0.000000
# 5 0.000000 0.000000 0.000000 0.000000 0.044357 0.000000
# 6 0.000000 0.000000 0.000000 0.000000 0.000000 0.070051
#
#
# Mechanical properties :
#
#
# Convention : Reuss Voigt Hill
#
# Bulk Modulus (GPa) = 36.00182 41.37117 38.68649
# Shear Modulus (GPa) = 19.90260 21.94736 20.92498
#
# Velocity S-wave (km/s) = 3.31648 3.48268 3.40060
# Velocity P-wave (km/s) = 5.87891 6.24785 6.06619
#
# Compressibility (1/GPa) = 0.02777638
#
# Stress axis : x y z
#
# Youngs Moduli (GPa) = 90.03863 66.66803 38.76891
#
# Poissons Ratio (x) = 0.19200 0.17311
# Poissons Ratio (y) = 0.25931 0.18286
# Poissons Ratio (z) = 0.40204 0.31444
#
# Static dielectric constant tensor:
#      x y z
#    x 3.632040 0.000000 0.000000 
#    y 0.000000 3.361070 0.000000 
#    z 0.000000 0.000000 3.188360 
# 
# 
# High freq. dielectric constant tensor:
#      x y z
#    x 1.714720 0.000000 0.000000 
#    y 0.000000 1.696100 0.000000 
#    z 0.000000 0.000000 1.678070 
# 
# From -- ./inp_files/37295.got.cif
#   From: 2010.03.12/outbox.cif.g09.slc.cpg/sg72_19_cif.got.tgz:37295.got - 2010.04.16 14:54:00.
