data_PCOD8293097
_publ_section_title
;
Structure prediction by ZEFSAII (Michael W. Deem and Ramdas Pophale) SiO2 
 PCOD8293097
Probable space group: I B A M
;
_chemical_formula_sum "Si O2"
_cell_formula_units_Z 112
_cell_length_a 17.590338
_cell_length_b 16.494151
_cell_length_c 21.480620
_cell_angle_alpha 90.000000
_cell_angle_beta 90.000000
_cell_angle_gamma 90.000000
_cell_volume 6232.337490
_symmetry_space_group_name_H-M "I B A M"
_symmetry_group_IT_number 72
_symmetry_cell_setting 'orthorhombic'
loop_
_space_group_symop_operation_xyz
x,y,z
-x,-y,z
x,-y,1/2-z
-x,y,1/2-z
-x,-y,-z
x,y,-z
-x,y,1/2+z
x,-y,1/2+z
1/2+x,1/2+y,1/2+z
1/2-x,1/2-y,1/2+z
1/2+x,1/2-y,-z
1/2-x,1/2+y,-z
1/2-x,1/2-y,1/2-z
1/2+x,1/2+y,1/2-z
1/2-x,1/2+y,z
1/2+x,1/2-y,z
loop_
_atom_site_type_symbol
_atom_site_label
_atom_site_fract_x
_atom_site_fract_y
_atom_site_fract_z
Si Si1 0.679049 0.328302 0.573283
Si Si2 0.475535 0.585923 0.573225
Si Si3 0.898133 0.665711 0.387984
Si Si4 0.410413 0.095986 0.245061
Si Si5 0.916394 0.501139 0.930888
Si Si6 0.664200 0.143993 0.132439
Si Si7 0.046160 0.249143 0.073785
O O1 0.701032 0.335422 0.500000
O O2 0.610506 0.389418 0.590411
O O3 0.656688 0.236473 0.588923
O O4 0.746209 0.352167 0.620061
O O5 0.500000 0.500000 0.604451
O O6 0.483092 0.577892 0.500000
O O7 0.533068 0.656491 0.596187
O O8 0.880169 0.634411 0.318853
O O9 0.882995 0.589367 0.433080
O O10 0.985751 0.692212 0.393227
O O11 0.500000 0.113411 0.250000
O O12 0.360755 0.145802 0.295683
O O13 0.393365 0.000000 0.250000
O O14 0.861810 0.557497 0.892354
O O15 0.000000 0.500000 0.898296
O O16 0.923887 0.537513 0.000000
O O17 0.628415 0.220335 0.095354
O O18 0.035443 0.255935 0.000000
#
# Coordination Sequence:
#
# PCOD8293097 Si02
#       7
#    16  16  16  16  16  16  16
#     4  10  22  38  56  84 120 149 192 252 305 353
#     4   8  16  34  57  77 105 149 193 231 281 353
#     4  11  20  36  56  79 111 155 193 229 286 355
#     4  11  21  37  57  84 118 155 202 238 276 356
#     4  11  19  30  54  85 114 145 185 231 297 360
#     4  12  22  35  54  84 120 151 185 246 299 344
#     4  10  18  31  54  82 110 145 190 238 291 350
#
# _framework density 17.970786
#
# number of rings (size 3 to 8) (size 9 to 14) (size 15 to 20)
#    0.000    1.571    4.286    3.429    0.000    0.571 
#    2.571    0.000    0.000    0.000    0.000    7.000 
#    0.000    0.000    0.000    0.000    0.000    0.000 
#
# Total GULP energy -694228.949572 kJ/mol
# GULP energy per Si atom -12396.945528 kJ/mol
# Density = 1.792988 g / cm^3
# Si number density = 17.970786 Si / 1000 Ang^3
#
#
#
# Elastic Constant Matrix: (Units=GPa)
#
#
# Indices 1 2 3 4 5 6 
#
# 1 86.6431 42.6512 21.1740 0.0000 0.0000 0.0000
# 2 42.6512 116.3426 22.3777 0.0000 0.0000 0.0000
# 3 21.1740 22.3777 77.5301 0.0000 0.0000 0.0000
# 4 0.0000 0.0000 0.0000 15.6419 0.0000 0.0000
# 5 0.0000 0.0000 0.0000 0.0000 21.9234 0.0000
# 6 0.0000 0.0000 0.0000 0.0000 0.0000 18.9142
#
#
#
# Elastic Compliance Matrix: (Units=1/GPa)
#
#
# Indices 1 2 3 4 5 6 
#
# 1 0.014554 -0.004840 -0.002578 0.000000 0.000000 0.000000
# 2 -0.004840 0.010710 -0.001769 0.000000 0.000000 0.000000
# 3 -0.002578 -0.001769 0.014113 0.000000 0.000000 0.000000
# 4 0.000000 0.000000 0.000000 0.063931 0.000000 0.000000
# 5 0.000000 0.000000 0.000000 0.000000 0.045613 0.000000
# 6 0.000000 0.000000 0.000000 0.000000 0.000000 0.052870
#
#
# Mechanical properties :
#
#
# Convention : Reuss Voigt Hill
#
# Bulk Modulus (GPa) = 47.61279 50.32464 48.96871
# Shear Modulus (GPa) = 22.01032 24.25010 23.13021
#
# Velocity S-wave (km/s) = 3.50349 3.67743 3.59151
# Velocity P-wave (km/s) = 6.55118 6.78938 6.67134
#
# Compressibility (1/GPa) = 0.02100276
#
# Stress axis : x y z
#
# Youngs Moduli (GPa) = 68.70981 93.37196 70.85667
#
# Poissons Ratio (x) = 0.45189 0.18266
# Poissons Ratio (y) = 0.33253 0.12538
# Poissons Ratio (z) = 0.17713 0.16522
#
# Static dielectric constant tensor:
#      x y z
#    x 3.169610 0.000000 0.000000 
#    y 0.000000 3.668340 0.000000 
#    z 0.000000 0.000000 3.245710 
# 
# 
# High freq. dielectric constant tensor:
#      x y z
#    x 1.669950 0.000000 0.000000 
#    y 0.000000 1.704190 0.000000 
#    z 0.000000 0.000000 1.681240 
# 
# From -- ./inp_files/39205.got.cif
#   From: 2010.03.12/outbox.cif.g09.slc.cpg/sg72_20_cif.got.tgz:39205.got - 2010.04.16 14:54:00.
