data_PCOD8293792
_publ_section_title
;
Structure prediction by ZEFSAII (Michael W. Deem and Ramdas Pophale) SiO2 
 PCOD8293792
Probable space group: I B A M
;
_chemical_formula_sum "Si O2"
_cell_formula_units_Z 72
_cell_length_a 27.155266
_cell_length_b 15.201938
_cell_length_c 10.161040
_cell_angle_alpha 90.000000
_cell_angle_beta 90.000000
_cell_angle_gamma 90.000000
_cell_volume 4194.606053
_symmetry_space_group_name_H-M "I B A M"
_symmetry_group_IT_number 72
_symmetry_cell_setting 'orthorhombic'
loop_
_space_group_symop_operation_xyz
x,y,z
-x,-y,z
x,-y,1/2-z
-x,y,1/2-z
-x,-y,-z
x,y,-z
-x,y,1/2+z
x,-y,1/2+z
1/2+x,1/2+y,1/2+z
1/2-x,1/2-y,1/2+z
1/2+x,1/2-y,-z
1/2-x,1/2+y,-z
1/2-x,1/2-y,1/2-z
1/2+x,1/2+y,1/2-z
1/2-x,1/2+y,z
1/2+x,1/2-y,z
loop_
_atom_site_type_symbol
_atom_site_label
_atom_site_fract_x
_atom_site_fract_y
_atom_site_fract_z
Si Si1 0.048099 0.620738 0.500000
Si Si2 0.240281 0.127789 0.140305
Si Si3 0.186792 0.500000 0.750000
Si Si4 0.386173 0.851881 0.239819
Si Si5 0.684234 0.715201 0.147949
Si Si6 0.060774 0.586387 0.000000
O O1 0.072571 0.663459 0.629307
O O2 0.052224 0.516647 0.500000
O O3 0.989961 0.642130 0.500000
O O4 0.271671 0.216522 0.137816
O O5 0.202203 0.132036 0.263155
O O6 0.277394 0.045161 0.143934
O O7 0.211799 0.121034 0.000000
O O8 0.153605 0.577157 0.684377
O O9 0.361890 0.758647 0.276000
O O10 0.408536 0.891776 0.371544
O O11 0.669428 0.683498 0.000000
#
# Coordination Sequence:
#
# PCOD8293792 Si02
#       6
#     8  16   8  16  16   8
#     4  11  22  30  50  69  93 124 164 207 243 273
#     4   9  19  31  46  66  90 117 158 204 232 275
#     4  10  20  30  47  68  96 126 161 194 234 278
#     4  11  20  32  50  67  92 130 165 197 235 290
#     4   9  18  33  46  64  89 120 157 198 242 275
#     4  11  20  36  44  69  97 122 162 211 243 267
#
# _framework density 17.164901
#
# number of rings (size 3 to 8) (size 9 to 14) (size 15 to 20)
#    0.000    2.000    3.333    0.667    4.667    2.667 
#    4.000    0.000    0.000    0.000    0.000    0.000 
#    0.000    0.000    0.000    6.000    0.000    0.000 
#
# Total GULP energy -446131.072163 kJ/mol
# GULP energy per Si atom -12392.529782 kJ/mol
# Density = 1.712583 g / cm^3
# Si number density = 17.164901 Si / 1000 Ang^3
#
#
#
# Elastic Constant Matrix: (Units=GPa)
#
#
# Indices 1 2 3 4 5 6 
#
# 1 75.4075 29.8352 44.1648 0.0000 0.0000 0.0000
# 2 29.8352 27.2448 28.1499 0.0000 0.0000 0.0000
# 3 44.1648 28.1499 134.1860 0.0000 0.0000 0.0000
# 4 0.0000 0.0000 0.0000 12.8972 0.0000 0.0000
# 5 0.0000 0.0000 0.0000 0.0000 14.9386 0.0000
# 6 0.0000 0.0000 0.0000 0.0000 0.0000 21.8108
#
#
#
# Elastic Compliance Matrix: (Units=1/GPa)
#
#
# Indices 1 2 3 4 5 6 
#
# 1 0.024365 -0.023486 -0.003092 0.000000 0.000000 0.000000
# 2 -0.023486 0.069501 -0.006850 0.000000 0.000000 0.000000
# 3 -0.003092 -0.006850 0.009907 0.000000 0.000000 0.000000
# 4 0.000000 0.000000 0.000000 0.077536 0.000000 0.000000
# 5 0.000000 0.000000 0.000000 0.000000 0.066941 0.000000
# 6 0.000000 0.000000 0.000000 0.000000 0.000000 0.045849
#
#
# Mechanical properties :
#
#
# Convention : Reuss Voigt Hill
#
# Bulk Modulus (GPa) = 27.08860 49.01533 38.05197
# Shear Modulus (GPa) = 13.39543 18.90854 16.15198
#
# Velocity S-wave (km/s) = 2.79659 3.32261 3.07088
# Velocity P-wave (km/s) = 5.12284 6.58310 5.89834
#
# Compressibility (1/GPa) = 0.03691589
#
# Stress axis : x y z
#
# Youngs Moduli (GPa) = 41.04291 14.38823 100.93777
#
# Poissons Ratio (x) = 0.33793 0.31212
# Poissons Ratio (y) = 0.96395 0.69143
# Poissons Ratio (z) = 0.12691 0.09856
#
# Static dielectric constant tensor:
#      x y z
#    x 3.248880 0.000000 0.000000 
#    y 0.000000 2.883220 0.000000 
#    z 0.000000 0.000000 3.486650 
# 
# 
# High freq. dielectric constant tensor:
#      x y z
#    x 1.638220 0.000000 0.000000 
#    y 0.000000 1.607690 0.000000 
#    z 0.000000 0.000000 1.678600 
# 
# From -- ./inp_files/3858.got.cif
#   From: 2010.03.12/outbox.cif.g09.slc.cpg/sg72_2_cif.got.tgz:3858.got - 2010.04.16 14:54:00.
