data_PCOD8293168
_publ_section_title
;
Structure prediction by ZEFSAII (Michael W. Deem and Ramdas Pophale) SiO2 
 PCOD8293168
Probable space group: I B A M
;
_chemical_formula_sum "Si O2"
_cell_formula_units_Z 116
_cell_length_a 27.798597
_cell_length_b 22.912272
_cell_length_c 9.020933
_cell_angle_alpha 90.000000
_cell_angle_beta 90.000000
_cell_angle_gamma 90.000000
_cell_volume 5745.693976
_symmetry_space_group_name_H-M "I B A M"
_symmetry_group_IT_number 72
_symmetry_cell_setting 'orthorhombic'
loop_
_space_group_symop_operation_xyz
x,y,z
-x,-y,z
x,-y,1/2-z
-x,y,1/2-z
-x,-y,-z
x,y,-z
-x,y,1/2+z
x,-y,1/2+z
1/2+x,1/2+y,1/2+z
1/2-x,1/2-y,1/2+z
1/2+x,1/2-y,-z
1/2-x,1/2+y,-z
1/2-x,1/2-y,1/2-z
1/2+x,1/2+y,1/2-z
1/2-x,1/2+y,z
1/2+x,1/2-y,z
loop_
_atom_site_type_symbol
_atom_site_label
_atom_site_fract_x
_atom_site_fract_y
_atom_site_fract_z
Si Si1 0.451824 0.315196 0.674774
Si Si2 0.686843 0.097935 0.830937
Si Si3 0.048139 0.693519 0.825646
Si Si4 0.298513 0.230393 0.673537
Si Si5 0.500000 0.000000 0.250000
Si Si6 0.849855 0.843097 0.826657
Si Si7 0.720198 0.558268 0.323930
Si Si8 0.919196 0.410588 0.337067
O O1 0.500000 0.341271 0.750000
O O2 0.460815 0.307608 0.500000
O O3 0.437868 0.253019 0.744384
O O4 0.406122 0.356884 0.709136
O O5 0.683384 0.166099 0.781347
O O6 0.724617 0.066943 0.723501
O O7 0.635217 0.064538 0.817133
O O8 0.705730 0.093698 0.000000
O O9 0.081952 0.638656 0.790677
O O10 0.000000 0.669822 0.750000
O O11 0.043715 0.704596 0.000000
O O12 0.289557 0.234522 0.500000
O O13 0.250000 0.250000 0.750000
O O14 0.338288 0.277426 0.728049
O O15 0.462193 0.958674 0.162859
O O16 0.813696 0.890428 0.756540
O O17 0.841224 0.846312 0.000000
O O18 0.699582 0.500000 0.250000
O O19 0.717583 0.553284 0.500000
O O20 0.922214 0.380891 0.500000
#
# Coordination Sequence:
#
# PCOD8293168 Si02
#       8
#    16  16  16  16   4  16  16  16
#     4  10  19  35  59  88 121 154 188 232 288 349
#     4  10  22  39  61  88 118 155 194 246 312 367
#     4  11  21  35  56  82 113 150 191 235 288 350
#     4  10  18  33  57  87 119 152 190 236 297 360
#     4  12  26  40  64  86 106 148 214 268 314 356
#     4   9  19  36  60  86 120 161 193 234 297 355
#     4  11  23  41  62  86 117 156 202 243 289 352
#     4  11  24  42  60  79 110 148 196 255 309 358
#
# _framework density 20.189032000000001
#
# number of rings (size 3 to 8) (size 9 to 14) (size 15 to 20)
#    0.000    1.655    2.069    3.931    0.966    3.310 
#    0.000    5.517    0.000    0.414    0.000    2.897 
#    0.000    0.000    0.000    0.000    0.000    0.000 
#
# Total GULP energy -718506.745332 kJ/mol
# GULP energy per Si atom -12388.047333 kJ/mol
# Density = 2.014308 g / cm^3
# Si number density = 20.189032 Si / 1000 Ang^3
#
#
#
# Elastic Constant Matrix: (Units=GPa)
#
#
# Indices 1 2 3 4 5 6 
#
# 1 139.2713 37.2629 38.7902 0.0000 0.0000 0.0000
# 2 37.2629 70.8234 21.4390 0.0000 0.0000 0.0000
# 3 38.7902 21.4390 90.9788 0.0000 0.0000 0.0000
# 4 0.0000 0.0000 0.0000 23.0565 0.0000 0.0000
# 5 0.0000 0.0000 0.0000 0.0000 28.5936 0.0000
# 6 0.0000 0.0000 0.0000 0.0000 0.0000 25.9973
#
#
#
# Elastic Compliance Matrix: (Units=1/GPa)
#
#
# Indices 1 2 3 4 5 6 
#
# 1 0.009033 -0.003862 -0.002941 0.000000 0.000000 0.000000
# 2 -0.003862 0.016856 -0.002325 0.000000 0.000000 0.000000
# 3 -0.002941 -0.002325 0.012794 0.000000 0.000000 0.000000
# 4 0.000000 0.000000 0.000000 0.043372 0.000000 0.000000
# 5 0.000000 0.000000 0.000000 0.000000 0.034973 0.000000
# 6 0.000000 0.000000 0.000000 0.000000 0.000000 0.038466
#
#
# Mechanical properties :
#
#
# Convention : Reuss Voigt Hill
#
# Bulk Modulus (GPa) = 48.96044 55.11750 52.03897
# Shear Modulus (GPa) = 27.69204 29.10158 28.39681
#
# Velocity S-wave (km/s) = 3.70758 3.80077 3.75446
# Velocity P-wave (km/s) = 6.52931 6.82796 6.68031
#
# Compressibility (1/GPa) = 0.02042465
#
# Stress axis : x y z
#
# Youngs Moduli (GPa) = 110.70829 59.32761 78.16454
#
# Poissons Ratio (x) = 0.22913 0.22989
# Poissons Ratio (y) = 0.42757 0.18175
# Poissons Ratio (z) = 0.32561 0.13795
#
# Static dielectric constant tensor:
#      x y z
#    x 3.848070 0.000000 0.000000 
#    y 0.000000 3.932960 0.000000 
#    z 0.000000 0.000000 3.511540 
# 
# 
# High freq. dielectric constant tensor:
#      x y z
#    x 1.799310 0.000000 0.000000 
#    y 0.000000 1.765040 0.000000 
#    z 0.000000 0.000000 1.774910 
# 
# From -- ./inp_files/7253.got.cif
#   From: 2010.03.12/outbox.cif.g09.slc.cpg/sg72_4_cif.got.tgz:7253.got - 2010.04.16 14:54:00.
