data_PCOD8293136
_publ_section_title
;
Structure prediction by ZEFSAII (Michael W. Deem and Ramdas Pophale) SiO2 
 PCOD8293136
Probable space group: I B A M
;
_chemical_formula_sum "Si O2"
_cell_formula_units_Z 96
_cell_length_a 19.954558
_cell_length_b 14.869607
_cell_length_c 17.971994
_cell_angle_alpha 90.000000
_cell_angle_beta 90.000000
_cell_angle_gamma 90.000000
_cell_volume 5332.585995
_symmetry_space_group_name_H-M "I B A M"
_symmetry_group_IT_number 72
_symmetry_cell_setting 'orthorhombic'
loop_
_space_group_symop_operation_xyz
x,y,z
-x,-y,z
x,-y,1/2-z
-x,y,1/2-z
-x,-y,-z
x,y,-z
-x,y,1/2+z
x,-y,1/2+z
1/2+x,1/2+y,1/2+z
1/2-x,1/2-y,1/2+z
1/2+x,1/2-y,-z
1/2-x,1/2+y,-z
1/2-x,1/2-y,1/2-z
1/2+x,1/2+y,1/2-z
1/2-x,1/2+y,z
1/2+x,1/2-y,z
loop_
_atom_site_type_symbol
_atom_site_label
_atom_site_fract_x
_atom_site_fract_y
_atom_site_fract_z
Si Si1 0.193170 0.886299 0.086518
Si Si2 0.304692 0.995885 0.662404
Si Si3 0.957081 0.918271 0.588508
Si Si4 0.831584 0.317951 0.086934
Si Si5 0.478727 0.223493 0.088191
Si Si6 0.435794 0.937445 0.914934
O O1 0.248609 0.937779 0.132345
O O2 0.120489 0.922412 0.112970
O O3 0.200865 0.779625 0.101645
O O4 0.203633 0.906797 0.000000
O O5 0.377311 0.029723 0.637638
O O6 0.300802 0.000000 0.750000
O O7 0.291979 0.894437 0.632889
O O8 0.961225 0.921346 0.500000
O O9 0.989310 0.824823 0.618410
O O10 0.000000 0.000000 0.623694
O O11 0.908280 0.317619 0.116355
O O12 0.827763 0.343252 0.000000
O O13 0.541439 0.162088 0.112184
O O14 0.471959 0.226624 0.000000
O O15 0.500000 0.000000 0.907589
O O16 0.409847 0.936076 0.000000
#
# Coordination Sequence:
#
# PCOD8293136 Si02
#       6
#    16  16  16  16  16  16
#     4   9  19  36  58  80 105 142 187 228 270 328
#     4  12  24  35  51  79 115 152 179 222 275 338
#     4   8  14  28  53  83 107 125 163 226 283 320
#     4   9  17  35  59  77 101 141 184 224 275 323
#     4   8  14  27  50  77 103 132 164 218 279 319
#     4  10  18  32  55  78 104 138 184 231 269 319
#
# _framework density 18.002521999999999
#
# number of rings (size 3 to 8) (size 9 to 14) (size 15 to 20)
#    0.000    2.667    1.667    3.500    0.000    1.000 
#    3.000    0.000    0.000    0.500    0.000    0.000 
#    0.000    0.000    0.000    0.000    0.000    0.000 
#
# Total GULP energy -594963.722335 kJ/mol
# GULP energy per Si atom -12395.077549 kJ/mol
# Density = 1.796155 g / cm^3
# Si number density = 18.002522 Si / 1000 Ang^3
#
#
#
# Elastic Constant Matrix: (Units=GPa)
#
#
# Indices 1 2 3 4 5 6 
#
# 1 76.6034 61.1483 37.5970 0.0000 0.0000 0.0000
# 2 61.1483 142.9146 52.8858 0.0000 0.0000 0.0000
# 3 37.5970 52.8858 69.2705 0.0000 0.0000 0.0000
# 4 0.0000 0.0000 0.0000 9.9140 0.0000 0.0000
# 5 0.0000 0.0000 0.0000 0.0000 -270.9112 0.0000
# 6 0.0000 0.0000 0.0000 0.0000 0.0000 34.5827
#
#
#
# Elastic Compliance Matrix: (Units=1/GPa)
#
#
# Indices 1 2 3 4 5 6 
#
# 1 0.021771 -0.006889 -0.006557 0.000000 0.000000 0.000000
# 2 -0.006889 0.011932 -0.005371 0.000000 0.000000 0.000000
# 3 -0.006557 -0.005371 0.022096 0.000000 0.000000 0.000000
# 4 0.000000 0.000000 0.000000 0.100868 0.000000 0.000000
# 5 0.000000 0.000000 0.000000 0.000000 -0.003691 0.000000
# 6 0.000000 0.000000 0.000000 0.000000 0.000000 0.028916
#
#
# Mechanical properties :
#
#
# Convention : Reuss Voigt Hill
#
# Bulk Modulus (GPa) = 55.04955 65.78341 60.41648
# Shear Modulus (GPa) = 22.16499 -36.13906 -6.98704
#
# Velocity S-wave (km/s) = 3.51267 -4.48531 -1.97220
# Velocity P-wave (km/s) = 6.86273 3.12994 5.33355
#
# Compressibility (1/GPa) = 0.01816545
#
# Stress axis : x y z
#
# Youngs Moduli (GPa) = 45.93171 83.80722 45.25776
#
# Poissons Ratio (x) = 0.57733 0.29677
# Poissons Ratio (y) = 0.31641 0.24307
# Poissons Ratio (z) = 0.30119 0.45012
#
# Static dielectric constant tensor:
#      x y z
#    x 3.304180 0.000000 0.000000 
#    y 0.000000 4.175800 0.000000 
#    z 0.000000 0.000000 2.877040 
# 
# 
# High freq. dielectric constant tensor:
#      x y z
#    x 1.685430 0.000000 0.000000 
#    y 0.000000 1.715950 0.000000 
#    z 0.000000 0.000000 1.646460 
# 
# From -- ./inp_files/21868.got.cif
#   From: 2010.03.12/outbox.cif.g09.slc.cpg/sg72_11_cif.got.tgz:21868.got - 2010.04.16 14:54:00.
