data_PCOD8293556
_publ_section_title
;
Structure prediction by ZEFSAII (Michael W. Deem and Ramdas Pophale) SiO2 
 PCOD8293556
Probable space group: I B A M
;
_chemical_formula_sum "Si O2"
_cell_formula_units_Z 104
_cell_length_a 23.288366
_cell_length_b 25.861432
_cell_length_c 9.051122
_cell_angle_alpha 90.000000
_cell_angle_beta 90.000000
_cell_angle_gamma 90.000000
_cell_volume 5451.223715
_symmetry_space_group_name_H-M "I B A M"
_symmetry_group_IT_number 72
_symmetry_cell_setting 'orthorhombic'
loop_
_space_group_symop_operation_xyz
x,y,z
-x,-y,z
x,-y,1/2-z
-x,y,1/2-z
-x,-y,-z
x,y,-z
-x,y,1/2+z
x,-y,1/2+z
1/2+x,1/2+y,1/2+z
1/2-x,1/2-y,1/2+z
1/2+x,1/2-y,-z
1/2-x,1/2+y,-z
1/2-x,1/2-y,1/2-z
1/2+x,1/2+y,1/2-z
1/2-x,1/2+y,z
1/2+x,1/2-y,z
loop_
_atom_site_type_symbol
_atom_site_label
_atom_site_fract_x
_atom_site_fract_y
_atom_site_fract_z
Si Si1 0.058253 0.257095 0.329452
Si Si2 0.877263 0.841776 0.674483
Si Si3 0.222703 0.908976 0.163831
Si Si4 0.145923 0.000000 0.250000
Si Si5 0.939511 0.625339 0.324312
Si Si6 0.053586 0.924931 0.337053
Si Si7 0.156310 0.444333 0.821593
O O1 0.043396 0.252212 0.500000
O O2 0.110989 0.218498 0.287589
O O3 0.076998 0.315216 0.289829
O O4 0.000000 0.240309 0.250000
O O5 0.878907 0.852795 0.500000
O O6 0.815226 0.862327 0.737261
O O7 0.927861 0.873962 0.749034
O O8 0.283801 0.920014 0.241362
O O9 0.185756 0.961683 0.155936
O O10 0.238202 0.891261 0.000000
O O11 0.105067 0.033918 0.144965
O O12 0.941082 0.613841 0.500000
O O13 0.893539 0.591378 0.239720
O O14 0.000000 0.611600 0.250000
O O15 0.033777 0.908517 0.500000
O O16 0.000000 0.949858 0.250000
O O17 0.147832 0.500000 0.750000
O O18 0.154595 0.448402 0.000000
#
# Coordination Sequence:
#
# PCOD8293556 Si02
#       7
#    16  16  16   8  16  16  16
#     4   9  18  33  56  81 110 146 185 227 275 328
#     4   9  18  34  54  77 107 145 186 228 272 320
#     4   9  18  33  53  76 105 142 183 224 270 321
#     4  10  19  34  50  68  97 138 182 230 276 324
#     4  10  21  39  61  88 116 144 178 221 272 329
#     4  11  22  32  46  70 102 139 183 233 283 329
#     4  11  22  38  60  86 114 147 183 223 271 328
#
# _framework density 19.078285000000001
#
# number of rings (size 3 to 8) (size 9 to 14) (size 15 to 20)
#    0.000    2.154    0.769    2.538    0.000    5.231 
#    0.000    3.077    0.000    0.000    0.000    0.000 
#    0.000    0.000    0.000    0.000    0.000    0.000 
#
# Total GULP energy -644393.279566 kJ/mol
# GULP energy per Si atom -12392.178453 kJ/mol
# Density = 1.903486 g / cm^3
# Si number density = 19.078285 Si / 1000 Ang^3
#
#
#
# Elastic Constant Matrix: (Units=GPa)
#
#
# Indices 1 2 3 4 5 6 
#
# 1 147.9086 89.3145 45.8968 0.0000 0.0000 0.0000
# 2 89.3145 124.4539 40.0539 0.0000 0.0000 0.0000
# 3 45.8968 40.0539 79.6314 0.0000 0.0000 0.0000
# 4 0.0000 0.0000 0.0000 16.0904 0.0000 0.0000
# 5 0.0000 0.0000 0.0000 0.0000 21.8737 0.0000
# 6 0.0000 0.0000 0.0000 0.0000 0.0000 27.8321
#
#
#
# Elastic Compliance Matrix: (Units=1/GPa)
#
#
# Indices 1 2 3 4 5 6 
#
# 1 0.012594 -0.007996 -0.003237 0.000000 0.000000 0.000000
# 2 -0.007996 0.014664 -0.002767 0.000000 0.000000 0.000000
# 3 -0.003237 -0.002767 0.015815 0.000000 0.000000 0.000000
# 4 0.000000 0.000000 0.000000 0.062149 0.000000 0.000000
# 5 0.000000 0.000000 0.000000 0.000000 0.045717 0.000000
# 6 0.000000 0.000000 0.000000 0.000000 0.000000 0.035930
#
#
# Mechanical properties :
#
#
# Convention : Reuss Voigt Hill
#
# Bulk Modulus (GPa) = 66.34332 78.05824 72.20078
# Shear Modulus (GPa) = 22.73830 24.94117 23.83974
#
# Velocity S-wave (km/s) = 3.45605 3.61959 3.53877
# Velocity P-wave (km/s) = 7.12569 7.64671 7.39079
#
# Compressibility (1/GPa) = 0.01507311
#
# Stress axis : x y z
#
# Youngs Moduli (GPa) = 79.40398 68.19301 63.23043
#
# Poissons Ratio (x) = 0.54529 0.20465
# Poissons Ratio (y) = 0.63494 0.17497
# Poissons Ratio (z) = 0.25700 0.18870
#
# Static dielectric constant tensor:
#      x y z
#    x 3.600370 0.000000 0.000000 
#    y 0.000000 3.586870 0.000000 
#    z 0.000000 0.000000 3.357370 
# 
# 
# High freq. dielectric constant tensor:
#      x y z
#    x 1.738190 0.000000 0.000000 
#    y 0.000000 1.736360 0.000000 
#    z 0.000000 0.000000 1.731220 
# 
# From -- ./inp_files/7203.got.cif
#   From: 2010.03.12/outbox.cif.g09.slc.cpg/sg72_4_cif.got.tgz:7203.got - 2010.04.16 14:54:00.
