data_PCOD8293037
_publ_section_title
;
Structure prediction by ZEFSAII (Michael W. Deem and Ramdas Pophale) SiO2 
 PCOD8293037
Probable space group: I B A M
;
_chemical_formula_sum "Si O2"
_cell_formula_units_Z 112
_cell_length_a 14.911218
_cell_length_b 13.690478
_cell_length_c 27.667199
_cell_angle_alpha 90.000000
_cell_angle_beta 90.000000
_cell_angle_gamma 90.000000
_cell_volume 5648.029093
_symmetry_space_group_name_H-M "I B A M"
_symmetry_group_IT_number 72
_symmetry_cell_setting 'orthorhombic'
loop_
_space_group_symop_operation_xyz
x,y,z
-x,-y,z
x,-y,1/2-z
-x,y,1/2-z
-x,-y,-z
x,y,-z
-x,y,1/2+z
x,-y,1/2+z
1/2+x,1/2+y,1/2+z
1/2-x,1/2-y,1/2+z
1/2+x,1/2-y,-z
1/2-x,1/2+y,-z
1/2-x,1/2-y,1/2-z
1/2+x,1/2+y,1/2-z
1/2-x,1/2+y,z
1/2+x,1/2-y,z
loop_
_atom_site_type_symbol
_atom_site_label
_atom_site_fract_x
_atom_site_fract_y
_atom_site_fract_z
Si Si1 0.920206 0.059116 0.394493
Si Si2 0.192753 0.341226 0.870106
Si Si3 0.637803 0.812431 0.947354
Si Si4 0.688703 0.411993 0.553205
Si Si5 0.053275 0.743188 0.443310
Si Si6 0.896569 0.496607 0.307117
Si Si7 0.740895 0.865049 0.858371
O O1 0.965108 0.152746 0.419007
O O2 0.839740 0.085638 0.356874
O O3 0.888053 0.991952 0.439113
O O4 0.000000 0.000000 0.366449
O O5 0.250171 0.423533 0.898385
O O6 0.135322 0.302522 0.914907
O O7 0.140230 0.393614 0.826906
O O8 0.248374 0.251060 0.846248
O O9 0.651168 0.697008 0.945179
O O10 0.532575 0.827252 0.935568
O O11 0.701850 0.873877 0.912585
O O12 0.660911 0.854429 0.000000
O O13 0.733238 0.429783 0.500000
O O14 0.077513 0.753301 0.500000
O O15 0.892378 0.500000 0.250000
O O16 0.833124 0.586507 0.323622
O O17 0.000000 0.500000 0.324950
#
# Coordination Sequence:
#
# PCOD8293037 Si02
#       7
#    16  16  16  16  16  16  16
#     4  11  20  32  54  84 120 161 203 238 277 336
#     4  10  21  38  59  84 117 155 191 243 290 347
#     4   9  18  32  50  78 118 158 193 234 277 331
#     4  10  18  30  50  78 115 156 191 228 272 326
#     4  10  19  31  51  81 120 161 200 237 278 334
#     4  11  24  44  68  91 113 145 195 251 312 374
#     4  10  22  39  60  89 118 156 197 244 295 355
#
# _framework density 19.829927999999999
#
# number of rings (size 3 to 8) (size 9 to 14) (size 15 to 20)
#    0.000    1.857    2.857    1.714    0.000    5.143 
#    0.000    0.000    0.000    3.429    0.000    0.000 
#    0.000    0.000    0.000    0.000    0.000    0.000 
#
# Total GULP energy -693832.812739 kJ/mol
# GULP energy per Si atom -12389.871656 kJ/mol
# Density = 1.978479 g / cm^3
# Si number density = 19.829928 Si / 1000 Ang^3
#
#
#
# Elastic Constant Matrix: (Units=GPa)
#
#
# Indices 1 2 3 4 5 6 
#
# 1 108.5874 40.3767 40.3191 0.0000 0.0000 0.0000
# 2 40.3767 70.4431 27.9173 0.0000 0.0000 0.0000
# 3 40.3191 27.9173 69.3052 0.0000 0.0000 0.0000
# 4 0.0000 0.0000 0.0000 19.6658 0.0000 0.0000
# 5 0.0000 0.0000 0.0000 0.0000 27.5323 0.0000
# 6 0.0000 0.0000 0.0000 0.0000 0.0000 28.8576
#
#
#
# Elastic Compliance Matrix: (Units=1/GPa)
#
#
# Indices 1 2 3 4 5 6 
#
# 1 0.013282 -0.005415 -0.005546 0.000000 0.000000 0.000000
# 2 -0.005415 0.019100 -0.004544 0.000000 0.000000 0.000000
# 3 -0.005546 -0.004544 0.019485 0.000000 0.000000 0.000000
# 4 0.000000 0.000000 0.000000 0.050850 0.000000 0.000000
# 5 0.000000 0.000000 0.000000 0.000000 0.036321 0.000000
# 6 0.000000 0.000000 0.000000 0.000000 0.000000 0.034653
#
#
# Mechanical properties :
#
#
# Convention : Reuss Voigt Hill
#
# Bulk Modulus (GPa) = 47.94108 51.72910 49.83509
# Shear Modulus (GPa) = 23.62360 24.52598 24.07479
#
# Velocity S-wave (km/s) = 3.45528 3.52066 3.48812
# Velocity P-wave (km/s) = 6.33618 6.53220 6.43494
#
# Compressibility (1/GPa) = 0.02085894
#
# Stress axis : x y z
#
# Youngs Moduli (GPa) = 75.29107 52.35496 51.32056
#
# Poissons Ratio (x) = 0.28351 0.28460
# Poissons Ratio (y) = 0.40771 0.23318
# Poissons Ratio (z) = 0.41753 0.23788
#
# Static dielectric constant tensor:
#      x y z
#    x 3.898260 0.000000 0.000000 
#    y 0.000000 3.688730 0.000000 
#    z 0.000000 0.000000 3.269060 
# 
# 
# High freq. dielectric constant tensor:
#      x y z
#    x 1.785950 0.000000 0.000000 
#    y 0.000000 1.779570 0.000000 
#    z 0.000000 0.000000 1.728200 
# 
# From -- ./inp_files/51868.got.cif
#   From: 2010.03.12/outbox.cif.g09.slc.cpg/sg72_26_cif.got.tgz:51868.got - 2010.04.16 14:54:00.
