data_PCOD8293771
_publ_section_title
;
Structure prediction by ZEFSAII (Michael W. Deem and Ramdas Pophale) SiO2 
 PCOD8293771
Probable space group: I B A M
;
_chemical_formula_sum "Si O2"
_cell_formula_units_Z 56
_cell_length_a 11.694871
_cell_length_b 16.839298
_cell_length_c 14.107665
_cell_angle_alpha 90.000000
_cell_angle_beta 90.000000
_cell_angle_gamma 90.000000
_cell_volume 2778.270686
_symmetry_space_group_name_H-M "I B A M"
_symmetry_group_IT_number 72
_symmetry_cell_setting 'orthorhombic'
loop_
_space_group_symop_operation_xyz
x,y,z
-x,-y,z
x,-y,1/2-z
-x,y,1/2-z
-x,-y,-z
x,y,-z
-x,y,1/2+z
x,-y,1/2+z
1/2+x,1/2+y,1/2+z
1/2-x,1/2-y,1/2+z
1/2+x,1/2-y,-z
1/2-x,1/2+y,-z
1/2-x,1/2-y,1/2-z
1/2+x,1/2+y,1/2-z
1/2-x,1/2+y,z
1/2+x,1/2-y,z
loop_
_atom_site_type_symbol
_atom_site_label
_atom_site_fract_x
_atom_site_fract_y
_atom_site_fract_z
Si Si1 0.933582 0.686723 0.500000
Si Si2 0.574929 0.929421 0.605863
Si Si3 0.810959 0.034554 0.151783
Si Si4 0.951801 0.871220 0.500000
Si Si5 0.288330 0.408144 0.500000
O O1 0.918258 0.780167 0.500000
O O2 0.802487 0.661643 0.500000
O O3 0.000575 0.652160 0.406350
O O4 0.611773 0.959296 0.500000
O O5 0.692476 0.914469 0.665108
O O6 0.500000 0.000000 0.653668
O O7 0.905752 0.085075 0.094864
O O8 0.861303 0.000000 0.250000
O O9 0.771051 0.958044 0.094528
O O10 0.086543 0.871146 0.500000
#
# Coordination Sequence:
#
# PCOD8293771 Si02
#       5
#     8  16  16   8   8
#     4  10  19  38  63  90 128 157 212 267 316 391
#     4   9  15  35  63  87 115 162 210 254 302 369
#     4  11  21  39  65  91 120 162 222 255 305 385
#     4  11  25  36  64  91 124 172 196 265 344 367
#     4  11  21  41  61  84 120 173 204 257 323 374
#
# _framework density 20.156423
#
# number of rings (size 3 to 8) (size 9 to 14) (size 15 to 20)
#    0.857    0.857    5.714    1.714    4.000    2.857 
#    0.000    1.429    6.286    0.000    0.000    0.000 
#    0.000    0.000    0.000    0.000    0.000    0.000 
#
# Total GULP energy -346882.255636 kJ/mol
# GULP energy per Si atom -12388.651987 kJ/mol
# Density = 2.011055 g / cm^3
# Si number density = 20.156423 Si / 1000 Ang^3
#
#
#
# Elastic Constant Matrix: (Units=GPa)
#
#
# Indices 1 2 3 4 5 6 
#
# 1 148.9566 45.4927 29.6076 0.0000 0.0000 0.0000
# 2 45.4927 124.1938 46.7215 0.0000 0.0000 0.0000
# 3 29.6076 46.7215 96.6449 -0.0004 -0.0003 0.0000
# 4 0.0000 0.0000 -0.0004 -8.5004 -0.0006 0.0000
# 5 0.0000 0.0000 -0.0003 -0.0006 20.2544 0.0000
# 6 0.0000 0.0000 0.0000 0.0000 0.0000 24.7738
#
#
#
# Elastic Compliance Matrix: (Units=1/GPa)
#
#
# Indices 1 2 3 4 5 6 
#
# 1 0.007674 -0.002355 -0.001212 0.000000 0.000000 0.000000
# 2 -0.002355 0.010564 -0.004386 0.000000 0.000000 0.000000
# 3 -0.001212 -0.004386 0.012839 -0.000001 0.000000 0.000000
# 4 0.000000 0.000000 -0.000001 -0.117641 -0.000004 0.000000
# 5 0.000000 0.000000 0.000000 -0.000004 0.049372 0.000000
# 6 0.000000 0.000000 0.000000 0.000000 0.000000 0.040365
#
#
# Mechanical properties :
#
#
# Convention : Reuss Voigt Hill
#
# Bulk Modulus (GPa) = 65.91621 68.15989 67.03805
# Shear Modulus (GPa) = 207.16074 23.83711 115.49892
#
# Velocity S-wave (km/s) = 10.14887 3.44264 7.57797
# Velocity P-wave (km/s) = 13.04248 7.04920 10.48326
#
# Compressibility (1/GPa) = 0.01517078
#
# Stress axis : x y z
#
# Youngs Moduli (GPa) = 130.31835 94.65741 77.88857
#
# Poissons Ratio (x) = 0.22289 0.09444
# Poissons Ratio (y) = 0.30686 0.34161
# Poissons Ratio (z) = 0.15801 0.41515
#
# Static dielectric constant tensor:
#      x y z
#    x 3.893240 0.000000 0.000000 
#    y 0.000000 3.316280 0.000000 
#    z 0.000000 0.000000 3.334720 
# 
# 
# High freq. dielectric constant tensor:
#      x y z
#    x 1.814190 0.000000 0.000000 
#    y 0.000000 1.752360 0.000000 
#    z 0.000000 0.000000 1.749440 
# 
# From -- ./inp_files/19660.got.cif
#   From: 2010.03.12/outbox.cif.g09.slc.cpg/sg72_10_cif.got.tgz:19660.got - 2010.04.16 14:54:00.
