data_PCOD8293197
_publ_section_title
;
Structure prediction by ZEFSAII (Michael W. Deem and Ramdas Pophale) SiO2 
 PCOD8293197
Probable space group: I B A M
;
_chemical_formula_sum "Si O2"
_cell_formula_units_Z 112
_cell_length_a 15.141104
_cell_length_b 14.590083
_cell_length_c 27.475035
_cell_angle_alpha 90.000000
_cell_angle_beta 90.000000
_cell_angle_gamma 90.000000
_cell_volume 6069.508995
_symmetry_space_group_name_H-M "I B A M"
_symmetry_group_IT_number 72
_symmetry_cell_setting 'orthorhombic'
loop_
_space_group_symop_operation_xyz
x,y,z
-x,-y,z
x,-y,1/2-z
-x,y,1/2-z
-x,-y,-z
x,y,-z
-x,y,1/2+z
x,-y,1/2+z
1/2+x,1/2+y,1/2+z
1/2-x,1/2-y,1/2+z
1/2+x,1/2-y,-z
1/2-x,1/2+y,-z
1/2-x,1/2-y,1/2-z
1/2+x,1/2+y,1/2-z
1/2-x,1/2+y,z
1/2+x,1/2-y,z
loop_
_atom_site_type_symbol
_atom_site_label
_atom_site_fract_x
_atom_site_fract_y
_atom_site_fract_z
Si Si1 0.398832 0.484182 0.052515
Si Si2 0.242901 0.743962 0.872209
Si Si3 0.176661 0.401412 0.694600
Si Si4 0.997485 0.712792 0.695450
Si Si5 0.434955 0.311014 0.894118
Si Si6 0.385411 0.312226 0.555996
Si Si7 0.680249 0.111585 0.806533
O O1 0.500000 0.500000 0.041572
O O2 0.390841 0.410940 0.096138
O O3 0.358777 0.582400 0.068011
O O4 0.357142 0.451695 0.000000
O O5 0.246902 0.653529 0.838475
O O6 0.147946 0.742216 0.899662
O O7 0.321758 0.749202 0.910920
O O8 0.246303 0.834107 0.837660
O O9 0.175074 0.506224 0.676654
O O10 0.207816 0.387831 0.750090
O O11 0.077592 0.363752 0.689530
O O12 0.088494 0.662965 0.682567
O O13 0.000000 0.753168 0.750000
O O14 0.978696 0.798849 0.659507
O O15 0.511653 0.290094 0.933155
O O16 0.368252 0.287788 0.500000
#
# Coordination Sequence:
#
# PCOD8293197 Si02
#       7
#    16  16  16  16  16  16  16
#     4   8  16  32  55  75  99 139 186 226 266 322
#     4  11  22  33  57  85 111 141 183 230 277 324
#     4   9  20  33  55  82 112 146 186 220 267 329
#     4   9  17  32  54  82 109 144 186 223 266 327
#     4  10  19  34  54  82 108 143 179 232 274 323
#     4  10  21  38  57  78 106 144 187 232 276 325
#     4  10  18  35  55  80 113 149 179 224 272 324
#
# _framework density 18.452893
#
# number of rings (size 3 to 8) (size 9 to 14) (size 15 to 20)
#    0.000    2.429    1.429    2.143    2.000    2.857 
#    0.000    0.000    0.000    3.857    0.000    2.000 
#    0.000    0.000    0.000    0.000    0.000    0.000 
#
# Total GULP energy -693918.345505 kJ/mol
# GULP energy per Si atom -12391.399027 kJ/mol
# Density = 1.841089 g / cm^3
# Si number density = 18.452893 Si / 1000 Ang^3
#
#
#
# Elastic Constant Matrix: (Units=GPa)
#
#
# Indices 1 2 3 4 5 6 
#
# 1 68.5547 16.9109 35.7818 0.0000 0.0000 0.0000
# 2 16.9109 94.1291 62.3491 0.0000 0.0000 0.0000
# 3 35.7818 62.3491 100.5070 0.0000 0.0000 0.0000
# 4 0.0000 0.0000 0.0000 39.9598 0.0000 0.0000
# 5 0.0000 0.0000 0.0000 0.0000 28.2565 0.0000
# 6 0.0000 0.0000 0.0000 0.0000 0.0000 18.5013
#
#
#
# Elastic Compliance Matrix: (Units=1/GPa)
#
#
# Indices 1 2 3 4 5 6 
#
# 1 0.018079 0.001724 -0.007506 0.000000 0.000000 0.000000
# 2 0.001724 0.018198 -0.011903 0.000000 0.000000 0.000000
# 3 -0.007506 -0.011903 0.020005 0.000000 0.000000 0.000000
# 4 0.000000 0.000000 0.000000 0.025025 0.000000 0.000000
# 5 0.000000 0.000000 0.000000 0.000000 0.035390 0.000000
# 6 0.000000 0.000000 0.000000 0.000000 0.000000 0.054050
#
#
# Mechanical properties :
#
#
# Convention : Reuss Voigt Hill
#
# Bulk Modulus (GPa) = 47.81672 54.80828 51.31250
# Shear Modulus (GPa) = 23.46433 27.22013 25.34223
#
# Velocity S-wave (km/s) = 3.56979 3.84489 3.70989
# Velocity P-wave (km/s) = 6.55441 7.03400 6.79843
#
# Compressibility (1/GPa) = 0.02091319
#
# Stress axis : x y z
#
# Youngs Moduli (GPa) = 55.31195 54.95048 49.98626
#
# Poissons Ratio (x) = -0.09471 0.37518
# Poissons Ratio (y) = -0.09533 0.59498
# Poissons Ratio (z) = 0.41515 0.65406
#
# Static dielectric constant tensor:
#      x y z
#    x 3.246690 0.000000 0.000000 
#    y 0.000000 3.526400 0.000000 
#    z 0.000000 0.000000 3.505950 
# 
# 
# High freq. dielectric constant tensor:
#      x y z
#    x 1.705430 0.000000 0.000000 
#    y 0.000000 1.698320 0.000000 
#    z 0.000000 0.000000 1.713490 
# 
# From -- ./inp_files/48726.got.cif
#   From: 2010.03.12/outbox.cif.g09.slc.cpg/sg72_25_cif.got.tgz:48726.got - 2010.04.16 14:54:00.
