data_PCOD8293000
_publ_section_title
;
Structure prediction by ZEFSAII (Michael W. Deem and Ramdas Pophale) SiO2 
 PCOD8293000
Probable space group: I B A M
;
_chemical_formula_sum "Si O2"
_cell_formula_units_Z 116
_cell_length_a 26.608877
_cell_length_b 26.378930
_cell_length_c 9.041855
_cell_angle_alpha 90.000000
_cell_angle_beta 90.000000
_cell_angle_gamma 90.000000
_cell_volume 6346.601932
_symmetry_space_group_name_H-M "I B A M"
_symmetry_group_IT_number 72
_symmetry_cell_setting 'orthorhombic'
loop_
_space_group_symop_operation_xyz
x,y,z
-x,-y,z
x,-y,1/2-z
-x,y,1/2-z
-x,-y,-z
x,y,-z
-x,y,1/2+z
x,-y,1/2+z
1/2+x,1/2+y,1/2+z
1/2-x,1/2-y,1/2+z
1/2+x,1/2-y,-z
1/2-x,1/2+y,-z
1/2-x,1/2-y,1/2-z
1/2+x,1/2+y,1/2-z
1/2-x,1/2+y,z
1/2+x,1/2-y,z
loop_
_atom_site_type_symbol
_atom_site_label
_atom_site_fract_x
_atom_site_fract_y
_atom_site_fract_z
Si Si1 0.051341 0.319420 0.324690
Si Si2 0.580691 0.922693 0.665869
Si Si3 0.873913 0.249481 0.335479
Si Si4 0.823200 0.421171 0.826730
Si Si5 0.810773 0.840786 0.172636
Si Si6 0.788262 0.325599 0.333479
Si Si7 0.211582 0.951265 0.329474
Si Si8 0.500000 0.000000 0.250000
O O1 0.045465 0.323522 0.500000
O O2 0.065889 0.374426 0.263643
O O3 0.091057 0.275498 0.285676
O O4 0.000000 0.301574 0.250000
O O5 0.593008 0.904203 0.500000
O O6 0.630459 0.947745 0.739855
O O7 0.535985 0.963761 0.653603
O O8 0.897995 0.255072 0.500000
O O9 0.862764 0.189994 0.298671
O O10 0.818374 0.273293 0.334957
O O11 0.820214 0.363730 0.768548
O O12 0.770818 0.448434 0.789749
O O13 0.835245 0.421111 0.000000
O O14 0.766445 0.815416 0.266766
O O15 0.816592 0.899741 0.221682
O O16 0.795148 0.839298 0.000000
O O17 0.783084 0.347526 0.500000
O O18 0.203231 0.960617 0.500000
O O19 0.187667 0.000000 0.250000
#
# Coordination Sequence:
#
# PCOD8293000 Si02
#       8
#    16  16  16  16  16  16  16   4
#     4  12  25  41  62  82 106 139 177 222 276 332
#     4  12  25  42  60  77 100 132 178 231 286 334
#     4  10  20  35  55  79 108 141 176 218 271 325
#     4  10  21  36  53  74 101 136 178 224 274 326
#     4   9  19  34  51  75 110 145 178 219 264 319
#     4  10  18  29  50  78 106 138 174 216 266 323
#     4   9  19  34  51  74 105 143 180 216 260 309
#     4  12  30  44  60  78 102 132 182 240 296 336
#
# _framework density 18.277495999999999
#
# number of rings (size 3 to 8) (size 9 to 14) (size 15 to 20)
#    0.000    1.655    2.069    3.931    0.966    5.517 
#    0.000    0.000    0.000    0.000    0.000    0.000 
#    0.000    0.552    0.000    6.345    0.000    1.931 
#
# Total GULP energy -719011.284671 kJ/mol
# GULP energy per Si atom -12396.746287 kJ/mol
# Density = 1.823590 g / cm^3
# Si number density = 18.277496 Si / 1000 Ang^3
#
#
#
# Elastic Constant Matrix: (Units=GPa)
#
#
# Indices 1 2 3 4 5 6 
#
# 1 51.4681 39.3662 33.3180 0.0000 0.0000 0.0000
# 2 39.3662 105.8042 45.8604 0.0000 0.0000 0.0000
# 3 33.3180 45.8604 109.4614 0.0000 0.0000 0.0000
# 4 0.0000 0.0000 0.0000 23.5334 0.0000 0.0000
# 5 0.0000 0.0000 0.0000 0.0000 18.9916 0.0000
# 6 0.0000 0.0000 0.0000 0.0000 0.0000 24.2204
#
#
#
# Elastic Compliance Matrix: (Units=1/GPa)
#
#
# Indices 1 2 3 4 5 6 
#
# 1 0.029523 -0.008663 -0.005357 0.000000 0.000000 0.000000
# 2 -0.008663 0.014090 -0.003267 0.000000 0.000000 0.000000
# 3 -0.005357 -0.003267 0.012135 0.000000 0.000000 0.000000
# 4 0.000000 0.000000 0.000000 0.042493 0.000000 0.000000
# 5 0.000000 0.000000 0.000000 0.000000 0.052655 0.000000
# 6 0.000000 0.000000 0.000000 0.000000 0.000000 0.041287
#
#
# Mechanical properties :
#
#
# Convention : Reuss Voigt Hill
#
# Bulk Modulus (GPa) = 47.22349 55.98030 51.60190
# Shear Modulus (GPa) = 21.38449 23.22836 22.30642
#
# Velocity S-wave (km/s) = 3.42422 3.56880 3.49726
# Velocity P-wave (km/s) = 6.44413 6.90480 6.67844
#
# Compressibility (1/GPa) = 0.02117590
#
# Stress axis : x y z
#
# Youngs Moduli (GPa) = 33.87183 70.97033 82.40759
#
# Poissons Ratio (x) = 0.61479 0.44145
# Poissons Ratio (y) = 0.29342 0.26920
# Poissons Ratio (z) = 0.18145 0.23184
#
# Static dielectric constant tensor:
#      x y z
#    x 3.217320 0.000000 0.000000 
#    y 0.000000 3.359630 0.000000 
#    z 0.000000 0.000000 3.387990 
# 
# 
# High freq. dielectric constant tensor:
#      x y z
#    x 1.668640 0.000000 0.000000 
#    y 0.000000 1.701530 0.000000 
#    z 0.000000 0.000000 1.715770 
# 
# From -- ./inp_files/9498.got.cif
#   From: 2010.03.12/outbox.cif.g09.slc.cpg/sg72_5_cif.got.tgz:9498.got - 2010.04.16 14:54:00.
