data_PCOD8293842
_publ_section_title
;
Structure prediction by ZEFSAII (Michael W. Deem and Ramdas Pophale) SiO2 
 PCOD8293842
Probable space group: I B A M
;
_chemical_formula_sum "Si O2"
_cell_formula_units_Z 112
_cell_length_a 13.656225
_cell_length_b 23.334989
_cell_length_c 17.908190
_cell_angle_alpha 90.000000
_cell_angle_beta 90.000000
_cell_angle_gamma 90.000000
_cell_volume 5706.764587
_symmetry_space_group_name_H-M "I B A M"
_symmetry_group_IT_number 72
_symmetry_cell_setting 'orthorhombic'
loop_
_space_group_symop_operation_xyz
x,y,z
-x,-y,z
x,-y,1/2-z
-x,y,1/2-z
-x,-y,-z
x,y,-z
-x,y,1/2+z
x,-y,1/2+z
1/2+x,1/2+y,1/2+z
1/2-x,1/2-y,1/2+z
1/2+x,1/2-y,-z
1/2-x,1/2+y,-z
1/2-x,1/2-y,1/2-z
1/2+x,1/2+y,1/2-z
1/2-x,1/2+y,z
1/2+x,1/2-y,z
loop_
_atom_site_type_symbol
_atom_site_label
_atom_site_fract_x
_atom_site_fract_y
_atom_site_fract_z
Si Si1 0.789079 0.044570 0.588322
Si Si2 0.799601 0.222446 0.912905
Si Si3 0.108991 0.485497 0.163878
Si Si4 0.675277 0.671511 0.412398
Si Si5 0.311127 0.114802 0.582012
Si Si6 0.481341 0.666371 0.337072
Si Si7 0.402569 0.561497 0.417337
O O1 0.780016 0.044159 0.500000
O O2 0.685955 0.022607 0.618337
O O3 0.803184 0.108289 0.620332
O O4 0.883075 0.004148 0.611483
O O5 0.765436 0.286602 0.892251
O O6 0.705258 0.181492 0.897173
O O7 0.889350 0.205606 0.859715
O O8 0.831407 0.217027 0.000000
O O9 0.124447 0.500000 0.250000
O O10 0.125841 0.417949 0.145271
O O11 0.000000 0.500000 0.137295
O O12 0.658639 0.669723 0.500000
O O13 0.575568 0.694243 0.376063
O O14 0.361748 0.108901 0.500000
O O15 0.203867 0.088456 0.576996
O O16 0.500000 0.667632 0.250000
O O17 0.468304 0.599880 0.362477
O O18 0.452065 0.561662 0.500000
#
# Coordination Sequence:
#
# PCOD8293842 Si02
#       7
#    16  16  16  16  16  16  16
#     4   9  19  35  56  82 108 141 184 239 291 327
#     4   9  19  39  62  81 109 150 195 240 280 330
#     4  10  20  33  50  76 112 148 182 221 280 343
#     4  10  21  38  59  83 113 147 193 245 287 329
#     4   8  15  31  56  78  96 135 185 225 267 319
#     4  11  22  35  55  85 116 149 190 231 287 348
#     4   8  15  32  56  78 106 139 177 223 278 337
#
# _framework density 19.625831000000002
#
# number of rings (size 3 to 8) (size 9 to 14) (size 15 to 20)
#    0.000    2.714    0.000    3.429    0.000    5.714 
#    2.571    2.857    0.000    0.000    0.000    0.000 
#    0.000    0.000    0.000    0.000    0.000    0.000 
#
# Total GULP energy -694059.310707 kJ/mol
# GULP energy per Si atom -12393.916263 kJ/mol
# Density = 1.958116 g / cm^3
# Si number density = 19.625831 Si / 1000 Ang^3
#
#
#
# Elastic Constant Matrix: (Units=GPa)
#
#
# Indices 1 2 3 4 5 6 
#
# 1 83.2840 42.6313 55.3942 0.0003 0.0000 0.0000
# 2 42.6313 130.3499 50.3163 0.0005 0.0000 0.0000
# 3 55.3942 50.3163 80.9914 -0.0068 0.0000 0.0000
# 4 0.0003 0.0005 -0.0068 238.0513 0.0002 -0.0001
# 5 0.0000 0.0000 0.0000 0.0002 13.2975 0.0000
# 6 0.0000 0.0000 0.0000 -0.0001 0.0000 22.3935
#
#
#
# Elastic Compliance Matrix: (Units=1/GPa)
#
#
# Indices 1 2 3 4 5 6 
#
# 1 0.022364 -0.001855 -0.014143 0.000000 0.000000 0.000000
# 2 -0.001855 0.010246 -0.005097 0.000000 0.000000 0.000000
# 3 -0.014143 -0.005097 0.025187 0.000001 0.000000 0.000000
# 4 0.000000 0.000000 0.000001 0.004201 0.000000 0.000000
# 5 0.000000 0.000000 0.000000 0.000000 0.075202 0.000000
# 6 0.000000 0.000000 0.000000 0.000000 0.000000 0.044656
#
#
# Mechanical properties :
#
#
# Convention : Reuss Voigt Hill
#
# Bulk Modulus (GPa) = 64.07575 65.70097 64.88836
# Shear Modulus (GPa) = 21.81063 64.50070 43.15566
#
# Velocity S-wave (km/s) = 3.33727 5.73904 4.69435
# Velocity P-wave (km/s) = 6.89705 8.80141 7.90678
#
# Compressibility (1/GPa) = 0.01560653
#
# Stress axis : x y z
#
# Youngs Moduli (GPa) = 44.71565 97.60327 39.70344
#
# Poissons Ratio (x) = 0.18101 0.56154
# Poissons Ratio (y) = 0.08293 0.20236
# Poissons Ratio (z) = 0.63243 0.49745
#
# Static dielectric constant tensor:
#      x y z
#    x 3.444980 0.000000 0.000000 
#    y 0.000000 4.259660 0.000000 
#    z 0.000000 0.000000 3.396230 
# 
# 
# High freq. dielectric constant tensor:
#      x y z
#    x 1.752640 0.000000 0.000000 
#    y 0.000000 1.769180 0.000000 
#    z 0.000000 0.000000 1.742980 
# 
# From -- ./inp_files/22080.got.cif
#   From: 2010.03.12/outbox.cif.g09.slc.cpg/sg72_12_cif.got.tgz:22080.got - 2010.04.16 14:54:00.
