data_PCOD8293058
_publ_section_title
;
Structure prediction by ZEFSAII (Michael W. Deem and Ramdas Pophale) SiO2 
 PCOD8293058
Probable space group: I B A M
;
_chemical_formula_sum "Si O2"
_cell_formula_units_Z 96
_cell_length_a 17.826327
_cell_length_b 18.744225
_cell_length_c 16.818366
_cell_angle_alpha 90.000000
_cell_angle_beta 90.000000
_cell_angle_gamma 90.000000
_cell_volume 5619.700323
_symmetry_space_group_name_H-M "I B A M"
_symmetry_group_IT_number 72
_symmetry_cell_setting 'orthorhombic'
loop_
_space_group_symop_operation_xyz
x,y,z
-x,-y,z
x,-y,1/2-z
-x,y,1/2-z
-x,-y,-z
x,y,-z
-x,y,1/2+z
x,-y,1/2+z
1/2+x,1/2+y,1/2+z
1/2-x,1/2-y,1/2+z
1/2+x,1/2-y,-z
1/2-x,1/2+y,-z
1/2-x,1/2-y,1/2-z
1/2+x,1/2+y,1/2-z
1/2-x,1/2+y,z
1/2+x,1/2-y,z
loop_
_atom_site_type_symbol
_atom_site_label
_atom_site_fract_x
_atom_site_fract_y
_atom_site_fract_z
Si Si1 0.855510 0.353220 0.588024
Si Si2 0.721399 0.557409 0.134302
Si Si3 0.602234 0.552779 0.000000
Si Si4 0.554298 0.609045 0.500000
Si Si5 0.833150 0.194807 0.411853
Si Si6 0.239102 0.406321 0.306407
Si Si7 0.918946 0.416886 0.734884
O O1 0.890518 0.351553 0.500000
O O2 0.774433 0.389510 0.585803
O O3 0.851903 0.272791 0.622820
O O4 0.907795 0.401953 0.642177
O O5 0.712526 0.584235 0.225337
O O6 0.755424 0.477161 0.138942
O O7 0.645744 0.560804 0.083462
O O8 0.573060 0.473239 0.000000
O O9 0.536280 0.612646 0.000000
O O10 0.590432 0.647310 0.578534
O O11 0.796049 0.203384 0.500000
O O12 0.772940 0.159641 0.353841
O O13 0.151969 0.387492 0.285835
O O14 0.922954 0.500000 0.750000
O O15 0.000000 0.380638 0.750000
#
# Coordination Sequence:
#
# PCOD8293058 Si02
#       7
#    16  16   8   8  16  16  16
#     4  10  19  35  59  80 104 148 184 222 271 335
#     4  10  18  30  56  83 101 134 188 230 260 328
#     4  11  18  33  56  78 106 141 184 229 282 314
#     4   9  20  33  52  76 109 151 168 227 285 320
#     4   9  19  36  56  75 114 147 179 223 277 329
#     4  10  18  35  54  83 106 139 182 227 272 322
#     4  10  20  36  54  80 114 141 175 231 281 322
#
# _framework density 17.082761000000001
#
# number of rings (size 3 to 8) (size 9 to 14) (size 15 to 20)
#    0.500    1.667    5.833    0.000    0.000    2.667 
#    0.000    6.667    0.000    0.000    0.000    0.000 
#    0.000    0.000    0.000    0.000    0.000    0.000 
#
# Total GULP energy -594636.799961 kJ/mol
# GULP energy per Si atom -12388.266666 kJ/mol
# Density = 1.704388 g / cm^3
# Si number density = 17.082761 Si / 1000 Ang^3
#
#
#
# Elastic Constant Matrix: (Units=GPa)
#
#
# Indices 1 2 3 4 5 6 
#
# 1 128.3147 35.6062 54.0118 0.0000 0.0000 0.0000
# 2 35.6062 91.1719 42.3385 0.0000 0.0000 0.0000
# 3 54.0118 42.3385 82.9321 0.0000 0.0000 0.0000
# 4 0.0000 0.0000 0.0000 29.3223 0.0000 0.0000
# 5 0.0000 0.0000 0.0000 0.0000 6.0705 0.0000
# 6 0.0000 0.0000 0.0000 0.0000 0.0000 -15.3228
#
#
#
# Elastic Compliance Matrix: (Units=1/GPa)
#
#
# Indices 1 2 3 4 5 6 
#
# 1 0.010845 -0.001252 -0.006424 0.000000 0.000000 0.000000
# 2 -0.001252 0.014521 -0.006598 0.000000 0.000000 0.000000
# 3 -0.006424 -0.006598 0.019610 0.000000 0.000000 0.000000
# 4 0.000000 0.000000 0.000000 0.034104 0.000000 0.000000
# 5 0.000000 0.000000 0.000000 0.000000 0.164732 0.000000
# 6 0.000000 0.000000 0.000000 0.000000 0.000000 -0.065262
#
#
# Mechanical properties :
#
#
# Convention : Reuss Voigt Hill
#
# Bulk Modulus (GPa) = 60.86982 62.92575 61.89778
# Shear Modulus (GPa) = 23.52128 15.37813 19.44970
#
# Velocity S-wave (km/s) = 3.71469 3.00361 3.37791
# Velocity P-wave (km/s) = 7.35583 6.99605 7.17819
#
# Compressibility (1/GPa) = 0.01642850
#
# Stress axis : x y z
#
# Youngs Moduli (GPa) = 92.21052 68.86459 50.99455
#
# Poissons Ratio (x) = 0.08624 0.32757
# Poissons Ratio (y) = 0.11547 0.33645
# Poissons Ratio (z) = 0.59233 0.45435
#
# Static dielectric constant tensor:
#      x y z
#    x 3.450190 0.000000 0.000000 
#    y 0.000000 3.167970 0.000000 
#    z 0.000000 0.000000 3.132980 
# 
# 
# High freq. dielectric constant tensor:
#      x y z
#    x 1.639530 0.000000 0.000000 
#    y 0.000000 1.657710 0.000000 
#    z 0.000000 0.000000 1.654560 
# 
# From -- ./inp_files/31840.got.cif
#   From: 2010.03.12/outbox.cif.g09.slc.cpg/sg72_16_cif.got.tgz:31840.got - 2010.04.16 14:54:00.
