data_PCOD8293474
_publ_section_title
;
Structure prediction by ZEFSAII (Michael W. Deem and Ramdas Pophale) SiO2 
 PCOD8293474
Probable space group: I B A M
;
_chemical_formula_sum "Si O2"
_cell_formula_units_Z 104
_cell_length_a 21.066221
_cell_length_b 27.036424
_cell_length_c 9.585715
_cell_angle_alpha 90.000000
_cell_angle_beta 90.000000
_cell_angle_gamma 90.000000
_cell_volume 5459.594620
_symmetry_space_group_name_H-M "I B A M"
_symmetry_group_IT_number 72
_symmetry_cell_setting 'orthorhombic'
loop_
_space_group_symop_operation_xyz
x,y,z
-x,-y,z
x,-y,1/2-z
-x,y,1/2-z
-x,-y,-z
x,y,-z
-x,y,1/2+z
x,-y,1/2+z
1/2+x,1/2+y,1/2+z
1/2-x,1/2-y,1/2+z
1/2+x,1/2-y,-z
1/2-x,1/2+y,-z
1/2-x,1/2-y,1/2-z
1/2+x,1/2+y,1/2-z
1/2-x,1/2+y,z
1/2+x,1/2-y,z
loop_
_atom_site_type_symbol
_atom_site_label
_atom_site_fract_x
_atom_site_fract_y
_atom_site_fract_z
Si Si1 0.189891 0.308797 0.344557
Si Si2 0.111374 0.784416 0.152189
Si Si3 0.258554 0.453361 0.339395
Si Si4 0.322417 0.353013 0.657026
Si Si5 0.907177 0.361488 0.657754
Si Si6 0.609483 0.048491 0.336103
Si Si7 0.500000 0.217462 0.250000
O O1 0.168503 0.328451 0.500000
O O2 0.171843 0.251455 0.329984
O O3 0.265075 0.314053 0.331273
O O4 0.157055 0.339543 0.222173
O O5 0.118368 0.830607 0.257285
O O6 0.047257 0.752844 0.166694
O O7 0.110796 0.808577 0.000000
O O8 0.281005 0.500000 0.250000
O O9 0.272701 0.465215 0.500000
O O10 0.299011 0.406254 0.287021
O O11 0.184425 0.441736 0.318678
O O12 0.346910 0.358360 0.500000
O O13 0.893988 0.380313 0.500000
O O14 0.927692 0.406673 0.759502
O O15 0.960521 0.318795 0.648709
O O16 0.590159 0.044383 0.500000
O O17 0.589317 0.000000 0.250000
#
# Coordination Sequence:
#
# PCOD8293474 Si02
#       7
#    16  16  16  16  16  16   8
#     4   9  18  34  51  73 110 145 172 214 270 321
#     4  10  21  35  54  77 102 138 183 228 269 315
#     4   9  18  32  51  77 111 147 175 207 257 316
#     4  10  19  33  52  78 112 144 172 211 270 322
#     4  11  21  34  56  80 102 139 187 228 271 322
#     4  10  19  34  54  78 110 143 179 223 271 321
#     4  10  24  42  55  72 105 142 184 230 276 324
#
# _framework density 19.049033999999999
#
# number of rings (size 3 to 8) (size 9 to 14) (size 15 to 20)
#    0.000    2.154    1.538    1.846    0.000    6.769 
#    0.000    0.385    0.000    1.846    0.000    0.538 
#    0.000    3.692    0.000    0.000    0.000    0.000 
#
# Total GULP energy -644531.198294 kJ/mol
# GULP energy per Si atom -12394.830736 kJ/mol
# Density = 1.900568 g / cm^3
# Si number density = 19.049034 Si / 1000 Ang^3
#
#
#
# Elastic Constant Matrix: (Units=GPa)
#
#
# Indices 1 2 3 4 5 6 
#
# 1 40.3947 39.1390 27.0803 0.0000 0.0000 0.0000
# 2 39.1390 95.6798 53.6614 0.0000 0.0000 0.0000
# 3 27.0803 53.6614 125.1899 0.0000 0.0000 0.0000
# 4 0.0000 0.0000 0.0000 36.1401 0.0000 0.0000
# 5 0.0000 0.0000 0.0000 0.0000 11.4665 0.0000
# 6 0.0000 0.0000 0.0000 0.0000 0.0000 27.8387
#
#
#
# Elastic Compliance Matrix: (Units=1/GPa)
#
#
# Indices 1 2 3 4 5 6 
#
# 1 0.041480 -0.015713 -0.002238 0.000000 0.000000 0.000000
# 2 -0.015713 0.019712 -0.005050 0.000000 0.000000 0.000000
# 3 -0.002238 -0.005050 0.010637 0.000000 0.000000 0.000000
# 4 0.000000 0.000000 0.000000 0.027670 0.000000 0.000000
# 5 0.000000 0.000000 0.000000 0.000000 0.087211 0.000000
# 6 0.000000 0.000000 0.000000 0.000000 0.000000 0.035921
#
#
# Mechanical properties :
#
#
# Convention : Reuss Voigt Hill
#
# Bulk Modulus (GPa) = 38.71939 55.66953 47.19446
# Shear Modulus (GPa) = 18.03483 24.51465 21.27474
#
# Velocity S-wave (km/s) = 3.08028 3.59126 3.34554
# Velocity P-wave (km/s) = 5.74640 6.81792 6.30496
#
# Compressibility (1/GPa) = 0.02582685
#
# Stress axis : x y z
#
# Youngs Moduli (GPa) = 24.10774 50.73169 94.01523
#
# Poissons Ratio (x) = 0.79716 0.21036
# Poissons Ratio (y) = 0.37881 0.47479
# Poissons Ratio (z) = 0.05394 0.25620
#
# Static dielectric constant tensor:
#      x y z
#    x 3.084490 0.000000 0.000000 
#    y 0.000000 3.425350 0.000000 
#    z 0.000000 0.000000 3.521880 
# 
# 
# High freq. dielectric constant tensor:
#      x y z
#    x 1.697080 0.000000 0.000000 
#    y 0.000000 1.733520 0.000000 
#    z 0.000000 0.000000 1.745990 
# 
# From -- ./inp_files/6420.got.cif
#   From: 2010.03.12/outbox.cif.g09.slc.cpg/sg72_4_cif.got.tgz:6420.got - 2010.04.16 14:54:00.
