data_PCOD8293194
_publ_section_title
;
Structure prediction by ZEFSAII (Michael W. Deem and Ramdas Pophale) SiO2 
 PCOD8293194
Probable space group: I B A M
;
_chemical_formula_sum "Si O2"
_cell_formula_units_Z 56
_cell_length_a 13.402093
_cell_length_b 19.428814
_cell_length_c 13.193546
_cell_angle_alpha 90.000000
_cell_angle_beta 90.000000
_cell_angle_gamma 90.000000
_cell_volume 3435.424856
_symmetry_space_group_name_H-M "I B A M"
_symmetry_group_IT_number 72
_symmetry_cell_setting 'orthorhombic'
loop_
_space_group_symop_operation_xyz
x,y,z
-x,-y,z
x,-y,1/2-z
-x,y,1/2-z
-x,-y,-z
x,y,-z
-x,y,1/2+z
x,-y,1/2+z
1/2+x,1/2+y,1/2+z
1/2-x,1/2-y,1/2+z
1/2+x,1/2-y,-z
1/2-x,1/2+y,-z
1/2-x,1/2-y,1/2-z
1/2+x,1/2+y,1/2-z
1/2-x,1/2+y,z
1/2+x,1/2-y,z
loop_
_atom_site_type_symbol
_atom_site_label
_atom_site_fract_x
_atom_site_fract_y
_atom_site_fract_z
Si Si1 0.866791 0.717361 0.500000
Si Si2 0.723133 0.694783 0.332446
Si Si3 0.430405 0.276978 0.500000
Si Si4 0.611695 0.422106 0.279912
Si Si5 0.395121 0.629700 0.500000
O O1 0.821116 0.680293 0.400952
O O2 0.832720 0.798439 0.500000
O O3 0.987849 0.714486 0.500000
O O4 0.750000 0.750000 0.250000
O O5 0.635425 0.727739 0.399667
O O6 0.690220 0.624160 0.280570
O O7 0.487179 0.350726 0.500000
O O8 0.632983 0.500000 0.250000
O O9 0.500000 0.399094 0.250000
O O10 0.629380 0.414681 0.400377
#
# Coordination Sequence:
#
# PCOD8293194 Si02
#       5
#     8  16   8  16   8
#     4   9  19  31  54  74 108 139 180 230 265 315
#     4  11  19  32  54  79 106 141 186 220 267 322
#     4   9  19  33  51  79 112 135 182 227 272 319
#     4  11  22  34  52  77 115 147 171 218 279 331
#     4  10  18  35  50  75 110 140 178 212 264 322
#
# _framework density 16.300750000000001
#
# number of rings (size 3 to 8) (size 9 to 14) (size 15 to 20)
#    0.857    0.857    5.714    0.000    0.000    4.571 
#    0.000    0.000    0.000    0.000    0.000    6.000 
#    0.000    0.000    0.000    0.000    0.000    0.000 
#
# Total GULP energy -347063.912696 kJ/mol
# GULP energy per Si atom -12395.139739 kJ/mol
# Density = 1.626365 g / cm^3
# Si number density = 16.300750 Si / 1000 Ang^3
#
#
#
# Elastic Constant Matrix: (Units=GPa)
#
#
# Indices 1 2 3 4 5 6 
#
# 1 85.6591 32.2292 47.4005 0.0000 0.0000 0.0000
# 2 32.2292 83.6214 47.7559 -0.0002 0.0000 0.0000
# 3 47.4005 47.7559 148.5765 -0.0004 0.0000 0.0000
# 4 0.0000 -0.0002 -0.0004 22.4160 0.0000 0.0000
# 5 0.0000 0.0000 0.0000 0.0000 28.1015 0.0000
# 6 0.0000 0.0000 0.0000 0.0000 0.0000 27.8927
#
#
#
# Elastic Compliance Matrix: (Units=1/GPa)
#
#
# Indices 1 2 3 4 5 6 
#
# 1 0.015081 -0.003754 -0.003605 0.000000 0.000000 0.000000
# 2 -0.003754 0.015582 -0.003811 0.000000 0.000000 0.000000
# 3 -0.003605 -0.003811 0.009105 0.000000 0.000000 0.000000
# 4 0.000000 0.000000 0.000000 0.044611 0.000000 0.000000
# 5 0.000000 0.000000 0.000000 0.000000 0.035585 0.000000
# 6 0.000000 0.000000 0.000000 0.000000 0.000000 0.035852
#
#
# Mechanical properties :
#
#
# Convention : Reuss Voigt Hill
#
# Bulk Modulus (GPa) = 57.37353 63.62536 60.49944
# Shear Modulus (GPa) = 27.17902 28.38013 27.77958
#
# Velocity S-wave (km/s) = 4.08775 4.17709 4.13266
# Velocity P-wave (km/s) = 7.58636 7.89817 7.74383
#
# Compressibility (1/GPa) = 0.01742964
#
# Stress axis : x y z
#
# Youngs Moduli (GPa) = 66.30695 64.17747 109.82446
#
# Poissons Ratio (x) = 0.24092 0.39590
# Poissons Ratio (y) = 0.24891 0.41851
# Poissons Ratio (z) = 0.23902 0.24456
#
# Static dielectric constant tensor:
#      x y z
#    x 3.067360 0.000000 0.000000 
#    y 0.000000 3.266990 0.000000 
#    z 0.000000 0.000000 3.232470 
# 
# 
# High freq. dielectric constant tensor:
#      x y z
#    x 1.612180 0.000000 0.000000 
#    y 0.000000 1.592600 0.000000 
#    z 0.000000 0.000000 1.651490 
# 
# From -- ./inp_files/11122.got.cif
#   From: 2010.03.12/outbox.cif.g09.slc.cpg/sg72_6_cif.got.tgz:11122.got - 2010.04.16 14:54:00.
