data_PCOD8293583
_publ_section_title
;
Structure prediction by ZEFSAII (Michael W. Deem and Ramdas Pophale) SiO2 
 PCOD8293583
Probable space group: I B A M
;
_chemical_formula_sum "Si O2"
_cell_formula_units_Z 80
_cell_length_a 32.446629
_cell_length_b 14.896878
_cell_length_c 9.306727
_cell_angle_alpha 90.000000
_cell_angle_beta 90.000000
_cell_angle_gamma 90.000000
_cell_volume 4498.438824
_symmetry_space_group_name_H-M "I B A M"
_symmetry_group_IT_number 72
_symmetry_cell_setting 'orthorhombic'
loop_
_space_group_symop_operation_xyz
x,y,z
-x,-y,z
x,-y,1/2-z
-x,y,1/2-z
-x,-y,-z
x,y,-z
-x,y,1/2+z
x,-y,1/2+z
1/2+x,1/2+y,1/2+z
1/2-x,1/2-y,1/2+z
1/2+x,1/2-y,-z
1/2-x,1/2+y,-z
1/2-x,1/2-y,1/2-z
1/2+x,1/2+y,1/2-z
1/2-x,1/2+y,z
1/2+x,1/2-y,z
loop_
_atom_site_type_symbol
_atom_site_label
_atom_site_fract_x
_atom_site_fract_y
_atom_site_fract_z
Si Si1 0.883667 0.280321 0.830450
Si Si2 0.635509 0.585328 0.829874
Si Si3 0.725511 0.630402 0.843020
Si Si4 0.458058 0.908136 0.673123
Si Si5 0.202665 0.664096 0.157640
O O1 0.887116 0.176990 0.777233
O O2 0.924631 0.333094 0.787651
O O3 0.842879 0.330546 0.767860
O O4 0.876413 0.277140 0.000000
O O5 0.614942 0.500000 0.750000
O O6 0.683243 0.589986 0.779813
O O7 0.631178 0.572888 0.000000
O O8 0.765260 0.603811 0.747958
O O9 0.720859 0.736757 0.855154
O O10 0.733610 0.589535 0.000000
O O11 0.500000 0.876044 0.750000
O O12 0.463389 0.920510 0.500000
O O13 0.443887 0.000000 0.750000
O O14 0.199510 0.619882 0.000000
#
# Coordination Sequence:
#
# PCOD8293583 Si02
#       5
#    16  16  16  16  16
#     4   8  16  31  50  69  94 127 156 189 236 283
#     4   9  17  30  46  66  93 127 165 199 232 270
#     4   8  14  24  38  58  86 117 151 193 233 262
#     4  10  19  34  55  77  99 121 147 183 231 286
#     4   8  13  24  42  61  82 115 156 189 222 267
#
# _framework density 17.783947999999999
#
# number of rings (size 3 to 8) (size 9 to 14) (size 15 to 20)
#    0.000    3.400    0.000    3.600    0.000    0.800 
#    0.000    8.000    0.000    5.400    0.000    4.200 
#    0.000    0.000    0.000    0.000    0.000    0.000 
#
# Total GULP energy -495527.193621 kJ/mol
# GULP energy per Si atom -12388.179841 kJ/mol
# Density = 1.774347 g / cm^3
# Si number density = 17.783948 Si / 1000 Ang^3
#
#
#
# Elastic Constant Matrix: (Units=GPa)
#
#
# Indices 1 2 3 4 5 6 
#
# 1 108.8466 67.6279 44.2456 0.0000 0.0000 0.0000
# 2 67.6279 88.4438 37.6601 0.0000 0.0000 0.0000
# 3 44.2456 37.6601 62.5010 0.0000 0.0000 0.0000
# 4 0.0000 0.0000 0.0000 20.3063 0.0000 0.0000
# 5 0.0000 0.0000 0.0000 0.0000 19.0174 0.0000
# 6 0.0000 0.0000 0.0000 0.0000 0.0000 18.6735
#
#
#
# Elastic Compliance Matrix: (Units=1/GPa)
#
#
# Indices 1 2 3 4 5 6 
#
# 1 0.019231 -0.011982 -0.006394 0.000000 0.000000 0.000000
# 2 -0.011982 0.022675 -0.005180 0.000000 0.000000 0.000000
# 3 -0.006394 -0.005180 0.023648 0.000000 0.000000 0.000000
# 4 0.000000 0.000000 0.000000 0.049246 0.000000 0.000000
# 5 0.000000 0.000000 0.000000 0.000000 0.052584 0.000000
# 6 0.000000 0.000000 0.000000 0.000000 0.000000 0.053552
#
#
# Mechanical properties :
#
#
# Convention : Reuss Voigt Hill
#
# Bulk Modulus (GPa) = 54.22941 62.09541 58.16241
# Shear Modulus (GPa) = 18.23525 18.94996 18.59261
#
# Velocity S-wave (km/s) = 3.20562 3.26784 3.23688
# Velocity P-wave (km/s) = 6.65290 7.01646 6.83710
#
# Compressibility (1/GPa) = 0.01844018
#
# Stress axis : x y z
#
# Youngs Moduli (GPa) = 51.99880 44.10233 42.28768
#
# Poissons Ratio (x) = 0.52845 0.27039
# Poissons Ratio (y) = 0.62307 0.21905
# Poissons Ratio (z) = 0.33249 0.22845
#
# Static dielectric constant tensor:
#      x y z
#    x 3.243960 0.000000 0.000000 
#    y 0.000000 3.157680 0.000000 
#    z 0.000000 0.000000 3.369820 
# 
# 
# High freq. dielectric constant tensor:
#      x y z
#    x 1.667690 0.000000 0.000000 
#    y 0.000000 1.672620 0.000000 
#    z 0.000000 0.000000 1.669500 
# 
# From -- ./inp_files/9019.got.cif
#   From: 2010.03.12/outbox.cif.g09.slc.cpg/sg72_5_cif.got.tgz:9019.got - 2010.04.16 14:54:00.
