data_PCOD8293393
_publ_section_title
;
Structure prediction by ZEFSAII (Michael W. Deem and Ramdas Pophale) SiO2 
 PCOD8293393
Probable space group: I B A M
;
_chemical_formula_sum "Si O2"
_cell_formula_units_Z 96
_cell_length_a 31.645753
_cell_length_b 18.927132
_cell_length_c 8.776874
_cell_angle_alpha 90.000000
_cell_angle_beta 90.000000
_cell_angle_gamma 90.000000
_cell_volume 5257.025803
_symmetry_space_group_name_H-M "I B A M"
_symmetry_group_IT_number 72
_symmetry_cell_setting 'orthorhombic'
loop_
_space_group_symop_operation_xyz
x,y,z
-x,-y,z
x,-y,1/2-z
-x,y,1/2-z
-x,-y,-z
x,y,-z
-x,y,1/2+z
x,-y,1/2+z
1/2+x,1/2+y,1/2+z
1/2-x,1/2-y,1/2+z
1/2+x,1/2-y,-z
1/2-x,1/2+y,-z
1/2-x,1/2-y,1/2-z
1/2+x,1/2+y,1/2-z
1/2-x,1/2+y,z
1/2+x,1/2-y,z
loop_
_atom_site_type_symbol
_atom_site_label
_atom_site_fract_x
_atom_site_fract_y
_atom_site_fract_z
Si Si1 0.456413 0.669858 0.175657
Si Si2 0.118778 0.422326 0.680356
Si Si3 0.956080 0.335567 0.676955
Si Si4 0.292688 0.424634 0.176843
Si Si5 0.297423 0.077607 0.319866
Si Si6 0.615595 0.422631 0.679564
O O1 0.500000 0.643849 0.250000
O O2 0.449782 0.752597 0.200958
O O3 0.417842 0.631132 0.254423
O O4 0.457770 0.648931 0.000000
O O5 0.113348 0.500000 0.750000
O O6 0.119509 0.427775 0.500000
O O7 0.080653 0.373884 0.732641
O O8 0.162382 0.385052 0.739900
O O9 0.955287 0.356814 0.500000
O O10 0.000000 0.360866 0.750000
O O11 0.291877 0.500000 0.250000
O O12 0.248247 0.384199 0.218523
O O13 0.337711 0.389103 0.220894
O O14 0.292078 0.439540 0.000000
O O15 0.305764 0.074404 0.500000
O O16 0.295329 0.000000 0.250000
O O17 0.609561 0.500000 0.750000
O O18 0.609090 0.429200 0.500000
#
# Coordination Sequence:
#
# PCOD8293393 Si02
#       6
#    16  16  16  16  16  16
#     4  10  21  37  56  76  99 130 167 206 251 303
#     4  11  21  33  51  77 106 134 167 206 249 293
#     4  10  21  38  57  76  99 129 166 206 250 302
#     4   8  15  26  43  68  98 132 165 201 244 291
#     4   9  15  26  44  68  99 132 166 202 244 291
#     4  10  19  32  51  77 107 135 168 209 252 296
#
# _framework density 18.261277
#
# number of rings (size 3 to 8) (size 9 to 14) (size 15 to 20)
#    0.000    2.333    0.000    4.500    0.000    4.000 
#    0.000    3.333    0.000    1.000    0.000    0.000 
#    0.000    0.000    0.000    0.000    0.000    0.000 
#
# Total GULP energy -594629.805690 kJ/mol
# GULP energy per Si atom -12388.120952 kJ/mol
# Density = 1.821971 g / cm^3
# Si number density = 18.261277 Si / 1000 Ang^3
#
#
#
# Elastic Constant Matrix: (Units=GPa)
#
#
# Indices 1 2 3 4 5 6 
#
# 1 212.5983 45.2203 83.6133 0.0000 0.0000 0.0000
# 2 45.2203 24.9094 31.1926 0.0000 0.0000 0.0000
# 3 83.6133 31.1926 125.3015 0.0000 0.0000 0.0000
# 4 0.0000 0.0000 0.0000 23.2969 0.0000 0.0000
# 5 0.0000 0.0000 0.0000 0.0000 47.2845 0.0000
# 6 0.0000 0.0000 0.0000 0.0000 0.0000 -14.2570
#
#
#
# Elastic Compliance Matrix: (Units=1/GPa)
#
#
# Indices 1 2 3 4 5 6 
#
# 1 0.008193 -0.011663 -0.002564 0.000000 0.000000 0.000000
# 2 -0.011663 0.074931 -0.010871 0.000000 0.000000 0.000000
# 3 -0.002564 -0.010871 0.012398 0.000000 0.000000 0.000000
# 4 0.000000 0.000000 0.000000 0.042924 0.000000 0.000000
# 5 0.000000 0.000000 0.000000 0.000000 0.021149 0.000000
# 6 0.000000 0.000000 0.000000 0.000000 0.000000 -0.070141
#
#
# Mechanical properties :
#
#
# Convention : Reuss Voigt Hill
#
# Bulk Modulus (GPa) = 22.06199 75.87352 48.96776
# Shear Modulus (GPa) = 32.30892 24.78373 28.54632
#
# Velocity S-wave (km/s) = 4.21082 3.68798 3.95804
# Velocity P-wave (km/s) = 5.97903 7.73136 6.91096
#
# Compressibility (1/GPa) = 0.04532682
#
# Stress axis : x y z
#
# Youngs Moduli (GPa) = 122.06109 13.34566 80.66034
#
# Poissons Ratio (x) = 0.15564 0.20678
# Poissons Ratio (y) = 1.42354 0.87685
# Poissons Ratio (z) = 0.31292 0.14508
#
# Static dielectric constant tensor:
#      x y z
#    x 4.424830 0.000000 0.000000 
#    y 0.000000 2.866600 0.000000 
#    z 0.000000 0.000000 3.421280 
# 
# 
# High freq. dielectric constant tensor:
#      x y z
#    x 1.743710 0.000000 0.000000 
#    y 0.000000 1.647790 0.000000 
#    z 0.000000 0.000000 1.726550 
# 
# From -- ./inp_files/5982.got.cif
#   From: 2010.03.12/outbox.cif.g09.slc.cpg/sg72_3_cif.got.tgz:5982.got - 2010.04.16 14:54:00.
