data_PCOD8293823
_publ_section_title
;
Structure prediction by ZEFSAII (Michael W. Deem and Ramdas Pophale) SiO2 
 PCOD8293823
Probable space group: I B A M
;
_chemical_formula_sum "Si O2"
_cell_formula_units_Z 104
_cell_length_a 17.763172
_cell_length_b 16.613992
_cell_length_c 20.439612
_cell_angle_alpha 90.000000
_cell_angle_beta 90.000000
_cell_angle_gamma 90.000000
_cell_volume 6032.081011
_symmetry_space_group_name_H-M "I B A M"
_symmetry_group_IT_number 72
_symmetry_cell_setting 'orthorhombic'
loop_
_space_group_symop_operation_xyz
x,y,z
-x,-y,z
x,-y,1/2-z
-x,y,1/2-z
-x,-y,-z
x,y,-z
-x,y,1/2+z
x,-y,1/2+z
1/2+x,1/2+y,1/2+z
1/2-x,1/2-y,1/2+z
1/2+x,1/2-y,-z
1/2-x,1/2+y,-z
1/2-x,1/2-y,1/2-z
1/2+x,1/2+y,1/2-z
1/2-x,1/2+y,z
1/2+x,1/2-y,z
loop_
_atom_site_type_symbol
_atom_site_label
_atom_site_fract_x
_atom_site_fract_y
_atom_site_fract_z
Si Si1 0.732278 0.000000 0.250000
Si Si2 0.669186 0.601931 0.154227
Si Si3 0.546179 0.270193 0.683188
Si Si4 0.787792 0.725988 0.848810
Si Si5 0.919412 0.022178 0.575562
Si Si6 0.577657 0.293076 0.076051
Si Si7 0.174050 0.657434 0.210926
O O1 0.786668 0.939679 0.287384
O O2 0.678754 0.940379 0.207182
O O3 0.598232 0.650350 0.183069
O O4 0.726579 0.664684 0.120107
O O5 0.645749 0.533239 0.104230
O O6 0.500000 0.273004 0.750000
O O7 0.493809 0.268238 0.619296
O O8 0.596551 0.189119 0.678849
O O9 0.849660 0.741532 0.904261
O O10 0.828144 0.688009 0.785729
O O11 0.746383 0.808026 0.827408
O O12 0.922310 0.000902 0.500000
O O13 0.900808 0.114522 0.589495
O O14 0.000000 0.000000 0.607679
O O15 0.557571 0.278253 0.000000
#
# Coordination Sequence:
#
# PCOD8293823 Si02
#       7
#     8  16  16  16  16  16  16
#     4  10  20  32  54  82 110 134 180 228 272 324
#     4  10  21  32  54  82 107 144 174 223 271 329
#     4  11  21  34  56  81 111 144 178 227 275 321
#     4   9  18  34  53  77 108 142 182 222 267 323
#     4  10  20  33  48  73 111 142 172 218 270 321
#     4  11  22  36  55  80 111 148 184 223 273 330
#     4   9  18  34  54  78 108 141 178 228 271 318
#
# _framework density 17.241147999999999
#
# number of rings (size 3 to 8) (size 9 to 14) (size 15 to 20)
#    0.000    2.000    3.077    1.846    2.154    0.615 
#    0.000    2.692    0.000    0.923    0.000    4.308 
#    0.000    0.000    0.000    0.000    0.000    0.000 
#
# Total GULP energy -644657.078337 kJ/mol
# GULP energy per Si atom -12397.251506 kJ/mol
# Density = 1.720191 g / cm^3
# Si number density = 17.241148 Si / 1000 Ang^3
#
#
#
# Elastic Constant Matrix: (Units=GPa)
#
#
# Indices 1 2 3 4 5 6 
#
# 1 105.7541 59.3210 54.2712 0.0000 0.0000 0.0000
# 2 59.3210 96.0398 33.9373 0.0000 0.0000 0.0000
# 3 54.2712 33.9373 75.1016 0.0000 0.0000 0.0000
# 4 0.0000 0.0000 0.0000 23.8086 0.0000 0.0000
# 5 0.0000 0.0000 0.0000 0.0000 27.0083 0.0000
# 6 0.0000 0.0000 0.0000 0.0000 0.0000 35.5384
#
#
#
# Elastic Compliance Matrix: (Units=1/GPa)
#
#
# Indices 1 2 3 4 5 6 
#
# 1 0.019405 -0.008367 -0.010242 0.000000 0.000000 0.000000
# 2 -0.008367 0.015998 -0.001183 0.000000 0.000000 0.000000
# 3 -0.010242 -0.001183 0.021251 0.000000 0.000000 0.000000
# 4 0.000000 0.000000 0.000000 0.042002 0.000000 0.000000
# 5 0.000000 0.000000 0.000000 0.000000 0.037026 0.000000
# 6 0.000000 0.000000 0.000000 0.000000 0.000000 0.028139
#
#
# Mechanical properties :
#
#
# Convention : Reuss Voigt Hill
#
# Bulk Modulus (GPa) = 58.58033 63.55052 61.06542
# Shear Modulus (GPa) = 23.91254 25.89545 24.90400
#
# Velocity S-wave (km/s) = 3.72821 3.87971 3.80472
# Velocity P-wave (km/s) = 7.25145 7.55046 7.40246
#
# Compressibility (1/GPa) = 0.01707058
#
# Stress axis : x y z
#
# Youngs Moduli (GPa) = 51.53268 62.50621 47.05594
#
# Poissons Ratio (x) = 0.52298 0.48195
# Poissons Ratio (y) = 0.43116 0.05568
# Poissons Ratio (z) = 0.52780 0.07396
#
# Static dielectric constant tensor:
#      x y z
#    x 3.400300 0.000000 0.000000 
#    y 0.000000 3.473020 0.000000 
#    z 0.000000 0.000000 2.992500 
# 
# 
# High freq. dielectric constant tensor:
#      x y z
#    x 1.669350 0.000000 0.000000 
#    y 0.000000 1.665330 0.000000 
#    z 0.000000 0.000000 1.640900 
# 
# From -- ./inp_files/38288.got.cif
#   From: 2010.03.12/outbox.cif.g09.slc.cpg/sg72_20_cif.got.tgz:38288.got - 2010.04.16 14:54:00.
