data_PCOD8293570
_publ_section_title
;
Structure prediction by ZEFSAII (Michael W. Deem and Ramdas Pophale) SiO2 
 PCOD8293570
Probable space group: I B A M
;
_chemical_formula_sum "Si O2"
_cell_formula_units_Z 96
_cell_length_a 19.616134
_cell_length_b 30.190642
_cell_length_c 8.963346
_cell_angle_alpha 90.000000
_cell_angle_beta 90.000000
_cell_angle_gamma 90.000000
_cell_volume 5308.305744
_symmetry_space_group_name_H-M "I B A M"
_symmetry_group_IT_number 72
_symmetry_cell_setting 'orthorhombic'
loop_
_space_group_symop_operation_xyz
x,y,z
-x,-y,z
x,-y,1/2-z
-x,y,1/2-z
-x,-y,-z
x,y,-z
-x,y,1/2+z
x,-y,1/2+z
1/2+x,1/2+y,1/2+z
1/2-x,1/2-y,1/2+z
1/2+x,1/2-y,-z
1/2-x,1/2+y,-z
1/2-x,1/2-y,1/2-z
1/2+x,1/2+y,1/2-z
1/2-x,1/2+y,z
1/2+x,1/2-y,z
loop_
_atom_site_type_symbol
_atom_site_label
_atom_site_fract_x
_atom_site_fract_y
_atom_site_fract_z
Si Si1 0.790750 0.624200 0.325903
Si Si2 0.936609 0.952539 0.673401
Si Si3 0.713847 0.452728 0.673492
Si Si4 0.793747 0.788581 0.824104
Si Si5 0.932150 0.336696 0.825969
Si Si6 0.430304 0.265751 0.823510
O O1 0.789263 0.613145 0.500000
O O2 0.768838 0.581030 0.236616
O O3 0.741841 0.665033 0.289130
O O4 0.866975 0.635743 0.271237
O O5 0.952564 0.957318 0.500000
O O6 0.861859 0.931580 0.701136
O O7 0.000000 0.925424 0.750000
O O8 0.934448 0.000000 0.750000
O O9 0.722893 0.500000 0.750000
O O10 0.727104 0.460068 0.500000
O O11 0.750000 0.750000 0.750000
O O12 0.868139 0.792019 0.750756
O O13 0.798838 0.779280 0.000000
O O14 0.920217 0.285664 0.782741
O O15 0.000000 0.355971 0.750000
O O16 0.942669 0.341491 0.000000
O O17 0.500000 0.283605 0.750000
O O18 0.431542 0.274349 0.000000
#
# Coordination Sequence:
#
# PCOD8293570 Si02
#       6
#    16  16  16  16  16  16
#     4  10  21  37  55  79 111 143 180 224 272 323
#     4   9  16  27  46  72  99 127 166 210 255 308
#     4  10  21  36  55  80 107 140 181 225 275 326
#     4  11  21  35  54  79 111 147 182 225 274 323
#     4   9  18  33  52  78 108 139 176 220 266 318
#     4  10  19  34  53  78 110 147 188 227 272 327
#
# _framework density 18.084866999999999
#
# number of rings (size 3 to 8) (size 9 to 14) (size 15 to 20)
#    0.000    2.167    1.667    2.500    0.000    4.667 
#    0.000    0.833    0.000    2.500    0.000    3.500 
#    0.000    0.000    0.000    0.000    0.000    0.000 
#
# Total GULP energy -595081.583198 kJ/mol
# GULP energy per Si atom -12397.532983 kJ/mol
# Density = 1.804370 g / cm^3
# Si number density = 18.084867 Si / 1000 Ang^3
#
#
#
# Elastic Constant Matrix: (Units=GPa)
#
#
# Indices 1 2 3 4 5 6 
#
# 1 172.0009 56.5490 69.1170 0.0000 0.0000 0.0000
# 2 56.5490 67.5129 45.6563 0.0000 0.0000 0.0000
# 3 69.1170 45.6563 96.7467 0.0000 -0.0001 0.0000
# 4 0.0000 0.0000 0.0000 25.4066 0.0000 0.0000
# 5 0.0000 0.0000 -0.0001 0.0000 37.6231 0.0000
# 6 0.0000 0.0000 0.0000 0.0000 0.0000 23.8370
#
#
#
# Elastic Compliance Matrix: (Units=1/GPa)
#
#
# Indices 1 2 3 4 5 6 
#
# 1 0.009077 -0.004726 -0.004255 0.000000 0.000000 0.000000
# 2 -0.004726 0.024215 -0.008051 0.000000 0.000000 0.000000
# 3 -0.004255 -0.008051 0.017175 0.000000 0.000000 0.000000
# 4 0.000000 0.000000 0.000000 0.039360 0.000000 0.000000
# 5 0.000000 0.000000 0.000000 0.000000 0.026579 0.000000
# 6 0.000000 0.000000 0.000000 0.000000 0.000000 0.041952
#
#
# Mechanical properties :
#
#
# Convention : Reuss Voigt Hill
#
# Bulk Modulus (GPa) = 60.96035 75.43390 68.19713
# Shear Modulus (GPa) = 25.26643 28.36920 26.81782
#
# Velocity S-wave (km/s) = 3.74184 3.96494 3.85501
# Velocity P-wave (km/s) = 7.24221 7.92229 7.58987
#
# Compressibility (1/GPa) = 0.01640410
#
# Stress axis : x y z
#
# Youngs Moduli (GPa) = 110.16348 41.29643 58.22268
#
# Poissons Ratio (x) = 0.19516 0.24772
# Poissons Ratio (y) = 0.52063 0.46877
# Poissons Ratio (z) = 0.46872 0.33249
#
# Static dielectric constant tensor:
#      x y z
#    x 3.947160 0.000000 0.000000 
#    y 0.000000 2.976390 0.000000 
#    z 0.000000 0.000000 3.411120 
# 
# 
# High freq. dielectric constant tensor:
#      x y z
#    x 1.716470 0.000000 0.000000 
#    y 0.000000 1.658050 0.000000 
#    z 0.000000 0.000000 1.711550 
# 
# From -- ./inp_files/5997.got.cif
#   From: 2010.03.12/outbox.cif.g09.slc.cpg/sg72_3_cif.got.tgz:5997.got - 2010.04.16 14:54:00.
