data_PCOD8293445
_publ_section_title
;
Structure prediction by ZEFSAII (Michael W. Deem and Ramdas Pophale) SiO2 
 PCOD8293445
Probable space group: I B A M
;
_chemical_formula_sum "Si O2"
_cell_formula_units_Z 80
_cell_length_a 33.578289
_cell_length_b 12.905803
_cell_length_c 9.843354
_cell_angle_alpha 90.000000
_cell_angle_beta 90.000000
_cell_angle_gamma 90.000000
_cell_volume 4265.664536
_symmetry_space_group_name_H-M "I B A M"
_symmetry_group_IT_number 72
_symmetry_cell_setting 'orthorhombic'
loop_
_space_group_symop_operation_xyz
x,y,z
-x,-y,z
x,-y,1/2-z
-x,y,1/2-z
-x,-y,-z
x,y,-z
-x,y,1/2+z
x,-y,1/2+z
1/2+x,1/2+y,1/2+z
1/2-x,1/2-y,1/2+z
1/2+x,1/2-y,-z
1/2-x,1/2+y,-z
1/2-x,1/2-y,1/2-z
1/2+x,1/2+y,1/2-z
1/2-x,1/2+y,z
1/2+x,1/2-y,z
loop_
_atom_site_type_symbol
_atom_site_label
_atom_site_fract_x
_atom_site_fract_y
_atom_site_fract_z
Si Si1 0.465644 0.803499 0.842625
Si Si2 0.541103 0.566224 0.356310
Si Si3 0.193696 0.731000 0.346705
Si Si4 0.382081 0.903847 0.844361
Si Si5 0.270804 0.398946 0.158683
O O1 0.500000 0.855191 0.750000
O O2 0.464599 0.682286 0.804575
O O3 0.424475 0.856810 0.802507
O O4 0.476455 0.820029 0.000000
O O5 0.500000 0.500000 0.370455
O O6 0.567953 0.500000 0.250000
O O7 0.563665 0.569475 0.500000
O O8 0.197017 0.778741 0.500000
O O9 0.150045 0.685763 0.321693
O O10 0.225336 0.638292 0.332582
O O11 0.200446 0.814663 0.228705
O O12 0.371472 0.000000 0.750000
O O13 0.382051 0.941952 0.000000
O O14 0.275234 0.500000 0.250000
O O15 0.283086 0.416805 0.000000
#
# Coordination Sequence:
#
# PCOD8293445 Si02
#       5
#    16  16  16  16  16
#     4  10  20  34  53  77 104 136 176 224 272 318
#     4   9  15  26  47  72  95 121 157 203 252 306
#     4   9  19  36  56  80 111 147 185 226 272 325
#     4  10  22  39  57  77 106 142 180 226 278 329
#     4  10  19  32  56  86 114 146 183 224 271 324
#
# _framework density 18.754404999999998
#
# number of rings (size 3 to 8) (size 9 to 14) (size 15 to 20)
#    0.000    2.400    2.000    1.200    0.000    2.800 
#    0.000    3.000    0.000    2.400    0.000    0.000 
#    0.000    0.000    0.000    0.000    0.000    0.000 
#
# Total GULP energy -495616.896105 kJ/mol
# GULP energy per Si atom -12390.422403 kJ/mol
# Density = 1.871172 g / cm^3
# Si number density = 18.754405 Si / 1000 Ang^3
#
#
#
# Elastic Constant Matrix: (Units=GPa)
#
#
# Indices 1 2 3 4 5 6 
#
# 1 92.9914 26.0341 49.9938 0.0000 0.0000 0.0000
# 2 26.0341 74.1339 57.3190 0.0000 0.0000 0.0000
# 3 49.9938 57.3190 141.7937 0.0000 0.0000 0.0000
# 4 0.0000 0.0000 0.0000 47.7058 0.0000 0.0000
# 5 0.0000 0.0000 0.0000 0.0000 23.5968 0.0000
# 6 0.0000 0.0000 0.0000 0.0000 0.0000 15.4412
#
#
#
# Elastic Compliance Matrix: (Units=1/GPa)
#
#
# Indices 1 2 3 4 5 6 
#
# 1 0.013387 -0.001530 -0.004102 0.000000 0.000000 0.000000
# 2 -0.001530 0.019797 -0.007463 0.000000 0.000000 0.000000
# 3 -0.004102 -0.007463 0.011516 0.000000 0.000000 0.000000
# 4 0.000000 0.000000 0.000000 0.020962 0.000000 0.000000
# 5 0.000000 0.000000 0.000000 0.000000 0.042379 0.000000
# 6 0.000000 0.000000 0.000000 0.000000 0.000000 0.064762
#
#
# Mechanical properties :
#
#
# Convention : Reuss Voigt Hill
#
# Bulk Modulus (GPa) = 54.02509 63.95699 58.99104
# Shear Modulus (GPa) = 24.37107 29.05357 26.71232
#
# Velocity S-wave (km/s) = 3.60875 3.94021 3.77811
# Velocity P-wave (km/s) = 6.79950 7.40788 7.11020
#
# Compressibility (1/GPa) = 0.01850992
#
# Stress axis : x y z
#
# Youngs Moduli (GPa) = 74.69889 50.51295 86.83862
#
# Poissons Ratio (x) = 0.07728 0.35617
# Poissons Ratio (y) = 0.11429 0.64810
# Poissons Ratio (z) = 0.30638 0.37699
#
# Static dielectric constant tensor:
#      x y z
#    x 3.218930 0.000000 0.000000 
#    y 0.000000 3.331340 0.000000 
#    z 0.000000 0.000000 5.863530 
# 
# 
# High freq. dielectric constant tensor:
#      x y z
#    x 1.698910 0.000000 0.000000 
#    y 0.000000 1.722990 0.000000 
#    z 0.000000 0.000000 1.748250 
# 
# From -- ./inp_files/16724.got.cif
#   From: 2010.03.12/outbox.cif.g09.slc.cpg/sg72_9_cif.got.tgz:16724.got - 2010.04.16 14:54:00.
