data_PCOD8293374
_publ_section_title
;
Structure prediction by ZEFSAII (Michael W. Deem and Ramdas Pophale) SiO2 
 PCOD8293374
Probable space group: I B A M
;
_chemical_formula_sum "Si O2"
_cell_formula_units_Z 96
_cell_length_a 20.712066
_cell_length_b 30.438478
_cell_length_c 8.670524
_cell_angle_alpha 90.000000
_cell_angle_beta 90.000000
_cell_angle_gamma 90.000000
_cell_volume 5466.277797
_symmetry_space_group_name_H-M "I B A M"
_symmetry_group_IT_number 72
_symmetry_cell_setting 'orthorhombic'
loop_
_space_group_symop_operation_xyz
x,y,z
-x,-y,z
x,-y,1/2-z
-x,y,1/2-z
-x,-y,-z
x,y,-z
-x,y,1/2+z
x,-y,1/2+z
1/2+x,1/2+y,1/2+z
1/2-x,1/2-y,1/2+z
1/2+x,1/2-y,-z
1/2-x,1/2+y,-z
1/2-x,1/2-y,1/2-z
1/2+x,1/2+y,1/2-z
1/2-x,1/2+y,z
1/2+x,1/2-y,z
loop_
_atom_site_type_symbol
_atom_site_label
_atom_site_fract_x
_atom_site_fract_y
_atom_site_fract_z
Si Si1 0.437508 0.429282 0.680874
Si Si2 0.795244 0.954950 0.819382
Si Si3 0.698151 0.216338 0.318515
Si Si4 0.906426 0.161046 0.176405
Si Si5 0.933589 0.250872 0.680596
Si Si6 0.739615 0.364709 0.676840
O O1 0.500000 0.455418 0.750000
O O2 0.444042 0.421729 0.500000
O O3 0.371484 0.454270 0.721313
O O4 0.439552 0.383411 0.770560
O O5 0.758642 0.913778 0.744932
O O6 0.766616 0.000000 0.750000
O O7 0.782764 0.953512 0.000000
O O8 0.702105 0.221448 0.500000
O O9 0.750000 0.250000 0.250000
O O10 0.626344 0.226507 0.263691
O O11 0.711619 0.166188 0.269986
O O12 0.931868 0.198870 0.288221
O O13 0.829901 0.157262 0.195038
O O14 0.925241 0.171809 0.000000
O O15 0.930217 0.260386 0.500000
O O16 0.000000 0.270583 0.750000
O O17 0.761396 0.367257 0.500000
#
# Coordination Sequence:
#
# PCOD8293374 Si02
#       6
#    16  16  16  16  16  16
#     4  10  20  32  46  65  92 127 171 217 268 320
#     4  10  21  36  53  73  98 129 168 218 273 325
#     4  12  23  37  57  82 111 145 185 226 271 324
#     4  10  19  32  50  71  99 134 177 222 268 317
#     4  12  24  37  53  75 108 145 184 228 273 321
#     4  10  20  35  56  79 104 136 177 222 269 320
#
# _framework density 17.562224000000001
#
# number of rings (size 3 to 8) (size 9 to 14) (size 15 to 20)
#    0.000    1.333    1.667    5.500    0.000    3.667 
#    0.000    1.667    0.000    0.000    0.000    0.000 
#    0.000    0.667    0.000    6.667    0.000    4.000 
#
# Total GULP energy -595296.840679 kJ/mol
# GULP energy per Si atom -12402.017514 kJ/mol
# Density = 1.752225 g / cm^3
# Si number density = 17.562224 Si / 1000 Ang^3
#
#
#
# Elastic Constant Matrix: (Units=GPa)
#
#
# Indices 1 2 3 4 5 6 
#
# 1 82.9392 43.7024 44.7292 0.0000 0.0000 -0.0023
# 2 43.7024 97.4543 52.1169 0.0000 0.0000 -0.0017
# 3 44.7292 52.1169 130.0150 0.0000 -0.0001 -0.0045
# 4 0.0000 0.0000 0.0000 27.9924 0.0000 0.0002
# 5 0.0000 0.0000 -0.0001 0.0000 27.1145 -0.0024
# 6 -0.0023 -0.0017 -0.0045 0.0002 -0.0024 2122.9152
#
#
#
# Elastic Compliance Matrix: (Units=1/GPa)
#
#
# Indices 1 2 3 4 5 6 
#
# 1 0.016985 -0.005717 -0.003552 0.000000 0.000000 0.000000
# 2 -0.005717 0.014986 -0.004040 0.000000 0.000000 0.000000
# 3 -0.003552 -0.004040 0.010533 0.000000 0.000000 0.000000
# 4 0.000000 0.000000 0.000000 0.035724 0.000000 0.000000
# 5 0.000000 0.000000 0.000000 0.000000 0.036881 0.000000
# 6 0.000000 0.000000 0.000000 0.000000 0.000000 0.000471
#
#
# Mechanical properties :
#
#
# Convention : Reuss Voigt Hill
#
# Bulk Modulus (GPa) = 62.95112 65.72283 64.33698
# Shear Modulus (GPa) = 33.90003 446.92840 240.41421
#
# Velocity S-wave (km/s) = 4.39826 15.96982 11.71281
# Velocity P-wave (km/s) = 7.85591 19.43067 14.82003
#
# Compressibility (1/GPa) = 0.01588534
#
# Stress axis : x y z
#
# Youngs Moduli (GPa) = 58.87539 66.73010 94.94213
#
# Poissons Ratio (x) = 0.38153 0.33719
# Poissons Ratio (y) = 0.33662 0.38357
# Poissons Ratio (z) = 0.20910 0.26960
#
# Static dielectric constant tensor:
#      x y z
#    x 3.281330 0.000000 0.000000 
#    y 0.000000 3.183660 0.000000 
#    z 0.000000 0.000000 3.774620 
# 
# 
# High freq. dielectric constant tensor:
#      x y z
#    x 1.650100 0.000000 0.000000 
#    y 0.000000 1.664130 0.000000 
#    z 0.000000 0.000000 1.700060 
# 
# From -- ./inp_files/5944.got.cif
#   From: 2010.03.12/outbox.cif.g09.slc.cpg/sg72_3_cif.got.tgz:5944.got - 2010.04.16 14:54:00.
