data_PCOD8293145
_publ_section_title
;
Structure prediction by ZEFSAII (Michael W. Deem and Ramdas Pophale) SiO2 
 PCOD8293145
Probable space group: I B A M
;
_chemical_formula_sum "Si O2"
_cell_formula_units_Z 84
_cell_length_a 18.716935
_cell_length_b 23.247963
_cell_length_c 10.242765
_cell_angle_alpha 90.000000
_cell_angle_beta 90.000000
_cell_angle_gamma 90.000000
_cell_volume 4456.940607
_symmetry_space_group_name_H-M "I B A M"
_symmetry_group_IT_number 72
_symmetry_cell_setting 'orthorhombic'
loop_
_space_group_symop_operation_xyz
x,y,z
-x,-y,z
x,-y,1/2-z
-x,y,1/2-z
-x,-y,-z
x,y,-z
-x,y,1/2+z
x,-y,1/2+z
1/2+x,1/2+y,1/2+z
1/2-x,1/2-y,1/2+z
1/2+x,1/2-y,-z
1/2-x,1/2+y,-z
1/2-x,1/2-y,1/2-z
1/2+x,1/2+y,1/2-z
1/2-x,1/2+y,z
1/2+x,1/2-y,z
loop_
_atom_site_type_symbol
_atom_site_label
_atom_site_fract_x
_atom_site_fract_y
_atom_site_fract_z
Si Si1 0.934839 0.698796 0.151486
Si Si2 0.070741 0.897291 0.500000
Si Si3 0.166655 0.997555 0.000000
Si Si4 0.084275 0.180889 0.235344
Si Si5 0.239196 0.500000 0.250000
Si Si6 0.500000 0.000000 0.750000
Si Si7 0.123668 0.576214 0.646218
Si Si8 0.097191 0.124522 0.500000
O O1 0.889193 0.755926 0.189315
O O2 0.884761 0.643856 0.171569
O O3 0.000000 0.691233 0.250000
O O4 0.961396 0.703179 0.000000
O O5 0.095333 0.963396 0.500000
O O6 0.103538 0.866622 0.372539
O O7 0.985195 0.894734 0.500000
O O8 0.212068 0.012404 0.126552
O O9 0.145759 0.931312 0.000000
O O10 0.117857 0.162343 0.373547
O O11 0.000000 0.186002 0.250000
O O12 0.187380 0.555281 0.260905
O O13 0.549517 0.041727 0.836255
O O14 0.149860 0.564465 0.500000
#
# Coordination Sequence:
#
# PCOD8293145 Si02
#       8
#    16   8   8  16   8   4  16   8
#     4  10  19  33  56  88 118 155 188 232 288 346
#     4  10  19  36  59  88 114 142 186 244 301 347
#     4  12  23  40  62  81 112 152 202 236 292 365
#     4   9  18  32  53  86 120 148 175 233 298 352
#     4  11  24  41  57  82 113 166 192 238 285 340
#     4  10  18  32  56  94 114 150 194 248 282 326
#     4  10  20  37  57  83 122 154 196 238 288 331
#     4  10  21  36  59  88 118 142 184 246 303 343
#
# _framework density 18.847009
#
# number of rings (size 3 to 8) (size 9 to 14) (size 15 to 20)
#    0.000    1.905    2.857    1.714    4.000    0.000 
#    1.714    3.810    0.000    6.857    0.000    0.000 
#    0.000    0.000    0.000    0.000    0.000    0.000 
#
# Total GULP energy -520723.578365 kJ/mol
# GULP energy per Si atom -12398.180437 kJ/mol
# Density = 1.880411 g / cm^3
# Si number density = 18.847009 Si / 1000 Ang^3
#
#
#
# Elastic Constant Matrix: (Units=GPa)
#
#
# Indices 1 2 3 4 5 6 
#
# 1 54.5381 32.5895 35.7115 0.0000 0.0000 0.0000
# 2 32.5895 135.0203 58.8036 0.0000 0.0000 0.0000
# 3 35.7115 58.8036 154.8326 0.0000 0.0000 0.0000
# 4 0.0000 0.0000 0.0000 24.8748 0.0000 0.0000
# 5 0.0000 0.0000 0.0000 0.0000 26.3874 0.0000
# 6 0.0000 0.0000 0.0000 0.0000 0.0000 16.7775
#
#
#
# Elastic Compliance Matrix: (Units=1/GPa)
#
#
# Indices 1 2 3 4 5 6 
#
# 1 0.023208 -0.003919 -0.003865 0.000000 0.000000 0.000000
# 2 -0.003919 0.009536 -0.002718 0.000000 0.000000 0.000000
# 3 -0.003865 -0.002718 0.008382 0.000000 0.000000 0.000000
# 4 0.000000 0.000000 0.000000 0.040201 0.000000 0.000000
# 5 0.000000 0.000000 0.000000 0.000000 0.037897 0.000000
# 6 0.000000 0.000000 0.000000 0.000000 0.000000 0.059604
#
#
# Mechanical properties :
#
#
# Convention : Reuss Voigt Hill
#
# Bulk Modulus (GPa) = 49.69205 66.51113 58.10159
# Shear Modulus (GPa) = 24.20870 28.09369 26.15120
#
# Velocity S-wave (km/s) = 3.58786 3.86504 3.72903
# Velocity P-wave (km/s) = 6.60204 7.43537 7.03106
#
# Compressibility (1/GPa) = 0.02012394
#
# Stress axis : x y z
#
# Youngs Moduli (GPa) = 43.08886 104.86874 119.30158
#
# Poissons Ratio (x) = 0.41093 0.46105
# Poissons Ratio (y) = 0.16884 0.32423
# Poissons Ratio (z) = 0.16652 0.28501
#
# Static dielectric constant tensor:
#      x y z
#    x 3.055160 0.000000 0.000000 
#    y 0.000000 3.717210 0.000000 
#    z 0.000000 0.000000 3.733610 
# 
# 
# High freq. dielectric constant tensor:
#      x y z
#    x 1.689700 0.000000 0.000000 
#    y 0.000000 1.745730 0.000000 
#    z 0.000000 0.000000 1.747670 
# 
# From -- ./inp_files/13767.got.cif
#   From: 2010.03.12/outbox.cif.g09.slc.cpg/sg72_7_cif.got.tgz:13767.got - 2010.04.16 14:54:00.
