data_PCOD8293623
_publ_section_title
;
Structure prediction by ZEFSAII (Michael W. Deem and Ramdas Pophale) SiO2 
 PCOD8293623
Probable space group: I B A M
;
_chemical_formula_sum "Si O2"
_cell_formula_units_Z 96
_cell_length_a 28.381881
_cell_length_b 19.817495
_cell_length_c 8.693046
_cell_angle_alpha 90.000000
_cell_angle_beta 90.000000
_cell_angle_gamma 90.000000
_cell_volume 4889.471396
_symmetry_space_group_name_H-M "I B A M"
_symmetry_group_IT_number 72
_symmetry_cell_setting 'orthorhombic'
loop_
_space_group_symop_operation_xyz
x,y,z
-x,-y,z
x,-y,1/2-z
-x,y,1/2-z
-x,-y,-z
x,y,-z
-x,y,1/2+z
x,-y,1/2+z
1/2+x,1/2+y,1/2+z
1/2-x,1/2-y,1/2+z
1/2+x,1/2-y,-z
1/2-x,1/2+y,-z
1/2-x,1/2-y,1/2-z
1/2+x,1/2+y,1/2-z
1/2-x,1/2+y,z
1/2+x,1/2-y,z
loop_
_atom_site_type_symbol
_atom_site_label
_atom_site_fract_x
_atom_site_fract_y
_atom_site_fract_z
Si Si1 0.773584 0.851552 0.829995
Si Si2 0.134000 0.073792 0.182676
Si Si3 0.406137 0.802223 0.679522
Si Si4 0.049788 0.171250 0.817043
Si Si5 0.810225 0.702050 0.169152
Si Si6 0.949230 0.569805 0.818200
O O1 0.817026 0.893661 0.756178
O O2 0.785688 0.773595 0.846239
O O3 0.726822 0.855617 0.724525
O O4 0.762157 0.880592 0.000000
O O5 0.090148 0.119367 0.238215
O O6 0.127189 0.000000 0.250000
O O7 0.134848 0.070979 0.000000
O O8 0.417209 0.808629 0.500000
O O9 0.439273 0.744733 0.749826
O O10 0.351451 0.787118 0.707672
O O11 0.414334 0.871798 0.767523
O O12 0.000000 0.145617 0.750000
O O13 0.047313 0.175941 0.000000
O O14 0.829343 0.680550 0.000000
O O15 0.929453 0.500000 0.750000
O O16 0.000000 0.586844 0.750000
O O17 0.952772 0.564147 0.000000
#
# Coordination Sequence:
#
# PCOD8293623 Si02
#       6
#    16  16  16  16  16  16
#     4   9  18  36  57  83 115 149 188 236 290 349
#     4  10  22  40  61  84 119 158 200 249 302 361
#     4  12  23  37  59  89 120 157 198 243 295 353
#     4  11  23  41  60  86 119 155 200 256 306 357
#     4  10  19  34  58  87 117 147 187 239 290 345
#     4  11  22  39  60  84 116 154 195 238 287 348
#
# _framework density 19.634024
#
# number of rings (size 3 to 8) (size 9 to 14) (size 15 to 20)
#    0.000    1.500    1.667    5.000    0.000    3.000 
#    0.000    2.500    0.000    2.000    0.000    0.000 
#    0.000    0.000    0.000    0.000    0.000    0.000 
#
# Total GULP energy -595218.187802 kJ/mol
# GULP energy per Si atom -12400.378913 kJ/mol
# Density = 1.958934 g / cm^3
# Si number density = 19.634024 Si / 1000 Ang^3
#
#
#
# Elastic Constant Matrix: (Units=GPa)
#
#
# Indices 1 2 3 4 5 6 
#
# 1 79.8156 24.1821 26.7875 0.0000 0.0000 0.0000
# 2 24.1821 82.7231 31.8907 0.0000 0.0000 0.0000
# 3 26.7875 31.8907 111.8059 0.0000 0.0000 0.0000
# 4 0.0000 0.0000 0.0000 29.6395 0.0000 0.0000
# 5 0.0000 0.0000 0.0000 0.0000 33.8920 0.0000
# 6 0.0000 0.0000 0.0000 0.0000 0.0000 21.0204
#
#
#
# Elastic Compliance Matrix: (Units=1/GPa)
#
#
# Indices 1 2 3 4 5 6 
#
# 1 0.014351 -0.003224 -0.002519 0.000000 0.000000 0.000000
# 2 -0.003224 0.014306 -0.003308 0.000000 0.000000 0.000000
# 3 -0.002519 -0.003308 0.010491 0.000000 0.000000 0.000000
# 4 0.000000 0.000000 0.000000 0.033739 0.000000 0.000000
# 5 0.000000 0.000000 0.000000 0.000000 0.029505 0.000000
# 6 0.000000 0.000000 0.000000 0.000000 0.000000 0.047573
#
#
# Mechanical properties :
#
#
# Convention : Reuss Voigt Hill
#
# Bulk Modulus (GPa) = 47.51404 48.89614 48.20509
# Shear Modulus (GPa) = 28.55785 29.67600 29.11692
#
# Velocity S-wave (km/s) = 3.81794 3.89197 3.85513
# Velocity P-wave (km/s) = 6.60968 6.71970 6.66492
#
# Compressibility (1/GPa) = 0.02104641
#
# Stress axis : x y z
#
# Youngs Moduli (GPa) = 69.68127 69.89888 95.31868
#
# Poissons Ratio (x) = 0.22537 0.24008
# Poissons Ratio (y) = 0.22467 0.31533
# Poissons Ratio (z) = 0.17551 0.23124
#
# Static dielectric constant tensor:
#      x y z
#    x 3.682220 0.000000 0.000000 
#    y 0.000000 3.563460 0.000000 
#    z 0.000000 0.000000 3.800040 
# 
# 
# High freq. dielectric constant tensor:
#      x y z
#    x 1.768720 0.000000 0.000000 
#    y 0.000000 1.748250 0.000000 
#    z 0.000000 0.000000 1.772820 
# 
# From -- ./inp_files/5935.got.cif
#   From: 2010.03.12/outbox.cif.g09.slc.cpg/sg72_3_cif.got.tgz:5935.got - 2010.04.16 14:54:00.
