data_PCOD8293766
_publ_section_title
;
Structure prediction by ZEFSAII (Michael W. Deem and Ramdas Pophale) SiO2 
 PCOD8293766
Probable space group: I B A M
;
_chemical_formula_sum "Si O2"
_cell_formula_units_Z 104
_cell_length_a 13.972441
_cell_length_b 17.423214
_cell_length_c 20.767422
_cell_angle_alpha 90.000000
_cell_angle_beta 90.000000
_cell_angle_gamma 90.000000
_cell_volume 5055.721511
_symmetry_space_group_name_H-M "I B A M"
_symmetry_group_IT_number 72
_symmetry_cell_setting 'orthorhombic'
loop_
_space_group_symop_operation_xyz
x,y,z
-x,-y,z
x,-y,1/2-z
-x,y,1/2-z
-x,-y,-z
x,y,-z
-x,y,1/2+z
x,-y,1/2+z
1/2+x,1/2+y,1/2+z
1/2-x,1/2-y,1/2+z
1/2+x,1/2-y,-z
1/2-x,1/2+y,-z
1/2-x,1/2-y,1/2-z
1/2+x,1/2+y,1/2-z
1/2-x,1/2+y,z
1/2+x,1/2-y,z
loop_
_atom_site_type_symbol
_atom_site_label
_atom_site_fract_x
_atom_site_fract_y
_atom_site_fract_z
Si Si1 0.706559 0.925464 0.790853
Si Si2 0.033818 0.579976 0.115841
Si Si3 0.486953 0.585042 0.571877
Si Si4 0.910305 0.679891 0.794797
Si Si5 0.665664 0.657301 0.000000
Si Si6 0.839328 0.748506 0.000000
Si Si7 0.852725 0.826615 0.868775
Si Si8 0.054777 0.312699 0.500000
O O1 0.612873 0.945145 0.832224
O O2 0.677613 0.858562 0.742138
O O3 0.789373 0.894526 0.838132
O O4 0.740692 0.000000 0.750000
O O5 0.000000 0.500000 0.084020
O O6 0.944888 0.623566 0.148695
O O7 0.076106 0.635747 0.062087
O O8 0.500000 0.500000 0.599865
O O9 0.535124 0.589444 0.500000
O O10 0.375429 0.612196 0.563580
O O11 0.540337 0.641567 0.620027
O O12 0.862795 0.756792 0.820568
O O13 0.000000 0.701187 0.750000
O O14 0.629163 0.744393 0.000000
O O15 0.779984 0.666977 0.000000
O O16 0.810321 0.797582 0.063029
O O17 0.949466 0.724064 0.000000
#
# Coordination Sequence:
#
# PCOD8293766 Si02
#       8
#    16  16  16  16   8   8  16   8
#     4  11  24  42  63  95 128 180 227 271 332 401
#     4  11  21  40  66  88 134 170 211 277 346 408
#     4   9  19  42  63  85 125 170 205 251 336 401
#     4  10  22  41  67  88 124 182 218 262 332 399
#     4  10  19  38  62  88 136 168 205 251 333 413
#     4  12  22  37  69 106 129 167 219 283 344 397
#     4  12  22  43  66  94 136 161 222 288 318 402
#     4  12  21  39  62 104 133 163 225 278 347 408
#
# _framework density 20.570754000000001
#
# number of rings (size 3 to 8) (size 9 to 14) (size 15 to 20)
#    0.462    0.769    5.385    1.615    0.000    1.231 
#    8.308    0.000    0.000    0.000    0.000    0.000 
#    0.000    0.000    0.000    0.000    0.000    0.000 
#
# Total GULP energy -644597.787500 kJ/mol
# GULP energy per Si atom -12396.111298 kJ/mol
# Density = 2.052393 g / cm^3
# Si number density = 20.570754 Si / 1000 Ang^3
#
#
#
# Elastic Constant Matrix: (Units=GPa)
#
#
# Indices 1 2 3 4 5 6 
#
# 1 43.3239 8.2742 5.3253 0.0000 0.0000 0.0000
# 2 8.2742 113.5766 35.5893 0.0000 0.0000 0.0000
# 3 5.3253 35.5893 82.3154 0.0000 0.0000 0.0000
# 4 0.0000 0.0000 0.0000 25.7225 0.0000 0.0000
# 5 0.0000 0.0000 0.0000 0.0000 16.5630 0.0000
# 6 0.0000 0.0000 0.0000 0.0000 0.0000 24.1842
#
#
#
# Elastic Compliance Matrix: (Units=1/GPa)
#
#
# Indices 1 2 3 4 5 6 
#
# 1 0.023465 -0.001427 -0.000901 0.000000 0.000000 0.000000
# 2 -0.001427 0.010271 -0.004348 0.000000 0.000000 0.000000
# 3 -0.000901 -0.004348 0.014087 0.000000 0.000000 0.000000
# 4 0.000000 0.000000 0.000000 0.038876 0.000000 0.000000
# 5 0.000000 0.000000 0.000000 0.000000 0.060376 0.000000
# 6 0.000000 0.000000 0.000000 0.000000 0.000000 0.041349
#
#
# Mechanical properties :
#
#
# Convention : Reuss Voigt Hill
#
# Bulk Modulus (GPa) = 29.01077 37.51040 33.26058
# Shear Modulus (GPa) = 23.44470 25.96241 24.70355
#
# Velocity S-wave (km/s) = 3.37962 3.55646 3.46917
# Velocity P-wave (km/s) = 5.41873 5.92781 5.67898
#
# Compressibility (1/GPa) = 0.03446996
#
# Stress axis : x y z
#
# Youngs Moduli (GPa) = 42.61622 97.35965 70.98863
#
# Poissons Ratio (x) = 0.13895 0.06396
# Poissons Ratio (y) = 0.06082 0.30869
# Poissons Ratio (z) = 0.03840 0.42336
#
# Static dielectric constant tensor:
#      x y z
#    x 3.473560 0.000000 0.000000 
#    y 0.000000 3.768900 0.000000 
#    z 0.000000 0.000000 3.713600 
# 
# 
# High freq. dielectric constant tensor:
#      x y z
#    x 1.784140 0.000000 0.000000 
#    y 0.000000 1.815420 0.000000 
#    z 0.000000 0.000000 1.794300 
# 
# From -- ./inp_files/38312.got.cif
#   From: 2010.03.12/outbox.cif.g09.slc.cpg/sg72_20_cif.got.tgz:38312.got - 2010.04.16 14:54:00.
