data_PCOD8293298
_publ_section_title
;
Structure prediction by ZEFSAII (Michael W. Deem and Ramdas Pophale) SiO2 
 PCOD8293298
Probable space group: I B A M
;
_chemical_formula_sum "Si O2"
_cell_formula_units_Z 116
_cell_length_a 9.480531
_cell_length_b 25.385110
_cell_length_c 27.895570
_cell_angle_alpha 90.000000
_cell_angle_beta 90.000000
_cell_angle_gamma 90.000000
_cell_volume 6713.468449
_symmetry_space_group_name_H-M "I B A M"
_symmetry_group_IT_number 72
_symmetry_cell_setting 'orthorhombic'
loop_
_space_group_symop_operation_xyz
x,y,z
-x,-y,z
x,-y,1/2-z
-x,y,1/2-z
-x,-y,-z
x,y,-z
-x,y,1/2+z
x,-y,1/2+z
1/2+x,1/2+y,1/2+z
1/2-x,1/2-y,1/2+z
1/2+x,1/2-y,-z
1/2-x,1/2+y,-z
1/2-x,1/2-y,1/2-z
1/2+x,1/2+y,1/2-z
1/2-x,1/2+y,z
1/2+x,1/2-y,z
loop_
_atom_site_type_symbol
_atom_site_label
_atom_site_fract_x
_atom_site_fract_y
_atom_site_fract_z
Si Si1 0.343925 0.188590 0.054287
Si Si2 0.981865 0.162116 0.693684
Si Si3 0.000000 0.500000 0.750000
Si Si4 0.539348 0.054592 0.160187
Si Si5 0.738076 0.855231 0.358158
Si Si6 0.832902 0.291792 0.446071
Si Si7 0.306393 0.138783 0.850300
Si Si8 0.514556 0.215074 0.194013
O O1 0.229203 0.234018 0.061315
O O2 0.500711 0.210339 0.066070
O O3 0.302519 0.142435 0.091531
O O4 0.337985 0.166139 0.000000
O O5 0.110260 0.136363 0.664853
O O6 0.970015 0.223778 0.681670
O O7 0.000000 0.151917 0.750000
O O8 0.845373 0.132088 0.673744
O O9 0.909536 0.462205 0.714193
O O10 0.663283 0.087869 0.135937
O O11 0.397426 0.088732 0.165055
O O12 0.500000 0.000000 0.131641
O O13 0.748281 0.832017 0.411473
O O14 0.652023 0.815774 0.323909
O O15 0.805938 0.311765 0.500000
O O16 0.374900 0.193349 0.831643
O O17 0.500000 0.205036 0.250000
#
# Coordination Sequence:
#
# PCOD8293298 Si02
#       8
#    16  16   4  16  16  16  16  16
#     4  10  20  34  54  81 114 148 183 221 265 322
#     4  11  23  31  47  79 113 140 178 218 268 328
#     4   8  20  36  64  74  94 136 196 234 288 348
#     4   9  21  37  59  75  97 137 186 234 281 335
#     4  11  21  34  53  76 106 145 180 229 269 324
#     4  10  20  34  54  81 114 148 183 221 265 322
#     4  11  21  34  53  76 106 145 180 229 269 324
#     4  10  19  31  47  69 106 147 177 202 255 330
#
# _framework density 17.278699
#
# number of rings (size 3 to 8) (size 9 to 14) (size 15 to 20)
#    0.414    1.379    2.759    3.310    7.724    2.207 
#    0.000    0.690    0.000    3.310    0.000    0.000 
#    0.000    2.207    0.000    0.000    0.000    0.000 
#
# Total GULP energy -718984.303489 kJ/mol
# GULP energy per Si atom -12396.281095 kJ/mol
# Density = 1.723937 g / cm^3
# Si number density = 17.278699 Si / 1000 Ang^3
#
#
#
# Elastic Constant Matrix: (Units=GPa)
#
#
# Indices 1 2 3 4 5 6 
#
# 1 117.2168 29.4252 32.8273 0.0000 0.0000 0.0000
# 2 29.4252 80.7160 30.7379 0.0000 0.0000 0.0000
# 3 32.8273 30.7379 98.7058 0.0000 0.0000 0.0000
# 4 0.0000 0.0000 0.0000 17.5896 0.0000 0.0000
# 5 0.0000 0.0000 0.0000 0.0000 26.5224 0.0000
# 6 0.0000 0.0000 0.0000 0.0000 0.0000 7.7826
#
#
#
# Elastic Compliance Matrix: (Units=1/GPa)
#
#
# Indices 1 2 3 4 5 6 
#
# 1 0.009890 -0.002669 -0.002458 0.000000 0.000000 0.000000
# 2 -0.002669 0.014776 -0.003714 0.000000 0.000000 0.000000
# 3 -0.002458 -0.003714 0.012105 0.000000 0.000000 0.000000
# 4 0.000000 0.000000 0.000000 0.056852 0.000000 0.000000
# 5 0.000000 0.000000 0.000000 0.000000 0.037704 0.000000
# 6 0.000000 0.000000 0.000000 0.000000 0.000000 0.128491
#
#
# Mechanical properties :
#
#
# Convention : Reuss Voigt Hill
#
# Bulk Modulus (GPa) = 52.38531 53.62439 53.00485
# Shear Modulus (GPa) = 17.61412 23.95548 20.78480
#
# Velocity S-wave (km/s) = 3.19629 3.72750 3.47207
# Velocity P-wave (km/s) = 6.63365 7.04472 6.84227
#
# Compressibility (1/GPa) = 0.01908932
#
# Stress axis : x y z
#
# Youngs Moduli (GPa) = 101.11627 67.67513 82.61023
#
# Poissons Ratio (x) = 0.18065 0.20304
# Poissons Ratio (y) = 0.26991 0.30680
# Poissons Ratio (z) = 0.24853 0.25133
#
# Static dielectric constant tensor:
#      x y z
#    x 3.218540 0.000000 0.000000 
#    y 0.000000 2.984520 0.000000 
#    z 0.000000 0.000000 3.399990 
# 
# 
# High freq. dielectric constant tensor:
#      x y z
#    x 1.663660 0.000000 0.000000 
#    y 0.000000 1.631700 0.000000 
#    z 0.000000 0.000000 1.674700 
# 
# From -- ./inp_files/51007.got.cif
#   From: 2010.03.12/outbox.cif.g09.slc.cpg/sg72_26_cif.got.tgz:51007.got - 2010.04.16 14:54:00.
