data_PCOD8293033
_publ_section_title
;
Structure prediction by ZEFSAII (Michael W. Deem and Ramdas Pophale) SiO2 
 PCOD8293033
Probable space group: I B A M
;
_chemical_formula_sum "Si O2"
_cell_formula_units_Z 116
_cell_length_a 27.180669
_cell_length_b 26.366254
_cell_length_c 8.789168
_cell_angle_alpha 90.000000
_cell_angle_beta 90.000000
_cell_angle_gamma 90.000000
_cell_volume 6298.778541
_symmetry_space_group_name_H-M "I B A M"
_symmetry_group_IT_number 72
_symmetry_cell_setting 'orthorhombic'
loop_
_space_group_symop_operation_xyz
x,y,z
-x,-y,z
x,-y,1/2-z
-x,y,1/2-z
-x,-y,-z
x,y,-z
-x,y,1/2+z
x,-y,1/2+z
1/2+x,1/2+y,1/2+z
1/2-x,1/2-y,1/2+z
1/2+x,1/2-y,-z
1/2-x,1/2+y,-z
1/2-x,1/2-y,1/2-z
1/2+x,1/2+y,1/2-z
1/2-x,1/2+y,z
1/2+x,1/2-y,z
loop_
_atom_site_type_symbol
_atom_site_label
_atom_site_fract_x
_atom_site_fract_y
_atom_site_fract_z
Si Si1 0.325409 0.792418 0.327326
Si Si2 0.500000 0.000000 0.250000
Si Si3 0.450895 0.710946 0.681714
Si Si4 0.249928 0.641126 0.680237
Si Si5 0.677058 0.052018 0.179604
Si Si6 0.075817 0.683822 0.679068
Si Si7 0.925091 0.582803 0.669701
Si Si8 0.849363 0.823019 0.328909
O O1 0.334999 0.810474 0.500000
O O2 0.273159 0.811140 0.266958
O O3 0.366302 0.817715 0.218160
O O4 0.325425 0.732234 0.318249
O O5 0.535583 0.962935 0.154556
O O6 0.500000 0.685266 0.750000
O O7 0.451421 0.710659 0.500000
O O8 0.449276 0.769191 0.735421
O O9 0.403663 0.679517 0.749126
O O10 0.248960 0.651436 0.500000
O O11 0.219846 0.591285 0.725372
O O12 0.307648 0.638482 0.737055
O O13 0.624282 0.065138 0.247552
O O14 0.696397 0.000000 0.250000
O O15 0.670515 0.047730 0.000000
O O16 0.067171 0.689175 0.500000
O O17 0.052457 0.630899 0.738352
O O18 0.911599 0.600293 0.500000
O O19 0.860131 0.839593 0.500000
#
# Coordination Sequence:
#
# PCOD8293033 Si02
#       8
#    16   4  16  16  16  16  16  16
#     4  10  18  30  50  76 105 136 169 209 259 310
#     4  12  30  44  60  74  94 128 178 228 288 324
#     4  10  20  36  55  77 106 140 176 212 255 302
#     4  10  19  33  53  76 103 136 172 211 259 317
#     4  11  23  38  58  79 103 135 174 216 271 327
#     4  11  22  36  54  75 101 134 175 215 262 317
#     4  12  25  42  60  75  98 126 171 229 282 326
#     4   8  17  32  50  75 106 137 172 211 252 307
#
# _framework density 18.416270000000001
#
# number of rings (size 3 to 8) (size 9 to 14) (size 15 to 20)
#    0.000    1.655    2.069    4.345    0.966    2.207 
#    0.000    3.448    0.000    0.000    0.000    0.000 
#    0.000    0.552    0.000    6.897    0.000    0.000 
#
# Total GULP energy -718744.021253 kJ/mol
# GULP energy per Si atom -12392.138297 kJ/mol
# Density = 1.837435 g / cm^3
# Si number density = 18.416270 Si / 1000 Ang^3
#
#
#
# Elastic Constant Matrix: (Units=GPa)
#
#
# Indices 1 2 3 4 5 6 
#
# 1 157.3987 45.0611 34.1132 0.0000 0.0000 0.0000
# 2 45.0611 40.4743 16.6117 0.0000 0.0000 0.0000
# 3 34.1132 16.6117 81.0259 0.0000 0.0000 0.0000
# 4 0.0000 0.0000 0.0000 13.8962 0.0000 0.0000
# 5 0.0000 0.0000 0.0000 0.0000 16.0186 0.0000
# 6 0.0000 0.0000 0.0000 0.0000 0.0000 30.1093
#
#
#
# Elastic Compliance Matrix: (Units=1/GPa)
#
#
# Indices 1 2 3 4 5 6 
#
# 1 0.009621 -0.009880 -0.002025 0.000000 0.000000 0.000000
# 2 -0.009880 0.037123 -0.003451 0.000000 0.000000 0.000000
# 3 -0.002025 -0.003451 0.013902 0.000000 0.000000 0.000000
# 4 0.000000 0.000000 0.000000 0.071962 0.000000 0.000000
# 5 0.000000 0.000000 0.000000 0.000000 0.062427 0.000000
# 6 0.000000 0.000000 0.000000 0.000000 0.000000 0.033212
#
#
# Mechanical properties :
#
#
# Convention : Reuss Voigt Hill
#
# Bulk Modulus (GPa) = 33.40748 52.27452 42.84100
# Shear Modulus (GPa) = 18.59173 24.21236 21.40204
#
# Velocity S-wave (km/s) = 3.18075 3.62985 3.41270
# Velocity P-wave (km/s) = 5.62754 6.78339 6.23231
#
# Compressibility (1/GPa) = 0.02993341
#
# Stress axis : x y z
#
# Youngs Moduli (GPa) = 103.94364 26.93753 71.93304
#
# Poissons Ratio (x) = 0.26614 0.14566
# Poissons Ratio (y) = 1.02694 0.24826
# Poissons Ratio (z) = 0.21048 0.09297
#
# Static dielectric constant tensor:
#      x y z
#    x 3.740510 0.000000 0.000000 
#    y 0.000000 3.236620 0.000000 
#    z 0.000000 0.000000 3.325590 
# 
# 
# High freq. dielectric constant tensor:
#      x y z
#    x 1.722230 0.000000 0.000000 
#    y 0.000000 1.671090 0.000000 
#    z 0.000000 0.000000 1.709250 
# 
# From -- ./inp_files/8592.got.cif
#   From: 2010.03.12/outbox.cif.g09.slc.cpg/sg72_5_cif.got.tgz:8592.got - 2010.04.16 14:54:00.
