data_PCOD8293046
_publ_section_title
;
Structure prediction by ZEFSAII (Michael W. Deem and Ramdas Pophale) SiO2 
 PCOD8293046
Probable space group: I B A M
;
_chemical_formula_sum "Si O2"
_cell_formula_units_Z 56
_cell_length_a 30.231328
_cell_length_b 8.890404
_cell_length_c 10.539495
_cell_angle_alpha 90.000000
_cell_angle_beta 90.000000
_cell_angle_gamma 90.000000
_cell_volume 2832.686574
_symmetry_space_group_name_H-M "I B A M"
_symmetry_group_IT_number 72
_symmetry_cell_setting 'orthorhombic'
loop_
_space_group_symop_operation_xyz
x,y,z
-x,-y,z
x,-y,1/2-z
-x,y,1/2-z
-x,-y,-z
x,y,-z
-x,y,1/2+z
x,-y,1/2+z
1/2+x,1/2+y,1/2+z
1/2-x,1/2-y,1/2+z
1/2+x,1/2-y,-z
1/2-x,1/2+y,-z
1/2-x,1/2-y,1/2-z
1/2+x,1/2+y,1/2-z
1/2-x,1/2+y,z
1/2+x,1/2-y,z
loop_
_atom_site_type_symbol
_atom_site_label
_atom_site_fract_x
_atom_site_fract_y
_atom_site_fract_z
Si Si1 0.690358 0.253913 0.857569
Si Si2 0.448147 0.679656 0.500000
Si Si3 0.247770 0.500000 0.750000
Si Si4 0.599432 0.679019 0.747081
Si Si5 0.451957 0.678590 0.000000
O O1 0.722194 0.396033 0.838416
O O2 0.717186 0.100428 0.840523
O O3 0.649324 0.258624 0.760361
O O4 0.671555 0.262890 0.000000
O O5 0.422697 0.740897 0.624144
O O6 0.450204 0.500667 0.500000
O O7 0.498110 0.741453 0.500000
O O8 0.600759 0.500000 0.750000
O O9 0.571647 0.739280 0.626888
#
# Coordination Sequence:
#
# PCOD8293046 Si02
#       5
#    16   8   8  16   8
#     4  11  21  40  58  84 114 151 191 238 286 341
#     4   9  18  28  46  80 114 147 184 227 279 337
#     4  10  24  38  58  84 110 150 194 240 286 336
#     4  10  18  30  52  80 114 149 183 230 281 337
#     4   9  16  30  48  74 114 151 184 227 281 331
#
# _framework density 19.769219
#
# number of rings (size 3 to 8) (size 9 to 14) (size 15 to 20)
#    0.000    2.000    2.857    1.714    0.000    3.429 
#   12.857    0.000    0.000    0.000    0.000    6.000 
#    0.000    0.000    0.000    0.000    0.000    0.000 
#
# Total GULP energy -347244.897478 kJ/mol
# GULP energy per Si atom -12401.603481 kJ/mol
# Density = 1.972422 g / cm^3
# Si number density = 19.769219 Si / 1000 Ang^3
#
#
#
# Elastic Constant Matrix: (Units=GPa)
#
#
# Indices 1 2 3 4 5 6 
#
# 1 168.4040 34.1842 77.8322 0.0000 0.0000 0.0000
# 2 34.1842 57.9048 24.1131 0.0000 0.0000 0.0000
# 3 77.8322 24.1131 161.1387 0.0000 0.0000 0.0000
# 4 0.0000 0.0000 0.0000 7.4156 0.0000 0.0000
# 5 0.0000 0.0000 0.0000 0.0000 43.2241 0.0000
# 6 0.0000 0.0000 0.0000 0.0000 0.0000 5.9503
#
#
#
# Elastic Compliance Matrix: (Units=1/GPa)
#
#
# Indices 1 2 3 4 5 6 
#
# 1 0.008233 -0.003418 -0.003465 0.000000 0.000000 0.000000
# 2 -0.003418 0.019836 -0.001318 0.000000 0.000000 0.000000
# 3 -0.003465 -0.001318 0.008077 0.000000 0.000000 0.000000
# 4 0.000000 0.000000 0.000000 0.134850 0.000000 0.000000
# 5 0.000000 0.000000 0.000000 0.000000 0.023135 0.000000
# 6 0.000000 0.000000 0.000000 0.000000 0.000000 0.168058
#
#
# Mechanical properties :
#
#
# Convention : Reuss Voigt Hill
#
# Bulk Modulus (GPa) = 50.64540 73.30072 61.97306
# Shear Modulus (GPa) = 12.98118 28.07255 20.52687
#
# Velocity S-wave (km/s) = 2.56527 3.77239 3.22580
# Velocity P-wave (km/s) = 5.86925 7.49222 6.72984
#
# Compressibility (1/GPa) = 0.01974513
#
# Stress axis : x y z
#
# Youngs Moduli (GPa) = 121.45528 50.41353 123.81035
#
# Poissons Ratio (x) = 0.17229 0.42906
# Poissons Ratio (y) = 0.41508 0.16313
# Poissons Ratio (z) = 0.42090 0.06642
#
# Static dielectric constant tensor:
#      x y z
#    x 3.729870 0.000000 0.000000 
#    y 0.000000 3.110880 0.000000 
#    z 0.000000 0.000000 3.655160 
# 
# 
# High freq. dielectric constant tensor:
#      x y z
#    x 1.787920 0.000000 0.000000 
#    y 0.000000 1.717510 0.000000 
#    z 0.000000 0.000000 1.776700 
# 
# From -- ./inp_files/10394.got.cif
#   From: 2010.03.12/outbox.cif.g09.slc.cpg/sg72_6_cif.got.tgz:10394.got - 2010.04.16 14:54:00.
