data_PCOD8293669
_publ_section_title
;
Structure prediction by ZEFSAII (Michael W. Deem and Ramdas Pophale) SiO2 
 PCOD8293669
Probable space group: I B A M
;
_chemical_formula_sum "Si O2"
_cell_formula_units_Z 96
_cell_length_a 13.653751
_cell_length_b 20.411209
_cell_length_c 18.437327
_cell_angle_alpha 90.000000
_cell_angle_beta 90.000000
_cell_angle_gamma 90.000000
_cell_volume 5138.290647
_symmetry_space_group_name_H-M "I B A M"
_symmetry_group_IT_number 72
_symmetry_cell_setting 'orthorhombic'
loop_
_space_group_symop_operation_xyz
x,y,z
-x,-y,z
x,-y,1/2-z
-x,y,1/2-z
-x,-y,-z
x,y,-z
-x,y,1/2+z
x,-y,1/2+z
1/2+x,1/2+y,1/2+z
1/2-x,1/2-y,1/2+z
1/2+x,1/2-y,-z
1/2-x,1/2+y,-z
1/2-x,1/2-y,1/2-z
1/2+x,1/2+y,1/2-z
1/2-x,1/2+y,z
1/2+x,1/2-y,z
loop_
_atom_site_type_symbol
_atom_site_label
_atom_site_fract_x
_atom_site_fract_y
_atom_site_fract_z
Si Si1 0.950418 0.064236 0.326780
Si Si2 0.240452 0.873071 0.085320
Si Si3 0.553926 0.816167 0.585869
Si Si4 0.470613 0.320120 0.914966
Si Si5 0.432920 0.061517 0.084845
Si Si6 0.759858 0.491592 0.170622
O O1 0.836885 0.050640 0.315516
O O2 0.000000 0.080808 0.250000
O O3 0.962577 0.124009 0.380913
O O4 0.000000 0.000000 0.362121
O O5 0.333272 0.828650 0.108837
O O6 0.143887 0.830690 0.103534
O O7 0.238284 0.939865 0.130786
O O8 0.246228 0.891499 0.000000
O O9 0.546294 0.815521 0.500000
O O10 0.510235 0.748568 0.617544
O O11 0.487031 0.874738 0.616543
O O12 0.488630 0.322735 0.000000
O O13 0.329065 0.053883 0.122707
O O14 0.500000 0.000000 0.103662
O O15 0.413190 0.067664 0.000000
O O16 0.808483 0.500000 0.250000
#
# Coordination Sequence:
#
# PCOD8293669 Si02
#       6
#    16  16  16  16  16  16
#     4  11  21  40  58  80 114 157 188 234 297 340
#     4  10  19  35  58  82 113 153 189 232 297 346
#     4   9  19  37  57  83 120 151 182 232 296 347
#     4  10  21  35  59  88 112 145 194 245 282 341
#     4  10  20  37  60  85 114 153 190 230 288 345
#     4  12  22  35  59  86 114 149 197 240 283 338
#
# _framework density 18.683256
#
# number of rings (size 3 to 8) (size 9 to 14) (size 15 to 20)
#    0.000    1.667    5.000    0.500    0.000    3.333 
#    0.000    5.000    0.000    4.000    0.000    0.000 
#    0.000    0.000    0.000    0.000    0.000    0.000 
#
# Total GULP energy -595212.159311 kJ/mol
# GULP energy per Si atom -12400.253319 kJ/mol
# Density = 1.864073 g / cm^3
# Si number density = 18.683256 Si / 1000 Ang^3
#
#
#
# Elastic Constant Matrix: (Units=GPa)
#
#
# Indices 1 2 3 4 5 6 
#
# 1 119.3977 55.1587 37.6420 0.0000 0.0000 0.0000
# 2 55.1587 144.5843 43.6192 0.0000 0.0000 0.0000
# 3 37.6420 43.6192 45.5859 0.0001 0.0000 0.0000
# 4 0.0000 0.0000 0.0001 9.4387 0.0000 0.0000
# 5 0.0000 0.0000 0.0000 0.0000 25.8814 0.0000
# 6 0.0000 0.0000 0.0000 0.0000 0.0000 31.1993
#
#
#
# Elastic Compliance Matrix: (Units=1/GPa)
#
#
# Indices 1 2 3 4 5 6 
#
# 1 0.011799 -0.002196 -0.007642 0.000000 0.000000 0.000000
# 2 -0.002196 0.010132 -0.007881 0.000000 0.000000 0.000000
# 3 -0.007642 -0.007881 0.035788 0.000000 0.000000 0.000000
# 4 0.000000 0.000000 0.000000 0.105946 0.000000 0.000000
# 5 0.000000 0.000000 0.000000 0.000000 0.038638 0.000000
# 6 0.000000 0.000000 0.000000 0.000000 0.000000 0.032052
#
#
# Mechanical properties :
#
#
# Convention : Reuss Voigt Hill
#
# Bulk Modulus (GPa) = 44.88180 64.71195 54.79687
# Shear Modulus (GPa) = 18.03620 24.84710 21.44165
#
# Velocity S-wave (km/s) = 3.11041 3.65075 3.39136
# Velocity P-wave (km/s) = 6.08064 7.24446 6.68791
#
# Compressibility (1/GPa) = 0.02228075
#
# Stress axis : x y z
#
# Youngs Moduli (GPa) = 84.75307 98.69866 27.94227
#
# Poissons Ratio (x) = 0.21673 0.21353
# Poissons Ratio (y) = 0.18611 0.22023
# Poissons Ratio (z) = 0.64766 0.77789
#
# Static dielectric constant tensor:
#      x y z
#    x 3.622010 0.000000 0.000000 
#    y 0.000000 3.593290 0.000000 
#    z 0.000000 0.000000 3.254680 
# 
# 
# High freq. dielectric constant tensor:
#      x y z
#    x 1.737280 0.000000 0.000000 
#    y 0.000000 1.722950 0.000000 
#    z 0.000000 0.000000 1.703640 
# 
# From -- ./inp_files/37117.got.cif
#   From: 2010.03.12/outbox.cif.g09.slc.cpg/sg72_19_cif.got.tgz:37117.got - 2010.04.16 14:54:00.
