data_PCOD8293996
_publ_section_title
;
Structure prediction by ZEFSAII (Michael W. Deem and Ramdas Pophale) SiO2 
 PCOD8293996
Probable space group: I B A M
;
_chemical_formula_sum "Si O2"
_cell_formula_units_Z 96
_cell_length_a 9.737302
_cell_length_b 27.162815
_cell_length_c 17.226228
_cell_angle_alpha 90.000000
_cell_angle_beta 90.000000
_cell_angle_gamma 90.000000
_cell_volume 4556.208675
_symmetry_space_group_name_H-M "I B A M"
_symmetry_group_IT_number 72
_symmetry_cell_setting 'orthorhombic'
loop_
_space_group_symop_operation_xyz
x,y,z
-x,-y,z
x,-y,1/2-z
-x,y,1/2-z
-x,-y,-z
x,y,-z
-x,y,1/2+z
x,-y,1/2+z
1/2+x,1/2+y,1/2+z
1/2-x,1/2-y,1/2+z
1/2+x,1/2-y,-z
1/2-x,1/2+y,-z
1/2-x,1/2-y,1/2-z
1/2+x,1/2+y,1/2-z
1/2-x,1/2+y,z
1/2+x,1/2-y,z
loop_
_atom_site_type_symbol
_atom_site_label
_atom_site_fract_x
_atom_site_fract_y
_atom_site_fract_z
Si Si1 0.976124 0.850617 0.340727
Si Si2 0.788681 0.317628 0.411048
Si Si3 0.068905 0.954370 0.336724
Si Si4 0.613628 0.968042 0.171894
Si Si5 0.049608 0.354035 0.667892
Si Si6 0.211114 0.796277 0.410061
O O1 0.814149 0.848098 0.356480
O O2 0.000000 0.843663 0.250000
O O3 0.032576 0.902275 0.374121
O O4 0.053339 0.808541 0.389633
O O5 0.750892 0.326812 0.500000
O O6 0.941067 0.337926 0.397276
O O7 0.770620 0.260596 0.389564
O O8 0.229146 0.964219 0.352638
O O9 0.000000 0.953237 0.250000
O O10 0.000000 0.000000 0.382016
O O11 0.557881 0.912673 0.177208
O O12 0.500000 0.000000 0.120512
O O13 0.619742 0.000000 0.250000
O O14 0.000000 0.331629 0.750000
O O15 0.194643 0.330345 0.644532
O O16 0.242682 0.806988 0.500000
#
# Coordination Sequence:
#
# PCOD8293996 Si02
#       6
#    16  16  16  16  16  16
#     4  11  23  38  67 100 129 164 221 282 324 382
#     4  11  26  44  65  92 135 186 219 262 339 408
#     4  10  20  34  60  93 129 163 204 263 325 389
#     4  11  21  36  62  98 133 170 210 271 336 402
#     4  12  24  39  67 104 131 167 228 286 322 385
#     4  11  24  45  65  89 133 186 223 262 334 407
#
# _framework density 21.070150000000002
#
# number of rings (size 3 to 8) (size 9 to 14) (size 15 to 20)
#    0.000    1.000    5.000    3.000    4.667    6.667 
#    0.000    0.000    0.000    6.000    0.000    0.000 
#    0.000    0.000    0.000    0.000    0.000    0.000 
#
# Total GULP energy -594704.710322 kJ/mol
# GULP energy per Si atom -12389.681465 kJ/mol
# Density = 2.102219 g / cm^3
# Si number density = 21.070150 Si / 1000 Ang^3
#
#
#
# Elastic Constant Matrix: (Units=GPa)
#
#
# Indices 1 2 3 4 5 6 
#
# 1 117.3381 40.8426 10.2772 0.0001 0.0000 0.0000
# 2 40.8426 130.5226 41.2304 0.0001 0.0000 0.0000
# 3 10.2772 41.2304 51.3688 -0.0023 0.0004 0.0006
# 4 0.0001 0.0001 -0.0023 5.7449 0.0002 0.0004
# 5 0.0000 0.0000 0.0004 0.0002 29.3267 -0.0001
# 6 0.0000 0.0000 0.0006 0.0004 -0.0001 42.1740
#
#
#
# Elastic Compliance Matrix: (Units=1/GPa)
#
#
# Indices 1 2 3 4 5 6 
#
# 1 0.009581 -0.003205 0.000656 0.000000 0.000000 0.000000
# 2 -0.003205 0.011336 -0.008457 -0.000003 0.000000 0.000000
# 3 0.000656 -0.008457 0.026124 0.000011 0.000000 0.000000
# 4 0.000000 -0.000003 0.000011 0.174067 -0.000001 -0.000002
# 5 0.000000 0.000000 0.000000 -0.000001 0.034099 0.000000
# 6 0.000000 0.000000 0.000000 -0.000002 0.000000 0.023711
#
#
# Mechanical properties :
#
#
# Convention : Reuss Voigt Hill
#
# Bulk Modulus (GPa) = 39.95659 53.76999 46.86329
# Shear Modulus (GPa) = 16.16692 29.24108 22.70400
#
# Velocity S-wave (km/s) = 2.77301 3.72936 3.28616
# Velocity P-wave (km/s) = 5.40902 6.64222 6.05708
#
# Compressibility (1/GPa) = 0.02502716
#
# Stress axis : x y z
#
# Youngs Moduli (GPa) = 104.37820 88.21429 38.27872
#
# Poissons Ratio (x) = 0.28273 -0.02510
# Poissons Ratio (y) = 0.33454 0.32374
# Poissons Ratio (z) = -0.06844 0.74607
#
# Static dielectric constant tensor:
#      x y z
#    x 3.447120 0.000000 0.000000 
#    y 0.000000 4.270910 0.000000 
#    z 0.000000 0.000000 3.365290 
# 
# 
# High freq. dielectric constant tensor:
#      x y z
#    x 1.851320 0.000000 0.000000 
#    y 0.000000 1.845560 0.000000 
#    z 0.000000 0.000000 1.780060 
# 
# From -- ./inp_files/35993.got.cif
#   From: 2010.03.12/outbox.cif.g09.slc.cpg/sg72_18_cif.got.tgz:35993.got - 2010.04.16 14:54:00.
