data_PCOD8293856
_publ_section_title
;
Structure prediction by ZEFSAII (Michael W. Deem and Ramdas Pophale) SiO2 
 PCOD8293856
Probable space group: I B A M
;
_chemical_formula_sum "Si O2"
_cell_formula_units_Z 96
_cell_length_a 10.227508
_cell_length_b 18.671578
_cell_length_c 26.687700
_cell_angle_alpha 90.000000
_cell_angle_beta 90.000000
_cell_angle_gamma 90.000000
_cell_volume 5096.382293
_symmetry_space_group_name_H-M "I B A M"
_symmetry_group_IT_number 72
_symmetry_cell_setting 'orthorhombic'
loop_
_space_group_symop_operation_xyz
x,y,z
-x,-y,z
x,-y,1/2-z
-x,y,1/2-z
-x,-y,-z
x,y,-z
-x,y,1/2+z
x,-y,1/2+z
1/2+x,1/2+y,1/2+z
1/2-x,1/2-y,1/2+z
1/2+x,1/2-y,-z
1/2-x,1/2+y,-z
1/2-x,1/2-y,1/2-z
1/2+x,1/2+y,1/2-z
1/2-x,1/2+y,z
1/2+x,1/2-y,z
loop_
_atom_site_type_symbol
_atom_site_label
_atom_site_fract_x
_atom_site_fract_y
_atom_site_fract_z
Si Si1 0.261571 0.805164 0.858932
Si Si2 0.102402 0.097771 0.127262
Si Si3 0.050746 0.618106 0.000000
Si Si4 0.179968 0.050597 0.393852
Si Si5 0.742427 0.200364 0.444311
Si Si6 0.304592 0.032823 0.500000
Si Si7 0.487549 0.718734 0.808578
O O1 0.269501 0.891540 0.864418
O O2 0.240577 0.775140 0.915147
O O3 0.395934 0.780594 0.832493
O O4 0.135322 0.777168 0.828681
O O5 0.171640 0.145579 0.086418
O O6 0.080602 0.142078 0.178816
O O7 0.964808 0.080739 0.102413
O O8 0.182851 0.024366 0.137490
O O9 0.097409 0.664289 0.951091
O O10 0.120106 0.541421 0.000000
O O11 0.897398 0.603333 0.000000
O O12 0.218839 0.035921 0.450571
O O13 0.803511 0.212775 0.500000
O O14 0.500000 0.730168 0.750000
#
# Coordination Sequence:
#
# PCOD8293856 Si02
#       7
#    16  16   8  16  16   8  16
#     4  10  22  35  57  88 113 143 191 239 288 343
#     4   9  19  36  55  79 109 143 190 233 286 331
#     4   9  20  32  46  73 108 160 197 210 266 333
#     4  10  20  33  51  83 113 144 189 234 272 341
#     4   9  18  34  51  73 114 152 180 222 276 331
#     4  11  20  29  51  76 113 159 191 218 272 337
#     4  10  21  41  63  82 107 149 190 242 296 345
#
# _framework density 18.836891000000001
#
# number of rings (size 3 to 8) (size 9 to 14) (size 15 to 20)
#    0.500    1.833    1.667    0.500    4.667    0.667 
#    0.000    7.500    0.000    0.000    0.000    4.667 
#    0.000    0.000    0.000    0.000    0.000    0.000 
#
# Total GULP energy -594738.410295 kJ/mol
# GULP energy per Si atom -12390.383548 kJ/mol
# Density = 1.879402 g / cm^3
# Si number density = 18.836891 Si / 1000 Ang^3
#
#
#
# Elastic Constant Matrix: (Units=GPa)
#
#
# Indices 1 2 3 4 5 6 
#
# 1 30.3943 11.5814 6.4955 0.0000 0.0000 0.0000
# 2 11.5814 88.8865 24.8390 0.0000 0.0000 0.0000
# 3 6.4955 24.8390 57.8052 0.0000 0.0000 0.0000
# 4 0.0000 0.0000 0.0000 9.9825 0.0000 0.0000
# 5 0.0000 0.0000 0.0000 0.0000 18.8426 0.0000
# 6 0.0000 0.0000 0.0000 0.0000 0.0000 18.7263
#
#
#
# Elastic Compliance Matrix: (Units=1/GPa)
#
#
# Indices 1 2 3 4 5 6 
#
# 1 0.034872 -0.003919 -0.002234 0.000000 0.000000 0.000000
# 2 -0.003919 0.013226 -0.005243 0.000000 0.000000 0.000000
# 3 -0.002234 -0.005243 0.019803 0.000000 0.000000 0.000000
# 4 0.000000 0.000000 0.000000 0.100175 0.000000 0.000000
# 5 0.000000 0.000000 0.000000 0.000000 0.053071 0.000000
# 6 0.000000 0.000000 0.000000 0.000000 0.000000 0.053401
#
#
# Mechanical properties :
#
#
# Convention : Reuss Voigt Hill
#
# Bulk Modulus (GPa) = 22.16888 29.21311 25.69100
# Shear Modulus (GPa) = 16.00626 18.45495 17.23061
#
# Velocity S-wave (km/s) = 2.91817 3.13345 3.02773
# Velocity P-wave (km/s) = 4.81131 5.35102 5.08833
#
# Compressibility (1/GPa) = 0.04510827
#
# Stress axis : x y z
#
# Youngs Moduli (GPa) = 28.67648 75.60834 50.49626
#
# Poissons Ratio (x) = 0.29632 0.11283
# Poissons Ratio (y) = 0.11239 0.26475
# Poissons Ratio (z) = 0.06408 0.39640
#
# Static dielectric constant tensor:
#      x y z
#    x 3.493150 0.000000 0.000000 
#    y 0.000000 3.938540 0.000000 
#    z 0.000000 0.000000 3.269710 
# 
# 
# High freq. dielectric constant tensor:
#      x y z
#    x 1.725820 0.000000 0.000000 
#    y 0.000000 1.744270 0.000000 
#    z 0.000000 0.000000 1.707840 
# 
# From -- ./inp_files/43496.got.cif
#   From: 2010.03.12/outbox.cif.g09.slc.cpg/sg72_22_cif.got.tgz:43496.got - 2010.04.16 14:54:00.
