data_PCOD8293950
_publ_section_title
;
Structure prediction by ZEFSAII (Michael W. Deem and Ramdas Pophale) SiO2 
 PCOD8293950
Probable space group: I B A M
;
_chemical_formula_sum "Si O2"
_cell_formula_units_Z 116
_cell_length_a 28.855338
_cell_length_b 22.659849
_cell_length_c 8.966978
_cell_angle_alpha 90.000000
_cell_angle_beta 90.000000
_cell_angle_gamma 90.000000
_cell_volume 5863.126732
_symmetry_space_group_name_H-M "I B A M"
_symmetry_group_IT_number 72
_symmetry_cell_setting 'orthorhombic'
loop_
_space_group_symop_operation_xyz
x,y,z
-x,-y,z
x,-y,1/2-z
-x,y,1/2-z
-x,-y,-z
x,y,-z
-x,y,1/2+z
x,-y,1/2+z
1/2+x,1/2+y,1/2+z
1/2-x,1/2-y,1/2+z
1/2+x,1/2-y,-z
1/2-x,1/2+y,-z
1/2-x,1/2-y,1/2-z
1/2+x,1/2+y,1/2-z
1/2-x,1/2+y,z
1/2+x,1/2-y,z
loop_
_atom_site_type_symbol
_atom_site_label
_atom_site_fract_x
_atom_site_fract_y
_atom_site_fract_z
Si Si1 0.910945 0.555552 0.334413
Si Si2 0.270252 0.060560 0.327274
Si Si3 0.357626 0.270279 0.174737
Si Si4 0.000000 0.500000 0.750000
Si Si5 0.855630 0.647386 0.827932
Si Si6 0.584970 0.561548 0.672900
Si Si7 0.316978 0.618648 0.172852
Si Si8 0.954498 0.826733 0.325458
O O1 0.886823 0.500000 0.250000
O O2 0.890041 0.560588 0.500000
O O3 0.900332 0.615383 0.244639
O O4 0.966492 0.543257 0.345901
O O5 0.259376 0.049030 0.500000
O O6 0.311292 0.106669 0.304922
O O7 0.224796 0.085478 0.250125
O O8 0.285283 0.000000 0.250000
O O9 0.345023 0.207823 0.244553
O O10 0.324435 0.318400 0.249447
O O11 0.411357 0.284040 0.208399
O O12 0.347058 0.269597 0.000000
O O13 0.866704 0.659876 0.000000
O O14 0.574045 0.500000 0.750000
O O15 0.571494 0.558415 0.500000
O O16 0.638623 0.577328 0.695245
O O17 0.553077 0.609765 0.751789
O O18 0.305970 0.629714 0.000000
O O19 0.962368 0.834976 0.500000
O O20 0.000000 0.797781 0.250000
#
# Coordination Sequence:
#
# PCOD8293950 Si02
#       8
#    16  16  16   4  16  16  16  16
#     4  10  20  36  59  85 116 151 191 240 295 351
#     4  11  24  40  60  89 121 155 193 237 290 346
#     4  10  22  41  63  86 115 153 196 242 291 345
#     4   8  22  36  62  88 118 152 198 244 300 360
#     4  11  24  40  60  86 119 157 198 244 294 348
#     4  10  20  34  55  84 116 150 189 235 285 340
#     4  10  21  38  62  88 117 154 195 240 288 343
#     4  10  21  38  59  83 112 148 189 236 289 343
#
# _framework density 19.784665
#
# number of rings (size 3 to 8) (size 9 to 14) (size 15 to 20)
#    0.414    1.379    0.000    3.931    0.000    8.552 
#    1.241    1.379    0.000    0.000    0.000    0.000 
#    0.000    0.000    0.000    0.000    0.000    0.000 
#
# Total GULP energy -719290.987907 kJ/mol
# GULP energy per Si atom -12401.568757 kJ/mol
# Density = 1.973963 g / cm^3
# Si number density = 19.784665 Si / 1000 Ang^3
#
#
#
# Elastic Constant Matrix: (Units=GPa)
#
#
# Indices 1 2 3 4 5 6 
#
# 1 66.2594 13.5911 38.8052 0.0000 0.0000 0.0000
# 2 13.5911 106.4678 56.0433 0.0000 0.0000 0.0000
# 3 38.8052 56.0433 147.2862 0.0000 0.0000 0.0000
# 4 0.0000 0.0000 0.0000 38.5264 0.0000 0.0000
# 5 0.0000 0.0000 0.0000 0.0000 29.4703 0.0000
# 6 0.0000 0.0000 0.0000 0.0000 0.0000 24.1679
#
#
#
# Elastic Compliance Matrix: (Units=1/GPa)
#
#
# Indices 1 2 3 4 5 6 
#
# 1 0.017851 0.000246 -0.004797 0.000000 0.000000 0.000000
# 2 0.000246 0.011748 -0.004535 0.000000 0.000000 0.000000
# 3 -0.004797 -0.004535 0.009779 0.000000 0.000000 0.000000
# 4 0.000000 0.000000 0.000000 0.025956 0.000000 0.000000
# 5 0.000000 0.000000 0.000000 0.000000 0.033932 0.000000
# 6 0.000000 0.000000 0.000000 0.000000 0.000000 0.041377
#
#
# Mechanical properties :
#
#
# Convention : Reuss Voigt Hill
#
# Bulk Modulus (GPa) = 47.15486 59.65473 53.40480
# Shear Modulus (GPa) = 30.14142 32.53785 31.33963
#
# Velocity S-wave (km/s) = 3.90740 4.05977 3.98431
# Velocity P-wave (km/s) = 6.65153 7.22448 6.94392
#
# Compressibility (1/GPa) = 0.02120672
#
# Stress axis : x y z
#
# Youngs Moduli (GPa) = 56.01924 85.11835 102.25995
#
# Poissons Ratio (x) = -0.02096 0.49053
# Poissons Ratio (y) = -0.01380 0.46377
# Poissons Ratio (z) = 0.26872 0.38603
#
# Static dielectric constant tensor:
#      x y z
#    x 3.553590 0.000000 0.000000 
#    y 0.000000 3.469250 0.000000 
#    z 0.000000 0.000000 3.754120 
# 
# 
# High freq. dielectric constant tensor:
#      x y z
#    x 1.768770 0.000000 0.000000 
#    y 0.000000 1.767440 0.000000 
#    z 0.000000 0.000000 1.789090 
# 
# From -- ./inp_files/8428.got.cif
#   From: 2010.03.12/outbox.cif.g09.slc.cpg/sg72_5_cif.got.tgz:8428.got - 2010.04.16 14:54:00.
