data_PCOD8293024
_publ_section_title
;
Structure prediction by ZEFSAII (Michael W. Deem and Ramdas Pophale) SiO2 
 PCOD8293024
Probable space group: I B A M
;
_chemical_formula_sum "Si O2"
_cell_formula_units_Z 96
_cell_length_a 20.477655
_cell_length_b 30.071521
_cell_length_c 9.044920
_cell_angle_alpha 90.000000
_cell_angle_beta 90.000000
_cell_angle_gamma 90.000000
_cell_volume 5569.809568
_symmetry_space_group_name_H-M "I B A M"
_symmetry_group_IT_number 72
_symmetry_cell_setting 'orthorhombic'
loop_
_space_group_symop_operation_xyz
x,y,z
-x,-y,z
x,-y,1/2-z
-x,y,1/2-z
-x,-y,-z
x,y,-z
-x,y,1/2+z
x,-y,1/2+z
1/2+x,1/2+y,1/2+z
1/2-x,1/2-y,1/2+z
1/2+x,1/2-y,-z
1/2-x,1/2+y,-z
1/2-x,1/2-y,1/2-z
1/2+x,1/2+y,1/2-z
1/2-x,1/2+y,z
1/2+x,1/2-y,z
loop_
_atom_site_type_symbol
_atom_site_label
_atom_site_fract_x
_atom_site_fract_y
_atom_site_fract_z
Si Si1 0.308929 0.274462 0.672515
Si Si2 0.268245 0.370179 0.329483
Si Si3 0.434668 0.780339 0.824404
Si Si4 0.270999 0.542879 0.665471
Si Si5 0.615388 0.956389 0.331768
Si Si6 0.116465 0.367159 0.326083
O O1 0.296580 0.268420 0.500000
O O2 0.250000 0.250000 0.750000
O O3 0.309465 0.326586 0.714992
O O4 0.377267 0.253339 0.721976
O O5 0.276001 0.382772 0.500000
O O6 0.296663 0.411666 0.238711
O O7 0.192817 0.360588 0.292184
O O8 0.500000 0.760870 0.750000
O O9 0.422115 0.828753 0.757391
O O10 0.442404 0.784014 0.000000
O O11 0.299444 0.500000 0.750000
O O12 0.298102 0.541116 0.500000
O O13 0.193227 0.542049 0.669800
O O14 0.589295 0.954590 0.500000
O O15 0.590902 0.913635 0.240766
O O16 0.587147 0.000000 0.250000
O O17 0.101189 0.365695 0.500000
#
# Coordination Sequence:
#
# PCOD8293024 Si02
#       6
#    16  16  16  16  16  16
#     4  10  20  34  53  76 101 131 167 210 255 300
#     4   9  17  29  46  70  98 127 161 203 248 294
#     4  11  23  37  53  73 100 133 170 209 253 302
#     4   9  16  25  39  62  94 130 162 196 240 290
#     4   9  16  26  41  64  93 124 162 204 249 296
#     4  10  18  30  49  70  95 127 164 206 254 299
#
# _framework density 17.235778
#
# number of rings (size 3 to 8) (size 9 to 14) (size 15 to 20)
#    0.000    2.333    1.667    2.000    0.000    6.000 
#    0.000    0.000    0.000    0.500    0.000    3.500 
#    0.000    0.667    0.000    7.667    0.000    2.667 
#
# Total GULP energy -595240.651905 kJ/mol
# GULP energy per Si atom -12400.846915 kJ/mol
# Density = 1.719655 g / cm^3
# Si number density = 17.235778 Si / 1000 Ang^3
#
#
#
# Elastic Constant Matrix: (Units=GPa)
#
#
# Indices 1 2 3 4 5 6 
#
# 1 64.9927 54.3688 42.6000 0.0000 0.0000 0.0000
# 2 54.3688 131.6559 62.5342 0.0000 0.0000 0.0000
# 3 42.6000 62.5342 104.6649 0.0001 0.0002 0.0000
# 4 0.0000 0.0000 0.0001 33.1666 0.0000 0.0000
# 5 0.0000 0.0000 0.0002 0.0000 16.7453 0.0000
# 6 0.0000 0.0000 0.0000 0.0000 0.0000 11.5795
#
#
#
# Elastic Compliance Matrix: (Units=1/GPa)
#
#
# Indices 1 2 3 4 5 6 
#
# 1 0.025782 -0.007907 -0.005770 0.000000 0.000000 0.000000
# 2 -0.007907 0.013030 -0.004567 0.000000 0.000000 0.000000
# 3 -0.005770 -0.004567 0.014631 0.000000 0.000000 0.000000
# 4 0.000000 0.000000 0.000000 0.030151 0.000000 0.000000
# 5 0.000000 0.000000 0.000000 0.000000 0.059718 0.000000
# 6 0.000000 0.000000 0.000000 0.000000 0.000000 0.086359
#
#
# Mechanical properties :
#
#
# Convention : Reuss Voigt Hill
#
# Bulk Modulus (GPa) = 58.97284 68.92438 63.94861
# Shear Modulus (GPa) = 18.39517 21.75233 20.07375
#
# Velocity S-wave (km/s) = 3.27045 3.55638 3.41641
# Velocity P-wave (km/s) = 6.96784 7.54584 7.26259
#
# Compressibility (1/GPa) = 0.01695696
#
# Stress axis : x y z
#
# Youngs Moduli (GPa) = 38.78625 76.74695 68.34672
#
# Poissons Ratio (x) = 0.60680 0.39435
# Poissons Ratio (y) = 0.30666 0.31213
# Poissons Ratio (z) = 0.22379 0.35049
#
# Static dielectric constant tensor:
#      x y z
#    x 2.842880 0.000000 0.000000 
#    y 0.000000 3.714620 0.000000 
#    z 0.000000 0.000000 3.269670 
# 
# 
# High freq. dielectric constant tensor:
#      x y z
#    x 1.604850 0.000000 0.000000 
#    y 0.000000 1.676610 0.000000 
#    z 0.000000 0.000000 1.678970 
# 
# From -- ./inp_files/5943.got.cif
#   From: 2010.03.12/outbox.cif.g09.slc.cpg/sg72_3_cif.got.tgz:5943.got - 2010.04.16 14:54:00.
