data_PCOD8293833
_publ_section_title
;
Structure prediction by ZEFSAII (Michael W. Deem and Ramdas Pophale) SiO2 
 PCOD8293833
Probable space group: I B A M
;
_chemical_formula_sum "Si O2"
_cell_formula_units_Z 96
_cell_length_a 31.674393
_cell_length_b 20.571680
_cell_length_c 8.943810
_cell_angle_alpha 90.000000
_cell_angle_beta 90.000000
_cell_angle_gamma 90.000000
_cell_volume 5827.746143
_symmetry_space_group_name_H-M "I B A M"
_symmetry_group_IT_number 72
_symmetry_cell_setting 'orthorhombic'
loop_
_space_group_symop_operation_xyz
x,y,z
-x,-y,z
x,-y,1/2-z
-x,y,1/2-z
-x,-y,-z
x,y,-z
-x,y,1/2+z
x,-y,1/2+z
1/2+x,1/2+y,1/2+z
1/2-x,1/2-y,1/2+z
1/2+x,1/2-y,-z
1/2-x,1/2+y,-z
1/2-x,1/2-y,1/2-z
1/2+x,1/2+y,1/2-z
1/2-x,1/2+y,z
1/2+x,1/2-y,z
loop_
_atom_site_type_symbol
_atom_site_label
_atom_site_fract_x
_atom_site_fract_y
_atom_site_fract_z
Si Si1 0.626119 0.730689 0.166657
Si Si2 0.378218 0.578744 0.335005
Si Si3 0.041250 0.917066 0.332340
Si Si4 0.294057 0.437355 0.674013
Si Si5 0.212747 0.790375 0.321821
Si Si6 0.957380 0.237782 0.668584
O O1 0.617675 0.655250 0.149719
O O2 0.668887 0.739922 0.262223
O O3 0.585235 0.762900 0.247436
O O4 0.631490 0.761390 0.000000
O O5 0.369352 0.549009 0.500000
O O6 0.421171 0.552233 0.264650
O O7 0.343002 0.557470 0.216995
O O8 0.043066 0.944595 0.500000
O O9 0.042762 0.839510 0.335614
O O10 0.000000 0.942783 0.250000
O O11 0.270379 0.500000 0.750000
O O12 0.287169 0.444866 0.500000
O O13 0.279081 0.365697 0.727976
O O14 0.212591 0.784430 0.500000
O O15 0.250000 0.750000 0.250000
O O16 0.957004 0.265772 0.500000
O O17 0.000000 0.263301 0.750000
#
# Coordination Sequence:
#
# PCOD8293833 Si02
#       6
#    16  16  16  16  16  16
#     4   9  16  26  40  58  81 109 141 178 220 264
#     4   9  16  26  40  57  77 102 133 171 215 259
#     4   9  15  22  33  50  72  98 130 169 213 259
#     4  10  20  33  49  68  88 111 141 177 217 261
#     4  10  20  33  49  69  92 118 149 185 225 269
#     4   9  15  22  33  51  76 105 138 176 217 261
#
# _framework density 16.472920999999999
#
# number of rings (size 3 to 8) (size 9 to 14) (size 15 to 20)
#    0.000    2.667    0.000    3.000    0.000   10.000 
#    0.000    0.000    0.000    0.500    0.000    3.500 
#    0.000    0.000    0.000    0.000    0.000    0.833 
#
# Total GULP energy -594795.083235 kJ/mol
# GULP energy per Si atom -12391.564234 kJ/mol
# Density = 1.643543 g / cm^3
# Si number density = 16.472921 Si / 1000 Ang^3
#
#
#
# Elastic Constant Matrix: (Units=GPa)
#
#
# Indices 1 2 3 4 5 6 
#
# 1 110.2114 35.9746 50.2100 0.0000 0.0000 0.0000
# 2 35.9746 41.2525 20.9991 0.0000 0.0000 0.0000
# 3 50.2100 20.9991 104.9793 0.0000 0.0000 0.0000
# 4 0.0000 0.0000 0.0000 15.4071 0.0000 0.0000
# 5 0.0000 0.0000 0.0000 0.0000 27.6189 0.0000
# 6 0.0000 0.0000 0.0000 0.0000 0.0000 -33.0873
#
#
#
# Elastic Compliance Matrix: (Units=1/GPa)
#
#
# Indices 1 2 3 4 5 6 
#
# 1 0.014695 -0.010285 -0.004971 0.000000 0.000000 0.000000
# 2 -0.010285 0.034187 -0.001919 0.000000 0.000000 0.000000
# 3 -0.004971 -0.001919 0.012287 0.000000 0.000000 0.000000
# 4 0.000000 0.000000 0.000000 0.064905 0.000000 0.000000
# 5 0.000000 0.000000 0.000000 0.000000 0.036207 0.000000
# 6 0.000000 0.000000 0.000000 0.000000 0.000000 -0.030223
#
#
# Mechanical properties :
#
#
# Convention : Reuss Voigt Hill
#
# Bulk Modulus (GPa) = 37.28737 52.31231 44.79984
# Shear Modulus (GPa) = 28.51456 11.93837 20.22646
#
# Velocity S-wave (km/s) = 4.16504 2.69500 3.50789
# Velocity P-wave (km/s) = 6.76866 6.44279 6.60773
#
# Compressibility (1/GPa) = 0.02681873
#
# Stress axis : x y z
#
# Youngs Moduli (GPa) = 68.04867 29.25105 81.38451
#
# Poissons Ratio (x) = 0.30084 0.40459
# Poissons Ratio (y) = 0.69986 0.15621
# Poissons Ratio (z) = 0.33829 0.05615
#
# Static dielectric constant tensor:
#      x y z
#    x 3.056370 0.000000 0.000000 
#    y 0.000000 2.777170 0.000000 
#    z 0.000000 0.000000 3.390950 
# 
# 
# High freq. dielectric constant tensor:
#      x y z
#    x 1.618120 0.000000 0.000000 
#    y 0.000000 1.566470 0.000000 
#    z 0.000000 0.000000 1.657960 
# 
# From -- ./inp_files/8465.got.cif
#   From: 2010.03.12/outbox.cif.g09.slc.cpg/sg72_5_cif.got.tgz:8465.got - 2010.04.16 14:54:00.
