data_PCOD8293336
_publ_section_title
;
Structure prediction by ZEFSAII (Michael W. Deem and Ramdas Pophale) SiO2 
 PCOD8293336
Probable space group: I B A M
;
_chemical_formula_sum "Si O2"
_cell_formula_units_Z 96
_cell_length_a 12.352672
_cell_length_b 19.324453
_cell_length_c 21.983277
_cell_angle_alpha 90.000000
_cell_angle_beta 90.000000
_cell_angle_gamma 90.000000
_cell_volume 5247.597924
_symmetry_space_group_name_H-M "I B A M"
_symmetry_group_IT_number 72
_symmetry_cell_setting 'orthorhombic'
loop_
_space_group_symop_operation_xyz
x,y,z
-x,-y,z
x,-y,1/2-z
-x,y,1/2-z
-x,-y,-z
x,y,-z
-x,y,1/2+z
x,-y,1/2+z
1/2+x,1/2+y,1/2+z
1/2-x,1/2-y,1/2+z
1/2+x,1/2-y,-z
1/2-x,1/2+y,-z
1/2-x,1/2-y,1/2-z
1/2+x,1/2+y,1/2-z
1/2-x,1/2+y,z
1/2+x,1/2-y,z
loop_
_atom_site_type_symbol
_atom_site_label
_atom_site_fract_x
_atom_site_fract_y
_atom_site_fract_z
Si Si1 0.882067 0.924986 0.500000
Si Si2 0.140989 0.719805 0.105179
Si Si3 0.119489 0.973036 0.128466
Si Si4 0.248228 0.793696 0.000000
Si Si5 0.022237 0.714279 0.500000
Si Si6 0.691076 0.384544 0.127819
Si Si7 0.468596 0.338445 0.819336
Si Si8 0.890335 0.128936 0.500000
O O1 0.831833 0.955676 0.438154
O O2 0.852795 0.844284 0.500000
O O3 0.012269 0.926877 0.500000
O O4 0.236227 0.749392 0.061969
O O5 0.197879 0.656910 0.143459
O O6 0.097486 0.773350 0.155168
O O7 0.043862 0.695506 0.060898
O O8 0.110367 0.905770 0.172209
O O9 0.191088 0.036785 0.156288
O O10 0.000000 0.000000 0.117943
O O11 0.366319 0.830207 0.000000
O O12 0.063722 0.793438 0.500000
O O13 0.581962 0.344270 0.146095
O O14 0.686816 0.390145 0.055449
O O15 0.500000 0.327014 0.750000
#
# Coordination Sequence:
#
# PCOD8293336 Si02
#       8
#     8  16  16   8   8  16  16   8
#     4  12  16  28  51  78 106 138 168 215 278 336
#     4  11  19  34  52  78 109 141 182 218 269 327
#     4  10  19  31  51  78 108 136 168 223 278 328
#     4  11  17  28  54  77 108 145 175 211 270 329
#     4  11  18  30  52  79 110 141 173 218 264 322
#     4  11  21  32  54  79 107 140 175 221 276 328
#     4  11  22  36  53  77 109 140 180 225 273 318
#     4  12  14  29  48  82 105 138 166 214 275 332
#
# _framework density 18.294084000000002
#
# number of rings (size 3 to 8) (size 9 to 14) (size 15 to 20)
#    0.000    1.000   10.000    1.250    0.000    3.667 
#    0.000    0.000    0.000    2.000    0.000    0.000 
#    0.000    0.000    0.000    0.000    0.000    0.000 
#
# Total GULP energy -594641.537446 kJ/mol
# GULP energy per Si atom -12388.365363 kJ/mol
# Density = 1.825245 g / cm^3
# Si number density = 18.294084 Si / 1000 Ang^3
#
#
#
# Elastic Constant Matrix: (Units=GPa)
#
#
# Indices 1 2 3 4 5 6 
#
# 1 77.8036 30.8488 28.7593 0.0000 0.0000 0.0000
# 2 30.8488 84.6371 41.2025 0.0000 0.0000 0.0000
# 3 28.7593 41.2025 88.5486 0.0000 0.0000 0.0000
# 4 0.0000 0.0000 0.0000 9.0934 0.0000 0.0000
# 5 0.0000 0.0000 0.0000 0.0000 1.1479 0.0000
# 6 0.0000 0.0000 0.0000 0.0000 0.0000 30.2945
#
#
#
# Elastic Compliance Matrix: (Units=1/GPa)
#
#
# Indices 1 2 3 4 5 6 
#
# 1 0.015673 -0.004182 -0.003145 0.000000 0.000000 0.000000
# 2 -0.004182 0.016391 -0.006269 0.000000 0.000000 0.000000
# 3 -0.003145 -0.006269 0.015231 0.000000 0.000000 0.000000
# 4 0.000000 0.000000 0.000000 0.109970 0.000000 0.000000
# 5 0.000000 0.000000 0.000000 0.000000 0.871178 0.000000
# 6 0.000000 0.000000 0.000000 0.000000 0.000000 0.033009
#
#
# Mechanical properties :
#
#
# Convention : Reuss Voigt Hill
#
# Bulk Modulus (GPa) = 49.73760 50.29005 50.01382
# Shear Modulus (GPa) = 4.56477 18.11906 11.34191
#
# Velocity S-wave (km/s) = 1.58134 3.15053 2.49264
# Velocity P-wave (km/s) = 5.53001 6.38623 5.97348
#
# Compressibility (1/GPa) = 0.02010551
#
# Stress axis : x y z
#
# Youngs Moduli (GPa) = 63.80262 61.00894 65.65366
#
# Poissons Ratio (x) = 0.25513 0.20646
# Poissons Ratio (y) = 0.26681 0.41156
# Poissons Ratio (z) = 0.20064 0.38245
#
# Static dielectric constant tensor:
#      x y z
#    x 3.286750 0.000000 0.000000 
#    y 0.000000 3.715100 0.000000 
#    z 0.000000 0.000000 3.434440 
# 
# 
# High freq. dielectric constant tensor:
#      x y z
#    x 1.676250 0.000000 0.000000 
#    y 0.000000 1.703800 0.000000 
#    z 0.000000 0.000000 1.687950 
# 
# From -- ./inp_files/37176.got.cif
#   From: 2010.03.12/outbox.cif.g09.slc.cpg/sg72_19_cif.got.tgz:37176.got - 2010.04.16 14:54:00.
