data_PCOD8293039
_publ_section_title
;
Structure prediction by ZEFSAII (Michael W. Deem and Ramdas Pophale) SiO2 
 PCOD8293039
Probable space group: I B A M
;
_chemical_formula_sum "Si O2"
_cell_formula_units_Z 80
_cell_length_a 23.612736
_cell_length_b 20.116660
_cell_length_c 10.068440
_cell_angle_alpha 90.000000
_cell_angle_beta 90.000000
_cell_angle_gamma 90.000000
_cell_volume 4782.603460
_symmetry_space_group_name_H-M "I B A M"
_symmetry_group_IT_number 72
_symmetry_cell_setting 'orthorhombic'
loop_
_space_group_symop_operation_xyz
x,y,z
-x,-y,z
x,-y,1/2-z
-x,y,1/2-z
-x,-y,-z
x,y,-z
-x,y,1/2+z
x,-y,1/2+z
1/2+x,1/2+y,1/2+z
1/2-x,1/2-y,1/2+z
1/2+x,1/2-y,-z
1/2-x,1/2+y,-z
1/2-x,1/2-y,1/2-z
1/2+x,1/2+y,1/2-z
1/2-x,1/2+y,z
1/2+x,1/2-y,z
loop_
_atom_site_type_symbol
_atom_site_label
_atom_site_fract_x
_atom_site_fract_y
_atom_site_fract_z
Si Si1 0.828723 0.088211 0.500000
Si Si2 0.442255 0.644309 0.000000
Si Si3 0.777693 0.148409 0.761882
Si Si4 0.328822 0.212203 0.844085
Si Si5 0.568347 0.360556 0.500000
Si Si6 0.562920 0.265359 0.747429
Si Si7 0.316284 0.564759 0.500000
O O1 0.897184 0.084720 0.500000
O O2 0.809331 0.129187 0.627653
O O3 0.806456 0.013711 0.500000
O O4 0.504317 0.609843 0.000000
O O5 0.429983 0.691838 0.122413
O O6 0.711530 0.158756 0.727518
O O7 0.803795 0.214297 0.826039
O O8 0.784415 0.090442 0.869284
O O9 0.389959 0.207591 0.769578
O O10 0.334511 0.195799 0.000000
O O11 0.575099 0.314963 0.627193
O O12 0.616577 0.417140 0.500000
O O13 0.500000 0.233234 0.750000
#
# Coordination Sequence:
#
# PCOD8293039 Si02
#       7
#     8   8  16  16   8  16   8
#     4  12  22  35  50  75 104 138 186 220 248 297
#     4  10  20  30  47  74 102 132 186 219 235 298
#     4  11  22  34  51  79  97 135 179 211 273 302
#     4  11  19  34  57  73 106 131 168 221 263 325
#     4  10  18  34  47  66 102 144 178 211 255 284
#     4  10  18  30  51  74 102 133 166 210 259 306
#     4  12  22  37  52  67 108 144 180 224 250 297
#
# _framework density 16.727291999999998
#
# number of rings (size 3 to 8) (size 9 to 14) (size 15 to 20)
#    0.000    1.200    7.000    0.600    0.000    1.200 
#    0.000    0.000    0.000    6.000    0.000    0.000 
#    0.000    4.800    0.000    0.000    0.000    0.000 
#
# Total GULP energy -495851.465290 kJ/mol
# GULP energy per Si atom -12396.286632 kJ/mol
# Density = 1.668922 g / cm^3
# Si number density = 16.727292 Si / 1000 Ang^3
#
#
#
# Elastic Constant Matrix: (Units=GPa)
#
#
# Indices 1 2 3 4 5 6 
#
# 1 126.4675 32.7876 24.5248 0.0000 0.0000 0.0000
# 2 32.7876 39.5422 12.6115 0.0000 0.0000 0.0000
# 3 24.5248 12.6115 109.7948 0.0000 0.0000 0.0000
# 4 0.0000 0.0000 0.0000 7.8444 0.0000 0.0000
# 5 0.0000 0.0000 0.0000 0.0000 27.2464 0.0000
# 6 0.0000 0.0000 0.0000 0.0000 0.0000 19.8551
#
#
#
# Elastic Compliance Matrix: (Units=1/GPa)
#
#
# Indices 1 2 3 4 5 6 
#
# 1 0.010266 -0.008077 -0.001365 0.000000 0.000000 0.000000
# 2 -0.008077 0.032606 -0.001941 0.000000 0.000000 0.000000
# 3 -0.001365 -0.001941 0.009636 0.000000 0.000000 0.000000
# 4 0.000000 0.000000 0.000000 0.127479 0.000000 0.000000
# 5 0.000000 0.000000 0.000000 0.000000 0.036702 0.000000
# 6 0.000000 0.000000 0.000000 0.000000 0.000000 0.050365
#
#
# Mechanical properties :
#
#
# Convention : Reuss Voigt Hill
#
# Bulk Modulus (GPa) = 33.62379 46.18359 39.90369
# Shear Modulus (GPa) = 16.68150 24.71457 20.69803
#
# Velocity S-wave (km/s) = 3.16137 3.84800 3.52146
# Velocity P-wave (km/s) = 5.78537 6.88567 6.35936
#
# Compressibility (1/GPa) = 0.02974085
#
# Stress axis : x y z
#
# Youngs Moduli (GPa) = 97.40965 30.66950 103.77918
#
# Poissons Ratio (x) = 0.24771 0.14170
# Poissons Ratio (y) = 0.78676 0.20145
# Poissons Ratio (z) = 0.13300 0.05953
#
# Static dielectric constant tensor:
#      x y z
#    x 3.696740 0.000000 0.000000 
#    y 0.000000 2.679840 0.000000 
#    z 0.000000 0.000000 3.463760 
# 
# 
# High freq. dielectric constant tensor:
#      x y z
#    x 1.657180 0.000000 0.000000 
#    y 0.000000 1.582530 0.000000 
#    z 0.000000 0.000000 1.670890 
# 
# From -- ./inp_files/6830.got.cif
#   From: 2010.03.12/outbox.cif.g09.slc.cpg/sg72_4_cif.got.tgz:6830.got - 2010.04.16 14:54:00.
