data_PCOD8293268
_publ_section_title
;
Structure prediction by ZEFSAII (Michael W. Deem and Ramdas Pophale) SiO2 
 PCOD8293268
Probable space group: I B A M
;
_chemical_formula_sum "Si O2"
_cell_formula_units_Z 88
_cell_length_a 16.505066
_cell_length_b 28.112221
_cell_length_c 9.471363
_cell_angle_alpha 90.000000
_cell_angle_beta 90.000000
_cell_angle_gamma 90.000000
_cell_volume 4394.656201
_symmetry_space_group_name_H-M "I B A M"
_symmetry_group_IT_number 72
_symmetry_cell_setting 'orthorhombic'
loop_
_space_group_symop_operation_xyz
x,y,z
-x,-y,z
x,-y,1/2-z
-x,y,1/2-z
-x,-y,-z
x,y,-z
-x,y,1/2+z
x,-y,1/2+z
1/2+x,1/2+y,1/2+z
1/2-x,1/2-y,1/2+z
1/2+x,1/2-y,-z
1/2-x,1/2+y,-z
1/2-x,1/2-y,1/2-z
1/2+x,1/2+y,1/2-z
1/2-x,1/2+y,z
1/2+x,1/2-y,z
loop_
_atom_site_type_symbol
_atom_site_label
_atom_site_fract_x
_atom_site_fract_y
_atom_site_fract_z
Si Si1 0.422349 0.129642 0.337753
Si Si2 0.858795 0.816670 0.656101
Si Si3 0.750132 0.096159 0.837326
Si Si4 0.378026 0.456118 0.340359
Si Si5 0.500000 0.619614 0.750000
Si Si6 0.579982 0.238339 0.834811
O O1 0.500000 0.112490 0.250000
O O2 0.447461 0.125252 0.500000
O O3 0.345627 0.096462 0.301759
O O4 0.397173 0.183944 0.303264
O O5 0.850449 0.794182 0.500000
O O6 0.783207 0.850756 0.688159
O O7 0.941785 0.847366 0.656758
O O8 0.853200 0.774442 0.771675
O O9 0.793952 0.059455 0.733564
O O10 0.765589 0.081041 0.000000
O O11 0.413703 0.500000 0.250000
O O12 0.359341 0.472315 0.500000
O O13 0.443494 0.413788 0.347089
O O14 0.500000 0.252467 0.750000
O O15 0.568100 0.248393 0.000000
#
# Coordination Sequence:
#
# PCOD8293268 Si02
#       6
#    16  16  16  16   8  16
#     4   9  19  36  56  78 105 139 179 224 276 330
#     4  10  19  31  49  73 106 145 183 224 267 308
#     4   9  20  38  56  77 107 140 176 224 278 328
#     4  11  23  38  58  84 112 145 183 224 271 326
#     4  10  21  34  54  78 112 148 192 222 257 308
#     4  10  19  30  47  72 104 143 185 226 267 314
#
# _framework density 20.024318999999998
#
# number of rings (size 3 to 8) (size 9 to 14) (size 15 to 20)
#    0.000    2.182    0.909    1.909    0.000    8.000 
#    0.000    0.000    0.000    0.545    0.000    3.818 
#    0.000    0.000    0.000    0.000    0.000    0.000 
#
# Total GULP energy -545511.576727 kJ/mol
# GULP energy per Si atom -12397.990380 kJ/mol
# Density = 1.997874 g / cm^3
# Si number density = 20.024319 Si / 1000 Ang^3
#
#
#
# Elastic Constant Matrix: (Units=GPa)
#
#
# Indices 1 2 3 4 5 6 
#
# 1 93.7641 10.0042 27.6119 -0.0001 -0.0001 0.0000
# 2 10.0042 35.7629 18.6279 -0.0002 0.0010 0.0005
# 3 27.6119 18.6279 109.3080 -0.0039 0.0033 0.0022
# 4 -0.0001 -0.0002 -0.0039 28.3183 0.0017 0.0010
# 5 -0.0001 0.0010 0.0033 0.0017 23.5469 0.0004
# 6 0.0000 0.0005 0.0022 0.0010 0.0004 16.5873
#
#
#
# Elastic Compliance Matrix: (Units=1/GPa)
#
#
# Indices 1 2 3 4 5 6 
#
# 1 0.011638 -0.001892 -0.002617 0.000000 0.000000 0.000000
# 2 -0.001892 0.030993 -0.004804 0.000000 -0.000001 0.000000
# 3 -0.002617 -0.004804 0.010628 0.000001 -0.000001 -0.000001
# 4 0.000000 0.000000 0.000001 0.035313 -0.000003 -0.000002
# 5 0.000000 -0.000001 -0.000001 -0.000003 0.042468 -0.000001
# 6 0.000000 0.000000 -0.000001 -0.000002 -0.000001 0.060287
#
#
# Mechanical properties :
#
#
# Convention : Reuss Voigt Hill
#
# Bulk Modulus (GPa) = 28.87444 39.03592 33.95518
# Shear Modulus (GPa) = 22.57352 25.86324 24.21838
#
# Velocity S-wave (km/s) = 3.36118 3.59777 3.48149
# Velocity P-wave (km/s) = 5.43271 6.06590 5.75802
#
# Compressibility (1/GPa) = 0.03463270
#
# Stress axis : x y z
#
# Youngs Moduli (GPa) = 85.92760 32.26493 94.08884
#
# Poissons Ratio (x) = 0.06105 0.24626
# Poissons Ratio (y) = 0.16259 0.45198
# Poissons Ratio (z) = 0.22490 0.15499
#
# Static dielectric constant tensor:
#      x y z
#    x 3.560910 0.000000 0.000000 
#    y 0.000000 3.472370 0.000000 
#    z 0.000000 0.000000 3.530980 
# 
# 
# High freq. dielectric constant tensor:
#      x y z
#    x 1.769080 0.000000 0.000000 
#    y 0.000000 1.761600 0.000000 
#    z 0.000000 0.000000 1.778670 
# 
# From -- ./inp_files/5115.got.cif
#   From: 2010.03.12/outbox.cif.g09.slc.cpg/sg72_3_cif.got.tgz:5115.got - 2010.04.16 14:54:00.
