data_PCOD8293551
_publ_section_title
;
Structure prediction by ZEFSAII (Michael W. Deem and Ramdas Pophale) SiO2 
 PCOD8293551
Probable space group: I B A M
;
_chemical_formula_sum "Si O2"
_cell_formula_units_Z 112
_cell_length_a 31.771480
_cell_length_b 11.532567
_cell_length_c 13.739536
_cell_angle_alpha 90.000000
_cell_angle_beta 90.000000
_cell_angle_gamma 90.000000
_cell_volume 5034.258345
_symmetry_space_group_name_H-M "I B A M"
_symmetry_group_IT_number 72
_symmetry_cell_setting 'orthorhombic'
loop_
_space_group_symop_operation_xyz
x,y,z
-x,-y,z
x,-y,1/2-z
-x,y,1/2-z
-x,-y,-z
x,y,-z
-x,y,1/2+z
x,-y,1/2+z
1/2+x,1/2+y,1/2+z
1/2-x,1/2-y,1/2+z
1/2+x,1/2-y,-z
1/2-x,1/2+y,-z
1/2-x,1/2-y,1/2-z
1/2+x,1/2+y,1/2-z
1/2-x,1/2+y,z
1/2+x,1/2-y,z
loop_
_atom_site_type_symbol
_atom_site_label
_atom_site_fract_x
_atom_site_fract_y
_atom_site_fract_z
Si Si1 0.103695 0.566095 0.110404
Si Si2 0.916892 0.052307 0.110672
Si Si3 0.677548 0.473839 0.615046
Si Si4 0.467244 0.233429 0.886888
Si Si5 0.206087 0.189234 0.769514
Si Si6 0.871793 0.327662 0.700251
Si Si7 0.556169 0.305752 0.887609
O O1 0.054682 0.606900 0.126646
O O2 0.131001 0.639804 0.185749
O O3 0.111394 0.431779 0.132197
O O4 0.117551 0.594524 0.000000
O O5 0.871083 0.013469 0.149719
O O6 0.937782 0.165742 0.161801
O O7 0.948947 0.944658 0.122511
O O8 0.909240 0.087877 0.000000
O O9 0.684223 0.469877 0.500000
O O10 0.706081 0.578753 0.657819
O O11 0.691920 0.352595 0.662394
O O12 0.514784 0.239841 0.844346
O O13 0.473189 0.264589 0.000000
O O14 0.250000 0.250000 0.750000
O O15 0.175190 0.283528 0.820976
O O16 0.904585 0.226610 0.679504
O O17 0.565350 0.271732 0.000000
#
# Coordination Sequence:
#
# PCOD8293551 Si02
#       7
#    16  16  16  16  16  16  16
#     4  10  23  41  61  87 124 171 220 269 319 380
#     4   9  16  32  60  91 127 169 213 262 323 387
#     4  10  22  42  69  98 130 171 210 260 336 404
#     4   9  18  33  55  90 133 173 216 269 320 373
#     4  11  25  44  66  97 132 162 211 278 337 399
#     4  11  23  41  65  88 120 169 219 268 330 393
#     4  10  19  33  59  94 131 172 219 268 323 385
#
# _framework density 22.247567
#
# number of rings (size 3 to 8) (size 9 to 14) (size 15 to 20)
#    0.000    2.000    1.429    1.714    0.000    8.000 
#    0.000    5.000    0.000    1.714    0.000    0.000 
#    0.000    0.000    0.000    0.000    0.000    0.000 
#
# Total GULP energy -693872.091451 kJ/mol
# GULP energy per Si atom -12390.573062 kJ/mol
# Density = 2.219693 g / cm^3
# Si number density = 22.247567 Si / 1000 Ang^3
#
#
#
# Elastic Constant Matrix: (Units=GPa)
#
#
# Indices 1 2 3 4 5 6 
#
# 1 131.6360 73.2608 18.3889 0.0000 0.0000 0.0000
# 2 73.2608 111.1568 25.4809 0.0000 0.0000 0.0000
# 3 18.3889 25.4809 88.1993 0.0000 0.0000 0.0000
# 4 0.0000 0.0000 0.0000 31.9286 0.0000 0.0000
# 5 0.0000 0.0000 0.0000 0.0000 23.2727 0.0000
# 6 0.0000 0.0000 0.0000 0.0000 0.0000 39.9901
#
#
#
# Elastic Compliance Matrix: (Units=1/GPa)
#
#
# Indices 1 2 3 4 5 6 
#
# 1 0.012002 -0.007857 -0.000232 0.000000 0.000000 0.000000
# 2 -0.007857 0.014778 -0.002631 0.000000 0.000000 0.000000
# 3 -0.000232 -0.002631 0.012147 0.000000 0.000000 0.000000
# 4 0.000000 0.000000 0.000000 0.031320 0.000000 0.000000
# 5 0.000000 0.000000 0.000000 0.000000 0.042969 0.000000
# 6 0.000000 0.000000 0.000000 0.000000 0.000000 0.025006
#
#
# Mechanical properties :
#
#
# Convention : Reuss Voigt Hill
#
# Bulk Modulus (GPa) = 57.19140 62.80593 59.99866
# Shear Modulus (GPa) = 30.21324 33.29571 31.75447
#
# Velocity S-wave (km/s) = 3.68917 3.87279 3.78209
# Velocity P-wave (km/s) = 6.62640 6.94908 6.78966
#
# Compressibility (1/GPa) = 0.01748515
#
# Stress axis : x y z
#
# Youngs Moduli (GPa) = 83.32064 67.66942 82.32765
#
# Poissons Ratio (x) = 0.53167 0.01914
# Poissons Ratio (y) = 0.65464 0.21662
# Poissons Ratio (z) = 0.01937 0.17805
#
# Static dielectric constant tensor:
#      x y z
#    x 3.824520 0.000000 0.000000 
#    y 0.000000 4.017280 0.000000 
#    z 0.000000 0.000000 4.042130 
# 
# 
# High freq. dielectric constant tensor:
#      x y z
#    x 1.846890 0.000000 0.000000 
#    y 0.000000 1.875840 0.000000 
#    z 0.000000 0.000000 1.883820 
# 
# From -- ./inp_files/26391.got.cif
#   From: 2010.03.12/outbox.cif.g09.slc.cpg/sg72_14_cif.got.tgz:26391.got - 2010.04.16 14:54:00.
