data_PCOD8293204
_publ_section_title
;
Structure prediction by ZEFSAII (Michael W. Deem and Ramdas Pophale) SiO2 
 PCOD8293204
Probable space group: I B A M
;
_chemical_formula_sum "Si O2"
_cell_formula_units_Z 100
_cell_length_a 9.711767
_cell_length_b 27.391987
_cell_length_c 18.910233
_cell_angle_alpha 90.000000
_cell_angle_beta 90.000000
_cell_angle_gamma 90.000000
_cell_volume 5030.587083
_symmetry_space_group_name_H-M "I B A M"
_symmetry_group_IT_number 72
_symmetry_cell_setting 'orthorhombic'
loop_
_space_group_symop_operation_xyz
x,y,z
-x,-y,z
x,-y,1/2-z
-x,y,1/2-z
-x,-y,-z
x,y,-z
-x,y,1/2+z
x,-y,1/2+z
1/2+x,1/2+y,1/2+z
1/2-x,1/2-y,1/2+z
1/2+x,1/2-y,-z
1/2-x,1/2+y,-z
1/2-x,1/2-y,1/2-z
1/2+x,1/2+y,1/2-z
1/2-x,1/2+y,z
1/2+x,1/2-y,z
loop_
_atom_site_type_symbol
_atom_site_label
_atom_site_fract_x
_atom_site_fract_y
_atom_site_fract_z
Si Si1 0.269868 0.904714 0.657409
Si Si2 0.280071 0.570409 0.311020
Si Si3 0.011969 0.147774 0.329977
Si Si4 0.586002 0.732660 0.581667
Si Si5 0.125533 0.311785 0.582662
Si Si6 0.000000 0.000000 0.750000
Si Si7 0.160341 0.502010 0.422152
O O1 0.305625 0.919357 0.738646
O O2 0.111672 0.889004 0.651957
O O3 0.367332 0.860758 0.629802
O O4 0.282664 0.951782 0.608753
O O5 0.342803 0.620638 0.340979
O O6 0.406008 0.533520 0.298943
O O7 0.183711 0.547866 0.370664
O O8 0.011478 0.194087 0.379935
O O9 0.000000 0.166625 0.250000
O O10 0.563411 0.722428 0.500000
O O11 0.746806 0.725087 0.602274
O O12 0.520908 0.785789 0.600458
O O13 0.134691 0.326247 0.500000
O O14 0.227758 0.510402 0.500000
O O15 0.000000 0.500000 0.431682
#
# Coordination Sequence:
#
# PCOD8293204 Si02
#       7
#    16  16  16  16  16   4  16
#     4  10  18  35  59  81 108 149 189 227 281 337
#     4  11  19  35  60  82 112 145 185 232 283 331
#     4   9  18  34  57  84 111 141 176 236 285 325
#     4   9  18  34  55  79 110 147 184 228 283 338
#     4   9  18  34  57  82 110 147 187 230 281 337
#     4  12  16  36  60  84 108 140 178 242 284 324
#     4  11  24  39  54  79 117 155 190 232 276 333
#
# _framework density 19.878395000000001
#
# number of rings (size 3 to 8) (size 9 to 14) (size 15 to 20)
#    0.000    2.080    4.000    0.480    0.000    2.560 
#    2.880   10.000    0.000    0.000    0.000    0.000 
#    0.000    0.000    0.000    0.000    0.000    0.000 
#
# Total GULP energy -619790.066849 kJ/mol
# GULP energy per Si atom -12395.801337 kJ/mol
# Density = 1.983315 g / cm^3
# Si number density = 19.878395 Si / 1000 Ang^3
#
#
#
# Elastic Constant Matrix: (Units=GPa)
#
#
# Indices 1 2 3 4 5 6 
#
# 1 29.4678 10.2829 23.6260 0.0000 0.0000 0.0000
# 2 10.2829 75.5569 51.9385 -0.0001 0.0000 0.0000
# 3 23.6260 51.9385 105.8726 -0.0005 0.0001 0.0001
# 4 0.0000 -0.0001 -0.0005 37.7440 0.0000 0.0000
# 5 0.0000 0.0000 0.0001 0.0000 30.7358 -0.0001
# 6 0.0000 0.0000 0.0001 0.0000 -0.0001 25.1721
#
#
#
# Elastic Compliance Matrix: (Units=1/GPa)
#
#
# Indices 1 2 3 4 5 6 
#
# 1 0.041388 0.001081 -0.009766 0.000000 0.000000 0.000000
# 2 0.001081 0.019997 -0.010051 0.000000 0.000000 0.000000
# 3 -0.009766 -0.010051 0.016556 0.000000 0.000000 0.000000
# 4 0.000000 0.000000 0.000000 0.026494 0.000000 0.000000
# 5 0.000000 0.000000 0.000000 0.000000 0.032535 0.000000
# 6 0.000000 0.000000 0.000000 0.000000 0.000000 0.039726
#
#
# Mechanical properties :
#
#
# Convention : Reuss Voigt Hill
#
# Bulk Modulus (GPa) = 24.71116 42.51023 33.61069
# Shear Modulus (GPa) = 21.96252 27.06704 24.51478
#
# Velocity S-wave (km/s) = 3.32753 3.69403 3.51556
# Velocity P-wave (km/s) = 5.21741 6.29492 5.78133
#
# Compressibility (1/GPa) = 0.04046755
#
# Stress axis : x y z
#
# Youngs Moduli (GPa) = 24.16137 50.00649 60.40247
#
# Poissons Ratio (x) = -0.05403 0.58990
# Poissons Ratio (y) = -0.02611 0.60713
# Poissons Ratio (z) = 0.23596 0.50263
#
# Static dielectric constant tensor:
#      x y z
#    x 3.601270 0.000000 0.000000 
#    y 0.000000 3.775670 0.000000 
#    z 0.000000 0.000000 4.023610 
# 
# 
# High freq. dielectric constant tensor:
#      x y z
#    x 1.760030 0.000000 0.000000 
#    y 0.000000 1.774280 0.000000 
#    z 0.000000 0.000000 1.772620 
# 
# From -- ./inp_files/36171.got.cif
#   From: 2010.03.12/outbox.cif.g09.slc.cpg/sg72_19_cif.got.tgz:36171.got - 2010.04.16 14:54:00.
