data_PCOD8293625
_publ_section_title
;
Structure prediction by ZEFSAII (Michael W. Deem and Ramdas Pophale) SiO2 
 PCOD8293625
Probable space group: I B A M
;
_chemical_formula_sum "Si O2"
_cell_formula_units_Z 96
_cell_length_a 18.681486
_cell_length_b 28.135959
_cell_length_c 9.021587
_cell_angle_alpha 90.000000
_cell_angle_beta 90.000000
_cell_angle_gamma 90.000000
_cell_volume 4741.940309
_symmetry_space_group_name_H-M "I B A M"
_symmetry_group_IT_number 72
_symmetry_cell_setting 'orthorhombic'
loop_
_space_group_symop_operation_xyz
x,y,z
-x,-y,z
x,-y,1/2-z
-x,y,1/2-z
-x,-y,-z
x,y,-z
-x,y,1/2+z
x,-y,1/2+z
1/2+x,1/2+y,1/2+z
1/2-x,1/2-y,1/2+z
1/2+x,1/2-y,-z
1/2-x,1/2+y,-z
1/2-x,1/2-y,1/2-z
1/2+x,1/2+y,1/2-z
1/2-x,1/2+y,z
1/2+x,1/2-y,z
loop_
_atom_site_type_symbol
_atom_site_label
_atom_site_fract_x
_atom_site_fract_y
_atom_site_fract_z
Si Si1 0.727530 0.451146 0.323870
Si Si2 0.111212 0.542245 0.662449
Si Si3 0.312958 0.355096 0.670881
Si Si4 0.567268 0.143276 0.166875
Si Si5 0.923012 0.221513 0.672597
Si Si6 0.173811 0.699682 0.173424
O O1 0.696628 0.500000 0.250000
O O2 0.716118 0.453536 0.500000
O O3 0.810119 0.445228 0.274093
O O4 0.688445 0.403368 0.265966
O O5 0.072921 0.500000 0.750000
O O6 0.123648 0.521926 0.500000
O O7 0.058253 0.586771 0.661143
O O8 0.299252 0.368914 0.500000
O O9 0.390975 0.331416 0.695230
O O10 0.256020 0.312934 0.715166
O O11 0.500000 0.167162 0.250000
O O12 0.634928 0.152086 0.270902
O O13 0.574640 0.164185 0.000000
O O14 0.933535 0.233075 0.500000
O O15 0.863801 0.258059 0.735910
O O16 0.000000 0.225649 0.750000
O O17 0.163773 0.709618 0.000000
#
# Coordination Sequence:
#
# PCOD8293625 Si02
#       6
#    16  16  16  16  16  16
#     4  10  19  34  58  88 120 154 192 239 293 348
#     4   9  19  33  50  72 102 141 185 234 286 339
#     4  10  22  39  62  91 120 153 196 243 291 346
#     4  11  22  36  51  74 107 148 194 239 290 342
#     4  11  24  42  62  87 121 157 194 240 293 352
#     4  11  22  38  60  86 114 151 195 241 290 340
#
# _framework density 20.244876999999999
#
# number of rings (size 3 to 8) (size 9 to 14) (size 15 to 20)
#    0.000    1.667    1.667    3.000    0.000    4.333 
#    0.000    1.667    0.000    0.500    0.000    3.500 
#    0.000    0.000    0.000    0.000    0.000    0.000 
#
# Total GULP energy -594731.979458 kJ/mol
# GULP energy per Si atom -12390.249572 kJ/mol
# Density = 2.019880 g / cm^3
# Si number density = 20.244877 Si / 1000 Ang^3
#
#
#
# Elastic Constant Matrix: (Units=GPa)
#
#
# Indices 1 2 3 4 5 6 
#
# 1 66.9569 46.0081 42.6149 0.0000 0.0000 0.0000
# 2 46.0081 107.5356 58.4769 0.0000 0.0000 0.0000
# 3 42.6149 58.4769 108.7865 -0.0003 -0.0001 0.0000
# 4 0.0000 0.0000 -0.0003 37.0496 0.0000 0.0000
# 5 0.0000 0.0000 -0.0001 0.0000 19.6852 0.0000
# 6 0.0000 0.0000 0.0000 0.0000 0.0000 6.5012
#
#
#
# Elastic Compliance Matrix: (Units=1/GPa)
#
#
# Indices 1 2 3 4 5 6 
#
# 1 0.023121 -0.007018 -0.005284 0.000000 0.000000 0.000000
# 2 -0.007018 0.015271 -0.005459 0.000000 0.000000 0.000000
# 3 -0.005284 -0.005459 0.014197 0.000000 0.000000 0.000000
# 4 0.000000 0.000000 0.000000 0.026991 0.000000 0.000000
# 5 0.000000 0.000000 0.000000 0.000000 0.050800 0.000000
# 6 0.000000 0.000000 0.000000 0.000000 0.000000 0.153819
#
#
# Mechanical properties :
#
#
# Convention : Reuss Voigt Hill
#
# Bulk Modulus (GPa) = 58.60204 64.16430 61.38317
# Shear Modulus (GPa) = 15.36524 21.72580 18.54552
#
# Velocity S-wave (km/s) = 2.75793 3.27945 3.02993
# Velocity P-wave (km/s) = 6.25708 6.78989 6.52892
#
# Compressibility (1/GPa) = 0.01706425
#
# Stress axis : x y z
#
# Youngs Moduli (GPa) = 43.25104 65.48484 70.43759
#
# Poissons Ratio (x) = 0.45960 0.37222
# Poissons Ratio (y) = 0.30355 0.38454
# Poissons Ratio (z) = 0.22856 0.35750
#
# Static dielectric constant tensor:
#      x y z
#    x 3.516280 0.000000 0.000000 
#    y 0.000000 3.697820 0.000000 
#    z 0.000000 0.000000 3.732950 
# 
# 
# High freq. dielectric constant tensor:
#      x y z
#    x 1.762000 0.000000 0.000000 
#    y 0.000000 1.795170 0.000000 
#    z 0.000000 0.000000 1.799050 
# 
# From -- ./inp_files/6012.got.cif
#   From: 2010.03.12/outbox.cif.g09.slc.cpg/sg72_4_cif.got.tgz:6012.got - 2010.04.16 14:54:00.
