data_PCOD8293287
_publ_section_title
;
Structure prediction by ZEFSAII (Michael W. Deem and Ramdas Pophale) SiO2 
 PCOD8293287
Probable space group: I B A M
;
_chemical_formula_sum "Si O2"
_cell_formula_units_Z 96
_cell_length_a 28.421668
_cell_length_b 20.160114
_cell_length_c 9.323626
_cell_angle_alpha 90.000000
_cell_angle_beta 90.000000
_cell_angle_gamma 90.000000
_cell_volume 5342.289144
_symmetry_space_group_name_H-M "I B A M"
_symmetry_group_IT_number 72
_symmetry_cell_setting 'orthorhombic'
loop_
_space_group_symop_operation_xyz
x,y,z
-x,-y,z
x,-y,1/2-z
-x,y,1/2-z
-x,-y,-z
x,y,-z
-x,y,1/2+z
x,-y,1/2+z
1/2+x,1/2+y,1/2+z
1/2-x,1/2-y,1/2+z
1/2+x,1/2-y,-z
1/2-x,1/2+y,-z
1/2-x,1/2-y,1/2-z
1/2+x,1/2+y,1/2-z
1/2-x,1/2+y,z
1/2+x,1/2-y,z
loop_
_atom_site_type_symbol
_atom_site_label
_atom_site_fract_x
_atom_site_fract_y
_atom_site_fract_z
Si Si1 0.049096 0.324371 0.168961
Si Si2 0.689336 0.702150 0.165096
Si Si3 0.398563 0.691932 0.161365
Si Si4 0.791090 0.333799 0.664768
Si Si5 0.372166 0.068241 0.333150
Si Si6 0.547874 0.557163 0.663531
O O1 0.073725 0.256157 0.221197
O O2 0.084522 0.383968 0.208672
O O3 0.000000 0.335424 0.250000
O O4 0.038565 0.321652 0.000000
O O5 0.645299 0.669230 0.242529
O O6 0.735046 0.654551 0.184953
O O7 0.695183 0.774116 0.233285
O O8 0.677530 0.712728 0.000000
O O9 0.431580 0.629559 0.167482
O O10 0.381230 0.707336 0.000000
O O11 0.802422 0.314097 0.500000
O O12 0.822036 0.397769 0.707780
O O13 0.373488 0.051316 0.500000
O O14 0.377537 0.000000 0.250000
O O15 0.577727 0.500000 0.750000
O O16 0.500000 0.563103 0.750000
O O17 0.540815 0.533865 0.500000
#
# Coordination Sequence:
#
# PCOD8293287 Si02
#       6
#    16  16  16  16  16  16
#     4  10  21  37  56  78 107 143 182 230 279 323
#     4  10  19  30  55  86 107 134 175 222 262 312
#     4  10  20  36  55  78 111 148 177 216 277 326
#     4   9  18  36  55  76 109 142 172 214 270 322
#     4  10  21  38  58  77 108 148 183 227 278 329
#     4  10  20  34  54  76 104 143 181 220 267 322
#
# _framework density 17.969826000000001
#
# number of rings (size 3 to 8) (size 9 to 14) (size 15 to 20)
#    0.000    2.167    1.667    2.000    0.000    4.333 
#    0.000    2.500    0.000    4.000    0.000    0.000 
#    0.000    0.000    0.000    0.000    0.000    0.000 
#
# Total GULP energy -594899.036429 kJ/mol
# GULP energy per Si atom -12393.729926 kJ/mol
# Density = 1.792893 g / cm^3
# Si number density = 17.969826 Si / 1000 Ang^3
#
#
#
# Elastic Constant Matrix: (Units=GPa)
#
#
# Indices 1 2 3 4 5 6 
#
# 1 119.8744 58.5425 61.0845 0.0000 0.0000 0.0000
# 2 58.5425 119.5089 48.6734 0.0000 0.0000 0.0000
# 3 61.0845 48.6734 97.3900 0.0000 0.0000 0.0000
# 4 0.0000 0.0000 0.0000 28.5673 0.0000 0.0000
# 5 0.0000 0.0000 0.0000 0.0000 32.2748 0.0000
# 6 0.0000 0.0000 0.0000 0.0000 0.0000 23.7076
#
#
#
# Elastic Compliance Matrix: (Units=1/GPa)
#
#
# Indices 1 2 3 4 5 6 
#
# 1 0.013640 -0.004014 -0.006549 0.000000 0.000000 0.000000
# 2 -0.004014 0.011688 -0.003323 0.000000 0.000000 0.000000
# 3 -0.006549 -0.003323 0.016036 0.000000 0.000000 0.000000
# 4 0.000000 0.000000 0.000000 0.035005 0.000000 0.000000
# 5 0.000000 0.000000 0.000000 0.000000 0.030984 0.000000
# 6 0.000000 0.000000 0.000000 0.000000 0.000000 0.042181
#
#
# Mechanical properties :
#
#
# Convention : Reuss Voigt Hill
#
# Bulk Modulus (GPa) = 73.57920 74.81934 74.19927
# Shear Modulus (GPa) = 27.49734 28.14148 27.81941
#
# Velocity S-wave (km/s) = 3.91601 3.96162 3.93888
# Velocity P-wave (km/s) = 7.84103 7.91532 7.87827
#
# Compressibility (1/GPa) = 0.01359080
#
# Stress axis : x y z
#
# Youngs Moduli (GPa) = 73.31646 85.56110 62.35843
#
# Poissons Ratio (x) = 0.34347 0.40836
# Poissons Ratio (y) = 0.29432 0.20724
# Poissons Ratio (z) = 0.48012 0.28435
#
# Static dielectric constant tensor:
#      x y z
#    x 3.553490 0.000000 0.000000 
#    y 0.000000 1.887720 0.000000 
#    z 0.000000 0.000000 2.518290 
# 
# 
# High freq. dielectric constant tensor:
#      x y z
#    x 1.698070 0.000000 0.000000 
#    y 0.000000 1.685710 0.000000 
#    z 0.000000 0.000000 1.700680 
# 
# From -- ./inp_files/5970.got.cif
#   From: 2010.03.12/outbox.cif.g09.slc.cpg/sg72_3_cif.got.tgz:5970.got - 2010.04.16 14:54:00.
