data_PCOD8293826
_publ_section_title
;
Structure prediction by ZEFSAII (Michael W. Deem and Ramdas Pophale) SiO2 
 PCOD8293826
Probable space group: I B A M
;
_chemical_formula_sum "Si O2"
_cell_formula_units_Z 112
_cell_length_a 15.128104
_cell_length_b 31.787478
_cell_length_c 13.873627
_cell_angle_alpha 90.000000
_cell_angle_beta 90.000000
_cell_angle_gamma 90.000000
_cell_volume 6671.609035
_symmetry_space_group_name_H-M "I B A M"
_symmetry_group_IT_number 72
_symmetry_cell_setting 'orthorhombic'
loop_
_space_group_symop_operation_xyz
x,y,z
-x,-y,z
x,-y,1/2-z
-x,y,1/2-z
-x,-y,-z
x,y,-z
-x,y,1/2+z
x,-y,1/2+z
1/2+x,1/2+y,1/2+z
1/2-x,1/2-y,1/2+z
1/2+x,1/2-y,-z
1/2-x,1/2+y,-z
1/2-x,1/2-y,1/2-z
1/2+x,1/2+y,1/2-z
1/2-x,1/2+y,z
1/2+x,1/2-y,z
loop_
_atom_site_type_symbol
_atom_site_label
_atom_site_fract_x
_atom_site_fract_y
_atom_site_fract_z
Si Si1 0.104446 0.070357 0.749978
Si Si2 0.104526 0.999982 0.104931
Si Si3 0.052470 0.207103 0.605198
Si Si4 0.810511 0.840783 0.733721
Si Si5 0.367186 0.190490 0.692350
Si Si6 0.147185 0.217872 0.888575
Si Si7 0.551211 0.193523 0.607900
O O1 0.132567 0.042883 0.657568
O O2 0.165127 0.111194 0.751049
O O3 0.000000 0.081523 0.750000
O O4 0.132930 0.042651 0.841806
O O5 0.149112 0.000072 0.000000
O O6 0.000000 0.000000 0.099183
O O7 0.085952 0.192490 0.500000
O O8 0.107511 0.182411 0.683870
O O9 0.060692 0.256701 0.616148
O O10 0.949368 0.196783 0.616518
O O11 0.721023 0.836727 0.669524
O O12 0.791158 0.816563 0.835241
O O13 0.345001 0.239378 0.672997
O O14 0.449206 0.178866 0.622999
O O15 0.390213 0.177605 0.803255
O O16 0.176989 0.225197 0.000000
O O17 0.580549 0.178272 0.500000
#
# Coordination Sequence:
#
# PCOD8293826 Si02
#       7
#    16  16  16  16  16  16  16
#     4   9  18  30  47  70  97 126 156 188 226 277
#     4   8  15  31  51  67  88 125 162 183 214 276
#     4   9  18  30  45  61  86 124 161 196 234 275
#     4  12  21  30  45  73  99 120 153 208 251 275
#     4  10  20  33  47  66  89 121 164 206 243 284
#     4  10  20  33  44  60  91 132 168 194 232 281
#     4   9  18  35  52  60  79 122 168 201 240 289
#
# _framework density 16.787555000000001
#
# number of rings (size 3 to 8) (size 9 to 14) (size 15 to 20)
#    0.000    2.429    1.429    3.857    0.000    2.857 
#    0.000    2.857    0.000    0.000    0.000    0.000 
#    0.000    9.143    0.000   10.286    0.000    0.000 
#
# Total GULP energy -693814.484687 kJ/mol
# GULP energy per Si atom -12389.544369 kJ/mol
# Density = 1.674935 g / cm^3
# Si number density = 16.787555 Si / 1000 Ang^3
#
#
#
# Elastic Constant Matrix: (Units=GPa)
#
#
# Indices 1 2 3 4 5 6 
#
# 1 48.6719 38.1362 13.6848 0.0003 0.0000 0.0000
# 2 38.1362 77.1041 31.7040 0.0001 0.0000 0.0000
# 3 13.6848 31.7040 111.0939 -0.0007 0.0003 0.0001
# 4 0.0003 0.0001 -0.0007 6.1719 0.0000 0.0000
# 5 0.0000 0.0000 0.0003 0.0000 9.4476 0.0000
# 6 0.0000 0.0000 0.0001 0.0000 0.0000 17.0278
#
#
#
# Elastic Compliance Matrix: (Units=1/GPa)
#
#
# Indices 1 2 3 4 5 6 
#
# 1 0.033592 -0.016896 0.000684 -0.000001 0.000000 0.000000
# 2 -0.016896 0.023192 -0.004537 0.000000 0.000000 0.000000
# 3 0.000684 -0.004537 0.010212 0.000001 0.000000 0.000000
# 4 -0.000001 0.000000 0.000001 0.162026 0.000000 0.000000
# 5 0.000000 0.000000 0.000000 0.000000 0.105847 0.000000
# 6 0.000000 0.000000 0.000000 0.000000 0.000000 0.058728
#
#
# Mechanical properties :
#
#
# Convention : Reuss Voigt Hill
#
# Bulk Modulus (GPa) = 39.21999 44.88001 42.05000
# Shear Modulus (GPa) = 11.27156 16.75244 14.01200
#
# Velocity S-wave (km/s) = 2.59400 3.16240 2.89219
# Velocity P-wave (km/s) = 5.69078 6.33455 6.02127
#
# Compressibility (1/GPa) = 0.02549720
#
# Stress axis : x y z
#
# Youngs Moduli (GPa) = 29.76884 43.11820 97.92401
#
# Poissons Ratio (x) = 0.72853 -0.06697
# Poissons Ratio (y) = 0.50298 0.44431
# Poissons Ratio (z) = -0.02036 0.19564
#
# Static dielectric constant tensor:
#      x y z
#    x 2.995450 0.000000 0.000000 
#    y 0.000000 2.746070 0.000000 
#    z 0.000000 0.000000 3.914020 
# 
# 
# High freq. dielectric constant tensor:
#      x y z
#    x 1.620830 0.000000 0.000000 
#    y 0.000000 1.595460 0.000000 
#    z 0.000000 0.000000 1.664470 
# 
# From -- ./inp_files/22446.got.cif
#   From: 2010.03.12/outbox.cif.g09.slc.cpg/sg72_12_cif.got.tgz:22446.got - 2010.04.16 14:54:00.
