data_PCOD8293105
_publ_section_title
;
Structure prediction by ZEFSAII (Michael W. Deem and Ramdas Pophale) SiO2 
 PCOD8293105
Probable space group: I B A M
;
_chemical_formula_sum "Si O2"
_cell_formula_units_Z 80
_cell_length_a 15.989194
_cell_length_b 14.267045
_cell_length_c 13.856212
_cell_angle_alpha 90.000000
_cell_angle_beta 90.000000
_cell_angle_gamma 90.000000
_cell_volume 3160.858994
_symmetry_space_group_name_H-M "I B A M"
_symmetry_group_IT_number 72
_symmetry_cell_setting 'orthorhombic'
loop_
_space_group_symop_operation_xyz
x,y,z
-x,-y,z
x,-y,1/2-z
-x,y,1/2-z
-x,-y,-z
x,y,-z
-x,y,1/2+z
x,-y,1/2+z
1/2+x,1/2+y,1/2+z
1/2-x,1/2-y,1/2+z
1/2+x,1/2-y,-z
1/2-x,1/2+y,-z
1/2-x,1/2-y,1/2-z
1/2+x,1/2+y,1/2-z
1/2-x,1/2+y,z
1/2+x,1/2-y,z
loop_
_atom_site_type_symbol
_atom_site_label
_atom_site_fract_x
_atom_site_fract_y
_atom_site_fract_z
Si Si1 0.603201 0.644215 0.700679
Si Si2 0.726889 0.186700 0.388588
Si Si3 0.599555 0.541151 0.891959
Si Si4 0.776303 0.399097 0.394540
Si Si5 0.090634 0.350974 0.757142
O O1 0.702711 0.639571 0.679619
O O2 0.575525 0.616529 0.809563
O O3 0.561347 0.563969 0.629523
O O4 0.574852 0.751382 0.685596
O O5 0.733878 0.153184 0.500000
O O6 0.735142 0.297645 0.378571
O O7 0.635426 0.161701 0.346414
O O8 0.700528 0.527293 0.883850
O O9 0.574087 0.574409 0.000000
O O10 0.816994 0.406535 0.500000
O O11 0.851536 0.419395 0.320997
O O12 0.000000 0.399158 0.750000
#
# Coordination Sequence:
#
# PCOD8293105 Si02
#       5
#    16  16  16  16  16
#     4  10  19  34  54  80 106 139 185 226 272 322
#     4  10  18  33  54  76 101 137 187 234 270 315
#     4  10  18  31  56  81 103 133 181 236 273 310
#     4   9  17  33  56  77 101 137 186 233 271 313
#     4  11  21  34  51  79 115 147 176 220 278 341
#
# _framework density 25.309574999999999
#
# number of rings (size 3 to 8) (size 9 to 14) (size 15 to 20)
#    0.000    2.000    4.000    1.800    0.000    1.600 
#    0.000    2.000    0.000    3.600    0.000    4.200 
#    0.000    0.000    0.000    0.000    0.000    0.000 
#
# Total GULP energy -495684.366273 kJ/mol
# GULP energy per Si atom -12392.109157 kJ/mol
# Density = 2.525197 g / cm^3
# Si number density = 25.309575 Si / 1000 Ang^3
#
#
#
# Elastic Constant Matrix: (Units=GPa)
#
#
# Indices 1 2 3 4 5 6 
#
# 1 49.2104 -32.3605 5.1133 0.0000 0.0000 0.0000
# 2 -32.3605 51.1582 2.7194 0.0000 0.0000 0.0000
# 3 5.1133 2.7194 142.2787 0.0000 0.0000 0.0000
# 4 0.0000 0.0000 0.0000 21.7750 0.0000 0.0000
# 5 0.0000 0.0000 0.0000 0.0000 22.8503 0.0000
# 6 0.0000 0.0000 0.0000 0.0000 0.0000 29.2778
#
#
#
# Elastic Compliance Matrix: (Units=1/GPa)
#
#
# Indices 1 2 3 4 5 6 
#
# 1 0.035196 0.022354 -0.001692 0.000000 0.000000 0.000000
# 2 0.022354 0.033764 -0.001449 0.000000 0.000000 0.000000
# 3 -0.001692 -0.001449 0.007117 0.000000 0.000000 0.000000
# 4 0.000000 0.000000 0.000000 0.045924 0.000000 0.000000
# 5 0.000000 0.000000 0.000000 0.000000 0.043763 0.000000
# 6 0.000000 0.000000 0.000000 0.000000 0.000000 0.034156
#
#
# Mechanical properties :
#
#
# Convention : Reuss Voigt Hill
#
# Bulk Modulus (GPa) = 8.73339 21.51019 15.12179
# Shear Modulus (GPa) = 25.04225 32.59228 28.81726
#
# Velocity S-wave (km/s) = 3.14895 3.59241 3.37796
# Velocity P-wave (km/s) = 4.08402 5.07193 4.60455
#
# Compressibility (1/GPa) = 0.11450311
#
# Stress axis : x y z
#
# Youngs Moduli (GPa) = 28.41201 29.61720 140.50938
#
# Poissons Ratio (x) = -0.66205 0.23776
# Poissons Ratio (y) = -0.63511 0.20356
# Poissons Ratio (z) = 0.04808 0.04291
#
# Static dielectric constant tensor:
#      x y z
#    x 4.732320 0.000000 0.000000 
#    y 0.000000 4.387730 0.000000 
#    z 0.000000 0.000000 4.615630 
# 
# 
# High freq. dielectric constant tensor:
#      x y z
#    x 2.011760 0.000000 0.000000 
#    y 0.000000 1.989690 0.000000 
#    z 0.000000 0.000000 2.004820 
# 
# From -- ./inp_files/21563.got.cif
#   From: 2010.03.12/outbox.cif.g09.slc.cpg/sg72_11_cif.got.tgz:21563.got - 2010.04.16 14:54:00.
