data_PCOD8293023
_publ_section_title
;
Structure prediction by ZEFSAII (Michael W. Deem and Ramdas Pophale) SiO2 
 PCOD8293023
Probable space group: I B A M
;
_chemical_formula_sum "Si O2"
_cell_formula_units_Z 104
_cell_length_a 30.749579
_cell_length_b 24.621174
_cell_length_c 9.188441
_cell_angle_alpha 90.000000
_cell_angle_beta 90.000000
_cell_angle_gamma 90.000000
_cell_volume 6956.483550
_symmetry_space_group_name_H-M "I B A M"
_symmetry_group_IT_number 72
_symmetry_cell_setting 'orthorhombic'
loop_
_space_group_symop_operation_xyz
x,y,z
-x,-y,z
x,-y,1/2-z
-x,y,1/2-z
-x,-y,-z
x,y,-z
-x,y,1/2+z
x,-y,1/2+z
1/2+x,1/2+y,1/2+z
1/2-x,1/2-y,1/2+z
1/2+x,1/2-y,-z
1/2-x,1/2+y,-z
1/2-x,1/2-y,1/2-z
1/2+x,1/2+y,1/2-z
1/2-x,1/2+y,z
1/2+x,1/2-y,z
loop_
_atom_site_type_symbol
_atom_site_label
_atom_site_fract_x
_atom_site_fract_y
_atom_site_fract_z
Si Si1 0.954898 0.894647 0.833105
Si Si2 0.882779 0.170923 0.832789
Si Si3 0.669351 0.566163 0.154918
Si Si4 0.593135 0.500000 0.250000
Si Si5 0.818006 0.239056 0.330351
Si Si6 0.767935 0.672224 0.331254
Si Si7 0.748766 0.050853 0.669439
O O1 0.924335 0.850699 0.754804
O O2 0.936233 0.955909 0.832739
O O3 0.000000 0.894433 0.750000
O O4 0.961419 0.876877 0.000000
O O5 0.843750 0.128223 0.824374
O O6 0.862568 0.223497 0.752829
O O7 0.895793 0.184151 0.000000
O O8 0.624901 0.531775 0.140518
O O9 0.700020 0.548925 0.288320
O O10 0.694411 0.559317 0.000000
O O11 0.828516 0.245185 0.500000
O O12 0.802634 0.296886 0.268005
O O13 0.780491 0.194426 0.302671
O O14 0.780366 0.680013 0.500000
O O15 0.770741 0.608941 0.284280
O O16 0.744433 0.041619 0.500000
O O17 0.724995 0.000000 0.750000
#
# Coordination Sequence:
#
# PCOD8293023 Si02
#       7
#    16  16  16   8  16  16  16
#     4  11  23  37  51  66  87 113 148 190 236 285
#     4  10  20  33  49  67  87 110 140 179 228 277
#     4  10  19  29  42  61  82 107 143 183 224 270
#     4  10  21  32  48  64  82 112 148 190 236 284
#     4  10  18  30  49  69  88 112 144 183 227 274
#     4   9  19  32  44  63  90 117 145 182 227 271
#     4  11  21  31  43  60  87 118 150 186 227 270
#
# _framework density 14.950082999999999
#
# number of rings (size 3 to 8) (size 9 to 14) (size 15 to 20)
#    0.000    1.846    2.308    2.538    0.000    6.769 
#    0.000    0.000    0.000    0.000    0.000    0.000 
#    0.000    0.000    0.000    0.000    0.000    0.769 
#
# Total GULP energy -644523.114413 kJ/mol
# GULP energy per Si atom -12394.675277 kJ/mol
# Density = 1.491606 g / cm^3
# Si number density = 14.950083 Si / 1000 Ang^3
#
#
#
# Elastic Constant Matrix: (Units=GPa)
#
#
# Indices 1 2 3 4 5 6 
#
# 1 55.8102 37.7036 39.7591 0.0000 0.0000 0.0000
# 2 37.7036 97.1233 51.4543 0.0000 0.0000 0.0000
# 3 39.7591 51.4543 106.2463 0.0000 0.0000 0.0000
# 4 0.0000 0.0000 0.0000 21.8373 0.0000 0.0000
# 5 0.0000 0.0000 0.0000 0.0000 17.9977 0.0000
# 6 0.0000 0.0000 0.0000 0.0000 0.0000 17.8146
#
#
#
# Elastic Compliance Matrix: (Units=1/GPa)
#
#
# Indices 1 2 3 4 5 6 
#
# 1 0.027611 -0.007055 -0.006916 0.000000 0.000000 0.000000
# 2 -0.007055 0.015652 -0.004940 0.000000 0.000000 0.000000
# 3 -0.006916 -0.004940 0.014393 0.000000 0.000000 0.000000
# 4 0.000000 0.000000 0.000000 0.045793 0.000000 0.000000
# 5 0.000000 0.000000 0.000000 0.000000 0.055563 0.000000
# 6 0.000000 0.000000 0.000000 0.000000 0.000000 0.056134
#
#
# Mechanical properties :
#
#
# Convention : Reuss Voigt Hill
#
# Bulk Modulus (GPa) = 50.41872 57.44599 53.93235
# Shear Modulus (GPa) = 19.26207 20.21411 19.73809
#
# Velocity S-wave (km/s) = 3.59336 3.68109 3.63749
# Velocity P-wave (km/s) = 7.14242 7.52169 7.33451
#
# Compressibility (1/GPa) = 0.01983390
#
# Stress axis : x y z
#
# Youngs Moduli (GPa) = 36.21803 63.88934 69.48006
#
# Poissons Ratio (x) = 0.45072 0.48051
# Poissons Ratio (y) = 0.25550 0.34325
# Poissons Ratio (z) = 0.25048 0.31563
#
# Static dielectric constant tensor:
#      x y z
#    x 2.540970 0.000000 0.000000 
#    y 0.000000 2.927830 0.000000 
#    z 0.000000 0.000000 2.960710 
# 
# 
# High freq. dielectric constant tensor:
#      x y z
#    x 1.521260 0.000000 0.000000 
#    y 0.000000 1.558130 0.000000 
#    z 0.000000 0.000000 1.590020 
# 
# From -- ./inp_files/9296.got.cif
#   From: 2010.03.12/outbox.cif.g09.slc.cpg/sg72_5_cif.got.tgz:9296.got - 2010.04.16 14:54:00.
