data_PCOD8293699
_publ_section_title
;
Structure prediction by ZEFSAII (Michael W. Deem and Ramdas Pophale) SiO2 
 PCOD8293699
Probable space group: I B A M
;
_chemical_formula_sum "Si O2"
_cell_formula_units_Z 112
_cell_length_a 22.390959
_cell_length_b 10.813085
_cell_length_c 22.730454
_cell_angle_alpha 90.000000
_cell_angle_beta 90.000000
_cell_angle_gamma 90.000000
_cell_volume 5503.391664
_symmetry_space_group_name_H-M "I B A M"
_symmetry_group_IT_number 72
_symmetry_cell_setting 'orthorhombic'
loop_
_space_group_symop_operation_xyz
x,y,z
-x,-y,z
x,-y,1/2-z
-x,y,1/2-z
-x,-y,-z
x,y,-z
-x,y,1/2+z
x,-y,1/2+z
1/2+x,1/2+y,1/2+z
1/2-x,1/2-y,1/2+z
1/2+x,1/2-y,-z
1/2-x,1/2+y,-z
1/2-x,1/2-y,1/2-z
1/2+x,1/2+y,1/2-z
1/2-x,1/2+y,z
1/2+x,1/2-y,z
loop_
_atom_site_type_symbol
_atom_site_label
_atom_site_fract_x
_atom_site_fract_y
_atom_site_fract_z
Si Si1 0.792055 0.190923 0.063935
Si Si2 0.158994 0.028266 0.342273
Si Si3 0.214133 0.588878 0.854588
Si Si4 0.900550 0.227651 0.350811
Si Si5 0.663530 0.096476 0.934640
Si Si6 0.132326 0.264014 0.721260
Si Si7 0.487468 0.861402 0.318435
O O1 0.842552 0.116940 0.100221
O O2 0.767998 0.312276 0.096180
O O3 0.734068 0.107424 0.056032
O O4 0.819175 0.224438 0.000000
O O5 0.140895 0.115788 0.287255
O O6 0.226622 0.981314 0.333245
O O7 0.110509 0.919565 0.350193
O O8 0.160019 0.509034 0.884277
O O9 0.190677 0.658426 0.796488
O O10 0.868295 0.282303 0.408332
O O11 0.876055 0.288886 0.290399
O O12 0.970789 0.262744 0.353216
O O13 0.635950 0.066407 0.000000
O O14 0.080480 0.314538 0.677347
O O15 0.500000 0.859319 0.250000
O O16 0.500000 0.000000 0.343908
#
# Coordination Sequence:
#
# PCOD8293699 Si02
#       7
#    16  16  16  16  16  16  16
#     4   9  18  34  54  76 110 155 199 232 276 343
#     4  10  21  35  51  85 119 151 185 238 298 350
#     4  10  19  36  54  81 118 150 188 235 296 349
#     4  11  21  37  57  83 115 151 196 240 294 352
#     4  10  20  33  53  81 109 144 193 241 283 339
#     4  10  22  38  56  83 117 154 195 236 292 358
#     4   9  19  37  61  83 105 148 202 245 282 344
#
# _framework density 20.351087
#
# number of rings (size 3 to 8) (size 9 to 14) (size 15 to 20)
#    0.000    2.143    1.429    1.714    0.000    4.000 
#    5.143    2.143    0.000    7.286    0.000    5.000 
#    0.000    0.000    0.000    0.000    0.000    0.000 
#
# Total GULP energy -693974.868731 kJ/mol
# GULP energy per Si atom -12392.408370 kJ/mol
# Density = 2.030477 g / cm^3
# Si number density = 20.351087 Si / 1000 Ang^3
#
#
#
# Elastic Constant Matrix: (Units=GPa)
#
#
# Indices 1 2 3 4 5 6 
#
# 1 68.0453 33.9891 14.0071 0.0000 0.0000 0.0000
# 2 33.9891 103.8558 8.2521 0.0000 0.0000 0.0000
# 3 14.0071 8.2521 65.4815 0.0000 0.0000 0.0000
# 4 0.0000 0.0000 0.0000 15.2382 0.0000 0.0000
# 5 0.0000 0.0000 0.0000 0.0000 12.5819 0.0000
# 6 0.0000 0.0000 0.0000 0.0000 0.0000 36.2944
#
#
#
# Elastic Compliance Matrix: (Units=1/GPa)
#
#
# Indices 1 2 3 4 5 6 
#
# 1 0.018198 -0.005704 -0.003174 0.000000 0.000000 0.000000
# 2 -0.005704 0.011514 -0.000231 0.000000 0.000000 0.000000
# 3 -0.003174 -0.000231 0.015980 0.000000 0.000000 0.000000
# 4 0.000000 0.000000 0.000000 0.065625 0.000000 0.000000
# 5 0.000000 0.000000 0.000000 0.000000 0.079479 0.000000
# 6 0.000000 0.000000 0.000000 0.000000 0.000000 0.027552
#
#
# Mechanical properties :
#
#
# Convention : Reuss Voigt Hill
#
# Bulk Modulus (GPa) = 36.39733 38.87546 37.63640
# Shear Modulus (GPa) = 20.34806 24.89852 22.62329
#
# Velocity S-wave (km/s) = 3.16547 3.50158 3.33776
# Velocity P-wave (km/s) = 5.59319 5.95751 5.77822
#
# Compressibility (1/GPa) = 0.02747454
#
# Stress axis : x y z
#
# Youngs Moduli (GPa) = 54.94959 86.85286 62.58003
#
# Poissons Ratio (x) = 0.49538 0.19863
# Poissons Ratio (y) = 0.31341 0.01445
# Poissons Ratio (z) = 0.17441 0.02006
#
# Static dielectric constant tensor:
#      x y z
#    x 3.593640 0.000000 0.000000 
#    y 0.000000 3.814880 0.000000 
#    z 0.000000 0.000000 3.812560 
# 
# 
# High freq. dielectric constant tensor:
#      x y z
#    x 1.761720 0.000000 0.000000 
#    y 0.000000 1.802550 0.000000 
#    z 0.000000 0.000000 1.783390 
# 
# From -- ./inp_files/45438.got.cif
#   From: 2010.03.12/outbox.cif.g09.slc.cpg/sg72_23_cif.got.tgz:45438.got - 2010.04.16 14:54:00.
