data_PCOD8293047
_publ_section_title
;
Structure prediction by ZEFSAII (Michael W. Deem and Ramdas Pophale) SiO2 
 PCOD8293047
Probable space group: I B A M
;
_chemical_formula_sum "Si O2"
_cell_formula_units_Z 112
_cell_length_a 26.005327
_cell_length_b 12.197015
_cell_length_c 19.249283
_cell_angle_alpha 90.000000
_cell_angle_beta 90.000000
_cell_angle_gamma 90.000000
_cell_volume 6105.629324
_symmetry_space_group_name_H-M "I B A M"
_symmetry_group_IT_number 72
_symmetry_cell_setting 'orthorhombic'
loop_
_space_group_symop_operation_xyz
x,y,z
-x,-y,z
x,-y,1/2-z
-x,y,1/2-z
-x,-y,-z
x,y,-z
-x,y,1/2+z
x,-y,1/2+z
1/2+x,1/2+y,1/2+z
1/2-x,1/2-y,1/2+z
1/2+x,1/2-y,-z
1/2-x,1/2+y,-z
1/2-x,1/2-y,1/2-z
1/2+x,1/2+y,1/2-z
1/2-x,1/2+y,z
1/2+x,1/2-y,z
loop_
_atom_site_type_symbol
_atom_site_label
_atom_site_fract_x
_atom_site_fract_y
_atom_site_fract_z
Si Si1 0.315942 0.651946 0.077303
Si Si2 0.325591 0.545649 0.325065
Si Si3 0.416830 0.792347 0.924545
Si Si4 0.621041 0.111316 0.791760
Si Si5 0.733131 0.805477 0.320909
Si Si6 0.481296 0.379442 0.352938
Si Si7 0.579084 0.674935 0.776657
O O1 0.335850 0.545165 0.117044
O O2 0.361738 0.736937 0.072632
O O3 0.271463 0.709186 0.122193
O O4 0.295828 0.621773 0.000000
O O5 0.309972 0.500000 0.250000
O O6 0.277532 0.617074 0.350719
O O7 0.377998 0.612503 0.320136
O O8 0.413918 0.882885 0.862610
O O9 0.458769 0.695597 0.914001
O O10 0.428510 0.847424 0.000000
O O11 0.681043 0.125068 0.809846
O O12 0.602391 0.208227 0.742261
O O13 0.610961 0.000000 0.750000
O O14 0.750000 0.750000 0.250000
O O15 0.500000 0.500000 0.377967
O O16 0.437518 0.392805 0.292843
O O17 0.529304 0.309864 0.324305
#
# Coordination Sequence:
#
# PCOD8293047 Si02
#       7
#    16  16  16  16  16  16  16
#     4  10  22  37  52  78 112 145 174 215 276 331
#     4  12  19  31  57  79 108 141 182 224 268 318
#     4   9  19  37  56  78 110 142 182 224 269 330
#     4  10  20  35  56  79 106 141 185 226 271 320
#     4  11  20  33  55  82 105 137 186 230 261 312
#     4  10  18  30  52  82 111 143 177 222 277 321
#     4  10  19  31  49  80 112 135 178 232 273 312
#
# _framework density 18.343727999999999
#
# number of rings (size 3 to 8) (size 9 to 14) (size 15 to 20)
#    0.000    1.714    2.857    4.714    0.000    0.857 
#    0.000    6.429    0.000    2.571    0.000    0.000 
#    0.000    0.000    0.000    0.000    0.000    0.000 
#
# Total GULP energy -694203.531292 kJ/mol
# GULP energy per Si atom -12396.491630 kJ/mol
# Density = 1.830198 g / cm^3
# Si number density = 18.343728 Si / 1000 Ang^3
#
#
#
# Elastic Constant Matrix: (Units=GPa)
#
#
# Indices 1 2 3 4 5 6 
#
# 1 72.3665 23.6272 26.5639 0.0000 0.0000 0.0000
# 2 23.6272 89.4019 54.1681 0.0000 0.0000 0.0000
# 3 26.5639 54.1681 136.7572 0.0000 0.0000 0.0000
# 4 0.0000 0.0000 0.0000 24.8666 0.0000 0.0000
# 5 0.0000 0.0000 0.0000 0.0000 12.0668 0.0000
# 6 0.0000 0.0000 0.0000 0.0000 0.0000 24.2065
#
#
#
# Elastic Compliance Matrix: (Units=1/GPa)
#
#
# Indices 1 2 3 4 5 6 
#
# 1 0.015461 -0.002982 -0.001822 0.000000 0.000000 0.000000
# 2 -0.002982 0.015293 -0.005478 0.000000 0.000000 0.000000
# 3 -0.001822 -0.005478 0.009836 0.000000 0.000000 0.000000
# 4 0.000000 0.000000 0.000000 0.040215 0.000000 0.000000
# 5 0.000000 0.000000 0.000000 0.000000 0.082872 0.000000
# 6 0.000000 0.000000 0.000000 0.000000 0.000000 0.041311
#
#
# Mechanical properties :
#
#
# Convention : Reuss Voigt Hill
#
# Bulk Modulus (GPa) = 49.93673 56.36048 53.14860
# Shear Modulus (GPa) = 21.53068 25.17242 23.35155
#
# Velocity S-wave (km/s) = 3.42970 3.70843 3.57178
# Velocity P-wave (km/s) = 6.55482 7.00913 6.78578
#
# Compressibility (1/GPa) = 0.02002534
#
# Stress axis : x y z
#
# Youngs Moduli (GPa) = 64.67893 65.39089 101.66821
#
# Poissons Ratio (x) = 0.19500 0.18524
# Poissons Ratio (y) = 0.19288 0.55694
# Poissons Ratio (z) = 0.11784 0.35821
#
# Static dielectric constant tensor:
#      x y z
#    x 3.564440 0.000000 0.000000 
#    y 0.000000 3.353940 0.000000 
#    z 0.000000 0.000000 3.745040 
# 
# 
# High freq. dielectric constant tensor:
#      x y z
#    x 1.716130 0.000000 0.000000 
#    y 0.000000 1.692640 0.000000 
#    z 0.000000 0.000000 1.696890 
# 
# From -- ./inp_files/40868.got.cif
#   From: 2010.03.12/outbox.cif.g09.slc.cpg/sg72_21_cif.got.tgz:40868.got - 2010.04.16 14:54:00.
