data_PCOD8293977
_publ_section_title
;
Structure prediction by ZEFSAII (Michael W. Deem and Ramdas Pophale) SiO2 
 PCOD8293977
Probable space group: I B A M
;
_chemical_formula_sum "Si O2"
_cell_formula_units_Z 96
_cell_length_a 23.631531
_cell_length_b 11.789320
_cell_length_c 17.774751
_cell_angle_alpha 90.000000
_cell_angle_beta 90.000000
_cell_angle_gamma 90.000000
_cell_volume 4952.039959
_symmetry_space_group_name_H-M "I B A M"
_symmetry_group_IT_number 72
_symmetry_cell_setting 'orthorhombic'
loop_
_space_group_symop_operation_xyz
x,y,z
-x,-y,z
x,-y,1/2-z
-x,y,1/2-z
-x,-y,-z
x,y,-z
-x,y,1/2+z
x,-y,1/2+z
1/2+x,1/2+y,1/2+z
1/2-x,1/2-y,1/2+z
1/2+x,1/2-y,-z
1/2-x,1/2+y,-z
1/2-x,1/2-y,1/2-z
1/2+x,1/2+y,1/2-z
1/2-x,1/2+y,z
1/2+x,1/2-y,z
loop_
_atom_site_type_symbol
_atom_site_label
_atom_site_fract_x
_atom_site_fract_y
_atom_site_fract_z
Si Si1 0.575340 0.311943 0.825788
Si Si2 0.831724 0.632480 0.830569
Si Si3 0.850458 0.619446 0.343522
Si Si4 0.447461 0.279710 0.843347
Si Si5 0.115136 0.971255 0.085300
Si Si6 0.218031 0.817034 0.913013
O O1 0.619185 0.218430 0.854387
O O2 0.514344 0.266196 0.852391
O O3 0.572742 0.331583 0.736483
O O4 0.594508 0.430410 0.860239
O O5 0.827272 0.629009 0.740951
O O6 0.846245 0.511213 0.868131
O O7 0.772684 0.677087 0.861441
O O8 0.916270 0.657892 0.350953
O O9 0.812593 0.697720 0.397115
O O10 0.427972 0.366224 0.907824
O O11 0.177496 0.924021 0.106884
O O12 0.114149 0.015924 0.000000
O O13 0.235628 0.819662 0.000000
#
# Coordination Sequence:
#
# PCOD8293977 Si02
#       6
#    16  16  16  16  16  16
#     4  10  20  34  57  85 112 142 185 231 275 334
#     4  10  21  36  57  84 110 144 186 227 277 330
#     4   9  20  39  57  80 111 144 185 224 281 334
#     4   9  19  37  57  81 112 146 181 227 283 331
#     4  10  21  36  54  80 112 148 187 230 280 326
#     4  10  22  38  56  78 111 152 188 229 278 327
#
# _framework density 19.385950000000001
#
# number of rings (size 3 to 8) (size 9 to 14) (size 15 to 20)
#    0.000    2.333    0.000    1.500    2.333    4.667 
#    6.000    3.333    0.000    0.000    0.000    7.000 
#    0.000    0.000    0.000    0.000    0.000    0.000 
#
# Total GULP energy -595164.190480 kJ/mol
# GULP energy per Si atom -12399.253968 kJ/mol
# Density = 1.934183 g / cm^3
# Si number density = 19.385950 Si / 1000 Ang^3
#
#
#
# Elastic Constant Matrix: (Units=GPa)
#
#
# Indices 1 2 3 4 5 6 
#
# 1 136.3710 34.0508 26.6712 0.0000 0.0000 0.0000
# 2 34.0508 81.3028 11.9110 0.0000 0.0000 0.0000
# 3 26.6712 11.9110 31.4252 0.0000 0.0000 0.0000
# 4 0.0000 0.0000 0.0000 14.5939 0.0000 0.0000
# 5 0.0000 0.0000 0.0000 0.0000 17.5041 0.0000
# 6 0.0000 0.0000 0.0000 0.0000 0.0000 23.7090
#
#
#
# Elastic Compliance Matrix: (Units=1/GPa)
#
#
# Indices 1 2 3 4 5 6 
#
# 1 0.009410 -0.002934 -0.006874 0.000000 0.000000 0.000000
# 2 -0.002934 0.013938 -0.002793 0.000000 0.000000 0.000000
# 3 -0.006874 -0.002793 0.038715 0.000000 0.000000 0.000000
# 4 0.000000 0.000000 0.000000 0.068522 0.000000 0.000000
# 5 0.000000 0.000000 0.000000 0.000000 0.057130 0.000000
# 6 0.000000 0.000000 0.000000 0.000000 0.000000 0.042178
#
#
# Mechanical properties :
#
#
# Convention : Reuss Voigt Hill
#
# Bulk Modulus (GPa) = 27.12959 43.81835 35.47397
# Shear Modulus (GPa) = 18.69996 22.92578 20.81287
#
# Velocity S-wave (km/s) = 3.10919 3.44262 3.28015
# Velocity P-wave (km/s) = 5.18790 6.20116 5.71702
#
# Compressibility (1/GPa) = 0.03686012
#
# Stress axis : x y z
#
# Youngs Moduli (GPa) = 106.26981 71.74833 25.83011
#
# Poissons Ratio (x) = 0.21051 0.17757
# Poissons Ratio (y) = 0.31179 0.07213
# Poissons Ratio (z) = 0.73054 0.20037
#
# Static dielectric constant tensor:
#      x y z
#    x 3.601230 0.000000 0.000000 
#    y 0.000000 3.580060 0.000000 
#    z 0.000000 0.000000 3.466430 
# 
# 
# High freq. dielectric constant tensor:
#      x y z
#    x 1.760250 0.000000 0.000000 
#    y 0.000000 1.752880 0.000000 
#    z 0.000000 0.000000 1.743170 
# 
# From -- ./inp_files/33299.got.cif
#   From: 2010.03.12/outbox.cif.g09.slc.cpg/sg72_17_cif.got.tgz:33299.got - 2010.04.16 14:54:00.
