data_PCOD8293834
_publ_section_title
;
Structure prediction by ZEFSAII (Michael W. Deem and Ramdas Pophale) SiO2 
 PCOD8293834
Probable space group: I B A M
;
_chemical_formula_sum "Si O2"
_cell_formula_units_Z 96
_cell_length_a 30.243618
_cell_length_b 20.029556
_cell_length_c 9.432911
_cell_angle_alpha 90.000000
_cell_angle_beta 90.000000
_cell_angle_gamma 90.000000
_cell_volume 5714.139032
_symmetry_space_group_name_H-M "I B A M"
_symmetry_group_IT_number 72
_symmetry_cell_setting 'orthorhombic'
loop_
_space_group_symop_operation_xyz
x,y,z
-x,-y,z
x,-y,1/2-z
-x,y,1/2-z
-x,-y,-z
x,y,-z
-x,y,1/2+z
x,-y,1/2+z
1/2+x,1/2+y,1/2+z
1/2-x,1/2-y,1/2+z
1/2+x,1/2-y,-z
1/2-x,1/2+y,-z
1/2-x,1/2-y,1/2-z
1/2+x,1/2+y,1/2-z
1/2-x,1/2+y,z
1/2+x,1/2-y,z
loop_
_atom_site_type_symbol
_atom_site_label
_atom_site_fract_x
_atom_site_fract_y
_atom_site_fract_z
Si Si1 0.460917 0.329780 0.844582
Si Si2 0.539527 0.828792 0.842847
Si Si3 0.864062 0.678097 0.668194
Si Si4 0.138354 0.171069 0.331625
Si Si5 0.804250 0.933630 0.833701
Si Si6 0.298484 0.935225 0.336027
O O1 0.500000 0.361252 0.750000
O O2 0.464979 0.250508 0.850331
O O3 0.411916 0.349287 0.790973
O O4 0.468034 0.360163 0.000000
O O5 0.500000 0.860238 0.750000
O O6 0.587645 0.845474 0.774557
O O7 0.535092 0.859526 0.000000
O O8 0.867867 0.679448 0.500000
O O9 0.852246 0.752890 0.717420
O O10 0.826458 0.627590 0.722252
O O11 0.147024 0.161191 0.500000
O O12 0.170520 0.127544 0.236303
O O13 0.752645 0.918754 0.811324
O O14 0.818469 0.000000 0.750000
O O15 0.816033 0.941131 0.000000
O O16 0.308807 0.948989 0.500000
O O17 0.313548 0.000000 0.250000
#
# Coordination Sequence:
#
# PCOD8293834 Si02
#       6
#    16  16  16  16  16  16
#     4   8  14  24  40  63  90 119 148 178 216 263
#     4   8  13  23  40  62  88 118 149 180 218 264
#     4   8  15  29  48  68  93 124 152 183 229 276
#     4   9  17  30  48  70  95 122 151 184 226 273
#     4  10  20  33  49  68  90 119 154 190 228 271
#     4   9  18  33  50  67  89 120 157 191 226 272
#
# _framework density 16.800432000000001
#
# number of rings (size 3 to 8) (size 9 to 14) (size 15 to 20)
#    0.000    3.333    0.000    2.500    0.000    2.000 
#    0.000    4.167    0.000    1.000    0.000    7.000 
#    0.000    0.000    0.000    0.000    0.000    0.000 
#
# Total GULP energy -594875.589962 kJ/mol
# GULP energy per Si atom -12393.241458 kJ/mol
# Density = 1.676219 g / cm^3
# Si number density = 16.800432 Si / 1000 Ang^3
#
#
#
# Elastic Constant Matrix: (Units=GPa)
#
#
# Indices 1 2 3 4 5 6 
#
# 1 108.8395 68.8526 56.0493 0.0000 0.0000 0.0000
# 2 68.8526 87.3818 47.1459 0.0000 0.0000 0.0000
# 3 56.0493 47.1459 73.2730 0.0000 0.0000 0.0000
# 4 0.0000 0.0000 0.0000 20.4957 0.0000 0.0000
# 5 0.0000 0.0000 0.0000 0.0000 25.8261 0.0000
# 6 0.0000 0.0000 0.0000 0.0000 0.0000 1.6584
#
#
#
# Elastic Compliance Matrix: (Units=1/GPa)
#
#
# Indices 1 2 3 4 5 6 
#
# 1 0.021223 -0.012198 -0.008385 0.000000 0.000000 0.000000
# 2 -0.012198 0.024541 -0.006459 0.000000 0.000000 0.000000
# 3 -0.008385 -0.006459 0.024218 0.000000 0.000000 0.000000
# 4 0.000000 0.000000 0.000000 0.048791 0.000000 0.000000
# 5 0.000000 0.000000 0.000000 0.000000 0.038720 0.000000
# 6 0.000000 0.000000 0.000000 0.000000 0.000000 0.603002
#
#
# Mechanical properties :
#
#
# Convention : Reuss Voigt Hill
#
# Bulk Modulus (GPa) = 62.91050 68.17666 65.54358
# Shear Modulus (GPa) = 6.09846 16.09248 11.09547
#
# Velocity S-wave (km/s) = 1.90731 3.09829 2.57267
# Velocity P-wave (km/s) = 6.50980 7.31215 6.92261
#
# Compressibility (1/GPa) = 0.01589560
#
# Stress axis : x y z
#
# Youngs Moduli (GPa) = 47.11914 40.74873 41.29168
#
# Poissons Ratio (x) = 0.49706 0.34625
# Poissons Ratio (y) = 0.57477 0.26671
# Poissons Ratio (z) = 0.39511 0.26320
#
# Static dielectric constant tensor:
#      x y z
#    x 3.391870 0.000000 0.000000 
#    y 0.000000 2.898760 0.000000 
#    z 0.000000 0.000000 3.197890 
# 
# 
# High freq. dielectric constant tensor:
#      x y z
#    x 1.657440 0.000000 0.000000 
#    y 0.000000 1.609950 0.000000 
#    z 0.000000 0.000000 1.633220 
# 
# From -- ./inp_files/6021.got.cif
#   From: 2010.03.12/outbox.cif.g09.slc.cpg/sg72_4_cif.got.tgz:6021.got - 2010.04.16 14:54:00.
