data_PCOD8293256
_publ_section_title
;
Structure prediction by ZEFSAII (Michael W. Deem and Ramdas Pophale) SiO2 
 PCOD8293256
Probable space group: I B A M
;
_chemical_formula_sum "Si O2"
_cell_formula_units_Z 112
_cell_length_a 15.473339
_cell_length_b 27.573505
_cell_length_c 16.381096
_cell_angle_alpha 90.000000
_cell_angle_beta 90.000000
_cell_angle_gamma 90.000000
_cell_volume 6989.063250
_symmetry_space_group_name_H-M "I B A M"
_symmetry_group_IT_number 72
_symmetry_cell_setting 'orthorhombic'
loop_
_space_group_symop_operation_xyz
x,y,z
-x,-y,z
x,-y,1/2-z
-x,y,1/2-z
-x,-y,-z
x,y,-z
-x,y,1/2+z
x,-y,1/2+z
1/2+x,1/2+y,1/2+z
1/2-x,1/2-y,1/2+z
1/2+x,1/2-y,-z
1/2-x,1/2+y,-z
1/2-x,1/2-y,1/2-z
1/2+x,1/2+y,1/2-z
1/2-x,1/2+y,z
1/2+x,1/2-y,z
loop_
_atom_site_type_symbol
_atom_site_label
_atom_site_fract_x
_atom_site_fract_y
_atom_site_fract_z
Si Si1 0.475658 0.612364 0.343380
Si Si2 0.360216 0.303004 0.165726
Si Si3 0.595945 0.793409 0.746506
Si Si4 0.904687 0.979410 0.590103
Si Si5 0.302999 0.240880 0.593202
Si Si6 0.155198 0.079937 0.094366
Si Si7 0.741012 0.662555 0.682063
O O1 0.500000 0.617813 0.250000
O O2 0.431218 0.661970 0.375583
O O3 0.406885 0.567926 0.352428
O O4 0.561234 0.604740 0.396547
O O5 0.406328 0.255643 0.201074
O O6 0.286803 0.288466 0.101063
O O7 0.319236 0.333268 0.239524
O O8 0.500000 0.815973 0.750000
O O9 0.626070 0.782501 0.653747
O O10 0.659832 0.831519 0.790003
O O11 0.871295 0.964197 0.500000
O O12 0.846431 0.023743 0.625916
O O13 0.000000 0.000000 0.581930
O O14 0.336156 0.237505 0.500000
O O15 0.285729 0.296629 0.616521
O O16 0.228010 0.109418 0.143616
O O17 0.180396 0.080577 0.000000
#
# Coordination Sequence:
#
# PCOD8293256 Si02
#       7
#    16  16  16  16  16  16  16
#     4  11  18  27  45  66  94 125 167 187 227 276
#     4   9  18  30  44  65  91 121 153 189 229 282
#     4   9  18  32  50  64  92 122 152 195 248 283
#     4   8  17  30  39  57  90 125 154 191 226 252
#     4   9  18  31  47  65  90 119 155 199 239 275
#     4  10  19  30  44  62  91 128 163 194 228 269
#     4   9  17  32  45  63  86 121 155 190 236 284
#
# _framework density 16.025037000000001
#
# number of rings (size 3 to 8) (size 9 to 14) (size 15 to 20)
#    0.000    2.714    1.429    3.857    2.000    3.714 
#    0.000    3.571    0.000    0.000    0.000    0.000 
#    0.000    9.143    0.000   13.857    0.000    0.000 
#
# Total GULP energy -694056.980792 kJ/mol
# GULP energy per Si atom -12393.874657 kJ/mol
# Density = 1.598856 g / cm^3
# Si number density = 16.025037 Si / 1000 Ang^3
#
#
#
# Elastic Constant Matrix: (Units=GPa)
#
#
# Indices 1 2 3 4 5 6 
#
# 1 78.6881 33.6928 21.5304 0.0000 0.0000 0.0000
# 2 33.6928 80.8169 16.7243 0.0001 0.0000 0.0000
# 3 21.5304 16.7243 54.7663 0.0001 0.0000 0.0000
# 4 0.0000 0.0001 0.0001 14.2234 0.0000 0.0000
# 5 0.0000 0.0000 0.0000 0.0000 15.6644 0.0000
# 6 0.0000 0.0000 0.0000 0.0000 0.0000 27.4874
#
#
#
# Elastic Compliance Matrix: (Units=1/GPa)
#
#
# Indices 1 2 3 4 5 6 
#
# 1 0.016526 -0.005919 -0.004689 0.000000 0.000000 0.000000
# 2 -0.005919 0.015329 -0.002354 0.000000 0.000000 0.000000
# 3 -0.004689 -0.002354 0.020822 0.000000 0.000000 0.000000
# 4 0.000000 0.000000 0.000000 0.070307 0.000000 0.000000
# 5 0.000000 0.000000 0.000000 0.000000 0.063839 0.000000
# 6 0.000000 0.000000 0.000000 0.000000 0.000000 0.036380
#
#
# Mechanical properties :
#
#
# Convention : Reuss Voigt Hill
#
# Bulk Modulus (GPa) = 37.38140 39.79626 38.58883
# Shear Modulus (GPa) = 19.37652 20.96330 20.16991
#
# Velocity S-wave (km/s) = 3.48104 3.62077 3.55159
# Velocity P-wave (km/s) = 6.28764 6.50905 6.39930
#
# Compressibility (1/GPa) = 0.02675127
#
# Stress axis : x y z
#
# Youngs Moduli (GPa) = 60.51060 65.23776 48.02673
#
# Poissons Ratio (x) = 0.38616 0.22521
# Poissons Ratio (y) = 0.35818 0.11305
# Poissons Ratio (z) = 0.28375 0.15356
#
# Static dielectric constant tensor:
#      x y z
#    x 2.838100 0.000000 0.000000 
#    y 0.000000 3.155550 0.000000 
#    z 0.000000 0.000000 2.959070 
# 
# 
# High freq. dielectric constant tensor:
#      x y z
#    x 1.578170 0.000000 0.000000 
#    y 0.000000 1.603070 0.000000 
#    z 0.000000 0.000000 1.611860 
# 
# From -- ./inp_files/22439.got.cif
#   From: 2010.03.12/outbox.cif.g09.slc.cpg/sg72_12_cif.got.tgz:22439.got - 2010.04.16 14:54:00.
