data_PCOD8293162
_publ_section_title
;
Structure prediction by ZEFSAII (Michael W. Deem and Ramdas Pophale) SiO2 
 PCOD8293162
Probable space group: I B A M
;
_chemical_formula_sum "Si O2"
_cell_formula_units_Z 116
_cell_length_a 27.520123
_cell_length_b 10.763633
_cell_length_c 21.240919
_cell_angle_alpha 90.000000
_cell_angle_beta 90.000000
_cell_angle_gamma 90.000000
_cell_volume 6291.910770
_symmetry_space_group_name_H-M "I B A M"
_symmetry_group_IT_number 72
_symmetry_cell_setting 'orthorhombic'
loop_
_space_group_symop_operation_xyz
x,y,z
-x,-y,z
x,-y,1/2-z
-x,y,1/2-z
-x,-y,-z
x,y,-z
-x,y,1/2+z
x,-y,1/2+z
1/2+x,1/2+y,1/2+z
1/2-x,1/2-y,1/2+z
1/2+x,1/2-y,-z
1/2-x,1/2+y,-z
1/2-x,1/2-y,1/2-z
1/2+x,1/2+y,1/2-z
1/2-x,1/2+y,z
1/2+x,1/2-y,z
loop_
_atom_site_type_symbol
_atom_site_label
_atom_site_fract_x
_atom_site_fract_y
_atom_site_fract_z
Si Si1 0.040522 0.311670 0.569445
Si Si2 0.450526 0.181688 0.658010
Si Si3 0.217996 0.148609 0.573892
Si Si4 0.445012 0.453594 0.316096
Si Si5 0.213221 0.428809 0.425205
Si Si6 0.500000 0.000000 0.250000
Si Si7 0.391677 0.583644 0.572517
Si Si8 0.889470 0.466614 0.428488
O O1 0.018917 0.292860 0.500000
O O2 0.083408 0.215734 0.582621
O O3 0.062843 0.447989 0.576366
O O4 0.997018 0.290161 0.615864
O O5 0.440157 0.307431 0.694353
O O6 0.462633 0.078198 0.708835
O O7 0.402589 0.147603 0.617168
O O8 0.226814 0.156453 0.500000
O O9 0.227046 0.289790 0.601123
O O10 0.164250 0.102648 0.589552
O O11 0.253450 0.041386 0.602420
O O12 0.500000 0.500000 0.325589
O O13 0.422742 0.500000 0.250000
O O14 0.414250 0.487350 0.378126
O O15 0.217827 0.423931 0.500000
O O16 0.158110 0.460483 0.404982
O O17 0.398273 0.536349 0.500000
O O18 0.881544 0.419125 0.500000
#
# Coordination Sequence:
#
# PCOD8293162 Si02
#       8
#    16  16  16  16  16   4  16  16
#     4  10  18  33  55  79 110 144 180 222 273 324
#     4  12  23  36  55  79 106 144 189 228 269 327
#     4   9  17  31  52  81 113 146 186 227 279 335
#     4  11  24  40  55  77 112 151 187 228 278 332
#     4   9  17  30  51  80 115 149 179 226 284 338
#     4  12  24  36  52  76 104 144 196 232 264 324
#     4  10  20  35  58  83 110 150 189 225 274 331
#     4  10  19  33  53  81 112 141 178 227 283 327
#
# _framework density 18.436371000000001
#
# number of rings (size 3 to 8) (size 9 to 14) (size 15 to 20)
#    0.000    1.793    4.138    1.241    0.000    3.586 
#    0.000    2.759    0.000    0.000    1.793    1.931 
#    0.000    0.000    0.000    0.000    0.000    0.000 
#
# Total GULP energy -718912.865323 kJ/mol
# GULP energy per Si atom -12395.049402 kJ/mol
# Density = 1.839441 g / cm^3
# Si number density = 18.436371 Si / 1000 Ang^3
#
#
#
# Elastic Constant Matrix: (Units=GPa)
#
#
# Indices 1 2 3 4 5 6 
#
# 1 74.9796 39.3808 34.1861 0.0000 0.0000 0.0000
# 2 39.3808 131.3626 47.3366 0.0000 0.0000 0.0000
# 3 34.1861 47.3366 78.6223 0.0000 0.0000 0.0000
# 4 0.0000 0.0000 0.0000 20.0340 0.0000 0.0000
# 5 0.0000 0.0000 0.0000 0.0000 -6.5010 0.0000
# 6 0.0000 0.0000 0.0000 0.0000 0.0000 26.6333
#
#
#
# Elastic Compliance Matrix: (Units=1/GPa)
#
#
# Indices 1 2 3 4 5 6 
#
# 1 0.017643 -0.003224 -0.005730 0.000000 0.000000 0.000000
# 2 -0.003224 0.010311 -0.004806 0.000000 0.000000 0.000000
# 3 -0.005730 -0.004806 0.018104 0.000000 0.000000 0.000000
# 4 0.000000 0.000000 0.000000 0.049915 0.000000 0.000000
# 5 0.000000 0.000000 0.000000 0.000000 -0.153823 0.000000
# 6 0.000000 0.000000 0.000000 0.000000 0.000000 0.037547
#
#
# Mechanical properties :
#
#
# Convention : Reuss Voigt Hill
#
# Bulk Modulus (GPa) = 53.94549 58.53015 56.23782
# Shear Modulus (GPa) = 373.20067 18.97065 196.08566
#
# Velocity S-wave (km/s) = 14.24310 3.21125 10.32419
# Velocity P-wave (km/s) = 17.31507 6.75023 13.14110
#
# Compressibility (1/GPa) = 0.01853723
#
# Stress axis : x y z
#
# Youngs Moduli (GPa) = 56.67960 96.98418 55.23584
#
# Poissons Ratio (x) = 0.31270 0.31651
# Poissons Ratio (y) = 0.18275 0.26546
# Poissons Ratio (z) = 0.32478 0.46611
#
# Static dielectric constant tensor:
#      x y z
#    x 3.333870 0.000000 0.000000 
#    y 0.000000 3.669080 0.000000 
#    z 0.000000 0.000000 3.219900 
# 
# 
# High freq. dielectric constant tensor:
#      x y z
#    x 1.702870 0.000000 0.000000 
#    y 0.000000 1.726360 0.000000 
#    z 0.000000 0.000000 1.678500 
# 
# From -- ./inp_files/34335.got.cif
#   From: 2010.03.12/outbox.cif.g09.slc.cpg/sg72_18_cif.got.tgz:34335.got - 2010.04.16 14:54:00.
