data_PCOD8293206
_publ_section_title
;
Structure prediction by ZEFSAII (Michael W. Deem and Ramdas Pophale) SiO2 
 PCOD8293206
Probable space group: I B A M
;
_chemical_formula_sum "Si O2"
_cell_formula_units_Z 60
_cell_length_a 14.290755
_cell_length_b 16.827766
_cell_length_c 14.084603
_cell_angle_alpha 90.000000
_cell_angle_beta 90.000000
_cell_angle_gamma 90.000000
_cell_volume 3387.086190
_symmetry_space_group_name_H-M "I B A M"
_symmetry_group_IT_number 72
_symmetry_cell_setting 'orthorhombic'
loop_
_space_group_symop_operation_xyz
x,y,z
-x,-y,z
x,-y,1/2-z
-x,y,1/2-z
-x,-y,-z
x,y,-z
-x,y,1/2+z
x,-y,1/2+z
1/2+x,1/2+y,1/2+z
1/2-x,1/2-y,1/2+z
1/2+x,1/2-y,-z
1/2-x,1/2+y,-z
1/2-x,1/2-y,1/2-z
1/2+x,1/2+y,1/2-z
1/2-x,1/2+y,z
1/2+x,1/2-y,z
loop_
_atom_site_type_symbol
_atom_site_label
_atom_site_fract_x
_atom_site_fract_y
_atom_site_fract_z
Si Si1 0.000000 0.000000 0.750000
Si Si2 0.714530 0.297631 0.500000
Si Si3 0.358741 0.436417 0.104497
Si Si4 0.385180 0.133471 0.000000
Si Si5 0.339678 0.999693 0.857714
Si Si6 0.404933 0.128006 0.500000
O O1 0.939102 0.942375 0.683244
O O2 0.675093 0.344340 0.406412
O O3 0.685031 0.207099 0.500000
O O4 0.827950 0.301753 0.500000
O O5 0.272053 0.490971 0.135684
O O6 0.393397 0.466499 0.000000
O O7 0.367131 0.082776 0.905647
O O8 0.491860 0.165700 0.000000
O O9 0.373998 0.000000 0.750000
O O10 0.392551 0.927371 0.908101
#
# Coordination Sequence:
#
# PCOD8293206 Si02
#       6
#     4   8  16   8  16   8
#     4  12  18  32  64  86 102 156 204 212 272 346
#     4   8  20  41  50  79 123 142 174 240 284 328
#     4   9  19  36  55  81 116 145 188 236 270 324
#     4  11  20  37  60  81 111 156 183 221 307 334
#     4  10  18  35  60  82 108 143 196 236 273 328
#     4   9  20  37  56  81 112 144 187 241 269 338
#
# _framework density 17.714341000000001
#
# number of rings (size 3 to 8) (size 9 to 14) (size 15 to 20)
#    0.800    1.600    4.000    2.000    0.000    2.133 
#    4.800    8.000    0.000    0.000    0.000    0.000 
#    0.000    0.000    0.000    0.000    0.000    0.000 
#
# Total GULP energy -371792.533201 kJ/mol
# GULP energy per Si atom -12393.084440 kJ/mol
# Density = 1.767402 g / cm^3
# Si number density = 17.714341 Si / 1000 Ang^3
#
#
#
# Elastic Constant Matrix: (Units=GPa)
#
#
# Indices 1 2 3 4 5 6 
#
# 1 117.1836 53.1147 36.3259 0.0000 0.0000 0.0000
# 2 53.1147 94.9629 32.0187 0.0000 0.0000 0.0000
# 3 36.3259 32.0187 133.9208 0.0000 0.0000 0.0000
# 4 0.0000 0.0000 0.0000 9.4252 0.0000 0.0000
# 5 0.0000 0.0000 0.0000 0.0000 -25.2722 0.0000
# 6 0.0000 0.0000 0.0000 0.0000 0.0000 20.0094
#
#
#
# Elastic Compliance Matrix: (Units=1/GPa)
#
#
# Indices 1 2 3 4 5 6 
#
# 1 0.011804 -0.006007 -0.001766 0.000000 0.000000 0.000000
# 2 -0.006007 0.014510 -0.001840 0.000000 0.000000 0.000000
# 3 -0.001766 -0.001840 0.008386 0.000000 0.000000 0.000000
# 4 0.000000 0.000000 0.000000 0.106099 0.000000 0.000000
# 5 0.000000 0.000000 0.000000 0.000000 -0.039569 0.000000
# 6 0.000000 0.000000 0.000000 0.000000 0.000000 0.049977
#
#
# Mechanical properties :
#
#
# Convention : Reuss Voigt Hill
#
# Bulk Modulus (GPa) = 64.61822 65.44287 65.03054
# Shear Modulus (GPa) = 28.47560 15.80633 22.14097
#
# Velocity S-wave (km/s) = 4.01370 2.99036 3.53921
# Velocity P-wave (km/s) = 7.61819 6.99619 7.31380
#
# Compressibility (1/GPa) = 0.01547551
#
# Stress axis : x y z
#
# Youngs Moduli (GPa) = 84.72060 68.91582 119.24744
#
# Poissons Ratio (x) = 0.41395 0.21054
# Poissons Ratio (y) = 0.50889 0.21941
# Poissons Ratio (z) = 0.14958 0.12680
#
# Static dielectric constant tensor:
#      x y z
#    x 3.345560 0.000000 0.000000 
#    y 0.000000 2.840370 0.000000 
#    z 0.000000 0.000000 3.305020 
# 
# 
# High freq. dielectric constant tensor:
#      x y z
#    x 1.694810 0.000000 0.000000 
#    y 0.000000 1.645330 0.000000 
#    z 0.000000 0.000000 1.683840 
# 
# From -- ./inp_files/21281.got.cif
#   From: 2010.03.12/outbox.cif.g09.slc.cpg/sg72_11_cif.got.tgz:21281.got - 2010.04.16 14:54:00.
