data_PCOD8293596
_publ_section_title
;
Structure prediction by ZEFSAII (Michael W. Deem and Ramdas Pophale) SiO2 
 PCOD8293596
Probable space group: I B A M
;
_chemical_formula_sum "Si O2"
_cell_formula_units_Z 104
_cell_length_a 20.994700
_cell_length_b 13.882997
_cell_length_c 15.797833
_cell_angle_alpha 90.000000
_cell_angle_beta 90.000000
_cell_angle_gamma 90.000000
_cell_volume 4604.584228
_symmetry_space_group_name_H-M "I B A M"
_symmetry_group_IT_number 72
_symmetry_cell_setting 'orthorhombic'
loop_
_space_group_symop_operation_xyz
x,y,z
-x,-y,z
x,-y,1/2-z
-x,y,1/2-z
-x,-y,-z
x,y,-z
-x,y,1/2+z
x,-y,1/2+z
1/2+x,1/2+y,1/2+z
1/2-x,1/2-y,1/2+z
1/2+x,1/2-y,-z
1/2-x,1/2+y,-z
1/2-x,1/2-y,1/2-z
1/2+x,1/2+y,1/2-z
1/2-x,1/2+y,z
1/2+x,1/2-y,z
loop_
_atom_site_type_symbol
_atom_site_label
_atom_site_fract_x
_atom_site_fract_y
_atom_site_fract_z
Si Si1 0.366362 0.698791 0.339804
Si Si2 0.945277 0.128095 0.500000
Si Si3 0.913430 0.094130 0.000000
Si Si4 0.628656 0.902401 0.093012
Si Si5 0.146039 0.500000 0.250000
Si Si6 0.864944 0.825642 0.842560
Si Si7 0.773788 0.345113 0.673246
Si Si8 0.268139 0.535672 0.908586
O O1 0.374374 0.618375 0.413186
O O2 0.393930 0.796838 0.378574
O O3 0.400517 0.675620 0.249736
O O4 0.292784 0.708418 0.303828
O O5 0.918308 0.174503 0.585659
O O6 0.020276 0.152242 0.500000
O O7 0.930430 0.016220 0.500000
O O8 0.605548 0.982748 0.163489
O O9 0.704938 0.899576 0.086901
O O10 0.599429 0.926639 0.000000
O O11 0.191431 0.595122 0.251281
O O12 0.823535 0.730611 0.864456
O O13 0.819032 0.920196 0.842987
O O14 0.753576 0.426301 0.605974
O O15 0.303264 0.539166 0.000000
#
# Coordination Sequence:
#
# PCOD8293596 Si02
#       8
#    16   8   8  16   8  16  16  16
#     4  12  22  38  65  95 128 178 211 266 329 406
#     4  11  28  49  64  93 125 168 235 296 321 382
#     4  11  28  49  68  87 123 174 239 284 331 382
#     4  10  19  34  55  89 131 172 213 243 314 398
#     4  10  20  38  52  92 149 173 202 262 316 414
#     4  12  23  40  65  97 137 172 217 271 331 401
#     4  11  22  33  60  96 142 171 207 255 329 411
#     4  10  21  33  53  92 137 177 202 246 314 402
#
# _framework density 22.586188
#
# number of rings (size 3 to 8) (size 9 to 14) (size 15 to 20)
#    0.000    1.077    4.615    3.231    2.154    2.462 
#    0.000    1.538    0.000    0.000    0.000    9.692 
#    0.000    0.000    0.000    0.000    0.000    0.000 
#
# Total GULP energy -644345.784937 kJ/mol
# GULP energy per Si atom -12391.265095 kJ/mol
# Density = 2.253478 g / cm^3
# Si number density = 22.586188 Si / 1000 Ang^3
#
#
#
# Elastic Constant Matrix: (Units=GPa)
#
#
# Indices 1 2 3 4 5 6 
#
# 1 49.6873 4.3062 19.6926 0.0000 0.0000 0.0000
# 2 4.3062 88.5064 41.6770 0.0000 0.0000 0.0000
# 3 19.6926 41.6770 212.4472 0.0000 0.0000 0.0000
# 4 0.0000 0.0000 0.0000 35.0402 0.0000 0.0000
# 5 0.0000 0.0000 0.0000 0.0000 12.0544 0.0000
# 6 0.0000 0.0000 0.0000 0.0000 0.0000 19.7975
#
#
#
# Elastic Compliance Matrix: (Units=1/GPa)
#
#
# Indices 1 2 3 4 5 6 
#
# 1 0.020894 -0.000115 -0.001914 0.000000 0.000000 0.000000
# 2 -0.000115 0.012449 -0.002432 0.000000 0.000000 0.000000
# 3 -0.001914 -0.002432 0.005361 0.000000 0.000000 0.000000
# 4 0.000000 0.000000 0.000000 0.028539 0.000000 0.000000
# 5 0.000000 0.000000 0.000000 0.000000 0.082957 0.000000
# 6 0.000000 0.000000 0.000000 0.000000 0.000000 0.050511
#
#
# Mechanical properties :
#
#
# Convention : Reuss Voigt Hill
#
# Bulk Modulus (GPa) = 33.57588 53.55471 43.56530
# Shear Modulus (GPa) = 22.77262 32.37611 27.57437
#
# Velocity S-wave (km/s) = 3.17875 3.79020 3.49786
# Velocity P-wave (km/s) = 5.32640 6.55110 5.97023
#
# Compressibility (1/GPa) = 0.02978328
#
# Stress axis : x y z
#
# Youngs Moduli (GPa) = 47.85953 80.32628 186.51497
#
# Poissons Ratio (x) = 0.00925 0.35702
# Poissons Ratio (y) = 0.00551 0.45352
# Poissons Ratio (z) = 0.09161 0.19532
#
# Static dielectric constant tensor:
#      x y z
#    x 3.666510 0.000000 0.000000 
#    y 0.000000 4.067620 0.000000 
#    z 0.000000 0.000000 4.452780 
# 
# 
# High freq. dielectric constant tensor:
#      x y z
#    x 1.823140 0.000000 0.000000 
#    y 0.000000 1.895220 0.000000 
#    z 0.000000 0.000000 1.915980 
# 
# From -- ./inp_files/33406.got.cif
#   From: 2010.03.12/outbox.cif.g09.slc.cpg/sg72_17_cif.got.tgz:33406.got - 2010.04.16 14:54:00.
