data_PCOD8293610
_publ_section_title
;
Structure prediction by ZEFSAII (Michael W. Deem and Ramdas Pophale) SiO2 
 PCOD8293610
Probable space group: I B A M
;
_chemical_formula_sum "Si O2"
_cell_formula_units_Z 116
_cell_length_a 22.111165
_cell_length_b 27.534456
_cell_length_c 9.089912
_cell_angle_alpha 90.000000
_cell_angle_beta 90.000000
_cell_angle_gamma 90.000000
_cell_volume 5534.110223
_symmetry_space_group_name_H-M "I B A M"
_symmetry_group_IT_number 72
_symmetry_cell_setting 'orthorhombic'
loop_
_space_group_symop_operation_xyz
x,y,z
-x,-y,z
x,-y,1/2-z
-x,y,1/2-z
-x,-y,-z
x,y,-z
-x,y,1/2+z
x,-y,1/2+z
1/2+x,1/2+y,1/2+z
1/2-x,1/2-y,1/2+z
1/2+x,1/2-y,-z
1/2-x,1/2+y,-z
1/2-x,1/2-y,1/2-z
1/2+x,1/2+y,1/2-z
1/2-x,1/2+y,z
1/2+x,1/2-y,z
loop_
_atom_site_type_symbol
_atom_site_label
_atom_site_fract_x
_atom_site_fract_y
_atom_site_fract_z
Si Si1 0.829786 0.047235 0.328542
Si Si2 0.194265 0.453128 0.328407
Si Si3 0.601686 0.812324 0.330557
Si Si4 0.558869 0.719232 0.825599
Si Si5 0.408742 0.081806 0.340175
Si Si6 0.274568 0.797642 0.329217
Si Si7 0.000000 0.500000 0.750000
Si Si8 0.150465 0.153455 0.166619
O O1 0.829692 0.035764 0.500000
O O2 0.761680 0.056046 0.268530
O O3 0.865249 0.097180 0.294415
O O4 0.859275 0.000000 0.250000
O O5 0.166439 0.500000 0.250000
O O6 0.195020 0.459390 0.500000
O O7 0.143732 0.414498 0.282932
O O8 0.608504 0.794547 0.500000
O O9 0.564254 0.773399 0.237249
O O10 0.564399 0.863442 0.324861
O O11 0.668127 0.817572 0.258971
O O12 0.500000 0.694964 0.750000
O O13 0.617356 0.687894 0.782345
O O14 0.551852 0.720313 0.000000
O O15 0.377465 0.077364 0.500000
O O16 0.457792 0.038104 0.337438
O O17 0.291669 0.786519 0.500000
O O18 0.250000 0.750000 0.250000
O O19 0.222707 0.838932 0.323256
O O20 0.128894 0.165220 0.000000
#
# Coordination Sequence:
#
# PCOD8293610 Si02
#       8
#    16  16  16  16  16  16   4  16
#     4   9  19  35  58  91 126 162 198 240 297 361
#     4  10  19  34  57  83 116 155 196 244 301 364
#     4  11  24  42  63  91 126 163 209 265 322 385
#     4  12  26  44  66  91 121 162 209 254 309 371
#     4  11  25  42  60  83 112 153 206 264 321 372
#     4  11  21  36  62  96 131 168 208 257 320 383
#     4  12  26  44  64  86 114 156 218 280 330 380
#     4  10  21  39  63  91 129 168 206 254 308 371
#
# _framework density 20.960913000000001
#
# number of rings (size 3 to 8) (size 9 to 14) (size 15 to 20)
#    0.000    1.379    2.069    3.517    0.966    4.414 
#    0.000    0.000    0.000    0.414    0.000    2.897 
#    0.000    0.000    0.000    0.000    0.000    0.000 
#
# Total GULP energy -718672.649607 kJ/mol
# GULP energy per Si atom -12390.907752 kJ/mol
# Density = 2.091321 g / cm^3
# Si number density = 20.960913 Si / 1000 Ang^3
#
#
#
# Elastic Constant Matrix: (Units=GPa)
#
#
# Indices 1 2 3 4 5 6 
#
# 1 61.1986 14.6047 29.0636 0.0000 0.0000 0.0000
# 2 14.6047 129.4516 44.1212 0.0000 0.0000 0.0000
# 3 29.0636 44.1212 128.7307 0.0000 0.0000 0.0000
# 4 0.0000 0.0000 0.0000 29.1386 0.0000 0.0000
# 5 0.0000 0.0000 0.0000 0.0000 24.2064 0.0000
# 6 0.0000 0.0000 0.0000 0.0000 0.0000 18.0229
#
#
#
# Elastic Compliance Matrix: (Units=1/GPa)
#
#
# Indices 1 2 3 4 5 6 
#
# 1 0.018366 -0.000746 -0.003891 0.000000 0.000000 0.000000
# 2 -0.000746 0.008777 -0.002840 0.000000 0.000000 0.000000
# 3 -0.003891 -0.002840 0.009620 0.000000 0.000000 0.000000
# 4 0.000000 0.000000 0.000000 0.034319 0.000000 0.000000
# 5 0.000000 0.000000 0.000000 0.000000 0.041311 0.000000
# 6 0.000000 0.000000 0.000000 0.000000 0.000000 0.055485
#
#
# Mechanical properties :
#
#
# Convention : Reuss Voigt Hill
#
# Bulk Modulus (GPa) = 45.85107 54.99553 50.42330
# Shear Modulus (GPa) = 26.30182 29.71302 28.00742
#
# Velocity S-wave (km/s) = 3.54616 3.76911 3.65934
# Velocity P-wave (km/s) = 6.22005 6.72575 6.47784
#
# Compressibility (1/GPa) = 0.02180974
#
# Stress axis : x y z
#
# Youngs Moduli (GPa) = 54.44832 113.93492 103.95116
#
# Poissons Ratio (x) = 0.08499 0.40446
# Poissons Ratio (y) = 0.04061 0.29520
# Poissons Ratio (z) = 0.21185 0.32355
#
# Static dielectric constant tensor:
#      x y z
#    x 3.604740 0.000000 0.000000 
#    y 0.000000 3.822750 0.000000 
#    z 0.000000 0.000000 3.789480 
# 
# 
# High freq. dielectric constant tensor:
#      x y z
#    x 1.792100 0.000000 0.000000 
#    y 0.000000 1.831560 0.000000 
#    z 0.000000 0.000000 1.823560 
# 
# From -- ./inp_files/7238.got.cif
#   From: 2010.03.12/outbox.cif.g09.slc.cpg/sg72_4_cif.got.tgz:7238.got - 2010.04.16 14:54:00.
