data_PCOD8293628
_publ_section_title
;
Structure prediction by ZEFSAII (Michael W. Deem and Ramdas Pophale) SiO2 
 PCOD8293628
Probable space group: I B A M
;
_chemical_formula_sum "Si O2"
_cell_formula_units_Z 64
_cell_length_a 8.545510
_cell_length_b 21.167992
_cell_length_c 15.967046
_cell_angle_alpha 90.000000
_cell_angle_beta 90.000000
_cell_angle_gamma 90.000000
_cell_volume 2888.299506
_symmetry_space_group_name_H-M "I B A M"
_symmetry_group_IT_number 72
_symmetry_cell_setting 'orthorhombic'
loop_
_space_group_symop_operation_xyz
x,y,z
-x,-y,z
x,-y,1/2-z
-x,y,1/2-z
-x,-y,-z
x,y,-z
-x,y,1/2+z
x,-y,1/2+z
1/2+x,1/2+y,1/2+z
1/2-x,1/2-y,1/2+z
1/2+x,1/2-y,-z
1/2-x,1/2+y,-z
1/2-x,1/2-y,1/2-z
1/2+x,1/2+y,1/2-z
1/2-x,1/2+y,z
1/2+x,1/2-y,z
loop_
_atom_site_type_symbol
_atom_site_label
_atom_site_fract_x
_atom_site_fract_y
_atom_site_fract_z
Si Si1 0.936956 0.564107 0.844428
Si Si2 0.902419 0.939939 0.404287
Si Si3 0.070304 0.690267 0.157278
Si Si4 0.439922 0.681382 0.156597
O O1 0.749443 0.566160 0.845574
O O2 0.000000 0.500000 0.889277
O O3 0.000000 0.564413 0.750000
O O4 0.003561 0.627534 0.889553
O O5 0.848312 0.949701 0.500000
O O6 0.009913 0.878076 0.398830
O O7 0.000000 0.000000 0.372070
O O8 0.255163 0.687874 0.157975
O O9 0.000000 0.692366 0.250000
O O10 0.013215 0.755349 0.114065
O O11 0.500000 0.670303 0.250000
#
# Coordination Sequence:
#
# PCOD8293628 Si02
#       4
#    16  16  16  16
#     4  10  20  38  63  93 122 155 205 251 298 362
#     4  11  25  43  61  87 126 166 202 250 311 364
#     4  10  19  34  58  92 124 153 197 254 309 351
#     4  11  20  36  62  88 121 160 204 251 298 362
#
# _framework density 22.158366999999998
#
# number of rings (size 3 to 8) (size 9 to 14) (size 15 to 20)
#    0.000    1.500    0.000    9.000    0.000    3.000 
#    0.000    6.250    0.000    0.000    0.000    0.000 
#    0.000    0.000    0.000    0.000    0.000    0.000 
#
# Total GULP energy -396737.911816 kJ/mol
# GULP energy per Si atom -12398.059744 kJ/mol
# Density = 2.210793 g / cm^3
# Si number density = 22.158367 Si / 1000 Ang^3
#
#
#
# Elastic Constant Matrix: (Units=GPa)
#
#
# Indices 1 2 3 4 5 6 
#
# 1 236.8082 90.5575 27.8295 0.0000 0.0000 0.0000
# 2 90.5575 243.7452 12.3581 0.0000 0.0000 0.0000
# 3 27.8295 12.3581 38.5436 -0.0001 0.0000 0.0000
# 4 0.0000 0.0000 -0.0001 -4.6439 0.0000 0.0000
# 5 0.0000 0.0000 0.0000 0.0000 16.4847 0.0000
# 6 0.0000 0.0000 0.0000 0.0000 0.0000 46.6860
#
#
#
# Elastic Compliance Matrix: (Units=1/GPa)
#
#
# Indices 1 2 3 4 5 6 
#
# 1 0.005293 -0.001802 -0.003244 0.000000 0.000000 0.000000
# 2 -0.001802 0.004784 -0.000233 0.000000 0.000000 0.000000
# 3 -0.003244 -0.000233 0.028362 0.000000 0.000000 0.000000
# 4 0.000000 0.000000 0.000000 -0.215334 0.000000 0.000000
# 5 0.000000 0.000000 0.000000 0.000000 0.060662 0.000000
# 6 0.000000 0.000000 0.000000 0.000000 0.000000 0.021420
#
#
# Mechanical properties :
#
#
# Convention : Reuss Voigt Hill
#
# Bulk Modulus (GPa) = 35.86665 86.73192 61.29928
# Shear Modulus (GPa) = -66.70067 37.59547 -14.55260
#
# Velocity S-wave (km/s) = -5.49246 4.12354 -2.56550
# Velocity P-wave (km/s) = 4.89910 7.86754 4.35299
#
# Compressibility (1/GPa) = 0.02788106
#
# Stress axis : x y z
#
# Youngs Moduli (GPa) = 188.92186 209.03177 35.25899
#
# Poissons Ratio (x) = 0.37669 0.11438
# Poissons Ratio (y) = 0.34045 0.00821
# Poissons Ratio (z) = 0.61287 0.04864
#
# Static dielectric constant tensor:
#      x y z
#    x 3.964660 0.000000 0.000000 
#    y 0.000000 5.954630 0.000000 
#    z 0.000000 0.000000 3.499010 
# 
# 
# High freq. dielectric constant tensor:
#      x y z
#    x 1.886030 0.000000 0.000000 
#    y 0.000000 1.913470 0.000000 
#    z 0.000000 0.000000 1.811310 
# 
# From -- ./inp_files/27635.got.cif
#   From: 2010.03.12/outbox.cif.g09.slc.cpg/sg72_14_cif.got.tgz:27635.got - 2010.04.16 14:54:00.
