data_PCOD8293863
_publ_section_title
;
Structure prediction by ZEFSAII (Michael W. Deem and Ramdas Pophale) SiO2 
 PCOD8293863
Probable space group: I B A M
;
_chemical_formula_sum "Si O2"
_cell_formula_units_Z 112
_cell_length_a 19.215820
_cell_length_b 17.831433
_cell_length_c 18.425341
_cell_angle_alpha 90.000000
_cell_angle_beta 90.000000
_cell_angle_gamma 90.000000
_cell_volume 6313.362149
_symmetry_space_group_name_H-M "I B A M"
_symmetry_group_IT_number 72
_symmetry_cell_setting 'orthorhombic'
loop_
_space_group_symop_operation_xyz
x,y,z
-x,-y,z
x,-y,1/2-z
-x,y,1/2-z
-x,-y,-z
x,y,-z
-x,y,1/2+z
x,-y,1/2+z
1/2+x,1/2+y,1/2+z
1/2-x,1/2-y,1/2+z
1/2+x,1/2-y,-z
1/2-x,1/2+y,-z
1/2-x,1/2-y,1/2-z
1/2+x,1/2+y,1/2-z
1/2-x,1/2+y,z
1/2+x,1/2-y,z
loop_
_atom_site_type_symbol
_atom_site_label
_atom_site_fract_x
_atom_site_fract_y
_atom_site_fract_z
Si Si1 0.761321 0.701243 0.321846
Si Si2 0.154726 0.724895 0.584512
Si Si3 0.757064 0.911460 0.417067
Si Si4 0.058557 0.559321 0.914381
Si Si5 0.364278 0.288678 0.916394
Si Si6 0.695472 0.034939 0.675120
Si Si7 0.999465 0.714392 0.084316
O O1 0.750000 0.750000 0.250000
O O2 0.694587 0.709689 0.373463
O O3 0.829872 0.727462 0.364389
O O4 0.769362 0.613895 0.304758
O O5 0.155245 0.745494 0.500000
O O6 0.193081 0.645583 0.598436
O O7 0.076874 0.725520 0.618642
O O8 0.754236 0.939312 0.500000
O O9 0.831166 0.870298 0.401137
O O10 0.752865 0.982185 0.363772
O O11 0.130773 0.538245 0.878291
O O12 0.034454 0.639672 0.883642
O O13 0.000000 0.500000 0.892245
O O14 0.071727 0.559839 0.000000
O O15 0.447955 0.284890 0.902138
O O16 0.348434 0.265622 0.000000
O O17 0.669469 0.000000 0.750000
O O18 0.986161 0.700214 0.000000
#
# Coordination Sequence:
#
# PCOD8293863 Si02
#       7
#    16  16  16  16  16  16  16
#     4  11  22  36  52  73 104 141 184 225 260 310
#     4   9  18  34  56  80 105 133 173 222 268 319
#     4   9  18  32  52  77 107 139 173 218 268 321
#     4  10  20  33  52  79 111 141 170 207 262 333
#     4   9  17  33  55  77 101 135 177 217 261 321
#     4  12  23  34  50  75 107 146 180 219 267 311
#     4   9  16  30  54  80 103 132 170 214 265 317
#
# _framework density 17.740151999999998
#
# number of rings (size 3 to 8) (size 9 to 14) (size 15 to 20)
#    0.000    2.143    1.429    4.286    0.000    4.286 
#    0.000    0.714    0.000    0.857    0.000    5.000 
#    0.000    0.000    0.000    0.000    0.000    0.000 
#
# Total GULP energy -694218.168780 kJ/mol
# GULP energy per Si atom -12396.753014 kJ/mol
# Density = 1.769977 g / cm^3
# Si number density = 17.740152 Si / 1000 Ang^3
#
#
#
# Elastic Constant Matrix: (Units=GPa)
#
#
# Indices 1 2 3 4 5 6 
#
# 1 103.3844 54.5567 34.0471 0.0000 0.0000 0.0000
# 2 54.5567 97.5179 36.5878 0.0000 0.0000 0.0000
# 3 34.0471 36.5878 56.8840 0.0000 0.0000 0.0000
# 4 0.0000 0.0000 0.0000 27.2237 0.0000 0.0000
# 5 0.0000 0.0000 0.0000 0.0000 6.9243 0.0000
# 6 0.0000 0.0000 0.0000 0.0000 0.0000 22.7544
#
#
#
# Elastic Compliance Matrix: (Units=1/GPa)
#
#
# Indices 1 2 3 4 5 6 
#
# 1 0.014579 -0.006435 -0.004587 0.000000 0.000000 0.000000
# 2 -0.006435 0.016357 -0.006669 0.000000 0.000000 0.000000
# 3 -0.004587 -0.006669 0.024615 0.000000 0.000000 0.000000
# 4 0.000000 0.000000 0.000000 0.036733 0.000000 0.000000
# 5 0.000000 0.000000 0.000000 0.000000 0.144420 0.000000
# 6 0.000000 0.000000 0.000000 0.000000 0.000000 0.043947
#
#
# Mechanical properties :
#
#
# Convention : Reuss Voigt Hill
#
# Bulk Modulus (GPa) = 49.58320 56.46326 53.02323
# Shear Modulus (GPa) = 15.49157 20.22013 17.85585
#
# Velocity S-wave (km/s) = 2.95828 3.37975 3.17601
# Velocity P-wave (km/s) = 6.29913 6.86493 6.58811
#
# Compressibility (1/GPa) = 0.02016812
#
# Stress axis : x y z
#
# Youngs Moduli (GPa) = 68.59062 61.13594 40.62634
#
# Poissons Ratio (x) = 0.39344 0.18635
# Poissons Ratio (y) = 0.44141 0.27094
# Poissons Ratio (z) = 0.31462 0.40771
#
# Static dielectric constant tensor:
#      x y z
#    x 3.420730 0.000000 0.000000 
#    y 0.000000 3.240530 0.000000 
#    z 0.000000 0.000000 3.210450 
# 
# 
# High freq. dielectric constant tensor:
#      x y z
#    x 1.682140 0.000000 0.000000 
#    y 0.000000 1.666810 0.000000 
#    z 0.000000 0.000000 1.677110 
# 
# From -- ./inp_files/32738.got.cif
#   From: 2010.03.12/outbox.cif.g09.slc.cpg/sg72_17_cif.got.tgz:32738.got - 2010.04.16 14:54:00.
