data_PCOD8293364
_publ_section_title
;
Structure prediction by ZEFSAII (Michael W. Deem and Ramdas Pophale) SiO2 
 PCOD8293364
Probable space group: I B A M
;
_chemical_formula_sum "Si O2"
_cell_formula_units_Z 96
_cell_length_a 25.649806
_cell_length_b 25.315937
_cell_length_c 8.396293
_cell_angle_alpha 90.000000
_cell_angle_beta 90.000000
_cell_angle_gamma 90.000000
_cell_volume 5452.123395
_symmetry_space_group_name_H-M "I B A M"
_symmetry_group_IT_number 72
_symmetry_cell_setting 'orthorhombic'
loop_
_space_group_symop_operation_xyz
x,y,z
-x,-y,z
x,-y,1/2-z
-x,y,1/2-z
-x,-y,-z
x,y,-z
-x,y,1/2+z
x,-y,1/2+z
1/2+x,1/2+y,1/2+z
1/2-x,1/2-y,1/2+z
1/2+x,1/2-y,-z
1/2-x,1/2+y,-z
1/2-x,1/2-y,1/2-z
1/2+x,1/2+y,1/2-z
1/2-x,1/2+y,z
1/2+x,1/2-y,z
loop_
_atom_site_type_symbol
_atom_site_label
_atom_site_fract_x
_atom_site_fract_y
_atom_site_fract_z
Si Si1 0.879753 0.053526 0.816974
Si Si2 0.949996 0.864585 0.182886
Si Si3 0.829763 0.745207 0.689598
Si Si4 0.232680 0.947198 0.686640
Si Si5 0.553603 0.252176 0.318857
Si Si6 0.751912 0.835594 0.684750
O O1 0.898629 0.101555 0.708165
O O2 0.818280 0.051880 0.796552
O O3 0.905654 0.000000 0.750000
O O4 0.895155 0.062033 0.000000
O O5 0.949517 0.814570 0.298803
O O6 0.000000 0.897650 0.250000
O O7 0.954640 0.847025 0.000000
O O8 0.826009 0.737295 0.500000
O O9 0.889363 0.737481 0.754085
O O10 0.804970 0.803186 0.732862
O O11 0.797572 0.700712 0.779858
O O12 0.220780 0.952997 0.500000
O O13 0.258248 0.889981 0.718203
O O14 0.264440 0.000000 0.750000
O O15 0.500000 0.225479 0.250000
O O16 0.554522 0.235161 0.500000
O O17 0.753832 0.850171 0.500000
#
# Coordination Sequence:
#
# PCOD8293364 Si02
#       6
#    16  16  16  16  16  16
#     4  11  21  34  48  64  85 112 150 193 238 283
#     4  11  21  33  47  64  85 114 152 193 239 284
#     4   9  19  33  49  71 100 132 164 202 247 294
#     4  11  21  34  51  71  96 126 160 196 238 287
#     4  10  19  32  49  69  95 126 160 198 239 285
#     4  10  19  32  51  74 100 130 165 204 247 294
#
# _framework density 17.607818999999999
#
# number of rings (size 3 to 8) (size 9 to 14) (size 15 to 20)
#    0.000    1.667    0.000    8.500    0.000    3.667 
#    0.000    1.667    0.000    0.000    0.000    0.000 
#    0.000    0.667    0.000    7.000    0.000    3.833 
#
# Total GULP energy -594640.392931 kJ/mol
# GULP energy per Si atom -12388.341519 kJ/mol
# Density = 1.756774 g / cm^3
# Si number density = 17.607819 Si / 1000 Ang^3
#
#
#
# Elastic Constant Matrix: (Units=GPa)
#
#
# Indices 1 2 3 4 5 6 
#
# 1 97.5037 21.6394 19.1834 0.0000 0.0000 0.0000
# 2 21.6394 81.1457 22.7511 0.0000 0.0000 0.0000
# 3 19.1834 22.7511 71.5275 0.0000 0.0000 0.0000
# 4 0.0000 0.0000 0.0000 25.7342 0.0000 0.0000
# 5 0.0000 0.0000 0.0000 0.0000 25.1712 0.0000
# 6 0.0000 0.0000 0.0000 0.0000 0.0000 16.6513
#
#
#
# Elastic Compliance Matrix: (Units=1/GPa)
#
#
# Indices 1 2 3 4 5 6 
#
# 1 0.011224 -0.002360 -0.002260 0.000000 0.000000 0.000000
# 2 -0.002360 0.014026 -0.003829 0.000000 0.000000 0.000000
# 3 -0.002260 -0.003829 0.015804 0.000000 0.000000 0.000000
# 4 0.000000 0.000000 0.000000 0.038859 0.000000 0.000000
# 5 0.000000 0.000000 0.000000 0.000000 0.039728 0.000000
# 6 0.000000 0.000000 0.000000 0.000000 0.000000 0.060055
#
#
# Mechanical properties :
#
#
# Convention : Reuss Voigt Hill
#
# Bulk Modulus (GPa) = 41.39236 41.92499 41.65868
# Shear Modulus (GPa) = 24.43244 25.95154 25.19199
#
# Velocity S-wave (km/s) = 3.72908 3.84326 3.78660
# Velocity P-wave (km/s) = 6.48848 6.59972 6.54434
#
# Compressibility (1/GPa) = 0.02415905
#
# Stress axis : x y z
#
# Youngs Moduli (GPa) = 89.09233 71.29520 63.27325
#
# Poissons Ratio (x) = 0.16823 0.14298
# Poissons Ratio (y) = 0.21023 0.24224
# Poissons Ratio (z) = 0.20133 0.27296
#
# Static dielectric constant tensor:
#      x y z
#    x 3.442400 0.000000 0.000000 
#    y 0.000000 3.355760 0.000000 
#    z 0.000000 0.000000 3.212040 
# 
# 
# High freq. dielectric constant tensor:
#      x y z
#    x 1.657920 0.000000 0.000000 
#    y 0.000000 1.653370 0.000000 
#    z 0.000000 0.000000 1.692450 
# 
# From -- ./inp_files/8282.got.cif
#   From: 2010.03.12/outbox.cif.g09.slc.cpg/sg72_5_cif.got.tgz:8282.got - 2010.04.16 14:54:00.
