data_PCOD8293816
_publ_section_title
;
Structure prediction by ZEFSAII (Michael W. Deem and Ramdas Pophale) SiO2 
 PCOD8293816
Probable space group: I B A M
;
_chemical_formula_sum "Si O2"
_cell_formula_units_Z 116
_cell_length_a 26.210019
_cell_length_b 26.541675
_cell_length_c 9.231348
_cell_angle_alpha 90.000000
_cell_angle_beta 90.000000
_cell_angle_gamma 90.000000
_cell_volume 6421.859296
_symmetry_space_group_name_H-M "I B A M"
_symmetry_group_IT_number 72
_symmetry_cell_setting 'orthorhombic'
loop_
_space_group_symop_operation_xyz
x,y,z
-x,-y,z
x,-y,1/2-z
-x,y,1/2-z
-x,-y,-z
x,y,-z
-x,y,1/2+z
x,-y,1/2+z
1/2+x,1/2+y,1/2+z
1/2-x,1/2-y,1/2+z
1/2+x,1/2-y,-z
1/2-x,1/2+y,-z
1/2-x,1/2-y,1/2-z
1/2+x,1/2+y,1/2-z
1/2-x,1/2+y,z
1/2+x,1/2-y,z
loop_
_atom_site_type_symbol
_atom_site_label
_atom_site_fract_x
_atom_site_fract_y
_atom_site_fract_z
Si Si1 0.317501 0.049795 0.828841
Si Si2 0.819913 0.287506 0.838170
Si Si3 0.649312 0.324294 0.668166
Si Si4 0.737433 0.635584 0.665408
Si Si5 0.050611 0.792565 0.673394
Si Si6 0.000000 0.500000 0.250000
Si Si7 0.417759 0.924537 0.160561
Si Si8 0.086712 0.314187 0.166169
O O1 0.278312 0.093742 0.786370
O O2 0.374984 0.061063 0.776542
O O3 0.296798 0.000000 0.750000
O O4 0.320250 0.041236 0.000000
O O5 0.821105 0.228174 0.809525
O O6 0.763291 0.309375 0.815778
O O7 0.857567 0.317833 0.734896
O O8 0.839021 0.299623 0.000000
O O9 0.637165 0.335623 0.500000
O O10 0.687418 0.366730 0.732535
O O11 0.597643 0.324420 0.762056
O O12 0.720006 0.626841 0.500000
O O13 0.047710 0.799268 0.500000
O O14 0.055422 0.733954 0.726073
O O15 0.000000 0.813998 0.750000
O O16 0.035738 0.536212 0.345022
O O17 0.440093 0.868265 0.195021
O O18 0.392857 0.924091 0.000000
O O19 0.095688 0.302591 0.000000
#
# Coordination Sequence:
#
# PCOD8293816 Si02
#       8
#    16  16  16  16  16   4  16  16
#     4  11  23  39  59  78 102 135 174 221 274 328
#     4   9  17  31  49  73 103 133 168 210 259 315
#     4  10  20  32  51  78 107 138 174 214 256 313
#     4  10  20  34  52  76 105 138 170 211 267 319
#     4  10  20  35  53  74 105 141 177 217 260 309
#     4  12  26  36  56  74  98 132 178 240 292 328
#     4  11  23  39  54  72  98 129 175 229 284 332
#     4   9  19  33  50  71  96 131 173 219 266 318
#
# _framework density 18.063303999999999
#
# number of rings (size 3 to 8) (size 9 to 14) (size 15 to 20)
#    0.000    1.931    2.069    1.862    0.966    3.310 
#    0.000    0.000    0.000    0.000    0.000    0.000 
#    0.000    0.552    0.000    5.793    0.000    3.172 
#
# Total GULP energy -718929.257636 kJ/mol
# GULP energy per Si atom -12395.332028 kJ/mol
# Density = 1.802219 g / cm^3
# Si number density = 18.063304 Si / 1000 Ang^3
#
#
#
# Elastic Constant Matrix: (Units=GPa)
#
#
# Indices 1 2 3 4 5 6 
#
# 1 109.6352 38.0365 50.9657 0.0000 0.0000 0.0000
# 2 38.0365 42.8180 24.6340 0.0000 0.0000 0.0000
# 3 50.9657 24.6340 78.9522 0.0000 0.0000 0.0000
# 4 0.0000 0.0000 0.0000 21.4833 0.0000 0.0000
# 5 0.0000 0.0000 0.0000 0.0000 30.8370 0.0000
# 6 0.0000 0.0000 0.0000 0.0000 0.0000 25.4247
#
#
#
# Elastic Compliance Matrix: (Units=1/GPa)
#
#
# Indices 1 2 3 4 5 6 
#
# 1 0.015926 -0.010034 -0.007150 0.000000 0.000000 0.000000
# 2 -0.010034 0.034786 -0.004376 0.000000 0.000000 0.000000
# 3 -0.007150 -0.004376 0.018647 0.000000 0.000000 0.000000
# 4 0.000000 0.000000 0.000000 0.046548 0.000000 0.000000
# 5 0.000000 0.000000 0.000000 0.000000 0.032429 0.000000
# 6 0.000000 0.000000 0.000000 0.000000 0.000000 0.039332
#
#
# Mechanical properties :
#
#
# Convention : Reuss Voigt Hill
#
# Bulk Modulus (GPa) = 38.11248 50.96420 44.53834
# Shear Modulus (GPa) = 20.87382 23.40027 22.13705
#
# Velocity S-wave (km/s) = 3.40309 3.60315 3.50455
# Velocity P-wave (km/s) = 6.04868 6.75172 6.40985
#
# Compressibility (1/GPa) = 0.02623812
#
# Stress axis : x y z
#
# Youngs Moduli (GPa) = 62.78978 28.74713 53.62833
#
# Poissons Ratio (x) = 0.28845 0.38344
# Poissons Ratio (y) = 0.63004 0.23470
# Poissons Ratio (z) = 0.44895 0.12581
#
# Static dielectric constant tensor:
#      x y z
#    x 3.115500 0.000000 0.000000 
#    y 0.000000 3.219880 0.000000 
#    z 0.000000 0.000000 3.345080 
# 
# 
# High freq. dielectric constant tensor:
#      x y z
#    x 1.682120 0.000000 0.000000 
#    y 0.000000 1.667450 0.000000 
#    z 0.000000 0.000000 1.708680 
# 
# From -- ./inp_files/7332.got.cif
#   From: 2010.03.12/outbox.cif.g09.slc.cpg/sg72_4_cif.got.tgz:7332.got - 2010.04.16 14:54:00.
