data_PCOD8293316
_publ_section_title
;
Structure prediction by ZEFSAII (Michael W. Deem and Ramdas Pophale) SiO2 
 PCOD8293316
Probable space group: I B A M
;
_chemical_formula_sum "Si O2"
_cell_formula_units_Z 112
_cell_length_a 21.782502
_cell_length_b 13.778742
_cell_length_c 20.697504
_cell_angle_alpha 90.000000
_cell_angle_beta 90.000000
_cell_angle_gamma 90.000000
_cell_volume 6212.055198
_symmetry_space_group_name_H-M "I B A M"
_symmetry_group_IT_number 72
_symmetry_cell_setting 'orthorhombic'
loop_
_space_group_symop_operation_xyz
x,y,z
-x,-y,z
x,-y,1/2-z
-x,y,1/2-z
-x,-y,-z
x,y,-z
-x,y,1/2+z
x,-y,1/2+z
1/2+x,1/2+y,1/2+z
1/2-x,1/2-y,1/2+z
1/2+x,1/2-y,-z
1/2-x,1/2+y,-z
1/2-x,1/2-y,1/2-z
1/2+x,1/2+y,1/2-z
1/2-x,1/2+y,z
1/2+x,1/2-y,z
loop_
_atom_site_type_symbol
_atom_site_label
_atom_site_fract_x
_atom_site_fract_y
_atom_site_fract_z
Si Si1 0.661903 0.833447 0.738454
Si Si2 0.775328 0.006194 0.427383
Si Si3 0.320838 0.300840 0.925628
Si Si4 0.231945 0.817091 0.338736
Si Si5 0.024175 0.608532 0.428287
Si Si6 0.087143 0.672257 0.143115
Si Si7 0.355337 0.035077 0.377921
O O1 0.718505 0.853750 0.786661
O O2 0.675357 0.737415 0.695819
O O3 0.599484 0.815075 0.779990
O O4 0.654836 0.929385 0.695337
O O5 0.780877 0.047522 0.500000
O O6 0.821891 0.916941 0.417083
O O7 0.706964 0.963779 0.418280
O O8 0.793372 0.089386 0.376577
O O9 0.262632 0.257232 0.888395
O O10 0.384016 0.261612 0.896036
O O11 0.315515 0.269685 0.000000
O O12 0.015711 0.653625 0.500000
O O13 0.095918 0.609256 0.410026
O O14 0.000000 0.500000 0.427477
O O15 0.985033 0.669173 0.375095
O O16 0.120338 0.574127 0.120278
#
# Coordination Sequence:
#
# PCOD8293316 Si02
#       7
#    16  16  16  16  16  16  16
#     4  10  20  33  47  73 101 139 177 208 261 319
#     4  11  21  32  50  76 106 139 175 221 266 313
#     4  10  19  31  49  73  98 136 180 215 262 317
#     4  10  20  33  49  69 105 142 171 214 260 313
#     4   9  19  33  49  72 101 137 177 213 257 307
#     4  10  20  33  50  71 101 144 175 218 255 310
#     4  11  19  31  51  75 105 137 173 216 259 314
#
# _framework density 18.02946
#
# number of rings (size 3 to 8) (size 9 to 14) (size 15 to 20)
#    0.000    1.857    4.286    1.714    0.000    1.714 
#    0.000    2.143    0.000    0.000    0.000    1.000 
#    0.000    8.000    0.000    0.000    0.000    0.000 
#
# Total GULP energy -694295.039494 kJ/mol
# GULP energy per Si atom -12398.125705 kJ/mol
# Density = 1.798842 g / cm^3
# Si number density = 18.029460 Si / 1000 Ang^3
#
#
#
# Elastic Constant Matrix: (Units=GPa)
#
#
# Indices 1 2 3 4 5 6 
#
# 1 49.4276 20.5377 14.4119 0.0000 0.0000 0.0000
# 2 20.5377 71.7702 39.4173 0.0000 0.0000 0.0000
# 3 14.4119 39.4173 100.9718 0.0000 0.0000 0.0000
# 4 0.0000 0.0000 0.0000 38.5341 0.0000 0.0000
# 5 0.0000 0.0000 0.0000 0.0000 20.8781 0.0000
# 6 0.0000 0.0000 0.0000 0.0000 0.0000 22.1297
#
#
#
# Elastic Compliance Matrix: (Units=1/GPa)
#
#
# Indices 1 2 3 4 5 6 
#
# 1 0.023027 -0.006090 -0.000909 0.000000 0.000000 0.000000
# 2 -0.006090 0.019347 -0.006683 0.000000 0.000000 0.000000
# 3 -0.000909 -0.006683 0.012643 0.000000 0.000000 0.000000
# 4 0.000000 0.000000 0.000000 0.025951 0.000000 0.000000
# 5 0.000000 0.000000 0.000000 0.000000 0.047897 0.000000
# 6 0.000000 0.000000 0.000000 0.000000 0.000000 0.045188
#
#
# Mechanical properties :
#
#
# Convention : Reuss Voigt Hill
#
# Bulk Modulus (GPa) = 36.16483 41.21149 38.68816
# Shear Modulus (GPa) = 23.73772 26.16187 24.94979
#
# Velocity S-wave (km/s) = 3.63244 3.81341 3.72403
# Velocity P-wave (km/s) = 6.13964 6.50361 6.32424
#
# Compressibility (1/GPa) = 0.02765117
#
# Stress axis : x y z
#
# Youngs Moduli (GPa) = 43.42679 51.68851 79.09799
#
# Poissons Ratio (x) = 0.31479 0.07192
# Poissons Ratio (y) = 0.26447 0.52863
# Poissons Ratio (z) = 0.03949 0.34545
#
# Static dielectric constant tensor:
#      x y z
#    x 3.264770 0.000000 0.000000 
#    y 0.000000 3.192210 0.000000 
#    z 0.000000 0.000000 3.618580 
# 
# 
# High freq. dielectric constant tensor:
#      x y z
#    x 1.661400 0.000000 0.000000 
#    y 0.000000 1.675980 0.000000 
#    z 0.000000 0.000000 1.716630 
# 
# From -- ./inp_files/40374.got.cif
#   From: 2010.03.12/outbox.cif.g09.slc.cpg/sg72_21_cif.got.tgz:40374.got - 2010.04.16 14:54:00.
