data_PCOD8293788
_publ_section_title
;
Structure prediction by ZEFSAII (Michael W. Deem and Ramdas Pophale) SiO2 
 PCOD8293788
Probable space group: I B A M
;
_chemical_formula_sum "Si O2"
_cell_formula_units_Z 64
_cell_length_a 25.658767
_cell_length_b 8.495160
_cell_length_c 13.891327
_cell_angle_alpha 90.000000
_cell_angle_beta 90.000000
_cell_angle_gamma 90.000000
_cell_volume 3027.966602
_symmetry_space_group_name_H-M "I B A M"
_symmetry_group_IT_number 72
_symmetry_cell_setting 'orthorhombic'
loop_
_space_group_symop_operation_xyz
x,y,z
-x,-y,z
x,-y,1/2-z
-x,y,1/2-z
-x,-y,-z
x,y,-z
-x,y,1/2+z
x,-y,1/2+z
1/2+x,1/2+y,1/2+z
1/2-x,1/2-y,1/2+z
1/2+x,1/2-y,-z
1/2-x,1/2+y,-z
1/2-x,1/2-y,1/2-z
1/2+x,1/2+y,1/2-z
1/2-x,1/2+y,z
1/2+x,1/2-y,z
loop_
_atom_site_type_symbol
_atom_site_label
_atom_site_fract_x
_atom_site_fract_y
_atom_site_fract_z
Si Si1 0.111128 0.349497 0.304095
Si Si2 0.282124 0.513656 0.000000
Si Si3 0.825712 0.345605 0.000000
Si Si4 0.055242 0.931686 0.110851
Si Si5 0.345406 0.617789 0.829921
O O1 0.086037 0.500000 0.250000
O O2 0.140226 0.380084 0.405077
O O3 0.066286 0.220406 0.322954
O O4 0.150936 0.286634 0.221952
O O5 0.219761 0.523788 0.000000
O O6 0.301620 0.617010 0.089470
O O7 0.304482 0.335145 0.000000
O O8 0.098888 0.064174 0.126682
O O9 0.055070 0.878012 0.000000
O O10 0.000000 0.000000 0.143077
O O11 0.324806 0.500000 0.750000
#
# Coordination Sequence:
#
# PCOD8293788 Si02
#       5
#    16   8   8  16  16
#     4  11  24  42  65 100 140 171 218 279 334 403
#     4  12  24  42  64  94 137 174 236 283 322 402
#     4  12  26  44  62  98 136 180 226 281 332 383
#     4  10  19  41  74  98 127 172 222 272 332 404
#     4  10  20  40  64  91 131 176 219 271 330 395
#
# _framework density 21.136296999999999
#
# number of rings (size 3 to 8) (size 9 to 14) (size 15 to 20)
#    0.000    1.250    7.500    0.000    3.500    6.500 
#    0.000    2.500    0.000    3.000    0.000    0.000 
#    0.000    0.000    0.000    0.000    0.000    0.000 
#
# Total GULP energy -396607.888071 kJ/mol
# GULP energy per Si atom -12393.996502 kJ/mol
# Density = 2.108819 g / cm^3
# Si number density = 21.136297 Si / 1000 Ang^3
#
#
#
# Elastic Constant Matrix: (Units=GPa)
#
#
# Indices 1 2 3 4 5 6 
#
# 1 99.6241 17.1812 43.6540 0.0000 0.0000 0.0000
# 2 17.1812 76.8221 47.5787 0.0000 0.0000 0.0000
# 3 43.6540 47.5787 130.5910 0.0000 0.0000 0.0000
# 4 0.0000 0.0000 0.0000 32.5979 0.0000 0.0000
# 5 0.0000 0.0000 0.0000 0.0000 13.6731 0.0000
# 6 0.0000 0.0000 0.0000 0.0000 0.0000 18.2239
#
#
#
# Elastic Compliance Matrix: (Units=1/GPa)
#
#
# Indices 1 2 3 4 5 6 
#
# 1 0.011764 -0.000252 -0.003841 0.000000 0.000000 0.000000
# 2 -0.000252 0.016816 -0.006042 0.000000 0.000000 0.000000
# 3 -0.003841 -0.006042 0.011143 0.000000 0.000000 0.000000
# 4 0.000000 0.000000 0.000000 0.030677 0.000000 0.000000
# 5 0.000000 0.000000 0.000000 0.000000 0.073136 0.000000
# 6 0.000000 0.000000 0.000000 0.000000 0.000000 0.054873
#
#
# Mechanical properties :
#
#
# Convention : Reuss Voigt Hill
#
# Bulk Modulus (GPa) = 51.40801 58.20723 54.80762
# Shear Modulus (GPa) = 22.20613 26.14052 24.17332
#
# Velocity S-wave (km/s) = 3.24484 3.52057 3.38551
# Velocity P-wave (km/s) = 6.19787 6.64264 6.42411
#
# Compressibility (1/GPa) = 0.01945222
#
# Stress axis : x y z
#
# Youngs Moduli (GPa) = 85.00406 59.46835 89.74516
#
# Poissons Ratio (x) = 0.01501 0.34467
# Poissons Ratio (y) = 0.02146 0.54225
# Poissons Ratio (z) = 0.32646 0.35932
#
# Static dielectric constant tensor:
#      x y z
#    x 3.604840 0.000000 0.000000 
#    y 0.000000 3.843320 0.000000 
#    z 0.000000 0.000000 4.362040 
# 
# 
# High freq. dielectric constant tensor:
#      x y z
#    x 1.804840 0.000000 0.000000 
#    y 0.000000 1.811580 0.000000 
#    z 0.000000 0.000000 1.859760 
# 
# From -- ./inp_files/18697.got.cif
#   From: 2010.03.12/outbox.cif.g09.slc.cpg/sg72_10_cif.got.tgz:18697.got - 2010.04.16 14:54:00.
