data_PCOD8293375
_publ_section_title
;
Structure prediction by ZEFSAII (Michael W. Deem and Ramdas Pophale) SiO2 
 PCOD8293375
Probable space group: I B A M
;
_chemical_formula_sum "Si O2"
_cell_formula_units_Z 116
_cell_length_a 24.120231
_cell_length_b 24.089802
_cell_length_c 9.163011
_cell_angle_alpha 90.000000
_cell_angle_beta 90.000000
_cell_angle_gamma 90.000000
_cell_volume 5324.182101
_symmetry_space_group_name_H-M "I B A M"
_symmetry_group_IT_number 72
_symmetry_cell_setting 'orthorhombic'
loop_
_space_group_symop_operation_xyz
x,y,z
-x,-y,z
x,-y,1/2-z
-x,y,1/2-z
-x,-y,-z
x,y,-z
-x,y,1/2+z
x,-y,1/2+z
1/2+x,1/2+y,1/2+z
1/2-x,1/2-y,1/2+z
1/2+x,1/2-y,-z
1/2-x,1/2+y,-z
1/2-x,1/2-y,1/2-z
1/2+x,1/2+y,1/2-z
1/2-x,1/2+y,z
1/2+x,1/2-y,z
loop_
_atom_site_type_symbol
_atom_site_label
_atom_site_fract_x
_atom_site_fract_y
_atom_site_fract_z
Si Si1 0.000000 0.000000 0.250000
Si Si2 0.876375 0.550557 0.662013
Si Si3 0.949826 0.376936 0.661305
Si Si4 0.140352 0.282966 0.836973
Si Si5 0.715606 0.856537 0.162281
Si Si6 0.056120 0.791513 0.829175
Si Si7 0.804964 0.056349 0.673365
Si Si8 0.412642 0.415921 0.839717
O O1 0.961637 0.039217 0.151076
O O2 0.848212 0.500000 0.750000
O O3 0.892795 0.530827 0.500000
O O4 0.931377 0.568511 0.749762
O O5 0.834480 0.600914 0.652667
O O6 0.969837 0.394009 0.500000
O O7 0.899902 0.334647 0.650402
O O8 0.000000 0.348453 0.750000
O O9 0.198135 0.304336 0.764040
O O10 0.111211 0.236091 0.739029
O O11 0.153230 0.259730 0.000000
O O12 0.768699 0.890317 0.224494
O O13 0.728719 0.833478 0.000000
O O14 0.061212 0.856764 0.801388
O O15 0.000000 0.770394 0.750000
O O16 0.052157 0.775878 0.000000
O O17 0.800362 0.048125 0.500000
O O18 0.868280 0.067407 0.717548
O O19 0.783217 0.000000 0.750000
O O20 0.384137 0.414267 0.000000
#
# Coordination Sequence:
#
# PCOD8293375 Si02
#       8
#     4  16  16  16  16  16  16  16
#     4  12  22  44  72  98 138 172 214 252 310 364
#     4  10  19  32  50  72 102 139 183 234 295 358
#     4  10  20  33  49  72 102 137 184 236 294 358
#     4  10  21  37  60  88 116 155 203 255 311 367
#     4   9  20  38  59  85 117 157 201 253 310 364
#     4  11  23  40  62  92 128 165 209 260 313 378
#     4  11  23  39  63  94 129 167 211 260 315 378
#     4  11  25  42  65  98 132 170 211 255 311 371
#
# _framework density 21.787382999999998
#
# number of rings (size 3 to 8) (size 9 to 14) (size 15 to 20)
#    0.000    1.655    1.379    3.103    0.000    6.345 
#    0.000    2.069    0.000    0.000    0.000    0.000 
#    0.000    0.000    0.000    0.000    0.000    0.000 
#
# Total GULP energy -719102.354088 kJ/mol
# GULP energy per Si atom -12398.316450 kJ/mol
# Density = 2.173779 g / cm^3
# Si number density = 21.787383 Si / 1000 Ang^3
#
#
#
# Elastic Constant Matrix: (Units=GPa)
#
#
# Indices 1 2 3 4 5 6 
#
# 1 93.7396 32.9136 42.4132 0.0000 0.0000 0.0000
# 2 32.9136 87.1703 48.3223 0.0000 0.0000 0.0000
# 3 42.4132 48.3223 153.9131 0.0000 0.0000 0.0000
# 4 0.0000 0.0000 0.0000 25.1914 0.0000 0.0000
# 5 0.0000 0.0000 0.0000 0.0000 25.0234 0.0000
# 6 0.0000 0.0000 0.0000 0.0000 0.0000 35.3883
#
#
#
# Elastic Compliance Matrix: (Units=1/GPa)
#
#
# Indices 1 2 3 4 5 6 
#
# 1 0.013035 -0.003548 -0.002478 0.000000 0.000000 0.000000
# 2 -0.003548 0.014855 -0.003686 0.000000 0.000000 0.000000
# 3 -0.002478 -0.003686 0.008337 0.000000 0.000000 0.000000
# 4 0.000000 0.000000 0.000000 0.039696 0.000000 0.000000
# 5 0.000000 0.000000 0.000000 0.000000 0.039963 0.000000
# 6 0.000000 0.000000 0.000000 0.000000 0.000000 0.028258
#
#
# Mechanical properties :
#
#
# Convention : Reuss Voigt Hill
#
# Bulk Modulus (GPa) = 59.51416 64.68013 62.09715
# Shear Modulus (GPa) = 29.55630 31.19887 30.37759
#
# Velocity S-wave (km/s) = 3.68717 3.78824 3.73805
# Velocity P-wave (km/s) = 6.74553 6.99184 6.86979
#
# Compressibility (1/GPa) = 0.01680272
#
# Stress axis : x y z
#
# Youngs Moduli (GPa) = 76.71765 67.31832 119.94278
#
# Poissons Ratio (x) = 0.23884 0.29722
# Poissons Ratio (y) = 0.27219 0.44212
# Poissons Ratio (z) = 0.19011 0.24814
#
# Static dielectric constant tensor:
#      x y z
#    x 3.783720 0.000000 0.000000 
#    y 0.000000 3.868110 0.000000 
#    z 0.000000 0.000000 4.249750 
# 
# 
# High freq. dielectric constant tensor:
#      x y z
#    x 1.843320 0.000000 0.000000 
#    y 0.000000 1.850400 0.000000 
#    z 0.000000 0.000000 1.865030 
# 
# From -- ./inp_files/7313.got.cif
#   From: 2010.03.12/outbox.cif.g09.slc.cpg/sg72_4_cif.got.tgz:7313.got - 2010.04.16 14:54:00.
