data_PCOD8293407
_publ_section_title
;
Structure prediction by ZEFSAII (Michael W. Deem and Ramdas Pophale) SiO2 
 PCOD8293407
Probable space group: I B A M
;
_chemical_formula_sum "Si O2"
_cell_formula_units_Z 112
_cell_length_a 19.779809
_cell_length_b 18.962936
_cell_length_c 18.236340
_cell_angle_alpha 90.000000
_cell_angle_beta 90.000000
_cell_angle_gamma 90.000000
_cell_volume 6840.145715
_symmetry_space_group_name_H-M "I B A M"
_symmetry_group_IT_number 72
_symmetry_cell_setting 'orthorhombic'
loop_
_space_group_symop_operation_xyz
x,y,z
-x,-y,z
x,-y,1/2-z
-x,y,1/2-z
-x,-y,-z
x,y,-z
-x,y,1/2+z
x,-y,1/2+z
1/2+x,1/2+y,1/2+z
1/2-x,1/2-y,1/2+z
1/2+x,1/2-y,-z
1/2-x,1/2+y,-z
1/2-x,1/2-y,1/2-z
1/2+x,1/2+y,1/2-z
1/2-x,1/2+y,z
1/2+x,1/2-y,z
loop_
_atom_site_type_symbol
_atom_site_label
_atom_site_fract_x
_atom_site_fract_y
_atom_site_fract_z
Si Si1 0.631929 0.230517 0.919081
Si Si2 0.693286 0.729168 0.808321
Si Si3 0.567439 0.303835 0.208792
Si Si4 0.740310 0.125274 0.083729
Si Si5 0.796099 0.023391 0.584562
Si Si6 0.569548 0.533149 0.671666
Si Si7 0.261179 0.168462 0.083237
O O1 0.575716 0.250263 0.859500
O O2 0.662886 0.152129 0.905114
O O3 0.694265 0.284210 0.912202
O O4 0.598960 0.235400 0.000000
O O5 0.750000 0.750000 0.750000
O O6 0.626313 0.707287 0.766939
O O7 0.711331 0.661953 0.857698
O O8 0.683028 0.796250 0.863183
O O9 0.500000 0.282102 0.250000
O O10 0.563463 0.382789 0.177733
O O11 0.745601 0.041892 0.097429
O O12 0.763291 0.144053 0.000000
O O13 0.812033 0.036993 0.500000
O O14 0.868504 0.010674 0.620963
O O15 0.757583 0.091851 0.615887
O O16 0.500000 0.500000 0.639213
O O17 0.584164 0.500000 0.750000
O O18 0.289135 0.164066 0.000000
#
# Coordination Sequence:
#
# PCOD8293407 Si02
#       7
#    16  16  16  16  16  16  16
#     4   9  17  34  53  70  99 136 171 211 260 303
#     4  11  18  32  53  73  98 135 177 214 264 300
#     4  12  22  34  51  75 103 142 180 211 246 308
#     4   9  18  31  51  77 101 128 171 222 260 304
#     4  10  19  32  52  77 102 132 171 214 258 306
#     4  11  21  34  45  65 106 146 173 200 244 295
#     4   9  17  31  52  75 100 130 170 217 260 305
#
# _framework density 16.373919999999998
#
# number of rings (size 3 to 8) (size 9 to 14) (size 15 to 20)
#    0.000    1.857    5.714    2.143    0.000    0.286 
#    0.000    1.429    0.000    0.000    0.000    2.000 
#    0.000    4.571    0.000    0.000    0.000    0.000 
#
# Total GULP energy -694147.759130 kJ/mol
# GULP energy per Si atom -12395.495699 kJ/mol
# Density = 1.633665 g / cm^3
# Si number density = 16.373920 Si / 1000 Ang^3
#
#
#
# Elastic Constant Matrix: (Units=GPa)
#
#
# Indices 1 2 3 4 5 6 
#
# 1 67.4014 36.7274 32.3833 0.0000 0.0000 0.0000
# 2 36.7274 100.3604 27.0431 0.0000 0.0000 0.0000
# 3 32.3833 27.0431 73.3861 0.0000 0.0000 0.0000
# 4 0.0000 0.0000 0.0000 20.1341 0.0000 0.0000
# 5 0.0000 0.0000 0.0000 0.0000 24.7383 0.0000
# 6 0.0000 0.0000 0.0000 0.0000 0.0000 23.9325
#
#
#
# Elastic Compliance Matrix: (Units=1/GPa)
#
#
# Indices 1 2 3 4 5 6 
#
# 1 0.021593 -0.005923 -0.007346 0.000000 0.000000 0.000000
# 2 -0.005923 0.012687 -0.002062 0.000000 0.000000 0.000000
# 3 -0.007346 -0.002062 0.017628 0.000000 0.000000 0.000000
# 4 0.000000 0.000000 0.000000 0.049667 0.000000 0.000000
# 5 0.000000 0.000000 0.000000 0.000000 0.040423 0.000000
# 6 0.000000 0.000000 0.000000 0.000000 0.000000 0.041784
#
#
# Mechanical properties :
#
#
# Convention : Reuss Voigt Hill
#
# Bulk Modulus (GPa) = 47.06452 48.16170 47.61311
# Shear Modulus (GPa) = 22.57076 23.42727 22.99902
#
# Velocity S-wave (km/s) = 3.71679 3.78665 3.75188
# Velocity P-wave (km/s) = 6.87207 6.97107 6.92175
#
# Compressibility (1/GPa) = 0.02124743
#
# Stress axis : x y z
#
# Youngs Moduli (GPa) = 46.31091 78.82040 56.72835
#
# Poissons Ratio (x) = 0.46683 0.41672
# Poissons Ratio (y) = 0.27429 0.11696
# Poissons Ratio (z) = 0.34020 0.16251
#
# Static dielectric constant tensor:
#      x y z
#    x 2.570230 0.000000 0.000000 
#    y 0.000000 3.345930 0.000000 
#    z 0.000000 0.000000 3.325640 
# 
# 
# High freq. dielectric constant tensor:
#      x y z
#    x 1.584360 0.000000 0.000000 
#    y 0.000000 1.632380 0.000000 
#    z 0.000000 0.000000 1.646010 
# 
# From -- ./inp_files/32772.got.cif
#   From: 2010.03.12/outbox.cif.g09.slc.cpg/sg72_17_cif.got.tgz:32772.got - 2010.04.16 14:54:00.
