data_PCOD8293721
_publ_section_title
;
Structure prediction by ZEFSAII (Michael W. Deem and Ramdas Pophale) SiO2 
 PCOD8293721
Probable space group: I B A M
;
_chemical_formula_sum "Si O2"
_cell_formula_units_Z 64
_cell_length_a 11.613378
_cell_length_b 18.682427
_cell_length_c 14.348295
_cell_angle_alpha 90.000000
_cell_angle_beta 90.000000
_cell_angle_gamma 90.000000
_cell_volume 3113.093417
_symmetry_space_group_name_H-M "I B A M"
_symmetry_group_IT_number 72
_symmetry_cell_setting 'orthorhombic'
loop_
_space_group_symop_operation_xyz
x,y,z
-x,-y,z
x,-y,1/2-z
-x,y,1/2-z
-x,-y,-z
x,y,-z
-x,y,1/2+z
x,-y,1/2+z
1/2+x,1/2+y,1/2+z
1/2-x,1/2-y,1/2+z
1/2+x,1/2-y,-z
1/2-x,1/2+y,-z
1/2-x,1/2-y,1/2-z
1/2+x,1/2+y,1/2-z
1/2-x,1/2+y,z
1/2+x,1/2-y,z
loop_
_atom_site_type_symbol
_atom_site_label
_atom_site_fract_x
_atom_site_fract_y
_atom_site_fract_z
Si Si1 0.793186 0.986122 0.500000
Si Si2 0.599652 0.658474 0.000000
Si Si3 0.000000 0.664063 0.750000
Si Si4 0.384692 0.961764 0.841933
Si Si5 0.666508 0.345918 0.000000
Si Si6 0.808122 0.260893 0.849759
O O1 0.896962 0.928405 0.500000
O O2 0.718097 0.966795 0.588214
O O3 0.834162 0.067669 0.500000
O O4 0.667310 0.689169 0.909301
O O5 0.465445 0.681034 0.000000
O O6 0.911232 0.619483 0.813577
O O7 0.934189 0.708854 0.671770
O O8 0.500000 0.000000 0.881568
O O9 0.339941 0.000000 0.750000
O O10 0.731417 0.317196 0.091772
O O11 0.750000 0.250000 0.750000
#
# Coordination Sequence:
#
# PCOD8293721 Si02
#       6
#     8   8   8  16   8  16
#     4  12  22  38  60  84 124 166 200 244 298 368
#     4  11  26  40  59  90 124 162 207 251 303 369
#     4  10  19  36  62  86 117 154 200 256 310 364
#     4   9  19  34  56  90 117 145 195 255 312 361
#     4  11  24  42  63  92 124 164 203 243 305 373
#     4  11  23  42  65  89 120 159 206 260 309 363
#
# _framework density 20.558330000000002
#
# number of rings (size 3 to 8) (size 9 to 14) (size 15 to 20)
#    0.000    1.750    0.000    6.750    0.000    4.000 
#    0.000    0.000    0.000    4.500    0.000    0.000 
#    0.000    0.000    0.000    0.000    0.000    0.000 
#
# Total GULP energy -396628.661248 kJ/mol
# GULP energy per Si atom -12394.645664 kJ/mol
# Density = 2.051154 g / cm^3
# Si number density = 20.558330 Si / 1000 Ang^3
#
#
#
# Elastic Constant Matrix: (Units=GPa)
#
#
# Indices 1 2 3 4 5 6 
#
# 1 93.5902 30.1417 61.1196 0.0000 0.0000 0.0000
# 2 30.1417 127.6414 51.6516 0.0000 0.0000 0.0000
# 3 61.1196 51.6516 138.7915 0.0000 0.0000 0.0000
# 4 0.0000 0.0000 0.0000 25.7797 0.0000 -0.0001
# 5 0.0000 0.0000 0.0000 0.0000 39.1540 -0.0001
# 6 0.0000 0.0000 0.0000 -0.0001 -0.0001 -478.1477
#
#
#
# Elastic Compliance Matrix: (Units=1/GPa)
#
#
# Indices 1 2 3 4 5 6 
#
# 1 0.015112 -0.001031 -0.006271 0.000000 0.000000 0.000000
# 2 -0.001031 0.009294 -0.003005 0.000000 0.000000 0.000000
# 3 -0.006271 -0.003005 0.011085 0.000000 0.000000 0.000000
# 4 0.000000 0.000000 0.000000 0.038790 0.000000 0.000000
# 5 0.000000 0.000000 0.000000 0.000000 0.025540 0.000000
# 6 0.000000 0.000000 0.000000 0.000000 0.000000 -0.002091
#
#
# Mechanical properties :
#
#
# Convention : Reuss Voigt Hill
#
# Bulk Modulus (GPa) = 67.21713 71.76101 69.48907
# Shear Modulus (GPa) = 40.55037 -68.16879 -13.80921
#
# Velocity S-wave (km/s) = 4.44605 -5.76461 -2.59455
# Velocity P-wave (km/s) = 7.68917 3.05381 4.98986
#
# Compressibility (1/GPa) = 0.01487716
#
# Stress axis : x y z
#
# Youngs Moduli (GPa) = 66.17047 107.59875 90.21186
#
# Poissons Ratio (x) = 0.11092 0.56576
# Poissons Ratio (y) = 0.06822 0.27106
# Poissons Ratio (z) = 0.41498 0.32330
#
# Static dielectric constant tensor:
#      x y z
#    x 3.754750 0.000000 0.000000 
#    y 0.000000 4.062770 0.000000 
#    z 0.000000 0.000000 3.619450 
# 
# 
# High freq. dielectric constant tensor:
#      x y z
#    x 1.800790 0.000000 0.000000 
#    y 0.000000 1.808500 0.000000 
#    z 0.000000 0.000000 1.811680 
# 
# From -- ./inp_files/19778.got.cif
#   From: 2010.03.12/outbox.cif.g09.slc.cpg/sg72_10_cif.got.tgz:19778.got - 2010.04.16 14:54:00.
