data_PCOD8293780
_publ_section_title
;
Structure prediction by ZEFSAII (Michael W. Deem and Ramdas Pophale) SiO2 
 PCOD8293780
Probable space group: I B A M
;
_chemical_formula_sum "Si O2"
_cell_formula_units_Z 96
_cell_length_a 14.059259
_cell_length_b 13.737986
_cell_length_c 22.389789
_cell_angle_alpha 90.000000
_cell_angle_beta 90.000000
_cell_angle_gamma 90.000000
_cell_volume 4324.496021
_symmetry_space_group_name_H-M "I B A M"
_symmetry_group_IT_number 72
_symmetry_cell_setting 'orthorhombic'
loop_
_space_group_symop_operation_xyz
x,y,z
-x,-y,z
x,-y,1/2-z
-x,y,1/2-z
-x,-y,-z
x,y,-z
-x,y,1/2+z
x,-y,1/2+z
1/2+x,1/2+y,1/2+z
1/2-x,1/2-y,1/2+z
1/2+x,1/2-y,-z
1/2-x,1/2+y,-z
1/2-x,1/2-y,1/2-z
1/2+x,1/2+y,1/2-z
1/2-x,1/2+y,z
1/2+x,1/2-y,z
loop_
_atom_site_type_symbol
_atom_site_label
_atom_site_fract_x
_atom_site_fract_y
_atom_site_fract_z
Si Si1 0.517661 0.795331 0.848237
Si Si2 0.785283 0.004993 0.931405
Si Si3 0.373034 0.047095 0.343537
Si Si4 0.828407 0.217883 0.932189
Si Si5 0.328105 0.317775 0.359016
Si Si6 0.670181 0.855170 0.770835
O O1 0.477491 0.906792 0.855623
O O2 0.584955 0.778818 0.905187
O O3 0.434811 0.715829 0.847354
O O4 0.584373 0.781171 0.789054
O O5 0.681106 0.031459 0.905671
O O6 0.849003 0.102431 0.927034
O O7 0.833939 0.922542 0.891209
O O8 0.774391 0.970685 0.000000
O O9 0.323334 0.130900 0.300544
O O10 0.369266 0.950187 0.305035
O O11 0.728183 0.242999 0.901058
O O12 0.818731 0.251305 0.000000
O O13 0.274187 0.324740 0.294726
#
# Coordination Sequence:
#
# PCOD8293780 Si02
#       6
#    16  16  16  16  16  16
#     4  11  21  35  58  91 120 161 203 258 312 372
#     4  10  21  39  63  87 122 167 209 256 313 374
#     4  10  19  39  64  90 123 161 205 261 319 371
#     4  10  22  39  57  87 123 159 211 262 304 375
#     4  10  21  39  60  90 122 164 210 257 311 378
#     4   9  21  38  61  91 126 159 208 259 314 375
#
# _framework density 22.199120000000001
#
# number of rings (size 3 to 8) (size 9 to 14) (size 15 to 20)
#    0.000    2.000    1.667    1.500    0.000    4.667 
#    3.000    1.667    0.000    6.000    0.000    0.000 
#    0.000    0.000    0.000    0.000    0.000    0.000 
#
# Total GULP energy -594974.105102 kJ/mol
# GULP energy per Si atom -12395.293856 kJ/mol
# Density = 2.214859 g / cm^3
# Si number density = 22.199120 Si / 1000 Ang^3
#
#
#
# Elastic Constant Matrix: (Units=GPa)
#
#
# Indices 1 2 3 4 5 6 
#
# 1 108.0786 14.4683 25.3340 0.0000 0.0000 0.0000
# 2 14.4683 53.6277 -11.2260 0.0000 0.0000 0.0000
# 3 25.3340 -11.2260 91.7067 0.0000 0.0000 0.0000
# 4 0.0000 0.0000 0.0000 23.6773 0.0000 0.0000
# 5 0.0000 0.0000 0.0000 0.0000 22.8469 0.0000
# 6 0.0000 0.0000 0.0000 0.0000 0.0000 35.9439
#
#
#
# Elastic Compliance Matrix: (Units=1/GPa)
#
#
# Indices 1 2 3 4 5 6 
#
# 1 0.010507 -0.003533 -0.003335 0.000000 0.000000 0.000000
# 2 -0.003533 0.020325 0.003464 0.000000 0.000000 0.000000
# 3 -0.003335 0.003464 0.012250 0.000000 0.000000 0.000000
# 4 0.000000 0.000000 0.000000 0.042235 0.000000 0.000000
# 5 0.000000 0.000000 0.000000 0.000000 0.043770 0.000000
# 6 0.000000 0.000000 0.000000 0.000000 0.000000 0.027821
#
#
# Mechanical properties :
#
#
# Convention : Reuss Voigt Hill
#
# Bulk Modulus (GPa) = 27.56767 34.50726 31.03747
# Shear Modulus (GPa) = 28.44028 31.48273 29.96151
#
# Velocity S-wave (km/s) = 3.58319 3.76998 3.67777
# Velocity P-wave (km/s) = 5.43731 5.87610 5.66096
#
# Compressibility (1/GPa) = 0.03627438
#
# Stress axis : x y z
#
# Youngs Moduli (GPa) = 95.17260 49.19959 81.63473
#
# Poissons Ratio (x) = 0.17382 0.27226
# Poissons Ratio (y) = 0.33624 -0.28279
# Poissons Ratio (z) = 0.31741 -0.17043
#
# Static dielectric constant tensor:
#      x y z
#    x 3.713670 0.000000 0.000000 
#    y 0.000000 4.383220 0.000000 
#    z 0.000000 0.000000 4.154550 
# 
# 
# High freq. dielectric constant tensor:
#      x y z
#    x 1.857290 0.000000 0.000000 
#    y 0.000000 1.891150 0.000000 
#    z 0.000000 0.000000 1.874920 
# 
# From -- ./inp_files/38008.got.cif
#   From: 2010.03.12/outbox.cif.g09.slc.cpg/sg72_20_cif.got.tgz:38008.got - 2010.04.16 14:54:00.
