data_PCOD8293493
_publ_section_title
;
Structure prediction by ZEFSAII (Michael W. Deem and Ramdas Pophale) SiO2 
 PCOD8293493
Probable space group: I B A M
;
_chemical_formula_sum "Si O2"
_cell_formula_units_Z 112
_cell_length_a 29.262104
_cell_length_b 15.061570
_cell_length_c 14.163035
_cell_angle_alpha 90.000000
_cell_angle_beta 90.000000
_cell_angle_gamma 90.000000
_cell_volume 6242.120130
_symmetry_space_group_name_H-M "I B A M"
_symmetry_group_IT_number 72
_symmetry_cell_setting 'orthorhombic'
loop_
_space_group_symop_operation_xyz
x,y,z
-x,-y,z
x,-y,1/2-z
-x,y,1/2-z
-x,-y,-z
x,y,-z
-x,y,1/2+z
x,-y,1/2+z
1/2+x,1/2+y,1/2+z
1/2-x,1/2-y,1/2+z
1/2+x,1/2-y,-z
1/2-x,1/2+y,-z
1/2-x,1/2-y,1/2-z
1/2+x,1/2+y,1/2-z
1/2-x,1/2+y,z
1/2+x,1/2-y,z
loop_
_atom_site_type_symbol
_atom_site_label
_atom_site_fract_x
_atom_site_fract_y
_atom_site_fract_z
Si Si1 0.449448 0.851659 0.748493
Si Si2 0.356563 0.230324 0.772542
Si Si3 0.329456 0.954318 0.651650
Si Si4 0.573228 0.996148 0.605450
Si Si5 0.701447 0.354074 0.387744
Si Si6 0.270170 0.542784 0.103638
Si Si7 0.289961 0.736971 0.111874
O O1 0.500000 0.808235 0.750000
O O2 0.411546 0.773890 0.740575
O O3 0.446301 0.919293 0.660914
O O4 0.441781 0.905528 0.844874
O O5 0.340545 0.148716 0.836270
O O6 0.342733 0.317713 0.831882
O O7 0.333047 0.225052 0.669282
O O8 0.371753 0.002324 0.601420
O O9 0.284345 0.965560 0.589928
O O10 0.319306 0.000000 0.750000
O O11 0.553198 0.997507 0.500000
O O12 0.692488 0.353766 0.500000
O O13 0.710286 0.453796 0.346912
O O14 0.745081 0.293297 0.362754
O O15 0.282806 0.636398 0.152450
O O16 0.291963 0.545847 0.000000
O O17 0.300120 0.740689 0.000000
#
# Coordination Sequence:
#
# PCOD8293493 Si02
#       7
#    16  16  16  16  16  16  16
#     4  10  22  38  51  74 104 131 178 230 270 316
#     4  11  21  35  52  74 103 141 174 217 266 307
#     4  11  19  31  48  77 107 144 179 211 248 304
#     4  10  19  33  54  76 104 140 176 215 262 314
#     4  10  21  34  52  78 107 139 177 216 255 310
#     4  10  21  33  49  75 110 148 181 213 253 307
#     4  10  21  35  50  75 110 143 177 216 254 308
#
# _framework density 17.942620999999999
#
# number of rings (size 3 to 8) (size 9 to 14) (size 15 to 20)
#    0.000    1.714    4.286    2.571    2.000    4.000 
#    0.000    0.000    0.000    0.000    0.000    2.000 
#    0.000    3.429    0.000    0.000    0.000    0.000 
#
# Total GULP energy -694182.292116 kJ/mol
# GULP energy per Si atom -12396.112359 kJ/mol
# Density = 1.790178 g / cm^3
# Si number density = 17.942621 Si / 1000 Ang^3
#
#
#
# Elastic Constant Matrix: (Units=GPa)
#
#
# Indices 1 2 3 4 5 6 
#
# 1 130.0127 41.6567 25.1601 0.0000 0.0000 0.0000
# 2 41.6567 93.1852 21.1292 0.0000 0.0000 0.0000
# 3 25.1601 21.1292 75.7670 0.0000 0.0000 0.0000
# 4 0.0000 0.0000 0.0000 11.6357 0.0000 0.0000
# 5 0.0000 0.0000 0.0000 0.0000 -21.1374 0.0000
# 6 0.0000 0.0000 0.0000 0.0000 0.0000 20.6114
#
#
#
# Elastic Compliance Matrix: (Units=1/GPa)
#
#
# Indices 1 2 3 4 5 6 
#
# 1 0.009267 -0.003677 -0.002052 0.000000 0.000000 0.000000
# 2 -0.003677 0.012915 -0.002380 0.000000 0.000000 0.000000
# 3 -0.002052 -0.002380 0.014544 0.000000 0.000000 0.000000
# 4 0.000000 0.000000 0.000000 0.085942 0.000000 0.000000
# 5 0.000000 0.000000 0.000000 0.000000 -0.047310 0.000000
# 6 0.000000 0.000000 0.000000 0.000000 0.000000 0.048517
#
#
# Mechanical properties :
#
#
# Convention : Reuss Voigt Hill
#
# Bulk Modulus (GPa) = 48.76571 52.76187 50.76379
# Shear Modulus (GPa) = 34.02998 16.28989 25.15994
#
# Velocity S-wave (km/s) = 4.35972 3.01639 3.74872
# Velocity P-wave (km/s) = 7.25125 6.44990 6.86228
#
# Compressibility (1/GPa) = 0.02050621
#
# Stress axis : x y z
#
# Youngs Moduli (GPa) = 107.91155 77.42962 68.75915
#
# Poissons Ratio (x) = 0.28474 0.14108
# Poissons Ratio (y) = 0.39683 0.16368
# Poissons Ratio (z) = 0.22141 0.18432
#
# Static dielectric constant tensor:
#      x y z
#    x 3.235650 0.000000 0.000000 
#    y 0.000000 3.353260 0.000000 
#    z 0.000000 0.000000 3.606220 
# 
# 
# High freq. dielectric constant tensor:
#      x y z
#    x 1.664570 0.000000 0.000000 
#    y 0.000000 1.673720 0.000000 
#    z 0.000000 0.000000 1.704050 
# 
# From -- ./inp_files/25948.got.cif
#   From: 2010.03.12/outbox.cif.g09.slc.cpg/sg72_13_cif.got.tgz:25948.got - 2010.04.16 14:54:00.
