data_PCOD8293993
_publ_section_title
;
Structure prediction by ZEFSAII (Michael W. Deem and Ramdas Pophale) SiO2 
 PCOD8293993
Probable space group: I B A M
;
_chemical_formula_sum "Si O2"
_cell_formula_units_Z 96
_cell_length_a 28.299020
_cell_length_b 19.821480
_cell_length_c 8.640115
_cell_angle_alpha 90.000000
_cell_angle_beta 90.000000
_cell_angle_gamma 90.000000
_cell_volume 4846.486392
_symmetry_space_group_name_H-M "I B A M"
_symmetry_group_IT_number 72
_symmetry_cell_setting 'orthorhombic'
loop_
_space_group_symop_operation_xyz
x,y,z
-x,-y,z
x,-y,1/2-z
-x,y,1/2-z
-x,-y,-z
x,y,-z
-x,y,1/2+z
x,-y,1/2+z
1/2+x,1/2+y,1/2+z
1/2-x,1/2-y,1/2+z
1/2+x,1/2-y,-z
1/2-x,1/2+y,-z
1/2-x,1/2-y,1/2-z
1/2+x,1/2+y,1/2-z
1/2-x,1/2+y,z
1/2+x,1/2-y,z
loop_
_atom_site_type_symbol
_atom_site_label
_atom_site_fract_x
_atom_site_fract_y
_atom_site_fract_z
Si Si1 0.051585 0.432980 0.318219
Si Si2 0.050818 0.837954 0.682736
Si Si3 0.809918 0.298120 0.670691
Si Si4 0.135939 0.925397 0.183554
Si Si5 0.407414 0.207897 0.820310
Si Si6 0.224739 0.851585 0.671712
O O1 0.076873 0.500000 0.250000
O O2 0.048453 0.440064 0.500000
O O3 0.080079 0.367307 0.266925
O O4 0.000000 0.426142 0.250000
O O5 0.050766 0.848405 0.500000
O O6 0.090971 0.884484 0.756011
O O7 0.061604 0.760124 0.721595
O O8 0.000000 0.859253 0.750000
O O9 0.827474 0.321554 0.500000
O O10 0.852249 0.284714 0.788898
O O11 0.784592 0.227065 0.653006
O O12 0.774668 0.355871 0.737168
O O13 0.184254 0.890004 0.234940
O O14 0.133632 0.000000 0.250000
O O15 0.134125 0.927475 0.000000
O O16 0.418150 0.221601 0.000000
O O17 0.229168 0.884160 0.500000
#
# Coordination Sequence:
#
# PCOD8293993 Si02
#       6
#    16  16  16  16  16  16
#     4  10  21  36  56  81 112 153 197 240 292 352
#     4  12  25  42  63  91 123 160 207 258 312 368
#     4  10  20  34  59  90 121 156 195 244 297 353
#     4  12  25  43  66  91 124 164 207 256 311 372
#     4  11  22  37  59  90 123 159 200 251 306 361
#     4  10  20  37  60  89 121 155 198 244 295 355
#
# _framework density 19.808166
#
# number of rings (size 3 to 8) (size 9 to 14) (size 15 to 20)
#    0.000    1.167    1.667    6.000    0.000    5.667 
#    0.000    2.500    0.000    2.000    0.000    0.000 
#    0.000    0.000    0.000    0.000    0.000    0.000 
#
# Total GULP energy -595216.191357 kJ/mol
# GULP energy per Si atom -12400.337320 kJ/mol
# Density = 1.976308 g / cm^3
# Si number density = 19.808166 Si / 1000 Ang^3
#
#
#
# Elastic Constant Matrix: (Units=GPa)
#
#
# Indices 1 2 3 4 5 6 
#
# 1 48.9391 15.3627 22.5171 0.0000 0.0000 0.0000
# 2 15.3627 79.3309 49.6825 0.0000 0.0000 0.0000
# 3 22.5171 49.6825 145.3583 0.0000 0.0000 0.0000
# 4 0.0000 0.0000 0.0000 33.8640 0.0000 0.0000
# 5 0.0000 0.0000 0.0000 0.0000 26.3228 0.0000
# 6 0.0000 0.0000 0.0000 0.0000 0.0000 10.6038
#
#
#
# Elastic Compliance Matrix: (Units=1/GPa)
#
#
# Indices 1 2 3 4 5 6 
#
# 1 0.022468 -0.002763 -0.002536 0.000000 0.000000 0.000000
# 2 -0.002763 0.016378 -0.005170 0.000000 0.000000 0.000000
# 3 -0.002536 -0.005170 0.009040 0.000000 0.000000 0.000000
# 4 0.000000 0.000000 0.000000 0.029530 0.000000 0.000000
# 5 0.000000 0.000000 0.000000 0.000000 0.037990 0.000000
# 6 0.000000 0.000000 0.000000 0.000000 0.000000 0.094305
#
#
# Mechanical properties :
#
#
# Convention : Reuss Voigt Hill
#
# Bulk Modulus (GPa) = 37.10874 49.86143 43.48508
# Shear Modulus (GPa) = 20.86542 26.56251 23.71396
#
# Velocity S-wave (km/s) = 3.24909 3.66592 3.46378
# Velocity P-wave (km/s) = 5.73151 6.56852 6.16424
#
# Compressibility (1/GPa) = 0.02694783
#
# Stress axis : x y z
#
# Youngs Moduli (GPa) = 44.50832 61.05655 110.62546
#
# Poissons Ratio (x) = 0.16868 0.28057
# Poissons Ratio (y) = 0.12296 0.57194
# Poissons Ratio (z) = 0.11288 0.31566
#
# Static dielectric constant tensor:
#      x y z
#    x 3.630250 0.000000 0.000000 
#    y 0.000000 3.678530 0.000000 
#    z 0.000000 0.000000 3.945710 
# 
# 
# High freq. dielectric constant tensor:
#      x y z
#    x 1.772100 0.000000 0.000000 
#    y 0.000000 1.760520 0.000000 
#    z 0.000000 0.000000 1.795030 
# 
# From -- ./inp_files/8049.got.cif
#   From: 2010.03.12/outbox.cif.g09.slc.cpg/sg72_5_cif.got.tgz:8049.got - 2010.04.16 14:54:00.
