data_PCOD8293942
_publ_section_title
;
Structure prediction by ZEFSAII (Michael W. Deem and Ramdas Pophale) SiO2 
 PCOD8293942
Probable space group: I B A M
;
_chemical_formula_sum "Si O2"
_cell_formula_units_Z 96
_cell_length_a 22.989997
_cell_length_b 23.949622
_cell_length_c 9.040700
_cell_angle_alpha 90.000000
_cell_angle_beta 90.000000
_cell_angle_gamma 90.000000
_cell_volume 4977.825132
_symmetry_space_group_name_H-M "I B A M"
_symmetry_group_IT_number 72
_symmetry_cell_setting 'orthorhombic'
loop_
_space_group_symop_operation_xyz
x,y,z
-x,-y,z
x,-y,1/2-z
-x,y,1/2-z
-x,-y,-z
x,y,-z
-x,y,1/2+z
x,-y,1/2+z
1/2+x,1/2+y,1/2+z
1/2-x,1/2-y,1/2+z
1/2+x,1/2-y,-z
1/2-x,1/2+y,-z
1/2-x,1/2-y,1/2-z
1/2+x,1/2+y,1/2-z
1/2-x,1/2+y,z
1/2+x,1/2-y,z
loop_
_atom_site_type_symbol
_atom_site_label
_atom_site_fract_x
_atom_site_fract_y
_atom_site_fract_z
Si Si1 0.941955 0.125256 0.172864
Si Si2 0.730416 0.653191 0.331232
Si Si3 0.379490 0.723875 0.828106
Si Si4 0.170359 0.942786 0.170756
Si Si5 0.364664 0.165665 0.829731
Si Si6 0.561358 0.942297 0.823729
O O1 0.923505 0.183861 0.242671
O O2 0.894416 0.078063 0.206435
O O3 0.000000 0.103067 0.250000
O O4 0.951937 0.134239 0.000000
O O5 0.721895 0.633532 0.500000
O O6 0.687375 0.705168 0.296869
O O7 0.716716 0.602059 0.224980
O O8 0.796275 0.669102 0.298137
O O9 0.392263 0.786047 0.770433
O O10 0.394776 0.721275 0.000000
O O11 0.183083 0.000000 0.250000
O O12 0.180780 0.952446 0.000000
O O13 0.391809 0.105815 0.786111
O O14 0.378453 0.178934 0.000000
O O15 0.500000 0.925458 0.750000
O O16 0.583889 0.000000 0.750000
O O17 0.553864 0.950258 0.000000
#
# Coordination Sequence:
#
# PCOD8293942 Si02
#       6
#    16  16  16  16  16  16
#     4  10  21  37  56  78 107 143 182 225 272 320
#     4   9  19  36  55  78 110 144 179 221 268 316
#     4  10  20  34  55  81 110 144 179 219 266 317
#     4  10  21  36  55  79 108 143 181 224 272 321
#     4  10  21  36  56  82 110 141 178 220 265 317
#     4  10  21  38  58  78 104 137 171 214 264 312
#
# _framework density 19.285530000000001
#
# number of rings (size 3 to 8) (size 9 to 14) (size 15 to 20)
#    0.000    2.167    0.000    3.000    0.000    6.333 
#    0.000    5.000    0.000    0.000    0.000    0.000 
#    0.000    0.000    0.000    0.000    0.000    0.000 
#
# Total GULP energy -595287.885170 kJ/mol
# GULP energy per Si atom -12401.830941 kJ/mol
# Density = 1.924163 g / cm^3
# Si number density = 19.285530 Si / 1000 Ang^3
#
#
#
# Elastic Constant Matrix: (Units=GPa)
#
#
# Indices 1 2 3 4 5 6 
#
# 1 24.9447 -5.1658 4.1418 0.0000 0.0000 0.0000
# 2 -5.1658 94.2350 32.0546 0.0000 0.0000 0.0000
# 3 4.1418 32.0546 67.0036 0.0000 0.0000 0.0000
# 4 0.0000 0.0000 0.0000 35.3481 0.0000 0.0000
# 5 0.0000 0.0000 0.0000 0.0000 29.3814 0.0000
# 6 0.0000 0.0000 0.0000 0.0000 0.0000 32.6682
#
#
#
# Elastic Compliance Matrix: (Units=1/GPa)
#
#
# Indices 1 2 3 4 5 6 
#
# 1 0.041595 0.003768 -0.004374 0.000000 0.000000 0.000000
# 2 0.003768 0.013016 -0.006460 0.000000 0.000000 0.000000
# 3 -0.004374 -0.006460 0.018285 0.000000 0.000000 0.000000
# 4 0.000000 0.000000 0.000000 0.028290 0.000000 0.000000
# 5 0.000000 0.000000 0.000000 0.000000 0.034035 0.000000
# 6 0.000000 0.000000 0.000000 0.000000 0.000000 0.030611
#
#
# Mechanical properties :
#
#
# Convention : Reuss Voigt Hill
#
# Bulk Modulus (GPa) = 17.01688 27.58274 22.29981
# Shear Modulus (GPa) = 25.05622 29.82306 27.43964
#
# Velocity S-wave (km/s) = 3.60838 3.93669 3.77611
# Velocity P-wave (km/s) = 5.11893 5.91580 5.53173
#
# Compressibility (1/GPa) = 0.05876518
#
# Stress axis : x y z
#
# Youngs Moduli (GPa) = 24.04120 76.83094 54.68900
#
# Poissons Ratio (x) = -0.28949 0.23920
# Poissons Ratio (y) = -0.09059 0.35327
# Poissons Ratio (z) = 0.10515 0.49630
#
# Static dielectric constant tensor:
#      x y z
#    x 3.533120 0.000000 0.000000 
#    y 0.000000 3.436620 0.000000 
#    z 0.000000 0.000000 3.623210 
# 
# 
# High freq. dielectric constant tensor:
#      x y z
#    x 1.744230 0.000000 0.000000 
#    y 0.000000 1.750530 0.000000 
#    z 0.000000 0.000000 1.761450 
# 
# From -- ./inp_files/6950.got.cif
#   From: 2010.03.12/outbox.cif.g09.slc.cpg/sg72_4_cif.got.tgz:6950.got - 2010.04.16 14:54:00.
