data_PCOD8293555
_publ_section_title
;
Structure prediction by ZEFSAII (Michael W. Deem and Ramdas Pophale) SiO2 
 PCOD8293555
Probable space group: I B A M
;
_chemical_formula_sum "Si O2"
_cell_formula_units_Z 96
_cell_length_a 25.472196
_cell_length_b 29.047895
_cell_length_c 8.969219
_cell_angle_alpha 90.000000
_cell_angle_beta 90.000000
_cell_angle_gamma 90.000000
_cell_volume 6636.447791
_symmetry_space_group_name_H-M "I B A M"
_symmetry_group_IT_number 72
_symmetry_cell_setting 'orthorhombic'
loop_
_space_group_symop_operation_xyz
x,y,z
-x,-y,z
x,-y,1/2-z
-x,y,1/2-z
-x,-y,-z
x,y,-z
-x,y,1/2+z
x,-y,1/2+z
1/2+x,1/2+y,1/2+z
1/2-x,1/2-y,1/2+z
1/2+x,1/2-y,-z
1/2-x,1/2+y,-z
1/2-x,1/2-y,1/2-z
1/2+x,1/2+y,1/2-z
1/2-x,1/2+y,z
1/2+x,1/2-y,z
loop_
_atom_site_type_symbol
_atom_site_label
_atom_site_fract_x
_atom_site_fract_y
_atom_site_fract_z
Si Si1 0.402127 0.047068 0.676735
Si Si2 0.553689 0.137393 0.322819
Si Si3 0.752711 0.143416 0.826810
Si Si4 0.203897 0.223024 0.828565
Si Si5 0.142410 0.308686 0.829591
Si Si6 0.719296 0.045762 0.825910
O O1 0.411856 0.046514 0.500000
O O2 0.433898 0.088163 0.751172
O O3 0.341170 0.053862 0.717920
O O4 0.423108 0.000000 0.750000
O O5 0.500000 0.155573 0.250000
O O6 0.548730 0.132958 0.500000
O O7 0.597877 0.174876 0.283112
O O8 0.798774 0.171685 0.741705
O O9 0.695865 0.164599 0.790986
O O10 0.752574 0.090252 0.773151
O O11 0.765417 0.147053 0.000000
O O12 0.250000 0.250000 0.750000
O O13 0.150900 0.253406 0.808492
O O14 0.218643 0.218145 0.000000
O O15 0.125908 0.320124 0.000000
O O16 0.742418 0.000000 0.750000
O O17 0.724604 0.038499 0.000000
#
# Coordination Sequence:
#
# PCOD8293555 Si02
#       6
#    16  16  16  16  16  16
#     4  10  19  34  49  62  80 101 133 173 216 256
#     4  12  24  35  48  63  78 103 136 171 215 259
#     4   9  16  28  44  62  85 109 132 165 204 240
#     4   9  17  27  42  63  84 105 129 161 200 241
#     4   9  17  32  46  59  83 106 128 168 210 245
#     4   9  17  28  42  60  83 110 136 168 206 243
#
# _framework density 14.46557
#
# number of rings (size 3 to 8) (size 9 to 14) (size 15 to 20)
#    0.000    2.333    1.667    3.500    0.000    5.000 
#    0.000    1.667    0.000    0.000    0.000    0.000 
#    0.000    0.000    0.000    0.000    0.000    0.833 
#
# Total GULP energy -594991.325191 kJ/mol
# GULP energy per Si atom -12395.652608 kJ/mol
# Density = 1.443265 g / cm^3
# Si number density = 14.465570 Si / 1000 Ang^3
#
#
#
# Elastic Constant Matrix: (Units=GPa)
#
#
# Indices 1 2 3 4 5 6 
#
# 1 32.9076 36.6133 29.1441 0.0000 0.0000 0.0000
# 2 36.6133 106.0854 47.7295 0.0000 0.0000 0.0000
# 3 29.1441 47.7295 84.2849 0.0000 0.0000 0.0000
# 4 0.0000 0.0000 0.0000 29.1670 0.0000 0.0000
# 5 0.0000 0.0000 0.0000 0.0000 17.7884 0.0000
# 6 0.0000 0.0000 0.0000 0.0000 0.0000 15.0509
#
#
#
# Elastic Compliance Matrix: (Units=1/GPa)
#
#
# Indices 1 2 3 4 5 6 
#
# 1 0.056450 -0.014359 -0.011388 0.000000 0.000000 0.000000
# 2 -0.014359 0.016302 -0.004266 0.000000 0.000000 0.000000
# 3 -0.011388 -0.004266 0.018218 0.000000 0.000000 0.000000
# 4 0.000000 0.000000 0.000000 0.034285 0.000000 0.000000
# 5 0.000000 0.000000 0.000000 0.000000 0.056216 0.000000
# 6 0.000000 0.000000 0.000000 0.000000 0.000000 0.066441
#
#
# Mechanical properties :
#
#
# Convention : Reuss Voigt Hill
#
# Bulk Modulus (GPa) = 32.31745 50.02799 41.17272
# Shear Modulus (GPa) = 15.71078 19.72066 17.71572
#
# Velocity S-wave (km/s) = 3.29915 3.69627 3.50334
# Velocity P-wave (km/s) = 6.07470 7.27158 6.69992
#
# Compressibility (1/GPa) = 0.03094303
#
# Stress axis : x y z
#
# Youngs Moduli (GPa) = 17.71493 61.34391 54.89002
#
# Poissons Ratio (x) = 0.88083 0.62509
# Poissons Ratio (y) = 0.25437 0.23418
# Poissons Ratio (z) = 0.20174 0.26171
#
# Static dielectric constant tensor:
#      x y z
#    x 2.501660 0.000000 0.000000 
#    y 0.000000 3.110190 0.000000 
#    z 0.000000 0.000000 3.012330 
# 
# 
# High freq. dielectric constant tensor:
#      x y z
#    x 1.492880 0.000000 0.000000 
#    y 0.000000 1.555430 0.000000 
#    z 0.000000 0.000000 1.564030 
# 
# From -- ./inp_files/8468.got.cif
#   From: 2010.03.12/outbox.cif.g09.slc.cpg/sg72_5_cif.got.tgz:8468.got - 2010.04.16 14:54:00.
