data_PCOD8293363
_publ_section_title
;
Structure prediction by ZEFSAII (Michael W. Deem and Ramdas Pophale) SiO2 
 PCOD8293363
Probable space group: I B A M
;
_chemical_formula_sum "Si O2"
_cell_formula_units_Z 128
_cell_length_a 21.963743
_cell_length_b 21.006316
_cell_length_c 17.499884
_cell_angle_alpha 90.000000
_cell_angle_beta 90.000000
_cell_angle_gamma 90.000000
_cell_volume 8074.049685
_symmetry_space_group_name_H-M "I B A M"
_symmetry_group_IT_number 72
_symmetry_cell_setting 'orthorhombic'
loop_
_space_group_symop_operation_xyz
x,y,z
-x,-y,z
x,-y,1/2-z
-x,y,1/2-z
-x,-y,-z
x,y,-z
-x,y,1/2+z
x,-y,1/2+z
1/2+x,1/2+y,1/2+z
1/2-x,1/2-y,1/2+z
1/2+x,1/2-y,-z
1/2-x,1/2+y,-z
1/2-x,1/2-y,1/2-z
1/2+x,1/2+y,1/2-z
1/2-x,1/2+y,z
1/2+x,1/2-y,z
loop_
_atom_site_type_symbol
_atom_site_label
_atom_site_fract_x
_atom_site_fract_y
_atom_site_fract_z
Si Si1 0.336618 0.773225 0.414093
Si Si2 0.546657 0.822687 0.314324
Si Si3 0.941855 0.366987 0.087913
Si Si4 0.350887 0.763292 0.089327
Si Si5 0.260224 0.303481 0.814623
Si Si6 0.721147 0.639344 0.415720
Si Si7 0.110811 0.566827 0.221149
Si Si8 0.754559 0.068840 0.273947
O O1 0.332379 0.747442 0.500000
O O2 0.402358 0.803055 0.397128
O O3 0.323221 0.714497 0.357740
O O4 0.285207 0.826312 0.399101
O O5 0.500000 0.793505 0.250000
O O6 0.509717 0.854546 0.383427
O O7 0.589883 0.771486 0.356316
O O8 0.587539 0.876104 0.274194
O O9 0.912656 0.425079 0.134711
O O10 0.942011 0.387181 0.000000
O O11 0.295523 0.804547 0.124877
O O12 0.334095 0.688991 0.093121
O O13 0.361564 0.783529 0.000000
O O14 0.250000 0.250000 0.750000
O O15 0.271641 0.374063 0.783301
O O16 0.720814 0.609025 0.500000
O O17 0.714257 0.582542 0.355592
O O18 0.083982 0.500000 0.250000
O O19 0.182650 0.565864 0.220132
O O20 0.780848 0.000000 0.250000
#
# Coordination Sequence:
#
# PCOD8293363 Si02
#       8
#    16  16  16  16  16  16  16  16
#     4   9  17  29  48  72  90 116 158 197 240 290
#     4  10  21  31  47  68  94 124 159 205 253 281
#     4  10  19  32  49  66  90 120 156 205 245 282
#     4  10  19  32  49  72  96 124 163 204 247 297
#     4  11  17  29  53  71  93 124 165 199 242 298
#     4   9  17  31  51  69  92 126 160 195 241 302
#     4  10  20  34  46  59  87 128 170 203 236 280
#     4  11  20  30  48  74  99 126 163 204 245 283
#
# _framework density 15.853260000000001
#
# number of rings (size 3 to 8) (size 9 to 14) (size 15 to 20)
#    0.000    2.000    5.000    1.500    1.750    2.250 
#    0.000    3.125    0.000    0.000    0.000    0.000 
#    0.000    4.500    0.000   14.000    0.000    0.000 
#
# Total GULP energy -793221.062979 kJ/mol
# GULP energy per Si atom -12394.079109 kJ/mol
# Density = 1.581718 g / cm^3
# Si number density = 15.853260 Si / 1000 Ang^3
#
#
#
# Elastic Constant Matrix: (Units=GPa)
#
#
# Indices 1 2 3 4 5 6 
#
# 1 16.2423 9.8541 30.3301 0.0000 0.0000 0.0000
# 2 9.8541 86.7147 58.3177 0.0000 0.0000 0.0000
# 3 30.3301 58.3177 130.1644 0.0000 0.0000 0.0000
# 4 0.0000 0.0000 0.0000 23.8578 0.0000 0.0000
# 5 0.0000 0.0000 0.0000 0.0000 24.8061 0.0000
# 6 0.0000 0.0000 0.0000 0.0000 0.0000 12.0200
#
#
#
# Elastic Compliance Matrix: (Units=1/GPa)
#
#
# Indices 1 2 3 4 5 6 
#
# 1 0.111797 0.006892 -0.029138 0.000000 0.000000 0.000000
# 2 0.006892 0.016930 -0.009191 0.000000 0.000000 0.000000
# 3 -0.029138 -0.009191 0.018590 0.000000 0.000000 0.000000
# 4 0.000000 0.000000 0.000000 0.041915 0.000000 0.000000
# 5 0.000000 0.000000 0.000000 0.000000 0.040313 0.000000
# 6 0.000000 0.000000 0.000000 0.000000 0.000000 0.083195
#
#
# Mechanical properties :
#
#
# Convention : Reuss Voigt Hill
#
# Bulk Modulus (GPa) = 11.84236 47.79170 29.81703
# Shear Modulus (GPa) = 12.38352 21.11142 16.74747
#
# Velocity S-wave (km/s) = 2.79791 3.65317 3.25376
# Velocity P-wave (km/s) = 4.23367 6.92863 5.74151
#
# Compressibility (1/GPa) = 0.08444263
#
# Stress axis : x y z
#
# Youngs Moduli (GPa) = 8.94475 59.06636 53.79227
#
# Poissons Ratio (x) = -0.40706 1.56740
# Poissons Ratio (y) = -0.06164 0.49441
# Poissons Ratio (z) = 0.26063 0.54288
#
# Static dielectric constant tensor:
#      x y z
#    x 2.977020 0.000000 0.000000 
#    y 0.000000 2.926660 0.000000 
#    z 0.000000 0.000000 3.367850 
# 
# 
# High freq. dielectric constant tensor:
#      x y z
#    x 1.589630 0.000000 0.000000 
#    y 0.000000 1.568720 0.000000 
#    z 0.000000 0.000000 1.632260 
# 
# From -- ./inp_files/32925.got.cif
#   From: 2010.03.12/outbox.cif.g09.slc.cpg/sg72_17_cif.got.tgz:32925.got - 2010.04.16 14:54:00.
