data_PCOD8293731
_publ_section_title
;
Structure prediction by ZEFSAII (Michael W. Deem and Ramdas Pophale) SiO2 
 PCOD8293731
Probable space group: I B A M
;
_chemical_formula_sum "Si O2"
_cell_formula_units_Z 112
_cell_length_a 16.680008
_cell_length_b 14.752043
_cell_length_c 24.296360
_cell_angle_alpha 90.000000
_cell_angle_beta 90.000000
_cell_angle_gamma 90.000000
_cell_volume 5978.464271
_symmetry_space_group_name_H-M "I B A M"
_symmetry_group_IT_number 72
_symmetry_cell_setting 'orthorhombic'
loop_
_space_group_symop_operation_xyz
x,y,z
-x,-y,z
x,-y,1/2-z
-x,y,1/2-z
-x,-y,-z
x,y,-z
-x,y,1/2+z
x,-y,1/2+z
1/2+x,1/2+y,1/2+z
1/2-x,1/2-y,1/2+z
1/2+x,1/2-y,-z
1/2-x,1/2+y,-z
1/2-x,1/2-y,1/2-z
1/2+x,1/2+y,1/2-z
1/2-x,1/2+y,z
1/2+x,1/2-y,z
loop_
_atom_site_type_symbol
_atom_site_label
_atom_site_fract_x
_atom_site_fract_y
_atom_site_fract_z
Si Si1 0.107650 0.044633 0.062744
Si Si2 0.279681 0.868249 0.827426
Si Si3 0.154271 0.268697 0.364144
Si Si4 0.909936 0.722141 0.243638
Si Si5 0.456002 0.644594 0.565383
Si Si6 0.757927 0.442296 0.124548
Si Si7 0.656496 0.407067 0.231171
O O1 0.201637 0.060415 0.070841
O O2 0.050000 0.128547 0.081854
O O3 0.086686 0.946502 0.088582
O O4 0.085604 0.032003 0.000000
O O5 0.233217 0.795777 0.866096
O O6 0.364851 0.831933 0.805118
O O7 0.226500 0.887352 0.774340
O O8 0.296435 0.959427 0.862733
O O9 0.133484 0.289880 0.301406
O O10 0.080855 0.227534 0.399335
O O11 0.174148 0.368121 0.388099
O O12 0.909928 0.828824 0.228888
O O13 0.000000 0.685628 0.250000
O O14 0.443171 0.664201 0.500000
O O15 0.696971 0.413411 0.172215
O O16 0.613048 0.500000 0.250000
#
# Coordination Sequence:
#
# PCOD8293731 Si02
#       7
#    16  16  16  16  16  16  16
#     4   9  19  35  56  83 111 140 179 232 289 343
#     4  10  19  37  50  76 111 149 185 227 273 330
#     4  11  20  34  56  79 108 148 187 228 280 330
#     4  11  22  35  51  77 115 149 187 233 274 342
#     4   9  19  36  55  82 117 142 174 233 297 342
#     4  11  19  32  60  78 104 152 188 224 269 335
#     4   9  18  32  51  75 107 141 181 226 282 328
#
# _framework density 18.733906999999999
#
# number of rings (size 3 to 8) (size 9 to 14) (size 15 to 20)
#    0.000    2.000    4.286    1.714    2.000    0.857 
#    0.000    1.429    0.000    0.000    0.000    0.000 
#    0.000    4.571    0.000    0.000    0.000    0.000 
#
# Total GULP energy -693914.345973 kJ/mol
# GULP energy per Si atom -12391.327607 kJ/mol
# Density = 1.869127 g / cm^3
# Si number density = 18.733907 Si / 1000 Ang^3
#
#
#
# Elastic Constant Matrix: (Units=GPa)
#
#
# Indices 1 2 3 4 5 6 
#
# 1 92.2923 60.0981 15.4360 0.0000 0.0000 0.0000
# 2 60.0981 126.1047 22.9237 0.0000 0.0000 0.0000
# 3 15.4360 22.9237 30.7038 0.0000 0.0000 0.0000
# 4 0.0000 0.0000 0.0000 20.6132 0.0000 0.0000
# 5 0.0000 0.0000 0.0000 0.0000 23.9298 0.0000
# 6 0.0000 0.0000 0.0000 0.0000 0.0000 30.1885
#
#
#
# Elastic Compliance Matrix: (Units=1/GPa)
#
#
# Indices 1 2 3 4 5 6 
#
# 1 0.015902 -0.007087 -0.002703 0.000000 0.000000 0.000000
# 2 -0.007087 0.012334 -0.005645 0.000000 0.000000 0.000000
# 3 -0.002703 -0.005645 0.038143 0.000000 0.000000 0.000000
# 4 0.000000 0.000000 0.000000 0.048513 0.000000 0.000000
# 5 0.000000 0.000000 0.000000 0.000000 0.041789 0.000000
# 6 0.000000 0.000000 0.000000 0.000000 0.000000 0.033125
#
#
# Mechanical properties :
#
#
# Convention : Reuss Voigt Hill
#
# Bulk Modulus (GPa) = 28.16320 49.55737 38.86028
# Shear Modulus (GPa) = 21.50411 24.98916 23.24664
#
# Velocity S-wave (km/s) = 3.39170 3.65622 3.52644
# Velocity P-wave (km/s) = 5.51399 6.65843 6.11305
#
# Compressibility (1/GPa) = 0.03550733
#
# Stress axis : x y z
#
# Youngs Moduli (GPa) = 62.88427 81.07855 26.21695
#
# Poissons Ratio (x) = 0.57462 0.07087
# Poissons Ratio (y) = 0.44567 0.14801
# Poissons Ratio (z) = 0.17000 0.45773
#
# Static dielectric constant tensor:
#      x y z
#    x 3.242860 0.000000 0.000000 
#    y 0.000000 3.649540 0.000000 
#    z 0.000000 0.000000 3.265180 
# 
# 
# High freq. dielectric constant tensor:
#      x y z
#    x 1.702710 0.000000 0.000000 
#    y 0.000000 1.724180 0.000000 
#    z 0.000000 0.000000 1.708170 
# 
# From -- ./inp_files/44331.got.cif
#   From: 2010.03.12/outbox.cif.g09.slc.cpg/sg72_23_cif.got.tgz:44331.got - 2010.04.16 14:54:00.
