data_PCOD8293437
_publ_section_title
;
Structure prediction by ZEFSAII (Michael W. Deem and Ramdas Pophale) SiO2 
 PCOD8293437
Probable space group: I B A M
;
_chemical_formula_sum "Si O2"
_cell_formula_units_Z 80
_cell_length_a 18.731312
_cell_length_b 13.530283
_cell_length_c 17.126112
_cell_angle_alpha 90.000000
_cell_angle_beta 90.000000
_cell_angle_gamma 90.000000
_cell_volume 4340.441009
_symmetry_space_group_name_H-M "I B A M"
_symmetry_group_IT_number 72
_symmetry_cell_setting 'orthorhombic'
loop_
_space_group_symop_operation_xyz
x,y,z
-x,-y,z
x,-y,1/2-z
-x,y,1/2-z
-x,-y,-z
x,y,-z
-x,y,1/2+z
x,-y,1/2+z
1/2+x,1/2+y,1/2+z
1/2-x,1/2-y,1/2+z
1/2+x,1/2-y,-z
1/2-x,1/2+y,-z
1/2-x,1/2-y,1/2-z
1/2+x,1/2+y,1/2-z
1/2-x,1/2+y,z
1/2+x,1/2-y,z
loop_
_atom_site_type_symbol
_atom_site_label
_atom_site_fract_x
_atom_site_fract_y
_atom_site_fract_z
Si Si1 0.291147 0.804514 0.414397
Si Si2 0.920296 0.796866 0.778250
Si Si3 0.164228 0.391491 0.742990
Si Si4 0.643962 0.403867 0.912112
Si Si5 0.811604 0.892529 0.335283
O O1 0.321790 0.833463 0.500000
O O2 0.333382 0.865192 0.348717
O O3 0.207308 0.824997 0.411160
O O4 0.300512 0.687669 0.402683
O O5 0.883641 0.689323 0.787338
O O6 0.919464 0.855267 0.860936
O O7 0.879559 0.865430 0.716693
O O8 0.000000 0.780781 0.750000
O O9 0.128875 0.500000 0.750000
O O10 0.243480 0.393856 0.778476
O O11 0.675193 0.503648 0.875692
O O12 0.615437 0.422798 0.000000
#
# Coordination Sequence:
#
# PCOD8293437 Si02
#       5
#    16  16  16  16  16
#     4  10  19  32  54  87 116 141 178 237 294 335
#     4  11  23  39  57  80 116 160 192 230 281 348
#     4  11  19  37  60  83 111 145 196 242 283 345
#     4  11  21  35  58  90 115 142 190 241 293 345
#     4  11  19  37  58  85 112 146 192 234 292 345
#
# _framework density 18.431307
#
# number of rings (size 3 to 8) (size 9 to 14) (size 15 to 20)
#    0.000    1.200    6.000    2.400    0.000    2.000 
#    0.000    7.000    0.000    0.000    0.000    7.000 
#    0.000    0.000    0.000    0.000    0.000    0.000 
#
# Total GULP energy -495967.716444 kJ/mol
# GULP energy per Si atom -12399.192911 kJ/mol
# Density = 1.838936 g / cm^3
# Si number density = 18.431307 Si / 1000 Ang^3
#
#
#
# Elastic Constant Matrix: (Units=GPa)
#
#
# Indices 1 2 3 4 5 6 
#
# 1 81.2493 41.0357 36.0351 0.0000 0.0000 0.0000
# 2 41.0357 119.8682 70.3425 0.0000 0.0000 0.0000
# 3 36.0351 70.3425 134.1822 0.0000 0.0000 0.0000
# 4 0.0000 0.0000 0.0000 24.3009 0.0000 0.0000
# 5 0.0000 0.0000 0.0000 0.0000 13.2441 0.0000
# 6 0.0000 0.0000 0.0000 0.0000 0.0000 5.0907
#
#
#
# Elastic Compliance Matrix: (Units=1/GPa)
#
#
# Indices 1 2 3 4 5 6 
#
# 1 0.015229 -0.004064 -0.001960 0.000000 0.000000 0.000000
# 2 -0.004064 0.013134 -0.005794 0.000000 0.000000 0.000000
# 3 -0.001960 -0.005794 0.011016 0.000000 0.000000 0.000000
# 4 0.000000 0.000000 0.000000 0.041151 0.000000 0.000000
# 5 0.000000 0.000000 0.000000 0.000000 0.075505 0.000000
# 6 0.000000 0.000000 0.000000 0.000000 0.000000 0.196436
#
#
# Mechanical properties :
#
#
# Convention : Reuss Voigt Hill
#
# Bulk Modulus (GPa) = 63.51219 70.01403 66.76311
# Shear Modulus (GPa) = 13.11120 21.05292 17.08206
#
# Velocity S-wave (km/s) = 2.67002 3.38337 3.04763
# Velocity P-wave (km/s) = 6.63619 7.30286 6.97749
#
# Compressibility (1/GPa) = 0.01574501
#
# Stress axis : x y z
#
# Youngs Moduli (GPa) = 65.66296 76.14063 90.77648
#
# Poissons Ratio (x) = 0.30941 0.17789
# Poissons Ratio (y) = 0.26683 0.52594
# Poissons Ratio (z) = 0.12867 0.44114
#
# Static dielectric constant tensor:
#      x y z
#    x 3.000920 0.000000 0.000000 
#    y 0.000000 3.719370 0.000000 
#    z 0.000000 0.000000 3.650330 
# 
# 
# High freq. dielectric constant tensor:
#      x y z
#    x 1.671910 0.000000 0.000000 
#    y 0.000000 1.732440 0.000000 
#    z 0.000000 0.000000 1.722410 
# 
# From -- ./inp_files/31364.got.cif
#   From: 2010.03.12/outbox.cif.g09.slc.cpg/sg72_16_cif.got.tgz:31364.got - 2010.04.16 14:54:00.
