data_PCOD8293827
_publ_section_title
;
Structure prediction by ZEFSAII (Michael W. Deem and Ramdas Pophale) SiO2 
 PCOD8293827
Probable space group: I B A M
;
_chemical_formula_sum "Si O2"
_cell_formula_units_Z 80
_cell_length_a 23.098180
_cell_length_b 23.713157
_cell_length_c 9.806349
_cell_angle_alpha 90.000000
_cell_angle_beta 90.000000
_cell_angle_gamma 90.000000
_cell_volume 5371.239076
_symmetry_space_group_name_H-M "I B A M"
_symmetry_group_IT_number 72
_symmetry_cell_setting 'orthorhombic'
loop_
_space_group_symop_operation_xyz
x,y,z
-x,-y,z
x,-y,1/2-z
-x,y,1/2-z
-x,-y,-z
x,y,-z
-x,y,1/2+z
x,-y,1/2+z
1/2+x,1/2+y,1/2+z
1/2-x,1/2-y,1/2+z
1/2+x,1/2-y,-z
1/2-x,1/2+y,-z
1/2-x,1/2-y,1/2-z
1/2+x,1/2+y,1/2-z
1/2-x,1/2+y,z
1/2+x,1/2-y,z
loop_
_atom_site_type_symbol
_atom_site_label
_atom_site_fract_x
_atom_site_fract_y
_atom_site_fract_z
Si Si1 0.165194 0.257904 0.343330
Si Si2 0.720973 0.672846 0.343505
Si Si3 0.554064 0.169767 0.341351
Si Si4 0.392048 0.949171 0.657066
Si Si5 0.242351 0.449779 0.656196
O O1 0.166670 0.238668 0.500000
O O2 0.215549 0.302709 0.312066
O O3 0.173043 0.202404 0.250937
O O4 0.104914 0.286829 0.305474
O O5 0.703928 0.683708 0.500000
O O6 0.721656 0.606486 0.310021
O O7 0.500000 0.187652 0.250000
O O8 0.537382 0.173517 0.500000
O O9 0.573301 0.106717 0.302798
O O10 0.402032 0.965663 0.500000
O O11 0.324778 0.937645 0.687125
O O12 0.415821 0.000000 0.750000
O O13 0.266551 0.500000 0.750000
O O14 0.250971 0.467926 0.500000
#
# Coordination Sequence:
#
# PCOD8293827 Si02
#       5
#    16  16  16  16  16
#     4   9  17  30  45  62  85 112 142 178 221 260
#     4   9  16  28  46  65  86 111 140 177 217 260
#     4  10  20  33  46  60  84 115 148 187 224 256
#     4   9  17  30  44  58  81 113 148 185 221 253
#     4   9  16  27  43  63  88 115 142 175 215 255
#
# _framework density 14.894143
#
# number of rings (size 3 to 8) (size 9 to 14) (size 15 to 20)
#    0.000    2.800    2.000    0.000    0.000    2.800 
#    0.000    2.000    0.000    0.000    0.000    0.000 
#    0.000    0.800    0.000    8.800    0.000    6.400 
#
# Total GULP energy -496018.890530 kJ/mol
# GULP energy per Si atom -12400.472263 kJ/mol
# Density = 1.486024 g / cm^3
# Si number density = 14.894143 Si / 1000 Ang^3
#
#
#
# Elastic Constant Matrix: (Units=GPa)
#
#
# Indices 1 2 3 4 5 6 
#
# 1 67.3518 50.6444 50.3556 0.0000 0.0000 0.0000
# 2 50.6444 100.1899 68.0831 0.0000 0.0000 0.0000
# 3 50.3556 68.0831 80.9459 0.0000 0.0000 0.0000
# 4 0.0000 0.0000 0.0000 31.5770 0.0000 0.0000
# 5 0.0000 0.0000 0.0000 0.0000 24.1517 0.0000
# 6 0.0000 0.0000 0.0000 0.0000 0.0000 19.2996
#
#
#
# Elastic Compliance Matrix: (Units=1/GPa)
#
#
# Indices 1 2 3 4 5 6 
#
# 1 0.029049 -0.005610 -0.013352 0.000000 0.000000 0.000000
# 2 -0.005610 0.024380 -0.017015 0.000000 0.000000 0.000000
# 3 -0.013352 -0.017015 0.034972 0.000000 0.000000 0.000000
# 4 0.000000 0.000000 0.000000 0.031669 0.000000 0.000000
# 5 0.000000 0.000000 0.000000 0.000000 0.041405 0.000000
# 6 0.000000 0.000000 0.000000 0.000000 0.000000 0.051814
#
#
# Mechanical properties :
#
#
# Convention : Reuss Voigt Hill
#
# Bulk Modulus (GPa) = 60.81117 65.18376 62.99746
# Shear Modulus (GPa) = 17.19834 20.29927 18.74881
#
# Velocity S-wave (km/s) = 3.40178 3.69576 3.55181
# Velocity P-wave (km/s) = 7.50647 7.87853 7.69475
#
# Compressibility (1/GPa) = 0.01644435
#
# Stress axis : x y z
#
# Youngs Moduli (GPa) = 34.42483 41.01767 28.59456
#
# Poissons Ratio (x) = 0.23013 0.38180
# Poissons Ratio (y) = 0.19314 0.48655
# Poissons Ratio (z) = 0.45964 0.69793
#
# Static dielectric constant tensor:
#      x y z
#    x 2.580740 0.000000 0.000000 
#    y 0.000000 2.922730 0.000000 
#    z 0.000000 0.000000 2.917050 
# 
# 
# High freq. dielectric constant tensor:
#      x y z
#    x 1.531290 0.000000 0.000000 
#    y 0.000000 1.564090 0.000000 
#    z 0.000000 0.000000 1.574730 
# 
# From -- ./inp_files/4802.got.cif
#   From: 2010.03.12/outbox.cif.g09.slc.cpg/sg72_3_cif.got.tgz:4802.got - 2010.04.16 14:54:00.
