data_PCOD8293443
_publ_section_title
;
Structure prediction by ZEFSAII (Michael W. Deem and Ramdas Pophale) SiO2 
 PCOD8293443
Probable space group: I B A M
;
_chemical_formula_sum "Si O2"
_cell_formula_units_Z 96
_cell_length_a 26.094080
_cell_length_b 7.740378
_cell_length_c 25.992801
_cell_angle_alpha 90.000000
_cell_angle_beta 90.000000
_cell_angle_gamma 90.000000
_cell_volume 5249.975072
_symmetry_space_group_name_H-M "I B A M"
_symmetry_group_IT_number 72
_symmetry_cell_setting 'orthorhombic'
loop_
_space_group_symop_operation_xyz
x,y,z
-x,-y,z
x,-y,1/2-z
-x,y,1/2-z
-x,-y,-z
x,y,-z
-x,y,1/2+z
x,-y,1/2+z
1/2+x,1/2+y,1/2+z
1/2-x,1/2-y,1/2+z
1/2+x,1/2-y,-z
1/2-x,1/2+y,-z
1/2-x,1/2-y,1/2-z
1/2+x,1/2+y,1/2-z
1/2-x,1/2+y,z
1/2+x,1/2-y,z
loop_
_atom_site_type_symbol
_atom_site_label
_atom_site_fract_x
_atom_site_fract_y
_atom_site_fract_z
Si Si1 0.797374 0.941701 0.560097
Si Si2 0.871830 0.624280 0.441559
Si Si3 0.447278 0.307893 0.764855
Si Si4 0.553856 0.095096 0.356741
Si Si5 0.362975 0.881122 0.794557
Si Si6 0.306597 0.184113 0.395197
O O1 0.780155 0.954866 0.500000
O O2 0.842095 0.803235 0.567212
O O3 0.751725 0.873496 0.596156
O O4 0.816501 0.128154 0.579752
O O5 0.885314 0.594157 0.500000
O O6 0.926342 0.636582 0.413589
O O7 0.840792 0.458516 0.422664
O O8 0.458102 0.500000 0.750000
O O9 0.500000 0.202494 0.750000
O O10 0.445119 0.276777 0.826168
O O11 0.394699 0.263694 0.735625
O O12 0.500000 0.000000 0.360977
O O13 0.594332 0.978573 0.326916
O O14 0.319706 0.808223 0.833777
O O15 0.336735 0.000000 0.750000
#
# Coordination Sequence:
#
# PCOD8293443 Si02
#       6
#    16  16  16  16  16  16
#     4  11  21  36  60  84 111 150 198 240 283 344
#     4  10  22  37  56  85 116 150 193 236 288 346
#     4  10  19  32  56  82 107 141 187 231 277 336
#     4  10  19  35  58  80 111 150 188 235 286 339
#     4   9  20  36  55  81 112 144 187 232 285 343
#     4  11  21  36  60  82 114 149 190 241 289 333
#
# _framework density 18.285802
#
# number of rings (size 3 to 8) (size 9 to 14) (size 15 to 20)
#    0.000    1.833    3.333    1.500    2.333    0.333 
#    0.000    0.833    0.000    0.000    0.000    8.167 
#    0.000    0.000    0.000    0.000    0.000    0.000 
#
# Total GULP energy -594649.912188 kJ/mol
# GULP energy per Si atom -12388.539837 kJ/mol
# Density = 1.824418 g / cm^3
# Si number density = 18.285802 Si / 1000 Ang^3
#
#
#
# Elastic Constant Matrix: (Units=GPa)
#
#
# Indices 1 2 3 4 5 6 
#
# 1 49.8620 20.7070 49.2025 0.0000 0.0000 0.0000
# 2 20.7070 108.7905 41.1075 0.0000 0.0000 0.0000
# 3 49.2025 41.1075 130.3817 0.0000 0.0000 0.0000
# 4 0.0000 0.0000 0.0000 22.8890 0.0000 0.0000
# 5 0.0000 0.0000 0.0000 0.0000 17.7472 0.0000
# 6 0.0000 0.0000 0.0000 0.0000 0.0000 19.2000
#
#
#
# Elastic Compliance Matrix: (Units=1/GPa)
#
#
# Indices 1 2 3 4 5 6 
#
# 1 0.032245 -0.001748 -0.011617 0.000000 0.000000 0.000000
# 2 -0.001748 0.010530 -0.002660 0.000000 0.000000 0.000000
# 3 -0.011617 -0.002660 0.012893 0.000000 0.000000 0.000000
# 4 0.000000 0.000000 0.000000 0.043689 0.000000 0.000000
# 5 0.000000 0.000000 0.000000 0.000000 0.056347 0.000000
# 6 0.000000 0.000000 0.000000 0.000000 0.000000 0.052083
#
#
# Mechanical properties :
#
#
# Convention : Reuss Voigt Hill
#
# Bulk Modulus (GPa) = 42.34321 56.78537 49.56429
# Shear Modulus (GPa) = 20.18494 23.83507 22.01000
#
# Velocity S-wave (km/s) = 3.32604 3.61428 3.47315
# Velocity P-wave (km/s) = 6.16090 6.96700 6.57631
#
# Compressibility (1/GPa) = 0.02361654
#
# Stress axis : x y z
#
# Youngs Moduli (GPa) = 31.01274 94.96778 77.56373
#
# Poissons Ratio (x) = 0.16598 0.90108
# Poissons Ratio (y) = 0.05420 0.20635
# Poissons Ratio (z) = 0.36028 0.25265
#
# Static dielectric constant tensor:
#      x y z
#    x 3.598340 0.000000 0.000000 
#    y 0.000000 3.373400 0.000000 
#    z 0.000000 0.000000 3.394680 
# 
# 
# High freq. dielectric constant tensor:
#      x y z
#    x 1.697300 0.000000 0.000000 
#    y 0.000000 1.709040 0.000000 
#    z 0.000000 0.000000 1.714080 
# 
# From -- ./inp_files/36014.got.cif
#   From: 2010.03.12/outbox.cif.g09.slc.cpg/sg72_19_cif.got.tgz:36014.got - 2010.04.16 14:54:00.
