data_PCOD8293632
_publ_section_title
;
Structure prediction by ZEFSAII (Michael W. Deem and Ramdas Pophale) SiO2 
 PCOD8293632
Probable space group: I B A M
;
_chemical_formula_sum "Si O2"
_cell_formula_units_Z 96
_cell_length_a 15.021955
_cell_length_b 19.205333
_cell_length_c 16.472989
_cell_angle_alpha 90.000000
_cell_angle_beta 90.000000
_cell_angle_gamma 90.000000
_cell_volume 4752.484475
_symmetry_space_group_name_H-M "I B A M"
_symmetry_group_IT_number 72
_symmetry_cell_setting 'orthorhombic'
loop_
_space_group_symop_operation_xyz
x,y,z
-x,-y,z
x,-y,1/2-z
-x,y,1/2-z
-x,-y,-z
x,y,-z
-x,y,1/2+z
x,-y,1/2+z
1/2+x,1/2+y,1/2+z
1/2-x,1/2-y,1/2+z
1/2+x,1/2-y,-z
1/2-x,1/2+y,-z
1/2-x,1/2-y,1/2-z
1/2+x,1/2+y,1/2-z
1/2-x,1/2+y,z
1/2+x,1/2-y,z
loop_
_atom_site_type_symbol
_atom_site_label
_atom_site_fract_x
_atom_site_fract_y
_atom_site_fract_z
Si Si1 0.588003 0.970755 0.659264
Si Si2 0.508724 0.291717 0.342287
Si Si3 0.282737 0.510629 0.654269
Si Si4 0.942496 0.066098 0.593645
Si Si5 0.887249 0.674292 0.092673
Si Si6 0.312578 0.661974 0.594345
O O1 0.681469 0.995663 0.619947
O O2 0.584039 0.886874 0.654479
O O3 0.500000 0.000000 0.612962
O O4 0.585149 0.000000 0.750000
O O5 0.500000 0.267623 0.250000
O O6 0.470843 0.369112 0.352086
O O7 0.450487 0.240219 0.397024
O O8 0.612376 0.287573 0.367912
O O9 0.286227 0.500000 0.750000
O O10 0.339008 0.451123 0.609246
O O11 0.321986 0.586363 0.634757
O O12 0.959105 0.084617 0.500000
O O13 0.000000 0.000000 0.621847
O O14 0.784449 0.695570 0.110611
O O15 0.894812 0.647114 0.000000
O O16 0.333067 0.652464 0.500000
#
# Coordination Sequence:
#
# PCOD8293632 Si02
#       6
#    16  16  16  16  16  16
#     4   9  20  39  66  90 121 159 199 251 305 363
#     4  12  25  39  62  92 124 166 204 254 305 364
#     4  10  19  34  59  91 121 155 204 250 301 360
#     4  11  22  36  59  87 120 161 203 248 301 363
#     4  10  23  42  64  91 124 162 206 251 304 370
#     4  10  20  40  64  84 120 170 203 244 312 365
#
# _framework density 20.199960999999998
#
# number of rings (size 3 to 8) (size 9 to 14) (size 15 to 20)
#    0.000    1.667    1.667    3.000    2.333    1.667 
#    3.000    0.000    0.000    0.000    0.000    0.000 
#    0.000    0.000    0.000    0.000    0.000    0.000 
#
# Total GULP energy -595177.813842 kJ/mol
# GULP energy per Si atom -12399.537788 kJ/mol
# Density = 2.015398 g / cm^3
# Si number density = 20.199961 Si / 1000 Ang^3
#
#
#
# Elastic Constant Matrix: (Units=GPa)
#
#
# Indices 1 2 3 4 5 6 
#
# 1 170.7389 60.2690 28.3356 0.0000 0.0000 0.0000
# 2 60.2690 84.6916 29.1221 -0.0001 0.0000 0.0000
# 3 28.3356 29.1221 77.8982 -0.0002 0.0000 -0.0001
# 4 0.0000 -0.0001 -0.0002 29.1844 0.0000 0.0000
# 5 0.0000 0.0000 0.0000 0.0000 23.9526 0.0000
# 6 0.0000 0.0000 -0.0001 0.0000 0.0000 40.0712
#
#
#
# Elastic Compliance Matrix: (Units=1/GPa)
#
#
# Indices 1 2 3 4 5 6 
#
# 1 0.007874 -0.005300 -0.000883 0.000000 0.000000 0.000000
# 2 -0.005300 0.017117 -0.004471 0.000000 0.000000 0.000000
# 3 -0.000883 -0.004471 0.014830 0.000000 0.000000 0.000000
# 4 0.000000 0.000000 0.000000 0.034265 0.000000 0.000000
# 5 0.000000 0.000000 0.000000 0.000000 0.041749 0.000000
# 6 0.000000 0.000000 0.000000 0.000000 0.000000 0.024956
#
#
# Mechanical properties :
#
#
# Convention : Reuss Voigt Hill
#
# Bulk Modulus (GPa) = 54.01663 63.19801 58.60732
# Shear Modulus (GPa) = 29.71426 33.01510 31.36468
#
# Velocity S-wave (km/s) = 3.83953 4.04717 3.94472
# Velocity P-wave (km/s) = 6.81579 7.29340 7.05863
#
# Compressibility (1/GPa) = 0.01851282
#
# Stress axis : x y z
#
# Youngs Moduli (GPa) = 126.99638 58.42282 67.43106
#
# Poissons Ratio (x) = 0.30964 0.05953
# Poissons Ratio (y) = 0.67307 0.30150
# Poissons Ratio (z) = 0.11212 0.26122
#
# Static dielectric constant tensor:
#      x y z
#    x 4.374740 0.000000 0.000000 
#    y 0.000000 3.383040 0.000000 
#    z 0.000000 0.000000 3.513160 
# 
# 
# High freq. dielectric constant tensor:
#      x y z
#    x 1.813920 0.000000 0.000000 
#    y 0.000000 1.765540 0.000000 
#    z 0.000000 0.000000 1.780820 
# 
# From -- ./inp_files/21886.got.cif
#   From: 2010.03.12/outbox.cif.g09.slc.cpg/sg72_11_cif.got.tgz:21886.got - 2010.04.16 14:54:00.
