data_PCOD8293701
_publ_section_title
;
Structure prediction by ZEFSAII (Michael W. Deem and Ramdas Pophale) SiO2 
 PCOD8293701
Probable space group: I B A M
;
_chemical_formula_sum "Si O2"
_cell_formula_units_Z 116
_cell_length_a 24.903162
_cell_length_b 13.001003
_cell_length_c 19.971234
_cell_angle_alpha 90.000000
_cell_angle_beta 90.000000
_cell_angle_gamma 90.000000
_cell_volume 6466.008222
_symmetry_space_group_name_H-M "I B A M"
_symmetry_group_IT_number 72
_symmetry_cell_setting 'orthorhombic'
loop_
_space_group_symop_operation_xyz
x,y,z
-x,-y,z
x,-y,1/2-z
-x,y,1/2-z
-x,-y,-z
x,y,-z
-x,y,1/2+z
x,-y,1/2+z
1/2+x,1/2+y,1/2+z
1/2-x,1/2-y,1/2+z
1/2+x,1/2-y,-z
1/2-x,1/2+y,-z
1/2-x,1/2-y,1/2-z
1/2+x,1/2+y,1/2-z
1/2-x,1/2+y,z
1/2+x,1/2-y,z
loop_
_atom_site_type_symbol
_atom_site_label
_atom_site_fract_x
_atom_site_fract_y
_atom_site_fract_z
Si Si1 0.194412 0.054588 0.678594
Si Si2 0.500000 0.000000 0.750000
Si Si3 0.404730 0.126343 0.313391
Si Si4 0.648022 0.779750 0.181076
Si Si5 0.193179 0.510994 0.172915
Si Si6 0.564920 0.288439 0.575005
Si Si7 0.393345 0.507946 0.924268
Si Si8 0.942319 0.224374 0.423926
O O1 0.181397 0.174976 0.688556
O O2 0.188476 0.000000 0.750000
O O3 0.253022 0.041203 0.642673
O O4 0.155082 0.998410 0.627432
O O5 0.538847 0.928686 0.704552
O O6 0.379771 0.185705 0.250139
O O7 0.409970 0.205998 0.373057
O O8 0.363123 0.043556 0.343821
O O9 0.688735 0.868026 0.154878
O O10 0.601760 0.771754 0.126394
O O11 0.204948 0.500000 0.250000
O O12 0.583294 0.258580 0.500000
O O13 0.567909 0.410692 0.585372
O O14 0.504585 0.254173 0.588386
O O15 0.429312 0.606400 0.907940
O O16 0.370259 0.512177 0.000000
O O17 0.925992 0.252513 0.500000
#
# Coordination Sequence:
#
# PCOD8293701 Si02
#       8
#    16   4  16  16  16  16  16  16
#     4  10  20  33  56  81 104 136 180 227 265 307
#     4  12  20  36  58  76 106 144 176 218 262 324
#     4  11  21  35  55  77 107 140 180 220 265 321
#     4  10  19  36  55  77 106 141 180 218 267 324
#     4   9  20  36  52  77 104 140 177 215 268 322
#     4   9  18  33  53  78 108 143 178 215 267 328
#     4   9  18  34  53  77 110 142 175 216 271 329
#     4  10  20  33  53  80 108 141 177 221 269 317
#
# _framework density 17.939971
#
# number of rings (size 3 to 8) (size 9 to 14) (size 15 to 20)
#    0.000    2.207    2.069    2.069    0.000    7.724 
#    0.000    2.414    0.000    5.793    0.000    0.000 
#    0.000    0.000    0.000    0.000    0.000    0.000 
#
# Total GULP energy -718896.242487 kJ/mol
# GULP energy per Si atom -12394.762802 kJ/mol
# Density = 1.789914 g / cm^3
# Si number density = 17.939971 Si / 1000 Ang^3
#
#
#
# Elastic Constant Matrix: (Units=GPa)
#
#
# Indices 1 2 3 4 5 6 
#
# 1 89.2768 41.5728 36.5964 0.0000 0.0000 0.0000
# 2 41.5728 107.5755 47.5176 0.0000 0.0000 0.0000
# 3 36.5964 47.5176 75.0026 0.0000 0.0000 0.0000
# 4 0.0000 0.0000 0.0000 19.5722 0.0000 0.0000
# 5 0.0000 0.0000 0.0000 0.0000 1.9331 0.0000
# 6 0.0000 0.0000 0.0000 0.0000 0.0000 27.8038
#
#
#
# Elastic Compliance Matrix: (Units=1/GPa)
#
#
# Indices 1 2 3 4 5 6 
#
# 1 0.014913 -0.003540 -0.005034 0.000000 0.000000 0.000000
# 2 -0.003540 0.013748 -0.006983 0.000000 0.000000 0.000000
# 3 -0.005034 -0.006983 0.020213 0.000000 0.000000 0.000000
# 4 0.000000 0.000000 0.000000 0.051093 0.000000 0.000000
# 5 0.000000 0.000000 0.000000 0.000000 0.517315 0.000000
# 6 0.000000 0.000000 0.000000 0.000000 0.000000 0.035966
#
#
# Mechanical properties :
#
#
# Convention : Reuss Voigt Hill
#
# Bulk Modulus (GPa) = 56.30298 58.13651 57.21974
# Shear Modulus (GPa) = 7.24342 19.60635 13.42488
#
# Velocity S-wave (km/s) = 2.01155 3.30947 2.73852
# Velocity P-wave (km/s) = 6.07020 6.86148 6.47794
#
# Compressibility (1/GPa) = 0.01776105
#
# Stress axis : x y z
#
# Youngs Moduli (GPa) = 67.05604 72.73700 49.47249
#
# Poissons Ratio (x) = 0.25745 0.24905
# Poissons Ratio (y) = 0.23735 0.34547
# Poissons Ratio (z) = 0.33757 0.50793
#
# Static dielectric constant tensor:
#      x y z
#    x 3.674420 0.000000 0.000000 
#    y 0.000000 3.487300 0.000000 
#    z 0.000000 0.000000 3.236970 
# 
# 
# High freq. dielectric constant tensor:
#      x y z
#    x 1.699640 0.000000 0.000000 
#    y 0.000000 1.702340 0.000000 
#    z 0.000000 0.000000 1.679460 
# 
# From -- ./inp_files/33986.got.cif
#   From: 2010.03.12/outbox.cif.g09.slc.cpg/sg72_17_cif.got.tgz:33986.got - 2010.04.16 14:54:00.
