data_PCOD8293866
_publ_section_title
;
Structure prediction by ZEFSAII (Michael W. Deem and Ramdas Pophale) SiO2 
 PCOD8293866
Probable space group: I B A M
;
_chemical_formula_sum "Si O2"
_cell_formula_units_Z 112
_cell_length_a 25.133516
_cell_length_b 13.068051
_cell_length_c 17.699567
_cell_angle_alpha 90.000000
_cell_angle_beta 90.000000
_cell_angle_gamma 90.000000
_cell_volume 5813.353202
_symmetry_space_group_name_H-M "I B A M"
_symmetry_group_IT_number 72
_symmetry_cell_setting 'orthorhombic'
loop_
_space_group_symop_operation_xyz
x,y,z
-x,-y,z
x,-y,1/2-z
-x,y,1/2-z
-x,-y,-z
x,y,-z
-x,y,1/2+z
x,-y,1/2+z
1/2+x,1/2+y,1/2+z
1/2-x,1/2-y,1/2+z
1/2+x,1/2-y,-z
1/2-x,1/2+y,-z
1/2-x,1/2-y,1/2-z
1/2+x,1/2+y,1/2-z
1/2-x,1/2+y,z
1/2+x,1/2-y,z
loop_
_atom_site_type_symbol
_atom_site_label
_atom_site_fract_x
_atom_site_fract_y
_atom_site_fract_z
Si Si1 0.334101 0.105538 0.411969
Si Si2 0.359719 0.772643 0.778088
Si Si3 0.305372 0.101709 0.852755
Si Si4 0.221217 0.188139 0.414534
Si Si5 0.624210 0.442333 0.588889
Si Si6 0.310151 0.572294 0.184425
Si Si7 0.440265 0.392005 0.778678
O O1 0.346020 0.130846 0.500000
O O2 0.374377 0.165227 0.355464
O O3 0.277009 0.148055 0.382319
O O4 0.339082 0.983430 0.398415
O O5 0.340452 0.855138 0.716128
O O6 0.312372 0.691668 0.792974
O O7 0.411251 0.708459 0.753187
O O8 0.286387 0.190743 0.908889
O O9 0.251378 0.044717 0.828367
O O10 0.220489 0.151353 0.500000
O O11 0.169951 0.134107 0.377516
O O12 0.612758 0.438080 0.500000
O O13 0.649379 0.552700 0.612797
O O14 0.569683 0.404543 0.630475
O O15 0.332426 0.500000 0.250000
O O16 0.416685 0.500000 0.750000
O O17 0.500000 0.379883 0.750000
#
# Coordination Sequence:
#
# PCOD8293866 Si02
#       7
#    16  16  16  16  16  16  16
#     4  11  24  37  52  87 127 163 206 248 300 369
#     4  12  22  38  59  83 118 162 206 251 310 371
#     4  12  22  34  56  84 123 167 212 245 291 369
#     4  10  20  33  52  81 123 167 200 238 295 364
#     4  11  21  37  60  91 127 162 201 247 313 376
#     4  12  20  33  54  87 124 167 200 242 293 368
#     4  11  23  44  68  92 119 156 209 273 322 368
#
# _framework density 19.265989000000001
#
# number of rings (size 3 to 8) (size 9 to 14) (size 15 to 20)
#    0.000    0.714    7.143    2.143    0.000    1.143 
#    0.000    2.143    0.000    1.714    0.000    1.000 
#    0.000    0.000    0.000    0.000    0.000    0.000 
#
# Total GULP energy -693807.006511 kJ/mol
# GULP energy per Si atom -12389.410831 kJ/mol
# Density = 1.922214 g / cm^3
# Si number density = 19.265989 Si / 1000 Ang^3
#
#
#
# Elastic Constant Matrix: (Units=GPa)
#
#
# Indices 1 2 3 4 5 6 
#
# 1 83.3245 12.4659 42.5438 0.0000 0.0000 0.0000
# 2 12.4659 101.5335 42.0613 0.0000 0.0000 0.0000
# 3 42.5438 42.0613 118.5400 0.0000 0.0000 0.0000
# 4 0.0000 0.0000 0.0000 34.1176 0.0000 0.0000
# 5 0.0000 0.0000 0.0000 0.0000 21.6248 0.0000
# 6 0.0000 0.0000 0.0000 0.0000 0.0000 17.8803
#
#
#
# Elastic Compliance Matrix: (Units=1/GPa)
#
#
# Indices 1 2 3 4 5 6 
#
# 1 0.014711 0.000447 -0.005438 0.000000 0.000000 0.000000
# 2 0.000447 0.011560 -0.004262 0.000000 0.000000 0.000000
# 3 -0.005438 -0.004262 0.011900 0.000000 0.000000 0.000000
# 4 0.000000 0.000000 0.000000 0.029310 0.000000 0.000000
# 5 0.000000 0.000000 0.000000 0.000000 0.046243 0.000000
# 6 0.000000 0.000000 0.000000 0.000000 0.000000 0.055927
#
#
# Mechanical properties :
#
#
# Convention : Reuss Voigt Hill
#
# Bulk Modulus (GPa) = 50.85528 55.28221 53.06875
# Shear Modulus (GPa) = 25.67874 28.47968 27.07921
#
# Velocity S-wave (km/s) = 3.65479 3.84895 3.75313
# Velocity P-wave (km/s) = 6.65309 6.96485 6.81075
#
# Compressibility (1/GPa) = 0.01966364
#
# Stress axis : x y z
#
# Youngs Moduli (GPa) = 67.97575 86.50733 84.03326
#
# Poissons Ratio (x) = -0.03864 0.45700
# Poissons Ratio (y) = -0.03036 0.35815
# Poissons Ratio (z) = 0.36967 0.36870
#
# Static dielectric constant tensor:
#      x y z
#    x 3.075960 0.000000 0.000000 
#    y 0.000000 3.650940 0.000000 
#    z 0.000000 0.000000 3.513170 
# 
# 
# High freq. dielectric constant tensor:
#      x y z
#    x 1.694890 0.000000 0.000000 
#    y 0.000000 1.759120 0.000000 
#    z 0.000000 0.000000 1.757330 
# 
# From -- ./inp_files/40325.got.cif
#   From: 2010.03.12/outbox.cif.g09.slc.cpg/sg72_21_cif.got.tgz:40325.got - 2010.04.16 14:54:00.
