data_PCOD8293357
_publ_section_title
;
Structure prediction by ZEFSAII (Michael W. Deem and Ramdas Pophale) SiO2 
 PCOD8293357
Probable space group: I B A M
;
_chemical_formula_sum "Si O2"
_cell_formula_units_Z 80
_cell_length_a 23.135784
_cell_length_b 24.625781
_cell_length_c 9.083237
_cell_angle_alpha 90.000000
_cell_angle_beta 90.000000
_cell_angle_gamma 90.000000
_cell_volume 5175.053928
_symmetry_space_group_name_H-M "I B A M"
_symmetry_group_IT_number 72
_symmetry_cell_setting 'orthorhombic'
loop_
_space_group_symop_operation_xyz
x,y,z
-x,-y,z
x,-y,1/2-z
-x,y,1/2-z
-x,-y,-z
x,y,-z
-x,y,1/2+z
x,-y,1/2+z
1/2+x,1/2+y,1/2+z
1/2-x,1/2-y,1/2+z
1/2+x,1/2-y,-z
1/2-x,1/2+y,-z
1/2-x,1/2-y,1/2-z
1/2+x,1/2+y,1/2-z
1/2-x,1/2+y,z
1/2+x,1/2-y,z
loop_
_atom_site_type_symbol
_atom_site_label
_atom_site_fract_x
_atom_site_fract_y
_atom_site_fract_z
Si Si1 0.229432 0.830815 0.172378
Si Si2 0.059061 0.342322 0.326692
Si Si3 0.667746 0.225933 0.669627
Si Si4 0.249111 0.947178 0.830559
Si Si5 0.615676 0.054934 0.173252
O O1 0.289423 0.811688 0.240332
O O2 0.177221 0.789571 0.213491
O O3 0.215886 0.892539 0.225033
O O4 0.241324 0.832808 0.000000
O O5 0.050449 0.353144 0.500000
O O6 0.102393 0.291915 0.298037
O O7 0.082238 0.396302 0.250209
O O8 0.000000 0.324295 0.250000
O O9 0.683886 0.217322 0.500000
O O10 0.316510 0.938245 0.796099
O O11 0.223858 0.000000 0.750000
O O12 0.237887 0.958353 0.000000
O O13 0.593132 0.000000 0.250000
O O14 0.601403 0.053640 0.000000
#
# Coordination Sequence:
#
# PCOD8293357 Si02
#       5
#    16  16  16  16  16
#     4   9  16  29  47  67  89 114 141 175 218 264
#     4  11  22  34  47  64  86 116 151 190 225 261
#     4   9  18  30  46  66  87 111 145 181 218 262
#     4   9  17  27  43  65  91 118 143 173 213 257
#     4  10  19  32  47  64  86 116 151 189 224 260
#
# _framework density 15.458776
#
# number of rings (size 3 to 8) (size 9 to 14) (size 15 to 20)
#    0.000    2.400    2.000    1.200    0.000    2.800 
#    0.000    2.000    0.000    0.000    0.000    0.000 
#    0.000    0.800    0.000   10.000    0.000    0.000 
#
# Total GULP energy -495807.665238 kJ/mol
# GULP energy per Si atom -12395.191631 kJ/mol
# Density = 1.542359 g / cm^3
# Si number density = 15.458776 Si / 1000 Ang^3
#
#
#
# Elastic Constant Matrix: (Units=GPa)
#
#
# Indices 1 2 3 4 5 6 
#
# 1 52.4338 57.1450 33.8276 0.0000 0.0000 0.0000
# 2 57.1450 158.1608 52.7960 0.0000 0.0000 0.0000
# 3 33.8276 52.7960 63.6420 0.0000 0.0000 0.0000
# 4 0.0000 0.0000 0.0000 23.4572 0.0000 0.0000
# 5 0.0000 0.0000 0.0000 0.0000 16.0851 0.0000
# 6 0.0000 0.0000 0.0000 0.0000 0.0000 20.7104
#
#
#
# Elastic Compliance Matrix: (Units=1/GPa)
#
#
# Indices 1 2 3 4 5 6 
#
# 1 0.036958 -0.009398 -0.011847 0.000000 0.000000 0.000000
# 2 -0.009398 0.011134 -0.004241 0.000000 0.000000 0.000000
# 3 -0.011847 -0.004241 0.025529 0.000000 0.000000 0.000000
# 4 0.000000 0.000000 0.000000 0.042631 0.000000 0.000000
# 5 0.000000 0.000000 0.000000 0.000000 0.062169 0.000000
# 6 0.000000 0.000000 0.000000 0.000000 0.000000 0.048285
#
#
# Mechanical properties :
#
#
# Convention : Reuss Voigt Hill
#
# Bulk Modulus (GPa) = 44.15688 62.41931 53.28809
# Shear Modulus (GPa) = 17.52981 20.74842 19.13912
#
# Velocity S-wave (km/s) = 3.37110 3.66755 3.52245
# Velocity P-wave (km/s) = 6.61655 7.64200 7.14769
#
# Compressibility (1/GPa) = 0.02264653
#
# Stress axis : x y z
#
# Youngs Moduli (GPa) = 27.05788 89.81391 39.17187
#
# Poissons Ratio (x) = 0.84410 0.46409
# Poissons Ratio (y) = 0.25430 0.16613
# Poissons Ratio (z) = 0.32057 0.38091
#
# Static dielectric constant tensor:
#      x y z
#    x 2.764590 0.000000 0.000000 
#    y 0.000000 3.329120 0.000000 
#    z 0.000000 0.000000 3.027820 
# 
# 
# High freq. dielectric constant tensor:
#      x y z
#    x 1.544790 0.000000 0.000000 
#    y 0.000000 1.601790 0.000000 
#    z 0.000000 0.000000 1.602660 
# 
# From -- ./inp_files/4800.got.cif
#   From: 2010.03.12/outbox.cif.g09.slc.cpg/sg72_3_cif.got.tgz:4800.got - 2010.04.16 14:54:00.
