data_PCOD8293778
_publ_section_title
;
Structure prediction by ZEFSAII (Michael W. Deem and Ramdas Pophale) SiO2 
 PCOD8293778
Probable space group: I B A M
;
_chemical_formula_sum "Si O2"
_cell_formula_units_Z 112
_cell_length_a 26.391464
_cell_length_b 12.142211
_cell_length_c 17.401322
_cell_angle_alpha 90.000000
_cell_angle_beta 90.000000
_cell_angle_gamma 90.000000
_cell_volume 5576.266242
_symmetry_space_group_name_H-M "I B A M"
_symmetry_group_IT_number 72
_symmetry_cell_setting 'orthorhombic'
loop_
_space_group_symop_operation_xyz
x,y,z
-x,-y,z
x,-y,1/2-z
-x,y,1/2-z
-x,-y,-z
x,y,-z
-x,y,1/2+z
x,-y,1/2+z
1/2+x,1/2+y,1/2+z
1/2-x,1/2-y,1/2+z
1/2+x,1/2-y,-z
1/2-x,1/2+y,-z
1/2-x,1/2-y,1/2-z
1/2+x,1/2+y,1/2-z
1/2-x,1/2+y,z
1/2+x,1/2-y,z
loop_
_atom_site_type_symbol
_atom_site_label
_atom_site_fract_x
_atom_site_fract_y
_atom_site_fract_z
Si Si1 0.121382 0.889906 0.702924
Si Si2 0.784429 0.248745 0.673329
Si Si3 0.093600 0.766966 0.843901
Si Si4 0.191706 0.317539 0.586310
Si Si5 0.556236 0.511115 0.911317
Si Si6 0.659258 0.939369 0.588322
Si Si7 0.945448 0.451908 0.089544
O O1 0.176540 0.850440 0.678906
O O2 0.090240 0.801330 0.754356
O O3 0.089605 0.915804 0.627174
O O4 0.129729 0.000000 0.750000
O O5 0.750000 0.250000 0.750000
O O6 0.747937 0.225089 0.601812
O O7 0.816693 0.358033 0.651944
O O8 0.152887 0.744292 0.857965
O O9 0.060786 0.658532 0.860424
O O10 0.075817 0.865772 0.898225
O O11 0.175772 0.287512 0.500000
O O12 0.190018 0.448106 0.598794
O O13 0.500000 0.500000 0.876816
O O14 0.557043 0.481793 0.000000
O O15 0.664255 0.895738 0.500000
O O16 0.599576 0.960967 0.607658
O O17 0.000000 0.500000 0.111810
O O18 0.942573 0.418746 0.000000
#
# Coordination Sequence:
#
# PCOD8293778 Si02
#       7
#    16  16  16  16  16  16  16
#     4  10  24  41  60  89 125 160 208 257 311 372
#     4  12  24  38  60  87 122 170 202 258 313 369
#     4  10  19  39  61  89 125 166 204 249 318 382
#     4  10  21  38  62  88 117 161 208 253 307 375
#     4  10  22  40  65  93 123 166 213 263 314 372
#     4   9  21  39  59  90 124 153 203 258 304 369
#     4   9  18  36  65  97 127 161 203 258 315 376
#
# _framework density 20.085124
#
# number of rings (size 3 to 8) (size 9 to 14) (size 15 to 20)
#    0.000    2.000    1.429    2.571    2.000    4.857 
#    0.000    4.286    0.000    0.857    0.000    0.000 
#    0.000    0.571    0.000    0.000    0.000    0.000 
#
# Total GULP energy -694336.418759 kJ/mol
# GULP energy per Si atom -12398.864621 kJ/mol
# Density = 2.003941 g / cm^3
# Si number density = 20.085124 Si / 1000 Ang^3
#
#
#
# Elastic Constant Matrix: (Units=GPa)
#
#
# Indices 1 2 3 4 5 6 
#
# 1 148.9071 70.5764 48.8306 0.0000 0.0000 0.0000
# 2 70.5764 98.7776 52.6984 0.0000 0.0000 0.0000
# 3 48.8306 52.6984 76.3671 0.0000 0.0000 0.0000
# 4 0.0000 0.0000 0.0000 22.6258 0.0000 0.0000
# 5 0.0000 0.0000 0.0000 0.0000 32.5406 0.0000
# 6 0.0000 0.0000 0.0000 0.0000 0.0000 31.1821
#
#
#
# Elastic Compliance Matrix: (Units=1/GPa)
#
#
# Indices 1 2 3 4 5 6 
#
# 1 0.010428 -0.006162 -0.002416 0.000000 0.000000 0.000000
# 2 -0.006162 0.019664 -0.009629 0.000000 0.000000 0.000000
# 3 -0.002416 -0.009629 0.021284 0.000000 0.000000 0.000000
# 4 0.000000 0.000000 0.000000 0.044197 0.000000 0.000000
# 5 0.000000 0.000000 0.000000 0.000000 0.030731 0.000000
# 6 0.000000 0.000000 0.000000 0.000000 0.000000 0.032070
#
#
# Mechanical properties :
#
#
# Convention : Reuss Voigt Hill
#
# Bulk Modulus (GPa) = 66.83565 74.25139 70.54352
# Shear Modulus (GPa) = 25.02804 27.39947 26.21376
#
# Velocity S-wave (km/s) = 3.53384 3.69747 3.61658
# Velocity P-wave (km/s) = 7.07101 7.43485 7.25521
#
# Compressibility (1/GPa) = 0.01496207
#
# Stress axis : x y z
#
# Youngs Moduli (GPa) = 95.89112 50.85464 46.98356
#
# Poissons Ratio (x) = 0.31338 0.11350
# Poissons Ratio (y) = 0.59091 0.45241
# Poissons Ratio (z) = 0.23165 0.48968
#
# Static dielectric constant tensor:
#      x y z
#    x 3.800250 0.000000 0.000000 
#    y 0.000000 3.632350 0.000000 
#    z 0.000000 0.000000 3.623270 
# 
# 
# High freq. dielectric constant tensor:
#      x y z
#    x 1.792230 0.000000 0.000000 
#    y 0.000000 1.779530 0.000000 
#    z 0.000000 0.000000 1.783400 
# 
# From -- ./inp_files/40366.got.cif
#   From: 2010.03.12/outbox.cif.g09.slc.cpg/sg72_21_cif.got.tgz:40366.got - 2010.04.16 14:54:00.
