data_PCOD8293531
_publ_section_title
;
Structure prediction by ZEFSAII (Michael W. Deem and Ramdas Pophale) SiO2 
 PCOD8293531
Probable space group: I B A M
;
_chemical_formula_sum "Si O2"
_cell_formula_units_Z 80
_cell_length_a 25.783116
_cell_length_b 11.379360
_cell_length_c 14.106428
_cell_angle_alpha 90.000000
_cell_angle_beta 90.000000
_cell_angle_gamma 90.000000
_cell_volume 4138.760506
_symmetry_space_group_name_H-M "I B A M"
_symmetry_group_IT_number 72
_symmetry_cell_setting 'orthorhombic'
loop_
_space_group_symop_operation_xyz
x,y,z
-x,-y,z
x,-y,1/2-z
-x,y,1/2-z
-x,-y,-z
x,y,-z
-x,y,1/2+z
x,-y,1/2+z
1/2+x,1/2+y,1/2+z
1/2-x,1/2-y,1/2+z
1/2+x,1/2-y,-z
1/2-x,1/2+y,-z
1/2-x,1/2-y,1/2-z
1/2+x,1/2+y,1/2-z
1/2-x,1/2+y,z
1/2+x,1/2-y,z
loop_
_atom_site_type_symbol
_atom_site_label
_atom_site_fract_x
_atom_site_fract_y
_atom_site_fract_z
Si Si1 0.689062 0.049611 0.104931
Si Si2 0.442416 0.688297 0.263837
Si Si3 0.588032 0.514416 0.393283
Si Si4 0.698432 0.427649 0.343382
Si Si5 0.157181 0.680192 0.786432
O O1 0.751143 0.057026 0.092050
O O2 0.670010 0.148851 0.177652
O O3 0.670732 0.923025 0.141481
O O4 0.665170 0.070896 0.000000
O O5 0.500000 0.739722 0.250000
O O6 0.445562 0.589513 0.345844
O O7 0.419192 0.632388 0.167548
O O8 0.404402 0.793535 0.294252
O O9 0.568280 0.535366 0.500000
O O10 0.648358 0.479021 0.395931
O O11 0.710595 0.500000 0.250000
O O12 0.690599 0.291998 0.316838
#
# Coordination Sequence:
#
# PCOD8293531 Si02
#       5
#    16  16  16  16  16
#     4  11  24  38  59  85 115 158 195 232 280 332
#     4  10  21  37  57  81 112 152 191 238 292 333
#     4  10  19  33  56  89 121 146 180 229 288 355
#     4  11  19  38  60  87 121 150 181 226 286 349
#     4  10  22  41  58  81 119 150 192 242 277 342
#
# _framework density 19.329457999999999
#
# number of rings (size 3 to 8) (size 9 to 14) (size 15 to 20)
#    0.000    1.600    6.000    2.400    0.000    6.400 
#    0.000    2.000    0.000    1.200    0.000    0.000 
#    0.000    0.000    0.000    0.000    0.000    0.000 
#
# Total GULP energy -495995.547180 kJ/mol
# GULP energy per Si atom -12399.888680 kJ/mol
# Density = 1.928546 g / cm^3
# Si number density = 19.329458 Si / 1000 Ang^3
#
#
#
# Elastic Constant Matrix: (Units=GPa)
#
#
# Indices 1 2 3 4 5 6 
#
# 1 117.4348 48.9016 10.2414 0.0000 0.0000 0.0000
# 2 48.9016 87.5366 30.6576 0.0000 0.0000 0.0000
# 3 10.2414 30.6576 136.0495 0.0000 0.0000 0.0000
# 4 0.0000 0.0000 0.0000 6.5050 0.0000 0.0000
# 5 0.0000 0.0000 0.0000 0.0000 -9.5927 0.0000
# 6 0.0000 0.0000 0.0000 0.0000 0.0000 7.2407
#
#
#
# Elastic Compliance Matrix: (Units=1/GPa)
#
#
# Indices 1 2 3 4 5 6 
#
# 1 0.011144 -0.006440 0.000612 0.000000 0.000000 0.000000
# 2 -0.006440 0.016124 -0.003149 0.000000 0.000000 0.000000
# 3 0.000612 -0.003149 0.008014 0.000000 0.000000 0.000000
# 4 0.000000 0.000000 0.000000 0.153728 0.000000 0.000000
# 5 0.000000 0.000000 0.000000 0.000000 -0.104246 0.000000
# 6 0.000000 0.000000 0.000000 0.000000 0.000000 0.138108
#
#
# Mechanical properties :
#
#
# Convention : Reuss Voigt Hill
#
# Bulk Modulus (GPa) = 57.70628 57.84690 57.77659
# Shear Modulus (GPa) = 20.27585 17.57864 18.92724
#
# Velocity S-wave (km/s) = 3.24228 3.01893 3.13260
# Velocity P-wave (km/s) = 6.62838 6.49182 6.56045
#
# Compressibility (1/GPa) = 0.01732914
#
# Stress axis : x y z
#
# Youngs Moduli (GPa) = 89.73807 62.01936 124.78634
#
# Poissons Ratio (x) = 0.39938 -0.07640
# Poissons Ratio (y) = 0.57788 0.39291
# Poissons Ratio (z) = -0.05494 0.19528
#
# Static dielectric constant tensor:
#      x y z
#    x 3.572570 0.000000 0.000000 
#    y 0.000000 3.384400 0.000000 
#    z 0.000000 0.000000 3.458140 
# 
# 
# High freq. dielectric constant tensor:
#      x y z
#    x 1.750920 0.000000 0.000000 
#    y 0.000000 1.734170 0.000000 
#    z 0.000000 0.000000 1.751740 
# 
# From -- ./inp_files/20414.got.cif
#   From: 2010.03.12/outbox.cif.g09.slc.cpg/sg72_11_cif.got.tgz:20414.got - 2010.04.16 14:54:00.
