data_PCOD8293328
_publ_section_title
;
Structure prediction by ZEFSAII (Michael W. Deem and Ramdas Pophale) SiO2 
 PCOD8293328
Probable space group: I B A M
;
_chemical_formula_sum "Si O2"
_cell_formula_units_Z 96
_cell_length_a 20.471019
_cell_length_b 29.912934
_cell_length_c 8.729213
_cell_angle_alpha 90.000000
_cell_angle_beta 90.000000
_cell_angle_gamma 90.000000
_cell_volume 5345.318219
_symmetry_space_group_name_H-M "I B A M"
_symmetry_group_IT_number 72
_symmetry_cell_setting 'orthorhombic'
loop_
_space_group_symop_operation_xyz
x,y,z
-x,-y,z
x,-y,1/2-z
-x,y,1/2-z
-x,-y,-z
x,y,-z
-x,y,1/2+z
x,-y,1/2+z
1/2+x,1/2+y,1/2+z
1/2-x,1/2-y,1/2+z
1/2+x,1/2-y,-z
1/2-x,1/2+y,-z
1/2-x,1/2-y,1/2-z
1/2+x,1/2+y,1/2-z
1/2-x,1/2+y,z
1/2+x,1/2-y,z
loop_
_atom_site_type_symbol
_atom_site_label
_atom_site_fract_x
_atom_site_fract_y
_atom_site_fract_z
Si Si1 0.230478 0.364218 0.323149
Si Si2 0.114007 0.044778 0.327661
Si Si3 0.769490 0.544689 0.827715
Si Si4 0.931756 0.775361 0.319056
Si Si5 0.384345 0.636039 0.177011
Si Si6 0.811042 0.724324 0.180570
O O1 0.212349 0.357843 0.500000
O O2 0.206180 0.412753 0.268702
O O3 0.307397 0.358686 0.295231
O O4 0.192541 0.327762 0.222935
O O5 0.086903 0.048384 0.500000
O O6 0.191752 0.042616 0.328121
O O7 0.090411 0.087597 0.231188
O O8 0.085280 0.000000 0.250000
O O9 0.798195 0.500000 0.750000
O O10 0.796609 0.548218 0.000000
O O11 0.931606 0.769707 0.500000
O O12 0.920740 0.827070 0.277131
O O13 0.877011 0.744191 0.246894
O O14 0.000000 0.758777 0.250000
O O15 0.402605 0.642663 0.000000
O O16 0.750000 0.750000 0.250000
O O17 0.810087 0.731146 0.000000
#
# Coordination Sequence:
#
# PCOD8293328 Si02
#       6
#    16  16  16  16  16  16
#     4  10  19  31  50  76 106 139 178 221 267 317
#     4   9  16  26  42  66  96 130 171 216 267 316
#     4   9  16  26  41  65 100 138 174 213 263 317
#     4  12  25  41  59  79 107 141 180 224 273 326
#     4  10  19  32  51  74 102 135 176 220 268 319
#     4  12  23  37  57  82 110 142 181 225 273 323
#
# _framework density 17.959641999999999
#
# number of rings (size 3 to 8) (size 9 to 14) (size 15 to 20)
#    0.000    1.667    1.667    5.000    0.000    5.333 
#    0.000    0.000    0.000    0.500    0.000    3.500 
#    0.000    0.667    0.000    6.667    0.000    4.333 
#
# Total GULP energy -595366.866463 kJ/mol
# GULP energy per Si atom -12403.476385 kJ/mol
# Density = 1.791876 g / cm^3
# Si number density = 17.959642 Si / 1000 Ang^3
#
#
#
# Elastic Constant Matrix: (Units=GPa)
#
#
# Indices 1 2 3 4 5 6 
#
# 1 68.0035 42.6191 45.8967 0.0000 0.0000 0.0000
# 2 42.6191 119.1147 52.8921 0.0000 0.0000 0.0000
# 3 45.8967 52.8921 159.2525 0.0000 -0.0001 0.0000
# 4 0.0000 0.0000 0.0000 39.3856 0.0000 0.0000
# 5 0.0000 0.0000 -0.0001 0.0000 20.2878 0.0000
# 6 0.0000 0.0000 0.0000 0.0000 0.0000 7.6737
#
#
#
# Elastic Compliance Matrix: (Units=1/GPa)
#
#
# Indices 1 2 3 4 5 6 
#
# 1 0.021099 -0.005688 -0.004192 0.000000 0.000000 0.000000
# 2 -0.005688 0.011381 -0.002141 0.000000 0.000000 0.000000
# 3 -0.004192 -0.002141 0.008198 0.000000 0.000000 0.000000
# 4 0.000000 0.000000 0.000000 0.025390 0.000000 0.000000
# 5 0.000000 0.000000 0.000000 0.000000 0.049291 0.000000
# 6 0.000000 0.000000 0.000000 0.000000 0.000000 0.130315
#
#
# Mechanical properties :
#
#
# Convention : Reuss Voigt Hill
#
# Bulk Modulus (GPa) = 60.10414 69.90960 65.00687
# Shear Modulus (GPa) = 18.16466 27.13360 22.64913
#
# Velocity S-wave (km/s) = 3.18373 3.89113 3.55507
# Velocity P-wave (km/s) = 6.85957 7.69404 7.28876
#
# Compressibility (1/GPa) = 0.01663779
#
# Stress axis : x y z
#
# Youngs Moduli (GPa) = 47.39608 87.86625 121.97604
#
# Poissons Ratio (x) = 0.49977 0.51127
# Poissons Ratio (y) = 0.26958 0.26111
# Poissons Ratio (z) = 0.19867 0.18809
#
# Static dielectric constant tensor:
#      x y z
#    x 2.918700 0.000000 0.000000 
#    y 0.000000 3.563750 0.000000 
#    z 0.000000 0.000000 3.549420 
# 
# 
# High freq. dielectric constant tensor:
#      x y z
#    x 1.633310 0.000000 0.000000 
#    y 0.000000 1.707810 0.000000 
#    z 0.000000 0.000000 1.717860 
# 
# From -- ./inp_files/5954.got.cif
#   From: 2010.03.12/outbox.cif.g09.slc.cpg/sg72_3_cif.got.tgz:5954.got - 2010.04.16 14:54:00.
