data_PCOD8293359
_publ_section_title
;
Structure prediction by ZEFSAII (Michael W. Deem and Ramdas Pophale) SiO2 
 PCOD8293359
Probable space group: I B A M
;
_chemical_formula_sum "Si O2"
_cell_formula_units_Z 104
_cell_length_a 22.901069
_cell_length_b 24.795200
_cell_length_c 9.900179
_cell_angle_alpha 90.000000
_cell_angle_beta 90.000000
_cell_angle_gamma 90.000000
_cell_volume 5621.683845
_symmetry_space_group_name_H-M "I B A M"
_symmetry_group_IT_number 72
_symmetry_cell_setting 'orthorhombic'
loop_
_space_group_symop_operation_xyz
x,y,z
-x,-y,z
x,-y,1/2-z
-x,y,1/2-z
-x,-y,-z
x,y,-z
-x,y,1/2+z
x,-y,1/2+z
1/2+x,1/2+y,1/2+z
1/2-x,1/2-y,1/2+z
1/2+x,1/2-y,-z
1/2-x,1/2+y,-z
1/2-x,1/2-y,1/2-z
1/2+x,1/2+y,1/2-z
1/2-x,1/2+y,z
1/2+x,1/2-y,z
loop_
_atom_site_type_symbol
_atom_site_label
_atom_site_fract_x
_atom_site_fract_y
_atom_site_fract_z
Si Si1 0.053181 0.262100 0.155400
Si Si2 0.867763 0.833601 0.844421
Si Si3 0.211594 0.897823 0.152812
Si Si4 0.144311 0.000000 0.250000
Si Si5 0.946954 0.613984 0.155667
Si Si6 0.049609 0.927970 0.352658
Si Si7 0.169275 0.551009 0.655997
O O1 0.111521 0.227339 0.187458
O O2 0.069520 0.323970 0.184064
O O3 0.000000 0.243374 0.250000
O O4 0.034014 0.252947 0.000000
O O5 0.813769 0.851573 0.750892
O O6 0.924551 0.869923 0.812294
O O7 0.847972 0.840558 0.000000
O O8 0.183383 0.956641 0.172449
O O9 0.280465 0.904413 0.181187
O O10 0.199866 0.878635 0.000000
O O11 0.102984 0.970050 0.357504
O O12 0.891759 0.578085 0.195285
O O13 0.000000 0.594872 0.250000
O O14 0.965271 0.605567 0.000000
O O15 0.020337 0.926230 0.500000
O O16 0.000000 0.946289 0.250000
O O17 0.180405 0.500000 0.750000
O O18 0.170151 0.532099 0.500000
#
# Coordination Sequence:
#
# PCOD8293359 Si02
#       7
#    16  16  16   8  16  16  16
#     4   9  17  32  54  78 105 140 177 217 263 313
#     4   9  19  33  49  71 101 136 174 214 259 305
#     4  10  20  34  52  73  98 133 177 218 259 306
#     4  10  19  32  48  64  89 126 172 212 258 304
#     4   9  19  36  58  83 111 138 170 211 260 316
#     4  10  20  30  42  63  91 123 162 209 254 300
#     4  10  21  37  57  81 107 139 175 215 261 314
#
# _framework density 18.499794999999999
#
# number of rings (size 3 to 8) (size 9 to 14) (size 15 to 20)
#    0.000    2.462    0.769    1.154    0.000    6.462 
#    0.000    2.308    0.000    0.000    0.000    0.000 
#    0.000    0.000    0.000    0.000    0.000    0.000 
#
# Total GULP energy -644767.575943 kJ/mol
# GULP energy per Si atom -12399.376460 kJ/mol
# Density = 1.845769 g / cm^3
# Si number density = 18.499795 Si / 1000 Ang^3
#
#
#
# Elastic Constant Matrix: (Units=GPa)
#
#
# Indices 1 2 3 4 5 6 
#
# 1 103.9997 24.1647 60.6024 0.0000 0.0000 0.0000
# 2 24.1647 41.1849 32.0812 0.0000 0.0000 0.0000
# 3 60.6024 32.0812 100.5800 0.0000 0.0000 0.0000
# 4 0.0000 0.0000 0.0000 20.9556 0.0000 0.0000
# 5 0.0000 0.0000 0.0000 0.0000 30.9267 0.0000
# 6 0.0000 0.0000 0.0000 0.0000 0.0000 23.0908
#
#
#
# Elastic Compliance Matrix: (Units=1/GPa)
#
#
# Indices 1 2 3 4 5 6 
#
# 1 0.014986 -0.002341 -0.008283 0.000000 0.000000 0.000000
# 2 -0.002341 0.032674 -0.009011 0.000000 0.000000 0.000000
# 3 -0.008283 -0.009011 0.017807 0.000000 0.000000 0.000000
# 4 0.000000 0.000000 0.000000 0.047720 0.000000 0.000000
# 5 0.000000 0.000000 0.000000 0.000000 0.032334 0.000000
# 6 0.000000 0.000000 0.000000 0.000000 0.000000 0.043307
#
#
# Mechanical properties :
#
#
# Convention : Reuss Voigt Hill
#
# Bulk Modulus (GPa) = 38.17242 53.27347 45.72294
# Shear Modulus (GPa) = 21.11217 23.58903 22.35060
#
# Velocity S-wave (km/s) = 3.38185 3.57472 3.47962
# Velocity P-wave (km/s) = 5.99399 6.77477 6.39631
#
# Compressibility (1/GPa) = 0.02619693
#
# Stress axis : x y z
#
# Youngs Moduli (GPa) = 66.72973 30.60584 56.15718
#
# Poissons Ratio (x) = 0.07164 0.46514
# Poissons Ratio (y) = 0.15620 0.50604
# Poissons Ratio (z) = 0.55271 0.27579
#
# Static dielectric constant tensor:
#      x y z
#    x 3.298570 0.000000 0.000000 
#    y 0.000000 3.336810 0.000000 
#    z 0.000000 0.000000 3.396520 
# 
# 
# High freq. dielectric constant tensor:
#      x y z
#    x 1.705560 0.000000 0.000000 
#    y 0.000000 1.708020 0.000000 
#    z 0.000000 0.000000 1.719280 
# 
# From -- ./inp_files/7202.got.cif
#   From: 2010.03.12/outbox.cif.g09.slc.cpg/sg72_4_cif.got.tgz:7202.got - 2010.04.16 14:54:00.
