data_PCOD8293858
_publ_section_title
;
Structure prediction by ZEFSAII (Michael W. Deem and Ramdas Pophale) SiO2 
 PCOD8293858
Probable space group: I B A M
;
_chemical_formula_sum "Si O2"
_cell_formula_units_Z 80
_cell_length_a 23.943606
_cell_length_b 6.507466
_cell_length_c 26.658237
_cell_angle_alpha 90.000000
_cell_angle_beta 90.000000
_cell_angle_gamma 90.000000
_cell_volume 4153.678607
_symmetry_space_group_name_H-M "I B A M"
_symmetry_group_IT_number 72
_symmetry_cell_setting 'orthorhombic'
loop_
_space_group_symop_operation_xyz
x,y,z
-x,-y,z
x,-y,1/2-z
-x,y,1/2-z
-x,-y,-z
x,y,-z
-x,y,1/2+z
x,-y,1/2+z
1/2+x,1/2+y,1/2+z
1/2-x,1/2-y,1/2+z
1/2+x,1/2-y,-z
1/2-x,1/2+y,-z
1/2-x,1/2-y,1/2-z
1/2+x,1/2+y,1/2-z
1/2-x,1/2+y,z
1/2+x,1/2-y,z
loop_
_atom_site_type_symbol
_atom_site_label
_atom_site_fract_x
_atom_site_fract_y
_atom_site_fract_z
Si Si1 0.675063 0.917268 0.194146
Si Si2 0.936632 0.961074 0.057525
Si Si3 0.791251 0.037745 0.144933
Si Si4 0.337691 0.228547 0.056967
Si Si5 0.635641 0.840154 0.386527
O O1 0.675095 0.668986 0.188386
O O2 0.672859 0.000000 0.250000
O O3 0.730095 0.997698 0.165637
O O4 0.623434 0.014496 0.162231
O O5 0.918784 0.774826 0.093618
O O6 0.897757 0.160662 0.066161
O O7 0.932527 0.887981 0.000000
O O8 0.000000 0.000000 0.073059
O O9 0.791073 0.171598 0.093410
O O10 0.819089 0.822458 0.132874
O O11 0.342287 0.986302 0.068584
O O12 0.317440 0.258680 0.000000
#
# Coordination Sequence:
#
# PCOD8293858 Si02
#       5
#    16  16  16  16  16
#     4  11  21  34  55  79 105 140 184 235 274 318
#     4   9  18  34  57  82 105 135 179 228 279 334
#     4  10  20  33  52  77 107 140 184 223 265 323
#     4   9  19  35  52  76 109 143 178 218 270 334
#     4  10  20  33  52  76 110 139 175 228 269 326
#
# _framework density 19.260035999999999
#
# number of rings (size 3 to 8) (size 9 to 14) (size 15 to 20)
#    0.000    2.200    2.000    1.200    0.000    1.600 
#    0.000    8.000    0.000    0.000    0.000   40.600 
#    0.000    0.000    0.000    0.000    0.000    0.000 
#
# Total GULP energy -495542.932585 kJ/mol
# GULP energy per Si atom -12388.573315 kJ/mol
# Density = 1.921620 g / cm^3
# Si number density = 19.260036 Si / 1000 Ang^3
#
#
#
# Elastic Constant Matrix: (Units=GPa)
#
#
# Indices 1 2 3 4 5 6 
#
# 1 51.3480 12.6976 27.0113 0.0000 0.0000 0.0000
# 2 12.6976 95.8018 16.0570 0.0000 0.0000 0.0000
# 3 27.0113 16.0570 103.1305 0.0000 0.0000 0.0000
# 4 0.0000 0.0000 0.0000 26.9887 0.0000 0.0000
# 5 0.0000 0.0000 0.0000 0.0000 17.1917 0.0000
# 6 0.0000 0.0000 0.0000 0.0000 0.0000 18.7740
#
#
#
# Elastic Compliance Matrix: (Units=1/GPa)
#
#
# Indices 1 2 3 4 5 6 
#
# 1 0.022988 -0.002092 -0.005695 0.000000 0.000000 0.000000
# 2 -0.002092 0.010908 -0.001150 0.000000 0.000000 0.000000
# 3 -0.005695 -0.001150 0.011367 0.000000 0.000000 0.000000
# 4 0.000000 0.000000 0.000000 0.037053 0.000000 0.000000
# 5 0.000000 0.000000 0.000000 0.000000 0.058168 0.000000
# 6 0.000000 0.000000 0.000000 0.000000 0.000000 0.053265
#
#
# Mechanical properties :
#
#
# Convention : Reuss Voigt Hill
#
# Bulk Modulus (GPa) = 36.51228 40.20136 38.35682
# Shear Modulus (GPa) = 22.64961 25.55849 24.10405
#
# Velocity S-wave (km/s) = 3.43299 3.64678 3.54150
# Velocity P-wave (km/s) = 5.89174 6.21694 6.05652
#
# Compressibility (1/GPa) = 0.02738805
#
# Stress axis : x y z
#
# Youngs Moduli (GPa) = 43.50044 91.67289 87.97235
#
# Poissons Ratio (x) = 0.19181 0.50102
# Poissons Ratio (y) = 0.09102 0.10120
# Poissons Ratio (z) = 0.24774 0.10546
#
# Static dielectric constant tensor:
#      x y z
#    x 3.258650 0.000000 0.000000 
#    y 0.000000 4.112920 0.000000 
#    z 0.000000 0.000000 3.625890 
# 
# 
# High freq. dielectric constant tensor:
#      x y z
#    x 1.698820 0.000000 0.000000 
#    y 0.000000 1.776050 0.000000 
#    z 0.000000 0.000000 1.746820 
# 
# From -- ./inp_files/49825.got.cif
#   From: 2010.03.12/outbox.cif.g09.slc.cpg/sg72_25_cif.got.tgz:49825.got - 2010.04.16 14:54:00.
