data_PCOD8293294
_publ_section_title
;
Structure prediction by ZEFSAII (Michael W. Deem and Ramdas Pophale) SiO2 
 PCOD8293294
Probable space group: I B A M
;
_chemical_formula_sum "Si O2"
_cell_formula_units_Z 128
_cell_length_a 12.111286
_cell_length_b 22.034460
_cell_length_c 24.604538
_cell_angle_alpha 90.000000
_cell_angle_beta 90.000000
_cell_angle_gamma 90.000000
_cell_volume 6566.105950
_symmetry_space_group_name_H-M "I B A M"
_symmetry_group_IT_number 72
_symmetry_cell_setting 'orthorhombic'
loop_
_space_group_symop_operation_xyz
x,y,z
-x,-y,z
x,-y,1/2-z
-x,y,1/2-z
-x,-y,-z
x,y,-z
-x,y,1/2+z
x,-y,1/2+z
1/2+x,1/2+y,1/2+z
1/2-x,1/2-y,1/2+z
1/2+x,1/2-y,-z
1/2-x,1/2+y,-z
1/2-x,1/2-y,1/2-z
1/2+x,1/2+y,1/2-z
1/2-x,1/2+y,z
1/2+x,1/2-y,z
loop_
_atom_site_type_symbol
_atom_site_label
_atom_site_fract_x
_atom_site_fract_y
_atom_site_fract_z
Si Si1 0.683941 0.928199 0.437325
Si Si2 0.684634 0.679200 0.107589
Si Si3 0.869713 0.500092 0.840038
Si Si4 0.493812 0.836387 0.562498
Si Si5 0.553544 0.718391 0.626807
Si Si6 0.875801 0.587192 0.748293
Si Si7 0.825599 0.286448 0.710590
Si Si8 0.757425 0.694624 0.561875
O O1 0.692495 0.949026 0.500000
O O2 0.784067 0.882219 0.424075
O O3 0.689290 0.987660 0.398512
O O4 0.565422 0.896121 0.424807
O O5 0.555575 0.677449 0.124682
O O6 0.756239 0.685696 0.161511
O O7 0.704953 0.735382 0.067336
O O8 0.823471 0.554292 0.800840
O O9 0.829486 0.437359 0.810204
O O10 0.000000 0.500000 0.850566
O O11 0.502130 0.818130 0.500000
O O12 0.546987 0.780715 0.593812
O O13 0.364612 0.846472 0.578397
O O14 0.579816 0.740481 0.688438
O O15 0.655541 0.679412 0.601896
O O16 0.873196 0.659485 0.752596
O O17 0.000000 0.563459 0.750000
O O18 0.750000 0.250000 0.750000
O O19 0.721163 0.682010 0.500000
#
# Coordination Sequence:
#
# PCOD8293294 Si02
#       8
#    16  16  16  16  16  16  16  16
#     4  11  19  32  54  84 118 150 191 245 298 352
#     4  10  20  32  47  74 112 152 190 227 287 348
#     4   9  18  35  54  80 107 149 193 241 294 349
#     4   9  16  27  47  72 105 149 186 226 275 328
#     4  10  19  31  45  71 115 151 190 228 269 350
#     4   9  18  34  57  77 111 148 192 235 290 349
#     4  11  22  34  52  82 112 150 189 236 294 347
#     4   9  16  28  45  69 105 152 195 221 264 332
#
# _framework density 19.494050999999999
#
# number of rings (size 3 to 8) (size 9 to 14) (size 15 to 20)
#    0.000    2.250    3.750    1.500    1.750    1.750 
#    6.750    0.000    0.000    0.000    0.000    0.875 
#    0.000    1.000    0.000    0.000    0.000    0.000 
#
# Total GULP energy -793068.399550 kJ/mol
# GULP energy per Si atom -12391.693743 kJ/mol
# Density = 1.944968 g / cm^3
# Si number density = 19.494051 Si / 1000 Ang^3
#
#
#
# Elastic Constant Matrix: (Units=GPa)
#
#
# Indices 1 2 3 4 5 6 
#
# 1 96.0468 27.2763 29.6532 0.0000 0.0000 0.0000
# 2 27.2763 53.5244 44.8929 0.0000 0.0000 0.0000
# 3 29.6532 44.8929 112.7828 0.0000 0.0000 0.0000
# 4 0.0000 0.0000 0.0000 30.8225 0.0000 0.0000
# 5 0.0000 0.0000 0.0000 0.0000 22.4491 0.0000
# 6 0.0000 0.0000 0.0000 0.0000 0.0000 12.1180
#
#
#
# Elastic Compliance Matrix: (Units=1/GPa)
#
#
# Indices 1 2 3 4 5 6 
#
# 1 0.012265 -0.005322 -0.001106 0.000000 0.000000 0.000000
# 2 -0.005322 0.030356 -0.010684 0.000000 0.000000 0.000000
# 3 -0.001106 -0.010684 0.013410 0.000000 0.000000 0.000000
# 4 0.000000 0.000000 0.000000 0.032444 0.000000 0.000000
# 5 0.000000 0.000000 0.000000 0.000000 0.044545 0.000000
# 6 0.000000 0.000000 0.000000 0.000000 0.000000 0.082522
#
#
# Mechanical properties :
#
#
# Convention : Reuss Voigt Hill
#
# Bulk Modulus (GPa) = 45.85821 51.77765 48.81793
# Shear Modulus (GPa) = 19.45258 23.78002 21.61630
#
# Velocity S-wave (km/s) = 3.16234 3.49644 3.33358
# Velocity P-wave (km/s) = 6.07529 6.55122 6.31774
#
# Compressibility (1/GPa) = 0.02180635
#
# Stress axis : x y z
#
# Youngs Moduli (GPa) = 81.53559 32.94201 74.57061
#
# Poissons Ratio (x) = 0.17533 0.08248
# Poissons Ratio (y) = 0.43396 0.79670
# Poissons Ratio (z) = 0.09019 0.35195
#
# Static dielectric constant tensor:
#      x y z
#    x 3.580510 0.000000 0.000000 
#    y 0.000000 3.303590 0.000000 
#    z 0.000000 0.000000 6.373460 
# 
# 
# High freq. dielectric constant tensor:
#      x y z
#    x 1.731670 0.000000 0.000000 
#    y 0.000000 1.717180 0.000000 
#    z 0.000000 0.000000 1.772290 
# 
# From -- ./inp_files/43699.got.cif
#   From: 2010.03.12/outbox.cif.g09.slc.cpg/sg72_22_cif.got.tgz:43699.got - 2010.04.16 14:54:00.
