data_PCOD8293146
_publ_section_title
;
Structure prediction by ZEFSAII (Michael W. Deem and Ramdas Pophale) SiO2 
 PCOD8293146
Probable space group: I B A M
;
_chemical_formula_sum "Si O2"
_cell_formula_units_Z 112
_cell_length_a 16.171196
_cell_length_b 15.926746
_cell_length_c 23.737298
_cell_angle_alpha 90.000000
_cell_angle_beta 90.000000
_cell_angle_gamma 90.000000
_cell_volume 6113.648659
_symmetry_space_group_name_H-M "I B A M"
_symmetry_group_IT_number 72
_symmetry_cell_setting 'orthorhombic'
loop_
_space_group_symop_operation_xyz
x,y,z
-x,-y,z
x,-y,1/2-z
-x,y,1/2-z
-x,-y,-z
x,y,-z
-x,y,1/2+z
x,-y,1/2+z
1/2+x,1/2+y,1/2+z
1/2-x,1/2-y,1/2+z
1/2+x,1/2-y,-z
1/2-x,1/2+y,-z
1/2-x,1/2-y,1/2-z
1/2+x,1/2+y,1/2-z
1/2-x,1/2+y,z
1/2+x,1/2-y,z
loop_
_atom_site_type_symbol
_atom_site_label
_atom_site_fract_x
_atom_site_fract_y
_atom_site_fract_z
Si Si1 0.090316 0.524395 0.936269
Si Si2 0.116926 0.339219 0.652032
Si Si3 0.808569 0.157727 0.147171
Si Si4 0.939874 0.740381 0.150194
Si Si5 0.481956 0.594154 0.683705
Si Si6 0.177245 0.651500 0.436737
Si Si7 0.184245 0.679608 0.265033
O O1 0.134429 0.593622 0.896866
O O2 0.143829 0.441825 0.934582
O O3 0.000000 0.500000 0.912872
O O4 0.083637 0.560726 0.000000
O O5 0.171752 0.256291 0.646493
O O6 0.149031 0.375531 0.712581
O O7 0.020387 0.317935 0.649223
O O8 0.886584 0.104809 0.166825
O O9 0.772121 0.143102 0.084780
O O10 0.732790 0.126118 0.187855
O O11 0.879038 0.716716 0.098867
O O12 0.895990 0.725319 0.209667
O O13 0.964045 0.839152 0.147858
O O14 0.500000 0.500000 0.664111
O O15 0.500000 0.607007 0.750000
O O16 0.178004 0.686913 0.500000
O O17 0.250000 0.750000 0.250000
#
# Coordination Sequence:
#
# PCOD8293146 Si02
#       7
#    16  16  16  16  16  16  16
#     4  10  20  36  56  81 110 147 191 233 279 335
#     4  10  18  32  57  79 108 145 183 225 278 339
#     4   9  20  37  54  83 113 146 186 233 281 339
#     4  10  18  33  58  79 107 147 190 227 274 342
#     4  10  20  37  59  84 114 153 192 229 279 343
#     4  10  21  39  58  79 113 149 188 238 290 336
#     4   9  17  31  52  79 111 143 176 223 281 331
#
# _framework density 18.319666000000002
#
# number of rings (size 3 to 8) (size 9 to 14) (size 15 to 20)
#    0.000    2.286    1.429    3.000    0.000    0.571 
#   12.857    4.286    0.000    0.857    0.000    0.000 
#    0.000    0.000    0.000    0.000    0.000    0.000 
#
# Total GULP energy -693809.580221 kJ/mol
# GULP energy per Si atom -12389.456790 kJ/mol
# Density = 1.827797 g / cm^3
# Si number density = 18.319666 Si / 1000 Ang^3
#
#
#
# Elastic Constant Matrix: (Units=GPa)
#
#
# Indices 1 2 3 4 5 6 
#
# 1 104.4146 30.5181 53.4023 0.0000 0.0000 0.0000
# 2 30.5181 86.0075 46.8729 0.0000 0.0000 0.0000
# 3 53.4023 46.8729 122.4111 0.0000 0.0000 0.0000
# 4 0.0000 0.0000 0.0000 27.3659 0.0000 0.0000
# 5 0.0000 0.0000 0.0000 0.0000 13.9601 0.0000
# 6 0.0000 0.0000 0.0000 0.0000 0.0000 12.7683
#
#
#
# Elastic Compliance Matrix: (Units=1/GPa)
#
#
# Indices 1 2 3 4 5 6 
#
# 1 0.012558 -0.001858 -0.004767 0.000000 0.000000 0.000000
# 2 -0.001858 0.014968 -0.004921 0.000000 0.000000 0.000000
# 3 -0.004767 -0.004921 0.012133 0.000000 0.000000 0.000000
# 4 0.000000 0.000000 0.000000 0.036542 0.000000 0.000000
# 5 0.000000 0.000000 0.000000 0.000000 0.071632 0.000000
# 6 0.000000 0.000000 0.000000 0.000000 0.000000 0.078319
#
#
# Mechanical properties :
#
#
# Convention : Reuss Voigt Hill
#
# Bulk Modulus (GPa) = 60.35966 63.82442 62.09204
# Shear Modulus (GPa) = 19.62573 22.95487 21.29030
#
# Velocity S-wave (km/s) = 3.27661 3.54364 3.41274
# Velocity P-wave (km/s) = 6.88000 7.18736 7.03536
#
# Compressibility (1/GPa) = 0.01656736
#
# Stress axis : x y z
#
# Youngs Moduli (GPa) = 79.62785 66.80920 82.41879
#
# Poissons Ratio (x) = 0.12414 0.39290
# Poissons Ratio (y) = 0.14795 0.40557
# Poissons Ratio (z) = 0.37960 0.32876
#
# Static dielectric constant tensor:
#      x y z
#    x 3.487330 0.000000 0.000000 
#    y 0.000000 3.127580 0.000000 
#    z 0.000000 0.000000 4.447730 
# 
# 
# High freq. dielectric constant tensor:
#      x y z
#    x 1.721320 0.000000 0.000000 
#    y 0.000000 1.684950 0.000000 
#    z 0.000000 0.000000 1.707560 
# 
# From -- ./inp_files/44373.got.cif
#   From: 2010.03.12/outbox.cif.g09.slc.cpg/sg72_23_cif.got.tgz:44373.got - 2010.04.16 14:54:00.
