data_PCOD8293019
_publ_section_title
;
Structure prediction by ZEFSAII (Michael W. Deem and Ramdas Pophale) SiO2 
 PCOD8293019
Probable space group: I B A M
;
_chemical_formula_sum "Si O2"
_cell_formula_units_Z 64
_cell_length_a 27.955257
_cell_length_b 14.477425
_cell_length_c 8.595378
_cell_angle_alpha 90.000000
_cell_angle_beta 90.000000
_cell_angle_gamma 90.000000
_cell_volume 3478.722558
_symmetry_space_group_name_H-M "I B A M"
_symmetry_group_IT_number 72
_symmetry_cell_setting 'orthorhombic'
loop_
_space_group_symop_operation_xyz
x,y,z
-x,-y,z
x,-y,1/2-z
-x,y,1/2-z
-x,-y,-z
x,y,-z
-x,y,1/2+z
x,-y,1/2+z
1/2+x,1/2+y,1/2+z
1/2-x,1/2-y,1/2+z
1/2+x,1/2-y,-z
1/2-x,1/2+y,-z
1/2-x,1/2-y,1/2-z
1/2+x,1/2+y,1/2-z
1/2-x,1/2+y,z
1/2+x,1/2-y,z
loop_
_atom_site_type_symbol
_atom_site_label
_atom_site_fract_x
_atom_site_fract_y
_atom_site_fract_z
Si Si1 0.172610 0.092730 0.183855
Si Si2 0.858134 0.713229 0.682942
Si Si3 0.050363 0.598862 0.817649
Si Si4 0.734242 0.847508 0.315306
O O1 0.146770 0.183393 0.250983
O O2 0.228007 0.082434 0.239244
O O3 0.146819 0.000000 0.250000
O O4 0.169267 0.096503 0.000000
O O5 0.848825 0.716181 0.500000
O O6 0.910420 0.675663 0.726165
O O7 0.820436 0.640235 0.758627
O O8 0.065613 0.500000 0.750000
O O9 0.000000 0.633587 0.750000
O O10 0.045133 0.586858 0.000000
O O11 0.737404 0.852976 0.500000
O O12 0.750000 0.750000 0.250000
#
# Coordination Sequence:
#
# PCOD8293019 Si02
#       4
#    16  16  16  16
#     4  11  21  34  52  75 105 142 178 217 258 306
#     4  10  20  35  53  77 106 139 176 216 259 308
#     4  10  21  36  57  80 106 134 167 211 260 312
#     4  10  18  30  48  71 100 135 172 212 251 296
#
# _framework density 18.397559999999999
#
# number of rings (size 3 to 8) (size 9 to 14) (size 15 to 20)
#    0.000    1.750    0.000    9.750    0.000    5.000 
#    0.000    2.500    0.000    0.750    0.000    5.250 
#    0.000    0.000    0.000    0.000    0.000    0.000 
#
# Total GULP energy -396634.781044 kJ/mol
# GULP energy per Si atom -12394.836908 kJ/mol
# Density = 1.835569 g / cm^3
# Si number density = 18.397560 Si / 1000 Ang^3
#
#
#
# Elastic Constant Matrix: (Units=GPa)
#
#
# Indices 1 2 3 4 5 6 
#
# 1 117.2524 59.3893 50.2923 0.0000 0.0000 0.0000
# 2 59.3893 100.4340 36.5522 0.0000 0.0000 0.0000
# 3 50.2923 36.5522 120.0731 0.0000 0.0000 0.0000
# 4 0.0000 0.0000 0.0000 28.4218 0.0000 0.0000
# 5 0.0000 0.0000 0.0000 0.0000 27.3939 0.0000
# 6 0.0000 0.0000 0.0000 0.0000 0.0000 21.5061
#
#
#
# Elastic Compliance Matrix: (Units=1/GPa)
#
#
# Indices 1 2 3 4 5 6 
#
# 1 0.013435 -0.006631 -0.003609 0.000000 0.000000 0.000000
# 2 -0.006631 0.014470 -0.001628 0.000000 0.000000 0.000000
# 3 -0.003609 -0.001628 0.010335 0.000000 0.000000 0.000000
# 4 0.000000 0.000000 0.000000 0.035184 0.000000 0.000000
# 5 0.000000 0.000000 0.000000 0.000000 0.036504 0.000000
# 6 0.000000 0.000000 0.000000 0.000000 0.000000 0.046499
#
#
# Mechanical properties :
#
#
# Convention : Reuss Voigt Hill
#
# Bulk Modulus (GPa) = 68.93751 70.02524 69.48138
# Shear Modulus (GPa) = 27.02729 28.23274 27.63001
#
# Velocity S-wave (km/s) = 3.83700 3.92164 3.87955
# Velocity P-wave (km/s) = 7.56191 7.65836 7.61029
#
# Compressibility (1/GPa) = 0.01450589
#
# Stress axis : x y z
#
# Youngs Moduli (GPa) = 74.43118 69.10676 96.75695
#
# Poissons Ratio (x) = 0.45827 0.34916
# Poissons Ratio (y) = 0.49357 0.15747
# Poissons Ratio (z) = 0.26860 0.11247
#
# Static dielectric constant tensor:
#      x y z
#    x 3.857150 0.000000 0.000000 
#    y 0.000000 3.579790 0.000000 
#    z 0.000000 0.000000 3.562100 
# 
# 
# High freq. dielectric constant tensor:
#      x y z
#    x 1.693660 0.000000 0.000000 
#    y 0.000000 1.709000 0.000000 
#    z 0.000000 0.000000 1.736030 
# 
# From -- ./inp_files/3781.got.cif
#   From: 2010.03.12/outbox.cif.g09.slc.cpg/sg72_2_cif.got.tgz:3781.got - 2010.04.16 14:54:00.
