data_PCOD8293789
_publ_section_title
;
Structure prediction by ZEFSAII (Michael W. Deem and Ramdas Pophale) SiO2 
 PCOD8293789
Probable space group: I B A M
;
_chemical_formula_sum "Si O2"
_cell_formula_units_Z 60
_cell_length_a 16.584143
_cell_length_b 9.071640
_cell_length_c 17.812608
_cell_angle_alpha 90.000000
_cell_angle_beta 90.000000
_cell_angle_gamma 90.000000
_cell_volume 2679.824490
_symmetry_space_group_name_H-M "I B A M"
_symmetry_group_IT_number 72
_symmetry_cell_setting 'orthorhombic'
loop_
_space_group_symop_operation_xyz
x,y,z
-x,-y,z
x,-y,1/2-z
-x,y,1/2-z
-x,-y,-z
x,y,-z
-x,y,1/2+z
x,-y,1/2+z
1/2+x,1/2+y,1/2+z
1/2-x,1/2-y,1/2+z
1/2+x,1/2-y,-z
1/2-x,1/2+y,-z
1/2-x,1/2-y,1/2-z
1/2+x,1/2+y,1/2-z
1/2-x,1/2+y,z
1/2+x,1/2-y,z
loop_
_atom_site_type_symbol
_atom_site_label
_atom_site_fract_x
_atom_site_fract_y
_atom_site_fract_z
Si Si1 0.277081 0.866425 0.585033
Si Si2 0.345914 0.839921 0.867154
Si Si3 0.000000 0.500000 0.650852
Si Si4 0.000000 0.000000 0.750000
Si Si5 0.109418 0.252239 0.704327
O O1 0.309705 0.877490 0.500000
O O2 0.186273 0.798599 0.583910
O O3 0.331200 0.751809 0.633143
O O4 0.281698 0.026138 0.624333
O O5 0.344469 0.776004 0.782689
O O6 0.434076 0.900547 0.895650
O O7 0.050149 0.390886 0.702617
O O8 0.942289 0.897960 0.699097
#
# Coordination Sequence:
#
# PCOD8293789 Si02
#       5
#    16  16   8   4  16
#     4  11  25  42  63  96 136 176 218 274 340 402
#     4  11  22  42  68  96 131 178 223 279 325 397
#     4  10  19  42  67  94 133 166 225 280 331 388
#     4  12  24  38  74 104 124 168 232 290 336 374
#     4  11  23  41  69 100 128 172 227 285 331 401
#
# _framework density 22.389524999999999
#
# number of rings (size 3 to 8) (size 9 to 14) (size 15 to 20)
#    0.000    1.067    2.667    5.600    3.733    0.000 
#    0.000   17.333    0.000    0.000    0.000    0.000 
#    0.000    0.000    0.000    0.000    0.000    0.000 
#
# Total GULP energy -371649.023184 kJ/mol
# GULP energy per Si atom -12388.300773 kJ/mol
# Density = 2.233857 g / cm^3
# Si number density = 22.389525 Si / 1000 Ang^3
#
#
#
# Elastic Constant Matrix: (Units=GPa)
#
#
# Indices 1 2 3 4 5 6 
#
# 1 86.6086 43.4277 40.7344 0.0000 0.0000 0.0000
# 2 43.4277 106.8737 36.4338 0.0000 0.0000 0.0000
# 3 40.7344 36.4338 116.5612 0.0000 0.0000 0.0000
# 4 0.0000 0.0000 0.0000 8.1313 0.0000 0.0000
# 5 0.0000 0.0000 0.0000 0.0000 14.1993 0.0000
# 6 0.0000 0.0000 0.0000 0.0000 0.0000 58.4875
#
#
#
# Elastic Compliance Matrix: (Units=1/GPa)
#
#
# Indices 1 2 3 4 5 6 
#
# 1 0.015999 -0.005143 -0.003983 0.000000 0.000000 0.000000
# 2 -0.005143 0.012126 -0.001993 0.000000 0.000000 0.000000
# 3 -0.003983 -0.001993 0.010594 0.000000 0.000000 0.000000
# 4 0.000000 0.000000 0.000000 0.122981 0.000000 0.000000
# 5 0.000000 0.000000 0.000000 0.000000 0.070426 0.000000
# 6 0.000000 0.000000 0.000000 0.000000 0.000000 0.017098
#
#
# Mechanical properties :
#
#
# Convention : Reuss Voigt Hill
#
# Bulk Modulus (GPa) = 60.67930 61.24837 60.96383
# Shear Modulus (GPa) = 18.05342 28.79345 23.42344
#
# Velocity S-wave (km/s) = 2.84268 3.59001 3.23798
# Velocity P-wave (km/s) = 6.15913 6.67828 6.42395
#
# Compressibility (1/GPa) = 0.01648009
#
# Stress axis : x y z
#
# Youngs Moduli (GPa) = 62.50571 82.46691 94.39118
#
# Poissons Ratio (x) = 0.42413 0.37600
# Poissons Ratio (y) = 0.32147 0.18812
# Poissons Ratio (z) = 0.24899 0.16435
#
# Static dielectric constant tensor:
#      x y z
#    x 4.649880 0.000000 0.000000 
#    y 0.000000 4.310920 0.000000 
#    z 0.000000 0.000000 3.560780 
# 
# 
# High freq. dielectric constant tensor:
#      x y z
#    x 1.886360 0.000000 0.000000 
#    y 0.000000 1.894200 0.000000 
#    z 0.000000 0.000000 1.843350 
# 
# From -- ./inp_files/27537.got.cif
#   From: 2010.03.12/outbox.cif.g09.slc.cpg/sg72_14_cif.got.tgz:27537.got - 2010.04.16 14:54:00.
