data_PCOD8293498
_publ_section_title
;
Structure prediction by ZEFSAII (Michael W. Deem and Ramdas Pophale) SiO2 
 PCOD8293498
Probable space group: I B A M
;
_chemical_formula_sum "Si O2"
_cell_formula_units_Z 80
_cell_length_a 12.871497
_cell_length_b 17.931629
_cell_length_c 17.283115
_cell_angle_alpha 90.000000
_cell_angle_beta 90.000000
_cell_angle_gamma 90.000000
_cell_volume 3989.062349
_symmetry_space_group_name_H-M "I B A M"
_symmetry_group_IT_number 72
_symmetry_cell_setting 'orthorhombic'
loop_
_space_group_symop_operation_xyz
x,y,z
-x,-y,z
x,-y,1/2-z
-x,y,1/2-z
-x,-y,-z
x,y,-z
-x,y,1/2+z
x,-y,1/2+z
1/2+x,1/2+y,1/2+z
1/2-x,1/2-y,1/2+z
1/2+x,1/2-y,-z
1/2-x,1/2+y,-z
1/2-x,1/2-y,1/2-z
1/2+x,1/2+y,1/2-z
1/2-x,1/2+y,z
1/2+x,1/2-y,z
loop_
_atom_site_type_symbol
_atom_site_label
_atom_site_fract_x
_atom_site_fract_y
_atom_site_fract_z
Si Si1 0.117125 0.973692 0.910807
Si Si2 0.433909 0.802615 0.587059
Si Si3 0.877510 0.251238 0.681815
Si Si4 0.728623 0.622408 0.409859
Si Si5 0.835601 0.178265 0.164876
O O1 0.139986 0.907665 0.850597
O O2 0.195087 0.039536 0.885711
O O3 0.136935 0.949648 0.000000
O O4 0.000000 0.000000 0.899570
O O5 0.474532 0.816728 0.500000
O O6 0.529560 0.800230 0.646136
O O7 0.350084 0.865946 0.612996
O O8 0.370041 0.724411 0.588830
O O9 0.848618 0.181564 0.628317
O O10 0.903878 0.215334 0.765602
O O11 0.784395 0.311211 0.687624
O O12 0.712524 0.635080 0.500000
#
# Coordination Sequence:
#
# PCOD8293498 Si02
#       5
#    16  16  16  16  16
#     4  10  20  35  56  82 113 147 183 228 281 334
#     4  10  19  33  54  78 107 144 184 229 277 325
#     4  10  20  35  55  79 107 142 184 228 274 326
#     4   9  19  34  52  78 110 143 184 229 274 331
#     4  10  21  35  54  80 109 142 183 227 272 328
#
# _framework density 20.054836999999999
#
# number of rings (size 3 to 8) (size 9 to 14) (size 15 to 20)
#    0.000    2.200    0.000    3.000    0.000    4.800 
#    0.000    2.000    0.000    3.600    0.000    8.400 
#    0.000    0.000    0.000    0.000    0.000    1.200 
#
# Total GULP energy -495788.385017 kJ/mol
# GULP energy per Si atom -12394.709625 kJ/mol
# Density = 2.000919 g / cm^3
# Si number density = 20.054837 Si / 1000 Ang^3
#
#
#
# Elastic Constant Matrix: (Units=GPa)
#
#
# Indices 1 2 3 4 5 6 
#
# 1 110.4350 60.4606 48.1591 0.0000 0.0000 0.0000
# 2 60.4606 117.7624 44.9307 0.0000 0.0000 0.0000
# 3 48.1591 44.9307 75.6439 0.0000 0.0000 0.0000
# 4 0.0000 0.0000 0.0000 30.3965 0.0000 0.0000
# 5 0.0000 0.0000 0.0000 0.0000 34.5036 0.0000
# 6 0.0000 0.0000 0.0000 0.0000 0.0000 29.7457
#
#
#
# Elastic Compliance Matrix: (Units=1/GPa)
#
#
# Indices 1 2 3 4 5 6 
#
# 1 0.014570 -0.005096 -0.006249 0.000000 0.000000 0.000000
# 2 -0.005096 0.012763 -0.004336 0.000000 0.000000 0.000000
# 3 -0.006249 -0.004336 0.019774 0.000000 0.000000 0.000000
# 4 0.000000 0.000000 0.000000 0.032898 0.000000 0.000000
# 5 0.000000 0.000000 0.000000 0.000000 0.028982 0.000000
# 6 0.000000 0.000000 0.000000 0.000000 0.000000 0.033618
#
#
# Mechanical properties :
#
#
# Convention : Reuss Voigt Hill
#
# Bulk Modulus (GPa) = 63.51746 67.88246 65.69996
# Shear Modulus (GPa) = 27.89908 28.94855 28.42382
#
# Velocity S-wave (km/s) = 3.73384 3.80342 3.76879
# Velocity P-wave (km/s) = 7.09432 7.29452 7.19512
#
# Compressibility (1/GPa) = 0.01574370
#
# Stress axis : x y z
#
# Youngs Moduli (GPa) = 68.63214 78.35426 50.57153
#
# Poissons Ratio (x) = 0.39932 0.31603
# Poissons Ratio (y) = 0.34977 0.21928
# Poissons Ratio (z) = 0.42890 0.33975
#
# Static dielectric constant tensor:
#      x y z
#    x 3.758730 0.000000 0.000000 
#    y 0.000000 3.520730 0.000000 
#    z 0.000000 0.000000 3.689460 
# 
# 
# High freq. dielectric constant tensor:
#      x y z
#    x 1.789320 0.000000 0.000000 
#    y 0.000000 1.755300 0.000000 
#    z 0.000000 0.000000 1.787580 
# 
# From -- ./inp_files/30471.got.cif
#   From: 2010.03.12/outbox.cif.g09.slc.cpg/sg72_16_cif.got.tgz:30471.got - 2010.04.16 14:54:00.
