data_PCOD8293027
_publ_section_title
;
Structure prediction by ZEFSAII (Michael W. Deem and Ramdas Pophale) SiO2 
 PCOD8293027
Probable space group: I B A M
;
_chemical_formula_sum "Si O2"
_cell_formula_units_Z 112
_cell_length_a 22.055193
_cell_length_b 17.284478
_cell_length_c 18.360077
_cell_angle_alpha 90.000000
_cell_angle_beta 90.000000
_cell_angle_gamma 90.000000
_cell_volume 6999.090820
_symmetry_space_group_name_H-M "I B A M"
_symmetry_group_IT_number 72
_symmetry_cell_setting 'orthorhombic'
loop_
_space_group_symop_operation_xyz
x,y,z
-x,-y,z
x,-y,1/2-z
-x,y,1/2-z
-x,-y,-z
x,y,-z
-x,y,1/2+z
x,-y,1/2+z
1/2+x,1/2+y,1/2+z
1/2-x,1/2-y,1/2+z
1/2+x,1/2-y,-z
1/2-x,1/2+y,-z
1/2-x,1/2-y,1/2-z
1/2+x,1/2+y,1/2-z
1/2-x,1/2+y,z
1/2+x,1/2-y,z
loop_
_atom_site_type_symbol
_atom_site_label
_atom_site_fract_x
_atom_site_fract_y
_atom_site_fract_z
Si Si1 0.638557 0.362454 0.842521
Si Si2 0.651702 0.601364 0.178522
Si Si3 0.321212 0.202819 0.680867
Si Si4 0.930430 0.988454 0.915325
Si Si5 0.288496 0.040335 0.674879
Si Si6 0.734811 0.900397 0.083585
Si Si7 0.806436 0.260038 0.846491
O O1 0.628444 0.395896 0.761508
O O2 0.629650 0.268409 0.843319
O O3 0.588687 0.400636 0.895291
O O4 0.706020 0.385988 0.867236
O O5 0.609666 0.547008 0.130975
O O6 0.719971 0.570922 0.179453
O O7 0.647427 0.688113 0.143628
O O8 0.334423 0.113192 0.659660
O O9 0.260048 0.226225 0.640245
O O10 0.312207 0.203126 0.767130
O O11 0.918452 0.004096 0.000000
O O12 0.000000 0.000000 0.894508
O O13 0.307541 0.000000 0.750000
O O14 0.295998 0.980581 0.608425
O O15 0.686242 0.830334 0.095767
O O16 0.753841 0.906634 0.000000
#
# Coordination Sequence:
#
# PCOD8293027 Si02
#       7
#    16  16  16  16  16  16  16
#     4  10  18  32  46  64  85 118 158 194 227 266
#     4  10  18  30  50  65  85 118 160 193 225 264
#     4   8  15  26  44  63  83 114 154 183 219 267
#     4  11  23  35  47  66  91 121 155 193 239 278
#     4  11  15  26  45  66  92 123 152 182 217 268
#     4  11  19  26  40  65  95 124 152 183 226 269
#     4   8  15  27  41  62  85 115 150 186 219 265
#
# _framework density 16.002078000000001
#
# number of rings (size 3 to 8) (size 9 to 14) (size 15 to 20)
#    0.000    2.143    4.286    2.571    0.000    1.714 
#    0.000    6.429    0.000    0.000    0.000    0.000 
#    0.000    1.143    1.143    4.429    0.000    0.000 
#
# Total GULP energy -693837.322979 kJ/mol
# GULP energy per Si atom -12389.952196 kJ/mol
# Density = 1.596566 g / cm^3
# Si number density = 16.002078 Si / 1000 Ang^3
#
#
#
# Elastic Constant Matrix: (Units=GPa)
#
#
# Indices 1 2 3 4 5 6 
#
# 1 33.5250 27.8056 16.6846 0.0000 0.0000 0.0000
# 2 27.8056 141.9022 41.1151 0.0000 0.0000 0.0000
# 3 16.6846 41.1151 64.6133 0.0000 0.0000 0.0000
# 4 0.0000 0.0000 0.0000 19.0304 0.0000 0.0000
# 5 0.0000 0.0000 0.0000 0.0000 13.9806 0.0000
# 6 0.0000 0.0000 0.0000 0.0000 0.0000 10.9350
#
#
#
# Elastic Compliance Matrix: (Units=1/GPa)
#
#
# Indices 1 2 3 4 5 6 
#
# 1 0.037504 -0.005570 -0.006140 0.000000 0.000000 0.000000
# 2 -0.005570 0.009467 -0.004586 0.000000 0.000000 0.000000
# 3 -0.006140 -0.004586 0.019980 0.000000 0.000000 0.000000
# 4 0.000000 0.000000 0.000000 0.052548 0.000000 0.000000
# 5 0.000000 0.000000 0.000000 0.000000 0.071528 0.000000
# 6 0.000000 0.000000 0.000000 0.000000 0.000000 0.091450
#
#
# Mechanical properties :
#
#
# Convention : Reuss Voigt Hill
#
# Bulk Modulus (GPa) = 29.10393 45.69457 37.39925
# Shear Modulus (GPa) = 15.31291 19.08486 17.19888
#
# Velocity S-wave (km/s) = 3.09679 3.45722 3.28196
# Velocity P-wave (km/s) = 5.56901 6.67487 6.14686
#
# Compressibility (1/GPa) = 0.03435962
#
# Stress axis : x y z
#
# Youngs Moduli (GPa) = 26.66393 105.62716 50.04901
#
# Poissons Ratio (x) = 0.58832 0.30731
# Poissons Ratio (y) = 0.14851 0.22953
# Poissons Ratio (z) = 0.16372 0.48441
#
# Static dielectric constant tensor:
#      x y z
#    x 2.597520 0.000000 0.000000 
#    y 0.000000 3.763090 0.000000 
#    z 0.000000 0.000000 2.903020 
# 
# 
# High freq. dielectric constant tensor:
#      x y z
#    x 1.534700 0.000000 0.000000 
#    y 0.000000 1.640860 0.000000 
#    z 0.000000 0.000000 1.607680 
# 
# From -- ./inp_files/32876.got.cif
#   From: 2010.03.12/outbox.cif.g09.slc.cpg/sg72_17_cif.got.tgz:32876.got - 2010.04.16 14:54:00.
