data_PCOD8293259
_publ_section_title
;
Structure prediction by ZEFSAII (Michael W. Deem and Ramdas Pophale) SiO2 
 PCOD8293259
Probable space group: I B A M
;
_chemical_formula_sum "Si O2"
_cell_formula_units_Z 68
_cell_length_a 36.139076
_cell_length_b 5.200155
_cell_length_c 21.613579
_cell_angle_alpha 90.000000
_cell_angle_beta 90.000000
_cell_angle_gamma 90.000000
_cell_volume 4061.813895
_symmetry_space_group_name_H-M "I B A M"
_symmetry_group_IT_number 72
_symmetry_cell_setting 'orthorhombic'
loop_
_space_group_symop_operation_xyz
x,y,z
-x,-y,z
x,-y,1/2-z
-x,y,1/2-z
-x,-y,-z
x,y,-z
-x,y,1/2+z
x,-y,1/2+z
1/2+x,1/2+y,1/2+z
1/2-x,1/2-y,1/2+z
1/2+x,1/2-y,-z
1/2-x,1/2+y,-z
1/2-x,1/2-y,1/2-z
1/2+x,1/2+y,1/2-z
1/2-x,1/2+y,z
1/2+x,1/2-y,z
loop_
_atom_site_type_symbol
_atom_site_label
_atom_site_fract_x
_atom_site_fract_y
_atom_site_fract_z
Si Si1 0.477965 0.759944 0.631823
Si Si2 0.101979 0.750216 0.073482
Si Si3 0.500000 0.000000 0.250000
Si Si4 0.354503 0.248923 0.426570
Si Si5 0.271269 0.761734 0.926188
O O1 0.500000 0.500000 0.618154
O O2 0.437805 0.733450 0.603826
O O3 0.500000 0.000000 0.600178
O O4 0.474772 0.817712 0.705809
O O5 0.122735 0.496259 0.097645
O O6 0.125581 0.993362 0.096660
O O7 0.097308 0.749792 0.000000
O O8 0.352627 0.243571 0.500000
O O9 0.312951 0.240473 0.399659
O O10 0.249646 0.513107 0.900987
O O11 0.271868 0.760929 0.000000
#
# Coordination Sequence:
#
# PCOD8293259 Si02
#       5
#    16  16   4  16  16
#     4  10  20  34  51  68  88 116 153 186 234 272
#     4  10  19  30  45  66  93 124 151 185 228 269
#     4   8  22  36  52  68  86 112 150 194 238 268
#     4   9  17  28  40  60  92 123 154 187 222 261
#     4   9  15  23  37  56  80 118 161 188 208 246
#
# _framework density 16.741289999999999
#
# number of rings (size 3 to 8) (size 9 to 14) (size 15 to 20)
#    0.706    1.882    0.000    3.176    0.000    6.588 
#    0.000    0.000    0.000    0.000    0.000    0.000 
#    0.000    0.000    0.000   21.176    0.000    9.412 
#
# Total GULP energy -421428.250526 kJ/mol
# GULP energy per Si atom -12394.948545 kJ/mol
# Density = 1.670319 g / cm^3
# Si number density = 16.741290 Si / 1000 Ang^3
#
#
#
# Elastic Constant Matrix: (Units=GPa)
#
#
# Indices 1 2 3 4 5 6 
#
# 1 171.5609 86.0839 28.1249 0.0000 0.0000 0.0000
# 2 86.0839 170.5275 19.2865 0.0000 0.0000 0.0000
# 3 28.1249 19.2865 21.2461 0.0000 0.0000 0.0000
# 4 0.0000 0.0000 0.0000 3.5301 0.0000 0.0000
# 5 0.0000 0.0000 0.0000 0.0000 -4.0912 0.0000
# 6 0.0000 0.0000 0.0000 0.0000 0.0000 38.0049
#
#
#
# Elastic Compliance Matrix: (Units=1/GPa)
#
#
# Indices 1 2 3 4 5 6 
#
# 1 0.009061 -0.003585 -0.008739 0.000000 0.000000 0.000000
# 2 -0.003585 0.007954 -0.002474 0.000000 0.000000 0.000000
# 3 -0.008739 -0.002474 0.060882 0.000000 0.000000 0.000000
# 4 0.000000 0.000000 0.000000 0.283281 0.000000 0.000000
# 5 0.000000 0.000000 0.000000 0.000000 -0.244426 0.000000
# 6 0.000000 0.000000 0.000000 0.000000 0.000000 0.026312
#
#
# Mechanical properties :
#
#
# Convention : Reuss Voigt Hill
#
# Bulk Modulus (GPa) = 20.70432 70.03612 45.37022
# Shear Modulus (GPa) = 26.48837 22.81136 24.64986
#
# Velocity S-wave (km/s) = 3.98203 3.69532 3.84135
# Velocity P-wave (km/s) = 5.79104 7.75451 6.84355
#
# Compressibility (1/GPa) = 0.04829911
#
# Stress axis : x y z
#
# Youngs Moduli (GPa) = 110.36805 125.72379 16.42516
#
# Poissons Ratio (x) = 0.45078 0.14355
# Poissons Ratio (y) = 0.39572 0.04064
# Poissons Ratio (z) = 0.96454 0.31104
#
# Static dielectric constant tensor:
#      x y z
#    x 3.248200 0.000000 0.000000 
#    y 0.000000 3.579370 0.000000 
#    z 0.000000 0.000000 2.517210 
# 
# 
# High freq. dielectric constant tensor:
#      x y z
#    x 1.656060 0.000000 0.000000 
#    y 0.000000 1.670490 0.000000 
#    z 0.000000 0.000000 1.564810 
# 
# From -- ./inp_files/34925.got.cif
#   From: 2010.03.12/outbox.cif.g09.slc.cpg/sg72_18_cif.got.tgz:34925.got - 2010.04.16 14:54:00.
