data_PCOD8293429
_publ_section_title
;
Structure prediction by ZEFSAII (Michael W. Deem and Ramdas Pophale) SiO2 
 PCOD8293429
Probable space group: I B A M
;
_chemical_formula_sum "Si O2"
_cell_formula_units_Z 112
_cell_length_a 24.950438
_cell_length_b 12.478377
_cell_length_c 19.009470
_cell_angle_alpha 90.000000
_cell_angle_beta 90.000000
_cell_angle_gamma 90.000000
_cell_volume 5918.426861
_symmetry_space_group_name_H-M "I B A M"
_symmetry_group_IT_number 72
_symmetry_cell_setting 'orthorhombic'
loop_
_space_group_symop_operation_xyz
x,y,z
-x,-y,z
x,-y,1/2-z
-x,y,1/2-z
-x,-y,-z
x,y,-z
-x,y,1/2+z
x,-y,1/2+z
1/2+x,1/2+y,1/2+z
1/2-x,1/2-y,1/2+z
1/2+x,1/2-y,-z
1/2-x,1/2+y,-z
1/2-x,1/2-y,1/2-z
1/2+x,1/2+y,1/2-z
1/2-x,1/2+y,z
1/2+x,1/2-y,z
loop_
_atom_site_type_symbol
_atom_site_label
_atom_site_fract_x
_atom_site_fract_y
_atom_site_fract_z
Si Si1 0.616502 0.118843 0.830234
Si Si2 0.317766 0.295256 0.083829
Si Si3 0.001891 0.705409 0.669353
Si Si4 0.647448 0.526572 0.581900
Si Si5 0.464526 0.396493 0.578125
Si Si6 0.613796 0.124739 0.332134
Si Si7 0.801580 0.757099 0.918369
O O1 0.553917 0.134520 0.848107
O O2 0.626884 0.148933 0.749116
O O3 0.652527 0.195581 0.876890
O O4 0.631165 0.996684 0.848738
O O5 0.335454 0.411754 0.113742
O O6 0.353504 0.204246 0.118636
O O7 0.256569 0.279097 0.107832
O O8 0.323455 0.285539 0.000000
O O9 0.002684 0.812516 0.623819
O O10 0.000000 0.741720 0.750000
O O11 0.949223 0.636953 0.651108
O O12 0.637057 0.507215 0.500000
O O13 0.592037 0.571680 0.614818
O O14 0.693493 0.615004 0.595300
O O15 0.500000 0.500000 0.571924
O O16 0.454401 0.348050 0.500000
O O17 0.809964 0.729914 0.000000
#
# Coordination Sequence:
#
# PCOD8293429 Si02
#       7
#    16  16  16  16  16  16  16
#     4  10  21  39  59  82 115 151 189 233 281 339
#     4  10  22  38  59  86 116 149 190 236 283 336
#     4  10  20  36  57  82 112 148 188 231 279 337
#     4   9  18  35  55  81 114 146 181 227 285 336
#     4  10  19  32  54  80 112 149 183 226 283 340
#     4  10  22  38  58  84 115 151 188 231 286 335
#     4  10  21  37  61  85 110 148 193 236 282 337
#
# _framework density 18.923947999999999
#
# number of rings (size 3 to 8) (size 9 to 14) (size 15 to 20)
#    0.000    2.143    1.429    1.286    2.000    4.857 
#    0.000    0.714    0.000    2.571    0.000    0.000 
#    0.000    0.000    0.000    0.000    0.000    0.000 
#
# Total GULP energy -694394.793719 kJ/mol
# GULP energy per Si atom -12399.907031 kJ/mol
# Density = 1.888088 g / cm^3
# Si number density = 18.923948 Si / 1000 Ang^3
#
#
#
# Elastic Constant Matrix: (Units=GPa)
#
#
# Indices 1 2 3 4 5 6 
#
# 1 107.2108 40.2817 37.5317 0.0000 0.0000 0.0000
# 2 40.2817 114.6129 41.3799 0.0000 0.0000 0.0000
# 3 37.5317 41.3799 49.3136 0.0000 0.0000 0.0000
# 4 0.0000 0.0000 0.0000 20.5350 0.0000 0.0000
# 5 0.0000 0.0000 0.0000 0.0000 27.9237 0.0000
# 6 0.0000 0.0000 0.0000 0.0000 0.0000 33.7648
#
#
#
# Elastic Compliance Matrix: (Units=1/GPa)
#
#
# Indices 1 2 3 4 5 6 
#
# 1 0.012873 -0.001416 -0.008609 0.000000 0.000000 0.000000
# 2 -0.001416 0.012673 -0.009556 0.000000 0.000000 0.000000
# 3 -0.008609 -0.009556 0.034850 0.000000 0.000000 0.000000
# 4 0.000000 0.000000 0.000000 0.048697 0.000000 0.000000
# 5 0.000000 0.000000 0.000000 0.000000 0.035812 0.000000
# 6 0.000000 0.000000 0.000000 0.000000 0.000000 0.029617
#
#
# Mechanical properties :
#
#
# Convention : Reuss Voigt Hill
#
# Bulk Modulus (GPa) = 47.09791 56.61378 51.85584
# Shear Modulus (GPa) = 22.64872 26.57431 24.61151
#
# Velocity S-wave (km/s) = 3.46327 3.75142 3.61022
# Velocity P-wave (km/s) = 6.39800 6.98181 6.69627
#
# Compressibility (1/GPa) = 0.02123237
#
# Stress axis : x y z
#
# Youngs Moduli (GPa) = 77.67940 78.90826 28.69465
#
# Poissons Ratio (x) = 0.11174 0.24704
# Poissons Ratio (y) = 0.11000 0.27421
# Poissons Ratio (z) = 0.66877 0.75407
#
# Static dielectric constant tensor:
#      x y z
#    x 3.633720 0.000000 0.000000 
#    y 0.000000 3.543170 0.000000 
#    z 0.000000 0.000000 3.333090 
# 
# 
# High freq. dielectric constant tensor:
#      x y z
#    x 1.744670 0.000000 0.000000 
#    y 0.000000 1.744140 0.000000 
#    z 0.000000 0.000000 1.710370 
# 
# From -- ./inp_files/40358.got.cif
#   From: 2010.03.12/outbox.cif.g09.slc.cpg/sg72_21_cif.got.tgz:40358.got - 2010.04.16 14:54:00.
