data_PCOD8293800
_publ_section_title
;
Structure prediction by ZEFSAII (Michael W. Deem and Ramdas Pophale) SiO2 
 PCOD8293800
Probable space group: I B A M
;
_chemical_formula_sum "Si O2"
_cell_formula_units_Z 112
_cell_length_a 13.606003
_cell_length_b 24.211708
_cell_length_c 17.819591
_cell_angle_alpha 90.000000
_cell_angle_beta 90.000000
_cell_angle_gamma 90.000000
_cell_volume 5870.211133
_symmetry_space_group_name_H-M "I B A M"
_symmetry_group_IT_number 72
_symmetry_cell_setting 'orthorhombic'
loop_
_space_group_symop_operation_xyz
x,y,z
-x,-y,z
x,-y,1/2-z
-x,y,1/2-z
-x,-y,-z
x,y,-z
-x,y,1/2+z
x,-y,1/2+z
1/2+x,1/2+y,1/2+z
1/2-x,1/2-y,1/2+z
1/2+x,1/2-y,-z
1/2-x,1/2+y,-z
1/2-x,1/2-y,1/2-z
1/2+x,1/2+y,1/2-z
1/2-x,1/2+y,z
1/2+x,1/2-y,z
loop_
_atom_site_type_symbol
_atom_site_label
_atom_site_fract_x
_atom_site_fract_y
_atom_site_fract_z
Si Si1 0.200531 0.328740 0.807424
Si Si2 0.191705 0.181351 0.080427
Si Si3 0.205646 0.055131 0.284062
Si Si4 0.570019 0.447803 0.584089
Si Si5 0.563133 0.382816 0.186850
Si Si6 0.646031 0.237386 0.337695
Si Si7 0.446542 0.784054 0.083146
O O1 0.222293 0.392010 0.784091
O O2 0.302763 0.298155 0.831415
O O3 0.150415 0.293806 0.741409
O O4 0.118579 0.330348 0.873646
O O5 0.156629 0.147950 0.153151
O O6 0.300768 0.200966 0.098870
O O7 0.122416 0.232699 0.070614
O O8 0.193360 0.148688 0.000000
O O9 0.169496 0.042452 0.368768
O O10 0.108329 0.065269 0.232797
O O11 0.258387 0.000000 0.250000
O O12 0.500000 0.500000 0.584425
O O13 0.602160 0.431896 0.500000
O O14 0.507887 0.397451 0.618232
O O15 0.500000 0.348364 0.250000
O O16 0.534917 0.240027 0.366376
O O17 0.478716 0.806172 0.000000
#
# Coordination Sequence:
#
# PCOD8293800 Si02
#       7
#    16  16  16  16  16  16  16
#     4  10  22  37  59  85 114 149 196 236 285 351
#     4  10  20  34  53  83 114 144 186 227 279 352
#     4  11  21  37  56  81 112 155 197 244 287 338
#     4  10  20  33  50  77 113 153 189 227 279 343
#     4  10  20  31  52  76 113 150 184 225 278 337
#     4  10  20  37  58  84 112 147 185 236 294 350
#     4  10  22  37  56  83 118 152 186 238 294 347
#
# _framework density 19.079381999999999
#
# number of rings (size 3 to 8) (size 9 to 14) (size 15 to 20)
#    0.000    1.857    2.857    1.286    4.000    1.143 
#    0.000    0.000    0.000    1.714    0.000    1.000 
#    0.000    0.000    0.000    0.000    0.000    0.000 
#
# Total GULP energy -693919.214018 kJ/mol
# GULP energy per Si atom -12391.414536 kJ/mol
# Density = 1.903596 g / cm^3
# Si number density = 19.079382 Si / 1000 Ang^3
#
#
#
# Elastic Constant Matrix: (Units=GPa)
#
#
# Indices 1 2 3 4 5 6 
#
# 1 56.1663 7.8979 20.5443 0.0000 -0.0001 0.0000
# 2 7.8979 64.8126 24.2283 0.0001 0.0000 0.0000
# 3 20.5443 24.2283 120.8110 0.0002 0.0002 0.0000
# 4 0.0000 0.0001 0.0002 26.8351 0.0002 0.0000
# 5 -0.0001 0.0000 0.0002 0.0002 252.9003 0.0000
# 6 0.0000 0.0000 0.0000 0.0000 0.0000 10.2071
#
#
#
# Elastic Compliance Matrix: (Units=1/GPa)
#
#
# Indices 1 2 3 4 5 6 
#
# 1 0.019071 -0.001202 -0.003002 0.000000 0.000000 0.000000
# 2 -0.001202 0.016755 -0.003156 0.000000 0.000000 0.000000
# 3 -0.003002 -0.003156 0.009421 0.000000 0.000000 0.000000
# 4 0.000000 0.000000 0.000000 0.037265 0.000000 0.000000
# 5 0.000000 0.000000 0.000000 0.000000 0.003954 0.000000
# 6 0.000000 0.000000 0.000000 0.000000 0.000000 0.097971
#
#
# Mechanical properties :
#
#
# Convention : Reuss Voigt Hill
#
# Bulk Modulus (GPa) = 32.75681 38.57009 35.66345
# Shear Modulus (GPa) = 23.88538 70.59644 47.24091
#
# Velocity S-wave (km/s) = 3.54205 6.08948 4.98136
# Velocity P-wave (km/s) = 5.82530 8.34876 7.19847
#
# Compressibility (1/GPa) = 0.03052800
#
# Stress axis : x y z
#
# Youngs Moduli (GPa) = 52.43458 59.68267 106.14782
#
# Poissons Ratio (x) = 0.07172 0.31867
# Poissons Ratio (y) = 0.06301 0.33499
# Poissons Ratio (z) = 0.15742 0.18835
#
# Static dielectric constant tensor:
#      x y z
#    x 3.363050 0.000000 0.000000 
#    y 0.000000 3.179930 0.000000 
#    z 0.000000 0.000000 4.269230 
# 
# 
# High freq. dielectric constant tensor:
#      x y z
#    x 1.716440 0.000000 0.000000 
#    y 0.000000 1.704120 0.000000 
#    z 0.000000 0.000000 1.768140 
# 
# From -- ./inp_files/22321.got.cif
#   From: 2010.03.12/outbox.cif.g09.slc.cpg/sg72_12_cif.got.tgz:22321.got - 2010.04.16 14:54:00.
