data_PCOD8293125
_publ_section_title
;
Structure prediction by ZEFSAII (Michael W. Deem and Ramdas Pophale) SiO2 
 PCOD8293125
Probable space group: I B A M
;
_chemical_formula_sum "Si O2"
_cell_formula_units_Z 128
_cell_length_a 21.604706
_cell_length_b 18.285372
_cell_length_c 18.662409
_cell_angle_alpha 90.000000
_cell_angle_beta 90.000000
_cell_angle_gamma 90.000000
_cell_volume 7372.586283
_symmetry_space_group_name_H-M "I B A M"
_symmetry_group_IT_number 72
_symmetry_cell_setting 'orthorhombic'
loop_
_space_group_symop_operation_xyz
x,y,z
-x,-y,z
x,-y,1/2-z
-x,y,1/2-z
-x,-y,-z
x,y,-z
-x,y,1/2+z
x,-y,1/2+z
1/2+x,1/2+y,1/2+z
1/2-x,1/2-y,1/2+z
1/2+x,1/2-y,-z
1/2-x,1/2+y,-z
1/2-x,1/2-y,1/2-z
1/2+x,1/2+y,1/2-z
1/2-x,1/2+y,z
1/2+x,1/2-y,z
loop_
_atom_site_type_symbol
_atom_site_label
_atom_site_fract_x
_atom_site_fract_y
_atom_site_fract_z
Si Si1 0.067908 0.388799 0.335391
Si Si2 0.703043 0.377744 0.918709
Si Si3 0.928545 0.356054 0.322216
Si Si4 0.168386 0.305972 0.581327
Si Si5 0.381126 0.023955 0.582483
Si Si6 0.838517 0.769557 0.193511
Si Si7 0.739311 0.534714 0.081313
Si Si8 0.782744 0.820751 0.663491
O O1 0.081045 0.401323 0.251356
O O2 0.113719 0.328010 0.366035
O O3 0.076207 0.465633 0.375894
O O4 0.999923 0.354941 0.345628
O O5 0.773939 0.358048 0.901727
O O6 0.658388 0.331529 0.867556
O O7 0.695034 0.464632 0.905847
O O8 0.686187 0.356366 0.000000
O O9 0.891097 0.395487 0.385464
O O10 0.903637 0.273446 0.310170
O O11 0.145599 0.314192 0.500000
O O12 0.188014 0.222843 0.596842
O O13 0.401696 0.022908 0.500000
O O14 0.309107 0.005504 0.591316
O O15 0.827771 0.811645 0.268289
O O16 0.785202 0.709240 0.181866
O O17 0.721628 0.595034 0.140052
O O18 0.731469 0.564997 0.000000
#
# Coordination Sequence:
#
# PCOD8293125 Si02
#       8
#    16  16  16  16  16  16  16  16
#     4  11  22  37  54  72 103 149 182 220 266 311
#     4   9  19  33  51  75 108 141 171 215 272 322
#     4  11  23  38  52  72 107 144 183 226 268 311
#     4  10  18  32  53  76 103 138 179 221 260 316
#     4  11  22  35  52  77 109 144 186 220 252 314
#     4  10  20  34  51  77 104 139 180 225 269 320
#     4  10  19  33  52  78 109 143 173 216 275 326
#     4  10  19  32  52  76 104 137 178 222 271 325
#
# _framework density 17.361615
#
# number of rings (size 3 to 8) (size 9 to 14) (size 15 to 20)
#    0.000    1.750    3.750    1.500    0.000    4.000 
#    2.250    0.000    0.000    0.000    0.000    0.875 
#    0.000    3.000    0.000    0.000    0.000    0.000 
#
# Total GULP energy -793610.106056 kJ/mol
# GULP energy per Si atom -12400.157907 kJ/mol
# Density = 1.732210 g / cm^3
# Si number density = 17.361615 Si / 1000 Ang^3
#
#
#
# Elastic Constant Matrix: (Units=GPa)
#
#
# Indices 1 2 3 4 5 6 
#
# 1 48.3134 31.3951 31.2747 0.0000 0.0000 0.0000
# 2 31.3951 99.5377 53.5842 0.0000 0.0000 0.0000
# 3 31.2747 53.5842 96.4158 0.0000 0.0000 0.0000
# 4 0.0000 0.0000 0.0000 35.2975 0.0000 0.0000
# 5 0.0000 0.0000 0.0000 0.0000 22.3681 0.0000
# 6 0.0000 0.0000 0.0000 0.0000 0.0000 26.6114
#
#
#
# Elastic Compliance Matrix: (Units=1/GPa)
#
#
# Indices 1 2 3 4 5 6 
#
# 1 0.028286 -0.005682 -0.006017 0.000000 0.000000 0.000000
# 2 -0.005682 0.015477 -0.006758 0.000000 0.000000 0.000000
# 3 -0.006017 -0.006758 0.016080 0.000000 0.000000 0.000000
# 4 0.000000 0.000000 0.000000 0.028331 0.000000 0.000000
# 5 0.000000 0.000000 0.000000 0.000000 0.044707 0.000000
# 6 0.000000 0.000000 0.000000 0.000000 0.000000 0.037578
#
#
# Mechanical properties :
#
#
# Convention : Reuss Voigt Hill
#
# Bulk Modulus (GPa) = 43.61725 52.97499 48.29612
# Shear Modulus (GPa) = 23.25419 25.38959 24.32189
#
# Velocity S-wave (km/s) = 3.66376 3.82828 3.74692
# Velocity P-wave (km/s) = 6.56314 7.07954 6.82623
#
# Compressibility (1/GPa) = 0.02292671
#
# Stress axis : x y z
#
# Youngs Moduli (GPa) = 35.35346 64.61238 62.19097
#
# Poissons Ratio (x) = 0.36715 0.37421
# Poissons Ratio (y) = 0.20089 0.42030
# Poissons Ratio (z) = 0.21272 0.43667
#
# Static dielectric constant tensor:
#      x y z
#    x 2.933790 0.000000 0.000000 
#    y 0.000000 3.166300 0.000000 
#    z 0.000000 0.000000 3.385500 
# 
# 
# High freq. dielectric constant tensor:
#      x y z
#    x 1.631160 0.000000 0.000000 
#    y 0.000000 1.662810 0.000000 
#    z 0.000000 0.000000 1.685540 
# 
# From -- ./inp_files/33550.got.cif
#   From: 2010.03.12/outbox.cif.g09.slc.cpg/sg72_17_cif.got.tgz:33550.got - 2010.04.16 14:54:00.
