data_PCOD8293902
_publ_section_title
;
Structure prediction by ZEFSAII (Michael W. Deem and Ramdas Pophale) SiO2 
 PCOD8293902
Probable space group: I B A M
;
_chemical_formula_sum "Si O2"
_cell_formula_units_Z 80
_cell_length_a 18.014381
_cell_length_b 27.027352
_cell_length_c 8.848346
_cell_angle_alpha 90.000000
_cell_angle_beta 90.000000
_cell_angle_gamma 90.000000
_cell_volume 4308.091693
_symmetry_space_group_name_H-M "I B A M"
_symmetry_group_IT_number 72
_symmetry_cell_setting 'orthorhombic'
loop_
_space_group_symop_operation_xyz
x,y,z
-x,-y,z
x,-y,1/2-z
-x,y,1/2-z
-x,-y,-z
x,y,-z
-x,y,1/2+z
x,-y,1/2+z
1/2+x,1/2+y,1/2+z
1/2-x,1/2-y,1/2+z
1/2+x,1/2-y,-z
1/2-x,1/2+y,-z
1/2-x,1/2-y,1/2-z
1/2+x,1/2+y,1/2-z
1/2-x,1/2+y,z
1/2+x,1/2-y,z
loop_
_atom_site_type_symbol
_atom_site_label
_atom_site_fract_x
_atom_site_fract_y
_atom_site_fract_z
Si Si1 0.576165 0.584582 0.325386
Si Si2 0.576828 0.210684 0.677053
Si Si3 0.214965 0.354367 0.322239
Si Si4 0.274325 0.550414 0.320917
Si Si5 0.868178 0.192602 0.671421
O O1 0.500000 0.566683 0.250000
O O2 0.578694 0.568356 0.500000
O O3 0.642460 0.557943 0.238536
O O4 0.582930 0.643552 0.309477
O O5 0.500000 0.193474 0.750000
O O6 0.566832 0.208977 0.500000
O O7 0.640218 0.172697 0.730273
O O8 0.597942 0.266337 0.720341
O O9 0.217316 0.366558 0.500000
O O10 0.220538 0.405383 0.231380
O O11 0.283507 0.318523 0.280463
O O12 0.242083 0.500000 0.250000
O O13 0.274671 0.547115 0.500000
O O14 0.871662 0.212316 0.500000
#
# Coordination Sequence:
#
# PCOD8293902 Si02
#       5
#    16  16  16  16  16
#     4  10  20  34  51  76 110 145 181 220 259 304
#     4  11  22  34  52  78 110 143 176 215 260 309
#     4   9  20  38  56  77 105 138 176 220 262 307
#     4  11  22  37  58  80 102 133 172 217 267 319
#     4   9  18  33  53  76 106 142 180 217 254 301
#
# _framework density 18.569707000000001
#
# number of rings (size 3 to 8) (size 9 to 14) (size 15 to 20)
#    0.000    2.000    0.000    5.400    0.000    7.600 
#    0.000    2.000    0.000    0.600    0.000    4.200 
#    0.000    0.000    0.000    0.000    0.000    0.000 
#
# Total GULP energy -496163.427384 kJ/mol
# GULP energy per Si atom -12404.085685 kJ/mol
# Density = 1.852744 g / cm^3
# Si number density = 18.569707 Si / 1000 Ang^3
#
#
#
# Elastic Constant Matrix: (Units=GPa)
#
#
# Indices 1 2 3 4 5 6 
#
# 1 79.1656 17.6875 17.4539 0.0000 0.0000 0.0000
# 2 17.6875 69.9012 26.9734 0.0000 0.0000 0.0000
# 3 17.4539 26.9734 83.2739 0.0002 0.0002 0.0000
# 4 0.0000 0.0000 0.0002 28.9652 0.0000 0.0000
# 5 0.0000 0.0000 0.0002 0.0000 29.4115 0.0000
# 6 0.0000 0.0000 0.0000 0.0000 0.0000 9.4542
#
#
#
# Elastic Compliance Matrix: (Units=1/GPa)
#
#
# Indices 1 2 3 4 5 6 
#
# 1 0.013672 -0.002690 -0.001994 0.000000 0.000000 0.000000
# 2 -0.002690 0.016879 -0.004903 0.000000 0.000000 0.000000
# 3 -0.001994 -0.004903 0.014015 0.000000 0.000000 0.000000
# 4 0.000000 0.000000 0.000000 0.034524 0.000000 0.000000
# 5 0.000000 0.000000 0.000000 0.000000 0.034000 0.000000
# 6 0.000000 0.000000 0.000000 0.000000 0.000000 0.105773
#
#
# Mechanical properties :
#
#
# Convention : Reuss Voigt Hill
#
# Bulk Modulus (GPa) = 39.38491 39.61891 39.50191
# Shear Modulus (GPa) = 20.28379 24.91457 22.59918
#
# Velocity S-wave (km/s) = 3.30859 3.66687 3.49233
# Velocity P-wave (km/s) = 5.98757 6.26972 6.13027
#
# Compressibility (1/GPa) = 0.02539043
#
# Stress axis : x y z
#
# Youngs Moduli (GPa) = 73.13963 59.24629 71.35290
#
# Poissons Ratio (x) = 0.15937 0.14230
# Poissons Ratio (y) = 0.19675 0.34987
# Poissons Ratio (z) = 0.14587 0.29051
#
# Static dielectric constant tensor:
#      x y z
#    x 3.431160 0.000000 0.000000 
#    y 0.000000 3.379990 0.000000 
#    z 0.000000 0.000000 3.405840 
# 
# 
# High freq. dielectric constant tensor:
#      x y z
#    x 1.708910 0.000000 0.000000 
#    y 0.000000 1.714640 0.000000 
#    z 0.000000 0.000000 1.728170 
# 
# From -- ./inp_files/4761.got.cif
#   From: 2010.03.12/outbox.cif.g09.slc.cpg/sg72_3_cif.got.tgz:4761.got - 2010.04.16 14:54:00.
