data_PCOD8293992
_publ_section_title
;
Structure prediction by ZEFSAII (Michael W. Deem and Ramdas Pophale) SiO2 
 PCOD8293992
Probable space group: I B A M
;
_chemical_formula_sum "Si O2"
_cell_formula_units_Z 104
_cell_length_a 25.421177
_cell_length_b 10.125958
_cell_length_c 20.853272
_cell_angle_alpha 90.000000
_cell_angle_beta 90.000000
_cell_angle_gamma 90.000000
_cell_volume 5367.919375
_symmetry_space_group_name_H-M "I B A M"
_symmetry_group_IT_number 72
_symmetry_cell_setting 'orthorhombic'
loop_
_space_group_symop_operation_xyz
x,y,z
-x,-y,z
x,-y,1/2-z
-x,y,1/2-z
-x,-y,-z
x,y,-z
-x,y,1/2+z
x,-y,1/2+z
1/2+x,1/2+y,1/2+z
1/2-x,1/2-y,1/2+z
1/2+x,1/2-y,-z
1/2-x,1/2+y,-z
1/2-x,1/2-y,1/2-z
1/2+x,1/2+y,1/2-z
1/2-x,1/2+y,z
1/2+x,1/2-y,z
loop_
_atom_site_type_symbol
_atom_site_label
_atom_site_fract_x
_atom_site_fract_y
_atom_site_fract_z
Si Si1 0.698871 0.498968 0.178036
Si Si2 0.354025 0.374732 0.500000
Si Si3 0.634368 0.733111 0.632445
Si Si4 0.230817 0.619512 0.000000
Si Si5 0.690837 0.005699 0.369868
Si Si6 0.138547 0.813630 0.000000
Si Si7 0.369914 0.264466 0.862215
Si Si8 0.060511 0.844111 0.747610
O O1 0.676824 0.500000 0.250000
O O2 0.685281 0.355865 0.149224
O O3 0.761122 0.523412 0.178103
O O4 0.670496 0.613301 0.138186
O O5 0.383508 0.311306 0.561395
O O6 0.291889 0.340295 0.500000
O O7 0.361608 0.530095 0.500000
O O8 0.650517 0.885095 0.631029
O O9 0.587362 0.712084 0.683182
O O10 0.215711 0.529821 0.939463
O O11 0.198222 0.756503 0.000000
O O12 0.659917 0.131471 0.343043
O O13 0.108904 0.759200 0.935959
O O14 0.416382 0.280930 0.812030
O O15 0.000000 0.802675 0.750000
O O16 0.068344 0.000000 0.750000
#
# Coordination Sequence:
#
# PCOD8293992 Si02
#       8
#    16   8  16   8  16   8  16  16
#     4  12  22  36  55  85 124 164 201 238 292 353
#     4  12  21  32  62  84 125 157 210 242 280 356
#     4  12  23  39  58  91 121 162 206 251 297 360
#     4  10  21  36  49  87 125 176 188 229 299 358
#     4  11  25  34  57  87 133 162 198 240 296 367
#     4  10  20  34  59  81 117 156 202 235 279 353
#     4  11  21  41  58  88 119 160 203 242 302 364
#     4  11  23  45  69  87 114 155 206 269 326 356
#
# _framework density 19.374359999999999
#
# number of rings (size 3 to 8) (size 9 to 14) (size 15 to 20)
#    0.000    0.769    6.154    1.385    6.462    1.231 
#    0.000    2.308    0.000    2.769    0.000    4.308 
#    0.000    0.000    0.000    0.000    0.000    0.000 
#
# Total GULP energy -644920.152988 kJ/mol
# GULP energy per Si atom -12402.310634 kJ/mol
# Density = 1.933026 g / cm^3
# Si number density = 19.374360 Si / 1000 Ang^3
#
#
#
# Elastic Constant Matrix: (Units=GPa)
#
#
# Indices 1 2 3 4 5 6 
#
# 1 105.0625 36.1064 56.3504 0.0000 0.0000 0.0000
# 2 36.1064 90.6991 24.1944 0.0000 0.0000 0.0000
# 3 56.3504 24.1944 151.1426 0.0000 0.0000 0.0000
# 4 0.0000 0.0000 0.0000 20.8620 0.0000 0.0000
# 5 0.0000 0.0000 0.0000 0.0000 17.8040 0.0000
# 6 0.0000 0.0000 0.0000 0.0000 0.0000 16.4189
#
#
#
# Elastic Compliance Matrix: (Units=1/GPa)
#
#
# Indices 1 2 3 4 5 6 
#
# 1 0.013227 -0.004126 -0.004271 0.000000 0.000000 0.000000
# 2 -0.004126 0.012804 -0.000511 0.000000 0.000000 0.000000
# 3 -0.004271 -0.000511 0.008290 0.000000 0.000000 0.000000
# 4 0.000000 0.000000 0.000000 0.047934 0.000000 0.000000
# 5 0.000000 0.000000 0.000000 0.000000 0.056167 0.000000
# 6 0.000000 0.000000 0.000000 0.000000 0.000000 0.060905
#
#
# Mechanical properties :
#
#
# Convention : Reuss Voigt Hill
#
# Bulk Modulus (GPa) = 60.58777 64.46739 62.52758
# Shear Modulus (GPa) = 22.45713 26.36720 24.41216
#
# Velocity S-wave (km/s) = 3.40827 3.69308 3.55353
# Velocity P-wave (km/s) = 6.84313 7.17858 7.01286
#
# Compressibility (1/GPa) = 0.01650498
#
# Stress axis : x y z
#
# Youngs Moduli (GPa) = 75.60373 78.09772 120.62114
#
# Poissons Ratio (x) = 0.32225 0.51516
# Poissons Ratio (y) = 0.31196 0.06168
# Poissons Ratio (z) = 0.32289 0.03993
#
# Static dielectric constant tensor:
#      x y z
#    x 3.200420 0.000000 0.000000 
#    y 0.000000 3.494120 0.000000 
#    z 0.000000 0.000000 3.903120 
# 
# 
# High freq. dielectric constant tensor:
#      x y z
#    x 1.707720 0.000000 0.000000 
#    y 0.000000 1.758070 0.000000 
#    z 0.000000 0.000000 1.779270 
# 
# From -- ./inp_files/36181.got.cif
#   From: 2010.03.12/outbox.cif.g09.slc.cpg/sg72_19_cif.got.tgz:36181.got - 2010.04.16 14:54:00.
