data_PCOD8293250
_publ_section_title
;
Structure prediction by ZEFSAII (Michael W. Deem and Ramdas Pophale) SiO2 
 PCOD8293250
Probable space group: I B A M
;
_chemical_formula_sum "Si O2"
_cell_formula_units_Z 56
_cell_length_a 21.008542
_cell_length_b 7.709612
_cell_length_c 17.341929
_cell_angle_alpha 90.000000
_cell_angle_beta 90.000000
_cell_angle_gamma 90.000000
_cell_volume 2808.832484
_symmetry_space_group_name_H-M "I B A M"
_symmetry_group_IT_number 72
_symmetry_cell_setting 'orthorhombic'
loop_
_space_group_symop_operation_xyz
x,y,z
-x,-y,z
x,-y,1/2-z
-x,y,1/2-z
-x,-y,-z
x,y,-z
-x,y,1/2+z
x,-y,1/2+z
1/2+x,1/2+y,1/2+z
1/2-x,1/2-y,1/2+z
1/2+x,1/2-y,-z
1/2-x,1/2+y,-z
1/2-x,1/2-y,1/2-z
1/2+x,1/2+y,1/2-z
1/2-x,1/2+y,z
1/2+x,1/2-y,z
loop_
_atom_site_type_symbol
_atom_site_label
_atom_site_fract_x
_atom_site_fract_y
_atom_site_fract_z
Si Si1 0.319837 0.796909 0.845731
Si Si2 0.214953 0.102733 0.000000
Si Si3 0.428746 0.009083 0.586166
Si Si4 0.275407 0.500000 0.750000
Si Si5 0.151058 0.274149 0.500000
O O1 0.390017 0.877604 0.852036
O O2 0.320684 0.655634 0.777373
O O3 0.267932 0.943289 0.823065
O O4 0.302346 0.714545 0.926432
O O5 0.177369 0.920239 0.000000
O O6 0.291647 0.082262 0.000000
O O7 0.430959 0.096660 0.500000
O O8 0.500000 0.000000 0.619629
O O9 0.392980 0.820465 0.575334
#
# Coordination Sequence:
#
# PCOD8293250 Si02
#       5
#    16   8  16   8   8
#     4  11  21  39  58  89 119 155 194 249 300 366
#     4  12  20  33  64  88 112 145 199 250 299 342
#     4   9  19  38  60  85 113 156 202 243 291 343
#     4  10  24  36  59  90 129 150 188 248 324 350
#     4  10  19  29  53  94 115 133 186 250 301 336
#
# _framework density 19.937107999999998
#
# number of rings (size 3 to 8) (size 9 to 14) (size 15 to 20)
#    0.857    0.857    1.429    5.143    0.000    2.286 
#    0.000    3.571    0.000    3.429    0.000    0.000 
#    0.000    0.000    0.000    0.000    0.000    0.000 
#
# Total GULP energy -346920.088683 kJ/mol
# GULP energy per Si atom -12390.003167 kJ/mol
# Density = 1.989173 g / cm^3
# Si number density = 19.937108 Si / 1000 Ang^3
#
#
#
# Elastic Constant Matrix: (Units=GPa)
#
#
# Indices 1 2 3 4 5 6 
#
# 1 162.4429 72.4986 54.5475 0.0000 0.0000 0.0000
# 2 72.4986 116.0885 42.0567 0.0000 0.0000 0.0000
# 3 54.5475 42.0567 69.8366 0.0000 0.0000 0.0000
# 4 0.0000 0.0000 0.0000 19.4487 0.0000 0.0000
# 5 0.0000 0.0000 0.0000 0.0000 28.7006 0.0000
# 6 0.0000 0.0000 0.0000 0.0000 0.0000 21.5679
#
#
#
# Elastic Compliance Matrix: (Units=1/GPa)
#
#
# Indices 1 2 3 4 5 6 
#
# 1 0.009755 -0.004261 -0.005053 0.000000 0.000000 0.000000
# 2 -0.004261 0.012879 -0.004428 0.000000 0.000000 0.000000
# 3 -0.005053 -0.004428 0.020932 0.000000 0.000000 0.000000
# 4 0.000000 0.000000 0.000000 0.051417 0.000000 0.000000
# 5 0.000000 0.000000 0.000000 0.000000 0.034842 0.000000
# 6 0.000000 0.000000 0.000000 0.000000 0.000000 0.046365
#
#
# Mechanical properties :
#
#
# Convention : Reuss Voigt Hill
#
# Bulk Modulus (GPa) = 62.17968 76.28593 69.23281
# Shear Modulus (GPa) = 23.91935 25.89447 24.90691
#
# Velocity S-wave (km/s) = 3.46748 3.60781 3.53834
# Velocity P-wave (km/s) = 6.87655 7.46334 7.17594
#
# Compressibility (1/GPa) = 0.01608242
#
# Stress axis : x y z
#
# Youngs Moduli (GPa) = 102.51652 77.64302 47.77315
#
# Poissons Ratio (x) = 0.33086 0.24139
# Poissons Ratio (y) = 0.43685 0.21153
# Poissons Ratio (z) = 0.51799 0.34379
#
# Static dielectric constant tensor:
#      x y z
#    x 3.617430 0.000000 0.000000 
#    y 0.000000 3.605270 0.000000 
#    z 0.000000 0.000000 3.524470 
# 
# 
# High freq. dielectric constant tensor:
#      x y z
#    x 1.762430 0.000000 0.000000 
#    y 0.000000 1.766680 0.000000 
#    z 0.000000 0.000000 1.768970 
# 
# From -- ./inp_files/32185.got.cif
#   From: 2010.03.12/outbox.cif.g09.slc.cpg/sg72_17_cif.got.tgz:32185.got - 2010.04.16 14:54:00.
