data_PCOD8293614
_publ_section_title
;
Structure prediction by ZEFSAII (Michael W. Deem and Ramdas Pophale) SiO2 
 PCOD8293614
Probable space group: I B A M
;
_chemical_formula_sum "Si O2"
_cell_formula_units_Z 116
_cell_length_a 11.854395
_cell_length_b 25.585263
_cell_length_c 19.729455
_cell_angle_alpha 90.000000
_cell_angle_beta 90.000000
_cell_angle_gamma 90.000000
_cell_volume 5983.900569
_symmetry_space_group_name_H-M "I B A M"
_symmetry_group_IT_number 72
_symmetry_cell_setting 'orthorhombic'
loop_
_space_group_symop_operation_xyz
x,y,z
-x,-y,z
x,-y,1/2-z
-x,y,1/2-z
-x,-y,-z
x,y,-z
-x,y,1/2+z
x,-y,1/2+z
1/2+x,1/2+y,1/2+z
1/2-x,1/2-y,1/2+z
1/2+x,1/2-y,-z
1/2-x,1/2+y,-z
1/2-x,1/2-y,1/2-z
1/2+x,1/2+y,1/2-z
1/2-x,1/2+y,z
1/2+x,1/2-y,z
loop_
_atom_site_type_symbol
_atom_site_label
_atom_site_fract_x
_atom_site_fract_y
_atom_site_fract_z
Si Si1 0.442441 0.356242 0.422842
Si Si2 0.309891 0.321351 0.922896
Si Si3 0.728888 0.208027 0.580760
Si Si4 0.500000 0.000000 0.750000
Si Si5 0.334745 0.082738 0.418932
Si Si6 0.581089 0.884344 0.920485
Si Si7 0.308916 0.972779 0.653900
Si Si8 0.938645 0.948350 0.181188
O O1 0.418693 0.374244 0.500000
O O2 0.556413 0.323708 0.417606
O O3 0.345084 0.318315 0.395505
O O4 0.452868 0.406900 0.377424
O O5 0.275630 0.266391 0.887319
O O6 0.250827 0.372658 0.891190
O O7 0.267264 0.320119 0.000000
O O8 0.722474 0.212392 0.500000
O O9 0.625202 0.171788 0.607531
O O10 0.584559 0.034514 0.704265
O O11 0.327740 0.073663 0.500000
O O12 0.457463 0.101217 0.393361
O O13 0.304010 0.029242 0.381337
O O14 0.673090 0.928647 0.902864
O O15 0.574855 0.880947 0.000000
O O16 0.193295 0.961292 0.694343
O O17 0.000000 0.928969 0.250000
O O18 0.000000 0.000000 0.154139
#
# Coordination Sequence:
#
# PCOD8293614 Si02
#       8
#    16  16  16   4  16  16  16  16
#     4  10  20  36  59  88 115 150 198 241 285 341
#     4   9  19  32  52  86 122 152 185 231 283 337
#     4   9  18  32  54  85 117 150 188 231 282 341
#     4  12  24  36  52  80 108 148 192 240 280 330
#     4  10  20  34  56  88 121 149 179 230 293 341
#     4  10  19  34  57  86 117 148 181 232 293 342
#     4  12  22  38  57  81 113 146 193 235 282 347
#     4  11  24  41  59  82 114 160 195 237 294 349
#
# _framework density 19.385349000000001
#
# number of rings (size 3 to 8) (size 9 to 14) (size 15 to 20)
#    0.000    1.793    2.759    2.069    1.931    1.931 
#    0.000    0.000    0.000    0.828    3.586    0.000 
#    0.000    0.000    0.000    0.000    0.000    0.000 
#
# Total GULP energy -718921.443845 kJ/mol
# GULP energy per Si atom -12395.197308 kJ/mol
# Density = 1.934123 g / cm^3
# Si number density = 19.385349 Si / 1000 Ang^3
#
#
#
# Elastic Constant Matrix: (Units=GPa)
#
#
# Indices 1 2 3 4 5 6 
#
# 1 107.3535 22.3831 27.2427 0.0000 0.0000 0.0000
# 2 22.3831 127.3408 35.0821 0.0000 0.0000 0.0000
# 3 27.2427 35.0821 44.5371 -0.0001 0.0000 0.0000
# 4 0.0000 0.0000 -0.0001 -0.7230 0.0000 0.0000
# 5 0.0000 0.0000 0.0000 0.0000 24.1585 0.0000
# 6 0.0000 0.0000 0.0000 0.0000 0.0000 28.9385
#
#
#
# Elastic Compliance Matrix: (Units=1/GPa)
#
#
# Indices 1 2 3 4 5 6 
#
# 1 0.011028 -0.000102 -0.006665 0.000001 0.000000 0.000000
# 2 -0.000102 0.010030 -0.007839 0.000000 0.000000 0.000000
# 3 -0.006665 -0.007839 0.032705 -0.000004 0.000000 0.000000
# 4 0.000001 0.000000 -0.000004 -1.383104 0.000000 0.000000
# 5 0.000000 0.000000 0.000000 0.000000 0.041393 0.000000
# 6 0.000000 0.000000 0.000000 0.000000 0.000000 0.034556
#
#
# Mechanical properties :
#
#
# Convention : Reuss Voigt Hill
#
# Bulk Modulus (GPa) = 40.73113 49.84970 45.29041
# Shear Modulus (GPa) = -4.11185 23.44303 9.66559
#
# Velocity S-wave (km/s) = -1.45798 3.48130 2.23536
# Velocity P-wave (km/s) = 4.26880 6.47535 5.48420
#
# Compressibility (1/GPa) = 0.02455125
#
# Stress axis : x y z
#
# Youngs Moduli (GPa) = 90.68099 99.69697 30.57680
#
# Poissons Ratio (x) = 0.01019 0.20379
# Poissons Ratio (y) = 0.00927 0.23968
# Poissons Ratio (z) = 0.60439 0.78148
#
# Static dielectric constant tensor:
#      x y z
#    x 3.901330 0.000000 0.000000 
#    y 0.000000 3.764410 0.000000 
#    z 0.000000 0.000000 3.177860 
# 
# 
# High freq. dielectric constant tensor:
#      x y z
#    x 1.774860 0.000000 0.000000 
#    y 0.000000 1.759960 0.000000 
#    z 0.000000 0.000000 1.706160 
# 
# From -- ./inp_files/29695.got.cif
#   From: 2010.03.12/outbox.cif.g09.slc.cpg/sg72_15_cif.got.tgz:29695.got - 2010.04.16 14:54:00.
