data_PCOD8293070
_publ_section_title
;
Structure prediction by ZEFSAII (Michael W. Deem and Ramdas Pophale) SiO2 
 PCOD8293070
Probable space group: I B A M
;
_chemical_formula_sum "Si O2"
_cell_formula_units_Z 112
_cell_length_a 28.120916
_cell_length_b 12.909117
_cell_length_c 18.006623
_cell_angle_alpha 90.000000
_cell_angle_beta 90.000000
_cell_angle_gamma 90.000000
_cell_volume 6536.695762
_symmetry_space_group_name_H-M "I B A M"
_symmetry_group_IT_number 72
_symmetry_cell_setting 'orthorhombic'
loop_
_space_group_symop_operation_xyz
x,y,z
-x,-y,z
x,-y,1/2-z
-x,y,1/2-z
-x,-y,-z
x,y,-z
-x,y,1/2+z
x,-y,1/2+z
1/2+x,1/2+y,1/2+z
1/2-x,1/2-y,1/2+z
1/2+x,1/2-y,-z
1/2-x,1/2+y,-z
1/2-x,1/2-y,1/2-z
1/2+x,1/2+y,1/2-z
1/2-x,1/2+y,z
1/2+x,1/2-y,z
loop_
_atom_site_type_symbol
_atom_site_label
_atom_site_fract_x
_atom_site_fract_y
_atom_site_fract_z
Si Si1 0.408198 0.400143 0.656981
Si Si2 0.998582 0.122174 0.915289
Si Si3 0.682378 0.670656 0.582635
Si Si4 0.410087 0.632716 0.674107
Si Si5 0.722234 0.939089 0.085347
Si Si6 0.315075 0.761896 0.682762
Si Si7 0.220444 0.351474 0.168887
O O1 0.448662 0.342105 0.608540
O O2 0.358467 0.344483 0.642926
O O3 0.399305 0.521045 0.636634
O O4 0.423884 0.385062 0.741135
O O5 0.956879 0.177538 0.867636
O O6 0.988925 0.151147 0.000000
O O7 0.000000 0.000000 0.899411
O O8 0.660619 0.672196 0.500000
O O9 0.721321 0.580245 0.589498
O O10 0.706834 0.779778 0.599491
O O11 0.366219 0.711194 0.667372
O O12 0.693887 0.838440 0.113728
O O13 0.711384 0.032267 0.141786
O O14 0.706955 0.962146 0.000000
O O15 0.275880 0.669968 0.688391
O O16 0.312324 0.827688 0.759260
#
# Coordination Sequence:
#
# PCOD8293070 Si02
#       7
#    16  16  16  16  16  16  16
#     4  10  18  31  49  73 103 134 169 207 249 305
#     4   9  18  31  47  70 101 136 167 201 249 303
#     4  10  19  31  49  73 100 132 171 209 252 303
#     4  10  19  31  49  73 102 135 169 206 251 301
#     4  10  21  34  49  72 103 138 172 212 256 301
#     4  10  20  33  51  75  99 136 175 210 252 306
#     4  10  19  34  50  71 101 135 172 213 252 296
#
# _framework density 17.134039000000001
#
# number of rings (size 3 to 8) (size 9 to 14) (size 15 to 20)
#    0.000    2.143    1.429    2.571    0.000    3.429 
#    0.000    0.000    0.000    0.000    0.000    1.000 
#    0.000    3.429    0.000    0.000    0.000    0.000 
#
# Total GULP energy -694238.425241 kJ/mol
# GULP energy per Si atom -12397.114736 kJ/mol
# Density = 1.709504 g / cm^3
# Si number density = 17.134039 Si / 1000 Ang^3
#
#
#
# Elastic Constant Matrix: (Units=GPa)
#
#
# Indices 1 2 3 4 5 6 
#
# 1 110.6230 35.3503 45.1330 0.0000 0.0000 0.0000
# 2 35.3503 58.0507 27.3295 0.0000 0.0000 0.0000
# 3 45.1330 27.3295 99.2509 0.0000 0.0000 0.0000
# 4 0.0000 0.0000 0.0000 23.1218 0.0000 0.0000
# 5 0.0000 0.0000 0.0000 0.0000 29.3169 0.0000
# 6 0.0000 0.0000 0.0000 0.0000 0.0000 20.5284
#
#
#
# Elastic Compliance Matrix: (Units=1/GPa)
#
#
# Indices 1 2 3 4 5 6 
#
# 1 0.012547 -0.005692 -0.004138 0.000000 0.000000 0.000000
# 2 -0.005692 0.022375 -0.003572 0.000000 0.000000 0.000000
# 3 -0.004138 -0.003572 0.012941 0.000000 0.000000 0.000000
# 4 0.000000 0.000000 0.000000 0.043249 0.000000 0.000000
# 5 0.000000 0.000000 0.000000 0.000000 0.034110 0.000000
# 6 0.000000 0.000000 0.000000 0.000000 0.000000 0.048713
#
#
# Mechanical properties :
#
#
# Convention : Reuss Voigt Hill
#
# Bulk Modulus (GPa) = 47.49116 53.72780 50.60948
# Shear Modulus (GPa) = 24.06623 25.26753 24.66688
#
# Velocity S-wave (km/s) = 3.75185 3.84435 3.79838
# Velocity P-wave (km/s) = 6.82247 7.15058 6.98845
#
# Compressibility (1/GPa) = 0.02105655
#
# Stress axis : x y z
#
# Youngs Moduli (GPa) = 79.69978 44.69347 77.27399
#
# Poissons Ratio (x) = 0.25441 0.31977
# Poissons Ratio (y) = 0.45368 0.27606
# Poissons Ratio (z) = 0.32981 0.15967
#
# Static dielectric constant tensor:
#      x y z
#    x 3.121230 0.000000 0.000000 
#    y 0.000000 2.864730 0.000000 
#    z 0.000000 0.000000 3.254460 
# 
# 
# High freq. dielectric constant tensor:
#      x y z
#    x 1.650870 0.000000 0.000000 
#    y 0.000000 1.621730 0.000000 
#    z 0.000000 0.000000 1.676680 
# 
# From -- ./inp_files/40330.got.cif
#   From: 2010.03.12/outbox.cif.g09.slc.cpg/sg72_21_cif.got.tgz:40330.got - 2010.04.16 14:54:00.
