data_PCOD8293994
_publ_section_title
;
Structure prediction by ZEFSAII (Michael W. Deem and Ramdas Pophale) SiO2 
 PCOD8293994
Probable space group: I B A M
;
_chemical_formula_sum "Si O2"
_cell_formula_units_Z 96
_cell_length_a 22.947372
_cell_length_b 15.339232
_cell_length_c 13.779278
_cell_angle_alpha 90.000000
_cell_angle_beta 90.000000
_cell_angle_gamma 90.000000
_cell_volume 4850.237826
_symmetry_space_group_name_H-M "I B A M"
_symmetry_group_IT_number 72
_symmetry_cell_setting 'orthorhombic'
loop_
_space_group_symop_operation_xyz
x,y,z
-x,-y,z
x,-y,1/2-z
-x,y,1/2-z
-x,-y,-z
x,y,-z
-x,y,1/2+z
x,-y,1/2+z
1/2+x,1/2+y,1/2+z
1/2-x,1/2-y,1/2+z
1/2+x,1/2-y,-z
1/2-x,1/2+y,-z
1/2-x,1/2-y,1/2-z
1/2+x,1/2+y,1/2-z
1/2-x,1/2+y,z
1/2+x,1/2-y,z
loop_
_atom_site_type_symbol
_atom_site_label
_atom_site_fract_x
_atom_site_fract_y
_atom_site_fract_z
Si Si1 0.302342 0.573525 0.000000
Si Si2 0.063406 0.766538 0.792762
Si Si3 0.896896 0.796219 0.500000
Si Si4 0.144771 0.911761 0.293612
Si Si5 0.218256 0.120494 0.500000
Si Si6 0.174964 0.378269 0.500000
Si Si7 0.128766 0.410978 0.294141
Si Si8 0.256421 0.843563 0.796398
O O1 0.345067 0.586548 0.091239
O O2 0.268480 0.481699 0.000000
O O3 0.245235 0.635963 0.000000
O O4 0.062537 0.796654 0.905170
O O5 0.107280 0.826429 0.731489
O O6 0.080797 0.665078 0.787629
O O7 0.000000 0.779781 0.750000
O O8 0.852824 0.877871 0.500000
O O9 0.850795 0.718022 0.500000
O O10 0.207061 0.908192 0.241817
O O11 0.114755 0.000000 0.250000
O O12 0.248402 0.168365 0.589597
O O13 0.151321 0.427274 0.403936
O O14 0.101500 0.500000 0.250000
O O15 0.181825 0.385122 0.225392
O O16 0.250000 0.750000 0.750000
#
# Coordination Sequence:
#
# PCOD8293994 Si02
#       8
#     8  16   8  16   8   8  16  16
#     4  12  22  33  60  94 133 163 198 253 316 384
#     4  11  25  44  65  88 119 165 221 270 311 370
#     4  10  20  41  64  81 116 163 207 251 319 373
#     4  12  23  40  61  92 130 164 206 260 316 373
#     4  12  22  36  61  93 129 172 202 237 324 398
#     4  10  20  34  59  91 120 168 194 234 316 403
#     4  11  22  40  62  92 130 162 208 258 320 383
#     4  12  21  37  62  95 128 164 202 255 311 385
#
# _framework density 19.792843000000001
#
# number of rings (size 3 to 8) (size 9 to 14) (size 15 to 20)
#    0.000    0.667    6.667    2.500    0.000    1.333 
#    0.000    2.500    0.000    6.000    0.000    0.000 
#    0.000    0.000    0.000    0.000    0.000    0.000 
#
# Total GULP energy -595273.471823 kJ/mol
# GULP energy per Si atom -12401.530663 kJ/mol
# Density = 1.974779 g / cm^3
# Si number density = 19.792843 Si / 1000 Ang^3
#
#
#
# Elastic Constant Matrix: (Units=GPa)
#
#
# Indices 1 2 3 4 5 6 
#
# 1 71.1698 2.2852 40.7219 0.0000 0.0000 0.0000
# 2 2.2852 83.5760 36.4214 0.0000 0.0000 0.0000
# 3 40.7219 36.4214 189.8616 0.0000 0.0000 0.0000
# 4 0.0000 0.0000 0.0000 26.4094 0.0000 0.0000
# 5 0.0000 0.0000 0.0000 0.0000 25.8302 0.0000
# 6 0.0000 0.0000 0.0000 0.0000 0.0000 13.0679
#
#
#
# Elastic Compliance Matrix: (Units=1/GPa)
#
#
# Indices 1 2 3 4 5 6 
#
# 1 0.016119 0.001163 -0.003680 0.000000 0.000000 0.000000
# 2 0.001163 0.013141 -0.002770 0.000000 0.000000 0.000000
# 3 -0.003680 -0.002770 0.006588 0.000000 0.000000 0.000000
# 4 0.000000 0.000000 0.000000 0.037865 0.000000 0.000000
# 5 0.000000 0.000000 0.000000 0.000000 0.038714 0.000000
# 6 0.000000 0.000000 0.000000 0.000000 0.000000 0.076523
#
#
# Mechanical properties :
#
#
# Convention : Reuss Voigt Hill
#
# Bulk Modulus (GPa) = 39.56835 55.94049 47.75442
# Shear Modulus (GPa) = 24.04421 30.74009 27.39215
#
# Velocity S-wave (km/s) = 3.48917 3.94520 3.72417
# Velocity P-wave (km/s) = 6.02221 7.00551 6.53239
#
# Compressibility (1/GPa) = 0.02527272
#
# Stress axis : x y z
#
# Youngs Moduli (GPa) = 62.03686 76.10002 151.79551
#
# Poissons Ratio (x) = -0.08852 0.55868
# Poissons Ratio (y) = -0.07216 0.42051
# Poissons Ratio (z) = 0.22832 0.21082
#
# Static dielectric constant tensor:
#      x y z
#    x 3.315520 0.000000 0.000000 
#    y 0.000000 6.822420 0.000000 
#    z 0.000000 0.000000 3.705070 
# 
# 
# High freq. dielectric constant tensor:
#      x y z
#    x 1.731610 0.000000 0.000000 
#    y 0.000000 1.783560 0.000000 
#    z 0.000000 0.000000 1.790680 
# 
# From -- ./inp_files/22059.got.cif
#   From: 2010.03.12/outbox.cif.g09.slc.cpg/sg72_12_cif.got.tgz:22059.got - 2010.04.16 14:54:00.
