data_PCOD8293444
_publ_section_title
;
Structure prediction by ZEFSAII (Michael W. Deem and Ramdas Pophale) SiO2 
 PCOD8293444
Probable space group: I B A M
;
_chemical_formula_sum "Si O2"
_cell_formula_units_Z 112
_cell_length_a 13.927543
_cell_length_b 23.919486
_cell_length_c 16.529170
_cell_angle_alpha 90.000000
_cell_angle_beta 90.000000
_cell_angle_gamma 90.000000
_cell_volume 5506.522236
_symmetry_space_group_name_H-M "I B A M"
_symmetry_group_IT_number 72
_symmetry_cell_setting 'orthorhombic'
loop_
_space_group_symop_operation_xyz
x,y,z
-x,-y,z
x,-y,1/2-z
-x,y,1/2-z
-x,-y,-z
x,y,-z
-x,y,1/2+z
x,-y,1/2+z
1/2+x,1/2+y,1/2+z
1/2-x,1/2-y,1/2+z
1/2+x,1/2-y,-z
1/2-x,1/2+y,-z
1/2-x,1/2-y,1/2-z
1/2+x,1/2+y,1/2-z
1/2-x,1/2+y,z
1/2+x,1/2-y,z
loop_
_atom_site_type_symbol
_atom_site_label
_atom_site_fract_x
_atom_site_fract_y
_atom_site_fract_z
Si Si1 0.510894 0.939814 0.342798
Si Si2 0.109024 0.713526 0.338738
Si Si3 0.096808 0.069540 0.904141
Si Si4 0.301397 0.112980 0.593158
Si Si5 0.385515 0.445720 0.903789
Si Si6 0.699629 0.319494 0.094074
Si Si7 0.406752 0.172373 0.155796
O O1 0.500000 0.952047 0.250000
O O2 0.617241 0.918806 0.358209
O O3 0.431958 0.892492 0.364828
O O4 0.500000 0.000000 0.388830
O O5 0.183245 0.679120 0.395013
O O6 0.143128 0.777153 0.346671
O O7 0.114804 0.686354 0.249507
O O8 0.999202 0.709136 0.371017
O O9 0.166060 0.119408 0.874403
O O10 0.987646 0.077421 0.871272
O O11 0.134549 0.009239 0.873006
O O12 0.095295 0.069570 0.000000
O O13 0.309243 0.096331 0.500000
O O14 0.198398 0.094509 0.629133
O O15 0.387968 0.445416 0.000000
O O16 0.813860 0.312250 0.103569
O O17 0.672472 0.309392 0.000000
#
# Coordination Sequence:
#
# PCOD8293444 Si02
#       7
#    16  16  16  16  16  16  16
#     4  10  20  37  58  83 115 154 195 235 300 362
#     4  10  21  41  57  80 114 156 195 241 291 355
#     4   8  16  32  50  77 115 147 181 230 289 347
#     4  10  19  32  56  86 112 147 195 246 295 350
#     4   8  15  30  52  77 112 150 182 226 286 348
#     4  11  23  35  58  89 116 151 196 248 299 350
#     4  10  21  41  60  81 113 156 199 240 296 361
#
# _framework density 20.339516
#
# number of rings (size 3 to 8) (size 9 to 14) (size 15 to 20)
#    0.000    2.429    2.857    1.714    2.000    4.286 
#    0.000    1.429    0.000    0.000    0.000    2.000 
#    0.000    0.000    0.000    0.000    0.000    0.000 
#
# Total GULP energy -693902.434992 kJ/mol
# GULP energy per Si atom -12391.114911 kJ/mol
# Density = 2.029322 g / cm^3
# Si number density = 20.339516 Si / 1000 Ang^3
#
#
#
# Elastic Constant Matrix: (Units=GPa)
#
#
# Indices 1 2 3 4 5 6 
#
# 1 137.6616 63.2060 21.2963 -0.0001 0.0000 0.0000
# 2 63.2060 106.4737 10.9256 0.0000 -0.0001 0.0000
# 3 21.2963 10.9256 33.2352 0.0004 -0.0001 -0.0001
# 4 -0.0001 0.0000 0.0004 15.1868 -0.0001 0.0000
# 5 0.0000 -0.0001 -0.0001 -0.0001 18.7036 0.0000
# 6 0.0000 0.0000 -0.0001 0.0000 0.0000 30.5476
#
#
#
# Elastic Compliance Matrix: (Units=1/GPa)
#
#
# Indices 1 2 3 4 5 6 
#
# 1 0.010717 -0.005855 -0.004942 0.000000 0.000000 0.000000
# 2 -0.005855 0.012918 -0.000495 0.000000 0.000000 0.000000
# 3 -0.004942 -0.000495 0.033418 -0.000001 0.000000 0.000000
# 4 0.000000 0.000000 -0.000001 0.065847 0.000000 0.000000
# 5 0.000000 0.000000 0.000000 0.000000 0.053466 0.000000
# 6 0.000000 0.000000 0.000000 0.000000 0.000000 0.032736
#
#
# Mechanical properties :
#
#
# Convention : Reuss Voigt Hill
#
# Bulk Modulus (GPa) = 29.01165 52.02515 40.51840
# Shear Modulus (GPa) = 20.56121 25.01709 22.78915
#
# Velocity S-wave (km/s) = 3.18291 3.51090 3.35092
# Velocity P-wave (km/s) = 5.27281 6.48607 5.91066
#
# Compressibility (1/GPa) = 0.03446891
#
# Stress axis : x y z
#
# Youngs Moduli (GPa) = 93.31015 77.40921 29.92365
#
# Poissons Ratio (x) = 0.45321 0.14790
# Poissons Ratio (y) = 0.54631 0.01482
# Poissons Ratio (z) = 0.46119 0.03833
#
# Static dielectric constant tensor:
#      x y z
#    x 3.930810 0.000000 0.000000 
#    y 0.000000 4.043830 0.000000 
#    z 0.000000 0.000000 3.262010 
# 
# 
# High freq. dielectric constant tensor:
#      x y z
#    x 1.799320 0.000000 0.000000 
#    y 0.000000 1.798620 0.000000 
#    z 0.000000 0.000000 1.756000 
# 
# From -- ./inp_files/37298.got.cif
#   From: 2010.03.12/outbox.cif.g09.slc.cpg/sg72_19_cif.got.tgz:37298.got - 2010.04.16 14:54:00.
