data_PCOD8293283
_publ_section_title
;
Structure prediction by ZEFSAII (Michael W. Deem and Ramdas Pophale) SiO2 
 PCOD8293283
Probable space group: I B A M
;
_chemical_formula_sum "Si O2"
_cell_formula_units_Z 96
_cell_length_a 13.257848
_cell_length_b 17.816297
_cell_length_c 22.472231
_cell_angle_alpha 90.000000
_cell_angle_beta 90.000000
_cell_angle_gamma 90.000000
_cell_volume 5308.070347
_symmetry_space_group_name_H-M "I B A M"
_symmetry_group_IT_number 72
_symmetry_cell_setting 'orthorhombic'
loop_
_space_group_symop_operation_xyz
x,y,z
-x,-y,z
x,-y,1/2-z
-x,y,1/2-z
-x,-y,-z
x,y,-z
-x,y,1/2+z
x,-y,1/2+z
1/2+x,1/2+y,1/2+z
1/2-x,1/2-y,1/2+z
1/2+x,1/2-y,-z
1/2-x,1/2+y,-z
1/2-x,1/2-y,1/2-z
1/2+x,1/2+y,1/2-z
1/2-x,1/2+y,z
1/2+x,1/2-y,z
loop_
_atom_site_type_symbol
_atom_site_label
_atom_site_fract_x
_atom_site_fract_y
_atom_site_fract_z
Si Si1 0.185480 0.193761 0.569487
Si Si2 0.619400 0.083947 0.747447
Si Si3 0.399193 0.464421 0.069831
Si Si4 0.878107 0.628917 0.126439
Si Si5 0.607438 0.842644 0.875558
Si Si6 0.314940 0.985175 0.568483
O O1 0.178845 0.214991 0.500000
O O2 0.112294 0.123819 0.585037
O O3 0.300912 0.173717 0.584822
O O4 0.153579 0.262177 0.610748
O O5 0.500000 0.076792 0.750000
O O6 0.658464 0.130357 0.804749
O O7 0.649920 0.128462 0.687883
O O8 0.666716 0.000000 0.750000
O O9 0.500000 0.500000 0.100052
O O10 0.300064 0.508473 0.092799
O O11 0.407284 0.475982 0.000000
O O12 0.885868 0.542035 0.105490
O O13 0.987329 0.666407 0.121139
O O14 0.644848 0.901163 0.925131
O O15 0.319171 0.010209 0.500000
#
# Coordination Sequence:
#
# PCOD8293283 Si02
#       6
#    16  16  16  16  16  16
#     4  10  22  35  49  79 114 143 180 223 274 336
#     4   9  17  33  56  80 103 135 183 223 270 332
#     4   8  16  33  52  68  98 145 185 213 251 317
#     4  10  20  36  54  74 107 141 176 225 273 321
#     4  11  21  33  54  81 108 139 178 230 278 320
#     4  10  19  30  50  80 105 134 178 220 271 336
#
# _framework density 18.085667999999998
#
# number of rings (size 3 to 8) (size 9 to 14) (size 15 to 20)
#    0.000    2.333    1.667    2.500    0.000    5.333 
#    0.000    1.667    0.000    0.000    0.000    8.167 
#    0.000    0.000    0.000    0.000    0.000    0.000 
#
# Total GULP energy -595107.408400 kJ/mol
# GULP energy per Si atom -12398.071008 kJ/mol
# Density = 1.804450 g / cm^3
# Si number density = 18.085668 Si / 1000 Ang^3
#
#
#
# Elastic Constant Matrix: (Units=GPa)
#
#
# Indices 1 2 3 4 5 6 
#
# 1 59.1788 40.6628 26.8335 0.0000 0.0000 0.0000
# 2 40.6628 106.8919 35.1732 0.0000 0.0000 0.0000
# 3 26.8335 35.1732 84.8404 0.0000 0.0000 0.0000
# 4 0.0000 0.0000 0.0000 28.4443 0.0000 0.0000
# 5 0.0000 0.0000 0.0000 0.0000 18.8269 0.0000
# 6 0.0000 0.0000 0.0000 0.0000 0.0000 22.4895
#
#
#
# Elastic Compliance Matrix: (Units=1/GPa)
#
#
# Indices 1 2 3 4 5 6 
#
# 1 0.024248 -0.007759 -0.004452 0.000000 0.000000 0.000000
# 2 -0.007759 0.013316 -0.003066 0.000000 0.000000 0.000000
# 3 -0.004452 -0.003066 0.014466 0.000000 0.000000 0.000000
# 4 0.000000 0.000000 0.000000 0.035156 0.000000 0.000000
# 5 0.000000 0.000000 0.000000 0.000000 0.053115 0.000000
# 6 0.000000 0.000000 0.000000 0.000000 0.000000 0.044465
#
#
# Mechanical properties :
#
#
# Convention : Reuss Voigt Hill
#
# Bulk Modulus (GPa) = 46.56713 50.69446 48.63079
# Shear Modulus (GPa) = 22.47371 23.83492 23.15432
#
# Velocity S-wave (km/s) = 3.52891 3.63421 3.58195
# Velocity P-wave (km/s) = 6.51216 6.76025 6.63737
#
# Compressibility (1/GPa) = 0.02147437
#
# Stress axis : x y z
#
# Youngs Moduli (GPa) = 41.23994 75.09782 69.12591
#
# Poissons Ratio (x) = 0.58270 0.30778
# Poissons Ratio (y) = 0.31999 0.21197
# Poissons Ratio (z) = 0.18362 0.23028
#
# Static dielectric constant tensor:
#      x y z
#    x 3.347720 0.000000 0.000000 
#    y 0.000000 3.217610 0.000000 
#    z 0.000000 0.000000 3.364980 
# 
# 
# High freq. dielectric constant tensor:
#      x y z
#    x 1.684950 0.000000 0.000000 
#    y 0.000000 1.690350 0.000000 
#    z 0.000000 0.000000 1.693640 
# 
# From -- ./inp_files/43343.got.cif
#   From: 2010.03.12/outbox.cif.g09.slc.cpg/sg72_22_cif.got.tgz:43343.got - 2010.04.16 14:54:00.
