data_PCOD8293943
_publ_section_title
;
Structure prediction by ZEFSAII (Michael W. Deem and Ramdas Pophale) SiO2 
 PCOD8293943
Probable space group: I B A M
;
_chemical_formula_sum "Si O2"
_cell_formula_units_Z 128
_cell_length_a 27.174678
_cell_length_b 10.399173
_cell_length_c 22.258482
_cell_angle_alpha 90.000000
_cell_angle_beta 90.000000
_cell_angle_gamma 90.000000
_cell_volume 6290.117419
_symmetry_space_group_name_H-M "I B A M"
_symmetry_group_IT_number 72
_symmetry_cell_setting 'orthorhombic'
loop_
_space_group_symop_operation_xyz
x,y,z
-x,-y,z
x,-y,1/2-z
-x,y,1/2-z
-x,-y,-z
x,y,-z
-x,y,1/2+z
x,-y,1/2+z
1/2+x,1/2+y,1/2+z
1/2-x,1/2-y,1/2+z
1/2+x,1/2-y,-z
1/2-x,1/2+y,-z
1/2-x,1/2-y,1/2-z
1/2+x,1/2+y,1/2-z
1/2-x,1/2+y,z
1/2+x,1/2-y,z
loop_
_atom_site_type_symbol
_atom_site_label
_atom_site_fract_x
_atom_site_fract_y
_atom_site_fract_z
Si Si1 0.346789 0.207516 0.069328
Si Si2 0.266962 0.078525 0.149065
Si Si3 0.180776 0.986914 0.067704
Si Si4 0.702551 0.810235 0.318181
Si Si5 0.049408 0.655323 0.366816
Si Si6 0.440388 0.852909 0.369908
Si Si7 0.392646 0.847008 0.247969
Si Si8 0.860666 0.249448 0.567946
O O1 0.317138 0.115871 0.114751
O O2 0.338276 0.352113 0.093132
O O3 0.405044 0.177371 0.073914
O O4 0.330815 0.186945 0.000000
O O5 0.244487 0.199100 0.187379
O O6 0.228795 0.037574 0.099371
O O7 0.276001 0.954257 0.191228
O O8 0.138464 0.094559 0.074286
O O9 0.197064 0.965207 0.000000
O O10 0.661492 0.788044 0.266417
O O11 0.677851 0.810328 0.384803
O O12 0.050448 0.502869 0.364568
O O13 0.069714 0.703671 0.302697
O O14 0.083909 0.704179 0.420518
O O15 0.994384 0.710648 0.377520
O O16 0.412947 0.795591 0.311136
O O17 0.388303 0.000000 0.250000
O O18 0.845054 0.290202 0.500000
#
# Coordination Sequence:
#
# PCOD8293943 Si02
#       8
#    16  16  16  16  16  16  16  16
#     4  11  22  35  53  80 113 146 186 232 279 329
#     4  11  19  36  54  81 110 149 188 231 275 329
#     4   9  19  34  52  76 108 150 189 228 269 328
#     4  10  21  33  57  82 113 146 193 227 278 328
#     4   9  18  33  56  83 105 145 183 227 279 339
#     4  10  20  34  55  81 112 140 182 229 286 330
#     4   9  17  35  56  81 107 140 182 231 276 336
#     4   9  18  33  54  80 114 146 184 227 277 329
#
# _framework density 20.349381000000001
#
# number of rings (size 3 to 8) (size 9 to 14) (size 15 to 20)
#    0.000    2.250    1.250    3.000    0.000    5.000 
#    0.000    4.375    0.000    8.250    0.000    5.250 
#    0.000    0.000    0.000    0.000    0.000    0.000 
#
# Total GULP energy -793341.640405 kJ/mol
# GULP energy per Si atom -12395.963131 kJ/mol
# Density = 2.030307 g / cm^3
# Si number density = 20.349381 Si / 1000 Ang^3
#
#
#
# Elastic Constant Matrix: (Units=GPa)
#
#
# Indices 1 2 3 4 5 6 
#
# 1 120.1384 34.6238 2.9003 0.0000 0.0000 0.0000
# 2 34.6238 82.1346 14.6910 0.0000 0.0000 0.0000
# 3 2.9003 14.6910 29.8518 0.0000 0.0000 0.0000
# 4 0.0000 0.0000 0.0000 15.9923 0.0000 0.0000
# 5 0.0000 0.0000 0.0000 0.0000 15.1261 0.0000
# 6 0.0000 0.0000 0.0000 0.0000 0.0000 16.2111
#
#
#
# Elastic Compliance Matrix: (Units=1/GPa)
#
#
# Indices 1 2 3 4 5 6 
#
# 1 0.009511 -0.004215 0.001150 0.000000 0.000000 0.000000
# 2 -0.004215 0.015218 -0.007080 0.000000 0.000000 0.000000
# 3 0.001150 -0.007080 0.036871 0.000000 0.000000 0.000000
# 4 0.000000 0.000000 0.000000 0.062530 0.000000 0.000000
# 5 0.000000 0.000000 0.000000 0.000000 0.066111 0.000000
# 6 0.000000 0.000000 0.000000 0.000000 0.000000 0.061686
#
#
# Mechanical properties :
#
#
# Convention : Reuss Voigt Hill
#
# Bulk Modulus (GPa) = 24.20655 37.39503 30.80079
# Shear Modulus (GPa) = 17.48331 21.45987 19.47159
#
# Velocity S-wave (km/s) = 2.93432 3.25094 3.09668
# Velocity P-wave (km/s) = 4.83752 5.70157 5.28722
#
# Compressibility (1/GPa) = 0.04131113
#
# Stress axis : x y z
#
# Youngs Moduli (GPa) = 105.14451 65.71029 27.12137
#
# Poissons Ratio (x) = 0.27697 -0.03120
# Poissons Ratio (y) = 0.44318 0.19202
# Poissons Ratio (z) = -0.12095 0.46522
#
# Static dielectric constant tensor:
#      x y z
#    x 3.911570 0.000000 0.000000 
#    y 0.000000 3.686400 0.000000 
#    z 0.000000 0.000000 3.644310 
# 
# 
# High freq. dielectric constant tensor:
#      x y z
#    x 1.795130 0.000000 0.000000 
#    y 0.000000 1.770660 0.000000 
#    z 0.000000 0.000000 1.794230 
# 
# From -- ./inp_files/46050.got.cif
#   From: 2010.03.12/outbox.cif.g09.slc.cpg/sg72_24_cif.got.tgz:46050.got - 2010.04.16 14:54:00.
