data_PCOD8293102
_publ_section_title
;
Structure prediction by ZEFSAII (Michael W. Deem and Ramdas Pophale) SiO2 
 PCOD8293102
Probable space group: I B A M
;
_chemical_formula_sum "Si O2"
_cell_formula_units_Z 112
_cell_length_a 17.002687
_cell_length_b 20.830069
_cell_length_c 17.018804
_cell_angle_alpha 90.000000
_cell_angle_beta 90.000000
_cell_angle_gamma 90.000000
_cell_volume 6027.501197
_symmetry_space_group_name_H-M "I B A M"
_symmetry_group_IT_number 72
_symmetry_cell_setting 'orthorhombic'
loop_
_space_group_symop_operation_xyz
x,y,z
-x,-y,z
x,-y,1/2-z
-x,y,1/2-z
-x,-y,-z
x,y,-z
-x,y,1/2+z
x,-y,1/2+z
1/2+x,1/2+y,1/2+z
1/2-x,1/2-y,1/2+z
1/2+x,1/2-y,-z
1/2-x,1/2+y,-z
1/2-x,1/2-y,1/2-z
1/2+x,1/2+y,1/2-z
1/2-x,1/2+y,z
1/2+x,1/2-y,z
loop_
_atom_site_type_symbol
_atom_site_label
_atom_site_fract_x
_atom_site_fract_y
_atom_site_fract_z
Si Si1 0.920417 0.035622 0.824816
Si Si2 0.231159 0.343472 0.175310
Si Si3 0.585783 0.785600 0.760233
Si Si4 0.615286 0.352088 0.772678
Si Si5 0.767850 0.032743 0.911116
Si Si6 0.205799 0.106930 0.089095
Si Si7 0.313190 0.230388 0.090088
O O1 0.936098 0.107560 0.790975
O O2 0.862096 0.039306 0.898014
O O3 0.879670 0.000000 0.750000
O O4 0.000000 0.000000 0.849786
O O5 0.147456 0.328112 0.212771
O O6 0.295096 0.342329 0.243702
O O7 0.221946 0.415265 0.140803
O O8 0.257520 0.291224 0.110126
O O9 0.500000 0.818726 0.750000
O O10 0.576385 0.716988 0.716905
O O11 0.612108 0.774648 0.851095
O O12 0.626930 0.387015 0.857182
O O13 0.746121 0.958854 0.890126
O O14 0.747679 0.049514 0.000000
O O15 0.263598 0.166047 0.100533
O O16 0.174558 0.102178 0.000000
O O17 0.343093 0.237656 0.000000
#
# Coordination Sequence:
#
# PCOD8293102 Si02
#       7
#    16  16  16  16  16  16  16
#     4  10  20  30  49  75 111 153 181 215 274 333
#     4  10  19  36  57  79 108 146 195 236 280 334
#     4  11  22  35  56  86 115 149 188 242 299 350
#     4  10  18  35  55  78 110 150 196 228 268 345
#     4  10  21  34  53  81 106 140 190 238 278 328
#     4  10  18  31  55  81 104 138 192 242 278 323
#     4  10  19  37  59  79 108 147 190 236 284 338
#
# _framework density 18.581496999999999
#
# number of rings (size 3 to 8) (size 9 to 14) (size 15 to 20)
#    0.000    1.857    4.286    1.286    2.000    0.286 
#    0.000    2.143    0.000    3.857    0.000    3.000 
#    0.000    0.000    0.000    0.000    0.000    0.000 
#
# Total GULP energy -694047.508846 kJ/mol
# GULP energy per Si atom -12393.705515 kJ/mol
# Density = 1.853920 g / cm^3
# Si number density = 18.581497 Si / 1000 Ang^3
#
#
#
# Elastic Constant Matrix: (Units=GPa)
#
#
# Indices 1 2 3 4 5 6 
#
# 1 86.5089 23.6826 27.1262 0.0000 0.0000 0.0000
# 2 23.6826 116.1507 30.8718 0.0000 0.0000 0.0000
# 3 27.1262 30.8718 90.4899 0.0000 0.0000 0.0000
# 4 0.0000 0.0000 0.0000 25.2984 0.0000 0.0000
# 5 0.0000 0.0000 0.0000 0.0000 20.1942 0.0000
# 6 0.0000 0.0000 0.0000 0.0000 0.0000 20.3923
#
#
#
# Elastic Compliance Matrix: (Units=1/GPa)
#
#
# Indices 1 2 3 4 5 6 
#
# 1 0.013088 -0.001788 -0.003313 0.000000 0.000000 0.000000
# 2 -0.001788 0.009712 -0.002778 0.000000 0.000000 0.000000
# 3 -0.003313 -0.002778 0.012992 0.000000 0.000000 0.000000
# 4 0.000000 0.000000 0.000000 0.039528 0.000000 0.000000
# 5 0.000000 0.000000 0.000000 0.000000 0.049519 0.000000
# 6 0.000000 0.000000 0.000000 0.000000 0.000000 0.049038
#
#
# Mechanical properties :
#
#
# Convention : Reuss Voigt Hill
#
# Bulk Modulus (GPa) = 49.91417 50.72338 50.31878
# Shear Modulus (GPa) = 25.46948 27.27490 26.37219
#
# Velocity S-wave (km/s) = 3.70630 3.83541 3.77141
# Velocity P-wave (km/s) = 6.72578 6.85353 6.78996
#
# Compressibility (1/GPa) = 0.02003439
#
# Stress axis : x y z
#
# Youngs Moduli (GPa) = 76.40631 102.96236 76.97161
#
# Poissons Ratio (x) = 0.18409 0.25504
# Poissons Ratio (y) = 0.13661 0.21379
# Poissons Ratio (z) = 0.25317 0.28598
#
# Static dielectric constant tensor:
#      x y z
#    x 3.047510 0.000000 0.000000 
#    y 0.000000 3.709860 0.000000 
#    z 0.000000 0.000000 3.527090 
# 
# 
# High freq. dielectric constant tensor:
#      x y z
#    x 1.676200 0.000000 0.000000 
#    y 0.000000 1.737550 0.000000 
#    z 0.000000 0.000000 1.720560 
# 
# From -- ./inp_files/31873.got.cif
#   From: 2010.03.12/outbox.cif.g09.slc.cpg/sg72_16_cif.got.tgz:31873.got - 2010.04.16 14:54:00.
