data_PCOD8293230
_publ_section_title
;
Structure prediction by ZEFSAII (Michael W. Deem and Ramdas Pophale) SiO2 
 PCOD8293230
Probable space group: I B A M
;
_chemical_formula_sum "Si O2"
_cell_formula_units_Z 112
_cell_length_a 20.803991
_cell_length_b 22.899585
_cell_length_c 15.536626
_cell_angle_alpha 90.000000
_cell_angle_beta 90.000000
_cell_angle_gamma 90.000000
_cell_volume 7401.691511
_symmetry_space_group_name_H-M "I B A M"
_symmetry_group_IT_number 72
_symmetry_cell_setting 'orthorhombic'
loop_
_space_group_symop_operation_xyz
x,y,z
-x,-y,z
x,-y,1/2-z
-x,y,1/2-z
-x,-y,-z
x,y,-z
-x,y,1/2+z
x,-y,1/2+z
1/2+x,1/2+y,1/2+z
1/2-x,1/2-y,1/2+z
1/2+x,1/2-y,-z
1/2-x,1/2+y,-z
1/2-x,1/2-y,1/2-z
1/2+x,1/2+y,1/2-z
1/2-x,1/2+y,z
1/2+x,1/2-y,z
loop_
_atom_site_type_symbol
_atom_site_label
_atom_site_fract_x
_atom_site_fract_y
_atom_site_fract_z
Si Si1 0.955901 0.280805 0.334168
Si Si2 0.645753 0.884519 0.100229
Si Si3 0.417593 0.762125 0.407093
Si Si4 0.429087 0.997711 0.600652
Si Si5 0.224681 0.657447 0.750672
Si Si6 0.136637 0.619238 0.398036
Si Si7 0.152333 0.221474 0.745354
O O1 0.920570 0.338510 0.367877
O O2 0.902523 0.230011 0.318298
O O3 0.000000 0.294551 0.250000
O O4 0.004894 0.257428 0.406032
O O5 0.600020 0.829032 0.115596
O O6 0.706626 0.879631 0.164300
O O7 0.607694 0.940767 0.134587
O O8 0.667975 0.889626 0.000000
O O9 0.391443 0.744921 0.500000
O O10 0.384780 0.715494 0.344779
O O11 0.438352 0.990083 0.500000
O O12 0.387311 0.054343 0.622236
O O13 0.500000 0.000000 0.643823
O O14 0.200514 0.629082 0.660396
O O15 0.195140 0.721116 0.757918
O O16 0.302515 0.664496 0.755025
O O17 0.152323 0.628269 0.500000
#
# Coordination Sequence:
#
# PCOD8293230 Si02
#       7
#    16  16  16  16  16  16  16
#     4   9  16  27  41  57  79 106 133 166 205 241
#     4   9  17  29  43  57  78 109 142 173 200 231
#     4   9  15  24  41  61  78 102 134 164 201 245
#     4   9  17  28  41  59  83 109 138 172 204 229
#     4   9  17  30  41  54  75 104 141 174 202 235
#     4  10  19  28  40  59  83 110 138 170 203 233
#     4   8  16  28  40  53  76 103 132 172 207 234
#
# _framework density 15.131676000000001
#
# number of rings (size 3 to 8) (size 9 to 14) (size 15 to 20)
#    0.000    3.000    0.000    2.143    0.000    3.429 
#    0.000    8.571    0.000    0.000    0.000    0.000 
#    0.000    0.000    0.000   23.143    0.000   85.429 
#
# Total GULP energy -693755.071445 kJ/mol
# GULP energy per Si atom -12388.483419 kJ/mol
# Density = 1.509724 g / cm^3
# Si number density = 15.131676 Si / 1000 Ang^3
#
#
#
# Elastic Constant Matrix: (Units=GPa)
#
#
# Indices 1 2 3 4 5 6 
#
# 1 98.4837 49.3210 40.7730 0.0000 0.0000 0.0000
# 2 49.3210 48.5163 29.0726 0.0000 0.0000 0.0000
# 3 40.7730 29.0726 74.6028 0.0000 0.0000 0.0000
# 4 0.0000 0.0000 0.0000 14.1453 0.0000 0.0000
# 5 0.0000 0.0000 0.0000 0.0000 15.0424 0.0000
# 6 0.0000 0.0000 0.0000 0.0000 0.0000 20.3284
#
#
#
# Elastic Compliance Matrix: (Units=1/GPa)
#
#
# Indices 1 2 3 4 5 6 
#
# 1 0.021671 -0.019483 -0.004252 0.000000 0.000000 0.000000
# 2 -0.019483 0.044407 -0.006657 0.000000 0.000000 0.000000
# 3 -0.004252 -0.006657 0.018322 0.000000 0.000000 0.000000
# 4 0.000000 0.000000 0.000000 0.070695 0.000000 0.000000
# 5 0.000000 0.000000 0.000000 0.000000 0.066479 0.000000
# 6 0.000000 0.000000 0.000000 0.000000 0.000000 0.049192
#
#
# Mechanical properties :
#
#
# Convention : Reuss Voigt Hill
#
# Bulk Modulus (GPa) = 42.34250 51.10400 46.72325
# Shear Modulus (GPa) = 14.73087 16.73228 15.73157
#
# Velocity S-wave (km/s) = 3.12350 3.32893 3.22785
# Velocity P-wave (km/s) = 6.40717 6.97294 6.69603
#
# Compressibility (1/GPa) = 0.02361693
#
# Stress axis : x y z
#
# Youngs Moduli (GPa) = 46.14374 22.51886 54.57835
#
# Poissons Ratio (x) = 0.43874 0.23205
# Poissons Ratio (y) = 0.89903 0.36334
# Poissons Ratio (z) = 0.19619 0.14991
#
# Static dielectric constant tensor:
#      x y z
#    x 3.141230 0.000000 0.000000 
#    y 0.000000 2.687110 0.000000 
#    z 0.000000 0.000000 3.048430 
# 
# 
# High freq. dielectric constant tensor:
#      x y z
#    x 1.565720 0.000000 0.000000 
#    y 0.000000 1.531510 0.000000 
#    z 0.000000 0.000000 1.588250 
# 
# From -- ./inp_files/32878.got.cif
#   From: 2010.03.12/outbox.cif.g09.slc.cpg/sg72_17_cif.got.tgz:32878.got - 2010.04.16 14:54:00.
