data_PCOD8293620
_publ_section_title
;
Structure prediction by ZEFSAII (Michael W. Deem and Ramdas Pophale) SiO2 
 PCOD8293620
Probable space group: I B A M
;
_chemical_formula_sum "Si O2"
_cell_formula_units_Z 112
_cell_length_a 27.309004
_cell_length_b 12.402975
_cell_length_c 16.509674
_cell_angle_alpha 90.000000
_cell_angle_beta 90.000000
_cell_angle_gamma 90.000000
_cell_volume 5592.039458
_symmetry_space_group_name_H-M "I B A M"
_symmetry_group_IT_number 72
_symmetry_cell_setting 'orthorhombic'
loop_
_space_group_symop_operation_xyz
x,y,z
-x,-y,z
x,-y,1/2-z
-x,y,1/2-z
-x,-y,-z
x,y,-z
-x,y,1/2+z
x,-y,1/2+z
1/2+x,1/2+y,1/2+z
1/2-x,1/2-y,1/2+z
1/2+x,1/2-y,-z
1/2-x,1/2+y,-z
1/2-x,1/2-y,1/2-z
1/2+x,1/2+y,1/2-z
1/2-x,1/2+y,z
1/2+x,1/2-y,z
loop_
_atom_site_type_symbol
_atom_site_label
_atom_site_fract_x
_atom_site_fract_y
_atom_site_fract_z
Si Si1 0.555300 0.815403 0.093205
Si Si2 0.617247 0.603925 0.698613
Si Si3 0.803317 0.993761 0.593531
Si Si4 0.903241 0.464969 0.594726
Si Si5 0.450845 0.745370 0.903214
Si Si6 0.196465 0.564369 0.905231
Si Si7 0.652314 0.723315 0.848395
O O1 0.506590 0.759343 0.128703
O O2 0.601636 0.737105 0.102634
O O3 0.567360 0.932576 0.133431
O O4 0.543976 0.835249 0.000000
O O5 0.599541 0.500000 0.750000
O O6 0.662180 0.574804 0.641156
O O7 0.571959 0.643823 0.643967
O O8 0.637744 0.697900 0.756229
O O9 0.809427 0.021239 0.500000
O O10 0.816597 0.870926 0.610742
O O11 0.747631 0.013279 0.621969
O O12 0.913457 0.467644 0.500000
O O13 0.922017 0.351354 0.628057
O O14 0.845488 0.476076 0.613448
O O15 0.446682 0.726054 0.000000
O O16 0.185894 0.670727 0.852388
O O17 0.195481 0.596731 0.000000
#
# Coordination Sequence:
#
# PCOD8293620 Si02
#       7
#    16  16  16  16  16  16  16
#     4   9  17  32  57  85 111 143 179 217 270 331
#     4  10  23  39  53  75 108 147 186 228 274 319
#     4  10  20  36  57  79 104 138 184 231 270 317
#     4   8  15  30  54  87 117 135 166 218 269 322
#     4  10  19  34  58  84 110 142 183 230 275 318
#     4   9  18  33  57  85 108 138 179 219 264 320
#     4  10  20  37  55  75 111 148 176 215 275 339
#
# _framework density 20.028471
#
# number of rings (size 3 to 8) (size 9 to 14) (size 15 to 20)
#    0.000    2.571    0.000    3.000    0.000    4.000 
#    0.000   13.571    0.000   11.143    0.000    0.000 
#    0.000    0.000    0.000    0.000    0.000    0.000 
#
# Total GULP energy -694262.303825 kJ/mol
# GULP energy per Si atom -12397.541140 kJ/mol
# Density = 1.998289 g / cm^3
# Si number density = 20.028471 Si / 1000 Ang^3
#
#
#
# Elastic Constant Matrix: (Units=GPa)
#
#
# Indices 1 2 3 4 5 6 
#
# 1 173.5630 77.5668 35.2626 0.0000 0.0000 0.0000
# 2 77.5668 102.1958 32.5188 0.0000 0.0000 0.0000
# 3 35.2626 32.5188 48.9907 0.0000 0.0000 0.0000
# 4 0.0000 0.0000 0.0000 26.8959 0.0000 0.0000
# 5 0.0000 0.0000 0.0000 0.0000 7.9255 0.0000
# 6 0.0000 0.0000 0.0000 0.0000 0.0000 32.5527
#
#
#
# Elastic Compliance Matrix: (Units=1/GPa)
#
#
# Indices 1 2 3 4 5 6 
#
# 1 0.008945 -0.006010 -0.002449 0.000000 0.000000 0.000000
# 2 -0.006010 0.016443 -0.006589 0.000000 0.000000 0.000000
# 3 -0.002449 -0.006589 0.026548 0.000000 0.000000 0.000000
# 4 0.000000 0.000000 0.000000 0.037180 0.000000 0.000000
# 5 0.000000 0.000000 0.000000 0.000000 0.126175 0.000000
# 6 0.000000 0.000000 0.000000 0.000000 0.000000 0.030719
#
#
# Mechanical properties :
#
#
# Convention : Reuss Voigt Hill
#
# Bulk Modulus (GPa) = 45.78582 68.38288 57.08435
# Shear Modulus (GPa) = 17.64364 25.43489 21.53927
#
# Velocity S-wave (km/s) = 2.97126 3.56748 3.28294
# Velocity P-wave (km/s) = 5.88907 7.15445 6.55238
#
# Compressibility (1/GPa) = 0.02184082
#
# Stress axis : x y z
#
# Youngs Moduli (GPa) = 111.79262 60.81511 37.66701
#
# Poissons Ratio (x) = 0.36550 0.09226
# Poissons Ratio (y) = 0.67187 0.24818
# Poissons Ratio (z) = 0.27381 0.40070
#
# Static dielectric constant tensor:
#      x y z
#    x 3.758230 0.000000 0.000000 
#    y 0.000000 3.687460 0.000000 
#    z 0.000000 0.000000 3.434940 
# 
# 
# High freq. dielectric constant tensor:
#      x y z
#    x 1.789420 0.000000 0.000000 
#    y 0.000000 1.776390 0.000000 
#    z 0.000000 0.000000 1.760890 
# 
# From -- ./inp_files/26362.got.cif
#   From: 2010.03.12/outbox.cif.g09.slc.cpg/sg72_14_cif.got.tgz:26362.got - 2010.04.16 14:54:00.
