data_PCOD8293290
_publ_section_title
;
Structure prediction by ZEFSAII (Michael W. Deem and Ramdas Pophale) SiO2 
 PCOD8293290
Probable space group: I B A M
;
_chemical_formula_sum "Si O2"
_cell_formula_units_Z 80
_cell_length_a 22.489302
_cell_length_b 29.428539
_cell_length_c 8.710502
_cell_angle_alpha 90.000000
_cell_angle_beta 90.000000
_cell_angle_gamma 90.000000
_cell_volume 5764.848029
_symmetry_space_group_name_H-M "I B A M"
_symmetry_group_IT_number 72
_symmetry_cell_setting 'orthorhombic'
loop_
_space_group_symop_operation_xyz
x,y,z
-x,-y,z
x,-y,1/2-z
-x,y,1/2-z
-x,-y,-z
x,y,-z
-x,y,1/2+z
x,-y,1/2+z
1/2+x,1/2+y,1/2+z
1/2-x,1/2-y,1/2+z
1/2+x,1/2-y,-z
1/2-x,1/2+y,-z
1/2-x,1/2-y,1/2-z
1/2+x,1/2+y,1/2-z
1/2-x,1/2+y,z
1/2+x,1/2-y,z
loop_
_atom_site_type_symbol
_atom_site_label
_atom_site_fract_x
_atom_site_fract_y
_atom_site_fract_z
Si Si1 0.436593 0.548476 0.317482
Si Si2 0.437134 0.282967 0.819160
Si Si3 0.162495 0.269868 0.169142
Si Si4 0.241746 0.819168 0.669218
Si Si5 0.872608 0.868498 0.183048
O O1 0.417478 0.500000 0.250000
O O2 0.500000 0.563819 0.250000
O O3 0.440804 0.545718 0.500000
O O4 0.387351 0.584344 0.264975
O O5 0.500000 0.268323 0.750000
O O6 0.391533 0.241987 0.782866
O O7 0.417369 0.329740 0.740022
O O8 0.441202 0.290560 0.000000
O O9 0.207092 0.228024 0.160595
O O10 0.199486 0.314008 0.226431
O O11 0.136901 0.280549 0.000000
O O12 0.263537 0.833195 0.500000
O O13 0.195299 0.856722 0.732626
O O14 0.878715 0.872198 0.000000
#
# Coordination Sequence:
#
# PCOD8293290 Si02
#       5
#    16  16  16  16  16
#     4  11  21  33  46  59  76  99 127 159 198 238
#     4  11  20  29  40  55  76 101 130 161 195 230
#     4   9  16  26  39  55  75  97 123 154 188 225
#     4   8  15  26  40  56  74  96 121 152 188 225
#     4  10  19  31  44  59  77  97 126 161 196 232
#
# _framework density 13.877209000000001
#
# number of rings (size 3 to 8) (size 9 to 14) (size 15 to 20)
#    0.000    2.200    0.000    7.200    0.000    5.600 
#    0.000    0.000    0.000    0.000    0.000    0.000 
#    0.000    0.000    0.000    0.000    0.000    1.000 
#
# Total GULP energy -495873.165264 kJ/mol
# GULP energy per Si atom -12396.829132 kJ/mol
# Density = 1.384562 g / cm^3
# Si number density = 13.877209 Si / 1000 Ang^3
#
#
#
# Elastic Constant Matrix: (Units=GPa)
#
#
# Indices 1 2 3 4 5 6 
#
# 1 66.2824 43.8425 33.5316 0.0000 0.0000 0.0000
# 2 43.8425 63.8500 31.8282 0.0000 0.0000 0.0000
# 3 33.5316 31.8282 101.7581 0.0000 0.0000 0.0000
# 4 0.0000 0.0000 0.0000 18.8142 0.0000 0.0000
# 5 0.0000 0.0000 0.0000 0.0000 22.9237 0.0000
# 6 0.0000 0.0000 0.0000 0.0000 0.0000 27.5179
#
#
#
# Elastic Compliance Matrix: (Units=1/GPa)
#
#
# Indices 1 2 3 4 5 6 
#
# 1 0.028910 -0.017892 -0.003930 0.000000 0.000000 0.000000
# 2 -0.017892 0.029627 -0.003371 0.000000 0.000000 0.000000
# 3 -0.003930 -0.003371 0.012177 0.000000 0.000000 0.000000
# 4 0.000000 0.000000 0.000000 0.053151 0.000000 0.000000
# 5 0.000000 0.000000 0.000000 0.000000 0.043623 0.000000
# 6 0.000000 0.000000 0.000000 0.000000 0.000000 0.036340
#
#
# Mechanical properties :
#
#
# Convention : Reuss Voigt Hill
#
# Bulk Modulus (GPa) = 49.19384 50.03278 49.61331
# Shear Modulus (GPa) = 19.15782 22.03038 20.59410
#
# Velocity S-wave (km/s) = 3.71957 3.98870 3.85648
# Velocity P-wave (km/s) = 7.34665 7.57266 7.46051
#
# Compressibility (1/GPa) = 0.02032775
#
# Stress axis : x y z
#
# Youngs Moduli (GPa) = 34.59063 33.75245 82.12340
#
# Poissons Ratio (x) = 0.60388 0.32276
# Poissons Ratio (y) = 0.61888 0.27686
# Poissons Ratio (z) = 0.13595 0.11379
#
# Static dielectric constant tensor:
#      x y z
#    x 2.785060 0.000000 0.000000 
#    y 0.000000 2.543180 0.000000 
#    z 0.000000 0.000000 2.980230 
# 
# 
# High freq. dielectric constant tensor:
#      x y z
#    x 1.512560 0.000000 0.000000 
#    y 0.000000 1.482930 0.000000 
#    z 0.000000 0.000000 1.550160 
# 
# From -- ./inp_files/6242.got.cif
#   From: 2010.03.12/outbox.cif.g09.slc.cpg/sg72_4_cif.got.tgz:6242.got - 2010.04.16 14:54:00.
