data_PCOD8293319
_publ_section_title
;
Structure prediction by ZEFSAII (Michael W. Deem and Ramdas Pophale) SiO2 
 PCOD8293319
Probable space group: I B A M
;
_chemical_formula_sum "Si O2"
_cell_formula_units_Z 116
_cell_length_a 26.422884
_cell_length_b 28.730400
_cell_length_c 9.005606
_cell_angle_alpha 90.000000
_cell_angle_beta 90.000000
_cell_angle_gamma 90.000000
_cell_volume 6836.515977
_symmetry_space_group_name_H-M "I B A M"
_symmetry_group_IT_number 72
_symmetry_cell_setting 'orthorhombic'
loop_
_space_group_symop_operation_xyz
x,y,z
-x,-y,z
x,-y,1/2-z
-x,y,1/2-z
-x,-y,-z
x,y,-z
-x,y,1/2+z
x,-y,1/2+z
1/2+x,1/2+y,1/2+z
1/2-x,1/2-y,1/2+z
1/2+x,1/2-y,-z
1/2-x,1/2+y,-z
1/2-x,1/2-y,1/2-z
1/2+x,1/2+y,1/2-z
1/2-x,1/2+y,z
1/2+x,1/2-y,z
loop_
_atom_site_type_symbol
_atom_site_label
_atom_site_fract_x
_atom_site_fract_y
_atom_site_fract_z
Si Si1 0.246534 0.550012 0.822038
Si Si2 0.000000 0.000000 0.750000
Si Si3 0.329815 0.615132 0.325898
Si Si4 0.798771 0.305063 0.329966
Si Si5 0.654835 0.097725 0.171710
Si Si6 0.448547 0.950867 0.175367
Si Si7 0.597047 0.541314 0.839568
Si Si8 0.305469 0.701876 0.169854
O O1 0.258751 0.500000 0.750000
O O2 0.284892 0.588811 0.759320
O O3 0.190379 0.566160 0.775131
O O4 0.250303 0.546945 0.000000
O O5 0.035901 0.964909 0.842987
O O6 0.317214 0.615514 0.500000
O O7 0.383694 0.591094 0.283397
O O8 0.338930 0.667346 0.268988
O O9 0.778757 0.308505 0.500000
O O10 0.837243 0.347156 0.294821
O O11 0.752259 0.306515 0.217962
O O12 0.825233 0.254689 0.305997
O O13 0.596614 0.085514 0.207453
O O14 0.667643 0.086458 0.000000
O O15 0.500000 0.931083 0.250000
O O16 0.434347 0.000000 0.250000
O O17 0.457032 0.957964 0.000000
O O18 0.623767 0.500000 0.750000
O O19 0.620191 0.534247 0.000000
O O20 0.310126 0.686835 0.000000
#
# Coordination Sequence:
#
# PCOD8293319 Si02
#       8
#    16   4  16  16  16  16  16  16
#     4  12  24  35  48  71 103 140 173 205 246 303
#     4   8  18  36  54  76  98 124 174 212 256 300
#     4  11  21  34  49  72 104 138 169 208 257 303
#     4   9  18  33  52  72 102 135 170 212 255 303
#     4  10  20  35  54  76 101 136 170 210 259 307
#     4  10  20  34  53  76 102 132 171 210 257 303
#     4   9  19  32  51  73  97 128 165 207 253 300
#     4  10  19  31  49  76 102 134 175 212 252 302
#
# _framework density 16.967707000000001
#
# number of rings (size 3 to 8) (size 9 to 14) (size 15 to 20)
#    0.414    1.517    1.379    3.931    0.000    4.966 
#    0.000    0.000    0.000    0.000    1.793    0.000 
#    0.000    0.000    0.000    0.000    0.000    0.000 
#
# Total GULP energy -718615.440161 kJ/mol
# GULP energy per Si atom -12389.921382 kJ/mol
# Density = 1.692909 g / cm^3
# Si number density = 16.967707 Si / 1000 Ang^3
#
#
#
# Elastic Constant Matrix: (Units=GPa)
#
#
# Indices 1 2 3 4 5 6 
#
# 1 81.7864 44.8527 28.8003 0.0000 0.0000 0.0000
# 2 44.8527 116.3172 43.9668 0.0000 0.0000 0.0000
# 3 28.8003 43.9668 96.2793 0.0000 0.0000 0.0000
# 4 0.0000 0.0000 0.0000 26.5096 0.0000 0.0000
# 5 0.0000 0.0000 0.0000 0.0000 8.7022 0.0000
# 6 0.0000 0.0000 0.0000 0.0000 0.0000 22.0599
#
#
#
# Elastic Compliance Matrix: (Units=1/GPa)
#
#
# Indices 1 2 3 4 5 6 
#
# 1 0.015942 -0.005251 -0.002371 0.000000 0.000000 0.000000
# 2 -0.005251 0.012120 -0.003964 0.000000 0.000000 0.000000
# 3 -0.002371 -0.003964 0.012906 0.000000 0.000000 0.000000
# 4 0.000000 0.000000 0.000000 0.037722 0.000000 0.000000
# 5 0.000000 0.000000 0.000000 0.000000 0.114913 0.000000
# 6 0.000000 0.000000 0.000000 0.000000 0.000000 0.045331
#
#
# Mechanical properties :
#
#
# Convention : Reuss Voigt Hill
#
# Bulk Modulus (GPa) = 56.19230 58.84697 57.51963
# Shear Modulus (GPa) = 18.65405 23.23855 20.94630
#
# Velocity S-wave (km/s) = 3.31930 3.70479 3.51733
# Velocity P-wave (km/s) = 6.91949 7.28407 7.10412
#
# Compressibility (1/GPa) = 0.01779603
#
# Stress axis : x y z
#
# Youngs Moduli (GPa) = 62.72923 82.50528 77.48419
#
# Poissons Ratio (x) = 0.43324 0.18369
# Poissons Ratio (y) = 0.32940 0.30716
# Poissons Ratio (z) = 0.14871 0.32706
#
# Static dielectric constant tensor:
#      x y z
#    x 2.986770 0.000000 0.000000 
#    y 0.000000 3.500680 0.000000 
#    z 0.000000 0.000000 3.277850 
# 
# 
# High freq. dielectric constant tensor:
#      x y z
#    x 1.622900 0.000000 0.000000 
#    y 0.000000 1.656040 0.000000 
#    z 0.000000 0.000000 1.666280 
# 
# From -- ./inp_files/9474.got.cif
#   From: 2010.03.12/outbox.cif.g09.slc.cpg/sg72_5_cif.got.tgz:9474.got - 2010.04.16 14:54:00.
