data_PCOD8293553
_publ_section_title
;
Structure prediction by ZEFSAII (Michael W. Deem and Ramdas Pophale) SiO2 
 PCOD8293553
Probable space group: I B A M
;
_chemical_formula_sum "Si O2"
_cell_formula_units_Z 84
_cell_length_a 12.081591
_cell_length_b 17.877428
_cell_length_c 19.073660
_cell_angle_alpha 90.000000
_cell_angle_beta 90.000000
_cell_angle_gamma 90.000000
_cell_volume 4119.677351
_symmetry_space_group_name_H-M "I B A M"
_symmetry_group_IT_number 72
_symmetry_cell_setting 'orthorhombic'
loop_
_space_group_symop_operation_xyz
x,y,z
-x,-y,z
x,-y,1/2-z
-x,y,1/2-z
-x,-y,-z
x,y,-z
-x,y,1/2+z
x,-y,1/2+z
1/2+x,1/2+y,1/2+z
1/2-x,1/2-y,1/2+z
1/2+x,1/2-y,-z
1/2-x,1/2+y,-z
1/2-x,1/2-y,1/2-z
1/2+x,1/2+y,1/2-z
1/2-x,1/2+y,z
1/2+x,1/2-y,z
loop_
_atom_site_type_symbol
_atom_site_label
_atom_site_fract_x
_atom_site_fract_y
_atom_site_fract_z
Si Si1 0.863090 0.653344 0.000000
Si Si2 0.000000 0.000000 0.250000
Si Si3 0.000000 0.500000 0.382017
Si Si4 0.165763 0.821295 0.500000
Si Si5 0.865070 0.134302 0.213746
Si Si6 0.600707 0.093718 0.500000
Si Si7 0.444398 0.701894 0.856618
Si Si8 0.864126 0.630275 0.148947
O O1 0.821547 0.611065 0.930174
O O2 0.806471 0.734059 0.000000
O O3 0.999243 0.654252 0.000000
O O4 0.920000 0.052455 0.203104
O O5 0.090279 0.458202 0.431116
O O6 0.055709 0.561628 0.330599
O O7 0.280206 0.866469 0.500000
O O8 0.094314 0.836805 0.429324
O O9 0.879544 0.162462 0.293080
O O10 0.734901 0.132971 0.203211
O O11 0.924380 0.188920 0.157105
O O12 0.427265 0.790825 0.854526
#
# Coordination Sequence:
#
# PCOD8293553 Si02
#       8
#     8   4   8   8  16   8  16  16
#     4   8  19  33  52  87 114 141 185 235 287 327
#     4   8  20  40  56  76 112 158 184 210 292 362
#     4   9  20  34  54  83 116 154 188 230 288 343
#     4  10  19  33  61  85 104 143 193 231 269 342
#     4  10  21  40  59  78 119 152 178 237 293 334
#     4   9  18  36  53  77 124 152 174 236 300 329
#     4   9  21  37  58  87 111 145 192 236 286 336
#     4  10  19  36  59  83 114 152 193 233 283 337
#
# _framework density 20.389945999999998
#
# number of rings (size 3 to 8) (size 9 to 14) (size 15 to 20)
#    0.000    2.857    0.000    1.143    0.000   12.952 
#    0.000    3.810    0.000   13.143    0.000    0.000 
#    0.000    0.000    0.000    0.000    0.000    0.000 
#
# Total GULP energy -520357.259959 kJ/mol
# GULP energy per Si atom -12389.458570 kJ/mol
# Density = 2.034354 g / cm^3
# Si number density = 20.389946 Si / 1000 Ang^3
#
#
#
# Elastic Constant Matrix: (Units=GPa)
#
#
# Indices 1 2 3 4 5 6 
#
# 1 101.9756 60.1515 46.3444 0.0000 0.0000 0.0000
# 2 60.1515 132.2367 31.1147 0.0000 0.0000 0.0000
# 3 46.3444 31.1147 101.8462 0.0000 0.0000 0.0000
# 4 0.0000 0.0000 0.0000 18.8031 0.0000 0.0000
# 5 0.0000 0.0000 0.0000 0.0000 22.6475 0.0000
# 6 0.0000 0.0000 0.0000 0.0000 0.0000 33.7045
#
#
#
# Elastic Compliance Matrix: (Units=1/GPa)
#
#
# Indices 1 2 3 4 5 6 
#
# 1 0.015711 -0.005888 -0.005350 0.000000 0.000000 0.000000
# 2 -0.005888 0.010354 -0.000484 0.000000 0.000000 0.000000
# 3 -0.005350 -0.000484 0.012401 0.000000 0.000000 0.000000
# 4 0.000000 0.000000 0.000000 0.053183 0.000000 0.000000
# 5 0.000000 0.000000 0.000000 0.000000 0.044155 0.000000
# 6 0.000000 0.000000 0.000000 0.000000 0.000000 0.029670
#
#
# Mechanical properties :
#
#
# Convention : Reuss Voigt Hill
#
# Bulk Modulus (GPa) = 66.56894 67.91998 67.24446
# Shear Modulus (GPa) = 25.78315 28.26087 27.02201
#
# Velocity S-wave (km/s) = 3.55984 3.72697 3.64436
# Velocity P-wave (km/s) = 7.04382 7.20439 7.12456
#
# Compressibility (1/GPa) = 0.01502202
#
# Stress axis : x y z
#
# Youngs Moduli (GPa) = 63.65117 96.57896 80.63672
#
# Poissons Ratio (x) = 0.56861 0.43143
# Poissons Ratio (y) = 0.37475 0.03905
# Poissons Ratio (z) = 0.34056 0.04677
#
# Static dielectric constant tensor:
#      x y z
#    x 3.498730 0.000000 0.000000 
#    y 0.000000 3.893730 0.000000 
#    z 0.000000 0.000000 3.806500 
# 
# 
# High freq. dielectric constant tensor:
#      x y z
#    x 1.772570 0.000000 0.000000 
#    y 0.000000 1.802390 0.000000 
#    z 0.000000 0.000000 1.791180 
# 
# From -- ./inp_files/36844.got.cif
#   From: 2010.03.12/outbox.cif.g09.slc.cpg/sg72_19_cif.got.tgz:36844.got - 2010.04.16 14:54:00.
