data_PCOD8293279
_publ_section_title
;
Structure prediction by ZEFSAII (Michael W. Deem and Ramdas Pophale) SiO2 
 PCOD8293279
Probable space group: I B A M
;
_chemical_formula_sum "Si O2"
_cell_formula_units_Z 72
_cell_length_a 20.609321
_cell_length_b 20.242880
_cell_length_c 9.796983
_cell_angle_alpha 90.000000
_cell_angle_beta 90.000000
_cell_angle_gamma 90.000000
_cell_volume 4087.223048
_symmetry_space_group_name_H-M "I B A M"
_symmetry_group_IT_number 72
_symmetry_cell_setting 'orthorhombic'
loop_
_space_group_symop_operation_xyz
x,y,z
-x,-y,z
x,-y,1/2-z
-x,y,1/2-z
-x,-y,-z
x,y,-z
-x,y,1/2+z
x,-y,1/2+z
1/2+x,1/2+y,1/2+z
1/2-x,1/2-y,1/2+z
1/2+x,1/2-y,-z
1/2-x,1/2+y,-z
1/2-x,1/2-y,1/2-z
1/2+x,1/2+y,1/2-z
1/2-x,1/2+y,z
1/2+x,1/2-y,z
loop_
_atom_site_type_symbol
_atom_site_label
_atom_site_fract_x
_atom_site_fract_y
_atom_site_fract_z
Si Si1 0.299643 0.293923 0.338442
Si Si2 0.162059 0.500000 0.750000
Si Si3 0.054187 0.590510 0.651355
Si Si4 0.784989 0.944339 0.848261
Si Si5 0.940931 0.742121 0.842094
O O1 0.284823 0.283804 0.500000
O O2 0.250000 0.250000 0.250000
O O3 0.294007 0.370212 0.293136
O O4 0.373498 0.276062 0.302266
O O5 0.119898 0.549543 0.659999
O O6 0.207536 0.458031 0.647384
O O7 0.025321 0.585881 0.500000
O O8 0.069734 0.665395 0.691613
O O9 0.000000 0.559897 0.750000
O O10 0.818695 0.000000 0.750000
O O11 0.814565 0.951339 0.000000
O O12 0.000000 0.770588 0.750000
O O13 0.958693 0.754629 0.000000
#
# Coordination Sequence:
#
# PCOD8293279 Si02
#       5
#    16   8  16  16  16
#     4  10  20  35  55  82 109 140 180 226 271 320
#     4  10  19  30  50  68  97 132 174 200 258 308
#     4  10  20  32  46  67  96 133 170 207 248 302
#     4   9  20  34  51  74 103 134 169 212 262 314
#     4   9  19  35  54  75 104 137 174 219 266 313
#
# _framework density 17.615873000000001
#
# number of rings (size 3 to 8) (size 9 to 14) (size 15 to 20)
#    0.667    1.778    0.000    2.333    0.000    4.444 
#    0.000    4.444    0.000    0.667    0.000    4.667 
#    0.000    0.000    0.000    0.000    0.000    0.000 
#
# Total GULP energy -446183.217877 kJ/mol
# GULP energy per Si atom -12393.978274 kJ/mol
# Density = 1.757578 g / cm^3
# Si number density = 17.615873 Si / 1000 Ang^3
#
#
#
# Elastic Constant Matrix: (Units=GPa)
#
#
# Indices 1 2 3 4 5 6 
#
# 1 107.1517 49.9468 40.8583 0.0000 0.0000 0.0000
# 2 49.9468 119.6844 50.6738 0.0000 0.0000 0.0000
# 3 40.8583 50.6738 83.6752 0.0000 0.0000 0.0000
# 4 0.0000 0.0000 0.0000 25.3843 0.0000 0.0000
# 5 0.0000 0.0000 0.0000 0.0000 27.0444 0.0000
# 6 0.0000 0.0000 0.0000 0.0000 0.0000 31.9883
#
#
#
# Elastic Compliance Matrix: (Units=1/GPa)
#
#
# Indices 1 2 3 4 5 6 
#
# 1 0.012490 -0.003537 -0.003957 0.000000 0.000000 0.000000
# 2 -0.003537 0.012238 -0.005684 0.000000 0.000000 0.000000
# 3 -0.003957 -0.005684 0.017325 0.000000 0.000000 0.000000
# 4 0.000000 0.000000 0.000000 0.039394 0.000000 0.000000
# 5 0.000000 0.000000 0.000000 0.000000 0.036976 0.000000
# 6 0.000000 0.000000 0.000000 0.000000 0.000000 0.031261
#
#
# Mechanical properties :
#
#
# Convention : Reuss Voigt Hill
#
# Bulk Modulus (GPa) = 63.70501 65.94101 64.82301
# Shear Modulus (GPa) = 27.58247 28.15221 27.86734
#
# Velocity S-wave (km/s) = 3.96128 4.00198 3.98168
# Velocity P-wave (km/s) = 7.56070 7.67258 7.61685
#
# Compressibility (1/GPa) = 0.01569735
#
# Stress axis : x y z
#
# Youngs Moduli (GPa) = 80.06341 81.71204 57.71853
#
# Poissons Ratio (x) = 0.28902 0.22838
# Poissons Ratio (y) = 0.28319 0.32809
# Poissons Ratio (z) = 0.31680 0.46447
#
# Static dielectric constant tensor:
#      x y z
#    x 3.139340 0.000000 0.000000 
#    y 0.000000 3.270550 0.000000 
#    z 0.000000 0.000000 3.216610 
# 
# 
# High freq. dielectric constant tensor:
#      x y z
#    x 1.659280 0.000000 0.000000 
#    y 0.000000 1.682660 0.000000 
#    z 0.000000 0.000000 1.680370 
# 
# From -- ./inp_files/13698.got.cif
#   From: 2010.03.12/outbox.cif.g09.slc.cpg/sg72_7_cif.got.tgz:13698.got - 2010.04.16 14:54:00.
