data_PCOD8293958
_publ_section_title
;
Structure prediction by ZEFSAII (Michael W. Deem and Ramdas Pophale) SiO2 
 PCOD8293958
Probable space group: I B A M
;
_chemical_formula_sum "Si O2"
_cell_formula_units_Z 116
_cell_length_a 21.546735
_cell_length_b 32.169562
_cell_length_c 8.929241
_cell_angle_alpha 90.000000
_cell_angle_beta 90.000000
_cell_angle_gamma 90.000000
_cell_volume 6189.294715
_symmetry_space_group_name_H-M "I B A M"
_symmetry_group_IT_number 72
_symmetry_cell_setting 'orthorhombic'
loop_
_space_group_symop_operation_xyz
x,y,z
-x,-y,z
x,-y,1/2-z
-x,y,1/2-z
-x,-y,-z
x,y,-z
-x,y,1/2+z
x,-y,1/2+z
1/2+x,1/2+y,1/2+z
1/2-x,1/2-y,1/2+z
1/2+x,1/2-y,-z
1/2-x,1/2+y,-z
1/2-x,1/2-y,1/2-z
1/2+x,1/2+y,1/2-z
1/2-x,1/2+y,z
1/2+x,1/2-y,z
loop_
_atom_site_type_symbol
_atom_site_label
_atom_site_fract_x
_atom_site_fract_y
_atom_site_fract_z
Si Si1 0.879647 0.961186 0.665448
Si Si2 0.500000 0.500000 0.250000
Si Si3 0.433088 0.084220 0.673128
Si Si4 0.434966 0.821680 0.172120
Si Si5 0.167200 0.727073 0.828044
Si Si6 0.200523 0.899195 0.324733
Si Si7 0.781120 0.186386 0.829183
Si Si8 0.184078 0.456448 0.677932
O O1 0.851984 0.958585 0.500000
O O2 0.860858 0.919495 0.751709
O O3 0.847149 0.000000 0.750000
O O4 0.954511 0.969129 0.656500
O O5 0.500000 0.078094 0.750000
O O6 0.438830 0.070411 0.500000
O O7 0.408250 0.131585 0.683365
O O8 0.382649 0.056280 0.756992
O O9 0.500000 0.822526 0.250000
O O10 0.398311 0.788652 0.271127
O O11 0.438663 0.806961 0.000000
O O12 0.167974 0.777076 0.812454
O O13 0.216002 0.705352 0.719602
O O14 0.179466 0.713763 0.000000
O O15 0.191119 0.901235 0.500000
O O16 0.200966 0.851655 0.275140
O O17 0.263608 0.922664 0.275854
O O18 0.775575 0.170972 0.000000
O O19 0.204247 0.500000 0.750000
O O20 0.178728 0.460566 0.500000
#
# Coordination Sequence:
#
# PCOD8293958 Si02
#       8
#    16   4  16  16  16  16  16  16
#     4  10  20  35  58  84 113 145 184 229 274 328
#     4   8  22  36  62  88 114 148 188 228 274 324
#     4  10  21  37  57  81 109 144 186 230 274 325
#     4  10  20  34  56  83 111 145 183 227 276 326
#     4  10  20  35  56  82 112 145 184 228 274 330
#     4  11  23  37  57  84 115 148 185 231 283 334
#     4  10  21  36  56  82 112 147 184 226 277 331
#     4  11  24  39  55  79 110 145 184 228 277 328
#
# _framework density 18.742038999999998
#
# number of rings (size 3 to 8) (size 9 to 14) (size 15 to 20)
#    0.414    1.379    0.000    4.345    0.000    9.103 
#    0.000    1.379    1.517    0.000    0.000    0.000 
#    0.000    0.000    0.000    0.000    0.000    0.000 
#
# Total GULP energy -719058.924769 kJ/mol
# GULP energy per Si atom -12397.567668 kJ/mol
# Density = 1.869938 g / cm^3
# Si number density = 18.742039 Si / 1000 Ang^3
#
#
#
# Elastic Constant Matrix: (Units=GPa)
#
#
# Indices 1 2 3 4 5 6 
#
# 1 63.3197 35.6588 33.6111 0.0000 0.0000 0.0000
# 2 35.6588 99.1236 43.9953 0.0000 0.0000 0.0000
# 3 33.6111 43.9953 114.1666 -0.0001 -0.0002 0.0000
# 4 0.0000 0.0000 -0.0001 33.8292 0.0000 0.0000
# 5 0.0000 0.0000 -0.0002 0.0000 26.7221 0.0000
# 6 0.0000 0.0000 0.0000 0.0000 0.0000 31.6975
#
#
#
# Elastic Compliance Matrix: (Units=1/GPa)
#
#
# Indices 1 2 3 4 5 6 
#
# 1 0.021209 -0.005861 -0.003985 0.000000 0.000000 0.000000
# 2 -0.005861 0.013790 -0.003588 0.000000 0.000000 0.000000
# 3 -0.003985 -0.003588 0.011315 0.000000 0.000000 0.000000
# 4 0.000000 0.000000 0.000000 0.029560 0.000000 0.000000
# 5 0.000000 0.000000 0.000000 0.000000 0.037422 0.000000
# 6 0.000000 0.000000 0.000000 0.000000 0.000000 0.031548
#
#
# Mechanical properties :
#
#
# Convention : Reuss Voigt Hill
#
# Bulk Modulus (GPa) = 51.42906 55.90448 53.66677
# Shear Modulus (GPa) = 28.05907 29.33940 28.69924
#
# Velocity S-wave (km/s) = 3.87346 3.96085 3.91740
# Velocity P-wave (km/s) = 6.89239 7.12818 7.01127
#
# Compressibility (1/GPa) = 0.01944426
#
# Stress axis : x y z
#
# Youngs Moduli (GPa) = 47.14990 72.51886 88.37571
#
# Poissons Ratio (x) = 0.42502 0.35222
# Poissons Ratio (y) = 0.27634 0.31714
# Poissons Ratio (z) = 0.18791 0.26023
#
# Static dielectric constant tensor:
#      x y z
#    x 3.248750 0.000000 0.000000 
#    y 0.000000 3.695890 0.000000 
#    z 0.000000 0.000000 3.543840 
# 
# 
# High freq. dielectric constant tensor:
#      x y z
#    x 1.715040 0.000000 0.000000 
#    y 0.000000 1.722020 0.000000 
#    z 0.000000 0.000000 1.746550 
# 
# From -- ./inp_files/7266.got.cif
#   From: 2010.03.12/outbox.cif.g09.slc.cpg/sg72_4_cif.got.tgz:7266.got - 2010.04.16 14:54:00.
