data_PCOD8293166
_publ_section_title
;
Structure prediction by ZEFSAII (Michael W. Deem and Ramdas Pophale) SiO2 
 PCOD8293166
Probable space group: I B A M
;
_chemical_formula_sum "Si O2"
_cell_formula_units_Z 72
_cell_length_a 9.255427
_cell_length_b 25.699111
_cell_length_c 14.159869
_cell_angle_alpha 90.000000
_cell_angle_beta 90.000000
_cell_angle_gamma 90.000000
_cell_volume 3368.013282
_symmetry_space_group_name_H-M "I B A M"
_symmetry_group_IT_number 72
_symmetry_cell_setting 'orthorhombic'
loop_
_space_group_symop_operation_xyz
x,y,z
-x,-y,z
x,-y,1/2-z
-x,y,1/2-z
-x,-y,-z
x,y,-z
-x,y,1/2+z
x,-y,1/2+z
1/2+x,1/2+y,1/2+z
1/2-x,1/2-y,1/2+z
1/2+x,1/2-y,-z
1/2-x,1/2+y,-z
1/2-x,1/2-y,1/2-z
1/2+x,1/2+y,1/2-z
1/2-x,1/2+y,z
1/2+x,1/2-y,z
loop_
_atom_site_type_symbol
_atom_site_label
_atom_site_fract_x
_atom_site_fract_y
_atom_site_fract_z
Si Si1 0.663503 0.988079 0.645336
Si Si2 0.798061 0.820808 0.000000
Si Si3 0.993136 0.350014 0.500000
Si Si4 0.639638 0.875076 0.685132
Si Si5 0.659346 0.702257 0.710448
Si Si6 0.773733 0.567165 0.500000
O O1 0.699472 0.926956 0.633313
O O2 0.500000 0.000000 0.616846
O O3 0.704006 0.000000 0.750000
O O4 0.759586 0.028672 0.586876
O O5 0.858562 0.795955 0.096559
O O6 0.625943 0.809576 0.000000
O O7 0.834050 0.883212 0.000000
O O8 0.902707 0.338456 0.404003
O O9 0.061491 0.408943 0.500000
O O10 0.500000 0.888682 0.750000
O O11 0.759583 0.849768 0.753122
O O12 0.500000 0.704904 0.750000
O O13 0.750000 0.750000 0.750000
#
# Coordination Sequence:
#
# PCOD8293166 Si02
#       6
#    16   8   8  16  16   8
#     4  11  16  26  53  96 135 171 221 271 320 389
#     4  10  22  46  73  98 145 172 220 294 351 406
#     4  10  19  32  67  98 138 175 215 284 334 394
#     4  12  20  37  63 103 139 180 231 285 340 400
#     4  12  29  49  74  99 134 182 237 292 356 417
#     4  10  18  33  57 104 138 183 220 280 339 392
#
# _framework density 21.377587999999999
#
# number of rings (size 3 to 8) (size 9 to 14) (size 15 to 20)
#    0.667    0.222    6.667    3.000    0.000    2.667 
#    0.000    0.000    0.000    7.333    0.000    0.000 
#    0.000    0.000    0.000    0.000    0.000    0.000 
#
# Total GULP energy -446015.008770 kJ/mol
# GULP energy per Si atom -12389.305799 kJ/mol
# Density = 2.132893 g / cm^3
# Si number density = 21.377588 Si / 1000 Ang^3
#
#
#
# Elastic Constant Matrix: (Units=GPa)
#
#
# Indices 1 2 3 4 5 6 
#
# 1 83.6688 34.0297 38.0033 -0.0001 0.0000 0.0000
# 2 34.0297 107.5948 24.2765 -0.0002 0.0000 0.0000
# 3 38.0033 24.2765 132.5566 -0.0006 0.0001 0.0000
# 4 -0.0001 -0.0002 -0.0006 26.0624 0.0001 0.0000
# 5 0.0000 0.0000 0.0001 0.0001 23.7193 -0.0001
# 6 0.0000 0.0000 0.0000 0.0000 -0.0001 15.9842
#
#
#
# Elastic Compliance Matrix: (Units=1/GPa)
#
#
# Indices 1 2 3 4 5 6 
#
# 1 0.015228 -0.003996 -0.003634 0.000000 0.000000 0.000000
# 2 -0.003996 0.010743 -0.000822 0.000000 0.000000 0.000000
# 3 -0.003634 -0.000822 0.008736 0.000000 0.000000 0.000000
# 4 0.000000 0.000000 0.000000 0.038369 0.000000 0.000000
# 5 0.000000 0.000000 0.000000 0.000000 0.042160 0.000000
# 6 0.000000 0.000000 0.000000 0.000000 0.000000 0.062562
#
#
# Mechanical properties :
#
#
# Convention : Reuss Voigt Hill
#
# Bulk Modulus (GPa) = 56.16852 57.38214 56.77533
# Shear Modulus (GPa) = 24.92063 28.32056 26.62059
#
# Velocity S-wave (km/s) = 3.41799 3.64370 3.53265
# Velocity P-wave (km/s) = 6.47367 6.67851 6.57689
#
# Compressibility (1/GPa) = 0.01780357
#
# Stress axis : x y z
#
# Youngs Moduli (GPa) = 65.66947 93.07960 114.46533
#
# Poissons Ratio (x) = 0.37197 0.41595
# Poissons Ratio (y) = 0.26243 0.09407
# Poissons Ratio (z) = 0.23863 0.07650
#
# Static dielectric constant tensor:
#      x y z
#    x 3.342660 0.000000 0.000000 
#    y 0.000000 4.268190 0.000000 
#    z 0.000000 0.000000 4.049840 
# 
# 
# High freq. dielectric constant tensor:
#      x y z
#    x 1.768210 0.000000 0.000000 
#    y 0.000000 1.840500 0.000000 
#    z 0.000000 0.000000 1.863520 
# 
# From -- ./inp_files/18923.got.cif
#   From: 2010.03.12/outbox.cif.g09.slc.cpg/sg72_10_cif.got.tgz:18923.got - 2010.04.16 14:54:00.
