data_PCOD8293714
_publ_section_title
;
Structure prediction by ZEFSAII (Michael W. Deem and Ramdas Pophale) SiO2 
 PCOD8293714
Probable space group: I B A M
;
_chemical_formula_sum "Si O2"
_cell_formula_units_Z 96
_cell_length_a 17.284442
_cell_length_b 21.703935
_cell_length_c 14.126272
_cell_angle_alpha 90.000000
_cell_angle_beta 90.000000
_cell_angle_gamma 90.000000
_cell_volume 5299.335409
_symmetry_space_group_name_H-M "I B A M"
_symmetry_group_IT_number 72
_symmetry_cell_setting 'orthorhombic'
loop_
_space_group_symop_operation_xyz
x,y,z
-x,-y,z
x,-y,1/2-z
-x,y,1/2-z
-x,-y,-z
x,y,-z
-x,y,1/2+z
x,-y,1/2+z
1/2+x,1/2+y,1/2+z
1/2-x,1/2-y,1/2+z
1/2+x,1/2-y,-z
1/2-x,1/2+y,-z
1/2-x,1/2-y,1/2-z
1/2+x,1/2+y,1/2-z
1/2-x,1/2+y,z
1/2+x,1/2-y,z
loop_
_atom_site_type_symbol
_atom_site_label
_atom_site_fract_x
_atom_site_fract_y
_atom_site_fract_z
Si Si1 0.587584 0.782384 0.239603
Si Si2 0.799727 0.059725 0.692423
Si Si3 0.786125 0.286909 0.391768
Si Si4 0.043792 0.097971 0.500000
Si Si5 0.798288 0.661307 0.390738
Si Si6 0.612935 0.536759 0.500000
Si Si7 0.870489 0.847223 0.674198
O O1 0.500000 0.804902 0.250000
O O2 0.640010 0.804054 0.328160
O O3 0.618678 0.814774 0.144216
O O4 0.591228 0.708914 0.230433
O O5 0.726127 0.103002 0.672107
O O6 0.835226 0.041762 0.592435
O O7 0.863723 0.095094 0.755002
O O8 0.770920 0.000000 0.750000
O O9 0.809690 0.298114 0.500000
O O10 0.764203 0.215580 0.373513
O O11 0.713975 0.330447 0.366636
O O12 0.070652 0.135580 0.591235
O O13 0.950743 0.091386 0.500000
O O14 0.077383 0.030196 0.500000
O O15 0.804391 0.643034 0.500000
#
# Coordination Sequence:
#
# PCOD8293714 Si02
#       7
#    16  16  16   8  16   8  16
#     4  11  23  36  56  90 118 149 191 242 307 352
#     4  12  22  37  63  83 113 160 201 235 283 340
#     4  10  19  36  60  80 110 152 192 239 292 346
#     4  11  24  40  53  82 127 153 204 245 283 337
#     4  10  20  38  61  83 115 149 194 242 286 347
#     4  11  26  38  51  86 121 165 198 238 283 337
#     4  11  21  39  58  82 113 153 197 245 282 348
#
# _framework density 18.115479000000001
#
# number of rings (size 3 to 8) (size 9 to 14) (size 15 to 20)
#    0.000    1.167    6.667    1.000    3.500    0.667 
#    0.000    0.000    0.000    0.500    0.000    1.167 
#    0.000    0.000    0.000    0.000    0.000    0.000 
#
# Total GULP energy -595326.112985 kJ/mol
# GULP energy per Si atom -12402.627354 kJ/mol
# Density = 1.807425 g / cm^3
# Si number density = 18.115479 Si / 1000 Ang^3
#
#
#
# Elastic Constant Matrix: (Units=GPa)
#
#
# Indices 1 2 3 4 5 6 
#
# 1 91.8221 10.7731 30.0696 0.0000 0.0000 0.0000
# 2 10.7731 64.7804 28.5065 0.0000 0.0000 0.0000
# 3 30.0696 28.5065 106.5845 0.0000 0.0000 0.0000
# 4 0.0000 0.0000 0.0000 39.0381 0.0000 0.0000
# 5 0.0000 0.0000 0.0000 0.0000 24.5868 0.0000
# 6 0.0000 0.0000 0.0000 0.0000 0.0000 18.1817
#
#
#
# Elastic Compliance Matrix: (Units=1/GPa)
#
#
# Indices 1 2 3 4 5 6 
#
# 1 0.012018 -0.000574 -0.003237 0.000000 0.000000 0.000000
# 2 -0.000574 0.017523 -0.004525 0.000000 0.000000 0.000000
# 3 -0.003237 -0.004525 0.011506 0.000000 0.000000 0.000000
# 4 0.000000 0.000000 0.000000 0.025616 0.000000 0.000000
# 5 0.000000 0.000000 0.000000 0.000000 0.040672 0.000000
# 6 0.000000 0.000000 0.000000 0.000000 0.000000 0.055000
#
#
# Mechanical properties :
#
#
# Convention : Reuss Voigt Hill
#
# Bulk Modulus (GPa) = 41.02525 44.65395 42.83960
# Shear Modulus (GPa) = 26.71905 29.28384 28.00145
#
# Velocity S-wave (km/s) = 3.84465 4.02495 3.93583
# Velocity P-wave (km/s) = 6.51184 6.80466 6.65986
#
# Compressibility (1/GPa) = 0.02437523
#
# Stress axis : x y z
#
# Youngs Moduli (GPa) = 83.20838 57.06675 86.91427
#
# Poissons Ratio (x) = 0.03277 0.28134
# Poissons Ratio (y) = 0.04778 0.39326
# Poissons Ratio (z) = 0.26934 0.25821
#
# Static dielectric constant tensor:
#      x y z
#    x 3.170130 0.000000 0.000000 
#    y 0.000000 3.341440 0.000000 
#    z 0.000000 0.000000 3.578910 
# 
# 
# High freq. dielectric constant tensor:
#      x y z
#    x 1.675060 0.000000 0.000000 
#    y 0.000000 1.689010 0.000000 
#    z 0.000000 0.000000 1.723790 
# 
# From -- ./inp_files/21903.got.cif
#   From: 2010.03.12/outbox.cif.g09.slc.cpg/sg72_11_cif.got.tgz:21903.got - 2010.04.16 14:54:00.
