data_PCOD8293872
_publ_section_title
;
Structure prediction by ZEFSAII (Michael W. Deem and Ramdas Pophale) SiO2 
 PCOD8293872
Probable space group: I B A M
;
_chemical_formula_sum "Si O2"
_cell_formula_units_Z 112
_cell_length_a 31.618177
_cell_length_b 11.613713
_cell_length_c 14.168523
_cell_angle_alpha 90.000000
_cell_angle_beta 90.000000
_cell_angle_gamma 90.000000
_cell_volume 5202.744458
_symmetry_space_group_name_H-M "I B A M"
_symmetry_group_IT_number 72
_symmetry_cell_setting 'orthorhombic'
loop_
_space_group_symop_operation_xyz
x,y,z
-x,-y,z
x,-y,1/2-z
-x,y,1/2-z
-x,-y,-z
x,y,-z
-x,y,1/2+z
x,-y,1/2+z
1/2+x,1/2+y,1/2+z
1/2-x,1/2-y,1/2+z
1/2+x,1/2-y,-z
1/2-x,1/2+y,-z
1/2-x,1/2-y,1/2-z
1/2+x,1/2+y,1/2-z
1/2-x,1/2+y,z
1/2+x,1/2-y,z
loop_
_atom_site_type_symbol
_atom_site_label
_atom_site_fract_x
_atom_site_fract_y
_atom_site_fract_z
Si Si1 0.730364 0.805879 0.893775
Si Si2 0.584297 0.032298 0.893882
Si Si3 0.056200 0.711013 0.896188
Si Si4 0.821311 0.531920 0.896282
Si Si5 0.486542 0.378239 0.356694
Si Si6 0.811233 0.756185 0.789834
Si Si7 0.407349 0.731043 0.794123
O O1 0.778964 0.818897 0.860428
O O2 0.703806 0.727621 0.819097
O O3 0.712916 0.933374 0.893144
O O4 0.727599 0.752747 0.000000
O O5 0.552727 0.925656 0.870597
O O6 0.631693 0.980487 0.881266
O O7 0.579593 0.139314 0.823492
O O8 0.576608 0.077818 0.000000
O O9 0.083121 0.779405 0.817695
O O10 0.009732 0.768902 0.904230
O O11 0.078018 0.721463 0.000000
O O12 0.810339 0.620563 0.813475
O O13 0.819540 0.592798 0.000000
O O14 0.500000 0.500000 0.405873
O O15 0.500000 0.382590 0.250000
O O16 0.435746 0.356886 0.357055
O O17 0.858500 0.803170 0.809210
#
# Coordination Sequence:
#
# PCOD8293872 Si02
#       7
#    16  16  16  16  16  16  16
#     4  10  20  33  53  80 114 150 185 227 281 344
#     4   9  18  32  54  88 120 146 181 232 289 343
#     4  10  20  34  56  85 116 146 184 234 293 350
#     4   9  17  32  55  79 109 146 181 225 280 339
#     4   9  20  39  60  78 105 152 199 241 287 336
#     4  10  20  34  56  83 109 147 189 232 281 339
#     4  10  20  36  60  86 113 148 192 241 287 344
#
# _framework density 21.527100000000001
#
# number of rings (size 3 to 8) (size 9 to 14) (size 15 to 20)
#    0.000    2.429    0.000    2.143    0.000    6.000 
#    0.000    3.571   28.286    0.000    0.000    0.000 
#    0.000    0.000    0.000    0.000    0.000    0.000 
#
# Total GULP energy -693875.904786 kJ/mol
# GULP energy per Si atom -12390.641157 kJ/mol
# Density = 2.147810 g / cm^3
# Si number density = 21.527100 Si / 1000 Ang^3
#
#
#
# Elastic Constant Matrix: (Units=GPa)
#
#
# Indices 1 2 3 4 5 6 
#
# 1 149.4217 60.9516 36.8885 0.0000 0.0000 0.0000
# 2 60.9516 76.6589 23.2470 0.0000 0.0000 0.0000
# 3 36.8885 23.2470 116.3032 0.0000 0.0000 0.0000
# 4 0.0000 0.0000 0.0000 7.9329 0.0000 0.0000
# 5 0.0000 0.0000 0.0000 0.0000 11.6709 0.0000
# 6 0.0000 0.0000 0.0000 0.0000 0.0000 36.6195
#
#
#
# Elastic Compliance Matrix: (Units=1/GPa)
#
#
# Indices 1 2 3 4 5 6 
#
# 1 0.010219 -0.007603 -0.001721 0.000000 0.000000 0.000000
# 2 -0.007603 0.019543 -0.001495 0.000000 0.000000 0.000000
# 3 -0.001721 -0.001495 0.009443 0.000000 0.000000 0.000000
# 4 0.000000 0.000000 0.000000 0.126057 0.000000 0.000000
# 5 0.000000 0.000000 0.000000 0.000000 0.085683 0.000000
# 6 0.000000 0.000000 0.000000 0.000000 0.000000 0.027308
#
#
# Mechanical properties :
#
#
# Convention : Reuss Voigt Hill
#
# Bulk Modulus (GPa) = 56.92659 64.95090 60.93875
# Shear Modulus (GPa) = 16.35337 25.99776 21.17556
#
# Velocity S-wave (km/s) = 2.75919 3.47893 3.13975
# Velocity P-wave (km/s) = 6.05412 6.80988 6.44309
#
# Compressibility (1/GPa) = 0.01756648
#
# Stress axis : x y z
#
# Youngs Moduli (GPa) = 97.85850 51.16847 105.89831
#
# Poissons Ratio (x) = 0.38903 0.18230
# Poissons Ratio (y) = 0.74402 0.15831
# Poissons Ratio (z) = 0.16846 0.07649
#
# Static dielectric constant tensor:
#      x y z
#    x 4.040210 0.000000 0.000000 
#    y 0.000000 3.842130 0.000000 
#    z 0.000000 0.000000 4.230110 
# 
# 
# High freq. dielectric constant tensor:
#      x y z
#    x 1.836410 0.000000 0.000000 
#    y 0.000000 1.802560 0.000000 
#    z 0.000000 0.000000 1.861480 
# 
# From -- ./inp_files/26389.got.cif
#   From: 2010.03.12/outbox.cif.g09.slc.cpg/sg72_14_cif.got.tgz:26389.got - 2010.04.16 14:54:00.
