data_PCOD8293296
_publ_section_title
;
Structure prediction by ZEFSAII (Michael W. Deem and Ramdas Pophale) SiO2 
 PCOD8293296
Probable space group: I B A M
;
_chemical_formula_sum "Si O2"
_cell_formula_units_Z 96
_cell_length_a 8.923528
_cell_length_b 21.303751
_cell_length_c 23.548953
_cell_angle_alpha 90.000000
_cell_angle_beta 90.000000
_cell_angle_gamma 90.000000
_cell_volume 4476.764727
_symmetry_space_group_name_H-M "I B A M"
_symmetry_group_IT_number 72
_symmetry_cell_setting 'orthorhombic'
loop_
_space_group_symop_operation_xyz
x,y,z
-x,-y,z
x,-y,1/2-z
-x,y,1/2-z
-x,-y,-z
x,y,-z
-x,y,1/2+z
x,-y,1/2+z
1/2+x,1/2+y,1/2+z
1/2-x,1/2-y,1/2+z
1/2+x,1/2-y,-z
1/2-x,1/2+y,-z
1/2-x,1/2-y,1/2-z
1/2+x,1/2+y,1/2-z
1/2-x,1/2+y,z
1/2+x,1/2-y,z
loop_
_atom_site_type_symbol
_atom_site_label
_atom_site_fract_x
_atom_site_fract_y
_atom_site_fract_z
Si Si1 0.925544 0.644204 0.438173
Si Si2 0.159030 0.402741 0.730291
Si Si3 0.760228 0.093922 0.064025
Si Si4 0.167653 0.473614 0.621767
Si Si5 0.467214 0.784670 0.667325
Si Si6 0.296508 0.334161 0.172150
O O1 0.872059 0.666529 0.500000
O O2 0.819423 0.588629 0.416357
O O3 0.917889 0.705228 0.398167
O O4 0.089480 0.614512 0.439800
O O5 0.225636 0.452723 0.684831
O O6 0.124780 0.334558 0.704026
O O7 0.276074 0.391370 0.782429
O O8 0.000000 0.431488 0.750000
O O9 0.840195 0.139114 0.109843
O O10 0.772979 0.024189 0.090894
O O11 0.831284 0.096237 0.000000
O O12 0.000000 0.500000 0.627178
O O13 0.428419 0.714361 0.688204
O O14 0.643659 0.794418 0.672375
#
# Coordination Sequence:
#
# PCOD8293296 Si02
#       6
#    16  16  16  16  16  16
#     4   8  14  25  41  62  88 119 153 187 226 274
#     4   9  17  28  43  65  91 118 151 189 230 275
#     4   9  17  27  41  65  96 124 149 186 236 279
#     4   9  15  24  41  65  93 120 144 182 238 286
#     4   9  18  30  45  65  91 124 157 191 229 270
#     4  10  19  31  46  66  95 126 156 190 227 271
#
# _framework density 21.444057000000001
#
# number of rings (size 3 to 8) (size 9 to 14) (size 15 to 20)
#    0.000    3.000    0.000    4.000    0.000    5.000 
#    0.000    0.000    0.000    0.000    0.000    4.667 
#    0.000   44.000    0.000    0.667    0.000    0.000 
#
# Total GULP energy -594660.197883 kJ/mol
# GULP energy per Si atom -12388.754123 kJ/mol
# Density = 2.139525 g / cm^3
# Si number density = 21.444057 Si / 1000 Ang^3
#
#
#
# Elastic Constant Matrix: (Units=GPa)
#
#
# Indices 1 2 3 4 5 6 
#
# 1 8.7929 6.4908 7.8326 0.0000 0.0000 0.0000
# 2 6.4908 52.9455 21.3365 0.0000 0.0000 0.0000
# 3 7.8326 21.3365 161.3604 0.0000 0.0000 0.0000
# 4 0.0000 0.0000 0.0000 21.4248 0.0000 0.0000
# 5 0.0000 0.0000 0.0000 0.0000 8.9893 0.0000
# 6 0.0000 0.0000 0.0000 0.0000 0.0000 13.0943
#
#
#
# Elastic Compliance Matrix: (Units=1/GPa)
#
#
# Indices 1 2 3 4 5 6 
#
# 1 0.127893 -0.013919 -0.004368 0.000000 0.000000 0.000000
# 2 -0.013919 0.021465 -0.002163 0.000000 0.000000 0.000000
# 3 -0.004368 -0.002163 0.006695 0.000000 0.000000 0.000000
# 4 0.000000 0.000000 0.000000 0.046675 0.000000 0.000000
# 5 0.000000 0.000000 0.000000 0.000000 0.111243 0.000000
# 6 0.000000 0.000000 0.000000 0.000000 0.000000 0.076369
#
#
# Mechanical properties :
#
#
# Convention : Reuss Voigt Hill
#
# Bulk Modulus (GPa) = 8.68389 32.71318 20.69854
# Shear Modulus (GPa) = 10.64679 21.19760 15.92220
#
# Velocity S-wave (km/s) = 2.23063 3.14746 2.72784
# Velocity P-wave (km/s) = 3.26995 5.33825 4.42660
#
# Compressibility (1/GPa) = 0.11515574
#
# Stress axis : x y z
#
# Youngs Moduli (GPa) = 7.81901 46.58696 149.35888
#
# Poissons Ratio (x) = 0.64843 0.65234
# Poissons Ratio (y) = 0.10883 0.32302
# Poissons Ratio (z) = 0.03415 0.10075
#
# Static dielectric constant tensor:
#      x y z
#    x 3.011350 0.000000 0.000000 
#    y 0.000000 3.777600 0.000000 
#    z 0.000000 0.000000 4.614110 
# 
# 
# High freq. dielectric constant tensor:
#      x y z
#    x 1.750850 0.000000 0.000000 
#    y 0.000000 1.834340 0.000000 
#    z 0.000000 0.000000 1.866080 
# 
# From -- ./inp_files/42430.got.cif
#   From: 2010.03.12/outbox.cif.g09.slc.cpg/sg72_22_cif.got.tgz:42430.got - 2010.04.16 14:54:00.
