data_PCOD8293377
_publ_section_title
;
Structure prediction by ZEFSAII (Michael W. Deem and Ramdas Pophale) SiO2 
 PCOD8293377
Probable space group: I B A M
;
_chemical_formula_sum "Si O2"
_cell_formula_units_Z 112
_cell_length_a 18.924632
_cell_length_b 19.727518
_cell_length_c 17.330975
_cell_angle_alpha 90.000000
_cell_angle_beta 90.000000
_cell_angle_gamma 90.000000
_cell_volume 6470.277202
_symmetry_space_group_name_H-M "I B A M"
_symmetry_group_IT_number 72
_symmetry_cell_setting 'orthorhombic'
loop_
_space_group_symop_operation_xyz
x,y,z
-x,-y,z
x,-y,1/2-z
-x,y,1/2-z
-x,-y,-z
x,y,-z
-x,y,1/2+z
x,-y,1/2+z
1/2+x,1/2+y,1/2+z
1/2-x,1/2-y,1/2+z
1/2+x,1/2-y,-z
1/2-x,1/2+y,-z
1/2-x,1/2-y,1/2-z
1/2+x,1/2+y,1/2-z
1/2-x,1/2+y,z
1/2+x,1/2-y,z
loop_
_atom_site_type_symbol
_atom_site_label
_atom_site_fract_x
_atom_site_fract_y
_atom_site_fract_z
Si Si1 0.236075 0.529116 0.085487
Si Si2 0.648067 0.163940 0.415965
Si Si3 0.790881 0.597571 0.823339
Si Si4 0.579638 0.678265 0.766927
Si Si5 0.323387 0.314845 0.910211
Si Si6 0.420184 0.833823 0.259364
Si Si7 0.330543 0.435823 0.291109
O O1 0.200835 0.601980 0.087102
O O2 0.191804 0.471733 0.131045
O O3 0.313732 0.539546 0.122334
O O4 0.247200 0.501408 0.000000
O O5 0.609869 0.166058 0.500000
O O6 0.690864 0.234246 0.403462
O O7 0.590804 0.153737 0.349956
O O8 0.746919 0.648443 0.878789
O O9 0.865863 0.627404 0.796299
O O10 0.745151 0.580519 0.748157
O O11 0.500000 0.655617 0.750000
O O12 0.608419 0.666905 0.855227
O O13 0.589566 0.754986 0.739117
O O14 0.622856 0.631016 0.708537
O O15 0.338508 0.335538 0.000000
O O16 0.500000 0.859727 0.250000
O O17 0.368660 0.500000 0.250000
#
# Coordination Sequence:
#
# PCOD8293377 Si02
#       7
#    16  16  16  16  16  16  16
#     4  10  19  32  50  74 104 131 165 220 273 310
#     4   9  18  32  51  72 100 133 167 209 266 322
#     4  10  19  32  52  74 101 131 178 222 257 315
#     4   9  19  33  52  78 109 140 178 218 265 320
#     4   9  18  32  53  77 102 138 175 216 269 318
#     4  10  20  34  53  76 102 140 181 223 267 315
#     4   9  18  31  52  76 101 135 171 214 260 315
#
# _framework density 17.309922
#
# number of rings (size 3 to 8) (size 9 to 14) (size 15 to 20)
#    0.000    2.571    1.429    0.429    2.000    2.000 
#    0.000    3.571    0.000    4.286    0.000    6.000 
#    0.000    0.000    0.000    0.000    0.000    0.000 
#
# Total GULP energy -693854.140126 kJ/mol
# GULP energy per Si atom -12390.252502 kJ/mol
# Density = 1.727052 g / cm^3
# Si number density = 17.309922 Si / 1000 Ang^3
#
#
#
# Elastic Constant Matrix: (Units=GPa)
#
#
# Indices 1 2 3 4 5 6 
#
# 1 95.3040 44.8708 51.2587 0.0000 0.0000 0.0000
# 2 44.8708 82.9048 36.9101 0.0000 0.0000 0.0000
# 3 51.2587 36.9101 99.7704 0.0000 0.0000 0.0000
# 4 0.0000 0.0000 0.0000 23.0848 0.0000 0.0000
# 5 0.0000 0.0000 0.0000 0.0000 19.3424 0.0000
# 6 0.0000 0.0000 0.0000 0.0000 0.0000 23.2419
#
#
#
# Elastic Compliance Matrix: (Units=1/GPa)
#
#
# Indices 1 2 3 4 5 6 
#
# 1 0.016870 -0.006311 -0.006332 0.000000 0.000000 0.000000
# 2 -0.006311 0.016802 -0.002973 0.000000 0.000000 0.000000
# 3 -0.006332 -0.002973 0.014376 0.000000 0.000000 0.000000
# 4 0.000000 0.000000 0.000000 0.043319 0.000000 0.000000
# 5 0.000000 0.000000 0.000000 0.000000 0.051700 0.000000
# 6 0.000000 0.000000 0.000000 0.000000 0.000000 0.043026
#
#
# Mechanical properties :
#
#
# Convention : Reuss Voigt Hill
#
# Bulk Modulus (GPa) = 59.47388 60.45094 59.96241
# Shear Modulus (GPa) = 22.42848 22.79646 22.61247
#
# Velocity S-wave (km/s) = 3.60349 3.63293 3.61824
# Velocity P-wave (km/s) = 7.19349 7.25232 7.22297
#
# Compressibility (1/GPa) = 0.01681410
#
# Stress axis : x y z
#
# Youngs Moduli (GPa) = 59.27651 59.51797 69.55881
#
# Poissons Ratio (x) = 0.37564 0.44047
# Poissons Ratio (y) = 0.37412 0.20681
# Poissons Ratio (z) = 0.37536 0.17696
#
# Static dielectric constant tensor:
#      x y z
#    x 2.928830 0.000000 0.000000 
#    y 0.000000 3.431540 0.000000 
#    z 0.000000 0.000000 3.543250 
# 
# 
# High freq. dielectric constant tensor:
#      x y z
#    x 1.626520 0.000000 0.000000 
#    y 0.000000 1.687750 0.000000 
#    z 0.000000 0.000000 1.673590 
# 
# From -- ./inp_files/32767.got.cif
#   From: 2010.03.12/outbox.cif.g09.slc.cpg/sg72_17_cif.got.tgz:32767.got - 2010.04.16 14:54:00.
