data_PCOD8293471
_publ_section_title
;
Structure prediction by ZEFSAII (Michael W. Deem and Ramdas Pophale) SiO2 
 PCOD8293471
Probable space group: I B A M
;
_chemical_formula_sum "Si O2"
_cell_formula_units_Z 96
_cell_length_a 20.131649
_cell_length_b 9.843269
_cell_length_c 27.144202
_cell_angle_alpha 90.000000
_cell_angle_beta 90.000000
_cell_angle_gamma 90.000000
_cell_volume 5378.928633
_symmetry_space_group_name_H-M "I B A M"
_symmetry_group_IT_number 72
_symmetry_cell_setting 'orthorhombic'
loop_
_space_group_symop_operation_xyz
x,y,z
-x,-y,z
x,-y,1/2-z
-x,y,1/2-z
-x,-y,-z
x,y,-z
-x,y,1/2+z
x,-y,1/2+z
1/2+x,1/2+y,1/2+z
1/2-x,1/2-y,1/2+z
1/2+x,1/2-y,-z
1/2-x,1/2+y,-z
1/2-x,1/2-y,1/2-z
1/2+x,1/2+y,1/2-z
1/2-x,1/2+y,z
1/2+x,1/2-y,z
loop_
_atom_site_type_symbol
_atom_site_label
_atom_site_fract_x
_atom_site_fract_y
_atom_site_fract_z
Si Si1 0.321470 0.242355 0.945471
Si Si2 0.275350 0.129534 0.216401
Si Si3 0.514847 0.651823 0.307073
Si Si4 0.352864 0.429294 0.655530
Si Si5 0.200527 0.952399 0.445509
Si Si6 0.386806 0.262235 0.154213
O O1 0.269398 0.123198 0.936807
O O2 0.284112 0.387088 0.940514
O O3 0.377503 0.230824 0.903625
O O4 0.354210 0.229357 0.000000
O O5 0.250000 0.250000 0.250000
O O6 0.219652 0.104188 0.175483
O O7 0.343695 0.162596 0.188204
O O8 0.289335 0.000000 0.250000
O O9 0.500000 0.500000 0.325566
O O10 0.500000 0.670493 0.250000
O O11 0.592593 0.673994 0.320690
O O12 0.465724 0.755992 0.335393
O O13 0.352545 0.408442 0.596184
O O14 0.367124 0.584879 0.669832
O O15 0.171433 0.918152 0.500000
#
# Coordination Sequence:
#
# PCOD8293471 Si02
#       6
#    16  16  16  16  16  16
#     4   9  17  30  50  76 104 131 166 215 264 308
#     4  12  22  32  51  80 105 133 174 228 261 304
#     4   9  18  31  50  71 103 141 177 207 251 317
#     4  10  19  33  52  77 103 139 174 216 262 310
#     4   9  17  30  49  76 104 130 166 214 265 310
#     4  10  19  34  51  77 105 137 176 214 262 312
#
# _framework density 17.84742
#
# number of rings (size 3 to 8) (size 9 to 14) (size 15 to 20)
#    0.000    2.167    3.333    1.000    2.333    0.000 
#    0.000    0.833    0.000    9.500    0.000    0.000 
#    0.000    5.333    0.000    0.000    0.000    0.000 
#
# Total GULP energy -594930.221386 kJ/mol
# GULP energy per Si atom -12394.379612 kJ/mol
# Density = 1.780680 g / cm^3
# Si number density = 17.847420 Si / 1000 Ang^3
#
#
#
# Elastic Constant Matrix: (Units=GPa)
#
#
# Indices 1 2 3 4 5 6 
#
# 1 106.0433 27.5740 60.2030 0.0000 0.0000 0.0000
# 2 27.5740 54.8029 40.2702 0.0000 0.0000 0.0000
# 3 60.2030 40.2702 133.9707 0.0000 0.0000 0.0000
# 4 0.0000 0.0000 0.0000 22.0416 0.0000 0.0000
# 5 0.0000 0.0000 0.0000 0.0000 26.5432 0.0000
# 6 0.0000 0.0000 0.0000 0.0000 0.0000 20.0501
#
#
#
# Elastic Compliance Matrix: (Units=1/GPa)
#
#
# Indices 1 2 3 4 5 6 
#
# 1 0.013006 -0.002887 -0.004977 0.000000 0.000000 0.000000
# 2 -0.002887 0.024061 -0.005935 0.000000 0.000000 0.000000
# 3 -0.004977 -0.005935 0.011485 0.000000 0.000000 0.000000
# 4 0.000000 0.000000 0.000000 0.045369 0.000000 0.000000
# 5 0.000000 0.000000 0.000000 0.000000 0.037674 0.000000
# 6 0.000000 0.000000 0.000000 0.000000 0.000000 0.049875
#
#
# Mechanical properties :
#
#
# Convention : Reuss Voigt Hill
#
# Bulk Modulus (GPa) = 47.72333 61.21238 54.46785
# Shear Modulus (GPa) = 23.14245 24.84496 23.99371
#
# Velocity S-wave (km/s) = 3.60486 3.73510 3.67056
# Velocity P-wave (km/s) = 6.64261 7.27828 6.96770
#
# Compressibility (1/GPa) = 0.02095411
#
# Stress axis : x y z
#
# Youngs Moduli (GPa) = 76.88586 41.56094 87.07108
#
# Poissons Ratio (x) = 0.11999 0.43334
# Poissons Ratio (y) = 0.22197 0.51678
# Poissons Ratio (z) = 0.38265 0.24667
#
# Static dielectric constant tensor:
#      x y z
#    x 3.319750 0.000000 0.000000 
#    y 0.000000 3.184340 0.000000 
#    z 0.000000 0.000000 3.576890 
# 
# 
# High freq. dielectric constant tensor:
#      x y z
#    x 1.663780 0.000000 0.000000 
#    y 0.000000 1.665740 0.000000 
#    z 0.000000 0.000000 1.710020 
# 
# From -- ./inp_files/47301.got.cif
#   From: 2010.03.12/outbox.cif.g09.slc.cpg/sg72_24_cif.got.tgz:47301.got - 2010.04.16 14:54:00.
