data_PCOD8293388
_publ_section_title
;
Structure prediction by ZEFSAII (Michael W. Deem and Ramdas Pophale) SiO2 
 PCOD8293388
Probable space group: I B A M
;
_chemical_formula_sum "Si O2"
_cell_formula_units_Z 88
_cell_length_a 12.444409
_cell_length_b 18.356513
_cell_length_c 21.694348
_cell_angle_alpha 90.000000
_cell_angle_beta 90.000000
_cell_angle_gamma 90.000000
_cell_volume 4955.769116
_symmetry_space_group_name_H-M "I B A M"
_symmetry_group_IT_number 72
_symmetry_cell_setting 'orthorhombic'
loop_
_space_group_symop_operation_xyz
x,y,z
-x,-y,z
x,-y,1/2-z
-x,y,1/2-z
-x,-y,-z
x,y,-z
-x,y,1/2+z
x,-y,1/2+z
1/2+x,1/2+y,1/2+z
1/2-x,1/2-y,1/2+z
1/2+x,1/2-y,-z
1/2-x,1/2+y,-z
1/2-x,1/2-y,1/2-z
1/2+x,1/2+y,1/2-z
1/2-x,1/2+y,z
1/2+x,1/2-y,z
loop_
_atom_site_type_symbol
_atom_site_label
_atom_site_fract_x
_atom_site_fract_y
_atom_site_fract_z
Si Si1 0.500000 0.303962 0.750000
Si Si2 0.444569 0.211041 0.070804
Si Si3 0.134493 0.268759 0.150813
Si Si4 0.146192 0.844992 0.856737
Si Si5 0.275666 0.359713 0.429075
Si Si6 0.374799 0.488004 0.929302
O O1 0.415300 0.251443 0.716473
O O2 0.566289 0.353229 0.701614
O O3 0.547702 0.185870 0.110371
O O4 0.403725 0.289921 0.093458
O O5 0.351956 0.150688 0.080056
O O6 0.478334 0.218301 0.000000
O O7 0.237857 0.317122 0.165044
O O8 0.159316 0.195432 0.113325
O O9 0.165588 0.922887 0.886847
O O10 0.308657 0.344809 0.500000
O O11 0.308192 0.440841 0.409109
O O12 0.500000 0.500000 0.918248
O O13 0.350665 0.468094 0.000000
#
# Coordination Sequence:
#
# PCOD8293388 Si02
#       6
#     8  16  16  16  16  16
#     4  10  20  34  51  72  99 128 168 218 252 276
#     4   9  17  30  50  76 102 129 163 203 245 294
#     4  10  19  33  53  73  97 131 170 207 244 292
#     4  10  20  33  51  74  98 131 170 205 245 295
#     4   9  18  32  50  75 106 133 158 197 251 302
#     4  10  19  32  51  76 105 130 155 196 251 304
#
# _framework density 17.757083000000002
#
# number of rings (size 3 to 8) (size 9 to 14) (size 15 to 20)
#    0.000    2.364    0.000    3.818    0.000    3.636 
#    0.000    5.000    0.000    3.273    0.000   11.455 
#    0.000    0.000    0.000    0.000    0.000    0.000 
#
# Total GULP energy -545664.390132 kJ/mol
# GULP energy per Si atom -12401.463412 kJ/mol
# Density = 1.771667 g / cm^3
# Si number density = 17.757083 Si / 1000 Ang^3
#
#
#
# Elastic Constant Matrix: (Units=GPa)
#
#
# Indices 1 2 3 4 5 6 
#
# 1 97.5850 48.3007 37.2553 0.0000 0.0000 0.0000
# 2 48.3007 108.9580 44.9591 0.0000 0.0000 0.0000
# 3 37.2553 44.9591 81.9593 0.0000 0.0000 0.0000
# 4 0.0000 0.0000 0.0000 18.8139 0.0000 0.0000
# 5 0.0000 0.0000 0.0000 0.0000 29.3880 0.0000
# 6 0.0000 0.0000 0.0000 0.0000 0.0000 20.2648
#
#
#
# Elastic Compliance Matrix: (Units=1/GPa)
#
#
# Indices 1 2 3 4 5 6 
#
# 1 0.013998 -0.004627 -0.003825 0.000000 0.000000 0.000000
# 2 -0.004627 0.013393 -0.005243 0.000000 0.000000 0.000000
# 3 -0.003825 -0.005243 0.016816 0.000000 0.000000 0.000000
# 4 0.000000 0.000000 0.000000 0.053152 0.000000 0.000000
# 5 0.000000 0.000000 0.000000 0.000000 0.034028 0.000000
# 6 0.000000 0.000000 0.000000 0.000000 0.000000 0.049347
#
#
# Mechanical properties :
#
#
# Convention : Reuss Voigt Hill
#
# Bulk Modulus (GPa) = 59.46588 61.05918 60.26253
# Shear Modulus (GPa) = 23.39422 24.22581 23.81001
#
# Velocity S-wave (km/s) = 3.63362 3.69764 3.66577
# Velocity P-wave (km/s) = 7.15301 7.25882 7.20611
#
# Compressibility (1/GPa) = 0.01681637
#
# Stress axis : x y z
#
# Youngs Moduli (GPa) = 71.43976 74.66860 59.46740
#
# Poissons Ratio (x) = 0.34549 0.22744
# Poissons Ratio (y) = 0.33055 0.31180
# Poissons Ratio (z) = 0.27323 0.39151
#
# Static dielectric constant tensor:
#      x y z
#    x 3.489330 0.000000 0.000000 
#    y 0.000000 3.027800 0.000000 
#    z 0.000000 0.000000 3.306920 
# 
# 
# High freq. dielectric constant tensor:
#      x y z
#    x 1.699490 0.000000 0.000000 
#    y 0.000000 1.654790 0.000000 
#    z 0.000000 0.000000 1.689110 
# 
# From -- ./inp_files/36852.got.cif
#   From: 2010.03.12/outbox.cif.g09.slc.cpg/sg72_19_cif.got.tgz:36852.got - 2010.04.16 14:54:00.
