data_PCOD8293953
_publ_section_title
;
Structure prediction by ZEFSAII (Michael W. Deem and Ramdas Pophale) SiO2 
 PCOD8293953
Probable space group: I B A M
;
_chemical_formula_sum "Si O2"
_cell_formula_units_Z 96
_cell_length_a 17.132899
_cell_length_b 13.545472
_cell_length_c 22.541185
_cell_angle_alpha 90.000000
_cell_angle_beta 90.000000
_cell_angle_gamma 90.000000
_cell_volume 5231.205018
_symmetry_space_group_name_H-M "I B A M"
_symmetry_group_IT_number 72
_symmetry_cell_setting 'orthorhombic'
loop_
_space_group_symop_operation_xyz
x,y,z
-x,-y,z
x,-y,1/2-z
-x,y,1/2-z
-x,-y,-z
x,y,-z
-x,y,1/2+z
x,-y,1/2+z
1/2+x,1/2+y,1/2+z
1/2-x,1/2-y,1/2+z
1/2+x,1/2-y,-z
1/2-x,1/2+y,-z
1/2-x,1/2-y,1/2-z
1/2+x,1/2+y,1/2-z
1/2-x,1/2+y,z
1/2+x,1/2-y,z
loop_
_atom_site_type_symbol
_atom_site_label
_atom_site_fract_x
_atom_site_fract_y
_atom_site_fract_z
Si Si1 0.135266 0.780425 0.434498
Si Si2 0.148326 0.195967 0.649333
Si Si3 0.728169 0.906793 0.571147
Si Si4 0.479415 0.611977 0.847937
Si Si5 0.270734 0.881829 0.616713
Si Si6 0.835595 0.890883 0.769770
O O1 0.101490 0.770150 0.500000
O O2 0.160982 0.671740 0.410865
O O3 0.067547 0.832083 0.398621
O O4 0.214278 0.846051 0.436231
O O5 0.189709 0.122692 0.601959
O O6 0.155983 0.308529 0.626035
O O7 0.184714 0.181989 0.715201
O O8 0.058396 0.171999 0.658388
O O9 0.739595 0.913009 0.500000
O O10 0.699340 0.009644 0.600073
O O11 0.500000 0.500000 0.866309
O O12 0.427301 0.614674 0.788189
O O13 0.219196 0.867220 0.675368
O O14 0.815343 0.000000 0.750000
#
# Coordination Sequence:
#
# PCOD8293953 Si02
#       6
#    16  16  16  16  16  16
#     4   9  20  36  53  78 111 144 184 228 276 326
#     4  11  21  34  55  85 110 138 182 225 272 329
#     4  10  20  37  57  78 109 146 184 230 274 319
#     4  11  21  33  54  82 111 145 175 223 280 332
#     4  10  20  34  56  81 105 144 184 228 267 320
#     4  11  19  35  57  79 113 143 176 219 276 327
#
# _framework density 18.351413000000001
#
# number of rings (size 3 to 8) (size 9 to 14) (size 15 to 20)
#    0.000    1.667    3.333    2.500    0.000    1.667 
#    0.000    0.833    0.000    2.000    0.000    0.000 
#    0.000    0.000    0.000    0.000    0.000    0.000 
#
# Total GULP energy -594897.282596 kJ/mol
# GULP energy per Si atom -12393.693387 kJ/mol
# Density = 1.830964 g / cm^3
# Si number density = 18.351413 Si / 1000 Ang^3
#
#
#
# Elastic Constant Matrix: (Units=GPa)
#
#
# Indices 1 2 3 4 5 6 
#
# 1 57.3604 34.5202 23.1106 0.0000 0.0000 0.0000
# 2 34.5202 135.5772 36.5915 0.0000 0.0000 0.0000
# 3 23.1106 36.5915 85.8282 0.0000 0.0000 0.0000
# 4 0.0000 0.0000 0.0000 21.8224 0.0000 0.0000
# 5 0.0000 0.0000 0.0000 0.0000 14.0182 0.0000
# 6 0.0000 0.0000 0.0000 0.0000 0.0000 28.0413
#
#
#
# Elastic Compliance Matrix: (Units=1/GPa)
#
#
# Indices 1 2 3 4 5 6 
#
# 1 0.021708 -0.004463 -0.003942 0.000000 0.000000 0.000000
# 2 -0.004463 0.009253 -0.002743 0.000000 0.000000 0.000000
# 3 -0.003942 -0.002743 0.013882 0.000000 0.000000 0.000000
# 4 0.000000 0.000000 0.000000 0.045825 0.000000 0.000000
# 5 0.000000 0.000000 0.000000 0.000000 0.071336 0.000000
# 6 0.000000 0.000000 0.000000 0.000000 0.000000 0.035662
#
#
# Mechanical properties :
#
#
# Convention : Reuss Voigt Hill
#
# Bulk Modulus (GPa) = 44.35433 51.91227 48.13330
# Shear Modulus (GPa) = 21.98025 25.07927 23.52976
#
# Velocity S-wave (km/s) = 3.46460 3.70078 3.58463
# Velocity P-wave (km/s) = 6.34243 6.82718 6.58926
#
# Compressibility (1/GPa) = 0.02254571
#
# Stress axis : x y z
#
# Youngs Moduli (GPa) = 46.06589 108.07814 72.03503
#
# Poissons Ratio (x) = 0.48237 0.28399
# Poissons Ratio (y) = 0.20560 0.19758
# Poissons Ratio (z) = 0.18161 0.29645
#
# Static dielectric constant tensor:
#      x y z
#    x 3.163020 0.000000 0.000000 
#    y 0.000000 3.482740 0.000000 
#    z 0.000000 0.000000 3.980520 
# 
# 
# High freq. dielectric constant tensor:
#      x y z
#    x 1.685700 0.000000 0.000000 
#    y 0.000000 1.715260 0.000000 
#    z 0.000000 0.000000 1.724280 
# 
# From -- ./inp_files/38057.got.cif
#   From: 2010.03.12/outbox.cif.g09.slc.cpg/sg72_20_cif.got.tgz:38057.got - 2010.04.16 14:54:00.
