data_PCOD8293052
_publ_section_title
;
Structure prediction by ZEFSAII (Michael W. Deem and Ramdas Pophale) SiO2 
 PCOD8293052
Probable space group: I B A M
;
_chemical_formula_sum "Si O2"
_cell_formula_units_Z 96
_cell_length_a 14.941619
_cell_length_b 17.788512
_cell_length_c 18.865916
_cell_angle_alpha 90.000000
_cell_angle_beta 90.000000
_cell_angle_gamma 90.000000
_cell_volume 5014.356134
_symmetry_space_group_name_H-M "I B A M"
_symmetry_group_IT_number 72
_symmetry_cell_setting 'orthorhombic'
loop_
_space_group_symop_operation_xyz
x,y,z
-x,-y,z
x,-y,1/2-z
-x,y,1/2-z
-x,-y,-z
x,y,-z
-x,y,1/2+z
x,-y,1/2+z
1/2+x,1/2+y,1/2+z
1/2-x,1/2-y,1/2+z
1/2+x,1/2-y,-z
1/2-x,1/2+y,-z
1/2-x,1/2-y,1/2-z
1/2+x,1/2+y,1/2-z
1/2-x,1/2+y,z
1/2+x,1/2-y,z
loop_
_atom_site_type_symbol
_atom_site_label
_atom_site_fract_x
_atom_site_fract_y
_atom_site_fract_z
Si Si1 0.781667 0.341034 0.580091
Si Si2 0.729194 0.922890 0.716574
Si Si3 0.406002 0.810016 0.721526
Si Si4 0.903548 0.859952 0.227319
Si Si5 0.395031 0.246174 0.922715
Si Si6 0.592856 0.701388 0.421026
O O1 0.789875 0.371367 0.500000
O O2 0.786310 0.414017 0.631789
O O3 0.686868 0.301464 0.593763
O O4 0.861559 0.281937 0.596421
O O5 0.678056 0.853321 0.749736
O O6 0.832748 0.915911 0.737626
O O7 0.690995 0.000000 0.750000
O O8 0.500000 0.843073 0.750000
O O9 0.395276 0.723257 0.741257
O O10 0.401463 0.818605 0.636256
O O11 0.885042 0.857381 0.141927
O O12 0.000000 0.892762 0.250000
O O13 0.486168 0.293160 0.920798
O O14 0.381775 0.208175 0.000000
O O15 0.625272 0.674071 0.500000
#
# Coordination Sequence:
#
# PCOD8293052 Si02
#       6
#    16  16  16  16  16  16
#     4  10  19  33  52  76 107 139 172 213 265 317
#     4  12  24  36  53  79 110 148 180 213 261 320
#     4  11  19  35  58  81 106 135 179 227 266 305
#     4  11  19  35  58  81 106 135 179 227 266 305
#     4  10  18  30  53  84 107 130 169 223 275 311
#     4  10  18  30  53  84 107 130 169 223 275 311
#
# _framework density 19.145029999999998
#
# number of rings (size 3 to 8) (size 9 to 14) (size 15 to 20)
#    0.000    1.333    6.667    1.500    0.000    0.667 
#    0.000    1.667    0.000    0.000    0.000   11.667 
#    0.000    0.000    0.000    0.000    0.000    0.000 
#
# Total GULP energy -594926.222117 kJ/mol
# GULP energy per Si atom -12394.296294 kJ/mol
# Density = 1.910146 g / cm^3
# Si number density = 19.145030 Si / 1000 Ang^3
#
#
#
# Elastic Constant Matrix: (Units=GPa)
#
#
# Indices 1 2 3 4 5 6 
#
# 1 58.9447 6.1025 4.2896 0.0000 0.0000 0.0000
# 2 6.1025 24.6788 19.7150 0.0000 0.0000 0.0000
# 3 4.2896 19.7150 167.7373 0.0000 0.0000 0.0000
# 4 0.0000 0.0000 0.0000 19.1556 0.0000 0.0000
# 5 0.0000 0.0000 0.0000 0.0000 27.7855 0.0000
# 6 0.0000 0.0000 0.0000 0.0000 0.0000 6.3389
#
#
#
# Elastic Compliance Matrix: (Units=1/GPa)
#
#
# Indices 1 2 3 4 5 6 
#
# 1 0.017411 -0.004359 0.000067 0.000000 0.000000 0.000000
# 2 -0.004359 0.045811 -0.005273 0.000000 0.000000 0.000000
# 3 0.000067 -0.005273 0.006580 0.000000 0.000000 0.000000
# 4 0.000000 0.000000 0.000000 0.052204 0.000000 0.000000
# 5 0.000000 0.000000 0.000000 0.000000 0.035990 0.000000
# 6 0.000000 0.000000 0.000000 0.000000 0.000000 0.157756
#
#
# Mechanical properties :
#
#
# Convention : Reuss Voigt Hill
#
# Bulk Modulus (GPa) = 19.73464 34.61943 27.17703
# Shear Modulus (GPa) = 14.21374 25.40625 19.80999
#
# Velocity S-wave (km/s) = 2.72770 3.64681 3.22022
# Velocity P-wave (km/s) = 4.50009 5.98784 5.29647
#
# Compressibility (1/GPa) = 0.05067233
#
# Stress axis : x y z
#
# Youngs Moduli (GPa) = 57.43338 21.82888 151.98179
#
# Poissons Ratio (x) = 0.09515 -0.01019
# Poissons Ratio (y) = 0.25036 0.80138
# Poissons Ratio (z) = -0.00385 0.11510
#
# Static dielectric constant tensor:
#      x y z
#    x 3.806810 0.000000 0.000000 
#    y 0.000000 2.827280 0.000000 
#    z 0.000000 0.000000 4.374480 
# 
# 
# High freq. dielectric constant tensor:
#      x y z
#    x 1.763700 0.000000 0.000000 
#    y 0.000000 1.660700 0.000000 
#    z 0.000000 0.000000 1.775470 
# 
# From -- ./inp_files/38352.got.cif
#   From: 2010.03.12/outbox.cif.g09.slc.cpg/sg72_20_cif.got.tgz:38352.got - 2010.04.16 14:54:00.
