data_PCOD8293087
_publ_section_title
;
Structure prediction by ZEFSAII (Michael W. Deem and Ramdas Pophale) SiO2 
 PCOD8293087
Probable space group: I B A M
;
_chemical_formula_sum "Si O2"
_cell_formula_units_Z 116
_cell_length_a 26.859067
_cell_length_b 26.334430
_cell_length_c 9.060338
_cell_angle_alpha 90.000000
_cell_angle_beta 90.000000
_cell_angle_gamma 90.000000
_cell_volume 6408.542145
_symmetry_space_group_name_H-M "I B A M"
_symmetry_group_IT_number 72
_symmetry_cell_setting 'orthorhombic'
loop_
_space_group_symop_operation_xyz
x,y,z
-x,-y,z
x,-y,1/2-z
-x,y,1/2-z
-x,-y,-z
x,y,-z
-x,y,1/2+z
x,-y,1/2+z
1/2+x,1/2+y,1/2+z
1/2-x,1/2-y,1/2+z
1/2+x,1/2-y,-z
1/2-x,1/2+y,-z
1/2-x,1/2-y,1/2-z
1/2+x,1/2+y,1/2-z
1/2-x,1/2+y,z
1/2+x,1/2-y,z
loop_
_atom_site_type_symbol
_atom_site_label
_atom_site_fract_x
_atom_site_fract_y
_atom_site_fract_z
Si Si1 0.216377 0.311445 0.169477
Si Si2 0.000000 0.500000 0.750000
Si Si3 0.215555 0.048676 0.828343
Si Si4 0.050041 0.317954 0.673962
Si Si5 0.686696 0.923548 0.334092
Si Si6 0.576925 0.919211 0.335897
Si Si7 0.138489 0.243588 0.325334
Si Si8 0.316578 0.341716 0.325704
O O1 0.184601 0.362791 0.177616
O O2 0.187933 0.268842 0.260683
O O3 0.268401 0.318375 0.249600
O O4 0.224515 0.294322 0.000000
O O5 0.963861 0.536077 0.844787
O O6 0.272877 0.053717 0.776899
O O7 0.182378 0.098085 0.789509
O O8 0.190549 0.000000 0.750000
O O9 0.216695 0.038438 0.000000
O O10 0.042740 0.319400 0.500000
O O11 0.062082 0.375187 0.723012
O O12 0.091583 0.277420 0.721860
O O13 0.000000 0.298353 0.750000
O O14 0.701491 0.940509 0.500000
O O15 0.631059 0.942107 0.290493
O O16 0.580996 0.895453 0.500000
O O17 0.142289 0.237810 0.500000
O O18 0.136157 0.187394 0.248748
O O19 0.315325 0.332276 0.500000
#
# Coordination Sequence:
#
# PCOD8293087 Si02
#       8
#    16   4  16  16  16  16  16  16
#     4  10  18  31  52  76 104 138 172 214 263 317
#     4  12  26  36  56  82  98 132 178 240 292 324
#     4  10  21  36  54  77 105 140 178 214 258 308
#     4  11  24  40  60  80 103 135 176 222 274 329
#     4   9  19  34  52  73  98 134 176 219 268 320
#     4  11  23  40  56  74 100 131 175 228 284 331
#     4  11  22  35  53  79 106 137 173 216 267 320
#     4  10  21  35  52  77 108 141 176 215 256 314
#
# _framework density 18.100842
#
# number of rings (size 3 to 8) (size 9 to 14) (size 15 to 20)
#    0.000    1.655    2.069    2.690    0.966    4.966 
#    0.000    0.000    0.000    0.000    0.000    0.000 
#    0.000    0.552    0.000    6.069    0.000    4.414 
#
# Total GULP energy -719052.061840 kJ/mol
# GULP energy per Si atom -12397.449342 kJ/mol
# Density = 1.805964 g / cm^3
# Si number density = 18.100842 Si / 1000 Ang^3
#
#
#
# Elastic Constant Matrix: (Units=GPa)
#
#
# Indices 1 2 3 4 5 6 
#
# 1 48.7277 44.6413 27.5490 0.0000 0.0000 0.0000
# 2 44.6413 124.3900 54.6578 0.0000 0.0000 0.0000
# 3 27.5490 54.6578 91.0285 0.0000 0.0000 0.0000
# 4 0.0000 0.0000 0.0000 28.4817 0.0000 0.0000
# 5 0.0000 0.0000 0.0000 0.0000 24.4933 0.0000
# 6 0.0000 0.0000 0.0000 0.0000 0.0000 47.5633
#
#
#
# Elastic Compliance Matrix: (Units=1/GPa)
#
#
# Indices 1 2 3 4 5 6 
#
# 1 0.031479 -0.009660 -0.003727 0.000000 0.000000 0.000000
# 2 -0.009660 0.013885 -0.005414 0.000000 0.000000 0.000000
# 3 -0.003727 -0.005414 0.015364 0.000000 0.000000 0.000000
# 4 0.000000 0.000000 0.000000 0.035110 0.000000 0.000000
# 5 0.000000 0.000000 0.000000 0.000000 0.040828 0.000000
# 6 0.000000 0.000000 0.000000 0.000000 0.000000 0.021025
#
#
# Mechanical properties :
#
#
# Convention : Reuss Voigt Hill
#
# Bulk Modulus (GPa) = 43.23842 57.53804 50.38823
# Shear Modulus (GPa) = 24.63068 29.26085 26.94577
#
# Velocity S-wave (km/s) = 3.69283 4.02499 3.86248
# Velocity P-wave (km/s) = 6.49015 7.31145 6.91301
#
# Compressibility (1/GPa) = 0.02312758
#
# Stress axis : x y z
#
# Youngs Moduli (GPa) = 31.76751 72.02195 65.08717
#
# Poissons Ratio (x) = 0.69570 0.24256
# Poissons Ratio (y) = 0.30686 0.35236
# Poissons Ratio (z) = 0.11839 0.38990
#
# Static dielectric constant tensor:
#      x y z
#    x 3.275490 0.000000 0.000000 
#    y 0.000000 3.658680 0.000000 
#    z 0.000000 0.000000 3.384170 
# 
# 
# High freq. dielectric constant tensor:
#      x y z
#    x 1.663890 0.000000 0.000000 
#    y 0.000000 1.702980 0.000000 
#    z 0.000000 0.000000 1.714050 
# 
# From -- ./inp_files/8719.got.cif
#   From: 2010.03.12/outbox.cif.g09.slc.cpg/sg72_5_cif.got.tgz:8719.got - 2010.04.16 14:54:00.
