data_PCOD8293573
_publ_section_title
;
Structure prediction by ZEFSAII (Michael W. Deem and Ramdas Pophale) SiO2 
 PCOD8293573
Probable space group: I B A M
;
_chemical_formula_sum "Si O2"
_cell_formula_units_Z 96
_cell_length_a 20.757481
_cell_length_b 30.454162
_cell_length_c 8.887050
_cell_angle_alpha 90.000000
_cell_angle_beta 90.000000
_cell_angle_gamma 90.000000
_cell_volume 5617.963668
_symmetry_space_group_name_H-M "I B A M"
_symmetry_group_IT_number 72
_symmetry_cell_setting 'orthorhombic'
loop_
_space_group_symop_operation_xyz
x,y,z
-x,-y,z
x,-y,1/2-z
-x,y,1/2-z
-x,-y,-z
x,y,-z
-x,y,1/2+z
x,-y,1/2+z
1/2+x,1/2+y,1/2+z
1/2-x,1/2-y,1/2+z
1/2+x,1/2-y,-z
1/2-x,1/2+y,-z
1/2-x,1/2-y,1/2-z
1/2+x,1/2+y,1/2-z
1/2-x,1/2+y,z
1/2+x,1/2-y,z
loop_
_atom_site_type_symbol
_atom_site_label
_atom_site_fract_x
_atom_site_fract_y
_atom_site_fract_z
Si Si1 0.437763 0.067439 0.325531
Si Si2 0.701633 0.714736 0.820745
Si Si3 0.064051 0.248449 0.675874
Si Si4 0.295889 0.955410 0.179375
Si Si5 0.760644 0.367084 0.172800
Si Si6 0.592210 0.153396 0.670602
O O1 0.500000 0.044156 0.250000
O O2 0.444915 0.060634 0.500000
O O3 0.370676 0.047095 0.267247
O O4 0.438859 0.118931 0.284935
O O5 0.750000 0.750000 0.750000
O O6 0.628866 0.724923 0.767471
O O7 0.714113 0.665761 0.761533
O O8 0.709153 0.717168 0.000000
O O9 0.057471 0.242383 0.500000
O O10 0.067511 0.299400 0.721793
O O11 0.000000 0.227523 0.750000
O O12 0.256887 0.914531 0.247343
O O13 0.266919 0.000000 0.250000
O O14 0.289262 0.955198 0.000000
O O15 0.831008 0.346279 0.183468
O O16 0.738408 0.372073 0.000000
O O17 0.571675 0.141354 0.500000
#
# Coordination Sequence:
#
# PCOD8293573 Si02
#       6
#    16  16  16  16  16  16
#     4  10  20  31  44  64  89 122 165 208 255 304
#     4  11  21  35  53  76 105 138 177 217 258 309
#     4  10  21  34  47  70 102 136 174 215 256 301
#     4  10  21  36  52  72  95 125 162 207 260 309
#     4  10  19  34  54  76 100 129 167 213 259 306
#     4   9  17  31  47  66  94 127 166 211 255 298
#
# _framework density 17.088042000000002
#
# number of rings (size 3 to 8) (size 9 to 14) (size 15 to 20)
#    0.000    2.000    1.667    2.500    0.000    6.333 
#    0.000    1.667    0.000    0.000    0.000    0.000 
#    0.000    0.667    0.000    7.000    0.000    3.833 
#
# Total GULP energy -595193.915424 kJ/mol
# GULP energy per Si atom -12399.873238 kJ/mol
# Density = 1.704915 g / cm^3
# Si number density = 17.088042 Si / 1000 Ang^3
#
#
#
# Elastic Constant Matrix: (Units=GPa)
#
#
# Indices 1 2 3 4 5 6 
#
# 1 83.2988 48.3545 33.7898 0.0000 0.0000 0.0000
# 2 48.3545 101.7464 40.6533 0.0000 0.0000 0.0000
# 3 33.7898 40.6533 69.3903 0.0000 0.0000 0.0000
# 4 0.0000 0.0000 0.0000 28.2936 0.0000 0.0000
# 5 0.0000 0.0000 0.0000 0.0000 24.9819 0.0000
# 6 0.0000 0.0000 0.0000 0.0000 0.0000 6.5092
#
#
#
# Elastic Compliance Matrix: (Units=1/GPa)
#
#
# Indices 1 2 3 4 5 6 
#
# 1 0.017737 -0.006500 -0.004829 0.000000 0.000000 0.000000
# 2 -0.006500 0.015214 -0.005748 0.000000 0.000000 0.000000
# 3 -0.004829 -0.005748 0.020130 0.000000 0.000000 0.000000
# 4 0.000000 0.000000 0.000000 0.035344 0.000000 0.000000
# 5 0.000000 0.000000 0.000000 0.000000 0.040029 0.000000
# 6 0.000000 0.000000 0.000000 0.000000 0.000000 0.153630
#
#
# Mechanical properties :
#
#
# Convention : Reuss Voigt Hill
#
# Bulk Modulus (GPa) = 52.83410 55.55897 54.19654
# Shear Modulus (GPa) = 15.50158 20.73278 18.11718
#
# Velocity S-wave (km/s) = 3.01518 3.48701 3.25964
# Velocity P-wave (km/s) = 6.56564 6.98543 6.77879
#
# Compressibility (1/GPa) = 0.01892717
#
# Stress axis : x y z
#
# Youngs Moduli (GPa) = 56.37915 65.72803 49.67608
#
# Poissons Ratio (x) = 0.42723 0.23988
# Poissons Ratio (y) = 0.36647 0.28555
# Poissons Ratio (z) = 0.27225 0.37782
#
# Static dielectric constant tensor:
#      x y z
#    x 3.124590 0.000000 0.000000 
#    y 0.000000 3.117970 0.000000 
#    z 0.000000 0.000000 3.188880 
# 
# 
# High freq. dielectric constant tensor:
#      x y z
#    x 1.627630 0.000000 0.000000 
#    y 0.000000 1.647530 0.000000 
#    z 0.000000 0.000000 1.668720 
# 
# From -- ./inp_files/6019.got.cif
#   From: 2010.03.12/outbox.cif.g09.slc.cpg/sg72_4_cif.got.tgz:6019.got - 2010.04.16 14:54:00.
