data_PCOD8293541
_publ_section_title
;
Structure prediction by ZEFSAII (Michael W. Deem and Ramdas Pophale) SiO2 
 PCOD8293541
Probable space group: I B A M
;
_chemical_formula_sum "Si O2"
_cell_formula_units_Z 116
_cell_length_a 10.191086
_cell_length_b 25.233945
_cell_length_c 24.419184
_cell_angle_alpha 90.000000
_cell_angle_beta 90.000000
_cell_angle_gamma 90.000000
_cell_volume 6279.669191
_symmetry_space_group_name_H-M "I B A M"
_symmetry_group_IT_number 72
_symmetry_cell_setting 'orthorhombic'
loop_
_space_group_symop_operation_xyz
x,y,z
-x,-y,z
x,-y,1/2-z
-x,y,1/2-z
-x,-y,-z
x,y,-z
-x,y,1/2+z
x,-y,1/2+z
1/2+x,1/2+y,1/2+z
1/2-x,1/2-y,1/2+z
1/2+x,1/2-y,-z
1/2-x,1/2+y,-z
1/2-x,1/2-y,1/2-z
1/2+x,1/2+y,1/2-z
1/2-x,1/2+y,z
1/2+x,1/2-y,z
loop_
_atom_site_type_symbol
_atom_site_label
_atom_site_fract_x
_atom_site_fract_y
_atom_site_fract_z
Si Si1 0.443874 0.885899 0.805527
Si Si2 0.932303 0.681251 0.091309
Si Si3 0.666048 0.375164 0.562779
Si Si4 0.304321 0.553473 0.667181
Si Si5 0.887053 0.535170 0.368652
Si Si6 0.573871 0.700176 0.436023
Si Si7 0.500000 0.500000 0.750000
Si Si8 0.308348 0.131493 0.939617
O O1 0.500000 0.861664 0.750000
O O2 0.457458 0.838063 0.847432
O O3 0.293084 0.905251 0.802866
O O4 0.537925 0.935349 0.819568
O O5 0.808461 0.651465 0.065305
O O6 0.918589 0.744052 0.094640
O O7 0.059279 0.665677 0.056143
O O8 0.645662 0.396977 0.500000
O O9 0.648365 0.421498 0.608578
O O10 0.562165 0.329195 0.576102
O O11 0.231471 0.498753 0.654803
O O12 0.418839 0.539392 0.710047
O O13 0.825775 0.575950 0.410463
O O14 0.000000 0.500000 0.398935
O O15 0.594482 0.711738 0.500000
O O16 0.692583 0.665234 0.411236
O O17 0.259524 0.117056 0.000000
#
# Coordination Sequence:
#
# PCOD8293541 Si02
#       8
#    16  16  16  16  16  16   4  16
#     4   9  18  36  58  80 105 136 183 237 280 318
#     4  10  19  33  58  83 108 144 187 228 270 327
#     4  10  21  37  57  83 117 149 179 225 284 341
#     4  10  22  36  56  82 108 145 192 225 276 334
#     4   9  19  34  55  80 104 138 178 230 274 318
#     4  10  20  34  54  80 114 150 179 219 276 336
#     4  12  24  36  56  76 104 152 188 228 264 328
#     4  10  20  32  52  83 111 142 182 222 271 329
#
# _framework density 18.472311000000001
#
# number of rings (size 3 to 8) (size 9 to 14) (size 15 to 20)
#    0.000    2.207    0.000    3.724    1.931    4.966 
#    0.000    0.345    1.517    4.966    0.000    0.000 
#    0.000    0.000    0.000    0.000    0.000    0.000 
#
# Total GULP energy -719012.928153 kJ/mol
# GULP energy per Si atom -12396.774623 kJ/mol
# Density = 1.843027 g / cm^3
# Si number density = 18.472311 Si / 1000 Ang^3
#
#
#
# Elastic Constant Matrix: (Units=GPa)
#
#
# Indices 1 2 3 4 5 6 
#
# 1 93.7120 41.8590 40.0998 0.0000 0.0000 0.0000
# 2 41.8590 101.7328 54.5493 0.0000 0.0000 0.0000
# 3 40.0998 54.5493 111.7301 0.0000 0.0000 0.0000
# 4 0.0000 0.0000 0.0000 12.2826 0.0000 0.0000
# 5 0.0000 0.0000 0.0000 0.0000 26.1676 0.0000
# 6 0.0000 0.0000 0.0000 0.0000 0.0000 28.8986
#
#
#
# Elastic Compliance Matrix: (Units=1/GPa)
#
#
# Indices 1 2 3 4 5 6 
#
# 1 0.013753 -0.004080 -0.002944 0.000000 0.000000 0.000000
# 2 -0.004080 0.014526 -0.005628 0.000000 0.000000 0.000000
# 3 -0.002944 -0.005628 0.012754 0.000000 0.000000 0.000000
# 4 0.000000 0.000000 0.000000 0.081416 0.000000 0.000000
# 5 0.000000 0.000000 0.000000 0.000000 0.038215 0.000000
# 6 0.000000 0.000000 0.000000 0.000000 0.000000 0.034604
#
#
# Mechanical properties :
#
#
# Convention : Reuss Voigt Hill
#
# Bulk Modulus (GPa) = 63.57308 64.46567 64.01937
# Shear Modulus (GPa) = 22.14195 24.84755 23.49475
#
# Velocity S-wave (km/s) = 3.46592 3.67157 3.57023
# Velocity P-wave (km/s) = 7.10682 7.27655 7.19218
#
# Compressibility (1/GPa) = 0.01572993
#
# Stress axis : x y z
#
# Youngs Moduli (GPa) = 72.70971 68.84167 78.40561
#
# Poissons Ratio (x) = 0.28090 0.23082
# Poissons Ratio (y) = 0.29669 0.44123
# Poissons Ratio (z) = 0.21405 0.38741
#
# Static dielectric constant tensor:
#      x y z
#    x 3.572830 0.000000 0.000000 
#    y 0.000000 3.329480 0.000000 
#    z 0.000000 0.000000 3.264720 
# 
# 
# High freq. dielectric constant tensor:
#      x y z
#    x 1.728880 0.000000 0.000000 
#    y 0.000000 1.710760 0.000000 
#    z 0.000000 0.000000 1.700170 
# 
# From -- ./inp_files/47607.got.cif
#   From: 2010.03.12/outbox.cif.g09.slc.cpg/sg72_24_cif.got.tgz:47607.got - 2010.04.16 14:54:00.
