data_PCOD8293156
_publ_section_title
;
Structure prediction by ZEFSAII (Michael W. Deem and Ramdas Pophale) SiO2 
 PCOD8293156
Probable space group: I B A M
;
_chemical_formula_sum "Si O2"
_cell_formula_units_Z 88
_cell_length_a 28.750073
_cell_length_b 10.461413
_cell_length_c 15.591695
_cell_angle_alpha 90.000000
_cell_angle_beta 90.000000
_cell_angle_gamma 90.000000
_cell_volume 4689.457779
_symmetry_space_group_name_H-M "I B A M"
_symmetry_group_IT_number 72
_symmetry_cell_setting 'orthorhombic'
loop_
_space_group_symop_operation_xyz
x,y,z
-x,-y,z
x,-y,1/2-z
-x,y,1/2-z
-x,-y,-z
x,y,-z
-x,y,1/2+z
x,-y,1/2+z
1/2+x,1/2+y,1/2+z
1/2-x,1/2-y,1/2+z
1/2+x,1/2-y,-z
1/2-x,1/2+y,-z
1/2-x,1/2-y,1/2-z
1/2+x,1/2+y,1/2-z
1/2-x,1/2+y,z
1/2+x,1/2-y,z
loop_
_atom_site_type_symbol
_atom_site_label
_atom_site_fract_x
_atom_site_fract_y
_atom_site_fract_z
Si Si1 0.875238 0.788374 0.350416
Si Si2 0.945517 0.996239 0.900787
Si Si3 0.760743 0.130533 0.500000
Si Si4 0.843662 0.666176 0.000000
Si Si5 0.841771 0.369426 0.000000
Si Si6 0.698181 0.500615 0.656322
Si Si7 0.381605 0.291490 0.339165
O O1 0.920329 0.876465 0.366569
O O2 0.871977 0.672422 0.417488
O O3 0.826998 0.866170 0.361881
O O4 0.880634 0.727661 0.255212
O O5 0.929359 0.868738 0.851837
O O6 0.932205 0.981777 0.000000
O O7 0.000000 0.000000 0.884361
O O8 0.797704 0.245882 0.500000
O O9 0.709726 0.193626 0.500000
O O10 0.765312 0.037791 0.417051
O O11 0.874460 0.689443 0.914772
O O12 0.830826 0.518903 0.000000
O O13 0.723325 0.500000 0.750000
O O14 0.658648 0.605557 0.657030
#
# Coordination Sequence:
#
# PCOD8293156 Si02
#       7
#    16  16   8   8   8  16  16
#     4  10  20  35  56  83 117 144 179 230 288 325
#     4  10  18  32  63  98 118 139 177 229 282 336
#     4  10  21  36  55  76 104 143 189 244 282 321
#     4  10  22  40  54  77 108 155 198 218 288 341
#     4  12  25  36  53  79 106 152 193 239 269 332
#     4   8  16  33  56  79 103 138 177 229 289 333
#     4   9  18  36  58  80 114 150 176 224 279 344
#
# _framework density 18.765495000000001
#
# number of rings (size 3 to 8) (size 9 to 14) (size 15 to 20)
#    0.000    2.364    1.818    2.182    5.091    2.182 
#    3.273    2.727    0.000    2.182    0.000    2.545 
#    0.000    0.000    0.000    0.000    0.000    0.000 
#
# Total GULP energy -545389.925030 kJ/mol
# GULP energy per Si atom -12395.225569 kJ/mol
# Density = 1.872278 g / cm^3
# Si number density = 18.765495 Si / 1000 Ang^3
#
#
#
# Elastic Constant Matrix: (Units=GPa)
#
#
# Indices 1 2 3 4 5 6 
#
# 1 70.0754 19.5384 39.5825 0.0000 0.0000 0.0000
# 2 19.5384 71.2228 45.4844 0.0000 0.0000 0.0000
# 3 39.5825 45.4844 169.5042 0.0000 0.0000 0.0000
# 4 0.0000 0.0000 0.0000 9.5591 0.0000 0.0000
# 5 0.0000 0.0000 0.0000 0.0000 8.6145 0.0000
# 6 0.0000 0.0000 0.0000 0.0000 0.0000 17.2925
#
#
#
# Elastic Compliance Matrix: (Units=1/GPa)
#
#
# Indices 1 2 3 4 5 6 
#
# 1 0.016811 -0.002540 -0.003244 0.000000 0.000000 0.000000
# 2 -0.002540 0.017328 -0.004057 0.000000 0.000000 0.000000
# 3 -0.003244 -0.004057 0.007746 0.000000 0.000000 0.000000
# 4 0.000000 0.000000 0.000000 0.104612 0.000000 0.000000
# 5 0.000000 0.000000 0.000000 0.000000 0.116083 0.000000
# 6 0.000000 0.000000 0.000000 0.000000 0.000000 0.057829
#
#
# Mechanical properties :
#
#
# Convention : Reuss Voigt Hill
#
# Bulk Modulus (GPa) = 45.03861 57.77921 51.40891
# Shear Modulus (GPa) = 14.38885 20.83970 17.61428
#
# Velocity S-wave (km/s) = 2.77207 3.33608 3.06707
# Velocity P-wave (km/s) = 5.85651 6.75990 6.32435
#
# Compressibility (1/GPa) = 0.02220317
#
# Stress axis : x y z
#
# Youngs Moduli (GPa) = 59.48491 57.71058 129.10454
#
# Poissons Ratio (x) = 0.14658 0.41883
# Poissons Ratio (y) = 0.15109 0.52372
# Poissons Ratio (z) = 0.19298 0.23411
#
# Static dielectric constant tensor:
#      x y z
#    x 3.168190 0.000000 0.000000 
#    y 0.000000 3.104840 0.000000 
#    z 0.000000 0.000000 4.183850 
# 
# 
# High freq. dielectric constant tensor:
#      x y z
#    x 1.700580 0.000000 0.000000 
#    y 0.000000 1.692090 0.000000 
#    z 0.000000 0.000000 1.755050 
# 
# From -- ./inp_files/26283.got.cif
#   From: 2010.03.12/outbox.cif.g09.slc.cpg/sg72_14_cif.got.tgz:26283.got - 2010.04.16 14:54:00.
