data_PCOD8293428
_publ_section_title
;
Structure prediction by ZEFSAII (Michael W. Deem and Ramdas Pophale) SiO2 
 PCOD8293428
Probable space group: I B A M
;
_chemical_formula_sum "Si O2"
_cell_formula_units_Z 96
_cell_length_a 29.534747
_cell_length_b 9.428430
_cell_length_c 13.783355
_cell_angle_alpha 90.000000
_cell_angle_beta 90.000000
_cell_angle_gamma 90.000000
_cell_volume 3838.199795
_symmetry_space_group_name_H-M "I B A M"
_symmetry_group_IT_number 72
_symmetry_cell_setting 'orthorhombic'
loop_
_space_group_symop_operation_xyz
x,y,z
-x,-y,z
x,-y,1/2-z
-x,y,1/2-z
-x,-y,-z
x,y,-z
-x,y,1/2+z
x,-y,1/2+z
1/2+x,1/2+y,1/2+z
1/2-x,1/2-y,1/2+z
1/2+x,1/2-y,-z
1/2-x,1/2+y,-z
1/2-x,1/2-y,1/2-z
1/2+x,1/2+y,1/2-z
1/2-x,1/2+y,z
1/2+x,1/2-y,z
loop_
_atom_site_type_symbol
_atom_site_label
_atom_site_fract_x
_atom_site_fract_y
_atom_site_fract_z
Si Si1 0.787419 0.737914 0.883957
Si Si2 0.297128 0.444523 0.115201
Si Si3 0.882554 0.772022 0.384458
Si Si4 0.038406 0.588849 0.652128
Si Si5 0.635650 0.035480 0.107485
Si Si6 0.982990 0.153302 0.115127
O O1 0.741259 0.664342 0.847760
O O2 0.790050 0.897859 0.839906
O O3 0.829354 0.644345 0.842040
O O4 0.789724 0.748956 0.000000
O O5 0.345904 0.387364 0.149678
O O6 0.294576 0.453385 0.000000
O O7 0.883650 0.758074 0.500000
O O8 0.868823 0.617662 0.339043
O O9 0.931938 0.817890 0.346708
O O10 0.046480 0.500000 0.750000
O O11 0.085937 0.604871 0.597710
O O12 0.018427 0.744659 0.669364
O O13 0.000000 0.500000 0.591343
O O14 0.655161 0.007966 0.000000
O O15 0.986105 0.175746 0.000000
O O16 0.000000 0.000000 0.146582
#
# Coordination Sequence:
#
# PCOD8293428 Si02
#       6
#    16  16  16  16  16  16
#     4   9  17  27  45  74 109 149 184 229 290 354
#     4   9  16  27  43  72 115 148 181 227 290 362
#     4   9  17  29  47  75 110 145 182 233 294 352
#     4  11  23  39  57  81 116 156 205 243 298 361
#     4  10  19  32  54  80 109 148 194 244 295 348
#     4  10  21  36  59  89 121 154 193 250 310 363
#
# _framework density 25.011727
#
# number of rings (size 3 to 8) (size 9 to 14) (size 15 to 20)
#    0.000    2.333    1.667    1.500    2.333    4.667 
#    0.000    1.667    0.000    0.000    0.000    4.667 
#    0.000    0.000    0.000    0.000    0.000    0.000 
#
# Total GULP energy -594970.977531 kJ/mol
# GULP energy per Si atom -12395.228699 kJ/mol
# Density = 2.495480 g / cm^3
# Si number density = 25.011727 Si / 1000 Ang^3
#
#
#
# Elastic Constant Matrix: (Units=GPa)
#
#
# Indices 1 2 3 4 5 6 
#
# 1 186.0425 106.3797 11.8187 0.0000 0.0000 0.0000
# 2 106.3797 257.4066 9.9489 0.0000 0.0000 0.0000
# 3 11.8187 9.9489 12.5745 0.0000 0.0000 0.0000
# 4 0.0000 0.0000 0.0000 1308.5958 0.0000 0.0000
# 5 0.0000 0.0000 0.0000 0.0000 13.3072 0.0000
# 6 0.0000 0.0000 0.0000 0.0000 0.0000 57.7314
#
#
#
# Elastic Compliance Matrix: (Units=1/GPa)
#
#
# Indices 1 2 3 4 5 6 
#
# 1 0.007288 -0.002834 -0.004608 0.000000 0.000000 0.000000
# 2 -0.002834 0.005109 -0.001379 0.000000 0.000000 0.000000
# 3 -0.004608 -0.001379 0.084948 0.000000 0.000000 0.000000
# 4 0.000000 0.000000 0.000000 0.000764 0.000000 0.000000
# 5 0.000000 0.000000 0.000000 0.000000 0.075147 0.000000
# 6 0.000000 0.000000 0.000000 0.000000 0.000000 0.017322
#
#
# Mechanical properties :
#
#
# Convention : Reuss Voigt Hill
#
# Bulk Modulus (GPa) = 12.54640 79.14645 45.84643
# Shear Modulus (GPa) = 21.29574 297.78532 159.54053
#
# Velocity S-wave (km/s) = 2.92109 10.92322 7.99530
# Velocity P-wave (km/s) = 4.05020 13.81309 10.17855
#
# Compressibility (1/GPa) = 0.07970415
#
# Stress axis : x y z
#
# Youngs Moduli (GPa) = 137.20569 195.71729 11.77187
#
# Poissons Ratio (x) = 0.55466 0.05425
# Poissons Ratio (y) = 0.38884 0.01623
# Poissons Ratio (z) = 0.63225 0.26987
#
# Static dielectric constant tensor:
#      x y z
#    x 4.751210 0.000000 0.000000 
#    y 0.000000 4.719400 0.000000 
#    z 0.000000 0.000000 3.947250 
# 
# 
# High freq. dielectric constant tensor:
#      x y z
#    x 2.001960 0.000000 0.000000 
#    y 0.000000 2.001120 0.000000 
#    z 0.000000 0.000000 1.973510 
# 
# From -- ./inp_files/40694.got.cif
#   From: 2010.03.12/outbox.cif.g09.slc.cpg/sg72_21_cif.got.tgz:40694.got - 2010.04.16 14:54:00.
