data_PCOD8293897
_publ_section_title
;
Structure prediction by ZEFSAII (Michael W. Deem and Ramdas Pophale) SiO2 
 PCOD8293897
Probable space group: I B A M
;
_chemical_formula_sum "Si O2"
_cell_formula_units_Z 116
_cell_length_a 24.462672
_cell_length_b 24.751246
_cell_length_c 9.118520
_cell_angle_alpha 90.000000
_cell_angle_beta 90.000000
_cell_angle_gamma 90.000000
_cell_volume 5521.096193
_symmetry_space_group_name_H-M "I B A M"
_symmetry_group_IT_number 72
_symmetry_cell_setting 'orthorhombic'
loop_
_space_group_symop_operation_xyz
x,y,z
-x,-y,z
x,-y,1/2-z
-x,y,1/2-z
-x,-y,-z
x,y,-z
-x,y,1/2+z
x,-y,1/2+z
1/2+x,1/2+y,1/2+z
1/2-x,1/2-y,1/2+z
1/2+x,1/2-y,-z
1/2-x,1/2+y,-z
1/2-x,1/2-y,1/2-z
1/2+x,1/2+y,1/2-z
1/2-x,1/2+y,z
1/2+x,1/2-y,z
loop_
_atom_site_type_symbol
_atom_site_label
_atom_site_fract_x
_atom_site_fract_y
_atom_site_fract_z
Si Si1 0.500000 0.500000 0.750000
Si Si2 0.370418 0.795222 0.830567
Si Si3 0.054066 0.198337 0.170703
Si Si4 0.554638 0.875028 0.172615
Si Si5 0.703984 0.554428 0.325952
Si Si6 0.913842 0.083595 0.663326
Si Si7 0.277630 0.133803 0.660530
Si Si8 0.374057 0.950504 0.162678
O O1 0.539002 0.461666 0.845459
O O2 0.390762 0.733758 0.804079
O O3 0.401280 0.829549 0.708241
O O4 0.304655 0.806614 0.803562
O O5 0.384693 0.811835 0.000000
O O6 0.065933 0.138824 0.240593
O O7 0.000000 0.222437 0.250000
O O8 0.039113 0.194866 0.000000
O O9 0.500000 0.855033 0.250000
O O10 0.573066 0.931691 0.244775
O O11 0.546760 0.881647 0.000000
O O12 0.727833 0.500000 0.250000
O O13 0.708960 0.547088 0.500000
O O14 0.641889 0.560957 0.265330
O O15 0.736196 0.609147 0.279677
O O16 0.897233 0.100417 0.500000
O O17 0.248769 0.134892 0.500000
O O18 0.330683 0.096680 0.653434
O O19 0.346801 0.000000 0.250000
O O20 0.392294 0.968411 0.000000
#
# Coordination Sequence:
#
# PCOD8293897 Si02
#       8
#     4  16  16  16  16  16  16  16
#     4  12  18  40  64  86 128 164 198 232 294 348
#     4   9  19  36  58  80 108 145 189 239 292 346
#     4  10  20  37  59  86 118 154 195 243 294 351
#     4  11  21  33  50  72 102 138 181 230 287 348
#     4  11  22  37  57  85 118 154 196 244 292 349
#     4  10  22  37  58  89 123 159 195 235 292 351
#     4   9  19  36  56  80 108 145 189 236 288 344
#     4  10  20  34  51  73 102 136 181 231 288 349
#
# _framework density 21.010321000000001
#
# number of rings (size 3 to 8) (size 9 to 14) (size 15 to 20)
#    0.000    1.931    1.379    3.931    0.000    5.793 
#    0.000    3.448    0.000    0.000    0.000    0.000 
#    0.000    0.000    0.000    0.000    0.000    0.000 
#
# Total GULP energy -718621.758574 kJ/mol
# GULP energy per Si atom -12390.030320 kJ/mol
# Density = 2.096250 g / cm^3
# Si number density = 21.010321 Si / 1000 Ang^3
#
#
#
# Elastic Constant Matrix: (Units=GPa)
#
#
# Indices 1 2 3 4 5 6 
#
# 1 99.4649 40.8591 34.9024 0.0000 0.0000 0.0000
# 2 40.8591 105.4808 27.7765 0.0000 0.0000 0.0000
# 3 34.9024 27.7765 113.6830 0.0000 0.0000 0.0000
# 4 0.0000 0.0000 0.0000 21.2610 0.0000 0.0000
# 5 0.0000 0.0000 0.0000 0.0000 22.2660 0.0000
# 6 0.0000 0.0000 0.0000 0.0000 0.0000 33.7864
#
#
#
# Elastic Compliance Matrix: (Units=1/GPa)
#
#
# Indices 1 2 3 4 5 6 
#
# 1 0.012795 -0.004191 -0.002904 0.000000 0.000000 0.000000
# 2 -0.004191 0.011505 -0.001524 0.000000 0.000000 0.000000
# 3 -0.002904 -0.001524 0.010060 0.000000 0.000000 0.000000
# 4 0.000000 0.000000 0.000000 0.047034 0.000000 0.000000
# 5 0.000000 0.000000 0.000000 0.000000 0.044912 0.000000
# 6 0.000000 0.000000 0.000000 0.000000 0.000000 0.029598
#
#
# Mechanical properties :
#
#
# Convention : Reuss Voigt Hill
#
# Bulk Modulus (GPa) = 58.40818 58.41162 58.40990
# Shear Modulus (GPa) = 27.95630 29.80207 28.87919
#
# Velocity S-wave (km/s) = 3.65169 3.77032 3.71148
# Velocity P-wave (km/s) = 6.75573 6.84218 6.79910
#
# Compressibility (1/GPa) = 0.01712089
#
# Stress axis : x y z
#
# Youngs Moduli (GPa) = 78.15793 86.91586 99.39953
#
# Poissons Ratio (x) = 0.36430 0.28866
# Poissons Ratio (y) = 0.32759 0.15152
# Poissons Ratio (z) = 0.22697 0.13249
#
# Static dielectric constant tensor:
#      x y z
#    x 3.787980 0.000000 0.000000 
#    y 0.000000 3.981470 0.000000 
#    z 0.000000 0.000000 3.618120 
# 
# 
# High freq. dielectric constant tensor:
#      x y z
#    x 1.810880 0.000000 0.000000 
#    y 0.000000 1.818150 0.000000 
#    z 0.000000 0.000000 1.808930 
# 
# From -- ./inp_files/7249.got.cif
#   From: 2010.03.12/outbox.cif.g09.slc.cpg/sg72_4_cif.got.tgz:7249.got - 2010.04.16 14:54:00.
