data_PCOD8293352
_publ_section_title
;
Structure prediction by ZEFSAII (Michael W. Deem and Ramdas Pophale) SiO2 
 PCOD8293352
Probable space group: I B A M
;
_chemical_formula_sum "Si O2"
_cell_formula_units_Z 112
_cell_length_a 13.872538
_cell_length_b 22.372325
_cell_length_c 18.893575
_cell_angle_alpha 90.000000
_cell_angle_beta 90.000000
_cell_angle_gamma 90.000000
_cell_volume 5863.827484
_symmetry_space_group_name_H-M "I B A M"
_symmetry_group_IT_number 72
_symmetry_cell_setting 'orthorhombic'
loop_
_space_group_symop_operation_xyz
x,y,z
-x,-y,z
x,-y,1/2-z
-x,y,1/2-z
-x,-y,-z
x,y,-z
-x,y,1/2+z
x,-y,1/2+z
1/2+x,1/2+y,1/2+z
1/2-x,1/2-y,1/2+z
1/2+x,1/2-y,-z
1/2-x,1/2+y,-z
1/2-x,1/2-y,1/2-z
1/2+x,1/2+y,1/2-z
1/2-x,1/2+y,z
1/2+x,1/2-y,z
loop_
_atom_site_type_symbol
_atom_site_label
_atom_site_fract_x
_atom_site_fract_y
_atom_site_fract_z
Si Si1 0.050550 0.216835 0.678454
Si Si2 0.237995 0.889813 0.665063
Si Si3 0.795976 0.121040 0.829782
Si Si4 0.608785 0.498791 0.334090
Si Si5 0.448140 0.854291 0.678193
Si Si6 0.125695 0.792637 0.580325
Si Si7 0.376176 0.844530 0.919767
O O1 0.145646 0.181431 0.656723
O O2 0.081909 0.285295 0.691184
O O3 0.000000 0.191638 0.750000
O O4 0.979746 0.204364 0.613720
O O5 0.219732 0.882398 0.747055
O O6 0.354483 0.894052 0.657496
O O7 0.202490 0.832014 0.622618
O O8 0.178699 0.947962 0.637247
O O9 0.851433 0.064149 0.860669
O O10 0.695906 0.119124 0.870726
O O11 0.500000 0.500000 0.364738
O O12 0.606288 0.500000 0.250000
O O13 0.500000 0.878452 0.750000
O O14 0.517763 0.856401 0.610730
O O15 0.120043 0.815942 0.500000
O O16 0.158182 0.723982 0.583560
O O17 0.374472 0.868348 0.000000
#
# Coordination Sequence:
#
# PCOD8293352 Si02
#       7
#    16  16  16  16  16  16  16
#     4  10  19  31  55  85 112 148 187 232 286 339
#     4  11  20  35  59  83 112 152 197 237 278 332
#     4  11  20  34  59  83 112 151 194 234 276 336
#     4   9  20  35  56  85 115 145 187 238 284 326
#     4  10  20  34  55  84 112 143 191 239 280 336
#     4  10  21  35  54  85 120 148 182 232 291 347
#     4  10  22  38  55  82 119 151 181 232 294 342
#
# _framework density 19.100152000000001
#
# number of rings (size 3 to 8) (size 9 to 14) (size 15 to 20)
#    0.000    1.857    2.857    1.714    2.000    2.286 
#    0.000    4.286    0.000    2.571    0.000    0.000 
#    0.000    0.000    0.000    0.000    0.000    0.000 
#
# Total GULP energy -694267.137335 kJ/mol
# GULP energy per Si atom -12397.627452 kJ/mol
# Density = 1.905668 g / cm^3
# Si number density = 19.100152 Si / 1000 Ang^3
#
#
#
# Elastic Constant Matrix: (Units=GPa)
#
#
# Indices 1 2 3 4 5 6 
#
# 1 131.3642 53.0807 28.4611 0.0000 0.0000 0.0000
# 2 53.0807 63.8889 21.8297 0.0001 0.0000 0.0000
# 3 28.4611 21.8297 89.8266 0.0002 0.0000 -0.0001
# 4 0.0000 0.0001 0.0002 8.6739 0.0000 0.0000
# 5 0.0000 0.0000 0.0000 0.0000 23.1143 0.0000
# 6 0.0000 0.0000 -0.0001 0.0000 0.0000 8.8632
#
#
#
# Elastic Compliance Matrix: (Units=1/GPa)
#
#
# Indices 1 2 3 4 5 6 
#
# 1 0.011632 -0.009166 -0.001458 0.000000 0.000000 0.000000
# 2 -0.009166 0.024292 -0.002999 0.000000 0.000000 0.000000
# 3 -0.001458 -0.002999 0.012323 0.000000 0.000000 0.000000
# 4 0.000000 0.000000 0.000000 0.115289 0.000000 0.000000
# 5 0.000000 0.000000 0.000000 0.000000 0.043263 0.000000
# 6 0.000000 0.000000 0.000000 0.000000 0.000000 0.112826
#
#
# Mechanical properties :
#
#
# Convention : Reuss Voigt Hill
#
# Bulk Modulus (GPa) = 47.61662 54.64696 51.13179
# Shear Modulus (GPa) = 14.12938 20.24418 17.18678
#
# Velocity S-wave (km/s) = 2.72279 3.25914 3.00296
# Velocity P-wave (km/s) = 5.90499 6.54488 6.23315
#
# Compressibility (1/GPa) = 0.02100107
#
# Stress axis : x y z
#
# Youngs Moduli (GPa) = 85.96922 41.16517 81.14631
#
# Poissons Ratio (x) = 0.37732 0.11831
# Poissons Ratio (y) = 0.78800 0.24338
# Poissons Ratio (z) = 0.12535 0.12347
#
# Static dielectric constant tensor:
#      x y z
#    x 3.436790 0.000000 0.000000 
#    y 0.000000 3.468770 0.000000 
#    z 0.000000 0.000000 3.364100 
# 
# 
# High freq. dielectric constant tensor:
#      x y z
#    x 1.751000 0.000000 0.000000 
#    y 0.000000 1.722620 0.000000 
#    z 0.000000 0.000000 1.723890 
# 
# From -- ./inp_files/37449.got.cif
#   From: 2010.03.12/outbox.cif.g09.slc.cpg/sg72_19_cif.got.tgz:37449.got - 2010.04.16 14:54:00.
