data_PCOD8293117
_publ_section_title
;
Structure prediction by ZEFSAII (Michael W. Deem and Ramdas Pophale) SiO2 
 PCOD8293117
Probable space group: I B A M
;
_chemical_formula_sum "Si O2"
_cell_formula_units_Z 116
_cell_length_a 26.905834
_cell_length_b 26.861925
_cell_length_c 8.717973
_cell_angle_alpha 90.000000
_cell_angle_beta 90.000000
_cell_angle_gamma 90.000000
_cell_volume 6300.849557
_symmetry_space_group_name_H-M "I B A M"
_symmetry_group_IT_number 72
_symmetry_cell_setting 'orthorhombic'
loop_
_space_group_symop_operation_xyz
x,y,z
-x,-y,z
x,-y,1/2-z
-x,y,1/2-z
-x,-y,-z
x,y,-z
-x,y,1/2+z
x,-y,1/2+z
1/2+x,1/2+y,1/2+z
1/2-x,1/2-y,1/2+z
1/2+x,1/2-y,-z
1/2-x,1/2+y,-z
1/2-x,1/2-y,1/2-z
1/2+x,1/2+y,1/2-z
1/2-x,1/2+y,z
1/2+x,1/2-y,z
loop_
_atom_site_type_symbol
_atom_site_label
_atom_site_fract_x
_atom_site_fract_y
_atom_site_fract_z
Si Si1 0.867724 0.252722 0.320641
Si Si2 0.820263 0.082814 0.318487
Si Si3 0.000000 0.000000 0.250000
Si Si4 0.718167 0.049647 0.182101
Si Si5 0.185859 0.346090 0.180407
Si Si6 0.448752 0.316603 0.179906
Si Si7 0.082076 0.075347 0.329333
Si Si8 0.792935 0.183744 0.182488
O O1 0.879348 0.246150 0.500000
O O2 0.861646 0.311754 0.274377
O O3 0.909326 0.225933 0.221857
O O4 0.814265 0.230114 0.277018
O O5 0.814969 0.088787 0.500000
O O6 0.773144 0.053045 0.253742
O O7 0.872348 0.055096 0.276277
O O8 0.824864 0.135698 0.232571
O O9 0.963432 0.963689 0.343957
O O10 0.682903 0.096140 0.233914
O O11 0.692681 0.000000 0.250000
O O12 0.723341 0.046741 0.000000
O O13 0.237142 0.323394 0.244697
O O14 0.191945 0.345159 0.000000
O O15 0.500000 0.297912 0.250000
O O16 0.435788 0.371736 0.243022
O O17 0.454289 0.318942 0.000000
O O18 0.102793 0.083931 0.500000
O O19 0.797959 0.191610 0.000000
#
# Coordination Sequence:
#
# PCOD8293117 Si02
#       8
#    16  16   4  16  16  16  16  16
#     4  11  20  33  54  80 106 138 177 215 265 326
#     4  11  22  35  54  76 100 135 178 219 268 325
#     4  12  26  44  60  74  90 128 188 230 292 332
#     4  10  20  37  56  77 108 143 179 217 260 305
#     4   8  18  33  51  76 109 142 175 217 259 310
#     4  11  23  40  59  78 103 136 174 223 280 331
#     4  11  24  41  58  74  98 127 170 230 286 328
#     4  10  18  32  51  75 107 140 173 216 266 314
#
# _framework density 18.410215000000001
#
# number of rings (size 3 to 8) (size 9 to 14) (size 15 to 20)
#    0.000    1.655    2.069    4.345    0.966    1.655 
#    0.000    7.586    0.000    0.000    0.000    0.000 
#    0.000    0.552    0.000    6.345    0.000    1.931 
#
# Total GULP energy -718778.602997 kJ/mol
# GULP energy per Si atom -12392.734534 kJ/mol
# Density = 1.836831 g / cm^3
# Si number density = 18.410215 Si / 1000 Ang^3
#
#
#
# Elastic Constant Matrix: (Units=GPa)
#
#
# Indices 1 2 3 4 5 6 
#
# 1 56.6666 45.9483 13.0072 0.0000 0.0000 0.0000
# 2 45.9483 123.4638 18.4833 0.0000 0.0000 0.0000
# 3 13.0072 18.4833 63.5978 0.0000 0.0000 0.0000
# 4 0.0000 0.0000 0.0000 19.8854 0.0000 0.0000
# 5 0.0000 0.0000 0.0000 0.0000 20.2561 0.0000
# 6 0.0000 0.0000 0.0000 0.0000 0.0000 23.8244
#
#
#
# Elastic Compliance Matrix: (Units=1/GPa)
#
#
# Indices 1 2 3 4 5 6 
#
# 1 0.025675 -0.009168 -0.002587 0.000000 0.000000 0.000000
# 2 -0.009168 0.011742 -0.001537 0.000000 0.000000 0.000000
# 3 -0.002587 -0.001537 0.016700 0.000000 0.000000 0.000000
# 4 0.000000 0.000000 0.000000 0.050288 0.000000 0.000000
# 5 0.000000 0.000000 0.000000 0.000000 0.049368 0.000000
# 6 0.000000 0.000000 0.000000 0.000000 0.000000 0.041974
#
#
# Mechanical properties :
#
#
# Convention : Reuss Voigt Hill
#
# Bulk Modulus (GPa) = 36.32122 44.28955 40.30538
# Shear Modulus (GPa) = 21.59765 23.87913 22.73839
#
# Velocity S-wave (km/s) = 3.42882 3.60538 3.51821
# Velocity P-wave (km/s) = 5.95377 6.43746 6.20034
#
# Compressibility (1/GPa) = 0.02753212
#
# Stress axis : x y z
#
# Youngs Moduli (GPa) = 38.94908 85.16727 59.88149
#
# Poissons Ratio (x) = 0.78080 0.15489
# Poissons Ratio (y) = 0.35708 0.09206
# Poissons Ratio (z) = 0.10075 0.13094
#
# Static dielectric constant tensor:
#      x y z
#    x 3.182110 0.000000 0.000000 
#    y 0.000000 3.754280 0.000000 
#    z 0.000000 0.000000 3.236110 
# 
# 
# High freq. dielectric constant tensor:
#      x y z
#    x 1.674310 0.000000 0.000000 
#    y 0.000000 1.714530 0.000000 
#    z 0.000000 0.000000 1.711190 
# 
# From -- ./inp_files/7260.got.cif
#   From: 2010.03.12/outbox.cif.g09.slc.cpg/sg72_4_cif.got.tgz:7260.got - 2010.04.16 14:54:00.
