data_PCOD8293810
_publ_section_title
;
Structure prediction by ZEFSAII (Michael W. Deem and Ramdas Pophale) SiO2 
 PCOD8293810
Probable space group: I B A M
;
_chemical_formula_sum "Si O2"
_cell_formula_units_Z 112
_cell_length_a 17.098888
_cell_length_b 26.115487
_cell_length_c 14.411237
_cell_angle_alpha 90.000000
_cell_angle_beta 90.000000
_cell_angle_gamma 90.000000
_cell_volume 6435.277172
_symmetry_space_group_name_H-M "I B A M"
_symmetry_group_IT_number 72
_symmetry_cell_setting 'orthorhombic'
loop_
_space_group_symop_operation_xyz
x,y,z
-x,-y,z
x,-y,1/2-z
-x,y,1/2-z
-x,-y,-z
x,y,-z
-x,y,1/2+z
x,-y,1/2+z
1/2+x,1/2+y,1/2+z
1/2-x,1/2-y,1/2+z
1/2+x,1/2-y,-z
1/2-x,1/2+y,-z
1/2-x,1/2-y,1/2-z
1/2+x,1/2+y,1/2-z
1/2-x,1/2+y,z
1/2+x,1/2-y,z
loop_
_atom_site_type_symbol
_atom_site_label
_atom_site_fract_x
_atom_site_fract_y
_atom_site_fract_z
Si Si1 0.831592 0.556697 0.750000
Si Si2 0.710480 0.593589 0.893127
Si Si3 0.290843 0.800940 0.894368
Si Si4 0.409370 0.838833 0.750000
Si Si5 0.089553 0.939452 0.750000
Si Si6 0.789520 0.093589 0.393127
Si Si7 0.709157 0.800940 0.894368
O O1 0.869710 0.500000 0.750000
O O2 0.778382 0.561919 0.841779
O O3 0.899144 0.599494 0.750000
O O4 0.778382 0.438081 0.841779
O O5 0.728060 0.653763 0.883754
O O6 0.628191 0.583173 0.843235
O O7 0.706145 0.575900 0.000000
O O8 0.369850 0.813920 0.840011
O O9 0.250000 0.750000 0.854268
O O10 0.316838 0.792610 0.000000
O O11 0.500000 0.824962 0.750000
O O12 0.369850 0.813920 0.659989
O O13 0.128191 0.916827 0.656765
O O14 0.000000 0.922254 0.750000
O O15 0.099766 0.000000 0.750000
O O16 0.793856 0.075900 0.500000
O O17 0.771940 0.153763 0.383754
O O18 0.683162 0.792610 0.000000
#
# Coordination Sequence:
#
# PCOD8293810 Si02
#       7
#    16  16  16  16  16  16  16
#     4   9  18  31  47  70  96 122 159 198 228 272
#     4   9  17  31  51  70  90 121 160 198 233 275
#     4   9  18  34  54  73  95 125 160 195 231 275
#     4  10  20  32  49  74 101 128 155 189 237 283
#     4  10  21  33  44  65  97 126 154 195 244 287
#     4   9  17  31  51  70  90 121 160 198 233 275
#     4   9  18  34  54  73  95 125 160 195 231 275
#
# _framework density 17.404067000000001
#
# number of rings (size 3 to 8) (size 9 to 14) (size 15 to 20)
#    0.000    2.714    0.000    3.000    0.000    3.714 
#    0.000    4.286    0.000    5.143    0.000    8.000 
#    0.000    0.000    0.000    0.000    0.000    0.000 
#
# Total GULP energy -694367.646528 kJ/mol
# GULP energy per Si atom -12399.422259 kJ/mol
# Density = 1.736445 g / cm^3
# Si number density = 17.404067 Si / 1000 Ang^3
#
#
#
# Elastic Constant Matrix: (Units=GPa)
#
#
# Indices 1 2 3 4 5 6 
#
# 1 123.4407 43.7729 53.1491 0.0000 0.0000 0.0000
# 2 43.7729 113.3508 34.5032 -0.0001 0.0000 0.0000
# 3 53.1491 34.5032 130.8312 -0.0004 0.0000 0.0000
# 4 0.0000 -0.0001 -0.0004 12.4300 0.0000 0.0000
# 5 0.0000 0.0000 0.0000 0.0000 2.3816 0.0000
# 6 0.0000 0.0000 0.0000 0.0000 0.0000 15.8587
#
#
#
# Elastic Compliance Matrix: (Units=1/GPa)
#
#
# Indices 1 2 3 4 5 6 
#
# 1 0.010712 -0.003057 -0.003545 0.000000 0.000000 0.000000
# 2 -0.003057 0.010465 -0.001518 0.000000 0.000000 0.000000
# 3 -0.003545 -0.001518 0.009484 0.000000 0.000000 0.000000
# 4 0.000000 0.000000 0.000000 0.080451 0.000000 0.000000
# 5 0.000000 0.000000 0.000000 0.000000 0.419893 0.000000
# 6 0.000000 0.000000 0.000000 0.000000 0.000000 0.063057
#
#
# Mechanical properties :
#
#
# Convention : Reuss Voigt Hill
#
# Bulk Modulus (GPa) = 69.34982 70.05256 69.70119
# Shear Modulus (GPa) = 8.12865 21.88055 15.00460
#
# Velocity S-wave (km/s) = 2.16349 3.54956 2.93939
# Velocity P-wave (km/s) = 6.79517 7.55892 7.18720
#
# Compressibility (1/GPa) = 0.01441965
#
# Stress axis : x y z
#
# Youngs Moduli (GPa) = 93.35602 95.55795 105.44150
#
# Poissons Ratio (x) = 0.29216 0.37381
# Poissons Ratio (y) = 0.28543 0.16004
# Poissons Ratio (z) = 0.33097 0.14504
#
# Static dielectric constant tensor:
#      x y z
#    x 2.917690 0.000000 0.000000 
#    y 0.000000 3.351040 0.000000 
#    z 0.000000 0.000000 3.521910 
# 
# 
# High freq. dielectric constant tensor:
#      x y z
#    x 1.639690 0.000000 0.000000 
#    y 0.000000 1.681250 0.000000 
#    z 0.000000 0.000000 1.684590 
# 
# From -- ./inp_files/22113.got.cif
#   From: 2010.03.12/outbox.cif.g09.slc.cpg/sg72_12_cif.got.tgz:22113.got - 2010.04.16 14:54:00.
