data_PCOD8293495
_publ_section_title
;
Structure prediction by ZEFSAII (Michael W. Deem and Ramdas Pophale) SiO2 
 PCOD8293495
Probable space group: I B A M
;
_chemical_formula_sum "Si O2"
_cell_formula_units_Z 112
_cell_length_a 11.377935
_cell_length_b 33.276412
_cell_length_c 15.143499
_cell_angle_alpha 90.000000
_cell_angle_beta 90.000000
_cell_angle_gamma 90.000000
_cell_volume 5733.583931
_symmetry_space_group_name_H-M "I B A M"
_symmetry_group_IT_number 72
_symmetry_cell_setting 'orthorhombic'
loop_
_space_group_symop_operation_xyz
x,y,z
-x,-y,z
x,-y,1/2-z
-x,y,1/2-z
-x,-y,-z
x,y,-z
-x,y,1/2+z
x,-y,1/2+z
1/2+x,1/2+y,1/2+z
1/2-x,1/2-y,1/2+z
1/2+x,1/2-y,-z
1/2-x,1/2+y,-z
1/2-x,1/2-y,1/2-z
1/2+x,1/2+y,1/2-z
1/2-x,1/2+y,z
1/2+x,1/2-y,z
loop_
_atom_site_type_symbol
_atom_site_label
_atom_site_fract_x
_atom_site_fract_y
_atom_site_fract_z
Si Si1 0.863191 0.779275 0.250000
Si Si2 0.367745 0.500000 0.105378
Si Si3 0.134245 0.156458 0.399215
Si Si4 0.365755 0.343542 0.399215
Si Si5 0.500000 0.045809 0.854168
Si Si6 0.254972 0.922238 0.399006
Si Si7 0.245028 0.577762 0.600994
O O1 0.750000 0.750000 0.250000
O O2 0.846923 0.804935 0.338619
O O3 0.846923 0.804935 0.161381
O O4 0.000000 0.761223 0.250000
O O5 0.500000 0.500000 0.137526
O O6 0.306844 0.539449 0.147027
O O7 0.306844 0.460551 0.147027
O O8 0.353760 0.500000 0.000000
O O9 0.170382 0.167719 0.500000
O O10 0.213006 0.120173 0.358512
O O11 0.000000 0.141672 0.395518
O O12 0.329618 0.332281 0.500000
O O13 0.286994 0.379827 0.358512
O O14 0.500000 0.044146 0.750000
O O15 0.392998 0.071916 0.889902
O O16 0.607002 0.071916 0.889902
O O17 0.500000 0.000000 0.892412
O O18 0.214528 0.920718 0.500000
O O19 0.285472 0.579282 0.500000
#
# Coordination Sequence:
#
# PCOD8293495 Si02
#       7
#    16  16  16  16  16  16  16
#     4  10  22  42  66  91 118 151 187 228 291 358
#     4   9  16  27  49  78 104 135 180 231 274 320
#     4   9  19  37  61  88 117 148 186 235 287 340
#     4   9  19  37  61  88 117 148 186 235 287 340
#     4  11  23  35  47  69 111 159 197 237 283 329
#     4  10  19  33  54  77 105 144 190 232 277 331
#     4  10  19  33  54  77 105 144 190 232 277 331
#
# _framework density 19.534030000000001
#
# number of rings (size 3 to 8) (size 9 to 14) (size 15 to 20)
#    0.000    2.286    1.429    1.286    2.000    4.571 
#    2.571    0.000    0.000    0.857    0.000    0.000 
#    0.000    0.000    0.000    0.000    0.000    0.000 
#
# Total GULP energy -694030.236035 kJ/mol
# GULP energy per Si atom -12393.397072 kJ/mol
# Density = 1.948957 g / cm^3
# Si number density = 19.534030 Si / 1000 Ang^3
#
#
#
# Elastic Constant Matrix: (Units=GPa)
#
#
# Indices 1 2 3 4 5 6 
#
# 1 156.1207 81.0126 15.5389 0.0000 0.0000 0.0000
# 2 81.0126 115.8447 34.8800 0.0001 -0.0001 0.0000
# 3 15.5389 34.8800 63.0660 0.0003 -0.0014 -0.0001
# 4 0.0000 0.0001 0.0003 14.8364 -0.0004 -0.0001
# 5 0.0000 -0.0001 -0.0014 -0.0004 12.5896 -0.0001
# 6 0.0000 0.0000 -0.0001 -0.0001 -0.0001 46.5966
#
#
#
# Elastic Compliance Matrix: (Units=1/GPa)
#
#
# Indices 1 2 3 4 5 6 
#
# 1 0.010207 -0.007655 0.001719 0.000000 0.000000 0.000000
# 2 -0.007655 0.016099 -0.007018 0.000000 -0.000001 0.000000
# 3 0.001719 -0.007018 0.019314 0.000000 0.000002 0.000000
# 4 0.000000 0.000000 0.000000 0.067402 0.000002 0.000000
# 5 0.000000 -0.000001 0.000002 0.000002 0.079430 0.000000
# 6 0.000000 0.000000 0.000000 0.000000 0.000000 0.021461
#
#
# Mechanical properties :
#
#
# Convention : Reuss Voigt Hill
#
# Bulk Modulus (GPa) = 50.73078 66.43268 58.58173
# Shear Modulus (GPa) = 20.29298 28.37783 24.33541
#
# Velocity S-wave (km/s) = 3.22662 3.81562 3.53341
# Velocity P-wave (km/s) = 6.31730 7.31399 6.83384
#
# Compressibility (1/GPa) = 0.01971190
#
# Stress axis : x y z
#
# Youngs Moduli (GPa) = 97.97571 62.11686 51.77582
#
# Poissons Ratio (x) = 0.47552 -0.08901
# Poissons Ratio (y) = 0.75003 0.36334
# Poissons Ratio (z) = -0.16843 0.43591
#
# Static dielectric constant tensor:
#      x y z
#    x 3.571380 0.000000 0.000000 
#    y 0.000000 3.463490 0.000000 
#    z 0.000000 0.000000 3.470560 
# 
# 
# High freq. dielectric constant tensor:
#      x y z
#    x 1.764580 0.000000 0.000000 
#    y 0.000000 1.739680 0.000000 
#    z 0.000000 0.000000 1.755120 
# 
# From -- ./inp_files/20730.got.cif
#   From: 2010.03.12/outbox.cif.g09.slc.cpg/sg72_11_cif.got.tgz:20730.got - 2010.04.16 14:54:00.
