data_PCOD8293122
_publ_section_title
;
Structure prediction by ZEFSAII (Michael W. Deem and Ramdas Pophale) SiO2 
 PCOD8293122
Probable space group: I B A M
;
_chemical_formula_sum "Si O2"
_cell_formula_units_Z 96
_cell_length_a 14.794600
_cell_length_b 22.357558
_cell_length_c 14.723690
_cell_angle_alpha 90.000000
_cell_angle_beta 90.000000
_cell_angle_gamma 90.000000
_cell_volume 4870.171544
_symmetry_space_group_name_H-M "I B A M"
_symmetry_group_IT_number 72
_symmetry_cell_setting 'orthorhombic'
loop_
_space_group_symop_operation_xyz
x,y,z
-x,-y,z
x,-y,1/2-z
-x,y,1/2-z
-x,-y,-z
x,y,-z
-x,y,1/2+z
x,-y,1/2+z
1/2+x,1/2+y,1/2+z
1/2-x,1/2-y,1/2+z
1/2+x,1/2-y,-z
1/2-x,1/2+y,-z
1/2-x,1/2-y,1/2-z
1/2+x,1/2+y,1/2-z
1/2-x,1/2+y,z
1/2+x,1/2-y,z
loop_
_atom_site_type_symbol
_atom_site_label
_atom_site_fract_x
_atom_site_fract_y
_atom_site_fract_z
Si Si1 0.638007 0.973304 0.844877
Si Si2 0.936134 0.711938 0.897968
Si Si3 0.355799 0.757024 0.601482
Si Si4 0.037360 0.417361 0.101220
Si Si5 0.768038 0.870395 0.103079
Si Si6 0.104133 0.185966 0.767199
O O1 0.546329 0.934080 0.832918
O O2 0.716731 0.933475 0.887869
O O3 0.671178 0.000000 0.750000
O O4 0.612629 0.030644 0.906311
O O5 0.915240 0.643985 0.866419
O O6 0.884353 0.755542 0.830450
O O7 0.042402 0.720902 0.890876
O O8 0.900408 0.724396 0.000000
O O9 0.334258 0.732839 0.500000
O O10 0.295646 0.814225 0.625568
O O11 0.344060 0.702200 0.673002
O O12 0.996558 0.406818 0.000000
O O13 0.848793 0.868344 0.177700
O O14 0.805884 0.866660 0.000000
O O15 0.000000 0.168017 0.750000
#
# Coordination Sequence:
#
# PCOD8293122 Si02
#       6
#    16  16  16  16  16  16
#     4  11  22  31  51  79 111 150 194 232 276 329
#     4   9  17  30  51  81 117 156 191 226 270 329
#     4   9  18  32  52  77 112 151 184 224 276 331
#     4  10  18  32  52  78 116 159 194 224 265 332
#     4  11  21  37  56  79 112 151 187 229 285 342
#     4  10  21  34  56  82 112 144 190 236 280 335
#
# _framework density 19.711829999999999
#
# number of rings (size 3 to 8) (size 9 to 14) (size 15 to 20)
#    0.000    2.000    1.667    4.000    2.333    2.000 
#    0.000    0.000    0.000    2.500    0.000    1.167 
#    0.000    0.000    0.000    0.000    0.000    0.000 
#
# Total GULP energy -594977.935755 kJ/mol
# GULP energy per Si atom -12395.373662 kJ/mol
# Density = 1.966697 g / cm^3
# Si number density = 19.711830 Si / 1000 Ang^3
#
#
#
# Elastic Constant Matrix: (Units=GPa)
#
#
# Indices 1 2 3 4 5 6 
#
# 1 51.9450 40.7184 29.8179 0.0000 0.0001 0.0000
# 2 40.7184 76.7766 28.1652 0.0000 0.0000 0.0000
# 3 29.8179 28.1652 103.3831 0.0005 -0.0004 -0.0001
# 4 0.0000 0.0000 0.0005 30.2807 -0.0003 0.0000
# 5 0.0001 0.0000 -0.0004 -0.0003 30.1177 0.0000
# 6 0.0000 0.0000 -0.0001 0.0000 0.0000 28.0447
#
#
#
# Elastic Compliance Matrix: (Units=1/GPa)
#
#
# Indices 1 2 3 4 5 6 
#
# 1 0.035752 -0.016864 -0.005717 0.000000 0.000000 0.000000
# 2 -0.016864 0.022425 -0.001246 0.000000 0.000000 0.000000
# 3 -0.005717 -0.001246 0.011661 0.000000 0.000000 0.000000
# 4 0.000000 0.000000 0.000000 0.033024 0.000000 0.000000
# 5 0.000000 0.000000 0.000000 0.000000 0.033203 0.000000
# 6 0.000000 0.000000 0.000000 0.000000 0.000000 0.035657
#
#
# Mechanical properties :
#
#
# Convention : Reuss Voigt Hill
#
# Bulk Modulus (GPa) = 45.07507 47.72306 46.39907
# Shear Modulus (GPa) = 22.04860 26.58216 24.31538
#
# Velocity S-wave (km/s) = 3.34810 3.67623 3.51599
# Velocity P-wave (km/s) = 6.15329 6.50250 6.33030
#
# Compressibility (1/GPa) = 0.02218521
#
# Stress axis : x y z
#
# Youngs Moduli (GPa) = 27.97043 44.59237 85.75492
#
# Poissons Ratio (x) = 0.75199 0.49029
# Poissons Ratio (y) = 0.47168 0.10682
# Poissons Ratio (z) = 0.15992 0.05555
#
# Static dielectric constant tensor:
#      x y z
#    x 3.327930 0.000000 0.000000 
#    y 0.000000 3.484690 0.000000 
#    z 0.000000 0.000000 3.984970 
# 
# 
# High freq. dielectric constant tensor:
#      x y z
#    x 1.729650 0.000000 0.000000 
#    y 0.000000 1.739520 0.000000 
#    z 0.000000 0.000000 1.786470 
# 
# From -- ./inp_files/21877.got.cif
#   From: 2010.03.12/outbox.cif.g09.slc.cpg/sg72_11_cif.got.tgz:21877.got - 2010.04.16 14:54:00.
