data_PCOD8293100
_publ_section_title
;
Structure prediction by ZEFSAII (Michael W. Deem and Ramdas Pophale) SiO2 
 PCOD8293100
Probable space group: I B A M
;
_chemical_formula_sum "Si O2"
_cell_formula_units_Z 120
_cell_length_a 21.124463
_cell_length_b 21.205380
_cell_length_c 15.078100
_cell_angle_alpha 90.000000
_cell_angle_beta 90.000000
_cell_angle_gamma 90.000000
_cell_volume 6754.269050
_symmetry_space_group_name_H-M "I B A M"
_symmetry_group_IT_number 72
_symmetry_cell_setting 'orthorhombic'
loop_
_space_group_symop_operation_xyz
x,y,z
-x,-y,z
x,-y,1/2-z
-x,y,1/2-z
-x,-y,-z
x,y,-z
-x,y,1/2+z
x,-y,1/2+z
1/2+x,1/2+y,1/2+z
1/2-x,1/2-y,1/2+z
1/2+x,1/2-y,-z
1/2-x,1/2+y,-z
1/2-x,1/2-y,1/2-z
1/2+x,1/2+y,1/2-z
1/2-x,1/2+y,z
1/2+x,1/2-y,z
loop_
_atom_site_type_symbol
_atom_site_label
_atom_site_fract_x
_atom_site_fract_y
_atom_site_fract_z
Si Si1 0.768850 0.149735 0.397233
Si Si2 0.363533 0.306545 0.741378
Si Si3 0.014257 0.680086 0.399429
Si Si4 0.949873 0.448819 0.104744
Si Si5 0.500000 0.719192 0.750000
Si Si6 0.720727 0.713246 0.901414
Si Si7 0.178438 0.560917 0.201591
Si Si8 0.149782 0.671363 0.665134
O O1 0.788164 0.143371 0.500000
O O2 0.832971 0.154348 0.339469
O O3 0.726977 0.212272 0.380081
O O4 0.729194 0.089028 0.367317
O O5 0.437646 0.325288 0.748698
O O6 0.326046 0.320811 0.832305
O O7 0.360246 0.231829 0.727051
O O8 0.997228 0.698807 0.500000
O O9 0.088253 0.661778 0.395666
O O10 0.973102 0.620628 0.367621
O O11 0.995970 0.738406 0.337970
O O12 0.882805 0.462798 0.148747
O O13 0.000000 0.500000 0.140437
O O14 0.942046 0.454819 0.000000
O O15 0.789467 0.680993 0.897123
O O16 0.693210 0.703361 0.000000
O O17 0.208689 0.500000 0.250000
O O18 0.159258 0.611334 0.274330
#
# Coordination Sequence:
#
# PCOD8293100 Si02
#       8
#    16  16  16  16   8  16  16  16
#     4  10  20  36  57  78 103 140 182 220 267 323
#     4  10  18  35  53  77 109 135 171 220 266 325
#     4  10  20  32  48  70 105 145 180 221 262 308
#     4  10  21  35  46  65  99 145 194 227 252 292
#     4  10  22  32  51  80 109 130 166 212 270 334
#     4  10  18  31  55  77 103 139 174 220 269 319
#     4  12  22  33  53  74 104 142 187 232 269 300
#     4  10  18  33  49  76 107 137 183 222 264 315
#
# _framework density 17.766542000000001
#
# number of rings (size 3 to 8) (size 9 to 14) (size 15 to 20)
#    0.000    1.733    2.667    4.000    0.000    5.067 
#    0.000    2.000    0.000    0.000    0.000    0.467 
#    0.000    1.067    0.000    0.000    0.000    0.000 
#
# Total GULP energy -744107.514602 kJ/mol
# GULP energy per Si atom -12401.791910 kJ/mol
# Density = 1.772610 g / cm^3
# Si number density = 17.766542 Si / 1000 Ang^3
#
#
#
# Elastic Constant Matrix: (Units=GPa)
#
#
# Indices 1 2 3 4 5 6 
#
# 1 115.0342 29.8485 55.7380 0.0000 0.0000 0.0000
# 2 29.8485 45.4879 21.2278 0.0000 0.0000 0.0000
# 3 55.7380 21.2278 92.4201 0.0000 0.0000 0.0000
# 4 0.0000 0.0000 0.0000 18.6121 0.0000 0.0000
# 5 0.0000 0.0000 0.0000 0.0000 22.2166 0.0000
# 6 0.0000 0.0000 0.0000 0.0000 0.0000 25.4103
#
#
#
# Elastic Compliance Matrix: (Units=1/GPa)
#
#
# Indices 1 2 3 4 5 6 
#
# 1 0.013465 -0.005652 -0.006823 0.000000 0.000000 0.000000
# 2 -0.005652 0.026995 -0.002792 0.000000 0.000000 0.000000
# 3 -0.006823 -0.002792 0.015576 0.000000 0.000000 0.000000
# 4 0.000000 0.000000 0.000000 0.053728 0.000000 0.000000
# 5 0.000000 0.000000 0.000000 0.000000 0.045011 0.000000
# 6 0.000000 0.000000 0.000000 0.000000 0.000000 0.039354
#
#
# Mechanical properties :
#
#
# Convention : Reuss Voigt Hill
#
# Bulk Modulus (GPa) = 39.20954 51.84120 45.52537
# Shear Modulus (GPa) = 21.44401 22.98968 22.21684
#
# Velocity S-wave (km/s) = 3.47794 3.60111 3.54006
# Velocity P-wave (km/s) = 6.18428 6.82152 6.51070
#
# Compressibility (1/GPa) = 0.02550400
#
# Stress axis : x y z
#
# Youngs Moduli (GPa) = 74.26420 37.04327 64.20053
#
# Poissons Ratio (x) = 0.20936 0.43803
# Poissons Ratio (y) = 0.41973 0.17924
# Poissons Ratio (z) = 0.50669 0.10342
#
# Static dielectric constant tensor:
#      x y z
#    x 3.457650 0.000000 0.000000 
#    y 0.000000 2.984310 0.000000 
#    z 0.000000 0.000000 3.395360 
# 
# 
# High freq. dielectric constant tensor:
#      x y z
#    x 1.680990 0.000000 0.000000 
#    y 0.000000 1.638940 0.000000 
#    z 0.000000 0.000000 1.701640 
# 
# From -- ./inp_files/24494.got.cif
#   From: 2010.03.12/outbox.cif.g09.slc.cpg/sg72_13_cif.got.tgz:24494.got - 2010.04.16 14:54:00.
