data_PCOD8293380
_publ_section_title
;
Structure prediction by ZEFSAII (Michael W. Deem and Ramdas Pophale) SiO2 
 PCOD8293380
Probable space group: I B A M
;
_chemical_formula_sum "Si O2"
_cell_formula_units_Z 112
_cell_length_a 11.452817
_cell_length_b 23.178776
_cell_length_c 22.706637
_cell_angle_alpha 90.000000
_cell_angle_beta 90.000000
_cell_angle_gamma 90.000000
_cell_volume 6027.755625
_symmetry_space_group_name_H-M "I B A M"
_symmetry_group_IT_number 72
_symmetry_cell_setting 'orthorhombic'
loop_
_space_group_symop_operation_xyz
x,y,z
-x,-y,z
x,-y,1/2-z
-x,y,1/2-z
-x,-y,-z
x,y,-z
-x,y,1/2+z
x,-y,1/2+z
1/2+x,1/2+y,1/2+z
1/2-x,1/2-y,1/2+z
1/2+x,1/2-y,-z
1/2-x,1/2+y,-z
1/2-x,1/2-y,1/2-z
1/2+x,1/2+y,1/2-z
1/2-x,1/2+y,z
1/2+x,1/2-y,z
loop_
_atom_site_type_symbol
_atom_site_label
_atom_site_fract_x
_atom_site_fract_y
_atom_site_fract_z
Si Si1 0.898944 0.344330 0.066119
Si Si2 0.010360 0.816282 0.161235
Si Si3 0.629182 0.488984 0.681240
Si Si4 0.102589 0.302982 0.136770
Si Si5 0.786198 0.894193 0.845358
Si Si6 0.178939 0.785034 0.064186
Si Si7 0.782332 0.130787 0.786070
O O1 0.795739 0.374305 0.101995
O O2 0.875393 0.277487 0.058948
O O3 0.016986 0.348768 0.104711
O O4 0.911049 0.371606 0.000000
O O5 0.963167 0.751092 0.167237
O O6 0.911796 0.863723 0.150552
O O7 0.097705 0.823690 0.105616
O O8 0.097160 0.830846 0.216679
O O9 0.500000 0.500000 0.654987
O O10 0.624014 0.500000 0.750000
O O11 0.707863 0.536587 0.648303
O O12 0.684743 0.425419 0.674093
O O13 0.190235 0.277828 0.088195
O O14 0.172843 0.336556 0.186595
O O15 0.737980 0.880721 0.780023
O O16 0.183433 0.814538 0.000000
#
# Coordination Sequence:
#
# PCOD8293380 Si02
#       7
#    16  16  16  16  16  16  16
#     4  10  21  36  54  77 108 148 191 232 270 321
#     4  10  19  32  50  82 113 141 172 224 285 333
#     4   9  17  33  59  82 105 142 184 226 267 323
#     4  10  20  36  52  79 116 149 183 221 283 338
#     4  11  20  35  56  84 111 141 184 230 279 331
#     4   9  18  33  52  74 105 149 195 228 264 323
#     4  10  21  36  55  83 114 146 181 222 281 343
#
# _framework density 18.580714
#
# number of rings (size 3 to 8) (size 9 to 14) (size 15 to 20)
#    0.000    2.143    2.857    0.857    0.000    2.286 
#    5.143    0.714    0.000    8.143    0.000    0.000 
#    0.000    0.000    0.000    0.000    0.000    0.000 
#
# Total GULP energy -694023.758135 kJ/mol
# GULP energy per Si atom -12393.281395 kJ/mol
# Density = 1.853842 g / cm^3
# Si number density = 18.580714 Si / 1000 Ang^3
#
#
#
# Elastic Constant Matrix: (Units=GPa)
#
#
# Indices 1 2 3 4 5 6 
#
# 1 92.5078 27.7744 30.4196 0.0000 0.0000 0.0000
# 2 27.7744 82.4772 30.3000 0.0000 0.0000 0.0000
# 3 30.4196 30.3000 56.3289 0.0000 0.0000 0.0000
# 4 0.0000 0.0000 0.0000 8.4597 0.0000 0.0000
# 5 0.0000 0.0000 0.0000 0.0000 14.6312 0.0000
# 6 0.0000 0.0000 0.0000 0.0000 0.0000 11.0427
#
#
#
# Elastic Compliance Matrix: (Units=1/GPa)
#
#
# Indices 1 2 3 4 5 6 
#
# 1 0.013493 -0.002327 -0.006035 0.000000 0.000000 0.000000
# 2 -0.002327 0.015512 -0.007088 0.000000 0.000000 0.000000
# 3 -0.006035 -0.007088 0.024825 0.000000 0.000000 0.000000
# 4 0.000000 0.000000 0.000000 0.118208 0.000000 0.000000
# 5 0.000000 0.000000 0.000000 0.000000 0.068347 0.000000
# 6 0.000000 0.000000 0.000000 0.000000 0.000000 0.090558
#
#
# Mechanical properties :
#
#
# Convention : Reuss Voigt Hill
#
# Bulk Modulus (GPa) = 43.60965 45.36686 44.48826
# Shear Modulus (GPa) = 13.53236 16.34803 14.94020
#
# Velocity S-wave (km/s) = 2.70163 2.96943 2.83869
# Velocity P-wave (km/s) = 5.76655 6.01878 5.89402
#
# Compressibility (1/GPa) = 0.02293071
#
# Stress axis : x y z
#
# Youngs Moduli (GPa) = 74.11252 64.46682 40.28272
#
# Poissons Ratio (x) = 0.14999 0.24311
# Poissons Ratio (y) = 0.17243 0.28551
# Poissons Ratio (z) = 0.44728 0.45691
#
# Static dielectric constant tensor:
#      x y z
#    x 3.457440 0.000000 0.000000 
#    y 0.000000 3.488310 0.000000 
#    z 0.000000 0.000000 3.633110 
# 
# 
# High freq. dielectric constant tensor:
#      x y z
#    x 1.724870 0.000000 0.000000 
#    y 0.000000 1.699810 0.000000 
#    z 0.000000 0.000000 1.710590 
# 
# From -- ./inp_files/43618.got.cif
#   From: 2010.03.12/outbox.cif.g09.slc.cpg/sg72_22_cif.got.tgz:43618.got - 2010.04.16 14:54:00.
