data_PCOD8293860
_publ_section_title
;
Structure prediction by ZEFSAII (Michael W. Deem and Ramdas Pophale) SiO2 
 PCOD8293860
Probable space group: I B A M
;
_chemical_formula_sum "Si O2"
_cell_formula_units_Z 80
_cell_length_a 18.341473
_cell_length_b 26.987429
_cell_length_c 8.711867
_cell_angle_alpha 90.000000
_cell_angle_beta 90.000000
_cell_angle_gamma 90.000000
_cell_volume 4312.280080
_symmetry_space_group_name_H-M "I B A M"
_symmetry_group_IT_number 72
_symmetry_cell_setting 'orthorhombic'
loop_
_space_group_symop_operation_xyz
x,y,z
-x,-y,z
x,-y,1/2-z
-x,y,1/2-z
-x,-y,-z
x,y,-z
-x,y,1/2+z
x,-y,1/2+z
1/2+x,1/2+y,1/2+z
1/2-x,1/2-y,1/2+z
1/2+x,1/2-y,-z
1/2-x,1/2+y,-z
1/2-x,1/2-y,1/2-z
1/2+x,1/2+y,1/2-z
1/2-x,1/2+y,z
1/2+x,1/2-y,z
loop_
_atom_site_type_symbol
_atom_site_label
_atom_site_fract_x
_atom_site_fract_y
_atom_site_fract_z
Si Si1 0.143251 0.947104 0.320647
Si Si2 0.575209 0.947179 0.680031
Si Si3 0.224149 0.801350 0.819305
Si Si4 0.425133 0.648458 0.678878
Si Si5 0.207823 0.603943 0.821462
O O1 0.127778 0.948652 0.500000
O O2 0.092082 0.905132 0.249466
O O3 0.227447 0.934570 0.284668
O O4 0.123105 0.000000 0.250000
O O5 0.500000 0.926792 0.750000
O O6 0.566093 0.952965 0.500000
O O7 0.638467 0.909119 0.719597
O O8 0.596081 0.000000 0.750000
O O9 0.250000 0.750000 0.750000
O O10 0.138526 0.811574 0.786520
O O11 0.270500 0.841433 0.728081
O O12 0.240855 0.804027 0.000000
O O13 0.500000 0.669522 0.750000
O O14 0.435689 0.640649 0.500000
O O15 0.187102 0.603161 0.000000
#
# Coordination Sequence:
#
# PCOD8293860 Si02
#       5
#    16  16  16  16  16
#     4  10  20  33  52  78 109 144 181 219 260 310
#     4  11  21  34  52  76 108 145 183 223 269 322
#     4  10  21  38  60  84 108 138 177 223 271 322
#     4  10  21  37  57  81 110 141 176 217 263 314
#     4  10  20  35  55  79 107 140 179 224 271 322
#
# _framework density 18.551670999999999
#
# number of rings (size 3 to 8) (size 9 to 14) (size 15 to 20)
#    0.000    1.800    0.000    5.400    0.000    6.800 
#    0.000    3.000    0.000    2.400    0.000    0.000 
#    0.000    0.000    0.000    0.000    0.000    0.000 
#
# Total GULP energy -496133.078468 kJ/mol
# GULP energy per Si atom -12403.326962 kJ/mol
# Density = 1.850945 g / cm^3
# Si number density = 18.551671 Si / 1000 Ang^3
#
#
#
# Elastic Constant Matrix: (Units=GPa)
#
#
# Indices 1 2 3 4 5 6 
#
# 1 117.9134 44.3990 53.2786 0.0000 0.0000 0.0000
# 2 44.3990 92.1733 38.6027 0.0000 0.0000 0.0000
# 3 53.2786 38.6027 115.9559 0.0000 0.0000 0.0000
# 4 0.0000 0.0000 0.0000 34.2717 0.0000 0.0000
# 5 0.0000 0.0000 0.0000 0.0000 34.6593 0.0000
# 6 0.0000 0.0000 0.0000 0.0000 0.0000 18.2286
#
#
#
# Elastic Compliance Matrix: (Units=1/GPa)
#
#
# Indices 1 2 3 4 5 6 
#
# 1 0.011838 -0.003979 -0.004115 0.000000 0.000000 0.000000
# 2 -0.003979 0.013944 -0.002814 0.000000 0.000000 0.000000
# 3 -0.004115 -0.002814 0.011451 0.000000 0.000000 0.000000
# 4 0.000000 0.000000 0.000000 0.029179 0.000000 0.000000
# 5 0.000000 0.000000 0.000000 0.000000 0.028852 0.000000
# 6 0.000000 0.000000 0.000000 0.000000 0.000000 0.054859
#
#
# Mechanical properties :
#
#
# Convention : Reuss Voigt Hill
#
# Bulk Modulus (GPa) = 64.85703 66.51146 65.68424
# Shear Modulus (GPa) = 28.23606 30.08274 29.15940
#
# Velocity S-wave (km/s) = 3.90554 4.03123 3.96889
# Velocity P-wave (km/s) = 7.44136 7.58931 7.51570
#
# Compressibility (1/GPa) = 0.01541853
#
# Stress axis : x y z
#
# Youngs Moduli (GPa) = 84.47153 71.71383 87.32614
#
# Poissons Ratio (x) = 0.28536 0.35932
# Poissons Ratio (y) = 0.33612 0.24572
# Poissons Ratio (z) = 0.34757 0.20179
#
# Static dielectric constant tensor:
#      x y z
#    x 3.357050 0.000000 0.000000 
#    y 0.000000 3.249380 0.000000 
#    z 0.000000 0.000000 3.577840 
# 
# 
# High freq. dielectric constant tensor:
#      x y z
#    x 1.724410 0.000000 0.000000 
#    y 0.000000 1.703410 0.000000 
#    z 0.000000 0.000000 1.741270 
# 
# From -- ./inp_files/4795.got.cif
#   From: 2010.03.12/outbox.cif.g09.slc.cpg/sg72_3_cif.got.tgz:4795.got - 2010.04.16 14:54:00.
