data_PCOD8293286
_publ_section_title
;
Structure prediction by ZEFSAII (Michael W. Deem and Ramdas Pophale) SiO2 
 PCOD8293286
Probable space group: I B A M
;
_chemical_formula_sum "Si O2"
_cell_formula_units_Z 96
_cell_length_a 12.589745
_cell_length_b 19.892203
_cell_length_c 16.862094
_cell_angle_alpha 90.000000
_cell_angle_beta 90.000000
_cell_angle_gamma 90.000000
_cell_volume 4222.905105
_symmetry_space_group_name_H-M "I B A M"
_symmetry_group_IT_number 72
_symmetry_cell_setting 'orthorhombic'
loop_
_space_group_symop_operation_xyz
x,y,z
-x,-y,z
x,-y,1/2-z
-x,y,1/2-z
-x,-y,-z
x,y,-z
-x,y,1/2+z
x,-y,1/2+z
1/2+x,1/2+y,1/2+z
1/2-x,1/2-y,1/2+z
1/2+x,1/2-y,-z
1/2-x,1/2+y,-z
1/2-x,1/2-y,1/2-z
1/2+x,1/2+y,1/2-z
1/2-x,1/2+y,z
1/2+x,1/2-y,z
loop_
_atom_site_type_symbol
_atom_site_label
_atom_site_fract_x
_atom_site_fract_y
_atom_site_fract_z
Si Si1 0.301924 0.880838 0.868332
Si Si2 0.161489 0.003129 0.658258
Si Si3 0.387466 0.833444 0.290323
Si Si4 0.976010 0.574555 0.589061
Si Si5 0.621632 0.715983 0.088250
Si Si6 0.016810 0.095380 0.908222
O O1 0.264810 0.959059 0.877363
O O2 0.302605 0.853059 0.777276
O O3 0.418872 0.878321 0.906248
O O4 0.221399 0.834313 0.916768
O O5 0.062790 0.052285 0.644287
O O6 0.182600 0.000000 0.750000
O O7 0.135385 0.928915 0.620222
O O8 0.500000 0.819517 0.250000
O O9 0.389347 0.896471 0.350520
O O10 0.355712 0.768947 0.342543
O O11 0.930886 0.575290 0.500000
O O12 0.000000 0.500000 0.618811
O O13 0.511820 0.674144 0.106075
O O14 0.611632 0.749366 0.000000
O O15 0.002385 0.077187 0.000000
#
# Coordination Sequence:
#
# PCOD8293286 Si02
#       6
#    16  16  16  16  16  16
#     4  10  22  36  59  88 117 156 197 246 301 355
#     4  10  19  30  52  81 115 151 188 238 284 347
#     4  10  22  38  61  85 117 155 200 250 297 357
#     4  10  22  40  63  85 113 153 200 246 299 354
#     4  10  20  37  61  87 121 159 200 244 299 362
#     4   9  18  33  53  80 114 157 192 228 286 352
#
# _framework density 22.733166000000001
#
# number of rings (size 3 to 8) (size 9 to 14) (size 15 to 20)
#    0.000    2.167    0.000    3.500    2.333    7.000 
#    0.000    0.000    0.000    4.000    0.000    0.000 
#    0.000    0.000    0.000    0.000    0.000    0.000 
#
# Total GULP energy -594801.007731 kJ/mol
# GULP energy per Si atom -12391.687661 kJ/mol
# Density = 2.268142 g / cm^3
# Si number density = 22.733166 Si / 1000 Ang^3
#
#
#
# Elastic Constant Matrix: (Units=GPa)
#
#
# Indices 1 2 3 4 5 6 
#
# 1 31.4996 3.2828 2.7319 0.0000 0.0000 0.0000
# 2 3.2828 87.6086 24.2759 0.0000 0.0000 0.0000
# 3 2.7319 24.2759 78.8216 -0.0001 0.0000 0.0000
# 4 0.0000 0.0000 -0.0001 42.4716 0.0000 0.0000
# 5 0.0000 0.0000 0.0000 0.0000 21.0973 0.0000
# 6 0.0000 0.0000 0.0000 0.0000 0.0000 26.0462
#
#
#
# Elastic Compliance Matrix: (Units=1/GPa)
#
#
# Indices 1 2 3 4 5 6 
#
# 1 0.031918 -0.000972 -0.000807 0.000000 0.000000 0.000000
# 2 -0.000972 0.012509 -0.003819 0.000000 0.000000 0.000000
# 3 -0.000807 -0.003819 0.013891 0.000000 0.000000 0.000000
# 4 0.000000 0.000000 0.000000 0.023545 0.000000 0.000000
# 5 0.000000 0.000000 0.000000 0.000000 0.047399 0.000000
# 6 0.000000 0.000000 0.000000 0.000000 0.000000 0.038393
#
#
# Mechanical properties :
#
#
# Convention : Reuss Voigt Hill
#
# Bulk Modulus (GPa) = 21.22170 28.72346 24.97258
# Shear Modulus (GPa) = 25.69914 29.09897 27.39905
#
# Velocity S-wave (km/s) = 3.36589 3.58162 3.47543
# Velocity P-wave (km/s) = 4.94581 5.45587 5.20709
#
# Compressibility (1/GPa) = 0.04712158
#
# Stress axis : x y z
#
# Youngs Moduli (GPa) = 31.33057 79.94221 71.98906
#
# Poissons Ratio (x) = 0.07774 0.05808
# Poissons Ratio (y) = 0.03047 0.27492
# Poissons Ratio (z) = 0.02528 0.30529
#
# Static dielectric constant tensor:
#      x y z
#    x 4.098150 0.000000 0.000000 
#    y 0.000000 4.127430 0.000000 
#    z 0.000000 0.000000 4.106630 
# 
# 
# High freq. dielectric constant tensor:
#      x y z
#    x 1.873290 0.000000 0.000000 
#    y 0.000000 1.886520 0.000000 
#    z 0.000000 0.000000 1.906630 
# 
# From -- ./inp_files/21882.got.cif
#   From: 2010.03.12/outbox.cif.g09.slc.cpg/sg72_11_cif.got.tgz:21882.got - 2010.04.16 14:54:00.
