data_PCOD8293637
_publ_section_title
;
Structure prediction by ZEFSAII (Michael W. Deem and Ramdas Pophale) SiO2 
 PCOD8293637
Probable space group: I B A M
;
_chemical_formula_sum "Si O2"
_cell_formula_units_Z 64
_cell_length_a 5.116636
_cell_length_b 33.679252
_cell_length_c 17.220329
_cell_angle_alpha 90.000000
_cell_angle_beta 90.000000
_cell_angle_gamma 90.000000
_cell_volume 2967.484124
_symmetry_space_group_name_H-M "I B A M"
_symmetry_group_IT_number 72
_symmetry_cell_setting 'orthorhombic'
loop_
_space_group_symop_operation_xyz
x,y,z
-x,-y,z
x,-y,1/2-z
-x,y,1/2-z
-x,-y,-z
x,y,-z
-x,y,1/2+z
x,-y,1/2+z
1/2+x,1/2+y,1/2+z
1/2-x,1/2-y,1/2+z
1/2+x,1/2-y,-z
1/2-x,1/2+y,-z
1/2-x,1/2-y,1/2-z
1/2+x,1/2+y,1/2-z
1/2-x,1/2+y,z
1/2+x,1/2-y,z
loop_
_atom_site_type_symbol
_atom_site_label
_atom_site_fract_x
_atom_site_fract_y
_atom_site_fract_z
Si Si1 0.982327 0.274058 0.159407
Si Si2 0.745257 0.517926 0.163267
Si Si3 0.419960 0.391879 0.836101
Si Si4 0.078857 0.356572 0.409690
O O1 0.775288 0.239421 0.137547
O O2 0.867239 0.310953 0.110730
O O3 0.000000 0.284992 0.250000
O O4 0.500000 0.500000 0.116846
O O5 0.747510 0.500000 0.250000
O O6 0.713724 0.564879 0.162543
O O7 0.000000 0.500000 0.120281
O O8 0.500000 0.379532 0.750000
O O9 0.681756 0.385918 0.886975
O O10 0.190024 0.364051 0.864634
O O11 0.027750 0.362835 0.500000
#
# Coordination Sequence:
#
# PCOD8293637 Si02
#       4
#    16  16  16  16
#     4  10  21  40  67  96 128 168 224 283 326 377
#     4  10  19  34  61  99 123 151 210 293 323 371
#     4  12  23  41  70  99 128 173 228 283 331 385
#     4  12  27  43  63  98 145 181 217 268 339 414
#
# _framework density 21.567091000000001
#
# number of rings (size 3 to 8) (size 9 to 14) (size 15 to 20)
#    0.000    1.000    2.500    6.000    3.500    3.000 
#    0.000    0.000    0.000   15.000    0.000    0.000 
#    0.000    0.000    0.000    0.000    0.000    0.000 
#
# Total GULP energy -396526.057214 kJ/mol
# GULP energy per Si atom -12391.439288 kJ/mol
# Density = 2.151800 g / cm^3
# Si number density = 21.567091 Si / 1000 Ang^3
#
#
#
# Elastic Constant Matrix: (Units=GPa)
#
#
# Indices 1 2 3 4 5 6 
#
# 1 189.3983 41.1433 45.3188 0.0000 0.0000 0.0000
# 2 41.1433 98.5204 55.4906 0.0000 0.0000 0.0000
# 3 45.3188 55.4906 66.4105 0.0001 0.0000 0.0000
# 4 0.0000 0.0000 0.0001 -16.4771 0.0000 0.0000
# 5 0.0000 0.0000 0.0000 0.0000 158.5537 0.0000
# 6 0.0000 0.0000 0.0000 0.0000 0.0000 37.3780
#
#
#
# Elastic Compliance Matrix: (Units=1/GPa)
#
#
# Indices 1 2 3 4 5 6 
#
# 1 0.006318 -0.000397 -0.003980 0.000000 0.000000 0.000000
# 2 -0.000397 0.019199 -0.015771 0.000000 0.000000 0.000000
# 3 -0.003980 -0.015771 0.030952 0.000000 0.000000 0.000000
# 4 0.000000 0.000000 0.000000 -0.060690 0.000000 0.000000
# 5 0.000000 0.000000 0.000000 0.000000 0.006307 0.000000
# 6 0.000000 0.000000 0.000000 0.000000 0.000000 0.026754
#
#
# Mechanical properties :
#
#
# Convention : Reuss Voigt Hill
#
# Bulk Modulus (GPa) = 61.83217 70.91495 66.37356
# Shear Modulus (GPa) = 67.09024 50.04936 58.56980
#
# Velocity S-wave (km/s) = 5.58348 4.82252 5.21689
# Velocity P-wave (km/s) = 8.38444 7.99759 8.19330
#
# Compressibility (1/GPa) = 0.01617281
#
# Stress axis : x y z
#
# Youngs Moduli (GPa) = 158.26679 52.08647 32.30837
#
# Poissons Ratio (x) = 0.02067 0.12859
# Poissons Ratio (y) = 0.06282 0.50954
# Poissons Ratio (z) = 0.62991 0.82146
#
# Static dielectric constant tensor:
#      x y z
#    x 2.697100 0.000000 0.000000 
#    y 0.000000 3.853170 0.000000 
#    z 0.000000 0.000000 3.548280 
# 
# 
# High freq. dielectric constant tensor:
#      x y z
#    x 1.881480 0.000000 0.000000 
#    y 0.000000 1.853150 0.000000 
#    z 0.000000 0.000000 1.804230 
# 
# From -- ./inp_files/27030.got.cif
#   From: 2010.03.12/outbox.cif.g09.slc.cpg/sg72_14_cif.got.tgz:27030.got - 2010.04.16 14:54:00.
