data_PCOD8293713
_publ_section_title
;
Structure prediction by ZEFSAII (Michael W. Deem and Ramdas Pophale) SiO2 
 PCOD8293713
Probable space group: I B A M
;
_chemical_formula_sum "Si O2"
_cell_formula_units_Z 64
_cell_length_a 8.792576
_cell_length_b 20.100447
_cell_length_c 15.858558
_cell_angle_alpha 90.000000
_cell_angle_beta 90.000000
_cell_angle_gamma 90.000000
_cell_volume 2802.757616
_symmetry_space_group_name_H-M "I B A M"
_symmetry_group_IT_number 72
_symmetry_cell_setting 'orthorhombic'
loop_
_space_group_symop_operation_xyz
x,y,z
-x,-y,z
x,-y,1/2-z
-x,y,1/2-z
-x,-y,-z
x,y,-z
-x,y,1/2+z
x,-y,1/2+z
1/2+x,1/2+y,1/2+z
1/2-x,1/2-y,1/2+z
1/2+x,1/2-y,-z
1/2-x,1/2+y,-z
1/2-x,1/2-y,1/2-z
1/2+x,1/2+y,1/2-z
1/2-x,1/2+y,z
1/2+x,1/2-y,z
loop_
_atom_site_type_symbol
_atom_site_label
_atom_site_fract_x
_atom_site_fract_y
_atom_site_fract_z
Si Si1 0.383093 0.666662 0.400093
Si Si2 0.787700 0.459604 0.594861
Si Si3 0.217644 0.797698 0.600062
Si Si4 0.084388 0.585809 0.838747
O O1 0.388901 0.662424 0.500000
O O2 0.329477 0.594670 0.364923
O O3 0.260102 0.722544 0.373695
O O4 0.549245 0.686267 0.365584
O O5 0.737746 0.478540 0.500000
O O6 0.790618 0.526396 0.651668
O O7 0.954801 0.425559 0.590738
O O8 0.232070 0.809142 0.500000
O O9 0.335954 0.844141 0.648581
O O10 0.000000 0.581246 0.750000
#
# Coordination Sequence:
#
# PCOD8293713 Si02
#       4
#    16  16  16  16
#     4   9  19  34  60  91 120 152 199 250 295 346
#     4  10  19  36  60  86 112 152 200 246 296 353
#     4  10  19  36  59  88 121 157 196 244 295 353
#     4  11  22  36  56  83 119 159 197 242 295 354
#
# _framework density 22.834655000000001
#
# number of rings (size 3 to 8) (size 9 to 14) (size 15 to 20)
#    0.000    2.000    0.000    6.000    0.000    5.000 
#    0.000   10.000    0.000    6.000    0.000    0.000 
#    0.000    0.000    0.000    0.000    0.000    0.000 
#
# Total GULP energy -396705.561477 kJ/mol
# GULP energy per Si atom -12397.048796 kJ/mol
# Density = 2.278268 g / cm^3
# Si number density = 22.834655 Si / 1000 Ang^3
#
#
#
# Elastic Constant Matrix: (Units=GPa)
#
#
# Indices 1 2 3 4 5 6 
#
# 1 69.2024 17.4259 14.9251 0.0000 0.0000 0.0000
# 2 17.4259 103.7283 37.1075 0.0000 0.0000 0.0000
# 3 14.9251 37.1075 62.2148 0.0000 0.0000 0.0000
# 4 0.0000 0.0000 0.0000 18.2347 0.0000 0.0000
# 5 0.0000 0.0000 0.0000 0.0000 19.9472 0.0000
# 6 0.0000 0.0000 0.0000 0.0000 0.0000 56.3838
#
#
#
# Elastic Compliance Matrix: (Units=1/GPa)
#
#
# Indices 1 2 3 4 5 6 
#
# 1 0.015448 -0.001614 -0.002743 0.000000 0.000000 0.000000
# 2 -0.001614 0.012424 -0.007023 0.000000 0.000000 0.000000
# 3 -0.002743 -0.007023 0.020920 0.000000 0.000000 0.000000
# 4 0.000000 0.000000 0.000000 0.054840 0.000000 0.000000
# 5 0.000000 0.000000 0.000000 0.000000 0.050132 0.000000
# 6 0.000000 0.000000 0.000000 0.000000 0.000000 0.017736
#
#
# Mechanical properties :
#
#
# Convention : Reuss Voigt Hill
#
# Bulk Modulus (GPa) = 38.41410 41.56251 39.98831
# Shear Modulus (GPa) = 24.63787 29.95893 27.29840
#
# Velocity S-wave (km/s) = 3.28833 3.62608 3.46132
# Velocity P-wave (km/s) = 5.59256 5.98099 5.79003
#
# Compressibility (1/GPa) = 0.02603211
#
# Stress axis : x y z
#
# Youngs Moduli (GPa) = 64.73140 80.48861 47.80027
#
# Poissons Ratio (x) = 0.12990 0.13114
# Poissons Ratio (y) = 0.10447 0.33571
# Poissons Ratio (z) = 0.17759 0.56528
#
# Static dielectric constant tensor:
#      x y z
#    x 4.283680 0.000000 0.000000 
#    y 0.000000 4.318920 0.000000 
#    z 0.000000 0.000000 3.703300 
# 
# 
# High freq. dielectric constant tensor:
#      x y z
#    x 1.889370 0.000000 0.000000 
#    y 0.000000 1.913720 0.000000 
#    z 0.000000 0.000000 1.867070 
# 
# From -- ./inp_files/27678.got.cif
#   From: 2010.03.12/outbox.cif.g09.slc.cpg/sg72_14_cif.got.tgz:27678.got - 2010.04.16 14:54:00.
