data_PCOD8293062
_publ_section_title
;
Structure prediction by ZEFSAII (Michael W. Deem and Ramdas Pophale) SiO2 
 PCOD8293062
Probable space group: I B A M
;
_chemical_formula_sum "Si O2"
_cell_formula_units_Z 88
_cell_length_a 16.477482
_cell_length_b 22.018098
_cell_length_c 15.471338
_cell_angle_alpha 90.000000
_cell_angle_beta 90.000000
_cell_angle_gamma 90.000000
_cell_volume 5613.044955
_symmetry_space_group_name_H-M "I B A M"
_symmetry_group_IT_number 72
_symmetry_cell_setting 'orthorhombic'
loop_
_space_group_symop_operation_xyz
x,y,z
-x,-y,z
x,-y,1/2-z
-x,y,1/2-z
-x,-y,-z
x,y,-z
-x,y,1/2+z
x,-y,1/2+z
1/2+x,1/2+y,1/2+z
1/2-x,1/2-y,1/2+z
1/2+x,1/2-y,-z
1/2-x,1/2+y,-z
1/2-x,1/2-y,1/2-z
1/2+x,1/2+y,1/2-z
1/2-x,1/2+y,z
1/2+x,1/2-y,z
loop_
_atom_site_type_symbol
_atom_site_label
_atom_site_fract_x
_atom_site_fract_y
_atom_site_fract_z
Si Si1 0.658884 0.632059 0.145456
Si Si2 0.290532 0.317975 0.500000
Si Si3 0.000551 0.206821 0.846157
Si Si4 0.592288 0.498907 0.399179
Si Si5 0.154416 0.121690 0.160519
Si Si6 0.264571 0.815073 0.000000
Si Si7 0.568933 0.234559 0.000000
O O1 0.584427 0.677032 0.127556
O O2 0.633383 0.564791 0.120029
O O3 0.689648 0.635507 0.244300
O O4 0.733534 0.652405 0.086015
O O5 0.279228 0.356343 0.588729
O O6 0.236579 0.256300 0.500000
O O7 0.385238 0.299432 0.500000
O O8 0.067849 0.154215 0.849607
O O9 0.000000 0.235165 0.750000
O O10 0.015743 0.263264 0.912135
O O11 0.500000 0.500000 0.365568
O O12 0.595650 0.514943 0.500000
O O13 0.642067 0.549816 0.347811
O O14 0.363794 0.819325 0.000000
#
# Coordination Sequence:
#
# PCOD8293062 Si02
#       7
#    16   8  16  16  16   8   8
#     4  11  20  29  46  70  94 119 164 200 223 273
#     4   8  18  33  43  56  82 123 164 183 229 278
#     4   9  17  29  46  66  85 119 161 192 229 269
#     4  11  20  27  45  67  95 125 158 199 228 265
#     4  10  18  31  46  63  89 125 159 189 235 268
#     4  10  21  32  42  64  88 125 163 194 233 272
#     4   8  17  31  45  55  91 120 155 189 234 268
#
# _framework density 15.677765000000001
#
# number of rings (size 3 to 8) (size 9 to 14) (size 15 to 20)
#    0.545    1.636    3.636    1.091    0.000    1.455 
#    0.000    0.000    0.000    0.000    0.000    0.000 
#    0.000    0.000    0.000   13.091    5.818    0.182 
#
# Total GULP energy -545248.525496 kJ/mol
# GULP energy per Si atom -12392.011943 kJ/mol
# Density = 1.564208 g / cm^3
# Si number density = 15.677765 Si / 1000 Ang^3
#
#
#
# Elastic Constant Matrix: (Units=GPa)
#
#
# Indices 1 2 3 4 5 6 
#
# 1 35.1058 33.1182 39.1199 0.0000 0.0000 0.0000
# 2 33.1182 70.0195 44.3889 0.0000 0.0000 0.0000
# 3 39.1199 44.3889 133.1189 0.0001 0.0000 0.0000
# 4 0.0000 0.0000 0.0001 17.4668 0.0000 0.0000
# 5 0.0000 0.0000 0.0000 0.0000 5.7581 0.0000
# 6 0.0000 0.0000 0.0000 0.0000 0.0000 26.2171
#
#
#
# Elastic Compliance Matrix: (Units=1/GPa)
#
#
# Indices 1 2 3 4 5 6 
#
# 1 0.061304 -0.022286 -0.010584 0.000000 0.000000 0.000000
# 2 -0.022286 0.026212 -0.002191 0.000000 0.000000 0.000000
# 3 -0.010584 -0.002191 0.011353 0.000000 0.000000 0.000000
# 4 0.000000 0.000000 0.000000 0.057251 0.000000 0.000000
# 5 0.000000 0.000000 0.000000 0.000000 0.173669 0.000000
# 6 0.000000 0.000000 0.000000 0.000000 0.000000 0.038143
#
#
# Mechanical properties :
#
#
# Convention : Reuss Voigt Hill
#
# Bulk Modulus (GPa) = 34.78723 52.38870 43.58796
# Shear Modulus (GPa) = 11.16975 17.99621 14.58298
#
# Velocity S-wave (km/s) = 2.67209 3.39171 3.05318
# Velocity P-wave (km/s) = 5.63535 6.98762 6.34759
#
# Compressibility (1/GPa) = 0.02874618
#
# Stress axis : x y z
#
# Youngs Moduli (GPa) = 16.31211 38.15068 88.08151
#
# Poissons Ratio (x) = 0.85023 0.93227
# Poissons Ratio (y) = 0.36353 0.19300
# Poissons Ratio (z) = 0.17265 0.08359
#
# Static dielectric constant tensor:
#      x y z
#    x 2.564860 0.000000 0.000000 
#    y 0.000000 2.693000 0.000000 
#    z 0.000000 0.000000 3.361680 
# 
# 
# High freq. dielectric constant tensor:
#      x y z
#    x 1.544590 0.000000 0.000000 
#    y 0.000000 1.570940 0.000000 
#    z 0.000000 0.000000 1.629150 
# 
# From -- ./inp_files/22223.got.cif
#   From: 2010.03.12/outbox.cif.g09.slc.cpg/sg72_12_cif.got.tgz:22223.got - 2010.04.16 14:54:00.
