data_PCOD8293405
_publ_section_title
;
Structure prediction by ZEFSAII (Michael W. Deem and Ramdas Pophale) SiO2 
 PCOD8293405
Probable space group: I B A M
;
_chemical_formula_sum "Si O2"
_cell_formula_units_Z 116
_cell_length_a 26.290470
_cell_length_b 26.586164
_cell_length_c 9.258088
_cell_angle_alpha 90.000000
_cell_angle_beta 90.000000
_cell_angle_gamma 90.000000
_cell_volume 6471.058621
_symmetry_space_group_name_H-M "I B A M"
_symmetry_group_IT_number 72
_symmetry_cell_setting 'orthorhombic'
loop_
_space_group_symop_operation_xyz
x,y,z
-x,-y,z
x,-y,1/2-z
-x,y,1/2-z
-x,-y,-z
x,y,-z
-x,y,1/2+z
x,-y,1/2+z
1/2+x,1/2+y,1/2+z
1/2-x,1/2-y,1/2+z
1/2+x,1/2-y,-z
1/2-x,1/2+y,-z
1/2-x,1/2-y,1/2-z
1/2+x,1/2+y,1/2-z
1/2-x,1/2+y,z
1/2+x,1/2-y,z
loop_
_atom_site_type_symbol
_atom_site_label
_atom_site_fract_x
_atom_site_fract_y
_atom_site_fract_z
Si Si1 0.324062 0.155802 0.829757
Si Si2 0.865704 0.741210 0.831090
Si Si3 0.178236 0.925206 0.332656
Si Si4 0.448994 0.323784 0.328500
Si Si5 0.707780 0.952331 0.168308
Si Si6 0.500000 0.500000 0.250000
Si Si7 0.714846 0.317774 0.168730
Si Si8 0.917539 0.076235 0.163386
O O1 0.368833 0.187632 0.752006
O O2 0.326207 0.096505 0.791915
O O3 0.270528 0.175723 0.762458
O O4 0.328831 0.163892 0.000000
O O5 0.911868 0.777680 0.792614
O O6 0.814169 0.768582 0.774147
O O7 0.863896 0.730084 0.000000
O O8 0.166534 0.937562 0.500000
O O9 0.233304 0.945952 0.285435
O O10 0.178288 0.865391 0.303365
O O11 0.133799 0.948434 0.231806
O O12 0.500000 0.306879 0.250000
O O13 0.456273 0.331269 0.500000
O O14 0.431319 0.376726 0.263825
O O15 0.683982 0.000000 0.250000
O O16 0.704815 0.962700 0.000000
O O17 0.536790 0.464287 0.344231
O O18 0.724333 0.314104 0.000000
O O19 0.906799 0.094078 0.000000
#
# Coordination Sequence:
#
# PCOD8293405 Si02
#       8
#    16  16  16  16  16   4  16  16
#     4   9  18  31  49  74 105 137 172 210 249 303
#     4  10  19  32  52  76 103 136 166 205 261 310
#     4   9  18  35  54  71  99 133 167 214 265 312
#     4  11  23  40  60  78 102 133 170 216 268 321
#     4   9  19  34  52  74 104 142 175 211 258 302
#     4  12  30  44  52  70 102 128 174 236 284 320
#     4   8  14  29  49  70 100 135 163 198 255 307
#     4  12  25  40  57  74  94 127 174 224 278 325
#
# _framework density 17.92597
#
# number of rings (size 3 to 8) (size 9 to 14) (size 15 to 20)
#    0.000    2.207    2.069    3.103    0.966    3.862 
#    0.000    2.069    0.000    0.000    0.000    0.000 
#    0.000    0.552    0.000    6.069    0.000    4.414 
#
# Total GULP energy -718796.567276 kJ/mol
# GULP energy per Si atom -12393.044263 kJ/mol
# Density = 1.788517 g / cm^3
# Si number density = 17.925970 Si / 1000 Ang^3
#
#
#
# Elastic Constant Matrix: (Units=GPa)
#
#
# Indices 1 2 3 4 5 6 
#
# 1 41.7500 37.4628 30.3702 0.0000 0.0000 0.0000
# 2 37.4628 123.2277 52.3765 0.0000 0.0000 0.0000
# 3 30.3702 52.3765 72.4042 0.0000 0.0000 0.0000
# 4 0.0000 0.0000 0.0000 21.7756 0.0000 0.0000
# 5 0.0000 0.0000 0.0000 0.0000 22.1166 0.0000
# 6 0.0000 0.0000 0.0000 0.0000 0.0000 13.6644
#
#
#
# Elastic Compliance Matrix: (Units=1/GPa)
#
#
# Indices 1 2 3 4 5 6 
#
# 1 0.038170 -0.006930 -0.010998 0.000000 0.000000 0.000000
# 2 -0.006930 0.012976 -0.006480 0.000000 0.000000 0.000000
# 3 -0.010998 -0.006480 0.023112 0.000000 0.000000 0.000000
# 4 0.000000 0.000000 0.000000 0.045923 0.000000 0.000000
# 5 0.000000 0.000000 0.000000 0.000000 0.045215 0.000000
# 6 0.000000 0.000000 0.000000 0.000000 0.000000 0.073183
#
#
# Mechanical properties :
#
#
# Convention : Reuss Voigt Hill
#
# Bulk Modulus (GPa) = 39.30308 53.08900 46.19604
# Shear Modulus (GPa) = 16.89900 19.32281 18.11090
#
# Velocity S-wave (km/s) = 3.07369 3.28674 3.18200
# Velocity P-wave (km/s) = 5.87959 6.63954 6.27109
#
# Compressibility (1/GPa) = 0.02544330
#
# Stress axis : x y z
#
# Youngs Moduli (GPa) = 26.19829 77.06483 43.26767
#
# Poissons Ratio (x) = 0.53405 0.47584
# Poissons Ratio (y) = 0.18155 0.28038
# Poissons Ratio (z) = 0.28812 0.49938
#
# Static dielectric constant tensor:
#      x y z
#    x 3.693820 0.000000 0.000000 
#    y 0.000000 3.621670 0.000000 
#    z 0.000000 0.000000 3.083300 
# 
# 
# High freq. dielectric constant tensor:
#      x y z
#    x 1.658520 0.000000 0.000000 
#    y 0.000000 1.693480 0.000000 
#    z 0.000000 0.000000 1.680830 
# 
# From -- ./inp_files/9470.got.cif
#   From: 2010.03.12/outbox.cif.g09.slc.cpg/sg72_5_cif.got.tgz:9470.got - 2010.04.16 14:54:00.
