data_PCOD8293468
_publ_section_title
;
Structure prediction by ZEFSAII (Michael W. Deem and Ramdas Pophale) SiO2 
 PCOD8293468
Probable space group: I B A M
;
_chemical_formula_sum "Si O2"
_cell_formula_units_Z 116
_cell_length_a 26.193746
_cell_length_b 26.581378
_cell_length_c 9.297531
_cell_angle_alpha 90.000000
_cell_angle_beta 90.000000
_cell_angle_gamma 90.000000
_cell_volume 6473.553452
_symmetry_space_group_name_H-M "I B A M"
_symmetry_group_IT_number 72
_symmetry_cell_setting 'orthorhombic'
loop_
_space_group_symop_operation_xyz
x,y,z
-x,-y,z
x,-y,1/2-z
-x,y,1/2-z
-x,-y,-z
x,y,-z
-x,y,1/2+z
x,-y,1/2+z
1/2+x,1/2+y,1/2+z
1/2-x,1/2-y,1/2+z
1/2+x,1/2-y,-z
1/2-x,1/2+y,-z
1/2-x,1/2-y,1/2-z
1/2+x,1/2+y,1/2-z
1/2-x,1/2+y,z
1/2+x,1/2-y,z
loop_
_atom_site_type_symbol
_atom_site_label
_atom_site_fract_x
_atom_site_fract_y
_atom_site_fract_z
Si Si1 0.449456 0.786744 0.169773
Si Si2 0.687720 0.549423 0.168792
Si Si3 0.085074 0.824640 0.667052
Si Si4 0.852248 0.319997 0.166208
Si Si5 0.923798 0.918142 0.339281
Si Si6 0.321713 0.291786 0.839125
Si Si7 0.000000 0.000000 0.250000
Si Si8 0.234007 0.636487 0.663941
O O1 0.500000 0.805652 0.250000
O O2 0.444084 0.727251 0.199751
O O3 0.403753 0.818170 0.240943
O O4 0.451772 0.798290 0.000000
O O5 0.706400 0.500000 0.250000
O O6 0.630957 0.564049 0.222239
O O7 0.728121 0.592175 0.210796
O O8 0.686979 0.538762 0.000000
O O9 0.087984 0.836326 0.500000
O O10 0.056226 0.871577 0.742042
O O11 0.142250 0.820782 0.727789
O O12 0.822522 0.267645 0.183835
O O13 0.815380 0.362760 0.232540
O O14 0.864723 0.332388 0.000000
O O15 0.917357 0.897438 0.500000
O O16 0.963786 0.964080 0.344171
O O17 0.264130 0.310861 0.818214
O O18 0.341027 0.305731 0.000000
O O19 0.215226 0.629526 0.500000
#
# Coordination Sequence:
#
# PCOD8293468 Si02
#       8
#    16  16  16  16  16  16   4  16
#     4  10  21  37  54  76 106 142 178 215 257 308
#     4  10  21  38  57  75  99 135 174 221 277 330
#     4  10  21  34  52  76  99 130 175 219 264 319
#     4  10  20  32  51  79 108 138 173 215 258 311
#     4  11  23  40  56  71  97 130 172 228 287 334
#     4   9  17  32  51  73 104 138 170 209 263 317
#     4  12  26  40  56  78  90 128 184 242 292 328
#     4  10  19  33  52  74 103 139 172 211 268 324
#
# _framework density 17.919060000000002
#
# number of rings (size 3 to 8) (size 9 to 14) (size 15 to 20)
#    0.000    1.931    2.069    1.862    0.966    4.966 
#    0.000    0.000    0.000    0.000    0.000    0.000 
#    0.000    0.552    0.000    5.793    0.000    3.172 
#
# Total GULP energy -719196.369144 kJ/mol
# GULP energy per Si atom -12399.937399 kJ/mol
# Density = 1.787828 g / cm^3
# Si number density = 17.919060 Si / 1000 Ang^3
#
#
#
# Elastic Constant Matrix: (Units=GPa)
#
#
# Indices 1 2 3 4 5 6 
#
# 1 114.8847 43.8144 57.3854 0.0000 0.0000 0.0000
# 2 43.8144 49.6560 29.4600 0.0000 0.0000 0.0000
# 3 57.3854 29.4600 89.5818 0.0000 0.0000 0.0000
# 4 0.0000 0.0000 0.0000 24.1329 0.0000 0.0000
# 5 0.0000 0.0000 0.0000 0.0000 28.2215 0.0000
# 6 0.0000 0.0000 0.0000 0.0000 0.0000 26.6327
#
#
#
# Elastic Compliance Matrix: (Units=1/GPa)
#
#
# Indices 1 2 3 4 5 6 
#
# 1 0.015985 -0.009976 -0.006959 0.000000 0.000000 0.000000
# 2 -0.009976 0.031246 -0.003885 0.000000 0.000000 0.000000
# 3 -0.006959 -0.003885 0.016899 0.000000 0.000000 0.000000
# 4 0.000000 0.000000 0.000000 0.041437 0.000000 0.000000
# 5 0.000000 0.000000 0.000000 0.000000 0.035434 0.000000
# 6 0.000000 0.000000 0.000000 0.000000 0.000000 0.037548
#
#
# Mechanical properties :
#
#
# Convention : Reuss Voigt Hill
#
# Bulk Modulus (GPa) = 44.46580 57.27136 50.86858
# Shear Modulus (GPa) = 21.96012 24.02824 22.99418
#
# Velocity S-wave (km/s) = 3.50454 3.66585 3.58610
# Velocity P-wave (km/s) = 6.42218 7.06742 6.75251
#
# Compressibility (1/GPa) = 0.02248919
#
# Stress axis : x y z
#
# Youngs Moduli (GPa) = 62.55819 32.00437 59.17609
#
# Poissons Ratio (x) = 0.31927 0.41182
# Poissons Ratio (y) = 0.62407 0.22991
# Poissons Ratio (z) = 0.43536 0.12434
#
# Static dielectric constant tensor:
#      x y z
#    x 3.155210 0.000000 0.000000 
#    y 0.000000 3.036390 0.000000 
#    z 0.000000 0.000000 3.321160 
# 
# 
# High freq. dielectric constant tensor:
#      x y z
#    x 1.682810 0.000000 0.000000 
#    y 0.000000 1.656930 0.000000 
#    z 0.000000 0.000000 1.699910 
# 
# From -- ./inp_files/7320.got.cif
#   From: 2010.03.12/outbox.cif.g09.slc.cpg/sg72_4_cif.got.tgz:7320.got - 2010.04.16 14:54:00.
