data_PCOD8293899
_publ_section_title
;
Structure prediction by ZEFSAII (Michael W. Deem and Ramdas Pophale) SiO2 
 PCOD8293899
Probable space group: I B A M
;
_chemical_formula_sum "Si O2"
_cell_formula_units_Z 88
_cell_length_a 4.989385
_cell_length_b 31.268667
_cell_length_c 29.034542
_cell_angle_alpha 90.000000
_cell_angle_beta 90.000000
_cell_angle_gamma 90.000000
_cell_volume 4529.720071
_symmetry_space_group_name_H-M "I B A M"
_symmetry_group_IT_number 72
_symmetry_cell_setting 'orthorhombic'
loop_
_space_group_symop_operation_xyz
x,y,z
-x,-y,z
x,-y,1/2-z
-x,y,1/2-z
-x,-y,-z
x,y,-z
-x,y,1/2+z
x,-y,1/2+z
1/2+x,1/2+y,1/2+z
1/2-x,1/2-y,1/2+z
1/2+x,1/2-y,-z
1/2-x,1/2+y,-z
1/2-x,1/2-y,1/2-z
1/2+x,1/2+y,1/2-z
1/2-x,1/2+y,z
1/2+x,1/2-y,z
loop_
_atom_site_type_symbol
_atom_site_label
_atom_site_fract_x
_atom_site_fract_y
_atom_site_fract_z
Si Si1 0.083932 0.547255 0.182032
Si Si2 0.569446 0.721669 0.052383
Si Si3 0.594120 0.400543 0.702441
Si Si4 0.077799 0.136338 0.605391
Si Si5 0.076459 0.415501 0.585750
Si Si6 0.756783 0.530707 0.500000
O O1 0.390075 0.559967 0.192717
O O2 0.044926 0.551010 0.127155
O O3 0.000000 0.500000 0.197773
O O4 0.886674 0.579174 0.209244
O O5 0.274141 0.739765 0.061130
O O6 0.627915 0.684219 0.088499
O O7 0.597430 0.704096 0.000000
O O8 0.500000 0.377479 0.750000
O O9 0.615921 0.366537 0.660782
O O10 0.281807 0.104839 0.577631
O O11 0.771334 0.123977 0.596562
O O12 0.218081 0.439263 0.543926
O O13 0.500000 0.500000 0.500000
O O14 0.000000 0.500000 0.500000
#
# Coordination Sequence:
#
# PCOD8293899 Si02
#       6
#    16  16  16  16  16   8
#     4  10  20  34  51  74 106 140 182 234 282 319
#     4  10  21  36  58  87 112 138 170 216 272 328
#     4  10  21  35  53  78 104 140 185 225 275 326
#     4  10  21  38  57  79 110 143 178 220 274 330
#     4  10  22  35  53  77 104 149 187 225 269 325
#     4  12  24  36  52  76 108 148 196 238 272 312
#
# _framework density 19.427250000000001
#
# number of rings (size 3 to 8) (size 9 to 14) (size 15 to 20)
#    0.000    1.818    0.000    3.818    2.545    5.091 
#    0.000    0.000    0.000    1.091    0.000    0.000 
#    0.000    0.000    0.000    0.000    0.000    0.000 
#
# Total GULP energy -545462.523753 kJ/mol
# GULP energy per Si atom -12396.875540 kJ/mol
# Density = 1.938303 g / cm^3
# Si number density = 19.427250 Si / 1000 Ang^3
#
#
#
# Elastic Constant Matrix: (Units=GPa)
#
#
# Indices 1 2 3 4 5 6 
#
# 1 90.0554 13.2630 20.7616 0.0000 0.0000 0.0000
# 2 13.2630 79.8980 51.2656 0.0000 0.0000 0.0000
# 3 20.7616 51.2656 114.8220 0.0000 0.0000 0.0000
# 4 0.0000 0.0000 0.0000 6.4029 0.0000 0.0000
# 5 0.0000 0.0000 0.0000 0.0000 23.9513 0.0000
# 6 0.0000 0.0000 0.0000 0.0000 0.0000 20.5437
#
#
#
# Elastic Compliance Matrix: (Units=1/GPa)
#
#
# Indices 1 2 3 4 5 6 
#
# 1 0.011625 -0.000814 -0.001738 0.000000 0.000000 0.000000
# 2 -0.000814 0.017598 -0.007710 0.000000 0.000000 0.000000
# 3 -0.001738 -0.007710 0.012466 0.000000 0.000000 0.000000
# 4 0.000000 0.000000 0.000000 0.156180 0.000000 0.000000
# 5 0.000000 0.000000 0.000000 0.000000 0.041751 0.000000
# 6 0.000000 0.000000 0.000000 0.000000 0.000000 0.048677
#
#
# Mechanical properties :
#
#
# Convention : Reuss Voigt Hill
#
# Bulk Modulus (GPa) = 47.25099 50.59507 48.92303
# Shear Modulus (GPa) = 15.82894 23.47859 19.65376
#
# Velocity S-wave (km/s) = 2.85753 3.48018 3.18411
# Velocity P-wave (km/s) = 5.93819 6.49990 6.22539
#
# Compressibility (1/GPa) = 0.02116358
#
# Stress axis : x y z
#
# Youngs Moduli (GPa) = 86.02168 56.82426 80.21958
#
# Poissons Ratio (x) = 0.04627 0.13945
# Poissons Ratio (y) = 0.07005 0.61849
# Poissons Ratio (z) = 0.14954 0.43811
#
# Static dielectric constant tensor:
#      x y z
#    x 3.766530 0.000000 0.000000 
#    y 0.000000 3.087800 0.000000 
#    z 0.000000 0.000000 3.700780 
# 
# 
# High freq. dielectric constant tensor:
#      x y z
#    x 1.782260 0.000000 0.000000 
#    y 0.000000 1.715000 0.000000 
#    z 0.000000 0.000000 1.759350 
# 
# From -- ./inp_files/50298.got.cif
#   From: 2010.03.12/outbox.cif.g09.slc.cpg/sg72_26_cif.got.tgz:50298.got - 2010.04.16 14:54:00.
