data_PCOD8293014
_publ_section_title
;
Structure prediction by ZEFSAII (Michael W. Deem and Ramdas Pophale) SiO2 
 PCOD8293014
Probable space group: I B A M
;
_chemical_formula_sum "Si O2"
_cell_formula_units_Z 72
_cell_length_a 17.190918
_cell_length_b 14.303985
_cell_length_c 12.069244
_cell_angle_alpha 90.000000
_cell_angle_beta 90.000000
_cell_angle_gamma 90.000000
_cell_volume 2967.810603
_symmetry_space_group_name_H-M "I B A M"
_symmetry_group_IT_number 72
_symmetry_cell_setting 'orthorhombic'
loop_
_space_group_symop_operation_xyz
x,y,z
-x,-y,z
x,-y,1/2-z
-x,y,1/2-z
-x,-y,-z
x,y,-z
-x,y,1/2+z
x,-y,1/2+z
1/2+x,1/2+y,1/2+z
1/2-x,1/2-y,1/2+z
1/2+x,1/2-y,-z
1/2-x,1/2+y,-z
1/2-x,1/2-y,1/2-z
1/2+x,1/2+y,1/2-z
1/2-x,1/2+y,z
1/2+x,1/2-y,z
loop_
_atom_site_type_symbol
_atom_site_label
_atom_site_fract_x
_atom_site_fract_y
_atom_site_fract_z
Si Si1 0.500000 0.337384 0.750000
Si Si2 0.853274 0.147363 0.370749
Si Si3 0.695509 0.054776 0.632122
Si Si4 0.871937 0.362031 0.630267
Si Si5 0.455660 0.164983 0.870657
O O1 0.569909 0.394962 0.808356
O O2 0.457065 0.275179 0.844977
O O3 0.866639 0.130108 0.500000
O O4 0.777751 0.093976 0.325995
O O5 0.841237 0.257744 0.344798
O O6 0.692105 0.060857 0.500000
O O7 0.623352 0.118309 0.680714
O O8 0.685410 0.946223 0.674128
O O9 0.877452 0.378458 0.500000
O O10 0.960909 0.373860 0.677234
O O11 0.452819 0.145650 0.000000
#
# Coordination Sequence:
#
# PCOD8293014 Si02
#       5
#     8  16  16  16  16
#     4  10  18  30  47  68 105 142 172 210 257 310
#     4   9  18  31  48  75 107 138 176 217 259 312
#     4   9  16  28  48  72 101 136 173 219 267 307
#     4   8  14  27  46  69 100 133 165 209 261 311
#     4   9  17  29  47  72 101 135 174 215 265 318
#
# _framework density 24.260307000000001
#
# number of rings (size 3 to 8) (size 9 to 14) (size 15 to 20)
#    0.000    3.111    0.000    2.667    0.000    3.556 
#    0.000    8.889    0.000    0.000    0.000    7.778 
#    0.000   65.778    0.000    0.000    0.000    0.222 
#
# Total GULP energy -446299.307414 kJ/mol
# GULP energy per Si atom -12397.202984 kJ/mol
# Density = 2.420509 g / cm^3
# Si number density = 24.260307 Si / 1000 Ang^3
#
#
#
# Elastic Constant Matrix: (Units=GPa)
#
#
# Indices 1 2 3 4 5 6 
#
# 1 237.9774 81.1105 94.7228 0.0000 0.0000 0.0000
# 2 81.1105 68.1954 37.2270 0.0000 0.0000 0.0000
# 3 94.7228 37.2270 90.8338 0.0000 0.0000 0.0000
# 4 0.0000 0.0000 0.0000 27.9945 0.0000 0.0000
# 5 0.0000 0.0000 0.0000 0.0000 49.9103 0.0000
# 6 0.0000 0.0000 0.0000 0.0000 0.0000 39.1023
#
#
#
# Elastic Compliance Matrix: (Units=1/GPa)
#
#
# Indices 1 2 3 4 5 6 
#
# 1 0.009486 -0.007578 -0.006787 0.000000 0.000000 0.000000
# 2 -0.007578 0.024944 -0.002320 0.000000 0.000000 0.000000
# 3 -0.006787 -0.002320 0.019037 0.000000 0.000000 0.000000
# 4 0.000000 0.000000 0.000000 0.035721 0.000000 0.000000
# 5 0.000000 0.000000 0.000000 0.000000 0.020036 0.000000
# 6 0.000000 0.000000 0.000000 0.000000 0.000000 0.025574
#
#
# Mechanical properties :
#
#
# Convention : Reuss Voigt Hill
#
# Bulk Modulus (GPa) = 49.75834 91.45858 70.60846
# Shear Modulus (GPa) = 28.59315 35.66451 32.12883
#
# Velocity S-wave (km/s) = 3.43680 3.83832 3.64309
# Velocity P-wave (km/s) = 6.02524 7.57788 6.84572
#
# Compressibility (1/GPa) = 0.02009713
#
# Stress axis : x y z
#
# Youngs Moduli (GPa) = 105.41610 40.09054 52.52868
#
# Poissons Ratio (x) = 0.30381 0.35649
# Poissons Ratio (y) = 0.79885 0.12188
# Poissons Ratio (z) = 0.71542 0.09302
#
# Static dielectric constant tensor:
#      x y z
#    x 4.657240 0.000000 0.000000 
#    y 0.000000 3.990970 0.000000 
#    z 0.000000 0.000000 5.176150 
# 
# 
# High freq. dielectric constant tensor:
#      x y z
#    x 1.965270 0.000000 0.000000 
#    y 0.000000 1.914410 0.000000 
#    z 0.000000 0.000000 2.039960 
# 
# From -- ./inp_files/22985.got.cif
#   From: 2010.03.12/outbox.cif.g09.slc.cpg/sg72_12_cif.got.tgz:22985.got - 2010.04.16 14:54:00.
