data_PCOD8293035
_publ_section_title
;
Structure prediction by ZEFSAII (Michael W. Deem and Ramdas Pophale) SiO2 
 PCOD8293035
Probable space group: I B A M
;
_chemical_formula_sum "Si O2"
_cell_formula_units_Z 116
_cell_length_a 26.415259
_cell_length_b 26.412987
_cell_length_c 9.029876
_cell_angle_alpha 90.000000
_cell_angle_beta 90.000000
_cell_angle_gamma 90.000000
_cell_volume 6300.197694
_symmetry_space_group_name_H-M "I B A M"
_symmetry_group_IT_number 72
_symmetry_cell_setting 'orthorhombic'
loop_
_space_group_symop_operation_xyz
x,y,z
-x,-y,z
x,-y,1/2-z
-x,y,1/2-z
-x,-y,-z
x,y,-z
-x,y,1/2+z
x,-y,1/2+z
1/2+x,1/2+y,1/2+z
1/2-x,1/2-y,1/2+z
1/2+x,1/2-y,-z
1/2-x,1/2+y,-z
1/2-x,1/2-y,1/2-z
1/2+x,1/2+y,1/2-z
1/2-x,1/2+y,z
1/2+x,1/2-y,z
loop_
_atom_site_type_symbol
_atom_site_label
_atom_site_fract_x
_atom_site_fract_y
_atom_site_fract_z
Si Si1 0.500000 0.000000 0.250000
Si Si2 0.924695 0.582439 0.838209
Si Si3 0.293873 0.550372 0.672713
Si Si4 0.186052 0.589486 0.330687
Si Si5 0.211616 0.313781 0.671549
Si Si6 0.448350 0.183189 0.824460
Si Si7 0.363922 0.750217 0.827730
Si Si8 0.821643 0.852588 0.831211
O O1 0.536533 0.964224 0.345331
O O2 0.867628 0.560366 0.812717
O O3 0.938504 0.624592 0.717351
O O4 0.926908 0.608952 0.000000
O O5 0.314879 0.500000 0.750000
O O6 0.302289 0.544478 0.500000
O O7 0.234470 0.555999 0.716975
O O8 0.326953 0.598429 0.727157
O O9 0.194804 0.607693 0.500000
O O10 0.180073 0.637078 0.222316
O O11 0.200447 0.302845 0.500000
O O12 0.191590 0.267548 0.771378
O O13 0.269983 0.323332 0.705698
O O14 0.500000 0.202062 0.750000
O O15 0.405578 0.221680 0.769587
O O16 0.452515 0.186775 0.000000
O O17 0.366126 0.688937 0.805082
O O18 0.370526 0.764096 0.000000
O O19 0.821410 0.871978 0.000000
#
# Coordination Sequence:
#
# PCOD8293035 Si02
#       8
#     4  16  16  16  16  16  16  16
#     4  12  26  36  60  78  98 132 186 244 296 332
#     4  11  23  40  56  74 102 133 176 232 289 336
#     4  10  20  34  53  76 106 144 182 223 267 318
#     4   9  19  34  51  70  98 137 177 221 273 326
#     4  10  18  30  50  78 107 138 176 216 263 322
#     4  12  25  41  61  81 104 137 178 225 279 336
#     4  11  21  35  55  79 109 142 175 218 273 327
#     4   9  20  35  52  77 110 144 179 220 263 319
#
# _framework density 18.412120000000002
#
# number of rings (size 3 to 8) (size 9 to 14) (size 15 to 20)
#    0.000    1.655    2.069    3.103    0.966    2.759 
#    0.000    0.000    0.000    0.000    0.000    0.000 
#    0.000    0.552    0.000    5.793    0.000    2.483 
#
# Total GULP energy -718937.876792 kJ/mol
# GULP energy per Si atom -12395.480634 kJ/mol
# Density = 1.837021 g / cm^3
# Si number density = 18.412120 Si / 1000 Ang^3
#
#
#
# Elastic Constant Matrix: (Units=GPa)
#
#
# Indices 1 2 3 4 5 6 
#
# 1 39.9667 32.1960 22.8838 0.0000 0.0000 0.0000
# 2 32.1960 112.9958 51.5829 0.0000 0.0000 0.0000
# 3 22.8838 51.5829 106.7959 0.0000 0.0000 0.0000
# 4 0.0000 0.0000 0.0000 28.3411 0.0000 0.0000
# 5 0.0000 0.0000 0.0000 0.0000 19.1697 0.0000
# 6 0.0000 0.0000 0.0000 0.0000 0.0000 26.2863
#
#
#
# Elastic Compliance Matrix: (Units=1/GPa)
#
#
# Indices 1 2 3 4 5 6 
#
# 1 0.033347 -0.008004 -0.003279 0.000000 0.000000 0.000000
# 2 -0.008004 0.013275 -0.004697 0.000000 0.000000 0.000000
# 3 -0.003279 -0.004697 0.012335 0.000000 0.000000 0.000000
# 4 0.000000 0.000000 0.000000 0.035285 0.000000 0.000000
# 5 0.000000 0.000000 0.000000 0.000000 0.052166 0.000000
# 6 0.000000 0.000000 0.000000 0.000000 0.000000 0.038043
#
#
# Mechanical properties :
#
#
# Convention : Reuss Voigt Hill
#
# Bulk Modulus (GPa) = 37.04319 52.56487 44.80403
# Shear Modulus (GPa) = 22.18205 24.96580 23.57392
#
# Velocity S-wave (km/s) = 3.47472 3.68631 3.58208
# Velocity P-wave (km/s) = 6.02170 6.83590 6.44168
#
# Compressibility (1/GPa) = 0.02699551
#
# Stress axis : x y z
#
# Youngs Moduli (GPa) = 29.98812 75.33198 81.07188
#
# Poissons Ratio (x) = 0.60299 0.26585
# Poissons Ratio (y) = 0.24004 0.38075
# Poissons Ratio (z) = 0.09834 0.35380
#
# Static dielectric constant tensor:
#      x y z
#    x 3.272510 0.000000 0.000000 
#    y 0.000000 3.280380 0.000000 
#    z 0.000000 0.000000 3.412280 
# 
# 
# High freq. dielectric constant tensor:
#      x y z
#    x 1.680150 0.000000 0.000000 
#    y 0.000000 1.699740 0.000000 
#    z 0.000000 0.000000 1.723820 
# 
# From -- ./inp_files/9398.got.cif
#   From: 2010.03.12/outbox.cif.g09.slc.cpg/sg72_5_cif.got.tgz:9398.got - 2010.04.16 14:54:00.
