data_PCOD8293655
_publ_section_title
;
Structure prediction by ZEFSAII (Michael W. Deem and Ramdas Pophale) SiO2 
 PCOD8293655
Probable space group: I B A M
;
_chemical_formula_sum "Si O2"
_cell_formula_units_Z 96
_cell_length_a 16.379441
_cell_length_b 17.679658
_cell_length_c 17.663456
_cell_angle_alpha 90.000000
_cell_angle_beta 90.000000
_cell_angle_gamma 90.000000
_cell_volume 5115.035079
_symmetry_space_group_name_H-M "I B A M"
_symmetry_group_IT_number 72
_symmetry_cell_setting 'orthorhombic'
loop_
_space_group_symop_operation_xyz
x,y,z
-x,-y,z
x,-y,1/2-z
-x,y,1/2-z
-x,-y,-z
x,y,-z
-x,y,1/2+z
x,-y,1/2+z
1/2+x,1/2+y,1/2+z
1/2-x,1/2-y,1/2+z
1/2+x,1/2-y,-z
1/2-x,1/2+y,-z
1/2-x,1/2-y,1/2-z
1/2+x,1/2+y,1/2-z
1/2-x,1/2+y,z
1/2+x,1/2-y,z
loop_
_atom_site_type_symbol
_atom_site_label
_atom_site_fract_x
_atom_site_fract_y
_atom_site_fract_z
Si Si1 0.911019 0.527044 0.911641
Si Si2 0.672394 0.420397 0.225347
Si Si3 0.728766 0.910431 0.083820
Si Si4 0.408770 0.271605 0.766960
Si Si5 0.811657 0.351915 0.325159
Si Si6 0.681997 0.262882 0.414835
O O1 0.851065 0.457906 0.894080
O O2 0.884068 0.599739 0.862747
O O3 0.000000 0.500000 0.884475
O O4 0.912242 0.549725 0.000000
O O5 0.632799 0.500000 0.250000
O O6 0.696245 0.429523 0.137868
O O7 0.605599 0.354798 0.232850
O O8 0.753735 0.404418 0.274313
O O9 0.707418 0.823334 0.089311
O O10 0.758139 0.932823 0.000000
O O11 0.500000 0.245323 0.750000
O O12 0.346715 0.212964 0.729058
O O13 0.393192 0.275471 0.857225
O O14 0.759019 0.314257 0.391944
O O15 0.654269 0.284973 0.500000
#
# Coordination Sequence:
#
# PCOD8293655 Si02
#       6
#    16  16  16  16  16  16
#     4  10  22  35  52  87 125 152 181 229 292 356
#     4  11  20  39  61  81 108 151 200 237 283 339
#     4  10  19  35  56  83 115 148 189 234 280 341
#     4  11  24  39  57  87 121 150 193 245 288 350
#     4  11  20  36  60  83 116 149 198 232 280 348
#     4  10  20  38  61  84 112 154 196 241 287 336
#
# _framework density 18.7682
#
# number of rings (size 3 to 8) (size 9 to 14) (size 15 to 20)
#    0.000    1.500    5.000    1.500    2.333    0.333 
#    0.000    2.500    0.000    0.000    0.000    3.500 
#    0.000    0.000    0.000    0.000    0.000    0.000 
#
# Total GULP energy -595299.887099 kJ/mol
# GULP energy per Si atom -12402.080981 kJ/mol
# Density = 1.872548 g / cm^3
# Si number density = 18.768200 Si / 1000 Ang^3
#
#
#
# Elastic Constant Matrix: (Units=GPa)
#
#
# Indices 1 2 3 4 5 6 
#
# 1 56.7839 8.5358 34.6381 0.0000 0.0000 0.0000
# 2 8.5358 91.9825 26.6366 0.0000 0.0000 0.0000
# 3 34.6381 26.6366 115.0055 0.0000 0.0000 0.0000
# 4 0.0000 0.0000 0.0000 42.2633 0.0000 0.0000
# 5 0.0000 0.0000 0.0000 0.0000 20.6279 0.0000
# 6 0.0000 0.0000 0.0000 0.0000 0.0000 28.7847
#
#
#
# Elastic Compliance Matrix: (Units=1/GPa)
#
#
# Indices 1 2 3 4 5 6 
#
# 1 0.021576 -0.000129 -0.006468 0.000000 0.000000 0.000000
# 2 -0.000129 0.011654 -0.002660 0.000000 0.000000 0.000000
# 3 -0.006468 -0.002660 0.011260 0.000000 0.000000 0.000000
# 4 0.000000 0.000000 0.000000 0.023661 0.000000 0.000000
# 5 0.000000 0.000000 0.000000 0.000000 0.048478 0.000000
# 6 0.000000 0.000000 0.000000 0.000000 0.000000 0.034741
#
#
# Mechanical properties :
#
#
# Convention : Reuss Voigt Hill
#
# Bulk Modulus (GPa) = 38.50044 44.82144 41.66094
# Shear Modulus (GPa) = 28.00448 31.26594 29.63521
#
# Velocity S-wave (km/s) = 3.86699 4.08597 3.97799
# Velocity P-wave (km/s) = 6.36368 6.79659 6.58369
#
# Compressibility (1/GPa) = 0.02597373
#
# Stress axis : x y z
#
# Youngs Moduli (GPa) = 46.34832 85.80747 88.81304
#
# Poissons Ratio (x) = 0.01107 0.57448
# Poissons Ratio (y) = 0.00598 0.23627
# Poissons Ratio (z) = 0.29980 0.22828
#
# Static dielectric constant tensor:
#      x y z
#    x 3.129980 0.000000 0.000000 
#    y 0.000000 3.511560 0.000000 
#    z 0.000000 0.000000 3.990610 
# 
# 
# High freq. dielectric constant tensor:
#      x y z
#    x 1.696580 0.000000 0.000000 
#    y 0.000000 1.741060 0.000000 
#    z 0.000000 0.000000 1.739820 
# 
# From -- ./inp_files/31612.got.cif
#   From: 2010.03.12/outbox.cif.g09.slc.cpg/sg72_16_cif.got.tgz:31612.got - 2010.04.16 14:54:00.
