data_PCOD8293425
_publ_section_title
;
Structure prediction by ZEFSAII (Michael W. Deem and Ramdas Pophale) SiO2 
 PCOD8293425
Probable space group: I B A M
;
_chemical_formula_sum "Si O2"
_cell_formula_units_Z 80
_cell_length_a 13.652735
_cell_length_b 18.146826
_cell_length_c 16.715863
_cell_angle_alpha 90.000000
_cell_angle_beta 90.000000
_cell_angle_gamma 90.000000
_cell_volume 4141.418687
_symmetry_space_group_name_H-M "I B A M"
_symmetry_group_IT_number 72
_symmetry_cell_setting 'orthorhombic'
loop_
_space_group_symop_operation_xyz
x,y,z
-x,-y,z
x,-y,1/2-z
-x,y,1/2-z
-x,-y,-z
x,y,-z
-x,y,1/2+z
x,-y,1/2+z
1/2+x,1/2+y,1/2+z
1/2-x,1/2-y,1/2+z
1/2+x,1/2-y,-z
1/2-x,1/2+y,-z
1/2-x,1/2-y,1/2-z
1/2+x,1/2+y,1/2-z
1/2-x,1/2+y,z
1/2+x,1/2-y,z
loop_
_atom_site_type_symbol
_atom_site_label
_atom_site_fract_x
_atom_site_fract_y
_atom_site_fract_z
Si Si1 0.096001 0.339671 0.404134
Si Si2 0.896417 0.969149 0.405851
Si Si3 0.381577 0.125910 0.592973
Si Si4 0.197568 0.518368 0.841439
Si Si5 0.818991 0.186262 0.094320
O O1 0.101998 0.347447 0.500000
O O2 0.163395 0.400019 0.362405
O O3 0.134765 0.261115 0.371934
O O4 0.985175 0.348273 0.370957
O O5 0.882064 0.982312 0.500000
O O6 0.889367 0.882503 0.384151
O O7 0.812703 0.014334 0.360253
O O8 0.000000 0.000000 0.375660
O O9 0.384777 0.142301 0.500000
O O10 0.289896 0.171343 0.631001
O O11 0.364822 0.039019 0.605822
O O12 0.176512 0.500000 0.750000
O O13 0.809023 0.193175 0.000000
#
# Coordination Sequence:
#
# PCOD8293425 Si02
#       5
#    16  16  16  16  16
#     4  10  19  32  54  79 102 134 175 216 260 308
#     4   9  18  35  58  79 103 136 172 211 257 311
#     4   9  18  34  53  73 102 134 167 214 262 303
#     4  11  22  34  50  74 105 139 174 212 253 306
#     4   8  16  31  51  79 106 126 163 220 268 305
#
# _framework density 19.317052
#
# number of rings (size 3 to 8) (size 9 to 14) (size 15 to 20)
#    0.000    2.600    0.000    3.600    0.000    5.200 
#    0.000   10.000    0.000    4.800    0.000    0.000 
#    0.000    0.000    0.000    0.000    0.000    0.000 
#
# Total GULP energy -495908.600742 kJ/mol
# GULP energy per Si atom -12397.715019 kJ/mol
# Density = 1.927309 g / cm^3
# Si number density = 19.317052 Si / 1000 Ang^3
#
#
#
# Elastic Constant Matrix: (Units=GPa)
#
#
# Indices 1 2 3 4 5 6 
#
# 1 152.8717 104.3997 22.1646 0.0000 0.0000 0.0000
# 2 104.3997 164.9970 14.7018 0.0000 0.0000 0.0000
# 3 22.1646 14.7018 23.1104 -0.0001 0.0000 0.0000
# 4 0.0000 0.0000 -0.0001 5.4863 0.0000 0.0000
# 5 0.0000 0.0000 0.0000 0.0000 10.6780 0.0000
# 6 0.0000 0.0000 0.0000 0.0000 0.0000 29.2198
#
#
#
# Elastic Compliance Matrix: (Units=1/GPa)
#
#
# Indices 1 2 3 4 5 6 
#
# 1 0.012622 -0.007323 -0.007447 0.000000 0.000000 0.000000
# 2 -0.007323 0.010673 0.000233 0.000000 0.000000 0.000000
# 3 -0.007447 0.000233 0.050264 0.000001 0.000000 0.000000
# 4 0.000000 0.000000 0.000001 0.182273 0.000000 0.000000
# 5 0.000000 0.000000 0.000000 0.000000 0.093650 0.000000
# 6 0.000000 0.000000 0.000000 0.000000 0.000000 0.034223
#
#
# Mechanical properties :
#
#
# Convention : Reuss Voigt Hill
#
# Bulk Modulus (GPa) = 22.47867 69.27906 45.87886
# Shear Modulus (GPa) = 11.69292 22.39103 17.04198
#
# Velocity S-wave (km/s) = 2.46299 3.40830 2.97345
# Velocity P-wave (km/s) = 4.44414 7.17152 5.96578
#
# Compressibility (1/GPa) = 0.04448661
#
# Stress axis : x y z
#
# Youngs Moduli (GPa) = 79.22551 93.69055 19.89476
#
# Poissons Ratio (x) = 0.68609 0.14816
# Poissons Ratio (y) = 0.58017 -0.00464
# Poissons Ratio (z) = 0.59000 -0.02186
#
# Static dielectric constant tensor:
#      x y z
#    x 3.897520 0.000000 0.000000 
#    y 0.000000 3.620720 0.000000 
#    z 0.000000 0.000000 3.104280 
# 
# 
# High freq. dielectric constant tensor:
#      x y z
#    x 1.762880 0.000000 0.000000 
#    y 0.000000 1.749840 0.000000 
#    z 0.000000 0.000000 1.712930 
# 
# From -- ./inp_files/30435.got.cif
#   From: 2010.03.12/outbox.cif.g09.slc.cpg/sg72_16_cif.got.tgz:30435.got - 2010.04.16 14:54:00.
