data_PCOD8293896
_publ_section_title
;
Structure prediction by ZEFSAII (Michael W. Deem and Ramdas Pophale) SiO2 
 PCOD8293896
Probable space group: I B A M
;
_chemical_formula_sum "Si O2"
_cell_formula_units_Z 128
_cell_length_a 17.837461
_cell_length_b 23.408171
_cell_length_c 18.621654
_cell_angle_alpha 90.000000
_cell_angle_beta 90.000000
_cell_angle_gamma 90.000000
_cell_volume 7775.328935
_symmetry_space_group_name_H-M "I B A M"
_symmetry_group_IT_number 72
_symmetry_cell_setting 'orthorhombic'
loop_
_space_group_symop_operation_xyz
x,y,z
-x,-y,z
x,-y,1/2-z
-x,y,1/2-z
-x,-y,-z
x,y,-z
-x,y,1/2+z
x,-y,1/2+z
1/2+x,1/2+y,1/2+z
1/2-x,1/2-y,1/2+z
1/2+x,1/2-y,-z
1/2-x,1/2+y,-z
1/2-x,1/2-y,1/2-z
1/2+x,1/2+y,1/2-z
1/2-x,1/2+y,z
1/2+x,1/2-y,z
loop_
_atom_site_type_symbol
_atom_site_label
_atom_site_fract_x
_atom_site_fract_y
_atom_site_fract_z
Si Si1 0.344394 0.557733 0.082264
Si Si2 0.532953 0.264096 0.172789
Si Si3 0.303199 0.319234 0.082181
Si Si4 0.087602 0.286742 0.581176
Si Si5 0.269394 0.151260 0.082598
Si Si6 0.382145 0.568452 0.582814
Si Si7 0.479727 0.607113 0.165941
Si Si8 0.294381 0.250817 0.324560
O O1 0.261851 0.586734 0.091935
O O2 0.336483 0.490040 0.094917
O O3 0.399363 0.581601 0.143650
O O4 0.373227 0.569584 0.000000
O O5 0.500000 0.267534 0.250000
O O6 0.488118 0.216223 0.127517
O O7 0.522640 0.327219 0.138470
O O8 0.617508 0.244083 0.184383
O O9 0.366485 0.271468 0.093887
O O10 0.332061 0.379603 0.112287
O O11 0.231130 0.303431 0.128882
O O12 0.278175 0.324006 0.000000
O O13 0.060449 0.293183 0.500000
O O14 0.142222 0.340312 0.602874
O O15 0.219115 0.190557 0.133231
O O16 0.260019 0.172470 0.000000
O O17 0.401782 0.578760 0.500000
O O18 0.460238 0.568461 0.624537
O O19 0.500000 0.601979 0.250000
O O20 0.250000 0.250000 0.250000
#
# Coordination Sequence:
#
# PCOD8293896 Si02
#       8
#    16  16  16  16  16  16  16  16
#     4  10  20  34  51  70  95 133 175 206 240 291
#     4  11  21  32  46  71  98 130 163 197 248 298
#     4   9  18  33  49  70  96 126 160 200 244 289
#     4   9  17  30  50  70  94 126 160 201 249 294
#     4   9  18  33  49  70  96 125 163 206 245 288
#     4  10  20  34  51  69  97 135 170 204 243 290
#     4  11  22  32  45  68 102 135 170 206 243 287
#     4  11  21  32  51  70  96 129 163 204 246 295
#
# _framework density 16.462325
#
# number of rings (size 3 to 8) (size 9 to 14) (size 15 to 20)
#    0.000    2.000    2.500    3.375    1.750    3.500 
#    0.000    0.000    0.000    0.000    0.000    0.875 
#    0.000    6.000    0.000    0.000    0.000    0.000 
#
# Total GULP energy -793247.464188 kJ/mol
# GULP energy per Si atom -12394.491628 kJ/mol
# Density = 1.642486 g / cm^3
# Si number density = 16.462325 Si / 1000 Ang^3
#
#
#
# Elastic Constant Matrix: (Units=GPa)
#
#
# Indices 1 2 3 4 5 6 
#
# 1 105.9833 47.8796 31.8598 0.0000 0.0000 0.0000
# 2 47.8796 77.2781 26.2853 0.0002 0.0001 0.0000
# 3 31.8598 26.2853 45.6795 0.0006 0.0001 0.0001
# 4 0.0000 0.0002 0.0006 19.7476 0.0001 0.0000
# 5 0.0000 0.0001 0.0001 0.0001 29.5269 0.0000
# 6 0.0000 0.0000 0.0001 0.0000 0.0000 31.8555
#
#
#
# Elastic Compliance Matrix: (Units=1/GPa)
#
#
# Indices 1 2 3 4 5 6 
#
# 1 0.014344 -0.006819 -0.006081 0.000000 0.000000 0.000000
# 2 -0.006819 0.019331 -0.006368 0.000000 0.000000 0.000000
# 3 -0.006081 -0.006368 0.029797 -0.000001 0.000000 0.000000
# 4 0.000000 0.000000 -0.000001 0.050639 0.000000 0.000000
# 5 0.000000 0.000000 0.000000 0.000000 0.033867 0.000000
# 6 0.000000 0.000000 0.000000 0.000000 0.000000 0.031392
#
#
# Mechanical properties :
#
#
# Convention : Reuss Voigt Hill
#
# Bulk Modulus (GPa) = 40.10040 48.99890 44.54965
# Shear Modulus (GPa) = 22.10271 24.42041 23.26156
#
# Velocity S-wave (km/s) = 3.66816 3.85569 3.76309
# Velocity P-wave (km/s) = 6.50786 7.04632 6.78244
#
# Compressibility (1/GPa) = 0.02493740
#
# Stress axis : x y z
#
# Youngs Moduli (GPa) = 69.71623 51.73046 33.56069
#
# Poissons Ratio (x) = 0.35274 0.20407
# Poissons Ratio (y) = 0.47539 0.21370
# Poissons Ratio (z) = 0.42391 0.32940
#
# Static dielectric constant tensor:
#      x y z
#    x 3.214320 0.000000 0.000000 
#    y 0.000000 3.155900 0.000000 
#    z 0.000000 0.000000 -3.372470 
# 
# 
# High freq. dielectric constant tensor:
#      x y z
#    x 1.616530 0.000000 0.000000 
#    y 0.000000 1.610550 0.000000 
#    z 0.000000 0.000000 1.640500 
# 
# From -- ./inp_files/32041.got.cif
#   From: 2010.03.12/outbox.cif.g09.slc.cpg/sg72_17_cif.got.tgz:32041.got - 2010.04.16 14:54:00.
