data_PCOD8293634
_publ_section_title
;
Structure prediction by ZEFSAII (Michael W. Deem and Ramdas Pophale) SiO2 
 PCOD8293634
Probable space group: I B A M
;
_chemical_formula_sum "Si O2"
_cell_formula_units_Z 48
_cell_length_a 5.117504
_cell_length_b 25.055456
_cell_length_c 17.390607
_cell_angle_alpha 90.000000
_cell_angle_beta 90.000000
_cell_angle_gamma 90.000000
_cell_volume 2229.847912
_symmetry_space_group_name_H-M "I B A M"
_symmetry_group_IT_number 72
_symmetry_cell_setting 'orthorhombic'
loop_
_space_group_symop_operation_xyz
x,y,z
-x,-y,z
x,-y,1/2-z
-x,y,1/2-z
-x,-y,-z
x,y,-z
-x,y,1/2+z
x,-y,1/2+z
1/2+x,1/2+y,1/2+z
1/2-x,1/2-y,1/2+z
1/2+x,1/2-y,-z
1/2-x,1/2+y,-z
1/2-x,1/2-y,1/2-z
1/2+x,1/2+y,1/2-z
1/2-x,1/2+y,z
1/2+x,1/2-y,z
loop_
_atom_site_type_symbol
_atom_site_label
_atom_site_fract_x
_atom_site_fract_y
_atom_site_fract_z
Si Si1 0.323985 0.771883 0.664957
Si Si2 0.482501 0.438912 0.589747
Si Si3 0.485499 0.892394 0.163826
O O1 0.250000 0.750000 0.750000
O O2 0.542996 0.734095 0.622710
O O3 0.440374 0.830539 0.665277
O O4 0.500000 0.500000 0.616353
O O5 0.536634 0.432481 0.500000
O O6 0.188543 0.421735 0.608639
O O7 0.692075 0.402145 0.633980
O O8 0.500000 0.915611 0.250000
#
# Coordination Sequence:
#
# PCOD8293634 Si02
#       3
#    16  16  16
#     4  10  19  34  59  95 127 165 197 256 322 395
#     4  11  26  46  64  88 134 182 211 259 340 401
#     4  12  23  38  71 103 122 164 226 277 311 382
#
# _framework density 21.526132
#
# number of rings (size 3 to 8) (size 9 to 14) (size 15 to 20)
#    0.000    1.000    3.333    5.000    4.667    6.667 
#    0.000    0.000    0.000   20.000    0.000    0.000 
#    0.000    0.000    0.000    0.000    0.000    0.000 
#
# Total GULP energy -297403.042553 kJ/mol
# GULP energy per Si atom -12391.793440 kJ/mol
# Density = 2.147714 g / cm^3
# Si number density = 21.526132 Si / 1000 Ang^3
#
#
#
# Elastic Constant Matrix: (Units=GPa)
#
#
# Indices 1 2 3 4 5 6 
#
# 1 153.7249 28.0077 13.3599 0.0000 0.0000 0.0000
# 2 28.0077 116.6704 22.8806 0.0000 0.0000 0.0000
# 3 13.3599 22.8806 57.8116 0.0000 0.0000 0.0000
# 4 0.0000 0.0000 0.0000 -18.7347 0.0000 0.0000
# 5 0.0000 0.0000 0.0000 0.0000 36.3656 0.0000
# 6 0.0000 0.0000 0.0000 0.0000 0.0000 36.3266
#
#
#
# Elastic Compliance Matrix: (Units=1/GPa)
#
#
# Indices 1 2 3 4 5 6 
#
# 1 0.006857 -0.001448 -0.001012 0.000000 0.000000 0.000000
# 2 -0.001448 0.009598 -0.003464 0.000000 0.000000 0.000000
# 3 -0.001012 -0.003464 0.018902 0.000000 0.000000 0.000000
# 4 0.000000 0.000000 0.000000 -0.053377 0.000000 0.000000
# 5 0.000000 0.000000 0.000000 0.000000 0.027499 0.000000
# 6 0.000000 0.000000 0.000000 0.000000 0.000000 0.027528
#
#
# Mechanical properties :
#
#
# Convention : Reuss Voigt Hill
#
# Bulk Modulus (GPa) = 42.53438 50.74479 46.63959
# Shear Modulus (GPa) = 88.19823 28.38874 58.29349
#
# Velocity S-wave (km/s) = 6.40793 3.63547 5.20952
# Velocity P-wave (km/s) = 8.63430 6.42238 7.60914
#
# Compressibility (1/GPa) = 0.02351039
#
# Stress axis : x y z
#
# Youngs Moduli (GPa) = 145.84075 104.18795 52.90341
#
# Poissons Ratio (x) = 0.15083 0.05352
# Poissons Ratio (y) = 0.21112 0.18327
# Poissons Ratio (z) = 0.14753 0.36092
#
# Static dielectric constant tensor:
#      x y z
#    x -2.521200 0.000000 0.000010 
#    y 0.000000 4.054050 0.000000 
#    z 0.000010 0.000000 2.216850 
# 
# 
# High freq. dielectric constant tensor:
#      x y z
#    x 1.885660 0.000000 0.000000 
#    y 0.000000 1.851710 0.000000 
#    z 0.000000 0.000000 1.805340 
# 
# From -- ./inp_files/17349.got.cif
#   From: 2010.03.12/outbox.cif.g09.slc.cpg/sg72_9_cif.got.tgz:17349.got - 2010.04.16 14:54:00.
