data_PCOD8293524
_publ_section_title
;
Structure prediction by ZEFSAII (Michael W. Deem and Ramdas Pophale) SiO2 
 PCOD8293524
Probable space group: I B A M
;
_chemical_formula_sum "Si O2"
_cell_formula_units_Z 112
_cell_length_a 18.202513
_cell_length_b 18.870944
_cell_length_c 18.661042
_cell_angle_alpha 90.000000
_cell_angle_beta 90.000000
_cell_angle_gamma 90.000000
_cell_volume 6410.041867
_symmetry_space_group_name_H-M "I B A M"
_symmetry_group_IT_number 72
_symmetry_cell_setting 'orthorhombic'
loop_
_space_group_symop_operation_xyz
x,y,z
-x,-y,z
x,-y,1/2-z
-x,y,1/2-z
-x,-y,-z
x,y,-z
-x,y,1/2+z
x,-y,1/2+z
1/2+x,1/2+y,1/2+z
1/2-x,1/2-y,1/2+z
1/2+x,1/2-y,-z
1/2-x,1/2+y,-z
1/2-x,1/2-y,1/2-z
1/2+x,1/2+y,1/2-z
1/2-x,1/2+y,z
1/2+x,1/2-y,z
loop_
_atom_site_type_symbol
_atom_site_label
_atom_site_fract_x
_atom_site_fract_y
_atom_site_fract_z
Si Si1 0.616777 0.929059 0.714483
Si Si2 0.211801 0.529999 0.582343
Si Si3 0.455761 0.213931 0.684599
Si Si4 0.913467 0.273919 0.915755
Si Si5 0.704716 0.336897 0.418208
Si Si6 0.699448 0.117190 0.351432
Si Si7 0.206163 0.758894 0.323076
O O1 0.648637 0.944019 0.635876
O O2 0.556009 0.869206 0.701988
O O3 0.680772 0.903298 0.769242
O O4 0.581294 0.000000 0.750000
O O5 0.184363 0.537194 0.500000
O O6 0.286869 0.577654 0.592261
O O7 0.225996 0.448384 0.600502
O O8 0.500000 0.248040 0.750000
O O9 0.503351 0.225739 0.613090
O O10 0.380886 0.257790 0.683444
O O11 0.872145 0.199778 0.893369
O O12 0.870609 0.341410 0.883584
O O13 0.918574 0.282768 0.000000
O O14 0.716672 0.315211 0.500000
O O15 0.773119 0.304905 0.375455
O O16 0.771286 0.165872 0.355579
O O17 0.250000 0.750000 0.250000
#
# Coordination Sequence:
#
# PCOD8293524 Si02
#       7
#    16  16  16  16  16  16  16
#     4  10  20  34  52  76 109 144 177 220 263 321
#     4  10  19  33  56  83 107 139 184 228 273 322
#     4  12  21  34  52  79 110 147 181 217 279 333
#     4  10  21  35  52  77 112 146 181 229 280 331
#     4   9  18  34  54  76 104 141 182 228 270 316
#     4  10  19  36  56  78 107 139 183 230 275 323
#     4  11  19  34  56  80 103 137 188 232 269 320
#
# _framework density 17.472584000000001
#
# number of rings (size 3 to 8) (size 9 to 14) (size 15 to 20)
#    0.000    1.714    4.286    1.286    0.000    2.000 
#    0.000    0.000    0.000    3.429    0.000    4.000 
#    0.000    0.000    0.000    0.000    0.000    0.000 
#
# Total GULP energy -693966.868666 kJ/mol
# GULP energy per Si atom -12392.265512 kJ/mol
# Density = 1.743282 g / cm^3
# Si number density = 17.472584 Si / 1000 Ang^3
#
#
#
# Elastic Constant Matrix: (Units=GPa)
#
#
# Indices 1 2 3 4 5 6 
#
# 1 118.9971 52.9000 45.8016 0.0000 0.0000 0.0000
# 2 52.9000 89.9804 38.3050 0.0000 0.0000 0.0000
# 3 45.8016 38.3050 102.3652 0.0000 0.0000 0.0000
# 4 0.0000 0.0000 0.0000 23.5746 0.0000 0.0000
# 5 0.0000 0.0000 0.0000 0.0000 24.5898 0.0000
# 6 0.0000 0.0000 0.0000 0.0000 0.0000 24.6964
#
#
#
# Elastic Compliance Matrix: (Units=1/GPa)
#
#
# Indices 1 2 3 4 5 6 
#
# 1 0.012255 -0.005793 -0.003315 0.000000 0.000000 0.000000
# 2 -0.005793 0.015958 -0.003379 0.000000 0.000000 0.000000
# 3 -0.003315 -0.003379 0.012517 0.000000 0.000000 0.000000
# 4 0.000000 0.000000 0.000000 0.042419 0.000000 0.000000
# 5 0.000000 0.000000 0.000000 0.000000 0.040667 0.000000
# 6 0.000000 0.000000 0.000000 0.000000 0.000000 0.040492
#
#
# Mechanical properties :
#
#
# Convention : Reuss Voigt Hill
#
# Bulk Modulus (GPa) = 63.47708 65.03952 64.25830
# Shear Modulus (GPa) = 25.70225 26.19457 25.94841
#
# Velocity S-wave (km/s) = 3.83953 3.87613 3.85787
# Velocity P-wave (km/s) = 7.48761 7.57212 7.52999
#
# Compressibility (1/GPa) = 0.01575372
#
# Stress axis : x y z
#
# Youngs Moduli (GPa) = 81.59830 62.66394 79.89178
#
# Poissons Ratio (x) = 0.36304 0.26488
# Poissons Ratio (y) = 0.47274 0.26998
# Poissons Ratio (z) = 0.27054 0.21176
#
# Static dielectric constant tensor:
#      x y z
#    x 3.109360 0.000000 0.000000 
#    y 0.000000 3.644490 0.000000 
#    z 0.000000 0.000000 3.222890 
# 
# 
# High freq. dielectric constant tensor:
#      x y z
#    x 1.644970 0.000000 0.000000 
#    y 0.000000 1.675240 0.000000 
#    z 0.000000 0.000000 1.692450 
# 
# From -- ./inp_files/31932.got.cif
#   From: 2010.03.12/outbox.cif.g09.slc.cpg/sg72_16_cif.got.tgz:31932.got - 2010.04.16 14:54:00.
