data_PCOD8293940
_publ_section_title
;
Structure prediction by ZEFSAII (Michael W. Deem and Ramdas Pophale) SiO2 
 PCOD8293940
Probable space group: I B A M
;
_chemical_formula_sum "Si O2"
_cell_formula_units_Z 116
_cell_length_a 20.204797
_cell_length_b 29.852519
_cell_length_c 10.197884
_cell_angle_alpha 90.000000
_cell_angle_beta 90.000000
_cell_angle_gamma 90.000000
_cell_volume 6150.997385
_symmetry_space_group_name_H-M "I B A M"
_symmetry_group_IT_number 72
_symmetry_cell_setting 'orthorhombic'
loop_
_space_group_symop_operation_xyz
x,y,z
-x,-y,z
x,-y,1/2-z
-x,y,1/2-z
-x,-y,-z
x,y,-z
-x,y,1/2+z
x,-y,1/2+z
1/2+x,1/2+y,1/2+z
1/2-x,1/2-y,1/2+z
1/2+x,1/2-y,-z
1/2-x,1/2+y,-z
1/2-x,1/2-y,1/2-z
1/2+x,1/2+y,1/2-z
1/2-x,1/2+y,z
1/2+x,1/2-y,z
loop_
_atom_site_type_symbol
_atom_site_label
_atom_site_fract_x
_atom_site_fract_y
_atom_site_fract_z
Si Si1 0.558328 0.180625 0.150661
Si Si2 0.000000 0.000000 0.750000
Si Si3 0.191305 0.630731 0.646785
Si Si4 0.757079 0.692751 0.358186
Si Si5 0.556402 0.337040 0.650495
Si Si6 0.640083 0.258364 0.258440
Si Si7 0.753316 0.962444 0.651670
Si Si8 0.395149 0.567997 0.649749
O O1 0.500000 0.167714 0.250000
O O2 0.615429 0.143669 0.174574
O O3 0.584078 0.230708 0.180593
O O4 0.532967 0.179208 0.000000
O O5 0.046791 0.968647 0.837775
O O6 0.211367 0.646020 0.500000
O O7 0.241072 0.655765 0.744563
O O8 0.201086 0.577861 0.662913
O O9 0.757284 0.668813 0.500000
O O10 0.690550 0.721775 0.348147
O O11 0.820743 0.725012 0.353954
O O12 0.500000 0.321258 0.750000
O O13 0.531016 0.342579 0.500000
O O14 0.610994 0.298255 0.653685
O O15 0.583754 0.384112 0.709686
O O16 0.757785 0.979316 0.500000
O O17 0.825670 0.948650 0.709694
O O18 0.725506 0.000000 0.750000
O O19 0.379760 0.577532 0.500000
#
# Coordination Sequence:
#
# PCOD8293940 Si02
#       8
#    16   4  16  16  16  16  16  16
#     4  10  21  37  57  81 109 147 186 225 276 333
#     4  12  18  36  56  74 104 140 188 224 262 316
#     4   9  20  38  58  80 114 150 181 225 284 339
#     4  10  20  34  55  81 105 141 190 231 266 318
#     4  11  23  38  53  74 104 142 182 223 273 323
#     4  10  21  34  53  77 111 145 178 226 280 329
#     4  10  20  37  59  84 110 141 179 222 275 329
#     4  10  21  35  54  77 106 143 181 222 271 321
#
# _framework density 18.858730000000001
#
# number of rings (size 3 to 8) (size 9 to 14) (size 15 to 20)
#    0.000    1.931    1.379    2.276    0.000   10.483 
#    0.000    0.690    0.000    0.414    0.000    2.897 
#    0.000    0.000    0.000    0.000    0.000    0.000 
#
# Total GULP energy -719103.865145 kJ/mol
# GULP energy per Si atom -12398.342503 kJ/mol
# Density = 1.881581 g / cm^3
# Si number density = 18.858730 Si / 1000 Ang^3
#
#
#
# Elastic Constant Matrix: (Units=GPa)
#
#
# Indices 1 2 3 4 5 6 
#
# 1 75.3860 39.6427 42.3821 0.0000 0.0000 0.0000
# 2 39.6427 106.0689 42.7525 0.0000 0.0000 0.0000
# 3 42.3821 42.7525 118.9596 0.0001 0.0001 0.0000
# 4 0.0000 0.0000 0.0001 24.9597 0.0000 0.0000
# 5 0.0000 0.0000 0.0001 0.0000 12.4351 0.0000
# 6 0.0000 0.0000 0.0000 0.0000 0.0000 27.4631
#
#
#
# Elastic Compliance Matrix: (Units=1/GPa)
#
#
# Indices 1 2 3 4 5 6 
#
# 1 0.018616 -0.005010 -0.004832 0.000000 0.000000 0.000000
# 2 -0.005010 0.012373 -0.002662 0.000000 0.000000 0.000000
# 3 -0.004832 -0.002662 0.011084 0.000000 0.000000 0.000000
# 4 0.000000 0.000000 0.000000 0.040065 0.000000 0.000000
# 5 0.000000 0.000000 0.000000 0.000000 0.080417 0.000000
# 6 0.000000 0.000000 0.000000 0.000000 0.000000 0.036412
#
#
# Mechanical properties :
#
#
# Convention : Reuss Voigt Hill
#
# Bulk Modulus (GPa) = 58.59574 61.10769 59.85172
# Shear Modulus (GPa) = 21.77090 24.68075 23.22582
#
# Velocity S-wave (km/s) = 3.40136 3.62154 3.51318
# Velocity P-wave (km/s) = 6.82378 7.06829 6.94711
#
# Compressibility (1/GPa) = 0.01706609
#
# Stress axis : x y z
#
# Youngs Moduli (GPa) = 53.71670 80.81967 90.21776
#
# Poissons Ratio (x) = 0.40492 0.43592
# Poissons Ratio (y) = 0.26913 0.24014
# Poissons Ratio (z) = 0.25955 0.21513
#
# Static dielectric constant tensor:
#      x y z
#    x 3.391230 0.000000 0.000000 
#    y 0.000000 3.415790 0.000000 
#    z 0.000000 0.000000 3.323970 
# 
# 
# High freq. dielectric constant tensor:
#      x y z
#    x 1.722690 0.000000 0.000000 
#    y 0.000000 1.723940 0.000000 
#    z 0.000000 0.000000 1.727800 
# 
# From -- ./inp_files/14196.got.cif
#   From: 2010.03.12/outbox.cif.g09.slc.cpg/sg72_8_cif.got.tgz:14196.got - 2010.04.16 14:54:00.
