data_PCOD8293159
_publ_section_title
;
Structure prediction by ZEFSAII (Michael W. Deem and Ramdas Pophale) SiO2 
 PCOD8293159
Probable space group: I B A M
;
_chemical_formula_sum "Si O2"
_cell_formula_units_Z 128
_cell_length_a 24.018125
_cell_length_b 13.089658
_cell_length_c 21.135990
_cell_angle_alpha 90.000000
_cell_angle_beta 90.000000
_cell_angle_gamma 90.000000
_cell_volume 6644.923649
_symmetry_space_group_name_H-M "I B A M"
_symmetry_group_IT_number 72
_symmetry_cell_setting 'orthorhombic'
loop_
_space_group_symop_operation_xyz
x,y,z
-x,-y,z
x,-y,1/2-z
-x,y,1/2-z
-x,-y,-z
x,y,-z
-x,y,1/2+z
x,-y,1/2+z
1/2+x,1/2+y,1/2+z
1/2-x,1/2-y,1/2+z
1/2+x,1/2-y,-z
1/2-x,1/2+y,-z
1/2-x,1/2-y,1/2-z
1/2+x,1/2+y,1/2-z
1/2-x,1/2+y,z
1/2+x,1/2-y,z
loop_
_atom_site_type_symbol
_atom_site_label
_atom_site_fract_x
_atom_site_fract_y
_atom_site_fract_z
Si Si1 0.062919 0.468845 0.678599
Si Si2 0.150145 0.066988 0.927783
Si Si3 0.330439 0.342245 0.926038
Si Si4 0.444540 0.305792 0.386364
Si Si5 0.613520 0.105074 0.072840
Si Si6 0.716079 0.241049 0.926211
Si Si7 0.434032 0.613448 0.753556
Si Si8 0.068849 0.238427 0.362302
O O1 0.082477 0.500000 0.750000
O O2 0.101754 0.517387 0.624282
O O3 0.062707 0.348849 0.667969
O O4 0.000000 0.500000 0.667237
O O5 0.084921 0.101861 0.924844
O O6 0.189252 0.155493 0.895766
O O7 0.159700 0.955729 0.896057
O O8 0.167278 0.056516 0.000000
O O9 0.275754 0.288104 0.895554
O O10 0.383857 0.269165 0.915692
O O11 0.320432 0.352936 0.000000
O O12 0.428985 0.197439 0.415961
O O13 0.419543 0.321523 0.315972
O O14 0.511482 0.309742 0.389180
O O15 0.675981 0.144001 0.084548
O O16 0.605997 0.065530 0.000000
O O17 0.722636 0.262937 0.000000
O O18 0.408266 0.500000 0.750000
O O19 0.500000 0.607803 0.750000
O O20 0.407557 0.670724 0.694613
#
# Coordination Sequence:
#
# PCOD8293159 Si02
#       8
#    16  16  16  16  16  16  16  16
#     4  11  23  39  59  83 118 161 194 237 302 371
#     4   9  18  33  54  77 106 145 182 221 283 352
#     4  10  21  35  53  82 116 148 185 239 294 345
#     4  10  18  33  53  78 110 145 182 236 290 349
#     4  10  20  36  59  85 110 151 203 247 290 353
#     4   8  17  35  57  79 108 150 198 238 285 349
#     4   9  18  31  51  75 103 142 186 226 274 342
#     4  11  22  34  53  82 112 143 187 237 284 350
#
# _framework density 19.262823999999998
#
# number of rings (size 3 to 8) (size 9 to 14) (size 15 to 20)
#    0.000    2.250    1.250    2.625    3.500    4.250 
#    0.000    3.750    0.000    9.000    0.000    0.000 
#    0.000    0.000    0.000    0.000    0.000    0.000 
#
# Total GULP energy -793016.945818 kJ/mol
# GULP energy per Si atom -12390.889778 kJ/mol
# Density = 1.921898 g / cm^3
# Si number density = 19.262824 Si / 1000 Ang^3
#
#
#
# Elastic Constant Matrix: (Units=GPa)
#
#
# Indices 1 2 3 4 5 6 
#
# 1 117.6341 47.8115 29.1758 0.0000 0.0000 0.0000
# 2 47.8115 117.6155 28.3128 0.0000 0.0000 0.0000
# 3 29.1758 28.3128 59.3043 0.0000 0.0000 0.0000
# 4 0.0000 0.0000 0.0000 31.0156 0.0000 0.0000
# 5 0.0000 0.0000 0.0000 0.0000 -13.9817 0.0000
# 6 0.0000 0.0000 0.0000 0.0000 0.0000 19.9324
#
#
#
# Elastic Compliance Matrix: (Units=1/GPa)
#
#
# Indices 1 2 3 4 5 6 
#
# 1 0.010840 -0.003528 -0.003648 0.000000 0.000000 0.000000
# 2 -0.003528 0.010755 -0.003399 0.000000 0.000000 0.000000
# 3 -0.003648 -0.003399 0.020280 0.000000 0.000000 0.000000
# 4 0.000000 0.000000 0.000000 0.032242 0.000000 0.000000
# 5 0.000000 0.000000 0.000000 0.000000 -0.071522 0.000000
# 6 0.000000 0.000000 0.000000 0.000000 0.000000 0.050170
#
#
# Mechanical properties :
#
#
# Convention : Reuss Voigt Hill
#
# Bulk Modulus (GPa) = 48.25430 56.12824 52.19127
# Shear Modulus (GPa) = 61.86423 20.01017 40.93720
#
# Velocity S-wave (km/s) = 5.67323 3.22653 4.61498
# Velocity P-wave (km/s) = 8.24736 6.56369 7.45322
#
# Compressibility (1/GPa) = 0.02072354
#
# Stress axis : x y z
#
# Youngs Moduli (GPa) = 92.25232 92.98285 49.31044
#
# Poissons Ratio (x) = 0.32806 0.17991
# Poissons Ratio (y) = 0.32549 0.16759
# Poissons Ratio (z) = 0.33658 0.31602
#
# Static dielectric constant tensor:
#      x y z
#    x 3.479220 0.000000 0.000000 
#    y 0.000000 3.337150 0.000000 
#    z 0.000000 0.000000 3.501220 
# 
# 
# High freq. dielectric constant tensor:
#      x y z
#    x 1.730730 0.000000 0.000000 
#    y 0.000000 1.756350 0.000000 
#    z 0.000000 0.000000 1.727620 
# 
# From -- ./inp_files/45795.got.cif
#   From: 2010.03.12/outbox.cif.g09.slc.cpg/sg72_23_cif.got.tgz:45795.got - 2010.04.16 14:54:00.
