data_PCOD8293836
_publ_section_title
;
Structure prediction by ZEFSAII (Michael W. Deem and Ramdas Pophale) SiO2 
 PCOD8293836
Probable space group: I B A M
;
_chemical_formula_sum "Si O2"
_cell_formula_units_Z 112
_cell_length_a 29.167719
_cell_length_b 13.571636
_cell_length_c 13.332338
_cell_angle_alpha 90.000000
_cell_angle_beta 90.000000
_cell_angle_gamma 90.000000
_cell_volume 5277.654863
_symmetry_space_group_name_H-M "I B A M"
_symmetry_group_IT_number 72
_symmetry_cell_setting 'orthorhombic'
loop_
_space_group_symop_operation_xyz
x,y,z
-x,-y,z
x,-y,1/2-z
-x,y,1/2-z
-x,-y,-z
x,y,-z
-x,y,1/2+z
x,-y,1/2+z
1/2+x,1/2+y,1/2+z
1/2-x,1/2-y,1/2+z
1/2+x,1/2-y,-z
1/2-x,1/2+y,-z
1/2-x,1/2-y,1/2-z
1/2+x,1/2+y,1/2-z
1/2-x,1/2+y,z
1/2+x,1/2-y,z
loop_
_atom_site_type_symbol
_atom_site_label
_atom_site_fract_x
_atom_site_fract_y
_atom_site_fract_z
Si Si1 0.704242 0.658474 0.114981
Si Si2 0.170064 0.642076 0.809342
Si Si3 0.960866 0.932002 0.882371
Si Si4 0.200765 0.560871 0.614203
Si Si5 0.071115 0.293541 0.308813
Si Si6 0.473695 0.211421 0.613783
Si Si7 0.893995 0.093788 0.116400
O O1 0.699768 0.758882 0.178235
O O2 0.747869 0.593134 0.144954
O O3 0.660247 0.589901 0.135005
O O4 0.706995 0.691885 0.000000
O O5 0.167286 0.617836 0.690461
O O6 0.195378 0.556255 0.871283
O O7 0.117533 0.653336 0.847929
O O8 0.966495 0.821846 0.843966
O O9 0.912538 0.984709 0.855046
O O10 0.968044 0.924125 0.000000
O O11 0.000000 0.000000 0.834059
O O12 0.188914 0.590191 0.500000
O O13 0.058875 0.338829 0.197682
O O14 0.081208 0.176057 0.315033
O O15 0.027234 0.319125 0.378863
O O16 0.456452 0.191704 0.500000
O O17 0.905677 0.118836 0.000000
#
# Coordination Sequence:
#
# PCOD8293836 Si02
#       7
#    16  16  16  16  16  16  16
#     4   9  18  34  58  87 119 153 189 228 278 338
#     4  10  21  38  60  86 118 149 188 238 283 343
#     4   9  15  26  45  70 107 150 184 222 266 314
#     4  10  21  38  61  88 114 148 190 237 292 344
#     4  10  20  33  52  78 105 147 188 221 280 339
#     4  10  20  33  49  75 111 147 189 235 280 337
#     4   9  16  29  49  76 111 149 188 224 260 322
#
# _framework density 21.221546
#
# number of rings (size 3 to 8) (size 9 to 14) (size 15 to 20)
#    0.000    2.429    1.429    1.286    0.000    2.857 
#    0.000    7.143    0.000   10.286    0.000    8.000 
#    0.000    0.000    0.000    0.000    0.000    0.000 
#
# Total GULP energy -693890.385956 kJ/mol
# GULP energy per Si atom -12390.899749 kJ/mol
# Density = 2.117324 g / cm^3
# Si number density = 21.221546 Si / 1000 Ang^3
#
#
#
# Elastic Constant Matrix: (Units=GPa)
#
#
# Indices 1 2 3 4 5 6 
#
# 1 104.8167 46.6658 15.3237 0.0000 0.0000 0.0000
# 2 46.6658 78.8924 10.5783 0.0000 0.0000 0.0000
# 3 15.3237 10.5783 86.6769 0.0000 0.0000 0.0000
# 4 0.0000 0.0000 0.0000 16.6888 0.0000 0.0000
# 5 0.0000 0.0000 0.0000 0.0000 23.8127 0.0000
# 6 0.0000 0.0000 0.0000 0.0000 0.0000 23.1151
#
#
#
# Elastic Compliance Matrix: (Units=1/GPa)
#
#
# Indices 1 2 3 4 5 6 
#
# 1 0.013115 -0.007571 -0.001395 0.000000 0.000000 0.000000
# 2 -0.007571 0.017257 -0.000768 0.000000 0.000000 0.000000
# 3 -0.001395 -0.000768 0.011877 0.000000 0.000000 0.000000
# 4 0.000000 0.000000 0.000000 0.059920 0.000000 0.000000
# 5 0.000000 0.000000 0.000000 0.000000 0.041994 0.000000
# 6 0.000000 0.000000 0.000000 0.000000 0.000000 0.043262
#
#
# Mechanical properties :
#
#
# Convention : Reuss Voigt Hill
#
# Bulk Modulus (GPa) = 43.89239 46.16905 45.03072
# Shear Modulus (GPa) = 23.31161 25.91120 24.61141
#
# Velocity S-wave (km/s) = 3.31794 3.49805 3.40919
# Velocity P-wave (km/s) = 5.95031 6.17399 6.06318
#
# Compressibility (1/GPa) = 0.02278300
#
# Stress axis : x y z
#
# Youngs Moduli (GPa) = 76.24912 57.94907 84.19388
#
# Poissons Ratio (x) = 0.43871 0.11742
# Poissons Ratio (y) = 0.57725 0.06463
# Poissons Ratio (z) = 0.10634 0.04448
#
# Static dielectric constant tensor:
#      x y z
#    x 3.859010 0.000000 0.000000 
#    y 0.000000 3.562600 0.000000 
#    z 0.000000 0.000000 3.817960 
# 
# 
# High freq. dielectric constant tensor:
#      x y z
#    x 1.828180 0.000000 0.000000 
#    y 0.000000 1.794690 0.000000 
#    z 0.000000 0.000000 1.841100 
# 
# From -- ./inp_files/26518.got.cif
#   From: 2010.03.12/outbox.cif.g09.slc.cpg/sg72_14_cif.got.tgz:26518.got - 2010.04.16 14:54:00.
