data_PCOD8293432
_publ_section_title
;
Structure prediction by ZEFSAII (Michael W. Deem and Ramdas Pophale) SiO2 
 PCOD8293432
Probable space group: I B A M
;
_chemical_formula_sum "Si O2"
_cell_formula_units_Z 80
_cell_length_a 13.491854
_cell_length_b 12.823119
_cell_length_c 20.954138
_cell_angle_alpha 90.000000
_cell_angle_beta 90.000000
_cell_angle_gamma 90.000000
_cell_volume 3625.226160
_symmetry_space_group_name_H-M "I B A M"
_symmetry_group_IT_number 72
_symmetry_cell_setting 'orthorhombic'
loop_
_space_group_symop_operation_xyz
x,y,z
-x,-y,z
x,-y,1/2-z
-x,y,1/2-z
-x,-y,-z
x,y,-z
-x,y,1/2+z
x,-y,1/2+z
1/2+x,1/2+y,1/2+z
1/2-x,1/2-y,1/2+z
1/2+x,1/2-y,-z
1/2-x,1/2+y,-z
1/2-x,1/2-y,1/2-z
1/2+x,1/2+y,1/2-z
1/2-x,1/2+y,z
1/2+x,1/2-y,z
loop_
_atom_site_type_symbol
_atom_site_label
_atom_site_fract_x
_atom_site_fract_y
_atom_site_fract_z
Si Si1 0.184796 0.659972 0.930016
Si Si2 0.395021 0.628251 0.609126
Si Si3 0.103919 0.901027 0.570324
Si Si4 0.192802 0.399318 0.292003
Si Si5 0.615833 0.684464 0.245361
O O1 0.137152 0.773984 0.933440
O O2 0.303236 0.675899 0.924337
O O3 0.152012 0.594878 0.865934
O O4 0.160135 0.606483 0.000000
O O5 0.357679 0.519698 0.580203
O O6 0.515410 0.630578 0.617996
O O7 0.345151 0.639687 0.678043
O O8 0.055803 0.894173 0.500000
O O9 0.167607 0.500000 0.250000
O O10 0.312646 0.375267 0.296161
O O11 0.136238 0.307934 0.253636
O O12 0.500000 0.658093 0.250000
#
# Coordination Sequence:
#
# PCOD8293432 Si02
#       5
#    16  16  16  16  16
#     4  10  20  34  55  82 111 144 183 230 280 327
#     4  10  19  34  54  79 111 145 186 232 272 325
#     4  10  19  32  54  82 112 148 186 224 274 329
#     4  10  21  37  55  80 113 144 180 226 273 327
#     4  10  21  35  55  81 108 141 182 224 271 327
#
# _framework density 22.067589000000002
#
# number of rings (size 3 to 8) (size 9 to 14) (size 15 to 20)
#    0.000    2.000    0.000    4.800    0.000    2.400 
#    0.000    0.000    0.000    3.600    0.000   16.800 
#    0.000    0.000    0.000    0.000    0.000    0.000 
#
# Total GULP energy -495572.558531 kJ/mol
# GULP energy per Si atom -12389.313963 kJ/mol
# Density = 2.201736 g / cm^3
# Si number density = 22.067589 Si / 1000 Ang^3
#
#
#
# Elastic Constant Matrix: (Units=GPa)
#
#
# Indices 1 2 3 4 5 6 
#
# 1 54.1788 30.0681 -7.5021 0.0000 0.0000 0.0000
# 2 30.0681 101.3023 47.4779 0.0000 0.0000 0.0000
# 3 -7.5021 47.4779 134.9378 0.0000 0.0000 0.0000
# 4 0.0000 0.0000 0.0000 27.9634 0.0000 0.0000
# 5 0.0000 0.0000 0.0000 0.0000 -28.3943 0.0000
# 6 0.0000 0.0000 0.0000 0.0000 0.0000 30.2486
#
#
#
# Elastic Compliance Matrix: (Units=1/GPa)
#
#
# Indices 1 2 3 4 5 6 
#
# 1 0.024321 -0.009403 0.004661 0.000000 0.000000 0.000000
# 2 -0.009403 0.015456 -0.005961 0.000000 0.000000 0.000000
# 3 0.004661 -0.005961 0.009767 0.000000 0.000000 0.000000
# 4 0.000000 0.000000 0.000000 0.035761 0.000000 0.000000
# 5 0.000000 0.000000 0.000000 0.000000 -0.035218 0.000000
# 6 0.000000 0.000000 0.000000 0.000000 0.000000 0.033059
#
#
# Mechanical properties :
#
#
# Convention : Reuss Voigt Hill
#
# Bulk Modulus (GPa) = 35.53945 47.83408 41.68676
# Shear Modulus (GPa) = 43.88506 20.65520 32.27013
#
# Velocity S-wave (km/s) = 4.46428 3.06273 3.82819
# Velocity P-wave (km/s) = 6.53551 5.85066 6.20255
#
# Compressibility (1/GPa) = 0.02813775
#
# Stress axis : x y z
#
# Youngs Moduli (GPa) = 41.11591 64.69834 102.38167
#
# Poissons Ratio (x) = 0.60838 -0.47718
# Poissons Ratio (y) = 0.38663 0.61031
# Poissons Ratio (z) = -0.19163 0.38567
#
# Static dielectric constant tensor:
#      x y z
#    x 3.744970 0.000000 0.000000 
#    y 0.000000 3.689930 0.000000 
#    z 0.000000 0.000000 4.297770 
# 
# 
# High freq. dielectric constant tensor:
#      x y z
#    x 1.844860 0.000000 0.000000 
#    y 0.000000 1.840020 0.000000 
#    z 0.000000 0.000000 1.895630 
# 
# From -- ./inp_files/37840.got.cif
#   From: 2010.03.12/outbox.cif.g09.slc.cpg/sg72_19_cif.got.tgz:37840.got - 2010.04.16 14:54:00.
