data_PCOD8293933
_publ_section_title
;
Structure prediction by ZEFSAII (Michael W. Deem and Ramdas Pophale) SiO2 
 PCOD8293933
Probable space group: I B A M
;
_chemical_formula_sum "Si O2"
_cell_formula_units_Z 96
_cell_length_a 9.289353
_cell_length_b 30.571282
_cell_length_c 16.497855
_cell_angle_alpha 90.000000
_cell_angle_beta 90.000000
_cell_angle_gamma 90.000000
_cell_volume 4685.183445
_symmetry_space_group_name_H-M "I B A M"
_symmetry_group_IT_number 72
_symmetry_cell_setting 'orthorhombic'
loop_
_space_group_symop_operation_xyz
x,y,z
-x,-y,z
x,-y,1/2-z
-x,y,1/2-z
-x,-y,-z
x,y,-z
-x,y,1/2+z
x,-y,1/2+z
1/2+x,1/2+y,1/2+z
1/2-x,1/2-y,1/2+z
1/2+x,1/2-y,-z
1/2-x,1/2+y,-z
1/2-x,1/2-y,1/2-z
1/2+x,1/2+y,1/2-z
1/2-x,1/2+y,z
1/2+x,1/2-y,z
loop_
_atom_site_type_symbol
_atom_site_label
_atom_site_fract_x
_atom_site_fract_y
_atom_site_fract_z
Si Si1 0.580739 0.457048 0.403628
Si Si2 0.651042 0.285014 0.090843
Si Si3 0.899789 0.537801 0.092947
Si Si4 0.445167 0.116419 0.160401
Si Si5 0.365876 0.617108 0.094481
Si Si6 0.049546 0.283760 0.339520
O O1 0.500000 0.500000 0.372013
O O2 0.588678 0.455631 0.500000
O O3 0.741654 0.458820 0.366054
O O4 0.493625 0.414193 0.373516
O O5 0.581944 0.332881 0.106636
O O6 0.780117 0.275886 0.153287
O O7 0.530032 0.248318 0.098798
O O8 0.714584 0.283479 0.000000
O O9 0.000000 0.500000 0.134294
O O10 0.974214 0.584880 0.098233
O O11 0.877765 0.524592 0.000000
O O12 0.500000 0.104283 0.250000
O O13 0.274721 0.108793 0.149701
O O14 0.488099 0.166147 0.138455
O O15 0.328457 0.607380 0.000000
O O16 0.000000 0.271299 0.250000
#
# Coordination Sequence:
#
# PCOD8293933 Si02
#       6
#    16  16  16  16  16  16
#     4   9  17  31  53  79 105 135 172 215 265 320
#     4  10  20  34  54  80 108 141 183 231 278 325
#     4  10  20  34  55  81 106 138 181 226 272 322
#     4  10  21  36  54  77 106 142 180 220 269 323
#     4   9  18  34  54  77 108 142 176 219 271 324
#     4  10  21  37  55  77 108 145 182 222 277 340
#
# _framework density 20.490127000000001
#
# number of rings (size 3 to 8) (size 9 to 14) (size 15 to 20)
#    0.000    2.333    0.000    2.500    0.000    6.333 
#    0.000    2.500    0.000    1.000    0.000    0.000 
#    0.000    0.000    0.000    0.000    0.000    0.000 
#
# Total GULP energy -595151.432157 kJ/mol
# GULP energy per Si atom -12398.988170 kJ/mol
# Density = 2.044349 g / cm^3
# Si number density = 20.490127 Si / 1000 Ang^3
#
#
#
# Elastic Constant Matrix: (Units=GPa)
#
#
# Indices 1 2 3 4 5 6 
#
# 1 149.6984 90.7211 27.9755 0.0001 0.0002 0.0000
# 2 90.7211 142.3677 26.7330 -0.0001 0.0000 0.0000
# 3 27.9755 26.7330 36.9833 -0.0008 0.0009 -0.0003
# 4 0.0001 -0.0001 -0.0008 17.6908 0.0006 0.0000
# 5 0.0002 0.0000 0.0009 0.0006 22.0416 -0.0002
# 6 0.0000 0.0000 -0.0003 0.0000 -0.0002 44.4285
#
#
#
# Elastic Compliance Matrix: (Units=1/GPa)
#
#
# Indices 1 2 3 4 5 6 
#
# 1 0.011345 -0.006500 -0.003883 0.000000 0.000000 0.000000
# 2 -0.006500 0.011852 -0.003650 0.000000 0.000000 0.000000
# 3 -0.003883 -0.003650 0.032615 0.000001 -0.000001 0.000000
# 4 0.000000 0.000000 0.000001 0.056527 -0.000002 0.000000
# 5 0.000000 0.000000 -0.000001 -0.000002 0.045369 0.000000
# 6 0.000000 0.000000 0.000000 0.000000 0.000000 0.022508
#
#
# Mechanical properties :
#
#
# Convention : Reuss Voigt Hill
#
# Bulk Modulus (GPa) = 36.04242 68.87874 52.46058
# Shear Modulus (GPa) = 22.98535 29.07350 26.02942
#
# Velocity S-wave (km/s) = 3.35293 3.77092 3.56805
# Velocity P-wave (km/s) = 5.71120 7.25592 6.52940
#
# Compressibility (1/GPa) = 0.02774508
#
# Stress axis : x y z
#
# Youngs Moduli (GPa) = 88.14342 84.37688 30.66091
#
# Poissons Ratio (x) = 0.54848 0.11906
# Poissons Ratio (y) = 0.57296 0.11190
# Poissons Ratio (z) = 0.34228 0.30795
#
# Static dielectric constant tensor:
#      x y z
#    x 3.777020 0.000000 0.000000 
#    y 0.000000 3.823030 0.000000 
#    z 0.000000 0.000000 3.337920 
# 
# 
# High freq. dielectric constant tensor:
#      x y z
#    x 1.800350 0.000000 0.000000 
#    y 0.000000 1.813710 0.000000 
#    z 0.000000 0.000000 1.767750 
# 
# From -- ./inp_files/36022.got.cif
#   From: 2010.03.12/outbox.cif.g09.slc.cpg/sg72_19_cif.got.tgz:36022.got - 2010.04.16 14:54:00.
