data_PCOD8293410
_publ_section_title
;
Structure prediction by ZEFSAII (Michael W. Deem and Ramdas Pophale) SiO2 
 PCOD8293410
Probable space group: I B A M
;
_chemical_formula_sum "Si O2"
_cell_formula_units_Z 64
_cell_length_a 7.567384
_cell_length_b 18.005959
_cell_length_c 19.668878
_cell_angle_alpha 90.000000
_cell_angle_beta 90.000000
_cell_angle_gamma 90.000000
_cell_volume 2680.042097
_symmetry_space_group_name_H-M "I B A M"
_symmetry_group_IT_number 72
_symmetry_cell_setting 'orthorhombic'
loop_
_space_group_symop_operation_xyz
x,y,z
-x,-y,z
x,-y,1/2-z
-x,y,1/2-z
-x,-y,-z
x,y,-z
-x,y,1/2+z
x,-y,1/2+z
1/2+x,1/2+y,1/2+z
1/2-x,1/2-y,1/2+z
1/2+x,1/2-y,-z
1/2-x,1/2+y,-z
1/2-x,1/2-y,1/2-z
1/2+x,1/2+y,1/2-z
1/2-x,1/2+y,z
1/2+x,1/2-y,z
loop_
_atom_site_type_symbol
_atom_site_label
_atom_site_fract_x
_atom_site_fract_y
_atom_site_fract_z
Si Si1 0.279441 0.024781 0.423376
Si Si2 0.420005 0.384724 0.576656
Si Si3 0.584996 0.720030 0.176268
Si Si4 0.451277 0.869269 0.175995
O O1 0.353379 0.021997 0.500000
O O2 0.431683 0.062499 0.376851
O O3 0.103143 0.071649 0.421668
O O4 0.234139 0.940978 0.397239
O O5 0.378154 0.357971 0.500000
O O6 0.441406 0.314529 0.624810
O O7 0.500000 0.715903 0.250000
O O8 0.600165 0.807911 0.154791
O O9 0.769787 0.678227 0.177855
O O10 0.500000 0.902925 0.250000
#
# Coordination Sequence:
#
# PCOD8293410 Si02
#       4
#    16  16  16  16
#     4   8  15  30  52  77 107 142 182 231 282 332
#     4   8  15  30  52  78 106 138 182 234 283 335
#     4  10  19  32  53  77 108 145 183 228 278 335
#     4  10  19  32  52  78 110 147 184 229 280 332
#
# _framework density 23.880220000000001
#
# number of rings (size 3 to 8) (size 9 to 14) (size 15 to 20)
#    0.000    3.000    0.000    4.500    0.000    1.000 
#    0.000   10.000    0.000   16.500    0.000   14.000 
#    0.000    2.000    0.000    4.500    0.000    4.750 
#
# Total GULP energy -396511.508161 kJ/mol
# GULP energy per Si atom -12390.984630 kJ/mol
# Density = 2.382587 g / cm^3
# Si number density = 23.880220 Si / 1000 Ang^3
#
#
#
# Elastic Constant Matrix: (Units=GPa)
#
#
# Indices 1 2 3 4 5 6 
#
# 1 76.5965 -0.7425 3.6790 0.0000 0.0000 0.0000
# 2 -0.7425 109.0284 74.5953 0.0000 0.0000 0.0000
# 3 3.6790 74.5953 133.0982 0.0000 0.0000 0.0000
# 4 0.0000 0.0000 0.0000 20.8580 0.0000 0.0000
# 5 0.0000 0.0000 0.0000 0.0000 25.9815 0.0000
# 6 0.0000 0.0000 0.0000 0.0000 0.0000 27.8093
#
#
#
# Elastic Compliance Matrix: (Units=1/GPa)
#
#
# Indices 1 2 3 4 5 6 
#
# 1 0.013093 0.000546 -0.000668 0.000000 0.000000 0.000000
# 2 0.000546 0.014899 -0.008365 0.000000 0.000000 0.000000
# 3 -0.000668 -0.008365 0.012220 0.000000 0.000000 0.000000
# 4 0.000000 0.000000 0.000000 0.047943 0.000000 0.000000
# 5 0.000000 0.000000 0.000000 0.000000 0.038489 0.000000
# 6 0.000000 0.000000 0.000000 0.000000 0.000000 0.035959
#
#
# Mechanical properties :
#
#
# Convention : Reuss Voigt Hill
#
# Bulk Modulus (GPa) = 43.03354 52.64294 47.83824
# Shear Modulus (GPa) = 26.69179 31.00917 28.85048
#
# Velocity S-wave (km/s) = 3.34688 3.60742 3.47959
# Velocity P-wave (km/s) = 5.74415 6.28043 6.01826
#
# Compressibility (1/GPa) = 0.02323769
#
# Stress axis : x y z
#
# Youngs Moduli (GPa) = 76.37778 67.11841 81.83254
#
# Poissons Ratio (x) = -0.03666 0.05467
# Poissons Ratio (y) = -0.04172 0.68455
# Poissons Ratio (z) = 0.05102 0.56147
#
# Static dielectric constant tensor:
#      x y z
#    x 4.578740 0.000000 0.000000 
#    y 0.000000 4.962890 0.000000 
#    z 0.000000 0.000000 4.453800 
# 
# 
# High freq. dielectric constant tensor:
#      x y z
#    x 1.971830 0.000000 0.000000 
#    y 0.000000 1.949070 0.000000 
#    z 0.000000 0.000000 1.931750 
# 
# From -- ./inp_files/35378.got.cif
#   From: 2010.03.12/outbox.cif.g09.slc.cpg/sg72_18_cif.got.tgz:35378.got - 2010.04.16 14:54:00.
