data_PCOD8293289
_publ_section_title
;
Structure prediction by ZEFSAII (Michael W. Deem and Ramdas Pophale) SiO2 
 PCOD8293289
Probable space group: I B A M
;
_chemical_formula_sum "Si O2"
_cell_formula_units_Z 92
_cell_length_a 25.595965
_cell_length_b 25.632844
_cell_length_c 9.551671
_cell_angle_alpha 90.000000
_cell_angle_beta 90.000000
_cell_angle_gamma 90.000000
_cell_volume 6266.826297
_symmetry_space_group_name_H-M "I B A M"
_symmetry_group_IT_number 72
_symmetry_cell_setting 'orthorhombic'
loop_
_space_group_symop_operation_xyz
x,y,z
-x,-y,z
x,-y,1/2-z
-x,y,1/2-z
-x,-y,-z
x,y,-z
-x,y,1/2+z
x,-y,1/2+z
1/2+x,1/2+y,1/2+z
1/2-x,1/2-y,1/2+z
1/2+x,1/2-y,-z
1/2-x,1/2+y,-z
1/2-x,1/2-y,1/2-z
1/2+x,1/2+y,1/2-z
1/2-x,1/2+y,z
1/2+x,1/2-y,z
loop_
_atom_site_type_symbol
_atom_site_label
_atom_site_fract_x
_atom_site_fract_y
_atom_site_fract_z
Si Si1 0.328559 0.740103 0.659256
Si Si2 0.232226 0.097836 0.150739
Si Si3 0.823122 0.000000 0.750000
Si Si4 0.221658 0.323685 0.158001
Si Si5 0.000000 0.000000 0.250000
Si Si6 0.087962 0.071300 0.349334
Si Si7 0.375461 0.657357 0.842892
O O1 0.347343 0.751921 0.500000
O O2 0.275375 0.707751 0.652930
O O3 0.319860 0.793550 0.744782
O O4 0.373353 0.708281 0.743586
O O5 0.269651 0.118773 0.274594
O O6 0.182018 0.134563 0.147667
O O7 0.215344 0.037852 0.165326
O O8 0.260767 0.103310 0.000000
O O9 0.860429 0.034989 0.847482
O O10 0.199762 0.330354 0.000000
O O11 0.963501 0.035935 0.154277
O O12 0.089183 0.099993 0.500000
O O13 0.086576 0.114022 0.225998
O O14 0.395940 0.670834 0.000000
#
# Coordination Sequence:
#
# PCOD8293289 Si02
#       7
#    16  16   8  16   4  16  16
#     4   9  15  24  37  51  67  87 107 130 162 203
#     4   9  16  25  35  48  66  88 112 139 170 207
#     4   9  18  27  40  54  68  88 118 152 182 213
#     4   9  16  23  33  49  68  87 108 133 164 200
#     4  10  22  32  44  58  74  92 116 150 186 222
#     4  10  19  31  44  56  69  89 116 146 182 224
#     4   9  17  27  39  54  70  85 106 136 171 210
#
# _framework density 14.680477
#
# number of rings (size 3 to 8) (size 9 to 14) (size 15 to 20)
#    0.000    2.783    0.000    2.348    0.000   13.913 
#    0.000    0.000    0.000    0.000    0.000    0.000 
#    0.000    0.000    0.000    0.000    0.000    0.000 
#
# Total GULP energy -569983.097737 kJ/mol
# GULP energy per Si atom -12390.936907 kJ/mol
# Density = 1.464706 g / cm^3
# Si number density = 14.680477 Si / 1000 Ang^3
#
#
#
# Elastic Constant Matrix: (Units=GPa)
#
#
# Indices 1 2 3 4 5 6 
#
# 1 22.4188 28.2574 26.1342 0.0000 0.0000 0.0000
# 2 28.2574 63.5035 45.0572 0.0000 0.0000 0.0000
# 3 26.1342 45.0572 150.2559 0.0000 0.0000 0.0000
# 4 0.0000 0.0000 0.0000 17.0900 0.0000 0.0000
# 5 0.0000 0.0000 0.0000 0.0000 4.1033 0.0000
# 6 0.0000 0.0000 0.0000 0.0000 0.0000 17.6757
#
#
#
# Elastic Compliance Matrix: (Units=1/GPa)
#
#
# Indices 1 2 3 4 5 6 
#
# 1 0.104911 -0.042853 -0.005397 0.000000 0.000000 0.000000
# 2 -0.042853 0.037508 -0.003794 0.000000 0.000000 0.000000
# 3 -0.005397 -0.003794 0.008732 0.000000 0.000000 0.000000
# 4 0.000000 0.000000 0.000000 0.058514 0.000000 0.000000
# 5 0.000000 0.000000 0.000000 0.000000 0.243704 0.000000
# 6 0.000000 0.000000 0.000000 0.000000 0.000000 0.056575
#
#
# Mechanical properties :
#
#
# Convention : Reuss Voigt Hill
#
# Bulk Modulus (GPa) = 21.24861 48.34178 34.79520
# Shear Modulus (GPa) = 7.94006 16.88910 12.41458
#
# Velocity S-wave (km/s) = 2.32816 3.39550 2.91116
# Velocity P-wave (km/s) = 4.66182 6.95510 5.92056
#
# Compressibility (1/GPa) = 0.04706189
#
# Stress axis : x y z
#
# Youngs Moduli (GPa) = 9.53189 26.66120 114.52583
#
# Poissons Ratio (x) = 1.14253 0.61808
# Poissons Ratio (y) = 0.40848 0.43449
# Poissons Ratio (z) = 0.05144 0.10115
#
# Static dielectric constant tensor:
#      x y z
#    x 2.305790 0.000000 0.000000 
#    y 0.000000 2.806060 0.000000 
#    z 0.000000 0.000000 3.156340 
# 
# 
# High freq. dielectric constant tensor:
#      x y z
#    x 1.477450 0.000000 0.000000 
#    y 0.000000 1.541480 0.000000 
#    z 0.000000 0.000000 1.585920 
# 
# From -- ./inp_files/7124.got.cif
#   From: 2010.03.12/outbox.cif.g09.slc.cpg/sg72_4_cif.got.tgz:7124.got - 2010.04.16 14:54:00.
