data_PCOD8293786
_publ_section_title
;
Structure prediction by ZEFSAII (Michael W. Deem and Ramdas Pophale) SiO2 
 PCOD8293786
Probable space group: I B A M
;
_chemical_formula_sum "Si O2"
_cell_formula_units_Z 116
_cell_length_a 8.670429
_cell_length_b 29.411174
_cell_length_c 22.928242
_cell_angle_alpha 90.000000
_cell_angle_beta 90.000000
_cell_angle_gamma 90.000000
_cell_volume 5846.873579
_symmetry_space_group_name_H-M "I B A M"
_symmetry_group_IT_number 72
_symmetry_cell_setting 'orthorhombic'
loop_
_space_group_symop_operation_xyz
x,y,z
-x,-y,z
x,-y,1/2-z
-x,y,1/2-z
-x,-y,-z
x,y,-z
-x,y,1/2+z
x,-y,1/2+z
1/2+x,1/2+y,1/2+z
1/2-x,1/2-y,1/2+z
1/2+x,1/2-y,-z
1/2-x,1/2+y,-z
1/2-x,1/2-y,1/2-z
1/2+x,1/2+y,1/2-z
1/2-x,1/2+y,z
1/2+x,1/2-y,z
loop_
_atom_site_type_symbol
_atom_site_label
_atom_site_fract_x
_atom_site_fract_y
_atom_site_fract_z
Si Si1 0.552559 0.618111 0.568404
Si Si2 0.628937 0.723617 0.711997
Si Si3 0.454947 0.551623 0.660369
Si Si4 0.631816 0.290752 0.435053
Si Si5 0.000000 0.500000 0.750000
Si Si6 0.196997 0.645634 0.847795
Si Si7 0.542897 0.211975 0.881408
Si Si8 0.752589 0.569231 0.733709
O O1 0.569894 0.605823 0.500000
O O2 0.444235 0.580376 0.600319
O O3 0.482611 0.667838 0.578220
O O4 0.719175 0.617315 0.600500
O O5 0.500000 0.696475 0.750000
O O6 0.750000 0.750000 0.750000
O O7 0.704966 0.690437 0.665653
O O8 0.526366 0.761065 0.678808
O O9 0.500000 0.500000 0.645078
O O10 0.595882 0.568293 0.698603
O O11 0.295910 0.560266 0.698072
O O12 0.697172 0.294444 0.500000
O O13 0.543245 0.242640 0.429874
O O14 0.777090 0.294912 0.392996
O O15 0.116878 0.467388 0.713726
O O16 0.174939 0.617640 0.786750
O O17 0.033558 0.662184 0.873852
#
# Coordination Sequence:
#
# PCOD8293786 Si02
#       8
#    16  16  16  16   4  16  16  16
#     4  10  23  40  62  91 118 155 207 257 305 357
#     4  12  23  36  54  81 120 155 200 247 294 359
#     4  10  19  41  65  89 121 152 191 240 306 381
#     4  11  22  38  60  84 116 160 214 263 294 342
#     4  12  20  38  60  92 130 146 196 240 292 388
#     4  11  24  39  59  87 124 165 200 250 309 362
#     4  12  22  40  56  85 118 167 210 243 306 352
#     4  10  22  36  61  94 121 157 190 236 307 366
#
# _framework density 19.839663000000002
#
# number of rings (size 3 to 8) (size 9 to 14) (size 15 to 20)
#    0.000    1.103    5.517    0.828    3.862    4.690 
#    0.000    0.000    0.000    0.000    0.000    2.414 
#    0.000    0.000    0.000    0.000    0.000    0.000 
#
# Total GULP energy -718622.703707 kJ/mol
# GULP energy per Si atom -12390.046616 kJ/mol
# Density = 1.979451 g / cm^3
# Si number density = 19.839663 Si / 1000 Ang^3
#
#
#
# Elastic Constant Matrix: (Units=GPa)
#
#
# Indices 1 2 3 4 5 6 
#
# 1 69.6209 17.9428 25.4455 0.0000 0.0000 0.0000
# 2 17.9428 102.8663 39.1941 0.0000 0.0000 0.0000
# 3 25.4455 39.1941 94.8936 0.0001 0.0000 0.0000
# 4 0.0000 0.0000 0.0001 12.8008 0.0000 0.0000
# 5 0.0000 0.0000 0.0000 0.0000 20.8954 0.0000
# 6 0.0000 0.0000 0.0000 0.0000 0.0000 29.6117
#
#
#
# Elastic Compliance Matrix: (Units=1/GPa)
#
#
# Indices 1 2 3 4 5 6 
#
# 1 0.016087 -0.001380 -0.003744 0.000000 0.000000 0.000000
# 2 -0.001380 0.011655 -0.004444 0.000000 0.000000 0.000000
# 3 -0.003744 -0.004444 0.013378 0.000000 0.000000 0.000000
# 4 0.000000 0.000000 0.000000 0.078120 0.000000 0.000000
# 5 0.000000 0.000000 0.000000 0.000000 0.047857 0.000000
# 6 0.000000 0.000000 0.000000 0.000000 0.000000 0.033770
#
#
# Mechanical properties :
#
#
# Convention : Reuss Voigt Hill
#
# Bulk Modulus (GPa) = 45.48549 48.06062 46.77306
# Shear Modulus (GPa) = 21.99429 24.98148 23.48788
#
# Velocity S-wave (km/s) = 3.33318 3.55233 3.44450
# Velocity P-wave (km/s) = 6.14734 6.41112 6.28061
#
# Compressibility (1/GPa) = 0.02198503
#
# Stress axis : x y z
#
# Youngs Moduli (GPa) = 62.16031 85.79807 74.75176
#
# Poissons Ratio (x) = 0.11836 0.27987
# Poissons Ratio (y) = 0.08575 0.33220
# Poissons Ratio (z) = 0.23273 0.38129
#
# Static dielectric constant tensor:
#      x y z
#    x 3.718610 0.000000 0.000000 
#    y 0.000000 3.756280 0.000000 
#    z 0.000000 0.000000 3.773200 
# 
# 
# High freq. dielectric constant tensor:
#      x y z
#    x 1.775670 0.000000 0.000000 
#    y 0.000000 1.764200 0.000000 
#    z 0.000000 0.000000 1.759100 
# 
# From -- ./inp_files/42698.got.cif
#   From: 2010.03.12/outbox.cif.g09.slc.cpg/sg72_22_cif.got.tgz:42698.got - 2010.04.16 14:54:00.
