data_PCOD8293186
_publ_section_title
;
Structure prediction by ZEFSAII (Michael W. Deem and Ramdas Pophale) SiO2 
 PCOD8293186
Probable space group: I B A M
;
_chemical_formula_sum "Si O2"
_cell_formula_units_Z 112
_cell_length_a 17.040644
_cell_length_b 19.764244
_cell_length_c 16.030787
_cell_angle_alpha 90.000000
_cell_angle_beta 90.000000
_cell_angle_gamma 90.000000
_cell_volume 5399.096056
_symmetry_space_group_name_H-M "I B A M"
_symmetry_group_IT_number 72
_symmetry_cell_setting 'orthorhombic'
loop_
_space_group_symop_operation_xyz
x,y,z
-x,-y,z
x,-y,1/2-z
-x,y,1/2-z
-x,-y,-z
x,y,-z
-x,y,1/2+z
x,-y,1/2+z
1/2+x,1/2+y,1/2+z
1/2-x,1/2-y,1/2+z
1/2+x,1/2-y,-z
1/2-x,1/2+y,-z
1/2-x,1/2-y,1/2-z
1/2+x,1/2+y,1/2-z
1/2-x,1/2+y,z
1/2+x,1/2-y,z
loop_
_atom_site_type_symbol
_atom_site_label
_atom_site_fract_x
_atom_site_fract_y
_atom_site_fract_z
Si Si1 0.165179 0.624759 0.649855
Si Si2 0.749895 0.993111 0.150021
Si Si3 0.067179 0.823323 0.404795
Si Si4 0.656663 0.865463 0.157817
Si Si5 0.765421 0.243394 0.595469
Si Si6 0.923605 0.031026 0.657749
Si Si7 0.505050 0.813206 0.650460
O O1 0.201213 0.555971 0.611464
O O2 0.149189 0.614485 0.746597
O O3 0.230567 0.680860 0.630574
O O4 0.080598 0.646955 0.612293
O O5 0.704627 0.926704 0.115378
O O6 0.839751 0.988825 0.115637
O O7 0.752757 0.000000 0.250000
O O8 0.052439 0.846472 0.500000
O O9 0.152166 0.792290 0.392310
O O10 0.063301 0.887904 0.343538
O O11 0.004737 0.764904 0.380274
O O12 0.701770 0.794900 0.150582
O O13 0.571006 0.853901 0.116719
O O14 0.738067 0.243733 0.500000
O O15 0.923310 0.000000 0.750000
O O16 0.000000 0.000000 0.609982
O O17 0.500000 0.811715 0.750000
#
# Coordination Sequence:
#
# PCOD8293186 Si02
#       7
#    16  16  16  16  16  16  16
#     4   9  19  35  54  82 113 147 182 236 285 340
#     4   9  18  34  56  81 114 145 187 230 288 335
#     4  10  21  38  56  77 113 151 186 235 288 336
#     4  10  18  34  57  83 108 146 191 232 281 347
#     4  10  20  35  54  77 108 148 189 230 280 333
#     4  10  21  35  55  83 111 150 189 231 282 339
#     4   9  20  34  56  85 111 143 192 235 286 337
#
# _framework density 20.744212999999998
#
# number of rings (size 3 to 8) (size 9 to 14) (size 15 to 20)
#    0.000    2.429    1.429    0.429    2.000    2.571 
#    0.000    4.286    0.000    0.000    0.000    5.000 
#    0.000    0.000    0.000    0.000    0.000    0.000 
#
# Total GULP energy -693966.769746 kJ/mol
# GULP energy per Si atom -12392.263745 kJ/mol
# Density = 2.069700 g / cm^3
# Si number density = 20.744213 Si / 1000 Ang^3
#
#
#
# Elastic Constant Matrix: (Units=GPa)
#
#
# Indices 1 2 3 4 5 6 
#
# 1 156.7953 89.6202 8.2165 0.0000 0.0000 0.0000
# 2 89.6202 161.5191 11.1724 0.0000 0.0000 0.0000
# 3 8.2165 11.1724 22.7611 0.0000 0.0000 0.0000
# 4 0.0000 0.0000 0.0000 -0.9860 0.0000 0.0000
# 5 0.0000 0.0000 0.0000 0.0000 -2.0635 0.0000
# 6 0.0000 0.0000 0.0000 0.0000 0.0000 34.4805
#
#
#
# Elastic Compliance Matrix: (Units=1/GPa)
#
#
# Indices 1 2 3 4 5 6 
#
# 1 0.009356 -0.005132 -0.000858 0.000000 0.000000 0.000000
# 2 -0.005132 0.009224 -0.002675 0.000000 0.000000 0.000000
# 3 -0.000858 -0.002675 0.045558 0.000000 0.000000 0.000000
# 4 0.000000 0.000000 0.000000 -1.014175 0.000000 0.000000
# 5 0.000000 0.000000 0.000000 0.000000 -0.484608 0.000000
# 6 0.000000 0.000000 0.000000 0.000000 0.000000 0.029002
#
#
# Mechanical properties :
#
#
# Convention : Reuss Voigt Hill
#
# Bulk Modulus (GPa) = 21.36444 62.12151 41.74298
# Shear Modulus (GPa) = -3.64243 21.75727 9.05742
#
# Velocity S-wave (km/s) = -1.32653 3.24209 2.09182
# Velocity P-wave (km/s) = 2.82402 6.63523 5.09909
#
# Compressibility (1/GPa) = 0.04680675
#
# Stress axis : x y z
#
# Youngs Moduli (GPa) = 106.88363 108.41632 21.95028
#
# Poissons Ratio (x) = 0.55638 0.01884
# Poissons Ratio (y) = 0.54851 0.05872
# Poissons Ratio (z) = 0.09175 0.29001
#
# Static dielectric constant tensor:
#      x y z
#    x 4.367900 0.000000 0.000000 
#    y 0.000000 4.000900 0.000000 
#    z 0.000000 0.000000 3.291710 
# 
# 
# High freq. dielectric constant tensor:
#      x y z
#    x 1.818940 0.000000 0.000000 
#    y 0.000000 1.816890 0.000000 
#    z 0.000000 0.000000 1.769430 
# 
# From -- ./inp_files/39193.got.cif
#   From: 2010.03.12/outbox.cif.g09.slc.cpg/sg72_20_cif.got.tgz:39193.got - 2010.04.16 14:54:00.
