data_PCOD8293127
_publ_section_title
;
Structure prediction by ZEFSAII (Michael W. Deem and Ramdas Pophale) SiO2 
 PCOD8293127
Probable space group: I B A M
;
_chemical_formula_sum "Si O2"
_cell_formula_units_Z 72
_cell_length_a 17.875009
_cell_length_b 23.665560
_cell_length_c 9.315145
_cell_angle_alpha 90.000000
_cell_angle_beta 90.000000
_cell_angle_gamma 90.000000
_cell_volume 3940.512181
_symmetry_space_group_name_H-M "I B A M"
_symmetry_group_IT_number 72
_symmetry_cell_setting 'orthorhombic'
loop_
_space_group_symop_operation_xyz
x,y,z
-x,-y,z
x,-y,1/2-z
-x,y,1/2-z
-x,-y,-z
x,y,-z
-x,y,1/2+z
x,-y,1/2+z
1/2+x,1/2+y,1/2+z
1/2-x,1/2-y,1/2+z
1/2+x,1/2-y,-z
1/2-x,1/2+y,-z
1/2-x,1/2-y,1/2-z
1/2+x,1/2+y,1/2-z
1/2-x,1/2+y,z
1/2+x,1/2-y,z
loop_
_atom_site_type_symbol
_atom_site_label
_atom_site_fract_x
_atom_site_fract_y
_atom_site_fract_z
Si Si1 0.500000 0.687952 0.250000
Si Si2 0.223279 0.336375 0.166802
Si Si3 0.934753 0.079062 0.656763
Si Si4 0.143433 0.246149 0.340349
Si Si5 0.232114 0.056604 0.827446
O O1 0.450811 0.646820 0.146942
O O2 0.557093 0.727505 0.163640
O O3 0.158381 0.294670 0.223399
O O4 0.303867 0.307644 0.191024
O O5 0.218782 0.392801 0.262205
O O6 0.208484 0.350436 0.000000
O O7 0.938248 0.052110 0.500000
O O8 0.853554 0.066654 0.722843
O O9 0.000000 0.049270 0.750000
O O10 0.160978 0.269529 0.500000
O O11 0.261133 0.000000 0.750000
O O12 0.241105 0.053856 0.000000
#
# Coordination Sequence:
#
# PCOD8293127 Si02
#       5
#     8  16  16  16  16
#     4  10  18  32  53  76 109 142 178 212 264 310
#     4  10  20  36  54  76 104 139 180 224 271 320
#     4   9  19  32  48  69 101 137 174 215 257 306
#     4  10  20  33  53  78 108 141 177 220 269 322
#     4  11  22  36  53  74 102 139 182 225 267 313
#
# _framework density 18.271736000000001
#
# number of rings (size 3 to 8) (size 9 to 14) (size 15 to 20)
#    0.667    1.333    2.222    2.000    0.000    4.889 
#    0.000    2.222    0.000    0.000    0.000    0.778 
#    0.000    5.333    0.000    0.000    0.000    0.000 
#
# Total GULP energy -446201.032294 kJ/mol
# GULP energy per Si atom -12394.473119 kJ/mol
# Density = 1.823015 g / cm^3
# Si number density = 18.271736 Si / 1000 Ang^3
#
#
#
# Elastic Constant Matrix: (Units=GPa)
#
#
# Indices 1 2 3 4 5 6 
#
# 1 39.4385 25.5914 13.2289 0.0000 0.0000 0.0000
# 2 25.5914 108.0155 53.5080 0.0000 0.0000 0.0000
# 3 13.2289 53.5080 106.6598 0.0000 0.0000 0.0000
# 4 0.0000 0.0000 0.0000 31.1427 0.0000 0.0000
# 5 0.0000 0.0000 0.0000 0.0000 21.5322 0.0000
# 6 0.0000 0.0000 0.0000 0.0000 0.0000 20.4476
#
#
#
# Elastic Compliance Matrix: (Units=1/GPa)
#
#
# Indices 1 2 3 4 5 6 
#
# 1 0.029966 -0.006997 -0.000206 0.000000 0.000000 0.000000
# 2 -0.006997 0.013954 -0.006132 0.000000 0.000000 0.000000
# 3 -0.000206 -0.006132 0.012478 0.000000 0.000000 0.000000
# 4 0.000000 0.000000 0.000000 0.032110 0.000000 0.000000
# 5 0.000000 0.000000 0.000000 0.000000 0.046442 0.000000
# 6 0.000000 0.000000 0.000000 0.000000 0.000000 0.048906
#
#
# Mechanical properties :
#
#
# Convention : Reuss Voigt Hill
#
# Bulk Modulus (GPa) = 33.64163 48.75228 41.19695
# Shear Modulus (GPa) = 22.68246 25.41018 24.04632
#
# Velocity S-wave (km/s) = 3.52717 3.73323 3.63166
# Velocity P-wave (km/s) = 5.91943 6.73219 6.33885
#
# Compressibility (1/GPa) = 0.02972508
#
# Stress axis : x y z
#
# Youngs Moduli (GPa) = 33.37151 71.66659 80.14420
#
# Poissons Ratio (x) = 0.50148 0.01653
# Poissons Ratio (y) = 0.23351 0.49146
# Poissons Ratio (z) = 0.00688 0.43947
#
# Static dielectric constant tensor:
#      x y z
#    x 2.986590 0.000000 0.000000 
#    y 0.000000 3.176680 0.000000 
#    z 0.000000 0.000000 3.291390 
# 
# 
# High freq. dielectric constant tensor:
#      x y z
#    x 1.663320 0.000000 0.000000 
#    y 0.000000 1.695450 0.000000 
#    z 0.000000 0.000000 1.715890 
# 
# From -- ./inp_files/5863.got.cif
#   From: 2010.03.12/outbox.cif.g09.slc.cpg/sg72_3_cif.got.tgz:5863.got - 2010.04.16 14:54:00.
