data_PCOD8293946
_publ_section_title
;
Structure prediction by ZEFSAII (Michael W. Deem and Ramdas Pophale) SiO2 
 PCOD8293946
Probable space group: I B A M
;
_chemical_formula_sum "Si O2"
_cell_formula_units_Z 116
_cell_length_a 32.042757
_cell_length_b 21.785996
_cell_length_c 8.763373
_cell_angle_alpha 90.000000
_cell_angle_beta 90.000000
_cell_angle_gamma 90.000000
_cell_volume 6117.565008
_symmetry_space_group_name_H-M "I B A M"
_symmetry_group_IT_number 72
_symmetry_cell_setting 'orthorhombic'
loop_
_space_group_symop_operation_xyz
x,y,z
-x,-y,z
x,-y,1/2-z
-x,y,1/2-z
-x,-y,-z
x,y,-z
-x,y,1/2+z
x,-y,1/2+z
1/2+x,1/2+y,1/2+z
1/2-x,1/2-y,1/2+z
1/2+x,1/2-y,-z
1/2-x,1/2+y,-z
1/2-x,1/2-y,1/2-z
1/2+x,1/2+y,1/2-z
1/2-x,1/2+y,z
1/2+x,1/2-y,z
loop_
_atom_site_type_symbol
_atom_site_label
_atom_site_fract_x
_atom_site_fract_y
_atom_site_fract_z
Si Si1 0.400497 0.205279 0.321244
Si Si2 0.456334 0.689279 0.317932
Si Si3 0.186439 0.712752 0.173325
Si Si4 0.329217 0.561442 0.822149
Si Si5 0.273815 0.327007 0.323990
Si Si6 0.576164 0.565122 0.681824
Si Si7 0.539796 0.880641 0.169098
Si Si8 0.000000 0.500000 0.250000
O O1 0.407353 0.213816 0.500000
O O2 0.420278 0.263784 0.235860
O O3 0.351514 0.199963 0.286761
O O4 0.420202 0.140279 0.266295
O O5 0.500000 0.713453 0.250000
O O6 0.457593 0.687876 0.500000
O O7 0.449497 0.620780 0.254513
O O8 0.223795 0.663065 0.194765
O O9 0.208551 0.776691 0.209539
O O10 0.169588 0.712904 0.000000
O O11 0.311673 0.500000 0.750000
O O12 0.296870 0.612321 0.769337
O O13 0.376046 0.576449 0.766473
O O14 0.330037 0.552355 0.000000
O O15 0.284700 0.310118 0.500000
O O16 0.560299 0.500000 0.750000
O O17 0.570140 0.564997 0.500000
O O18 0.500000 0.848772 0.250000
O O19 0.531588 0.954708 0.157836
O O20 0.544803 0.853778 0.000000
#
# Coordination Sequence:
#
# PCOD8293946 Si02
#       8
#    16  16  16  16  16  16  16   4
#     4  12  24  38  57  82 115 150 187 232 283 334
#     4  12  25  41  59  82 112 146 187 233 287 340
#     4  10  20  34  55  82 110 144 184 226 277 332
#     4   9  18  32  53  79 108 141 178 222 269 318
#     4   9  18  34  55  80 111 144 180 224 277 331
#     4  10  20  36  57  83 114 150 192 235 280 331
#     4  10  20  36  59  86 114 144 183 226 273 327
#     4   8  22  36  66  88 118 144 184 228 274 328
#
# _framework density 18.961794000000001
#
# number of rings (size 3 to 8) (size 9 to 14) (size 15 to 20)
#    0.414    1.379    0.000    5.172    0.000    3.034 
#    0.000    1.379    1.517    0.000    0.000    0.000 
#    0.000    0.000    0.000    0.000    0.000    0.000 
#
# Total GULP energy -718914.175596 kJ/mol
# GULP energy per Si atom -12395.071993 kJ/mol
# Density = 1.891864 g / cm^3
# Si number density = 18.961794 Si / 1000 Ang^3
#
#
#
# Elastic Constant Matrix: (Units=GPa)
#
#
# Indices 1 2 3 4 5 6 
#
# 1 93.8232 30.1273 30.9076 0.0000 0.0000 0.0000
# 2 30.1273 80.6561 24.8010 0.0000 0.0000 0.0000
# 3 30.9076 24.8010 107.5049 0.0000 0.0000 0.0000
# 4 0.0000 0.0000 0.0000 26.2648 0.0000 0.0000
# 5 0.0000 0.0000 0.0000 0.0000 29.1732 0.0000
# 6 0.0000 0.0000 0.0000 0.0000 0.0000 34.8046
#
#
#
# Elastic Compliance Matrix: (Units=1/GPa)
#
#
# Indices 1 2 3 4 5 6 
#
# 1 0.012840 -0.003941 -0.002783 0.000000 0.000000 0.000000
# 2 -0.003941 0.014554 -0.002225 0.000000 0.000000 0.000000
# 3 -0.002783 -0.002225 0.010615 0.000000 0.000000 0.000000
# 4 0.000000 0.000000 0.000000 0.038074 0.000000 0.000000
# 5 0.000000 0.000000 0.000000 0.000000 0.034278 0.000000
# 6 0.000000 0.000000 0.000000 0.000000 0.000000 0.028732
#
#
# Mechanical properties :
#
#
# Convention : Reuss Voigt Hill
#
# Bulk Modulus (GPa) = 49.71637 50.40622 50.06130
# Shear Modulus (GPa) = 30.54484 31.12507 30.83495
#
# Velocity S-wave (km/s) = 4.01791 4.05589 4.03694
# Velocity P-wave (km/s) = 6.91382 6.96954 6.94174
#
# Compressibility (1/GPa) = 0.02011410
#
# Stress axis : x y z
#
# Youngs Moduli (GPa) = 77.87965 68.70810 94.20542
#
# Poissons Ratio (x) = 0.27075 0.26213
# Poissons Ratio (y) = 0.30689 0.20958
# Poissons Ratio (z) = 0.21670 0.15286
#
# Static dielectric constant tensor:
#      x y z
#    x 3.650410 0.000000 0.000000 
#    y 0.000000 3.424580 0.000000 
#    z 0.000000 0.000000 3.462370 
# 
# 
# High freq. dielectric constant tensor:
#      x y z
#    x 1.733960 0.000000 0.000000 
#    y 0.000000 1.724690 0.000000 
#    z 0.000000 0.000000 1.746500 
# 
# From -- ./inp_files/9346.got.cif
#   From: 2010.03.12/outbox.cif.g09.slc.cpg/sg72_5_cif.got.tgz:9346.got - 2010.04.16 14:54:00.
