data_PCOD8293985
_publ_section_title
;
Structure prediction by ZEFSAII (Michael W. Deem and Ramdas Pophale) SiO2 
 PCOD8293985
Probable space group: I B A M
;
_chemical_formula_sum "Si O2"
_cell_formula_units_Z 64
_cell_length_a 29.476026
_cell_length_b 5.197671
_cell_length_c 20.851166
_cell_angle_alpha 90.000000
_cell_angle_beta 90.000000
_cell_angle_gamma 90.000000
_cell_volume 3194.538032
_symmetry_space_group_name_H-M "I B A M"
_symmetry_group_IT_number 72
_symmetry_cell_setting 'orthorhombic'
loop_
_space_group_symop_operation_xyz
x,y,z
-x,-y,z
x,-y,1/2-z
-x,y,1/2-z
-x,-y,-z
x,y,-z
-x,y,1/2+z
x,-y,1/2+z
1/2+x,1/2+y,1/2+z
1/2-x,1/2-y,1/2+z
1/2+x,1/2-y,-z
1/2-x,1/2+y,-z
1/2-x,1/2-y,1/2-z
1/2+x,1/2+y,1/2-z
1/2-x,1/2+y,z
1/2+x,1/2-y,z
loop_
_atom_site_type_symbol
_atom_site_label
_atom_site_fract_x
_atom_site_fract_y
_atom_site_fract_z
Si Si1 0.375610 0.540344 0.134584
Si Si2 0.457471 0.673685 0.572154
Si Si3 0.277778 0.455736 0.424890
Si Si4 0.584026 0.053084 0.319285
O O1 0.411597 0.498521 0.076187
O O2 0.324753 0.514458 0.111221
O O3 0.385514 0.312887 0.186159
O O4 0.382570 0.820009 0.164388
O O5 0.500000 0.500000 0.591727
O O6 0.462595 0.785015 0.500000
O O7 0.453814 0.907511 0.624257
O O8 0.287996 0.463047 0.500000
O O9 0.245476 0.689797 0.404332
O O10 0.560716 0.000000 0.250000
#
# Coordination Sequence:
#
# PCOD8293985 Si02
#       4
#    16  16  16  16
#     4  10  21  38  63  87 125 164 208 257 316 368
#     4   9  21  39  63  96 128 161 206 262 318 375
#     4  10  20  34  57  91 126 159 206 262 317 377
#     4  10  22  40  64  88 124 170 210 253 306 378
#
# _framework density 20.034193999999999
#
# number of rings (size 3 to 8) (size 9 to 14) (size 15 to 20)
#    1.500    0.750    0.000    3.000    0.000    3.000 
#    0.000    6.250    0.000   15.000    0.000    0.000 
#    0.000    0.000    0.000    0.000    0.000    0.000 
#
# Total GULP energy -396477.857041 kJ/mol
# GULP energy per Si atom -12389.933033 kJ/mol
# Density = 1.998860 g / cm^3
# Si number density = 20.034194 Si / 1000 Ang^3
#
#
#
# Elastic Constant Matrix: (Units=GPa)
#
#
# Indices 1 2 3 4 5 6 
#
# 1 84.0500 19.5455 51.0711 0.0000 0.0000 0.0000
# 2 19.5455 128.9192 45.4875 0.0000 0.0000 0.0000
# 3 51.0711 45.4875 128.5222 0.0000 0.0000 0.0000
# 4 0.0000 0.0000 0.0000 9.0400 0.0000 0.0000
# 5 0.0000 0.0000 0.0000 0.0000 8.8846 0.0000
# 6 0.0000 0.0000 0.0000 0.0000 0.0000 21.8538
#
#
#
# Elastic Compliance Matrix: (Units=1/GPa)
#
#
# Indices 1 2 3 4 5 6 
#
# 1 0.015690 -0.000204 -0.006162 0.000000 0.000000 0.000000
# 2 -0.000204 0.008866 -0.003057 0.000000 0.000000 0.000000
# 3 -0.006162 -0.003057 0.011311 0.000000 0.000000 0.000000
# 4 0.000000 0.000000 0.000000 0.110619 0.000000 0.000000
# 5 0.000000 0.000000 0.000000 0.000000 0.112554 0.000000
# 6 0.000000 0.000000 0.000000 0.000000 0.000000 0.045759
#
#
# Mechanical properties :
#
#
# Convention : Reuss Voigt Hill
#
# Bulk Modulus (GPa) = 58.75337 63.74440 61.24888
# Shear Modulus (GPa) = 15.18283 22.98152 19.08217
#
# Velocity S-wave (km/s) = 2.75589 3.39058 3.08958
# Velocity P-wave (km/s) = 6.28624 6.87131 6.58527
#
# Compressibility (1/GPa) = 0.01702030
#
# Stress axis : x y z
#
# Youngs Moduli (GPa) = 63.73665 112.78608 88.40683
#
# Poissons Ratio (x) = 0.02306 0.54478
# Poissons Ratio (y) = 0.01303 0.27024
# Poissons Ratio (z) = 0.39276 0.34476
#
# Static dielectric constant tensor:
#      x y z
#    x 3.362730 0.000000 0.000000 
#    y 0.000000 3.731810 0.000000 
#    z 0.000000 0.000000 3.472740 
# 
# 
# High freq. dielectric constant tensor:
#      x y z
#    x 1.770810 0.000000 0.000000 
#    y 0.000000 1.793020 0.000000 
#    z 0.000000 0.000000 1.762730 
# 
# From -- ./inp_files/34705.got.cif
#   From: 2010.03.12/outbox.cif.g09.slc.cpg/sg72_18_cif.got.tgz:34705.got - 2010.04.16 14:54:00.
