data_PCOD8293170
_publ_section_title
;
Structure prediction by ZEFSAII (Michael W. Deem and Ramdas Pophale) SiO2 
 PCOD8293170
Probable space group: I B A M
;
_chemical_formula_sum "Si O2"
_cell_formula_units_Z 112
_cell_length_a 19.004532
_cell_length_b 17.874018
_cell_length_c 17.721432
_cell_angle_alpha 90.000000
_cell_angle_beta 90.000000
_cell_angle_gamma 90.000000
_cell_volume 6019.746222
_symmetry_space_group_name_H-M "I B A M"
_symmetry_group_IT_number 72
_symmetry_cell_setting 'orthorhombic'
loop_
_space_group_symop_operation_xyz
x,y,z
-x,-y,z
x,-y,1/2-z
-x,y,1/2-z
-x,-y,-z
x,y,-z
-x,y,1/2+z
x,-y,1/2+z
1/2+x,1/2+y,1/2+z
1/2-x,1/2-y,1/2+z
1/2+x,1/2-y,-z
1/2-x,1/2+y,-z
1/2-x,1/2-y,1/2-z
1/2+x,1/2+y,1/2-z
1/2-x,1/2+y,z
1/2+x,1/2-y,z
loop_
_atom_site_type_symbol
_atom_site_label
_atom_site_fract_x
_atom_site_fract_y
_atom_site_fract_z
Si Si1 0.185817 0.105986 0.086952
Si Si2 0.314349 0.804598 0.587301
Si Si3 0.893450 0.243657 0.354369
Si Si4 0.305338 0.464217 0.177636
Si Si5 0.926707 0.146792 0.783400
Si Si6 0.230325 0.661107 0.589566
Si Si7 0.541876 0.249544 0.411829
O O1 0.260494 0.135454 0.124390
O O2 0.127635 0.170776 0.096709
O O3 0.161796 0.030596 0.127641
O O4 0.193201 0.086167 0.000000
O O5 0.300450 0.817117 0.500000
O O6 0.292866 0.719283 0.607150
O O7 0.397195 0.812730 0.607603
O O8 0.900154 0.217770 0.267251
O O9 0.838235 0.310195 0.365942
O O10 0.966185 0.279434 0.385006
O O11 0.264974 0.500000 0.250000
O O12 0.368883 0.417341 0.214064
O O13 0.251603 0.417643 0.126129
O O14 0.940723 0.173991 0.868320
O O15 0.000000 0.114805 0.750000
O O16 0.215589 0.652180 0.500000
O O17 0.543636 0.268410 0.500000
#
# Coordination Sequence:
#
# PCOD8293170 Si02
#       7
#    16  16  16  16  16  16  16
#     4  10  20  35  54  78 110 145 189 234 276 331
#     4   8  16  31  54  80 104 135 179 234 276 318
#     4  10  20  37  58  83 113 143 184 240 295 332
#     4  12  23  36  51  78 113 155 187 219 280 333
#     4  10  22  37  53  79 117 151 185 232 277 337
#     4  10  20  36  59  84 110 143 192 242 276 328
#     4  10  18  33  58  85 111 145 189 233 284 341
#
# _framework density 18.605435
#
# number of rings (size 3 to 8) (size 9 to 14) (size 15 to 20)
#    0.000    2.000    2.857    2.571    0.000    2.571 
#    0.000    0.000    0.000    3.429    0.000    5.000 
#    0.000    0.000    0.000    0.000    0.000    0.000 
#
# Total GULP energy -693969.574639 kJ/mol
# GULP energy per Si atom -12392.313833 kJ/mol
# Density = 1.856309 g / cm^3
# Si number density = 18.605435 Si / 1000 Ang^3
#
#
#
# Elastic Constant Matrix: (Units=GPa)
#
#
# Indices 1 2 3 4 5 6 
#
# 1 121.2250 24.0147 27.2049 0.0000 0.0000 0.0000
# 2 24.0147 46.5751 22.5672 0.0000 0.0000 0.0000
# 3 27.2049 22.5672 79.1232 0.0000 0.0000 0.0000
# 4 0.0000 0.0000 0.0000 27.0195 0.0000 0.0000
# 5 0.0000 0.0000 0.0000 0.0000 24.0996 0.0000
# 6 0.0000 0.0000 0.0000 0.0000 0.0000 16.2973
#
#
#
# Elastic Compliance Matrix: (Units=1/GPa)
#
#
# Indices 1 2 3 4 5 6 
#
# 1 0.009498 -0.003846 -0.002169 0.000000 0.000000 0.000000
# 2 -0.003846 0.026471 -0.006228 0.000000 0.000000 0.000000
# 3 -0.002169 -0.006228 0.015160 0.000000 0.000000 0.000000
# 4 0.000000 0.000000 0.000000 0.037010 0.000000 0.000000
# 5 0.000000 0.000000 0.000000 0.000000 0.041495 0.000000
# 6 0.000000 0.000000 0.000000 0.000000 0.000000 0.061360
#
#
# Mechanical properties :
#
#
# Convention : Reuss Voigt Hill
#
# Bulk Modulus (GPa) = 37.53127 43.83300 40.68214
# Shear Modulus (GPa) = 22.28552 25.02569 23.65561
#
# Velocity S-wave (km/s) = 3.46467 3.67150 3.56959
# Velocity P-wave (km/s) = 6.01841 6.44854 6.23718
#
# Compressibility (1/GPa) = 0.02664445
#
# Stress axis : x y z
#
# Youngs Moduli (GPa) = 105.28796 37.77655 65.96164
#
# Poissons Ratio (x) = 0.14530 0.14304
# Poissons Ratio (y) = 0.40498 0.41078
# Poissons Ratio (z) = 0.22832 0.23526
#
# Static dielectric constant tensor:
#      x y z
#    x 3.607380 0.000000 0.000000 
#    y 0.000000 3.128430 0.000000 
#    z 0.000000 0.000000 3.500410 
# 
# 
# High freq. dielectric constant tensor:
#      x y z
#    x 1.722450 0.000000 0.000000 
#    y 0.000000 1.682470 0.000000 
#    z 0.000000 0.000000 1.732940 
# 
# From -- ./inp_files/32883.got.cif
#   From: 2010.03.12/outbox.cif.g09.slc.cpg/sg72_17_cif.got.tgz:32883.got - 2010.04.16 14:54:00.
