data_PCOD8293568
_publ_section_title
;
Structure prediction by ZEFSAII (Michael W. Deem and Ramdas Pophale) SiO2 
 PCOD8293568
Probable space group: I B A M
;
_chemical_formula_sum "Si O2"
_cell_formula_units_Z 116
_cell_length_a 22.630666
_cell_length_b 27.224606
_cell_length_c 9.341480
_cell_angle_alpha 90.000000
_cell_angle_beta 90.000000
_cell_angle_gamma 90.000000
_cell_volume 5755.388261
_symmetry_space_group_name_H-M "I B A M"
_symmetry_group_IT_number 72
_symmetry_cell_setting 'orthorhombic'
loop_
_space_group_symop_operation_xyz
x,y,z
-x,-y,z
x,-y,1/2-z
-x,y,1/2-z
-x,-y,-z
x,y,-z
-x,y,1/2+z
x,-y,1/2+z
1/2+x,1/2+y,1/2+z
1/2-x,1/2-y,1/2+z
1/2+x,1/2-y,-z
1/2-x,1/2+y,-z
1/2-x,1/2-y,1/2-z
1/2+x,1/2+y,1/2-z
1/2-x,1/2+y,z
1/2+x,1/2-y,z
loop_
_atom_site_type_symbol
_atom_site_label
_atom_site_fract_x
_atom_site_fract_y
_atom_site_fract_z
Si Si1 0.223816 0.545604 0.665687
Si Si2 0.875144 0.666963 0.664490
Si Si3 0.000000 0.500000 0.250000
Si Si4 0.616775 0.651680 0.338946
Si Si5 0.247034 0.134640 0.838418
Si Si6 0.405656 0.076447 0.340727
Si Si7 0.558916 0.736009 0.831364
Si Si8 0.438656 0.451809 0.670049
O O1 0.250661 0.500000 0.750000
O O2 0.236011 0.538325 0.500000
O O3 0.258893 0.592350 0.721665
O O4 0.154603 0.549746 0.705135
O O5 0.888395 0.656638 0.500000
O O6 0.805101 0.666474 0.699522
O O7 0.913629 0.624638 0.742773
O O8 0.895204 0.721168 0.708856
O O9 0.958580 0.536749 0.160053
O O10 0.594823 0.664361 0.500000
O O11 0.686377 0.665004 0.325230
O O12 0.582000 0.683939 0.224692
O O13 0.605358 0.594106 0.307574
O O14 0.253401 0.113234 0.000000
O O15 0.399770 0.097260 0.500000
O O16 0.500000 0.750750 0.750000
O O17 0.547589 0.731593 0.000000
O O18 0.411510 0.500000 0.750000
O O19 0.500000 0.439217 0.750000
O O20 0.448478 0.461975 0.500000
#
# Coordination Sequence:
#
# PCOD8293568 Si02
#       8
#    16  16   4  16  16  16  16  16
#     4  10  19  34  53  77 109 149 194 239 290 346
#     4   9  21  41  62  84 115 153 195 244 295 351
#     4  12  22  36  52  86 118 152 200 250 302 352
#     4  10  22  39  61  90 121 153 191 237 290 350
#     4   9  19  38  60  83 114 151 190 238 295 351
#     4  10  22  36  54  80 112 151 195 243 296 352
#     4  11  24  41  62  89 118 154 196 240 293 347
#     4  10  20  35  56  84 117 153 190 229 279 336
#
# _framework density 20.155024999999998
#
# number of rings (size 3 to 8) (size 9 to 14) (size 15 to 20)
#    0.000    2.069    0.690    2.276    0.966    6.621 
#    0.000    1.379    0.000    0.000    0.000    0.000 
#    0.000    0.000    0.000    0.000    0.000    0.000 
#
# Total GULP energy -718976.928202 kJ/mol
# GULP energy per Si atom -12396.153935 kJ/mol
# Density = 2.010915 g / cm^3
# Si number density = 20.155025 Si / 1000 Ang^3
#
#
#
# Elastic Constant Matrix: (Units=GPa)
#
#
# Indices 1 2 3 4 5 6 
#
# 1 80.1847 34.8827 31.3819 0.0000 0.0000 0.0000
# 2 34.8827 112.4387 58.0245 0.0000 0.0000 0.0000
# 3 31.3819 58.0245 105.8839 0.0000 0.0000 0.0000
# 4 0.0000 0.0000 0.0000 31.0699 0.0000 0.0000
# 5 0.0000 0.0000 0.0000 0.0000 21.9548 0.0000
# 6 0.0000 0.0000 0.0000 0.0000 0.0000 20.6566
#
#
#
# Elastic Compliance Matrix: (Units=1/GPa)
#
#
# Indices 1 2 3 4 5 6 
#
# 1 0.014924 -0.003273 -0.002630 0.000000 0.000000 0.000000
# 2 -0.003273 0.013118 -0.006219 0.000000 0.000000 0.000000
# 3 -0.002630 -0.006219 0.013632 0.000000 0.000000 0.000000
# 4 0.000000 0.000000 0.000000 0.032186 0.000000 0.000000
# 5 0.000000 0.000000 0.000000 0.000000 0.045548 0.000000
# 6 0.000000 0.000000 0.000000 0.000000 0.000000 0.048411
#
#
# Mechanical properties :
#
#
# Convention : Reuss Voigt Hill
#
# Bulk Modulus (GPa) = 57.36818 60.78726 59.07772
# Shear Modulus (GPa) = 25.26886 26.35080 25.80983
#
# Velocity S-wave (km/s) = 3.54464 3.61973 3.58238
# Velocity P-wave (km/s) = 6.72888 6.90617 6.81811
#
# Compressibility (1/GPa) = 0.01743127
#
# Stress axis : x y z
#
# Youngs Moduli (GPa) = 67.00512 76.22866 73.35886
#
# Poissons Ratio (x) = 0.24950 0.19291
# Poissons Ratio (y) = 0.21931 0.45621
# Poissons Ratio (z) = 0.17620 0.47406
#
# Static dielectric constant tensor:
#      x y z
#    x 3.714640 0.000000 0.000000 
#    y 0.000000 3.556070 0.000000 
#    z 0.000000 0.000000 3.674710 
# 
# 
# High freq. dielectric constant tensor:
#      x y z
#    x 1.784080 0.000000 0.000000 
#    y 0.000000 1.777640 0.000000 
#    z 0.000000 0.000000 1.791460 
# 
# From -- ./inp_files/7369.got.cif
#   From: 2010.03.12/outbox.cif.g09.slc.cpg/sg72_4_cif.got.tgz:7369.got - 2010.04.16 14:54:00.
