data_PCOD8293088
_publ_section_title
;
Structure prediction by ZEFSAII (Michael W. Deem and Ramdas Pophale) SiO2 
 PCOD8293088
Probable space group: I B A M
;
_chemical_formula_sum "Si O2"
_cell_formula_units_Z 116
_cell_length_a 17.651746
_cell_length_b 19.218847
_cell_length_c 17.623615
_cell_angle_alpha 90.000000
_cell_angle_beta 90.000000
_cell_angle_gamma 90.000000
_cell_volume 5978.744519
_symmetry_space_group_name_H-M "I B A M"
_symmetry_group_IT_number 72
_symmetry_cell_setting 'orthorhombic'
loop_
_space_group_symop_operation_xyz
x,y,z
-x,-y,z
x,-y,1/2-z
-x,y,1/2-z
-x,-y,-z
x,y,-z
-x,y,1/2+z
x,-y,1/2+z
1/2+x,1/2+y,1/2+z
1/2-x,1/2-y,1/2+z
1/2+x,1/2-y,-z
1/2-x,1/2+y,-z
1/2-x,1/2-y,1/2-z
1/2+x,1/2+y,1/2-z
1/2-x,1/2+y,z
1/2+x,1/2-y,z
loop_
_atom_site_type_symbol
_atom_site_label
_atom_site_fract_x
_atom_site_fract_y
_atom_site_fract_z
Si Si1 0.500000 0.000000 0.750000
Si Si2 0.873227 0.953136 0.910591
Si Si3 0.523849 0.326959 0.910020
Si Si4 0.077238 0.624252 0.178238
Si Si5 0.627457 0.606618 0.090182
Si Si6 0.704792 0.100437 0.910647
Si Si7 0.073218 0.688023 0.659571
Si Si8 0.795528 0.442798 0.089433
O O1 0.555752 0.046170 0.700157
O O2 0.936392 0.898683 0.885737
O O3 0.790193 0.926960 0.884364
O O4 0.892655 0.029582 0.877232
O O5 0.870278 0.960705 0.000000
O O6 0.435604 0.336371 0.884666
O O7 0.566481 0.269007 0.860499
O O8 0.532248 0.311141 0.000000
O O9 0.087834 0.674594 0.251106
O O10 0.152891 0.616642 0.128859
O O11 0.006142 0.654402 0.130718
O O12 0.712180 0.625609 0.119424
O O13 0.625366 0.603490 0.000000
O O14 0.642738 0.154825 0.884495
O O15 0.684938 0.021854 0.883788
O O16 0.707877 0.100161 0.000000
O O17 0.807688 0.434466 0.000000
#
# Coordination Sequence:
#
# PCOD8293088 Si02
#       8
#     4  16  16  16  16  16  16  16
#     4   8  16  32  54  72  92 140 180 210 244 288
#     4   8  15  29  51  80 107 130 168 222 270 306
#     4  10  18  31  52  78 105 139 179 213 256 315
#     4  10  20  35  52  72 101 139 180 214 254 310
#     4   8  15  29  52  80 107 135 170 219 265 306
#     4   9  17  31  52  81 111 134 166 215 268 311
#     4  10  21  34  49  71 106 147 175 209 253 314
#     4   9  17  31  53  79 104 130 169 226 272 307
#
# _framework density 19.402066999999999
#
# number of rings (size 3 to 8) (size 9 to 14) (size 15 to 20)
#    0.000    3.034    0.000    4.138    0.000    2.759 
#    2.483    2.414    3.034    0.000    0.000    3.862 
#    0.000    0.000    0.000    0.000    0.000    0.552 
#
# Total GULP energy -718597.549140 kJ/mol
# GULP energy per Si atom -12389.612916 kJ/mol
# Density = 1.935791 g / cm^3
# Si number density = 19.402067 Si / 1000 Ang^3
#
#
#
# Elastic Constant Matrix: (Units=GPa)
#
#
# Indices 1 2 3 4 5 6 
#
# 1 121.6959 48.8956 19.8160 0.0000 0.0000 0.0000
# 2 48.8956 78.0098 27.1085 0.0000 0.0000 0.0000
# 3 19.8160 27.1085 22.1585 0.0000 0.0000 0.0000
# 4 0.0000 0.0000 0.0000 17.5066 0.0000 0.0000
# 5 0.0000 0.0000 0.0000 0.0000 0.4497 0.0000
# 6 0.0000 0.0000 0.0000 0.0000 0.0000 20.3386
#
#
#
# Elastic Compliance Matrix: (Units=1/GPa)
#
#
# Indices 1 2 3 4 5 6 
#
# 1 0.011059 -0.006080 -0.002452 0.000000 0.000000 0.000000
# 2 -0.006080 0.025641 -0.025932 0.000000 0.000000 0.000000
# 3 -0.002452 -0.025932 0.079047 0.000000 0.000000 0.000000
# 4 0.000000 0.000000 0.000000 0.057121 0.000000 0.000000
# 5 0.000000 0.000000 0.000000 0.000000 2.223760 0.000000
# 6 0.000000 0.000000 0.000000 0.000000 0.000000 0.049168
#
#
# Mechanical properties :
#
#
# Convention : Reuss Voigt Hill
#
# Bulk Modulus (GPa) = 21.35852 45.94494 33.65173
# Shear Modulus (GPa) = 1.97603 16.06192 9.01897
#
# Velocity S-wave (km/s) = 1.01028 2.88035 2.15837
# Velocity P-wave (km/s) = 3.52039 5.89862 4.85731
#
# Compressibility (1/GPa) = 0.04681971
#
# Stress axis : x y z
#
# Youngs Moduli (GPa) = 90.42240 39.00018 12.65063
#
# Poissons Ratio (x) = 0.23710 0.03102
# Poissons Ratio (y) = 0.54973 0.32806
# Poissons Ratio (z) = 0.22175 1.01135
#
# Static dielectric constant tensor:
#      x y z
#    x 4.981630 0.000000 0.000000 
#    y 0.000000 3.867460 0.000000 
#    z 0.000000 0.000000 3.103710 
# 
# 
# High freq. dielectric constant tensor:
#      x y z
#    x 1.770390 0.000000 0.000000 
#    y 0.000000 1.743430 0.000000 
#    z 0.000000 0.000000 1.708180 
# 
# From -- ./inp_files/31757.got.cif
#   From: 2010.03.12/outbox.cif.g09.slc.cpg/sg72_16_cif.got.tgz:31757.got - 2010.04.16 14:54:00.
