data_PCOD8293708
_publ_section_title
;
Structure prediction by ZEFSAII (Michael W. Deem and Ramdas Pophale) SiO2 
 PCOD8293708
Probable space group: I B A M
;
_chemical_formula_sum "Si O2"
_cell_formula_units_Z 96
_cell_length_a 12.778030
_cell_length_b 16.475446
_cell_length_c 23.147263
_cell_angle_alpha 90.000000
_cell_angle_beta 90.000000
_cell_angle_gamma 90.000000
_cell_volume 4873.048453
_symmetry_space_group_name_H-M "I B A M"
_symmetry_group_IT_number 72
_symmetry_cell_setting 'orthorhombic'
loop_
_space_group_symop_operation_xyz
x,y,z
-x,-y,z
x,-y,1/2-z
-x,y,1/2-z
-x,-y,-z
x,y,-z
-x,y,1/2+z
x,-y,1/2+z
1/2+x,1/2+y,1/2+z
1/2-x,1/2-y,1/2+z
1/2+x,1/2-y,-z
1/2-x,1/2+y,-z
1/2-x,1/2-y,1/2-z
1/2+x,1/2+y,1/2-z
1/2-x,1/2+y,z
1/2+x,1/2-y,z
loop_
_atom_site_type_symbol
_atom_site_label
_atom_site_fract_x
_atom_site_fract_y
_atom_site_fract_z
Si Si1 0.886267 0.017025 0.161776
Si Si2 0.917800 0.688029 0.434026
Si Si3 0.658746 0.633156 0.935286
Si Si4 0.202266 0.413498 0.233258
Si Si5 0.135723 0.682487 0.372745
Si Si6 0.765462 0.853600 0.148623
O O1 0.902228 0.069642 0.104221
O O2 0.818685 0.066814 0.208681
O O3 0.831726 0.934593 0.141698
O O4 0.000000 0.000000 0.188988
O O5 0.916796 0.656132 0.500000
O O6 0.905300 0.784106 0.432062
O O7 0.824314 0.644436 0.399852
O O8 0.026923 0.667644 0.404163
O O9 0.776978 0.645689 0.914381
O O10 0.661937 0.598860 0.000000
O O11 0.149043 0.500000 0.250000
O O12 0.131033 0.368062 0.186727
O O13 0.212877 0.353308 0.287827
O O14 0.159084 0.776351 0.358751
#
# Coordination Sequence:
#
# PCOD8293708 Si02
#       6
#    16  16  16  16  16  16
#     4  10  20  36  57  83 113 144 179 225 281 335
#     4  10  21  37  57  81 110 147 189 231 274 323
#     4   9  19  35  54  80 114 147 184 229 275 328
#     4   9  20  37  55  81 115 145 181 228 278 333
#     4  10  19  36  59  80 109 149 188 227 275 329
#     4  10  21  36  56  86 114 140 183 230 274 331
#
# _framework density 19.700194
#
# number of rings (size 3 to 8) (size 9 to 14) (size 15 to 20)
#    0.000    2.333    0.000    2.000    0.000    5.333 
#    0.000   11.667    0.000   10.000    0.000    0.000 
#    0.000    0.000    0.000    0.000    0.000    0.000 
#
# Total GULP energy -595250.122599 kJ/mol
# GULP energy per Si atom -12401.044221 kJ/mol
# Density = 1.965536 g / cm^3
# Si number density = 19.700194 Si / 1000 Ang^3
#
#
#
# Elastic Constant Matrix: (Units=GPa)
#
#
# Indices 1 2 3 4 5 6 
#
# 1 104.4709 33.6184 48.9843 0.0000 0.0000 0.0000
# 2 33.6184 55.6545 40.4422 0.0000 0.0000 0.0000
# 3 48.9843 40.4422 150.6160 0.0000 0.0000 0.0000
# 4 0.0000 0.0000 0.0000 32.6251 0.0000 0.0000
# 5 0.0000 0.0000 0.0000 0.0000 22.2599 0.0000
# 6 0.0000 0.0000 0.0000 0.0000 0.0000 19.0428
#
#
#
# Elastic Compliance Matrix: (Units=1/GPa)
#
#
# Indices 1 2 3 4 5 6 
#
# 1 0.012628 -0.005769 -0.002558 0.000000 0.000000 0.000000
# 2 -0.005769 0.024960 -0.004826 0.000000 0.000000 0.000000
# 3 -0.002558 -0.004826 0.008767 0.000000 0.000000 0.000000
# 4 0.000000 0.000000 0.000000 0.030651 0.000000 0.000000
# 5 0.000000 0.000000 0.000000 0.000000 0.044924 0.000000
# 6 0.000000 0.000000 0.000000 0.000000 0.000000 0.052513
#
#
# Mechanical properties :
#
#
# Convention : Reuss Voigt Hill
#
# Bulk Modulus (GPa) = 49.87765 61.87015 55.87390
# Shear Modulus (GPa) = 24.10438 27.29866 25.70152
#
# Velocity S-wave (km/s) = 3.50174 3.72654 3.61589
# Velocity P-wave (km/s) = 6.45932 7.07038 6.77175
#
# Compressibility (1/GPa) = 0.02004906
#
# Stress axis : x y z
#
# Youngs Moduli (GPa) = 79.18987 40.06476 114.06400
#
# Poissons Ratio (x) = 0.23114 0.29175
# Poissons Ratio (y) = 0.45687 0.55043
# Poissons Ratio (z) = 0.20255 0.19334
#
# Static dielectric constant tensor:
#      x y z
#    x 3.362560 0.000000 0.000000 
#    y 0.000000 3.610470 0.000000 
#    z 0.000000 0.000000 3.840470 
# 
# 
# High freq. dielectric constant tensor:
#      x y z
#    x 1.756490 0.000000 0.000000 
#    y 0.000000 1.764950 0.000000 
#    z 0.000000 0.000000 1.782770 
# 
# From -- ./inp_files/43347.got.cif
#   From: 2010.03.12/outbox.cif.g09.slc.cpg/sg72_22_cif.got.tgz:43347.got - 2010.04.16 14:54:00.
