data_PCOD8293748
_publ_section_title
;
Structure prediction by ZEFSAII (Michael W. Deem and Ramdas Pophale) SiO2 
 PCOD8293748
Probable space group: I B A M
;
_chemical_formula_sum "Si O2"
_cell_formula_units_Z 96
_cell_length_a 20.721511
_cell_length_b 13.947478
_cell_length_c 16.922388
_cell_angle_alpha 90.000000
_cell_angle_beta 90.000000
_cell_angle_gamma 90.000000
_cell_volume 4890.787057
_symmetry_space_group_name_H-M "I B A M"
_symmetry_group_IT_number 72
_symmetry_cell_setting 'orthorhombic'
loop_
_space_group_symop_operation_xyz
x,y,z
-x,-y,z
x,-y,1/2-z
-x,y,1/2-z
-x,-y,-z
x,y,-z
-x,y,1/2+z
x,-y,1/2+z
1/2+x,1/2+y,1/2+z
1/2-x,1/2-y,1/2+z
1/2+x,1/2-y,-z
1/2-x,1/2+y,-z
1/2-x,1/2-y,1/2-z
1/2+x,1/2+y,1/2-z
1/2-x,1/2+y,z
1/2+x,1/2-y,z
loop_
_atom_site_type_symbol
_atom_site_label
_atom_site_fract_x
_atom_site_fract_y
_atom_site_fract_z
Si Si1 0.188254 0.905863 0.092186
Si Si2 0.312237 0.998868 0.659224
Si Si3 0.941645 0.948424 0.664262
Si Si4 0.836308 0.303058 0.088008
Si Si5 0.476233 0.254678 0.089312
Si Si6 0.444372 0.926907 0.907306
O O1 0.257163 0.949320 0.109552
O O2 0.129140 0.966760 0.128830
O O3 0.186069 0.797710 0.126156
O O4 0.174191 0.901799 0.000000
O O5 0.379887 0.050246 0.641316
O O6 0.294782 0.000000 0.750000
O O7 0.308288 0.887631 0.639506
O O8 0.963214 0.836096 0.656131
O O9 0.940347 0.000000 0.750000
O O10 0.000000 0.000000 0.616271
O O11 0.913515 0.312954 0.086384
O O12 0.807833 0.313605 0.000000
O O13 0.535093 0.183305 0.112076
O O14 0.486442 0.297723 0.000000
O O15 0.500000 0.000000 0.879665
O O16 0.429764 0.939972 0.000000
#
# Coordination Sequence:
#
# PCOD8293748 Si02
#       6
#    16  16  16  16  16  16
#     4  10  22  41  66  88 116 164 218 258 296 364
#     4  12  24  38  57  94 131 165 198 253 320 377
#     4  10  21  40  60  92 124 162 198 250 322 374
#     4   9  18  38  63  84 114 162 206 250 309 361
#     4   9  18  36  63  89 118 162 212 258 302 361
#     4  10  19  37  64  91 120 163 216 260 302 365
#
# _framework density 19.628743
#
# number of rings (size 3 to 8) (size 9 to 14) (size 15 to 20)
#    0.000    2.000    1.667    3.500    0.000    2.333 
#   15.000    0.000    0.000    0.000    0.000    0.000 
#    0.000    0.000    0.000    0.000    0.000    0.000 
#
# Total GULP energy -594758.115072 kJ/mol
# GULP energy per Si atom -12390.794064 kJ/mol
# Density = 1.958407 g / cm^3
# Si number density = 19.628743 Si / 1000 Ang^3
#
#
#
# Elastic Constant Matrix: (Units=GPa)
#
#
# Indices 1 2 3 4 5 6 
#
# 1 116.6081 51.9196 17.4172 0.0000 0.0000 0.0000
# 2 51.9196 113.2198 48.7389 0.0000 0.0000 0.0000
# 3 17.4172 48.7389 66.9216 0.0000 0.0000 0.0000
# 4 0.0000 0.0000 0.0000 31.3532 0.0000 0.0000
# 5 0.0000 0.0000 0.0000 0.0000 30.4151 0.0000
# 6 0.0000 0.0000 0.0000 0.0000 0.0000 23.1034
#
#
#
# Elastic Compliance Matrix: (Units=1/GPa)
#
#
# Indices 1 2 3 4 5 6 
#
# 1 0.010838 -0.005471 0.001164 0.000000 0.000000 0.000000
# 2 -0.005471 0.015628 -0.009958 0.000000 0.000000 0.000000
# 3 0.001164 -0.009958 0.021892 0.000000 0.000000 0.000000
# 4 0.000000 0.000000 0.000000 0.031895 0.000000 0.000000
# 5 0.000000 0.000000 0.000000 0.000000 0.032878 0.000000
# 6 0.000000 0.000000 0.000000 0.000000 0.000000 0.043284
#
#
# Mechanical properties :
#
#
# Convention : Reuss Voigt Hill
#
# Bulk Modulus (GPa) = 50.43389 59.21123 54.82256
# Shear Modulus (GPa) = 26.10229 28.88593 27.49411
#
# Velocity S-wave (km/s) = 3.65060 3.84032 3.74666
# Velocity P-wave (km/s) = 6.59688 7.06365 6.83425
#
# Compressibility (1/GPa) = 0.01982794
#
# Stress axis : x y z
#
# Youngs Moduli (GPa) = 92.26944 63.98825 45.67814
#
# Poissons Ratio (x) = 0.35007 -0.05316
# Poissons Ratio (y) = 0.50480 0.45486
# Poissons Ratio (z) = -0.10738 0.63719
#
# Static dielectric constant tensor:
#      x y z
#    x 3.602850 0.000000 0.000000 
#    y 0.000000 3.628420 0.000000 
#    z 0.000000 0.000000 3.357310 
# 
# 
# High freq. dielectric constant tensor:
#      x y z
#    x 1.764590 0.000000 0.000000 
#    y 0.000000 1.768450 0.000000 
#    z 0.000000 0.000000 1.746150 
# 
# From -- ./inp_files/24153.got.cif
#   From: 2010.03.12/outbox.cif.g09.slc.cpg/sg72_13_cif.got.tgz:24153.got - 2010.04.16 14:54:00.
