data_PCOD8293048
_publ_section_title
;
Structure prediction by ZEFSAII (Michael W. Deem and Ramdas Pophale) SiO2 
 PCOD8293048
Probable space group: I B A M
;
_chemical_formula_sum "Si O2"
_cell_formula_units_Z 128
_cell_length_a 11.859998
_cell_length_b 28.016541
_cell_length_c 22.018283
_cell_angle_alpha 90.000000
_cell_angle_beta 90.000000
_cell_angle_gamma 90.000000
_cell_volume 7316.149649
_symmetry_space_group_name_H-M "I B A M"
_symmetry_group_IT_number 72
_symmetry_cell_setting 'orthorhombic'
loop_
_space_group_symop_operation_xyz
x,y,z
-x,-y,z
x,-y,1/2-z
-x,y,1/2-z
-x,-y,-z
x,y,-z
-x,y,1/2+z
x,-y,1/2+z
1/2+x,1/2+y,1/2+z
1/2-x,1/2-y,1/2+z
1/2+x,1/2-y,-z
1/2-x,1/2+y,-z
1/2-x,1/2-y,1/2-z
1/2+x,1/2+y,1/2-z
1/2-x,1/2+y,z
1/2+x,1/2-y,z
loop_
_atom_site_type_symbol
_atom_site_label
_atom_site_fract_x
_atom_site_fract_y
_atom_site_fract_z
Si Si1 0.374684 0.505551 0.430855
Si Si2 0.366652 0.555847 0.251999
Si Si3 0.870417 0.333263 0.571676
Si Si4 0.688385 0.398291 0.378488
Si Si5 0.315964 0.729282 0.928419
Si Si6 0.868690 0.655886 0.571134
Si Si7 0.208196 0.083368 0.124788
Si Si8 0.019986 0.851692 0.428493
O O1 0.500000 0.500000 0.401152
O O2 0.378811 0.489005 0.500000
O O3 0.333070 0.559612 0.426529
O O4 0.286881 0.472014 0.395007
O O5 0.333894 0.500000 0.250000
O O6 0.500000 0.562479 0.250000
O O7 0.315393 0.580398 0.311368
O O8 0.311787 0.585175 0.196730
O O9 0.847324 0.339058 0.500000
O O10 0.809972 0.375342 0.608673
O O11 0.824413 0.282713 0.597727
O O12 0.002015 0.336171 0.586802
O O13 0.594478 0.357598 0.390311
O O14 0.200359 0.703186 0.908177
O O15 0.423570 0.698028 0.907299
O O16 0.320571 0.733433 0.000000
O O17 0.848129 0.646082 0.500000
O O18 0.824216 0.610098 0.608447
O O19 0.105061 0.105583 0.086795
O O20 0.992760 0.852070 0.500000
#
# Coordination Sequence:
#
# PCOD8293048 Si02
#       8
#    16  16  16  16  16  16  16  16
#     4  11  19  29  49  81 115 141 173 232 294 339
#     4  11  21  37  55  80 112 147 191 234 284 332
#     4  10  21  36  55  84 120 150 182 232 285 339
#     4  12  22  33  52  85 117 147 188 234 282 333
#     4   8  17  32  55  83 113 147 180 220 283 351
#     4   9  19  36  56  82 113 149 188 223 278 347
#     4  11  19  34  55  77 107 147 190 230 274 334
#     4  10  18  30  52  85 114 140 177 226 287 346
#
# _framework density 17.495540999999999
#
# number of rings (size 3 to 8) (size 9 to 14) (size 15 to 20)
#    0.000    1.750    3.750    3.000    1.750    0.000 
#    0.000    1.250    0.000    6.000    6.500    0.000 
#    0.000    0.000    0.000    0.000    0.000    0.000 
#
# Total GULP energy -793612.702184 kJ/mol
# GULP energy per Si atom -12400.198472 kJ/mol
# Density = 1.745572 g / cm^3
# Si number density = 17.495541 Si / 1000 Ang^3
#
#
#
# Elastic Constant Matrix: (Units=GPa)
#
#
# Indices 1 2 3 4 5 6 
#
# 1 112.1040 65.7304 39.6153 0.0000 0.0000 0.0000
# 2 65.7304 116.3045 38.7495 0.0000 0.0000 0.0000
# 3 39.6153 38.7495 80.4191 0.0000 0.0000 0.0000
# 4 0.0000 0.0000 0.0000 15.1802 0.0000 0.0000
# 5 0.0000 0.0000 0.0000 0.0000 20.7686 0.0000
# 6 0.0000 0.0000 0.0000 0.0000 0.0000 26.6380
#
#
#
# Elastic Compliance Matrix: (Units=1/GPa)
#
#
# Indices 1 2 3 4 5 6 
#
# 1 0.014223 -0.006795 -0.003733 0.000000 0.000000 0.000000
# 2 -0.006795 0.013488 -0.003152 0.000000 0.000000 0.000000
# 3 -0.003733 -0.003152 0.015792 0.000000 0.000000 0.000000
# 4 0.000000 0.000000 0.000000 0.065875 0.000000 0.000000
# 5 0.000000 0.000000 0.000000 0.000000 0.048150 0.000000
# 6 0.000000 0.000000 0.000000 0.000000 0.000000 0.037540
#
#
# Mechanical properties :
#
#
# Convention : Reuss Voigt Hill
#
# Bulk Modulus (GPa) = 61.93792 66.33534 64.13663
# Shear Modulus (GPa) = 21.94811 23.49952 22.72382
#
# Velocity S-wave (km/s) = 3.54573 3.66891 3.60784
# Velocity P-wave (km/s) = 7.22786 7.47969 7.35485
#
# Compressibility (1/GPa) = 0.01614520
#
# Stress axis : x y z
#
# Youngs Moduli (GPa) = 70.30702 74.13724 63.32170
#
# Poissons Ratio (x) = 0.50375 0.23635
# Poissons Ratio (y) = 0.47773 0.19960
# Poissons Ratio (z) = 0.26242 0.23369
#
# Static dielectric constant tensor:
#      x y z
#    x 3.107670 0.000000 0.000000 
#    y 0.000000 3.452050 0.000000 
#    z 0.000000 0.000000 3.043000 
# 
# 
# High freq. dielectric constant tensor:
#      x y z
#    x 1.656370 0.000000 0.000000 
#    y 0.000000 1.683220 0.000000 
#    z 0.000000 0.000000 1.648390 
# 
# From -- ./inp_files/43753.got.cif
#   From: 2010.03.12/outbox.cif.g09.slc.cpg/sg72_22_cif.got.tgz:43753.got - 2010.04.16 14:54:00.
