data_PCOD8293737
_publ_section_title
;
Structure prediction by ZEFSAII (Michael W. Deem and Ramdas Pophale) SiO2 
 PCOD8293737
Probable space group: I B A M
;
_chemical_formula_sum "Si O2"
_cell_formula_units_Z 116
_cell_length_a 28.003054
_cell_length_b 11.644519
_cell_length_c 18.355225
_cell_angle_alpha 90.000000
_cell_angle_beta 90.000000
_cell_angle_gamma 90.000000
_cell_volume 5985.310210
_symmetry_space_group_name_H-M "I B A M"
_symmetry_group_IT_number 72
_symmetry_cell_setting 'orthorhombic'
loop_
_space_group_symop_operation_xyz
x,y,z
-x,-y,z
x,-y,1/2-z
-x,y,1/2-z
-x,-y,-z
x,y,-z
-x,y,1/2+z
x,-y,1/2+z
1/2+x,1/2+y,1/2+z
1/2-x,1/2-y,1/2+z
1/2+x,1/2-y,-z
1/2-x,1/2+y,-z
1/2-x,1/2-y,1/2-z
1/2+x,1/2+y,1/2-z
1/2-x,1/2+y,z
1/2+x,1/2-y,z
loop_
_atom_site_type_symbol
_atom_site_label
_atom_site_fract_x
_atom_site_fract_y
_atom_site_fract_z
Si Si1 0.625124 0.519757 0.166184
Si Si2 0.297948 0.943373 0.674063
Si Si3 0.000000 0.500000 0.750000
Si Si4 0.539925 0.407018 0.913859
Si Si5 0.436219 0.815802 0.170387
Si Si6 0.699873 0.661967 0.656028
Si Si7 0.861370 0.252787 0.784026
Si Si8 0.343374 0.133918 0.582781
O O1 0.608370 0.500000 0.250000
O O2 0.589604 0.464271 0.108403
O O3 0.676333 0.463385 0.151157
O O4 0.630950 0.656259 0.153840
O O5 0.256484 0.855596 0.649877
O O6 0.347788 0.873469 0.679705
O O7 0.282896 0.000000 0.750000
O O8 0.306757 0.041698 0.615475
O O9 0.030087 0.580908 0.695941
O O10 0.500000 0.500000 0.891139
O O11 0.534087 0.284928 0.871580
O O12 0.539126 0.381946 0.000000
O O13 0.411034 0.760111 0.240638
O O14 0.395105 0.869454 0.120130
O O15 0.683158 0.721267 0.731388
O O16 0.681536 0.741786 0.590206
O O17 0.352005 0.102946 0.500000
#
# Coordination Sequence:
#
# PCOD8293737 Si02
#       8
#    16  16   4  16  16  16  16  16
#     4  10  19  37  60  92 118 148 205 251 310 361
#     4  12  21  36  64  93 127 159 217 265 300 356
#     4  12  28  40  68 108 116 148 222 282 312 364
#     4  11  24  41  63  91 122 163 206 253 320 392
#     4  11  22  44  66  91 127 161 203 262 317 382
#     4  10  21  34  62  91 119 160 204 260 302 358
#     4  10  20  37  61  94 121 157 197 256 320 358
#     4  11  24  43  62  84 126 177 207 242 314 386
#
# _framework density 19.380782
#
# number of rings (size 3 to 8) (size 9 to 14) (size 15 to 20)
#    0.000    1.241    6.897    2.897    3.862    0.828 
#    0.000    2.069    0.000    0.000    0.000    0.000 
#    0.000    0.000    0.000    0.000    0.000    0.000 
#
# Total GULP energy -719112.270109 kJ/mol
# GULP energy per Si atom -12398.487416 kJ/mol
# Density = 1.933667 g / cm^3
# Si number density = 19.380782 Si / 1000 Ang^3
#
#
#
# Elastic Constant Matrix: (Units=GPa)
#
#
# Indices 1 2 3 4 5 6 
#
# 1 84.5379 53.3817 37.9946 0.0000 0.0000 0.0000
# 2 53.3817 121.0987 50.1777 0.0000 0.0000 0.0000
# 3 37.9946 50.1777 73.2395 0.0000 0.0000 0.0000
# 4 0.0000 0.0000 0.0000 22.6362 0.0000 0.0000
# 5 0.0000 0.0000 0.0000 0.0000 11.3036 0.0000
# 6 0.0000 0.0000 0.0000 0.0000 0.0000 44.0399
#
#
#
# Elastic Compliance Matrix: (Units=1/GPa)
#
#
# Indices 1 2 3 4 5 6 
#
# 1 0.017793 -0.005612 -0.005386 0.000000 0.000000 0.000000
# 2 -0.005612 0.013301 -0.006202 0.000000 0.000000 0.000000
# 3 -0.005386 -0.006202 0.020697 0.000000 0.000000 0.000000
# 4 0.000000 0.000000 0.000000 0.044177 0.000000 0.000000
# 5 0.000000 0.000000 0.000000 0.000000 0.088468 0.000000
# 6 0.000000 0.000000 0.000000 0.000000 0.000000 0.022707
#
#
# Mechanical properties :
#
#
# Convention : Reuss Voigt Hill
#
# Bulk Modulus (GPa) = 57.49604 62.44268 59.96936
# Shear Modulus (GPa) = 20.21521 24.75074 22.48298
#
# Velocity S-wave (km/s) = 3.23314 3.57750 3.40967
# Velocity P-wave (km/s) = 6.60822 7.02520 6.81990
#
# Compressibility (1/GPa) = 0.01739250
#
# Stress axis : x y z
#
# Youngs Moduli (GPa) = 56.20116 75.18152 48.31680
#
# Poissons Ratio (x) = 0.42190 0.26023
# Poissons Ratio (y) = 0.31539 0.29964
# Poissons Ratio (z) = 0.30269 0.46625
#
# Static dielectric constant tensor:
#      x y z
#    x 3.421050 0.000000 0.000000 
#    y 0.000000 3.906630 0.000000 
#    z 0.000000 0.000000 3.287580 
# 
# 
# High freq. dielectric constant tensor:
#      x y z
#    x 1.746520 0.000000 0.000000 
#    y 0.000000 1.772310 0.000000 
#    z 0.000000 0.000000 1.720460 
# 
# From -- ./inp_files/33982.got.cif
#   From: 2010.03.12/outbox.cif.g09.slc.cpg/sg72_17_cif.got.tgz:33982.got - 2010.04.16 14:54:00.
