data_PCOD8293109
_publ_section_title
;
Structure prediction by ZEFSAII (Michael W. Deem and Ramdas Pophale) SiO2 
 PCOD8293109
Probable space group: I B A M
;
_chemical_formula_sum "Si O2"
_cell_formula_units_Z 104
_cell_length_a 9.059376
_cell_length_b 23.609264
_cell_length_c 23.941270
_cell_angle_alpha 90.000000
_cell_angle_beta 90.000000
_cell_angle_gamma 90.000000
_cell_volume 5120.683314
_symmetry_space_group_name_H-M "I B A M"
_symmetry_group_IT_number 72
_symmetry_cell_setting 'orthorhombic'
loop_
_space_group_symop_operation_xyz
x,y,z
-x,-y,z
x,-y,1/2-z
-x,y,1/2-z
-x,-y,-z
x,y,-z
-x,y,1/2+z
x,-y,1/2+z
1/2+x,1/2+y,1/2+z
1/2-x,1/2-y,1/2+z
1/2+x,1/2-y,-z
1/2-x,1/2+y,-z
1/2-x,1/2-y,1/2-z
1/2+x,1/2+y,1/2-z
1/2-x,1/2+y,z
1/2+x,1/2-y,z
loop_
_atom_site_type_symbol
_atom_site_label
_atom_site_fract_x
_atom_site_fract_y
_atom_site_fract_z
Si Si1 0.664216 0.374737 0.000000
Si Si2 0.835784 0.125263 0.000000
Si Si3 0.826046 0.392562 0.812035
Si Si4 0.826139 0.309880 0.405055
Si Si5 0.763969 0.000000 0.000000
Si Si6 0.326139 0.190120 0.094945
Si Si7 0.673954 0.107438 0.187966
Si Si8 0.832046 0.500000 0.876070
O O1 0.641070 0.442602 0.000000
O O2 0.756571 0.355440 0.946607
O O3 0.500000 0.347661 0.000000
O O4 0.743429 0.144560 0.946607
O O5 0.858931 0.057398 0.000000
O O6 0.792735 0.333048 0.842886
O O7 0.755091 0.391043 0.750000
O O8 0.756750 0.444314 0.848299
O O9 0.000000 0.400839 0.807526
O O10 0.750000 0.250000 0.414034
O O11 0.792735 0.333048 0.342886
O O12 1.000000 0.304575 0.417141
O O13 0.669327 0.000000 0.056807
O O14 0.743250 0.055686 0.151701
O O15 0.000000 0.500000 0.857259
#
# Coordination Sequence:
#
# PCOD8293109 Si02
#       8
#     8   8  16  16   8  16  16  16
#     4  12  25  42  62  88 122 159 194 241 301 364
#     4  12  25  42  62  88 122 159 194 241 301 364
#     4   9  18  33  56  87 121 158 198 242 294 351
#     4  11  23  40  62  89 120 158 201 250 296 351
#     4  12  22  36  60  92 117 158 191 244 299 362
#     4  11  23  40  62  89 120 158 201 250 296 351
#     4   9  18  33  56  87 121 158 198 242 294 351
#     4  10  18  31  56  90 125 153 193 247 299 356
#
# _framework density 20.30979
#
# number of rings (size 3 to 8) (size 9 to 14) (size 15 to 20)
#    0.000    1.538    3.077    2.769    0.000    3.692 
#    0.000    0.000    0.000    2.769    0.000    2.154 
#    0.000    0.000    0.000    0.000    0.000    0.000 
#
# Total GULP energy -644481.580350 kJ/mol
# GULP energy per Si atom -12393.876545 kJ/mol
# Density = 2.026356 g / cm^3
# Si number density = 20.309790 Si / 1000 Ang^3
#
#
#
# Elastic Constant Matrix: (Units=GPa)
#
#
# Indices 1 2 3 4 5 6 
#
# 1 83.1733 39.0673 30.9603 0.0000 0.0000 0.0000
# 2 39.0673 134.0101 55.7272 -0.0001 0.0000 0.0000
# 3 30.9603 55.7272 161.3797 -0.0001 0.0000 0.0000
# 4 0.0000 -0.0001 -0.0001 147.7749 0.0000 0.0000
# 5 0.0000 0.0000 0.0000 0.0000 10.8523 0.0000
# 6 0.0000 0.0000 0.0000 0.0000 0.0000 19.1882
#
#
#
# Elastic Compliance Matrix: (Units=1/GPa)
#
#
# Indices 1 2 3 4 5 6 
#
# 1 0.014241 -0.003521 -0.001516 0.000000 0.000000 0.000000
# 2 -0.003521 0.009584 -0.002634 0.000000 0.000000 0.000000
# 3 -0.001516 -0.002634 0.007397 0.000000 0.000000 0.000000
# 4 0.000000 0.000000 0.000000 0.006767 0.000000 0.000000
# 5 0.000000 0.000000 0.000000 0.000000 0.092146 0.000000
# 6 0.000000 0.000000 0.000000 0.000000 0.000000 0.052115
#
#
# Mechanical properties :
#
#
# Convention : Reuss Voigt Hill
#
# Bulk Modulus (GPa) = 62.97410 70.00808 66.49109
# Shear Modulus (GPa) = 24.64423 52.41697 38.53060
#
# Velocity S-wave (km/s) = 3.48719 5.08574 4.36035
# Velocity P-wave (km/s) = 6.87663 8.30851 7.62625
#
# Compressibility (1/GPa) = 0.01587954
#
# Stress axis : x y z
#
# Youngs Moduli (GPa) = 70.21765 104.34091 135.18968
#
# Poissons Ratio (x) = 0.36741 0.20498
# Poissons Ratio (y) = 0.24725 0.35609
# Poissons Ratio (z) = 0.10647 0.27483
#
# Static dielectric constant tensor:
#      x y z
#    x 3.200540 0.000000 0.000000 
#    y 0.000000 3.787570 0.000000 
#    z 0.000000 0.000000 4.091350 
# 
# 
# High freq. dielectric constant tensor:
#      x y z
#    x 1.745810 0.000000 0.000000 
#    y 0.000000 1.806030 0.000000 
#    z 0.000000 0.000000 1.805550 
# 
# From -- ./inp_files/47590.got.cif
#   From: 2010.03.12/outbox.cif.g09.slc.cpg/sg72_24_cif.got.tgz:47590.got - 2010.04.16 14:54:00.
