data_PCOD8293990
_publ_section_title
;
Structure prediction by ZEFSAII (Michael W. Deem and Ramdas Pophale) SiO2 
 PCOD8293990
Probable space group: I B A M
;
_chemical_formula_sum "Si O2"
_cell_formula_units_Z 116
_cell_length_a 26.854854
_cell_length_b 22.208949
_cell_length_c 9.426156
_cell_angle_alpha 90.000000
_cell_angle_beta 90.000000
_cell_angle_gamma 90.000000
_cell_volume 5621.929891
_symmetry_space_group_name_H-M "I B A M"
_symmetry_group_IT_number 72
_symmetry_cell_setting 'orthorhombic'
loop_
_space_group_symop_operation_xyz
x,y,z
-x,-y,z
x,-y,1/2-z
-x,y,1/2-z
-x,-y,-z
x,y,-z
-x,y,1/2+z
x,-y,1/2+z
1/2+x,1/2+y,1/2+z
1/2-x,1/2-y,1/2+z
1/2+x,1/2-y,-z
1/2-x,1/2+y,-z
1/2-x,1/2-y,1/2-z
1/2+x,1/2+y,1/2-z
1/2-x,1/2+y,z
1/2+x,1/2-y,z
loop_
_atom_site_type_symbol
_atom_site_label
_atom_site_fract_x
_atom_site_fract_y
_atom_site_fract_z
Si Si1 0.408461 0.575898 0.654357
Si Si2 0.049175 0.332990 0.332473
Si Si3 0.277955 0.944728 0.833649
Si Si4 0.181957 0.093273 0.166377
Si Si5 0.141241 0.654959 0.338214
Si Si6 0.202158 0.230884 0.162566
Si Si7 0.000000 0.000000 0.750000
Si Si8 0.456461 0.302905 0.156138
O O1 0.385974 0.559074 0.500000
O O2 0.369596 0.561372 0.780505
O O3 0.462250 0.543037 0.663264
O O4 0.412791 0.648490 0.661279
O O5 0.044612 0.346377 0.500000
O O6 0.097061 0.366616 0.266447
O O7 0.059928 0.263254 0.293227
O O8 0.000000 0.355603 0.250000
O O9 0.225138 0.936128 0.758235
O O10 0.310949 0.886060 0.809564
O O11 0.304160 0.000000 0.750000
O O12 0.270823 0.959187 0.000000
O O13 0.182139 0.164508 0.198197
O O14 0.188489 0.079259 0.000000
O O15 0.122522 0.648198 0.500000
O O16 0.157168 0.723386 0.304607
O O17 0.250000 0.250000 0.250000
O O18 0.218874 0.235687 0.000000
O O19 0.500000 0.330133 0.250000
O O20 0.479052 0.295591 0.000000
#
# Coordination Sequence:
#
# PCOD8293990 Si02
#       8
#    16  16  16  16  16  16   4  16
#     4  11  24  41  60  81 110 151 204 262 319 369
#     4  10  20  34  58  90 123 157 195 239 292 361
#     4  11  24  43  65  88 121 161 204 249 298 358
#     4  11  24  40  63  92 122 159 204 255 314 377
#     4  10  21  38  61  90 125 163 199 245 304 361
#     4  10  20  36  60  93 128 161 200 251 310 376
#     4  12  26  44  64  82 110 156 220 282 326 368
#     4   9  18  34  54  79 110 149 191 239 298 358
#
# _framework density 20.633483999999999
#
# number of rings (size 3 to 8) (size 9 to 14) (size 15 to 20)
#    0.000    1.655    2.069    2.276    0.966    4.414 
#    0.000    0.000    0.000    0.414    0.000    2.897 
#    0.000    0.000    0.000    0.000    0.000    0.000 
#
# Total GULP energy -718902.812139 kJ/mol
# GULP energy per Si atom -12394.876071 kJ/mol
# Density = 2.058652 g / cm^3
# Si number density = 20.633484 Si / 1000 Ang^3
#
#
#
# Elastic Constant Matrix: (Units=GPa)
#
#
# Indices 1 2 3 4 5 6 
#
# 1 117.3184 14.3775 68.2772 0.0000 0.0000 0.0000
# 2 14.3775 57.8521 24.1051 0.0000 0.0000 0.0000
# 3 68.2772 24.1051 131.2657 0.0000 0.0000 0.0000
# 4 0.0000 0.0000 0.0000 14.6050 0.0000 0.0000
# 5 0.0000 0.0000 0.0000 0.0000 42.5491 0.0000
# 6 0.0000 0.0000 0.0000 0.0000 0.0000 16.2173
#
#
#
# Elastic Compliance Matrix: (Units=1/GPa)
#
#
# Indices 1 2 3 4 5 6 
#
# 1 0.012234 -0.000421 -0.006286 0.000000 0.000000 0.000000
# 2 -0.000421 0.018732 -0.003221 0.000000 0.000000 0.000000
# 3 -0.006286 -0.003221 0.011479 0.000000 0.000000 0.000000
# 4 0.000000 0.000000 0.000000 0.068470 0.000000 0.000000
# 5 0.000000 0.000000 0.000000 0.000000 0.023502 0.000000
# 6 0.000000 0.000000 0.000000 0.000000 0.000000 0.061663
#
#
# Mechanical properties :
#
#
# Convention : Reuss Voigt Hill
#
# Bulk Modulus (GPa) = 44.26905 57.77287 51.02096
# Shear Modulus (GPa) = 22.37483 27.98604 25.18043
#
# Velocity S-wave (km/s) = 3.29659 3.68685 3.49717
# Velocity P-wave (km/s) = 5.99929 6.79589 6.40998
#
# Compressibility (1/GPa) = 0.02258914
#
# Stress axis : x y z
#
# Youngs Moduli (GPa) = 81.74103 53.38420 87.11398
#
# Poissons Ratio (x) = 0.02248 0.54760
# Poissons Ratio (y) = 0.03443 0.28058
# Poissons Ratio (z) = 0.51382 0.17194
#
# Static dielectric constant tensor:
#      x y z
#    x 3.481100 0.000000 0.000000 
#    y 0.000000 3.818010 0.000000 
#    z 0.000000 0.000000 3.871840 
# 
# 
# High freq. dielectric constant tensor:
#      x y z
#    x 1.796370 0.000000 0.000000 
#    y 0.000000 1.798750 0.000000 
#    z 0.000000 0.000000 1.814740 
# 
# From -- ./inp_files/8379.got.cif
#   From: 2010.03.12/outbox.cif.g09.slc.cpg/sg72_5_cif.got.tgz:8379.got - 2010.04.16 14:54:00.
