data_PCOD8293419
_publ_section_title
;
Structure prediction by ZEFSAII (Michael W. Deem and Ramdas Pophale) SiO2 
 PCOD8293419
Probable space group: I B A M
;
_chemical_formula_sum "Si O2"
_cell_formula_units_Z 112
_cell_length_a 25.391212
_cell_length_b 14.127486
_cell_length_c 18.003521
_cell_angle_alpha 90.000000
_cell_angle_beta 90.000000
_cell_angle_gamma 90.000000
_cell_volume 6458.114889
_symmetry_space_group_name_H-M "I B A M"
_symmetry_group_IT_number 72
_symmetry_cell_setting 'orthorhombic'
loop_
_space_group_symop_operation_xyz
x,y,z
-x,-y,z
x,-y,1/2-z
-x,y,1/2-z
-x,-y,-z
x,y,-z
-x,y,1/2+z
x,-y,1/2+z
1/2+x,1/2+y,1/2+z
1/2-x,1/2-y,1/2+z
1/2+x,1/2-y,-z
1/2-x,1/2+y,-z
1/2-x,1/2-y,1/2-z
1/2+x,1/2+y,1/2-z
1/2-x,1/2+y,z
1/2+x,1/2-y,z
loop_
_atom_site_type_symbol
_atom_site_label
_atom_site_fract_x
_atom_site_fract_y
_atom_site_fract_z
Si Si1 0.404504 0.312191 0.418479
Si Si2 0.941107 0.982100 0.415627
Si Si3 0.942860 0.269806 0.283914
Si Si4 0.379774 0.601621 0.290112
Si Si5 0.209971 0.240961 0.316056
Si Si6 0.152740 0.608175 0.730689
Si Si7 0.801714 0.298448 0.586674
O O1 0.422408 0.283766 0.500000
O O2 0.406971 0.423792 0.406482
O O3 0.446620 0.250999 0.371541
O O4 0.343466 0.286292 0.403359
O O5 0.942880 0.944665 0.500000
O O6 0.913085 0.903530 0.365962
O O7 0.000000 0.000000 0.385810
O O8 0.911217 0.175918 0.259669
O O9 0.909151 0.365033 0.272614
O O10 0.000000 0.282849 0.250000
O O11 0.374943 0.500000 0.250000
O O12 0.322340 0.642727 0.309568
O O13 0.250000 0.250000 0.250000
O O14 0.173373 0.332556 0.302673
O O15 0.242893 0.240216 0.393591
O O16 0.159890 0.500000 0.750000
O O17 0.181750 0.625098 0.650531
O O18 0.802022 0.335875 0.500000
#
# Coordination Sequence:
#
# PCOD8293419 Si02
#       7
#    16  16  16  16  16  16  16
#     4   9  17  32  51  73 104 135 168 211 260 317
#     4  10  20  32  48  75 110 140 164 205 269 330
#     4  10  19  32  53  80 102 135 179 213 259 319
#     4  11  21  31  52  77 105 135 172 218 262 324
#     4   9  20  35  50  73 103 138 174 219 270 312
#     4   9  19  36  54  75 107 139 178 224 269 311
#     4   9  18  35  57  76 101 137 181 227 269 317
#
# _framework density 17.342521999999999
#
# number of rings (size 3 to 8) (size 9 to 14) (size 15 to 20)
#    0.000    2.429    1.429    1.714    0.000    3.143 
#    0.000    0.714    0.000    2.571    0.000    4.000 
#    0.000    0.000    0.000    0.000    0.000    0.000 
#
# Total GULP energy -693756.493215 kJ/mol
# GULP energy per Si atom -12388.508807 kJ/mol
# Density = 1.730305 g / cm^3
# Si number density = 17.342522 Si / 1000 Ang^3
#
#
#
# Elastic Constant Matrix: (Units=GPa)
#
#
# Indices 1 2 3 4 5 6 
#
# 1 100.5634 31.2177 46.7608 0.0000 0.0000 0.0000
# 2 31.2177 87.2170 35.8009 0.0000 0.0000 0.0000
# 3 46.7608 35.8009 97.5170 0.0000 0.0000 0.0000
# 4 0.0000 0.0000 0.0000 14.5557 0.0000 0.0000
# 5 0.0000 0.0000 0.0000 0.0000 28.9407 0.0000
# 6 0.0000 0.0000 0.0000 0.0000 0.0000 21.9833
#
#
#
# Elastic Compliance Matrix: (Units=1/GPa)
#
#
# Indices 1 2 3 4 5 6 
#
# 1 0.013249 -0.002513 -0.005431 0.000000 0.000000 0.000000
# 2 -0.002513 0.013977 -0.003926 0.000000 0.000000 0.000000
# 3 -0.005431 -0.003926 0.014300 0.000000 0.000000 0.000000
# 4 0.000000 0.000000 0.000000 0.068702 0.000000 0.000000
# 5 0.000000 0.000000 0.000000 0.000000 0.034553 0.000000
# 6 0.000000 0.000000 0.000000 0.000000 0.000000 0.045489
#
#
# Mechanical properties :
#
#
# Convention : Reuss Voigt Hill
#
# Bulk Modulus (GPa) = 56.22286 56.98405 56.60346
# Shear Modulus (GPa) = 22.73358 24.53045 23.63201
#
# Velocity S-wave (km/s) = 3.62450 3.76502 3.69543
# Velocity P-wave (km/s) = 7.07146 7.19929 7.13566
#
# Compressibility (1/GPa) = 0.01778636
#
# Stress axis : x y z
#
# Youngs Moduli (GPa) = 75.47570 71.54710 69.92989
#
# Poissons Ratio (x) = 0.17981 0.37976
# Poissons Ratio (y) = 0.18969 0.27455
# Poissons Ratio (z) = 0.40988 0.28090
#
# Static dielectric constant tensor:
#      x y z
#    x 3.485690 0.000000 0.000000 
#    y 0.000000 3.042230 0.000000 
#    z 0.000000 0.000000 3.699110 
# 
# 
# High freq. dielectric constant tensor:
#      x y z
#    x 1.671970 0.000000 0.000000 
#    y 0.000000 1.641470 0.000000 
#    z 0.000000 0.000000 1.676100 
# 
# From -- ./inp_files/40326.got.cif
#   From: 2010.03.12/outbox.cif.g09.slc.cpg/sg72_21_cif.got.tgz:40326.got - 2010.04.16 14:54:00.
