data_PCOD8293879
_publ_section_title
;
Structure prediction by ZEFSAII (Michael W. Deem and Ramdas Pophale) SiO2 
 PCOD8293879
Probable space group: I B A M
;
_chemical_formula_sum "Si O2"
_cell_formula_units_Z 96
_cell_length_a 22.796459
_cell_length_b 12.664740
_cell_length_c 17.101809
_cell_angle_alpha 90.000000
_cell_angle_beta 90.000000
_cell_angle_gamma 90.000000
_cell_volume 4937.484246
_symmetry_space_group_name_H-M "I B A M"
_symmetry_group_IT_number 72
_symmetry_cell_setting 'orthorhombic'
loop_
_space_group_symop_operation_xyz
x,y,z
-x,-y,z
x,-y,1/2-z
-x,y,1/2-z
-x,-y,-z
x,y,-z
-x,y,1/2+z
x,-y,1/2+z
1/2+x,1/2+y,1/2+z
1/2-x,1/2-y,1/2+z
1/2+x,1/2-y,-z
1/2-x,1/2+y,-z
1/2-x,1/2-y,1/2-z
1/2+x,1/2+y,1/2-z
1/2-x,1/2+y,z
1/2+x,1/2-y,z
loop_
_atom_site_type_symbol
_atom_site_label
_atom_site_fract_x
_atom_site_fract_y
_atom_site_fract_z
Si Si1 0.612212 0.735284 0.589012
Si Si2 0.667685 0.245663 0.687068
Si Si3 0.672450 0.947094 0.908801
Si Si4 0.056697 0.450282 0.909916
Si Si5 0.787395 0.357470 0.665714
Si Si6 0.931566 0.123611 0.738005
O O1 0.610856 0.690517 0.500000
O O2 0.562246 0.824839 0.600053
O O3 0.677737 0.783503 0.602715
O O4 0.593407 0.645554 0.650586
O O5 0.671504 0.177842 0.607462
O O6 0.720767 0.326948 0.682718
O O7 0.675528 0.158378 0.755028
O O8 0.606906 0.309436 0.699261
O O9 0.612465 0.993072 0.873248
O O10 0.719277 0.020772 0.862766
O O11 0.682451 0.965875 0.000000
O O12 0.000000 0.500000 0.867053
O O13 0.055195 0.483517 0.000000
O O14 0.000000 0.154163 0.750000
O O15 0.922060 0.000000 0.750000
#
# Coordination Sequence:
#
# PCOD8293879 Si02
#       6
#    16  16  16  16  16  16
#     4   9  18  35  61  84 109 154 197 238 296 355
#     4  10  21  36  59  81 108 154 198 236 289 353
#     4  10  20  33  53  85 120 146 182 239 291 345
#     4   8  15  28  49  80 113 142 174 222 284 337
#     4   9  19  36  56  81 114 150 189 236 292 351
#     4  10  23  42  58  80 117 157 201 250 292 345
#
# _framework density 19.443100000000001
#
# number of rings (size 3 to 8) (size 9 to 14) (size 15 to 20)
#    0.000    2.667    0.000    2.000    2.333    5.333 
#    0.000    2.500    0.000    0.000    0.000    0.000 
#    0.000    0.000    0.000    0.000    0.000    0.000 
#
# Total GULP energy -594715.669989 kJ/mol
# GULP energy per Si atom -12389.909791 kJ/mol
# Density = 1.939885 g / cm^3
# Si number density = 19.443100 Si / 1000 Ang^3
#
#
#
# Elastic Constant Matrix: (Units=GPa)
#
#
# Indices 1 2 3 4 5 6 
#
# 1 95.5454 40.0278 32.3240 0.0000 0.0000 0.0000
# 2 40.0278 91.8390 32.6545 0.0000 0.0000 0.0000
# 3 32.3240 32.6545 68.7407 0.0000 0.0000 0.0000
# 4 0.0000 0.0000 0.0000 34.3784 0.0000 0.0000
# 5 0.0000 0.0000 0.0000 0.0000 17.4898 0.0000
# 6 0.0000 0.0000 0.0000 0.0000 0.0000 20.4614
#
#
#
# Elastic Compliance Matrix: (Units=1/GPa)
#
#
# Indices 1 2 3 4 5 6 
#
# 1 0.013818 -0.004467 -0.004376 0.000000 0.000000 0.000000
# 2 -0.004467 0.014545 -0.004809 0.000000 0.000000 0.000000
# 3 -0.004376 -0.004809 0.018890 0.000000 0.000000 0.000000
# 4 0.000000 0.000000 0.000000 0.029088 0.000000 0.000000
# 5 0.000000 0.000000 0.000000 0.000000 0.057176 0.000000
# 6 0.000000 0.000000 0.000000 0.000000 0.000000 0.048873
#
#
# Mechanical properties :
#
#
# Convention : Reuss Voigt Hill
#
# Bulk Modulus (GPa) = 50.12643 51.79305 50.95974
# Shear Modulus (GPa) = 23.11149 24.54051 23.82600
#
# Velocity S-wave (km/s) = 3.45145 3.55656 3.50440
# Velocity P-wave (km/s) = 6.45914 6.60012 6.53001
#
# Compressibility (1/GPa) = 0.01994955
#
# Stress axis : x y z
#
# Youngs Moduli (GPa) = 72.37031 68.75037 52.93916
#
# Poissons Ratio (x) = 0.30708 0.23165
# Poissons Ratio (y) = 0.32325 0.25460
# Poissons Ratio (z) = 0.31667 0.33064
#
# Static dielectric constant tensor:
#      x y z
#    x 3.737010 0.000000 0.000000 
#    y 0.000000 3.418500 0.000000 
#    z 0.000000 0.000000 3.468380 
# 
# 
# High freq. dielectric constant tensor:
#      x y z
#    x 1.752570 0.000000 0.000000 
#    y 0.000000 1.744830 0.000000 
#    z 0.000000 0.000000 1.746140 
# 
# From -- ./inp_files/33252.got.cif
#   From: 2010.03.12/outbox.cif.g09.slc.cpg/sg72_17_cif.got.tgz:33252.got - 2010.04.16 14:54:00.
