data_PCOD8293772
_publ_section_title
;
Structure prediction by ZEFSAII (Michael W. Deem and Ramdas Pophale) SiO2 
 PCOD8293772
Probable space group: I B A M
;
_chemical_formula_sum "Si O2"
_cell_formula_units_Z 112
_cell_length_a 31.210421
_cell_length_b 11.871997
_cell_length_c 15.508883
_cell_angle_alpha 90.000000
_cell_angle_beta 90.000000
_cell_angle_gamma 90.000000
_cell_volume 5746.506798
_symmetry_space_group_name_H-M "I B A M"
_symmetry_group_IT_number 72
_symmetry_cell_setting 'orthorhombic'
loop_
_space_group_symop_operation_xyz
x,y,z
-x,-y,z
x,-y,1/2-z
-x,y,1/2-z
-x,-y,-z
x,y,-z
-x,y,1/2+z
x,-y,1/2+z
1/2+x,1/2+y,1/2+z
1/2-x,1/2-y,1/2+z
1/2+x,1/2-y,-z
1/2-x,1/2+y,-z
1/2-x,1/2-y,1/2-z
1/2+x,1/2+y,1/2-z
1/2-x,1/2+y,z
1/2+x,1/2-y,z
loop_
_atom_site_type_symbol
_atom_site_label
_atom_site_fract_x
_atom_site_fract_y
_atom_site_fract_z
Si Si1 0.900567 0.709306 0.593913
Si Si2 0.327285 0.375814 0.650367
Si Si3 0.949652 0.631116 0.753858
Si Si4 0.166929 0.486736 0.596175
Si Si5 0.386960 0.810969 0.900735
Si Si6 0.734238 0.183858 0.397683
Si Si7 0.829793 0.129186 0.850338
O O1 0.923710 0.716800 0.500000
O O2 0.934175 0.701107 0.670902
O O3 0.872076 0.598861 0.596587
O O4 0.870703 0.818589 0.602542
O O5 0.365315 0.311793 0.600465
O O6 0.282176 0.314139 0.636342
O O7 0.323740 0.502613 0.614247
O O8 0.339513 0.372464 0.749671
O O9 0.937033 0.500000 0.750000
O O10 0.929317 0.683612 0.841171
O O11 0.000000 0.648239 0.750000
O O12 0.180930 0.520396 0.500000
O O13 0.148750 0.601508 0.639306
O O14 0.207614 0.424320 0.641423
O O15 0.399514 0.841297 0.000000
O O16 0.732208 0.176494 0.500000
O O17 0.713337 0.301355 0.368852
#
# Coordination Sequence:
#
# PCOD8293772 Si02
#       7
#    16  16  16  16  16  16  16
#     4  10  19  38  64  84 113 158 201 241 293 360
#     4  11  23  37  58  86 119 161 209 258 305 354
#     4  11  23  39  63  96 128 156 192 245 309 379
#     4   8  17  33  54  81 114 158 201 237 288 349
#     4  11  22  38  60  89 126 164 200 252 309 363
#     4  10  21  36  55  81 118 161 207 255 297 347
#     4  10  22  40  57  83 117 158 210 255 298 360
#
# _framework density 19.490100999999999
#
# number of rings (size 3 to 8) (size 9 to 14) (size 15 to 20)
#    0.000    1.857    2.857    2.143    2.000    2.857 
#    0.000    1.429    0.000    1.714    0.000    2.000 
#    0.000    0.000    0.000    0.000    0.000    0.000 
#
# Total GULP energy -694160.724618 kJ/mol
# GULP energy per Si atom -12395.727225 kJ/mol
# Density = 1.944574 g / cm^3
# Si number density = 19.490101 Si / 1000 Ang^3
#
#
#
# Elastic Constant Matrix: (Units=GPa)
#
#
# Indices 1 2 3 4 5 6 
#
# 1 98.5019 46.3814 40.7595 0.0000 0.0000 0.0000
# 2 46.3814 112.2575 27.7611 0.0000 0.0000 0.0000
# 3 40.7595 27.7611 98.9574 0.0000 0.0000 0.0000
# 4 0.0000 0.0000 0.0000 19.2031 0.0000 0.0000
# 5 0.0000 0.0000 0.0000 0.0000 11.3440 0.0000
# 6 0.0000 0.0000 0.0000 0.0000 0.0000 20.5567
#
#
#
# Elastic Compliance Matrix: (Units=1/GPa)
#
#
# Indices 1 2 3 4 5 6 
#
# 1 0.014281 -0.004777 -0.004542 0.000000 0.000000 0.000000
# 2 -0.004777 0.011170 -0.001166 0.000000 0.000000 0.000000
# 3 -0.004542 -0.001166 0.012303 0.000000 0.000000 0.000000
# 4 0.000000 0.000000 0.000000 0.052075 0.000000 0.000000
# 5 0.000000 0.000000 0.000000 0.000000 0.088153 0.000000
# 6 0.000000 0.000000 0.000000 0.000000 0.000000 0.048646
#
#
# Mechanical properties :
#
#
# Convention : Reuss Voigt Hill
#
# Bulk Modulus (GPa) = 59.58026 59.94675 59.76350
# Shear Modulus (GPa) = 19.74779 23.20842 21.47811
#
# Velocity S-wave (km/s) = 3.18657 3.45451 3.32324
# Velocity P-wave (km/s) = 6.64641 6.83636 6.74206
#
# Compressibility (1/GPa) = 0.01678408
#
# Stress axis : x y z
#
# Youngs Moduli (GPa) = 70.02313 89.52357 81.27927
#
# Poissons Ratio (x) = 0.42768 0.36917
# Poissons Ratio (y) = 0.33452 0.09477
# Poissons Ratio (z) = 0.31805 0.10438
#
# Static dielectric constant tensor:
#      x y z
#    x 3.372460 0.000000 0.000000 
#    y 0.000000 3.718950 0.000000 
#    z 0.000000 0.000000 3.618700 
# 
# 
# High freq. dielectric constant tensor:
#      x y z
#    x 1.729020 0.000000 0.000000 
#    y 0.000000 1.756850 0.000000 
#    z 0.000000 0.000000 1.761350 
# 
# From -- ./inp_files/26402.got.cif
#   From: 2010.03.12/outbox.cif.g09.slc.cpg/sg72_14_cif.got.tgz:26402.got - 2010.04.16 14:54:00.
