data_PCOD8293016
_publ_section_title
;
Structure prediction by ZEFSAII (Michael W. Deem and Ramdas Pophale) SiO2 
 PCOD8293016
Probable space group: I B A M
;
_chemical_formula_sum "Si O2"
_cell_formula_units_Z 96
_cell_length_a 20.813951
_cell_length_b 30.526499
_cell_length_c 8.963187
_cell_angle_alpha 90.000000
_cell_angle_beta 90.000000
_cell_angle_gamma 90.000000
_cell_volume 5695.003354
_symmetry_space_group_name_H-M "I B A M"
_symmetry_group_IT_number 72
_symmetry_cell_setting 'orthorhombic'
loop_
_space_group_symop_operation_xyz
x,y,z
-x,-y,z
x,-y,1/2-z
-x,y,1/2-z
-x,-y,-z
x,y,-z
-x,y,1/2+z
x,-y,1/2+z
1/2+x,1/2+y,1/2+z
1/2-x,1/2-y,1/2+z
1/2+x,1/2-y,-z
1/2-x,1/2+y,-z
1/2-x,1/2-y,1/2-z
1/2+x,1/2+y,1/2-z
1/2-x,1/2+y,z
1/2+x,1/2-y,z
loop_
_atom_site_type_symbol
_atom_site_label
_atom_site_fract_x
_atom_site_fract_y
_atom_site_fract_z
Si Si1 0.800048 0.717058 0.824217
Si Si2 0.563249 0.252105 0.823477
Si Si3 0.408570 0.342192 0.827723
Si Si4 0.735038 0.630203 0.169641
Si Si5 0.560816 0.430834 0.175697
Si Si6 0.703124 0.543576 0.325958
O O1 0.750000 0.750000 0.750000
O O2 0.872683 0.726620 0.771873
O O3 0.786944 0.666442 0.778854
O O4 0.791583 0.723476 0.000000
O O5 0.500000 0.229601 0.750000
O O6 0.566702 0.301356 0.765199
O O7 0.555839 0.251750 0.000000
O O8 0.332295 0.345330 0.811606
O O9 0.441018 0.383889 0.753753
O O10 0.429574 0.338076 0.000000
O O11 0.740246 0.586723 0.269662
O O12 0.745990 0.615022 0.000000
O O13 0.500000 0.456685 0.250000
O O14 0.627596 0.454431 0.215414
O O15 0.551517 0.426420 0.000000
O O16 0.731869 0.500000 0.250000
O O17 0.714829 0.540075 0.500000
#
# Coordination Sequence:
#
# PCOD8293016 Si02
#       6
#    16  16  16  16  16  16
#     4  10  20  34  53  76 101 133 171 211 252 298
#     4  11  22  33  47  69 101 136 171 209 249 294
#     4  10  18  30  48  67  92 126 165 208 252 292
#     4   9  18  33  52  73  96 124 161 205 251 296
#     4  10  20  32  45  63  88 120 161 203 248 296
#     4  10  21  35  51  70  92 120 155 200 250 298
#
# _framework density 16.856881000000001
#
# number of rings (size 3 to 8) (size 9 to 14) (size 15 to 20)
#    0.000    2.000    1.667    2.500    0.000    4.333 
#    0.000    1.667    0.000    0.000    0.000    0.000 
#    0.000    0.667    0.000    7.667    0.000    2.333 
#
# Total GULP energy -595123.512067 kJ/mol
# GULP energy per Si atom -12398.406501 kJ/mol
# Density = 1.681851 g / cm^3
# Si number density = 16.856881 Si / 1000 Ang^3
#
#
#
# Elastic Constant Matrix: (Units=GPa)
#
#
# Indices 1 2 3 4 5 6 
#
# 1 83.3990 51.7360 38.9342 0.0000 0.0000 0.0000
# 2 51.7360 95.8542 45.2577 0.0000 0.0000 0.0000
# 3 38.9342 45.2577 73.2330 0.0000 0.0000 0.0000
# 4 0.0000 0.0000 0.0000 23.0039 0.0000 0.0000
# 5 0.0000 0.0000 0.0000 0.0000 21.2296 0.0000
# 6 0.0000 0.0000 0.0000 0.0000 0.0000 4.4209
#
#
#
# Elastic Compliance Matrix: (Units=1/GPa)
#
#
# Indices 1 2 3 4 5 6 
#
# 1 0.019449 -0.007929 -0.005440 0.000000 0.000000 0.000000
# 2 -0.007929 0.017963 -0.006886 0.000000 0.000000 0.000000
# 3 -0.005440 -0.006886 0.020803 0.000000 0.000000 0.000000
# 4 0.000000 0.000000 0.000000 0.043471 0.000000 0.000000
# 5 0.000000 0.000000 0.000000 0.000000 0.047104 0.000000
# 6 0.000000 0.000000 0.000000 0.000000 0.000000 0.226201
#
#
# Mechanical properties :
#
#
# Convention : Reuss Voigt Hill
#
# Bulk Modulus (GPa) = 56.47997 58.26025 57.37011
# Shear Modulus (GPa) = 11.86519 17.50142 14.68330
#
# Velocity S-wave (km/s) = 2.65595 3.22566 2.95457
# Velocity P-wave (km/s) = 6.55620 6.96491 6.76364
#
# Compressibility (1/GPa) = 0.01770539
#
# Stress axis : x y z
#
# Youngs Moduli (GPa) = 51.41747 55.66979 48.07088
#
# Poissons Ratio (x) = 0.44139 0.26150
# Poissons Ratio (y) = 0.40767 0.33101
# Poissons Ratio (z) = 0.27971 0.38333
#
# Static dielectric constant tensor:
#      x y z
#    x 3.274460 0.000000 0.000000 
#    y 0.000000 3.062950 0.000000 
#    z 0.000000 0.000000 3.206900 
# 
# 
# High freq. dielectric constant tensor:
#      x y z
#    x 1.622680 0.000000 0.000000 
#    y 0.000000 1.635440 0.000000 
#    z 0.000000 0.000000 1.660690 
# 
# From -- ./inp_files/5983.got.cif
#   From: 2010.03.12/outbox.cif.g09.slc.cpg/sg72_3_cif.got.tgz:5983.got - 2010.04.16 14:54:00.
