data_PCOD8293525
_publ_section_title
;
Structure prediction by ZEFSAII (Michael W. Deem and Ramdas Pophale) SiO2 
 PCOD8293525
Probable space group: I B A M
;
_chemical_formula_sum "Si O2"
_cell_formula_units_Z 84
_cell_length_a 22.853878
_cell_length_b 10.441973
_cell_length_c 17.950980
_cell_angle_alpha 90.000000
_cell_angle_beta 90.000000
_cell_angle_gamma 90.000000
_cell_volume 4283.814274
_symmetry_space_group_name_H-M "I B A M"
_symmetry_group_IT_number 72
_symmetry_cell_setting 'orthorhombic'
loop_
_space_group_symop_operation_xyz
x,y,z
-x,-y,z
x,-y,1/2-z
-x,y,1/2-z
-x,-y,-z
x,y,-z
-x,y,1/2+z
x,-y,1/2+z
1/2+x,1/2+y,1/2+z
1/2-x,1/2-y,1/2+z
1/2+x,1/2-y,-z
1/2-x,1/2+y,-z
1/2-x,1/2-y,1/2-z
1/2+x,1/2+y,1/2-z
1/2-x,1/2+y,z
1/2+x,1/2-y,z
loop_
_atom_site_type_symbol
_atom_site_label
_atom_site_fract_x
_atom_site_fract_y
_atom_site_fract_z
Si Si1 0.189328 0.049169 0.588456
Si Si2 0.380678 0.304659 0.411785
Si Si3 0.991009 0.259796 0.328609
Si Si4 0.500000 0.000000 0.250000
Si Si5 0.320652 0.045446 0.588592
Si Si6 0.386571 0.791049 0.588530
O O1 0.192078 0.045027 0.500000
O O2 0.155723 0.924624 0.619031
O O3 0.254874 0.045030 0.621377
O O4 0.155894 0.176537 0.614576
O O5 0.385520 0.307605 0.500000
O O6 0.445998 0.315918 0.379869
O O7 0.351022 0.174779 0.382809
O O8 0.965009 0.401991 0.305373
O O9 0.051386 0.275582 0.372405
O O10 0.000000 0.183623 0.250000
O O11 0.318143 0.043688 0.500000
O O12 0.356512 0.922069 0.616602
O O13 0.396443 0.790602 0.500000
#
# Coordination Sequence:
#
# PCOD8293525 Si02
#       6
#    16  16  16   4  16  16
#     4   9  18  32  52  82 116 141 166 216 275 312
#     4  10  19  33  56  83 109 138 178 220 259 316
#     4  10  21  36  54  76 104 145 176 217 273 314
#     4   8  20  36  54  70 100 144 170 218 268 306
#     4   9  17  30  53  82 109 140 177 216 260 313
#     4  10  19  33  56  83 109 138 178 220 259 316
#
# _framework density 19.608694
#
# number of rings (size 3 to 8) (size 9 to 14) (size 15 to 20)
#    0.571    1.905    0.000    2.857    0.000    5.333 
#    0.000    8.571    0.000    6.857    0.000    0.000 
#    0.000    0.000    0.000    0.000    0.000    0.000 
#
# Total GULP energy -520408.655368 kJ/mol
# GULP energy per Si atom -12390.682271 kJ/mol
# Density = 1.956406 g / cm^3
# Si number density = 19.608694 Si / 1000 Ang^3
#
#
#
# Elastic Constant Matrix: (Units=GPa)
#
#
# Indices 1 2 3 4 5 6 
#
# 1 157.9076 62.7777 34.4238 0.0000 0.0000 0.0000
# 2 62.7777 133.9074 22.0199 0.0000 0.0000 0.0000
# 3 34.4238 22.0199 34.6143 0.0000 0.0000 0.0000
# 4 0.0000 0.0000 0.0000 12.1622 0.0000 0.0000
# 5 0.0000 0.0000 0.0000 0.0000 -0.7687 0.0000
# 6 0.0000 0.0000 0.0000 0.0000 0.0000 24.2015
#
#
#
# Elastic Compliance Matrix: (Units=1/GPa)
#
#
# Indices 1 2 3 4 5 6 
#
# 1 0.009113 -0.003107 -0.007086 0.000000 0.000000 0.000000
# 2 -0.003107 0.009400 -0.002890 0.000000 0.000000 0.000000
# 3 -0.007086 -0.002890 0.037775 0.000000 0.000000 0.000000
# 4 0.000000 0.000000 0.000000 0.082222 0.000000 0.000000
# 5 0.000000 0.000000 0.000000 0.000000 -1.300835 0.000000
# 6 0.000000 0.000000 0.000000 0.000000 0.000000 0.041320
#
#
# Mechanical properties :
#
#
# Convention : Reuss Voigt Hill
#
# Bulk Modulus (GPa) = 33.19835 62.76356 47.98096
# Shear Modulus (GPa) = -4.60915 20.93284 8.16185
#
# Velocity S-wave (km/s) = -1.53482 3.27085 2.04240
# Velocity P-wave (km/s) = 3.71837 6.80751 5.48491
#
# Compressibility (1/GPa) = 0.03012198
#
# Stress axis : x y z
#
# Youngs Moduli (GPa) = 109.73578 106.38727 26.47239
#
# Poissons Ratio (x) = 0.33054 0.18759
# Poissons Ratio (y) = 0.34094 0.07650
# Poissons Ratio (z) = 0.77760 0.30743
#
# Static dielectric constant tensor:
#      x y z
#    x 3.556420 0.000000 0.000000 
#    y 0.000000 3.754340 0.000000 
#    z 0.000000 0.000000 3.175560 
# 
# 
# High freq. dielectric constant tensor:
#      x y z
#    x 1.767270 0.000000 0.000000 
#    y 0.000000 1.769700 0.000000 
#    z 0.000000 0.000000 1.720740 
# 
# From -- ./inp_files/39658.got.cif
#   From: 2010.03.12/outbox.cif.g09.slc.cpg/sg72_20_cif.got.tgz:39658.got - 2010.04.16 14:54:00.
