data_PCOD8293921
_publ_section_title
;
Structure prediction by ZEFSAII (Michael W. Deem and Ramdas Pophale) SiO2 
 PCOD8293921
Probable space group: I B A M
;
_chemical_formula_sum "Si O2"
_cell_formula_units_Z 116
_cell_length_a 27.628042
_cell_length_b 24.481091
_cell_length_c 9.410686
_cell_angle_alpha 90.000000
_cell_angle_beta 90.000000
_cell_angle_gamma 90.000000
_cell_volume 6365.054970
_symmetry_space_group_name_H-M "I B A M"
_symmetry_group_IT_number 72
_symmetry_cell_setting 'orthorhombic'
loop_
_space_group_symop_operation_xyz
x,y,z
-x,-y,z
x,-y,1/2-z
-x,y,1/2-z
-x,-y,-z
x,y,-z
-x,y,1/2+z
x,-y,1/2+z
1/2+x,1/2+y,1/2+z
1/2-x,1/2-y,1/2+z
1/2+x,1/2-y,-z
1/2-x,1/2+y,-z
1/2-x,1/2-y,1/2-z
1/2+x,1/2+y,1/2-z
1/2-x,1/2+y,z
1/2+x,1/2-y,z
loop_
_atom_site_type_symbol
_atom_site_label
_atom_site_fract_x
_atom_site_fract_y
_atom_site_fract_z
Si Si1 0.134327 0.255330 0.666541
Si Si2 0.174145 0.437116 0.285091
Si Si3 0.307155 0.350878 0.840785
Si Si4 0.280121 0.446929 0.345536
Si Si5 0.931696 0.407463 0.151532
Si Si6 0.500000 0.000000 0.250000
Si Si7 0.197712 0.330985 0.154307
Si Si8 0.451931 0.195717 0.671004
O O1 0.122845 0.265239 0.500000
O O2 0.152738 0.194295 0.695173
O O3 0.174167 0.299376 0.714366
O O4 0.088369 0.263813 0.767468
O O5 0.168101 0.500000 0.250000
O O6 0.224033 0.429914 0.372730
O O7 0.124946 0.421352 0.364213
O O8 0.181889 0.395129 0.153831
O O9 0.311610 0.399840 0.729118
O O10 0.254856 0.322862 0.829789
O O11 0.314977 0.373971 0.000000
O O12 0.283483 0.500000 0.250000
O O13 0.303306 0.457937 0.500000
O O14 0.941409 0.367160 0.283414
O O15 0.964169 0.461861 0.159335
O O16 0.945586 0.379105 0.000000
O O17 0.180825 0.307928 0.000000
O O18 0.500000 0.215704 0.750000
O O19 0.455043 0.199284 0.500000
#
# Coordination Sequence:
#
# PCOD8293921 Si02
#       8
#    16  16  16  16  16   4  16  16
#     4  11  22  37  58  82 109 142 179 224 280 334
#     4  10  21  35  51  75 102 138 185 230 284 336
#     4   9  20  36  54  80 114 147 182 224 267 324
#     4  10  20  34  54  80 112 150 186 224 269 321
#     4  12  24  39  56  75 101 132 176 232 292 344
#     4  12  26  40  56  78  98 132 186 240 304 340
#     4  10  20  34  53  78 108 142 181 226 276 332
#     4  12  26  43  61  79 103 137 179 229 285 339
#
# _framework density 18.224508
#
# number of rings (size 3 to 8) (size 9 to 14) (size 15 to 20)
#    0.000    1.379    2.759    3.103    0.000    7.724 
#    0.000    0.000    0.000    0.000    0.000    0.000 
#    0.000    0.552    0.000    5.793    0.000    2.621 
#
# Total GULP energy -718613.162724 kJ/mol
# GULP energy per Si atom -12389.882116 kJ/mol
# Density = 1.818303 g / cm^3
# Si number density = 18.224508 Si / 1000 Ang^3
#
#
#
# Elastic Constant Matrix: (Units=GPa)
#
#
# Indices 1 2 3 4 5 6 
#
# 1 75.5999 47.2084 48.3899 0.0000 0.0000 0.0000
# 2 47.2084 88.4065 61.1892 0.0000 0.0000 0.0000
# 3 48.3899 61.1892 162.1311 0.0000 0.0000 0.0000
# 4 0.0000 0.0000 0.0000 22.6953 0.0000 0.0000
# 5 0.0000 0.0000 0.0000 0.0000 13.8908 0.0000
# 6 0.0000 0.0000 0.0000 0.0000 0.0000 35.1336
#
#
#
# Elastic Compliance Matrix: (Units=1/GPa)
#
#
# Indices 1 2 3 4 5 6 
#
# 1 0.020691 -0.009170 -0.002715 0.000000 0.000000 0.000000
# 2 -0.009170 0.019375 -0.004575 0.000000 0.000000 0.000000
# 3 -0.002715 -0.004575 0.008705 0.000000 0.000000 0.000000
# 4 0.000000 0.000000 0.000000 0.044062 0.000000 0.000000
# 5 0.000000 0.000000 0.000000 0.000000 0.071990 0.000000
# 6 0.000000 0.000000 0.000000 0.000000 0.000000 0.028463
#
#
# Mechanical properties :
#
#
# Convention : Reuss Voigt Hill
#
# Bulk Modulus (GPa) = 63.08787 71.07915 67.08351
# Shear Modulus (GPa) = 21.59921 25.63394 23.61658
#
# Velocity S-wave (km/s) = 3.44637 3.75449 3.60372
# Velocity P-wave (km/s) = 7.10836 7.60799 7.36242
#
# Compressibility (1/GPa) = 0.01585091
#
# Stress axis : x y z
#
# Youngs Moduli (GPa) = 48.32912 51.61332 114.87876
#
# Poissons Ratio (x) = 0.47330 0.31187
# Poissons Ratio (y) = 0.44318 0.52560
# Poissons Ratio (z) = 0.13120 0.23614
#
# Static dielectric constant tensor:
#      x y z
#    x 3.382630 0.000000 0.000000 
#    y 0.000000 3.237610 0.000000 
#    z 0.000000 0.000000 3.408010 
# 
# 
# High freq. dielectric constant tensor:
#      x y z
#    x 1.683460 0.000000 0.000000 
#    y 0.000000 1.686190 0.000000 
#    z 0.000000 0.000000 1.717300 
# 
# From -- ./inp_files/8384.got.cif
#   From: 2010.03.12/outbox.cif.g09.slc.cpg/sg72_5_cif.got.tgz:8384.got - 2010.04.16 14:54:00.
