data_PCOD8293099
_publ_section_title
;
Structure prediction by ZEFSAII (Michael W. Deem and Ramdas Pophale) SiO2 
 PCOD8293099
Probable space group: I B A M
;
_chemical_formula_sum "Si O2"
_cell_formula_units_Z 68
_cell_length_a 14.490609
_cell_length_b 7.411937
_cell_length_c 27.032912
_cell_angle_alpha 90.000000
_cell_angle_beta 90.000000
_cell_angle_gamma 90.000000
_cell_volume 2903.428850
_symmetry_space_group_name_H-M "I B A M"
_symmetry_group_IT_number 72
_symmetry_cell_setting 'orthorhombic'
loop_
_space_group_symop_operation_xyz
x,y,z
-x,-y,z
x,-y,1/2-z
-x,y,1/2-z
-x,-y,-z
x,y,-z
-x,y,1/2+z
x,-y,1/2+z
1/2+x,1/2+y,1/2+z
1/2-x,1/2-y,1/2+z
1/2+x,1/2-y,-z
1/2-x,1/2+y,-z
1/2-x,1/2-y,1/2-z
1/2+x,1/2+y,1/2-z
1/2-x,1/2+y,z
1/2+x,1/2-y,z
loop_
_atom_site_type_symbol
_atom_site_label
_atom_site_fract_x
_atom_site_fract_y
_atom_site_fract_z
Si Si1 0.882852 0.172142 0.606032
Si Si2 0.500000 0.500000 0.750000
Si Si3 0.175406 0.222807 0.395058
Si Si4 0.464007 0.188788 0.179363
Si Si5 0.879374 0.771738 0.000000
Si Si6 0.174309 0.364098 0.500000
O O1 0.786222 0.281443 0.606254
O O2 0.951972 0.251467 0.645056
O O3 0.930460 0.178901 0.551264
O O4 0.861925 0.969841 0.621412
O O5 0.558994 0.645671 0.782566
O O6 0.140125 0.264933 0.450440
O O7 0.127033 0.353014 0.354171
O O8 0.500000 0.000000 0.204214
O O9 0.866898 0.559954 0.000000
O O10 0.784445 0.885600 0.000000
#
# Coordination Sequence:
#
# PCOD8293099 Si02
#       6
#    16   4  16  16   8   8
#     4  11  21  39  64  97 135 174 216 258 318 387
#     4  12  26  52  68  96 124 162 222 280 352 368
#     4  11  21  39  64  97 135 174 216 258 318 387
#     4  12  25  46  72  95 127 170 211 277 332 389
#     4  10  18  31  54  93 133 176 212 253 307 378
#     4  10  18  31  54  93 133 176 212 253 307 378
#
# _framework density 23.420584999999999
#
# number of rings (size 3 to 8) (size 9 to 14) (size 15 to 20)
#    0.000    0.941    2.353    9.529    0.000    0.941 
#    0.000    5.882    0.000    0.000    0.000    0.000 
#    0.000    0.000    0.000    0.000    0.000    0.000 
#
# Total GULP energy -421244.264841 kJ/mol
# GULP energy per Si atom -12389.537201 kJ/mol
# Density = 2.336728 g / cm^3
# Si number density = 23.420585 Si / 1000 Ang^3
#
#
#
# Elastic Constant Matrix: (Units=GPa)
#
#
# Indices 1 2 3 4 5 6 
#
# 1 66.5366 3.6146 34.5914 0.0000 0.0000 0.0000
# 2 3.6146 94.6566 24.2990 0.0000 0.0000 0.0000
# 3 34.5914 24.2990 131.4668 0.0000 0.0000 0.0000
# 4 0.0000 0.0000 0.0000 31.8870 0.0000 0.0000
# 5 0.0000 0.0000 0.0000 0.0000 8.3417 0.0000
# 6 0.0000 0.0000 0.0000 0.0000 0.0000 19.8321
#
#
#
# Elastic Compliance Matrix: (Units=1/GPa)
#
#
# Indices 1 2 3 4 5 6 
#
# 1 0.017437 0.000537 -0.004687 0.000000 0.000000 0.000000
# 2 0.000537 0.011107 -0.002194 0.000000 0.000000 0.000000
# 3 -0.004687 -0.002194 0.009245 0.000000 0.000000 0.000000
# 4 0.000000 0.000000 0.000000 0.031361 0.000000 0.000000
# 5 0.000000 0.000000 0.000000 0.000000 0.119879 0.000000
# 6 0.000000 0.000000 0.000000 0.000000 0.000000 0.050423
#
#
# Mechanical properties :
#
#
# Convention : Reuss Voigt Hill
#
# Bulk Modulus (GPa) = 39.83884 46.40777 43.12331
# Shear Modulus (GPa) = 19.19324 27.35583 23.27453
#
# Velocity S-wave (km/s) = 2.86580 3.42135 3.15582
# Velocity P-wave (km/s) = 5.29127 5.95529 5.63307
#
# Compressibility (1/GPa) = 0.02510113
#
# Stress axis : x y z
#
# Youngs Moduli (GPa) = 57.34926 90.03095 108.16196
#
# Poissons Ratio (x) = -0.04838 0.50699
# Poissons Ratio (y) = -0.03082 0.23735
# Poissons Ratio (z) = 0.26882 0.19756
#
# Static dielectric constant tensor:
#      x y z
#    x 4.030670 0.000000 0.000000 
#    y 0.000000 4.486890 0.000000 
#    z 0.000000 0.000000 4.507450 
# 
# 
# High freq. dielectric constant tensor:
#      x y z
#    x 1.892980 0.000000 0.000000 
#    y 0.000000 1.947870 0.000000 
#    z 0.000000 0.000000 1.925370 
# 
# From -- ./inp_files/48455.got.cif
#   From: 2010.03.12/outbox.cif.g09.slc.cpg/sg72_25_cif.got.tgz:48455.got - 2010.04.16 14:54:00.
