data_PCOD8293779
_publ_section_title
;
Structure prediction by ZEFSAII (Michael W. Deem and Ramdas Pophale) SiO2 
 PCOD8293779
Probable space group: I B A M
;
_chemical_formula_sum "Si O2"
_cell_formula_units_Z 112
_cell_length_a 13.565825
_cell_length_b 26.436830
_cell_length_c 15.258707
_cell_angle_alpha 90.000000
_cell_angle_beta 90.000000
_cell_angle_gamma 90.000000
_cell_volume 5472.343148
_symmetry_space_group_name_H-M "I B A M"
_symmetry_group_IT_number 72
_symmetry_cell_setting 'orthorhombic'
loop_
_space_group_symop_operation_xyz
x,y,z
-x,-y,z
x,-y,1/2-z
-x,y,1/2-z
-x,-y,-z
x,y,-z
-x,y,1/2+z
x,-y,1/2+z
1/2+x,1/2+y,1/2+z
1/2-x,1/2-y,1/2+z
1/2+x,1/2-y,-z
1/2-x,1/2+y,-z
1/2-x,1/2-y,1/2-z
1/2+x,1/2+y,1/2-z
1/2-x,1/2+y,z
1/2+x,1/2-y,z
loop_
_atom_site_type_symbol
_atom_site_label
_atom_site_fract_x
_atom_site_fract_y
_atom_site_fract_z
Si Si1 0.827548 0.516180 0.000000
Si Si2 0.489897 0.425916 0.398598
Si Si3 0.924380 0.177168 0.318892
Si Si4 0.112464 0.280427 0.902478
Si Si5 0.666036 0.506981 0.849400
Si Si6 0.975911 0.576795 0.500000
Si Si7 0.769669 0.309598 0.749323
Si Si8 0.951331 0.651982 0.341997
O O1 0.758303 0.518751 0.086733
O O2 0.908117 0.561396 0.000000
O O3 0.894974 0.466835 0.000000
O O4 0.516864 0.428612 0.500000
O O5 0.474582 0.368297 0.370433
O O6 0.389449 0.456468 0.381461
O O7 0.584329 0.448182 0.347372
O O8 0.884725 0.220512 0.383633
O O9 0.830308 0.158481 0.261955
O O10 0.000000 0.201715 0.250000
O O11 0.182479 0.317700 0.845959
O O12 0.002053 0.298943 0.884802
O O13 0.148162 0.289635 0.000000
O O14 0.705906 0.500000 0.750000
O O15 0.954614 0.606756 0.410910
O O16 0.750000 0.250000 0.750000
O O17 0.840562 0.329120 0.826331
O O18 0.000000 0.634517 0.250000
#
# Coordination Sequence:
#
# PCOD8293779 Si02
#       8
#     8  16  16  16  16   8  16  16
#     4  11  26  47  68  98 132 163 228 288 329 397
#     4  11  21  40  63  96 133 170 223 271 330 406
#     4  11  22  38  58  94 133 168 214 268 322 396
#     4  10  19  39  62  90 128 173 213 262 324 380
#     4  11  22  43  69  93 132 176 211 275 348 399
#     4  11  26  46  68 100 128 168 226 286 329 394
#     4   9  20  38  59  88 127 167 212 265 313 386
#     4  10  21  42  68  92 129 173 212 266 330 394
#
# _framework density 20.466552
#
# number of rings (size 3 to 8) (size 9 to 14) (size 15 to 20)
#    0.000    1.571    2.143    4.714    2.000    1.143 
#   12.857    2.857    0.000    0.000    0.000    0.000 
#    0.000    0.000    0.000    0.000    0.000    0.000 
#
# Total GULP energy -694086.423518 kJ/mol
# GULP energy per Si atom -12394.400420 kJ/mol
# Density = 2.041997 g / cm^3
# Si number density = 20.466552 Si / 1000 Ang^3
#
#
#
# Elastic Constant Matrix: (Units=GPa)
#
#
# Indices 1 2 3 4 5 6 
#
# 1 134.3800 24.9447 53.6875 0.0001 0.0000 0.0000
# 2 24.9447 74.7863 36.9134 -0.0003 -0.0004 -0.0002
# 3 53.6875 36.9134 150.7115 0.0009 -0.0003 -0.0003
# 4 0.0001 -0.0003 0.0009 24.5550 -0.0004 -0.0002
# 5 0.0000 -0.0004 -0.0003 -0.0004 24.0691 0.0000
# 6 0.0000 -0.0002 -0.0003 -0.0002 0.0000 26.1887
#
#
#
# Elastic Compliance Matrix: (Units=1/GPa)
#
#
# Indices 1 2 3 4 5 6 
#
# 1 0.008839 -0.001586 -0.002760 0.000000 0.000000 0.000000
# 2 -0.001586 0.015495 -0.003230 0.000000 0.000000 0.000000
# 3 -0.002760 -0.003230 0.008410 0.000000 0.000000 0.000000
# 4 0.000000 0.000000 0.000000 0.040725 0.000001 0.000000
# 5 0.000000 0.000000 0.000000 0.000001 0.041547 0.000000
# 6 0.000000 0.000000 0.000000 0.000000 0.000000 0.038184
#
#
# Mechanical properties :
#
#
# Convention : Reuss Voigt Hill
#
# Bulk Modulus (GPa) = 56.84793 65.66321 61.25557
# Shear Modulus (GPa) = 28.70015 31.25139 29.97577
#
# Velocity S-wave (km/s) = 3.74879 3.91186 3.83119
# Velocity P-wave (km/s) = 6.82453 7.24958 7.04026
#
# Compressibility (1/GPa) = 0.01759079
#
# Stress axis : x y z
#
# Youngs Moduli (GPa) = 113.13892 64.53811 118.91153
#
# Poissons Ratio (x) = 0.10234 0.32822
# Poissons Ratio (y) = 0.17941 0.38411
# Poissons Ratio (z) = 0.31229 0.20847
#
# Static dielectric constant tensor:
#      x y z
#    x 4.074600 0.000000 0.000000 
#    y 0.000000 3.514570 0.000000 
#    z 0.000000 0.000000 4.006370 
# 
# 
# High freq. dielectric constant tensor:
#      x y z
#    x 1.804680 0.000000 0.000000 
#    y 0.000000 1.789020 0.000000 
#    z 0.000000 0.000000 1.807310 
# 
# From -- ./inp_files/22355.got.cif
#   From: 2010.03.12/outbox.cif.g09.slc.cpg/sg72_12_cif.got.tgz:22355.got - 2010.04.16 14:54:00.
