data_PCOD8293446
_publ_section_title
;
Structure prediction by ZEFSAII (Michael W. Deem and Ramdas Pophale) SiO2 
 PCOD8293446
Probable space group: I B A M
;
_chemical_formula_sum "Si O2"
_cell_formula_units_Z 116
_cell_length_a 24.144413
_cell_length_b 14.441852
_cell_length_c 17.601610
_cell_angle_alpha 90.000000
_cell_angle_beta 90.000000
_cell_angle_gamma 90.000000
_cell_volume 6137.506080
_symmetry_space_group_name_H-M "I B A M"
_symmetry_group_IT_number 72
_symmetry_cell_setting 'orthorhombic'
loop_
_space_group_symop_operation_xyz
x,y,z
-x,-y,z
x,-y,1/2-z
-x,y,1/2-z
-x,-y,-z
x,y,-z
-x,y,1/2+z
x,-y,1/2+z
1/2+x,1/2+y,1/2+z
1/2-x,1/2-y,1/2+z
1/2+x,1/2-y,-z
1/2-x,1/2+y,-z
1/2-x,1/2-y,1/2-z
1/2+x,1/2+y,1/2-z
1/2-x,1/2+y,z
1/2+x,1/2-y,z
loop_
_atom_site_type_symbol
_atom_site_label
_atom_site_fract_x
_atom_site_fract_y
_atom_site_fract_z
Si Si1 0.053336 0.937899 0.416498
Si Si2 0.000000 0.500000 0.750000
Si Si3 0.691614 0.044376 0.912444
Si Si4 0.554685 0.698050 0.713130
Si Si5 0.773459 0.170683 0.842613
Si Si6 0.794213 0.376775 0.805471
Si Si7 0.123613 0.936999 0.185603
Si Si8 0.104037 0.388519 0.801360
O O1 0.072112 0.904738 0.500000
O O2 0.039998 0.848022 0.366934
O O3 0.101827 0.997914 0.380564
O O4 0.000000 0.000000 0.422218
O O5 0.956972 0.564436 0.797103
O O6 0.732247 0.133782 0.907941
O O7 0.632265 0.073445 0.877862
O O8 0.718785 0.958479 0.865386
O O9 0.683325 0.015521 0.000000
O O10 0.500000 0.743068 0.750000
O O11 0.575858 0.622015 0.773062
O O12 0.598851 0.777649 0.695198
O O13 0.785505 0.279860 0.849037
O O14 0.748828 0.131270 0.763572
O O15 0.833446 0.128706 0.855484
O O16 0.855730 0.402260 0.772338
O O17 0.152660 0.000000 0.250000
#
# Coordination Sequence:
#
# PCOD8293446 Si02
#       8
#    16   4  16  16  16  16  16  16
#     4  10  21  35  51  77 121 162 186 229 302 363
#     4  12  20  36  70  92 110 148 210 256 302 356
#     4  11  24  41  59  86 129 162 188 244 313 369
#     4  11  20  33  58  87 110 149 201 250 289 344
#     4  10  20  37  64  89 113 154 209 247 293 349
#     4  10  20  39  64  88 116 155 201 255 299 351
#     4  10  19  32  57  85 114 147 201 250 283 340
#     4  11  21  38  64  90 114 149 203 256 299 348
#
# _framework density 18.900183999999999
#
# number of rings (size 3 to 8) (size 9 to 14) (size 15 to 20)
#    0.000    1.517    4.828    2.069    0.000    1.655 
#    0.000    0.345    0.000    2.483    0.000    0.000 
#    0.000    0.000    0.000    0.000    0.000    0.000 
#
# Total GULP energy -718762.931869 kJ/mol
# GULP energy per Si atom -12392.464343 kJ/mol
# Density = 1.885717 g / cm^3
# Si number density = 18.900184 Si / 1000 Ang^3
#
#
#
# Elastic Constant Matrix: (Units=GPa)
#
#
# Indices 1 2 3 4 5 6 
#
# 1 72.6594 20.0493 24.3857 0.0000 0.0000 0.0000
# 2 20.0493 96.9063 42.2256 0.0000 0.0000 0.0000
# 3 24.3857 42.2256 108.0298 0.0000 0.0000 0.0000
# 4 0.0000 0.0000 0.0000 31.9626 0.0000 0.0000
# 5 0.0000 0.0000 0.0000 0.0000 10.9246 0.0000
# 6 0.0000 0.0000 0.0000 0.0000 0.0000 34.4854
#
#
#
# Elastic Compliance Matrix: (Units=1/GPa)
#
#
# Indices 1 2 3 4 5 6 
#
# 1 0.015202 -0.001989 -0.002654 0.000000 0.000000 0.000000
# 2 -0.001989 0.012698 -0.004514 0.000000 0.000000 0.000000
# 3 -0.002654 -0.004514 0.011620 0.000000 0.000000 0.000000
# 4 0.000000 0.000000 0.000000 0.031287 0.000000 0.000000
# 5 0.000000 0.000000 0.000000 0.000000 0.091536 0.000000
# 6 0.000000 0.000000 0.000000 0.000000 0.000000 0.028998
#
#
# Mechanical properties :
#
#
# Convention : Reuss Voigt Hill
#
# Bulk Modulus (GPa) = 47.15660 50.10186 48.62923
# Shear Modulus (GPa) = 23.07076 28.20352 25.63714
#
# Velocity S-wave (km/s) = 3.49759 3.86714 3.68700
# Velocity P-wave (km/s) = 6.42770 6.81952 6.62651
#
# Compressibility (1/GPa) = 0.02120594
#
# Stress axis : x y z
#
# Youngs Moduli (GPa) = 65.77894 78.75439 86.05593
#
# Poissons Ratio (x) = 0.15662 0.22842
# Poissons Ratio (y) = 0.13081 0.38848
# Poissons Ratio (z) = 0.17460 0.35552
#
# Static dielectric constant tensor:
#      x y z
#    x 3.461330 0.000000 0.000000 
#    y 0.000000 3.617360 0.000000 
#    z 0.000000 0.000000 3.376720 
# 
# 
# High freq. dielectric constant tensor:
#      x y z
#    x 1.734880 0.000000 0.000000 
#    y 0.000000 1.748330 0.000000 
#    z 0.000000 0.000000 1.703000 
# 
# From -- ./inp_files/33435.got.cif
#   From: 2010.03.12/outbox.cif.g09.slc.cpg/sg72_17_cif.got.tgz:33435.got - 2010.04.16 14:54:00.
