data_PCOD8293987
_publ_section_title
;
Structure prediction by ZEFSAII (Michael W. Deem and Ramdas Pophale) SiO2 
 PCOD8293987
Probable space group: I B A M
;
_chemical_formula_sum "Si O2"
_cell_formula_units_Z 84
_cell_length_a 10.280954
_cell_length_b 23.898447
_cell_length_c 18.242056
_cell_angle_alpha 90.000000
_cell_angle_beta 90.000000
_cell_angle_gamma 90.000000
_cell_volume 4482.051894
_symmetry_space_group_name_H-M "I B A M"
_symmetry_group_IT_number 72
_symmetry_cell_setting 'orthorhombic'
loop_
_space_group_symop_operation_xyz
x,y,z
-x,-y,z
x,-y,1/2-z
-x,y,1/2-z
-x,-y,-z
x,y,-z
-x,y,1/2+z
x,-y,1/2+z
1/2+x,1/2+y,1/2+z
1/2-x,1/2-y,1/2+z
1/2+x,1/2-y,-z
1/2-x,1/2+y,-z
1/2-x,1/2-y,1/2-z
1/2+x,1/2+y,1/2-z
1/2-x,1/2+y,z
1/2+x,1/2-y,z
loop_
_atom_site_type_symbol
_atom_site_label
_atom_site_fract_x
_atom_site_fract_y
_atom_site_fract_z
Si Si1 0.953638 0.114764 0.167323
Si Si2 0.285361 0.807591 0.413641
Si Si3 0.000000 0.500000 0.250000
Si Si4 0.496812 0.274653 0.587047
Si Si5 0.192819 0.926827 0.586614
Si Si6 0.242658 0.527847 0.678575
O O1 0.936192 0.173058 0.126212
O O2 0.813044 0.085591 0.160797
O O3 0.000000 0.124999 0.250000
O O4 0.051903 0.074570 0.123927
O O5 0.290438 0.808699 0.500000
O O6 0.419447 0.779158 0.385158
O O7 0.273264 0.871800 0.385688
O O8 0.155899 0.772094 0.389674
O O9 0.908302 0.460104 0.300277
O O10 0.509852 0.282861 0.500000
O O11 0.175890 0.926468 0.500000
O O12 0.261148 0.984002 0.611261
O O13 0.313433 0.500000 0.750000
#
# Coordination Sequence:
#
# PCOD8293987 Si02
#       6
#    16  16   4  16  16  16
#     4  11  19  32  56  83 108 141 177 227 278 336
#     4   8  16  33  53  77 108 142 179 223 276 322
#     4   8  20  40  52  68 108 156 174 206 256 346
#     4   9  18  34  54  78 110 144 180 226 274 327
#     4  10  20  34  58  86 108 136 185 238 275 327
#     4  10  20  36  56  73 108 149 179 216 284 330
#
# _framework density 18.741416000000001
#
# number of rings (size 3 to 8) (size 9 to 14) (size 15 to 20)
#    0.571    1.905    1.905    2.286    0.000    2.286 
#    3.429    4.286    2.095    0.000    0.000    0.000 
#    0.000    0.000    0.000    0.000    0.000    0.000 
#
# Total GULP energy -520341.470372 kJ/mol
# GULP energy per Si atom -12389.082628 kJ/mol
# Density = 1.869876 g / cm^3
# Si number density = 18.741416 Si / 1000 Ang^3
#
#
#
# Elastic Constant Matrix: (Units=GPa)
#
#
# Indices 1 2 3 4 5 6 
#
# 1 70.7566 19.7421 11.3734 0.0000 0.0000 0.0000
# 2 19.7421 49.7383 13.1782 0.0000 0.0000 0.0000
# 3 11.3734 13.1782 67.6053 0.0000 0.0000 0.0000
# 4 0.0000 0.0000 0.0000 21.9068 0.0000 0.0000
# 5 0.0000 0.0000 0.0000 0.0000 19.0072 0.0000
# 6 0.0000 0.0000 0.0000 0.0000 0.0000 27.6991
#
#
#
# Elastic Compliance Matrix: (Units=1/GPa)
#
#
# Indices 1 2 3 4 5 6 
#
# 1 0.016043 -0.005961 -0.001537 0.000000 0.000000 0.000000
# 2 -0.005961 0.023415 -0.003561 0.000000 0.000000 0.000000
# 3 -0.001537 -0.003561 0.015745 0.000000 0.000000 0.000000
# 4 0.000000 0.000000 0.000000 0.045648 0.000000 0.000000
# 5 0.000000 0.000000 0.000000 0.000000 0.052612 0.000000
# 6 0.000000 0.000000 0.000000 0.000000 0.000000 0.036102
#
#
# Mechanical properties :
#
#
# Convention : Reuss Voigt Hill
#
# Bulk Modulus (GPa) = 30.22592 30.74307 30.48449
# Shear Modulus (GPa) = 22.45066 23.30971 22.88019
#
# Velocity S-wave (km/s) = 3.46485 3.53052 3.49784
# Velocity P-wave (km/s) = 5.67184 5.74968 5.71089
#
# Compressibility (1/GPa) = 0.03308418
#
# Stress axis : x y z
#
# Youngs Moduli (GPa) = 62.33200 42.70815 63.51400
#
# Poissons Ratio (x) = 0.25457 0.09763
# Poissons Ratio (y) = 0.37154 0.22620
# Poissons Ratio (z) = 0.09581 0.15210
#
# Static dielectric constant tensor:
#      x y z
#    x 3.551830 0.000000 0.000000 
#    y 0.000000 3.448330 0.000000 
#    z 0.000000 0.000000 3.322870 
# 
# 
# High freq. dielectric constant tensor:
#      x y z
#    x 1.717520 0.000000 0.000000 
#    y 0.000000 1.711880 0.000000 
#    z 0.000000 0.000000 1.714080 
# 
# From -- ./inp_files/37058.got.cif
#   From: 2010.03.12/outbox.cif.g09.slc.cpg/sg72_19_cif.got.tgz:37058.got - 2010.04.16 14:54:00.
