data_PCOD8293133
_publ_section_title
;
Structure prediction by ZEFSAII (Michael W. Deem and Ramdas Pophale) SiO2 
 PCOD8293133
Probable space group: I B A M
;
_chemical_formula_sum "Si O2"
_cell_formula_units_Z 104
_cell_length_a 25.783837
_cell_length_b 9.769876
_cell_length_c 22.231284
_cell_angle_alpha 90.000000
_cell_angle_beta 90.000000
_cell_angle_gamma 90.000000
_cell_volume 5600.169157
_symmetry_space_group_name_H-M "I B A M"
_symmetry_group_IT_number 72
_symmetry_cell_setting 'orthorhombic'
loop_
_space_group_symop_operation_xyz
x,y,z
-x,-y,z
x,-y,1/2-z
-x,y,1/2-z
-x,-y,-z
x,y,-z
-x,y,1/2+z
x,-y,1/2+z
1/2+x,1/2+y,1/2+z
1/2-x,1/2-y,1/2+z
1/2+x,1/2-y,-z
1/2-x,1/2+y,-z
1/2-x,1/2-y,1/2-z
1/2+x,1/2+y,1/2-z
1/2-x,1/2+y,z
1/2+x,1/2-y,z
loop_
_atom_site_type_symbol
_atom_site_label
_atom_site_fract_x
_atom_site_fract_y
_atom_site_fract_z
Si Si1 0.288408 0.494950 0.679671
Si Si2 0.214556 0.416129 0.000000
Si Si3 0.176512 0.503511 0.129685
Si Si4 0.558087 0.495628 0.820803
Si Si5 0.368861 0.720376 0.868178
Si Si6 0.663759 0.379793 0.500000
Si Si7 0.858815 0.186134 0.500000
Si Si8 0.360044 0.294190 0.127790
O O1 0.302463 0.500000 0.750000
O O2 0.227641 0.478690 0.669906
O O3 0.318419 0.374638 0.643826
O O4 0.307178 0.639430 0.653004
O O5 0.192458 0.492183 0.059319
O O6 0.275672 0.411023 0.000000
O O7 0.198206 0.256081 0.000000
O O8 0.144560 0.372684 0.154350
O O9 0.139629 0.633436 0.143785
O O10 0.500000 0.500000 0.847337
O O11 0.557507 0.500000 0.750000
O O12 0.582349 0.347488 0.835567
O O13 0.590135 0.624138 0.847260
O O14 0.385650 0.733749 0.938241
O O15 0.637487 0.525569 0.500000
O O16 0.642577 0.297020 0.443815
#
# Coordination Sequence:
#
# PCOD8293133 Si02
#       8
#    16   8  16  16  16   8   8  16
#     4  11  22  34  49  74 112 155 191 221 261 319
#     4  10  21  32  49  80 119 158 183 213 263 320
#     4  11  22  34  53  82 119 152 177 224 273 328
#     4  10  22  43  65  80 101 140 190 241 286 331
#     4  10  20  37  56  81 113 143 182 226 278 327
#     4  12  19  30  57  81 113 150 194 223 251 320
#     4  10  18  32  54  79 108 146 186 215 263 318
#     4  11  22  35  55  84 112 142 189 230 273 327
#
# _framework density 18.570868000000001
#
# number of rings (size 3 to 8) (size 9 to 14) (size 15 to 20)
#    0.000    1.385    4.615    3.231    4.308    3.692 
#    0.000    2.308    0.000    1.846    0.000    4.308 
#    0.000    0.000    0.000    0.000    0.000    0.000 
#
# Total GULP energy -644505.689542 kJ/mol
# GULP energy per Si atom -12394.340183 kJ/mol
# Density = 1.852860 g / cm^3
# Si number density = 18.570868 Si / 1000 Ang^3
#
#
#
# Elastic Constant Matrix: (Units=GPa)
#
#
# Indices 1 2 3 4 5 6 
#
# 1 111.8285 53.3131 21.5473 0.0000 0.0000 0.0000
# 2 53.3131 150.7130 21.8426 0.0000 0.0000 0.0000
# 3 21.5473 21.8426 91.7529 0.0000 0.0000 0.0000
# 4 0.0000 0.0000 0.0000 16.4186 0.0000 0.0000
# 5 0.0000 0.0000 0.0000 0.0000 16.1127 0.0000
# 6 0.0000 0.0000 0.0000 0.0000 0.0000 12.0480
#
#
#
# Elastic Compliance Matrix: (Units=1/GPa)
#
#
# Indices 1 2 3 4 5 6 
#
# 1 0.011012 -0.003646 -0.001718 0.000000 0.000000 0.000000
# 2 -0.003646 0.008080 -0.001067 0.000000 0.000000 0.000000
# 3 -0.001718 -0.001067 0.011556 0.000000 0.000000 0.000000
# 4 0.000000 0.000000 0.000000 0.060907 0.000000 0.000000
# 5 0.000000 0.000000 0.000000 0.000000 0.062063 0.000000
# 6 0.000000 0.000000 0.000000 0.000000 0.000000 0.083001
#
#
# Mechanical properties :
#
#
# Convention : Reuss Voigt Hill
#
# Bulk Modulus (GPa) = 56.22760 60.85559 58.54160
# Shear Modulus (GPa) = 19.57645 26.08862 22.83253
#
# Velocity S-wave (km/s) = 3.25029 3.75215 3.51020
# Velocity P-wave (km/s) = 6.66550 7.18415 6.92968
#
# Compressibility (1/GPa) = 0.01778486
#
# Stress axis : x y z
#
# Youngs Moduli (GPa) = 90.81337 123.76835 86.53271
#
# Poissons Ratio (x) = 0.45129 0.14866
# Poissons Ratio (y) = 0.33113 0.09234
# Poissons Ratio (z) = 0.15601 0.13208
#
# Static dielectric constant tensor:
#      x y z
#    x 3.222990 0.000000 0.000000 
#    y 0.000000 3.591180 0.000000 
#    z 0.000000 0.000000 3.633250 
# 
# 
# High freq. dielectric constant tensor:
#      x y z
#    x 1.676120 0.000000 0.000000 
#    y 0.000000 1.724940 0.000000 
#    z 0.000000 0.000000 1.735370 
# 
# From -- ./inp_files/45979.got.cif
#   From: 2010.03.12/outbox.cif.g09.slc.cpg/sg72_23_cif.got.tgz:45979.got - 2010.04.16 14:54:00.
