data_PCOD8293910
_publ_section_title
;
Structure prediction by ZEFSAII (Michael W. Deem and Ramdas Pophale) SiO2 
 PCOD8293910
Probable space group: I B A M
;
_chemical_formula_sum "Si O2"
_cell_formula_units_Z 80
_cell_length_a 17.924273
_cell_length_b 13.759336
_cell_length_c 16.201016
_cell_angle_alpha 90.000000
_cell_angle_beta 90.000000
_cell_angle_gamma 90.000000
_cell_volume 3995.593307
_symmetry_space_group_name_H-M "I B A M"
_symmetry_group_IT_number 72
_symmetry_cell_setting 'orthorhombic'
loop_
_space_group_symop_operation_xyz
x,y,z
-x,-y,z
x,-y,1/2-z
-x,y,1/2-z
-x,-y,-z
x,y,-z
-x,y,1/2+z
x,-y,1/2+z
1/2+x,1/2+y,1/2+z
1/2-x,1/2-y,1/2+z
1/2+x,1/2-y,-z
1/2-x,1/2+y,-z
1/2-x,1/2-y,1/2-z
1/2+x,1/2+y,1/2-z
1/2-x,1/2+y,z
1/2+x,1/2-y,z
loop_
_atom_site_type_symbol
_atom_site_label
_atom_site_fract_x
_atom_site_fract_y
_atom_site_fract_z
Si Si1 0.175022 0.175097 0.097975
Si Si2 0.126090 0.617296 0.595083
Si Si3 0.165022 0.407649 0.402233
Si Si4 0.979289 0.305215 0.845476
Si Si5 0.974414 0.100219 0.343955
O O1 0.166976 0.286466 0.130725
O O2 0.255372 0.134995 0.122886
O O3 0.114796 0.109222 0.145854
O O4 0.160517 0.168474 0.000000
O O5 0.144960 0.611708 0.500000
O O6 0.158165 0.517429 0.633786
O O7 0.037031 0.622762 0.609147
O O8 0.151239 0.403342 0.500000
O O9 0.104233 0.341103 0.357485
O O10 0.000000 0.302514 0.750000
O O11 0.987462 0.196369 0.883979
O O12 0.000000 0.093876 0.250000
O O13 0.000000 0.000000 0.388871
#
# Coordination Sequence:
#
# PCOD8293910 Si02
#       5
#    16  16  16  16  16
#     4   9  19  35  54  79 106 131 170 219 256 297
#     4   9  18  34  53  74 105 138 168 211 260 303
#     4  10  20  34  54  78 105 138 171 209 262 309
#     4  10  20  34  52  77 104 135 177 213 249 306
#     4   9  19  37  55  74 104 140 173 208 257 309
#
# _framework density 20.022058000000001
#
# number of rings (size 3 to 8) (size 9 to 14) (size 15 to 20)
#    0.000    2.600    0.000    1.200    0.000    6.000 
#    0.000   15.000    0.000    0.000    0.000    0.000 
#    0.000    0.000    0.000    0.000    0.000    0.000 
#
# Total GULP energy -495816.124458 kJ/mol
# GULP energy per Si atom -12395.403111 kJ/mol
# Density = 1.997649 g / cm^3
# Si number density = 20.022058 Si / 1000 Ang^3
#
#
#
# Elastic Constant Matrix: (Units=GPa)
#
#
# Indices 1 2 3 4 5 6 
#
# 1 189.8917 110.3703 31.4693 0.0000 0.0000 0.0000
# 2 110.3703 171.8079 21.1931 0.0000 0.0000 0.0000
# 3 31.4693 21.1931 29.7214 0.0000 0.0000 0.0000
# 4 0.0000 0.0000 0.0000 18.9533 0.0000 0.0000
# 5 0.0000 0.0000 0.0000 0.0000 28.4565 0.0000
# 6 0.0000 0.0000 0.0000 0.0000 0.0000 17.9749
#
#
#
# Elastic Compliance Matrix: (Units=1/GPa)
#
#
# Indices 1 2 3 4 5 6 
#
# 1 0.009326 -0.005233 -0.006143 0.000000 0.000000 0.000000
# 2 -0.005233 0.009318 -0.001104 0.000000 0.000000 0.000000
# 3 -0.006143 -0.001104 0.040937 0.000000 0.000000 0.000000
# 4 0.000000 0.000000 0.000000 0.052761 0.000000 0.000000
# 5 0.000000 0.000000 0.000000 0.000000 0.035141 0.000000
# 6 0.000000 0.000000 0.000000 0.000000 0.000000 0.055633
#
#
# Mechanical properties :
#
#
# Convention : Reuss Voigt Hill
#
# Bulk Modulus (GPa) = 28.88345 79.72071 54.30208
# Shear Modulus (GPa) = 20.86668 28.30284 24.58476
#
# Velocity S-wave (km/s) = 3.23179 3.76384 3.50792
# Velocity P-wave (km/s) = 5.32758 7.66757 6.60207
#
# Compressibility (1/GPa) = 0.03462191
#
# Stress axis : x y z
#
# Youngs Moduli (GPa) = 107.22882 107.31402 24.42799
#
# Poissons Ratio (x) = 0.56160 0.15005
# Poissons Ratio (y) = 0.56116 0.02696
# Poissons Ratio (z) = 0.65867 0.11843
#
# Static dielectric constant tensor:
#      x y z
#    x 3.516020 0.000000 0.000000 
#    y 0.000000 4.424290 0.000000 
#    z 0.000000 0.000000 3.302690 
# 
# 
# High freq. dielectric constant tensor:
#      x y z
#    x 1.772740 0.000000 0.000000 
#    y 0.000000 1.801490 0.000000 
#    z 0.000000 0.000000 1.752630 
# 
# From -- ./inp_files/30465.got.cif
#   From: 2010.03.12/outbox.cif.g09.slc.cpg/sg72_16_cif.got.tgz:30465.got - 2010.04.16 14:54:00.
