data_PCOD8293155
_publ_section_title
;
Structure prediction by ZEFSAII (Michael W. Deem and Ramdas Pophale) SiO2 
 PCOD8293155
Probable space group: I B A M
;
_chemical_formula_sum "Si O2"
_cell_formula_units_Z 48
_cell_length_a 31.369990
_cell_length_b 5.031582
_cell_length_c 14.789870
_cell_angle_alpha 90.000000
_cell_angle_beta 90.000000
_cell_angle_gamma 90.000000
_cell_volume 2334.443094
_symmetry_space_group_name_H-M "I B A M"
_symmetry_group_IT_number 72
_symmetry_cell_setting 'orthorhombic'
loop_
_space_group_symop_operation_xyz
x,y,z
-x,-y,z
x,-y,1/2-z
-x,y,1/2-z
-x,-y,-z
x,y,-z
-x,y,1/2+z
x,-y,1/2+z
1/2+x,1/2+y,1/2+z
1/2-x,1/2-y,1/2+z
1/2+x,1/2-y,-z
1/2-x,1/2+y,-z
1/2-x,1/2-y,1/2-z
1/2+x,1/2+y,1/2-z
1/2-x,1/2+y,z
1/2+x,1/2-y,z
loop_
_atom_site_type_symbol
_atom_site_label
_atom_site_fract_x
_atom_site_fract_y
_atom_site_fract_z
Si Si1 0.221463 0.062906 0.000000
Si Si2 0.906084 0.389763 0.844179
Si Si3 0.969855 0.744155 0.500000
Si Si4 0.859884 0.084938 0.598614
O O1 0.191749 0.100578 0.910144
O O2 0.239898 0.767146 0.000000
O O3 0.925415 0.500000 0.750000
O O4 0.943106 0.277478 0.907722
O O5 0.878083 0.623704 0.885585
O O6 0.874418 0.136925 0.828254
O O7 0.000000 0.500000 0.500000
O O8 0.000000 0.000000 0.500000
O O9 0.878274 0.990104 0.500000
#
# Coordination Sequence:
#
# PCOD8293155 Si02
#       4
#     8  16   8  16
#     4  10  18  32  62  94 122 168 212 252 320 378
#     4  12  23  42  66  93 123 166 214 258 309 375
#     4  12  24  42  66  92 128 160 196 258 318 376
#     4  10  20  38  64  90 123 165 218 250 308 370
#
# _framework density 20.56165
#
# number of rings (size 3 to 8) (size 9 to 14) (size 15 to 20)
#    1.000    0.000    3.333    5.000    0.000    0.667 
#    0.000    1.667    0.000   20.000    0.000    0.000 
#    0.000    0.000    0.000    0.000    0.000    0.000 
#
# Total GULP energy -297345.964558 kJ/mol
# GULP energy per Si atom -12389.415190 kJ/mol
# Density = 2.051485 g / cm^3
# Si number density = 20.561650 Si / 1000 Ang^3
#
#
#
# Elastic Constant Matrix: (Units=GPa)
#
#
# Indices 1 2 3 4 5 6 
#
# 1 122.3996 60.3806 48.2176 0.0000 0.0000 0.0000
# 2 60.3806 154.4693 25.1321 0.0000 0.0000 0.0000
# 3 48.2176 25.1321 94.1500 0.0000 0.0000 0.0000
# 4 0.0000 0.0000 0.0000 33.9273 0.0000 0.0000
# 5 0.0000 0.0000 0.0000 0.0000 12.5139 0.0000
# 6 0.0000 0.0000 0.0000 0.0000 0.0000 52.5673
#
#
#
# Elastic Compliance Matrix: (Units=1/GPa)
#
#
# Indices 1 2 3 4 5 6 
#
# 1 0.012132 -0.003901 -0.005172 0.000000 0.000000 0.000000
# 2 -0.003901 0.008022 -0.000144 0.000000 0.000000 0.000000
# 3 -0.005172 -0.000144 0.013308 0.000000 0.000000 0.000000
# 4 0.000000 0.000000 0.000000 0.029475 0.000000 0.000000
# 5 0.000000 0.000000 0.000000 0.000000 0.079911 0.000000
# 6 0.000000 0.000000 0.000000 0.000000 0.000000 0.019023
#
#
# Mechanical properties :
#
#
# Convention : Reuss Voigt Hill
#
# Bulk Modulus (GPa) = 66.53547 70.94217 68.73882
# Shear Modulus (GPa) = 26.98137 35.62094 31.30116
#
# Velocity S-wave (km/s) = 3.62639 4.16672 3.90591
# Velocity P-wave (km/s) = 7.06849 7.59775 7.33789
#
# Compressibility (1/GPa) = 0.01502958
#
# Stress axis : x y z
#
# Youngs Moduli (GPa) = 82.42989 124.65909 75.14082
#
# Poissons Ratio (x) = 0.48625 0.38861
# Poissons Ratio (y) = 0.32153 0.01080
# Poissons Ratio (z) = 0.42631 0.01791
#
# Static dielectric constant tensor:
#      x y z
#    x 3.630400 0.000000 0.000000 
#    y 0.000000 3.798710 0.000000 
#    z 0.000000 0.000000 3.666910 
# 
# 
# High freq. dielectric constant tensor:
#      x y z
#    x 1.794090 0.000000 0.000000 
#    y 0.000000 1.831680 0.000000 
#    z 0.000000 0.000000 1.783800 
# 
# From -- ./inp_files/17507.got.cif
#   From: 2010.03.12/outbox.cif.g09.slc.cpg/sg72_9_cif.got.tgz:17507.got - 2010.04.16 14:54:00.
