data_PCOD8293681
_publ_section_title
;
Structure prediction by ZEFSAII (Michael W. Deem and Ramdas Pophale) SiO2 
 PCOD8293681
Probable space group: I B A M
;
_chemical_formula_sum "Si O2"
_cell_formula_units_Z 116
_cell_length_a 22.201181
_cell_length_b 25.924343
_cell_length_c 10.007477
_cell_angle_alpha 90.000000
_cell_angle_beta 90.000000
_cell_angle_gamma 90.000000
_cell_volume 5759.813708
_symmetry_space_group_name_H-M "I B A M"
_symmetry_group_IT_number 72
_symmetry_cell_setting 'orthorhombic'
loop_
_space_group_symop_operation_xyz
x,y,z
-x,-y,z
x,-y,1/2-z
-x,y,1/2-z
-x,-y,-z
x,y,-z
-x,y,1/2+z
x,-y,1/2+z
1/2+x,1/2+y,1/2+z
1/2-x,1/2-y,1/2+z
1/2+x,1/2-y,-z
1/2-x,1/2+y,-z
1/2-x,1/2-y,1/2-z
1/2+x,1/2+y,1/2-z
1/2-x,1/2+y,z
1/2+x,1/2-y,z
loop_
_atom_site_type_symbol
_atom_site_label
_atom_site_fract_x
_atom_site_fract_y
_atom_site_fract_z
Si Si1 0.548139 0.889857 0.650480
Si Si2 0.394807 0.428212 0.648021
Si Si3 0.664798 0.956052 0.649821
Si Si4 0.554141 0.316738 0.847777
Si Si5 0.260883 0.798247 0.843545
Si Si6 0.791930 0.906810 0.344512
Si Si7 0.394244 0.788593 0.155476
Si Si8 0.500000 0.500000 0.750000
O O1 0.500000 0.916381 0.750000
O O2 0.523056 0.895339 0.500000
O O3 0.614228 0.912924 0.661476
O O4 0.555048 0.830151 0.695656
O O5 0.370120 0.442162 0.500000
O O6 0.405603 0.367420 0.655579
O O7 0.343116 0.436946 0.759409
O O8 0.455429 0.462291 0.667545
O O9 0.667303 0.978478 0.500000
O O10 0.729050 0.933405 0.690505
O O11 0.645140 0.000000 0.750000
O O12 0.500000 0.328366 0.750000
O O13 0.590758 0.268002 0.784550
O O14 0.531561 0.306460 0.000000
O O15 0.250000 0.750000 0.750000
O O16 0.216669 0.846105 0.808915
O O17 0.329561 0.812376 0.806605
O O18 0.253665 0.783393 0.000000
O O19 0.809128 0.913025 0.500000
O O20 0.395167 0.779405 0.000000
#
# Coordination Sequence:
#
# PCOD8293681 Si02
#       8
#    16  16  16  16  16  16  16   4
#     4  10  20  37  60  87 120 159 202 245 298 359
#     4  11  25  43  65  92 121 159 206 260 316 375
#     4  10  22  41  62  87 120 160 203 251 306 366
#     4  10  20  36  57  84 117 155 198 248 302 359
#     4  10  19  35  59  88 124 164 201 245 304 366
#     4  10  22  41  65  92 124 163 205 254 314 374
#     4   9  17  33  58  83 117 160 197 239 296 362
#     4  12  26  48  68  90 126 168 210 258 328 384
#
# _framework density 20.13954
#
# number of rings (size 3 to 8) (size 9 to 14) (size 15 to 20)
#    0.000    1.931    2.069    1.448    0.966    4.690 
#    0.000    2.759    0.000    0.000    0.000    0.000 
#    0.000    0.000    0.000    0.000    0.000    0.000 
#
# Total GULP energy -718675.896816 kJ/mol
# GULP energy per Si atom -12390.963738 kJ/mol
# Density = 2.009370 g / cm^3
# Si number density = 20.139540 Si / 1000 Ang^3
#
#
#
# Elastic Constant Matrix: (Units=GPa)
#
#
# Indices 1 2 3 4 5 6 
#
# 1 104.2689 15.2906 58.7996 0.0000 0.0000 0.0000
# 2 15.2906 74.5207 37.5928 0.0000 0.0000 0.0000
# 3 58.7996 37.5928 100.0109 0.0000 0.0000 0.0000
# 4 0.0000 0.0000 0.0000 24.4744 0.0000 0.0000
# 5 0.0000 0.0000 0.0000 0.0000 29.0973 0.0000
# 6 0.0000 0.0000 0.0000 0.0000 0.0000 24.2063
#
#
#
# Elastic Compliance Matrix: (Units=1/GPa)
#
#
# Indices 1 2 3 4 5 6 
#
# 1 0.014507 0.001636 -0.009144 0.000000 0.000000 0.000000
# 2 0.001636 0.016744 -0.007256 0.000000 0.000000 0.000000
# 3 -0.009144 -0.007256 0.018103 0.000000 0.000000 0.000000
# 4 0.000000 0.000000 0.000000 0.040859 0.000000 0.000000
# 5 0.000000 0.000000 0.000000 0.000000 0.034367 0.000000
# 6 0.000000 0.000000 0.000000 0.000000 0.000000 0.041312
#
#
# Mechanical properties :
#
#
# Convention : Reuss Voigt Hill
#
# Bulk Modulus (GPa) = 50.43930 55.79627 53.11778
# Shear Modulus (GPa) = 24.74907 26.69677 25.72292
#
# Velocity S-wave (km/s) = 3.50934 3.64481 3.57772
# Velocity P-wave (km/s) = 6.44359 6.74373 6.59537
#
# Compressibility (1/GPa) = 0.01982581
#
# Stress axis : x y z
#
# Youngs Moduli (GPa) = 68.93040 59.72437 55.24088
#
# Poissons Ratio (x) = -0.09773 0.50515
# Poissons Ratio (y) = -0.11279 0.40081
# Poissons Ratio (z) = 0.63033 0.43334
#
# Static dielectric constant tensor:
#      x y z
#    x 2.947770 0.000000 0.000000 
#    y 0.000000 3.555670 0.000000 
#    z 0.000000 0.000000 3.545120 
# 
# 
# High freq. dielectric constant tensor:
#      x y z
#    x 1.784700 0.000000 0.000000 
#    y 0.000000 1.793960 0.000000 
#    z 0.000000 0.000000 1.771460 
# 
# From -- ./inp_files/7337.got.cif
#   From: 2010.03.12/outbox.cif.g09.slc.cpg/sg72_4_cif.got.tgz:7337.got - 2010.04.16 14:54:00.
