data_PCOD8293812
_publ_section_title
;
Structure prediction by ZEFSAII (Michael W. Deem and Ramdas Pophale) SiO2 
 PCOD8293812
Probable space group: I B A M
;
_chemical_formula_sum "Si O2"
_cell_formula_units_Z 80
_cell_length_a 27.669254
_cell_length_b 17.663053
_cell_length_c 8.877606
_cell_angle_alpha 90.000000
_cell_angle_beta 90.000000
_cell_angle_gamma 90.000000
_cell_volume 4338.694675
_symmetry_space_group_name_H-M "I B A M"
_symmetry_group_IT_number 72
_symmetry_cell_setting 'orthorhombic'
loop_
_space_group_symop_operation_xyz
x,y,z
-x,-y,z
x,-y,1/2-z
-x,y,1/2-z
-x,-y,-z
x,y,-z
-x,y,1/2+z
x,-y,1/2+z
1/2+x,1/2+y,1/2+z
1/2-x,1/2-y,1/2+z
1/2+x,1/2-y,-z
1/2-x,1/2+y,-z
1/2-x,1/2-y,1/2-z
1/2+x,1/2+y,1/2-z
1/2-x,1/2+y,z
1/2+x,1/2-y,z
loop_
_atom_site_type_symbol
_atom_site_label
_atom_site_fract_x
_atom_site_fract_y
_atom_site_fract_z
Si Si1 0.812567 0.854884 0.826421
Si Si2 0.098941 0.076151 0.676262
Si Si3 0.141183 0.302767 0.823300
Si Si4 0.948937 0.768274 0.321520
Si Si5 0.290504 0.918673 0.322880
O O1 0.846156 0.910052 0.728761
O O2 0.823696 0.767774 0.787531
O O3 0.757224 0.870286 0.785115
O O4 0.823820 0.872877 0.000000
O O5 0.098874 0.064814 0.500000
O O6 0.065483 0.146355 0.726136
O O7 0.077695 0.000000 0.750000
O O8 0.089460 0.290314 0.746167
O O9 0.163927 0.377485 0.751261
O O10 0.133737 0.314956 0.000000
O O11 0.950678 0.758848 0.500000
O O12 0.000000 0.747871 0.250000
O O13 0.299098 0.926588 0.500000
O O14 0.284444 0.000000 0.250000
#
# Coordination Sequence:
#
# PCOD8293812 Si02
#       5
#    16  16  16  16  16
#     4   9  19  34  53  77 107 143 181 216 255 305
#     4  10  20  32  49  74 107 143 179 218 260 306
#     4  10  20  36  57  80 106 138 175 218 264 312
#     4  10  21  37  56  78 102 134 175 220 267 316
#     4  11  22  35  52  78 110 143 178 217 260 309
#
# _framework density 18.438725000000002
#
# number of rings (size 3 to 8) (size 9 to 14) (size 15 to 20)
#    0.000    2.000    0.000    3.600    0.000    6.800 
#    0.000    2.000    0.000    0.600    0.000    4.200 
#    0.000    0.000    0.000    0.000    0.000    0.000 
#
# Total GULP energy -496198.412609 kJ/mol
# GULP energy per Si atom -12404.960315 kJ/mol
# Density = 1.839676 g / cm^3
# Si number density = 18.438725 Si / 1000 Ang^3
#
#
#
# Elastic Constant Matrix: (Units=GPa)
#
#
# Indices 1 2 3 4 5 6 
#
# 1 121.3049 32.1360 51.0015 0.0000 0.0000 0.0000
# 2 32.1360 47.2354 30.3562 0.0000 0.0000 0.0000
# 3 51.0015 30.3562 84.8302 0.0000 0.0000 0.0000
# 4 0.0000 0.0000 0.0000 33.4488 0.0000 0.0000
# 5 0.0000 0.0000 0.0000 0.0000 31.2794 0.0000
# 6 0.0000 0.0000 0.0000 0.0000 0.0000 15.7925
#
#
#
# Elastic Compliance Matrix: (Units=1/GPa)
#
#
# Indices 1 2 3 4 5 6 
#
# 1 0.011718 -0.004473 -0.005444 0.000000 0.000000 0.000000
# 2 -0.004473 0.029201 -0.007760 0.000000 0.000000 0.000000
# 3 -0.005444 -0.007760 0.017838 0.000000 0.000000 0.000000
# 4 0.000000 0.000000 0.000000 0.029896 0.000000 0.000000
# 5 0.000000 0.000000 0.000000 0.000000 0.031970 0.000000
# 6 0.000000 0.000000 0.000000 0.000000 0.000000 0.063321
#
#
# Mechanical properties :
#
#
# Convention : Reuss Voigt Hill
#
# Bulk Modulus (GPa) = 42.73139 53.37310 48.05224
# Shear Modulus (GPa) = 22.01674 25.42926 23.72300
#
# Velocity S-wave (km/s) = 3.45925 3.71768 3.59079
# Velocity P-wave (km/s) = 6.25942 6.88747 6.58094
#
# Compressibility (1/GPa) = 0.02340200
#
# Stress axis : x y z
#
# Youngs Moduli (GPa) = 85.34111 34.24551 56.05922
#
# Poissons Ratio (x) = 0.15319 0.30520
# Poissons Ratio (y) = 0.38175 0.43502
# Poissons Ratio (z) = 0.46461 0.26575
#
# Static dielectric constant tensor:
#      x y z
#    x 3.295400 0.000000 0.000000 
#    y 0.000000 3.446250 0.000000 
#    z 0.000000 0.000000 3.456280 
# 
# 
# High freq. dielectric constant tensor:
#      x y z
#    x 1.706430 0.000000 0.000000 
#    y 0.000000 1.702330 0.000000 
#    z 0.000000 0.000000 1.729050 
# 
# From -- ./inp_files/4758.got.cif
#   From: 2010.03.12/outbox.cif.g09.slc.cpg/sg72_3_cif.got.tgz:4758.got - 2010.04.16 14:54:00.
