data_PCOD8293825
_publ_section_title
;
Structure prediction by ZEFSAII (Michael W. Deem and Ramdas Pophale) SiO2 
 PCOD8293825
Probable space group: I B A M
;
_chemical_formula_sum "Si O2"
_cell_formula_units_Z 80
_cell_length_a 22.586970
_cell_length_b 9.105891
_cell_length_c 19.224844
_cell_angle_alpha 90.000000
_cell_angle_beta 90.000000
_cell_angle_gamma 90.000000
_cell_volume 3954.059924
_symmetry_space_group_name_H-M "I B A M"
_symmetry_group_IT_number 72
_symmetry_cell_setting 'orthorhombic'
loop_
_space_group_symop_operation_xyz
x,y,z
-x,-y,z
x,-y,1/2-z
-x,y,1/2-z
-x,-y,-z
x,y,-z
-x,y,1/2+z
x,-y,1/2+z
1/2+x,1/2+y,1/2+z
1/2-x,1/2-y,1/2+z
1/2+x,1/2-y,-z
1/2-x,1/2+y,-z
1/2-x,1/2-y,1/2-z
1/2+x,1/2+y,1/2-z
1/2-x,1/2+y,z
1/2+x,1/2-y,z
loop_
_atom_site_type_symbol
_atom_site_label
_atom_site_fract_x
_atom_site_fract_y
_atom_site_fract_z
Si Si1 0.946887 0.102906 0.078040
Si Si2 0.663147 0.390966 0.923353
Si Si3 0.854658 0.366810 0.673403
Si Si4 0.219549 0.080705 0.317948
Si Si5 0.118938 0.692591 0.824060
O O1 0.935863 0.233024 0.134242
O O2 0.888461 0.007794 0.073602
O O3 0.961221 0.164937 0.000000
O O4 0.000000 0.000000 0.105111
O O5 0.636393 0.243598 0.889916
O O6 0.717378 0.460688 0.880048
O O7 0.687085 0.352197 0.000000
O O8 0.785973 0.367649 0.696856
O O9 0.892511 0.313963 0.740655
O O10 0.874685 0.526968 0.647520
O O11 0.179726 0.220109 0.338157
O O12 0.192815 0.000000 0.250000
#
# Coordination Sequence:
#
# PCOD8293825 Si02
#       5
#    16  16  16  16  16
#     4   9  20  41  63  80 104 146 199 250 299 347
#     4  10  22  36  54  83 115 149 194 241 285 344
#     4  11  20  33  54  85 122 152 183 234 292 347
#     4  11  18  34  59  80 111 161 196 221 272 345
#     4  10  20  32  57  88 109 147 200 234 281 354
#
# _framework density 20.23237
#
# number of rings (size 3 to 8) (size 9 to 14) (size 15 to 20)
#    0.000    1.800    4.000    1.800    0.000    1.600 
#    0.000    7.000    0.000    6.000    0.000    0.000 
#    0.000    0.000    0.000    0.000    0.000    0.000 
#
# Total GULP energy -495895.436475 kJ/mol
# GULP energy per Si atom -12397.385912 kJ/mol
# Density = 2.018632 g / cm^3
# Si number density = 20.232370 Si / 1000 Ang^3
#
#
#
# Elastic Constant Matrix: (Units=GPa)
#
#
# Indices 1 2 3 4 5 6 
#
# 1 48.7230 9.9583 20.7749 0.0000 0.0000 0.0000
# 2 9.9583 118.3824 70.4227 0.0000 0.0000 0.0000
# 3 20.7749 70.4227 149.8697 0.0000 0.0000 0.0000
# 4 0.0000 0.0000 0.0000 24.5905 0.0000 0.0000
# 5 0.0000 0.0000 0.0000 0.0000 24.3208 0.0000
# 6 0.0000 0.0000 0.0000 0.0000 0.0000 21.4680
#
#
#
# Elastic Compliance Matrix: (Units=1/GPa)
#
#
# Indices 1 2 3 4 5 6 
#
# 1 0.021814 -0.000050 -0.003000 0.000000 0.000000 0.000000
# 2 -0.000050 0.011725 -0.005502 0.000000 0.000000 0.000000
# 3 -0.003000 -0.005502 0.009674 0.000000 0.000000 0.000000
# 4 0.000000 0.000000 0.000000 0.040666 0.000000 0.000000
# 5 0.000000 0.000000 0.000000 0.000000 0.041117 0.000000
# 6 0.000000 0.000000 0.000000 0.000000 0.000000 0.046581
#
#
# Mechanical properties :
#
#
# Convention : Reuss Voigt Hill
#
# Bulk Modulus (GPa) = 38.30442 57.69853 48.00148
# Shear Modulus (GPa) = 25.33131 28.46381 26.89756
#
# Velocity S-wave (km/s) = 3.54223 3.75486 3.65009
# Velocity P-wave (km/s) = 5.97521 6.88320 6.44522
#
# Compressibility (1/GPa) = 0.02610664
#
# Stress axis : x y z
#
# Youngs Moduli (GPa) = 45.84270 85.29049 103.37130
#
# Poissons Ratio (x) = 0.00428 0.31014
# Poissons Ratio (y) = 0.00230 0.56879
# Poissons Ratio (z) = 0.13754 0.46930
#
# Static dielectric constant tensor:
#      x y z
#    x 3.312610 0.000000 0.000000 
#    y 0.000000 3.889920 0.000000 
#    z 0.000000 0.000000 4.042520 
# 
# 
# High freq. dielectric constant tensor:
#      x y z
#    x 1.748940 0.000000 0.000000 
#    y 0.000000 1.800460 0.000000 
#    z 0.000000 0.000000 1.789040 
# 
# From -- ./inp_files/28300.got.cif
#   From: 2010.03.12/outbox.cif.g09.slc.cpg/sg72_15_cif.got.tgz:28300.got - 2010.04.16 14:54:00.
