data_PCOD8293157
_publ_section_title
;
Structure prediction by ZEFSAII (Michael W. Deem and Ramdas Pophale) SiO2 
 PCOD8293157
Probable space group: I B A M
;
_chemical_formula_sum "Si O2"
_cell_formula_units_Z 128
_cell_length_a 19.243407
_cell_length_b 21.182251
_cell_length_c 19.798798
_cell_angle_alpha 90.000000
_cell_angle_beta 90.000000
_cell_angle_gamma 90.000000
_cell_volume 8070.359850
_symmetry_space_group_name_H-M "I B A M"
_symmetry_group_IT_number 72
_symmetry_cell_setting 'orthorhombic'
loop_
_space_group_symop_operation_xyz
x,y,z
-x,-y,z
x,-y,1/2-z
-x,y,1/2-z
-x,-y,-z
x,y,-z
-x,y,1/2+z
x,-y,1/2+z
1/2+x,1/2+y,1/2+z
1/2-x,1/2-y,1/2+z
1/2+x,1/2-y,-z
1/2-x,1/2+y,-z
1/2-x,1/2-y,1/2-z
1/2+x,1/2+y,1/2-z
1/2-x,1/2+y,z
1/2+x,1/2-y,z
loop_
_atom_site_type_symbol
_atom_site_label
_atom_site_fract_x
_atom_site_fract_y
_atom_site_fract_z
Si Si1 0.716010 0.180966 0.815880
Si Si2 0.177197 0.919762 0.801716
Si Si3 0.444507 0.363194 0.580451
Si Si4 0.654980 0.745457 0.426751
Si Si5 0.051533 0.173744 0.686199
Si Si6 0.328452 0.551753 0.854262
Si Si7 0.658650 0.220202 0.681382
Si Si8 0.726215 0.141404 0.424719
O O1 0.751299 0.113130 0.824939
O O2 0.665263 0.195319 0.878165
O O3 0.665448 0.182238 0.751273
O O4 0.776511 0.232692 0.816731
O O5 0.112626 0.873700 0.798367
O O6 0.185727 0.937074 0.723988
O O7 0.164819 0.975657 0.856273
O O8 0.453118 0.376912 0.500000
O O9 0.411516 0.294930 0.595009
O O10 0.517430 0.355775 0.618627
O O11 0.398972 0.418682 0.614866
O O12 0.644443 0.775695 0.500000
O O13 0.717628 0.696352 0.427255
O O14 0.085374 0.243031 0.674154
O O15 0.000000 0.176406 0.750000
O O16 0.261765 0.578104 0.894872
O O17 0.663553 0.168395 0.621250
O O18 0.698268 0.126283 0.500000
#
# Coordination Sequence:
#
# PCOD8293157 Si02
#       8
#    16  16  16  16  16  16  16  16
#     4   9  15  28  45  68  90 112 143 200 242 284
#     4  10  20  30  48  67  93 122 160 200 231 270
#     4  10  20  34  48  64  95 132 167 194 224 271
#     4   8  15  27  46  65  85 120 153 187 235 283
#     4  11  20  32  46  70  96 130 165 199 231 274
#     4  10  18  33  46  67  91 127 164 191 226 273
#     4   9  17  26  46  67  90 115 152 194 244 282
#     4   9  16  29  48  67  89 117 156 195 238 287
#
# _framework density 15.860507999999999
#
# number of rings (size 3 to 8) (size 9 to 14) (size 15 to 20)
#    0.000    2.500    2.500    1.875    3.500    1.000 
#    0.000    5.000    0.000    0.000    0.000    0.000 
#    0.000    7.000    0.000    7.250    0.000    0.625 
#
# Total GULP energy -792893.881543 kJ/mol
# GULP energy per Si atom -12388.966899 kJ/mol
# Density = 1.582441 g / cm^3
# Si number density = 15.860508 Si / 1000 Ang^3
#
#
#
# Elastic Constant Matrix: (Units=GPa)
#
#
# Indices 1 2 3 4 5 6 
#
# 1 28.7674 35.6807 26.3197 0.0000 0.0000 0.0000
# 2 35.6807 50.5676 34.7986 0.0000 0.0000 0.0000
# 3 26.3197 34.7986 97.7236 0.0000 0.0000 0.0000
# 4 0.0000 0.0000 0.0000 23.2856 0.0000 0.0000
# 5 0.0000 0.0000 0.0000 0.0000 18.7960 0.0000
# 6 0.0000 0.0000 0.0000 0.0000 0.0000 15.6399
#
#
#
# Elastic Compliance Matrix: (Units=1/GPa)
#
#
# Indices 1 2 3 4 5 6 
#
# 1 0.281794 -0.194194 -0.006744 0.000000 0.000000 0.000000
# 2 -0.194194 0.160020 -0.004680 0.000000 0.000000 0.000000
# 3 -0.006744 -0.004680 0.013716 0.000000 0.000000 0.000000
# 4 0.000000 0.000000 0.000000 0.042945 0.000000 0.000000
# 5 0.000000 0.000000 0.000000 0.000000 0.053203 0.000000
# 6 0.000000 0.000000 0.000000 0.000000 0.000000 0.063939
#
#
# Mechanical properties :
#
#
# Convention : Reuss Voigt Hill
#
# Bulk Modulus (GPa) = 22.57652 41.18408 31.88030
# Shear Modulus (GPa) = 4.80023 16.89495 10.84759
#
# Velocity S-wave (km/s) = 1.74158 3.26731 2.61806
# Velocity P-wave (km/s) = 4.27896 6.34481 5.41138
#
# Compressibility (1/GPa) = 0.04429380
#
# Stress axis : x y z
#
# Youngs Moduli (GPa) = 3.54869 6.24923 72.90842
#
# Poissons Ratio (x) = 1.21356 0.49172
# Poissons Ratio (y) = 0.68913 0.34120
# Poissons Ratio (z) = 0.02393 0.02925
#
# Static dielectric constant tensor:
#      x y z
#    x 2.858000 0.000000 0.000000 
#    y 0.000000 3.031660 0.000000 
#    z 0.000000 0.000000 3.297980 
# 
# 
# High freq. dielectric constant tensor:
#      x y z
#    x 1.575960 0.000000 0.000000 
#    y 0.000000 1.582010 0.000000 
#    z 0.000000 0.000000 1.621770 
# 
# From -- ./inp_files/32090.got.cif
#   From: 2010.03.12/outbox.cif.g09.slc.cpg/sg72_17_cif.got.tgz:32090.got - 2010.04.16 14:54:00.
