data_PCOD8293389
_publ_section_title
;
Structure prediction by ZEFSAII (Michael W. Deem and Ramdas Pophale) SiO2 
 PCOD8293389
Probable space group: I B A M
;
_chemical_formula_sum "Si O2"
_cell_formula_units_Z 68
_cell_length_a 39.940854
_cell_length_b 5.193353
_cell_length_c 18.336167
_cell_angle_alpha 90.000000
_cell_angle_beta 90.000000
_cell_angle_gamma 90.000000
_cell_volume 3803.415268
_symmetry_space_group_name_H-M "I B A M"
_symmetry_group_IT_number 72
_symmetry_cell_setting 'orthorhombic'
loop_
_space_group_symop_operation_xyz
x,y,z
-x,-y,z
x,-y,1/2-z
-x,y,1/2-z
-x,-y,-z
x,y,-z
-x,y,1/2+z
x,-y,1/2+z
1/2+x,1/2+y,1/2+z
1/2-x,1/2-y,1/2+z
1/2+x,1/2-y,-z
1/2-x,1/2+y,-z
1/2-x,1/2-y,1/2-z
1/2+x,1/2+y,1/2-z
1/2-x,1/2+y,z
1/2+x,1/2-y,z
loop_
_atom_site_type_symbol
_atom_site_label
_atom_site_fract_x
_atom_site_fract_y
_atom_site_fract_z
Si Si1 0.063826 0.239659 0.706368
Si Si2 0.730676 0.262681 0.912942
Si Si3 0.655617 0.728776 0.413877
Si Si4 0.384725 0.224627 0.914046
Si Si5 0.500000 0.500000 0.750000
O O1 0.070428 0.500000 0.750000
O O2 0.079553 0.260711 0.626061
O O3 0.080781 0.000000 0.750000
O O4 0.023829 0.180304 0.699193
O O5 0.750353 0.511181 0.883365
O O6 0.693026 0.265212 0.880914
O O7 0.729923 0.264865 0.000000
O O8 0.658323 0.748152 0.500000
O O9 0.637752 0.466231 0.390488
O O10 0.634576 0.972240 0.385532
O O11 0.392101 0.218811 0.000000
#
# Coordination Sequence:
#
# PCOD8293389 Si02
#       5
#    16  16  16  16   4
#     4  10  20  36  57  78 102 134 171 201 254 298
#     4   9  15  23  37  59  92 135 173 201 242 302
#     4   9  17  28  43  68 104 137 166 209 261 296
#     4  10  19  32  51  76 106 136 166 209 258 302
#     4   8  22  36  60  76 102 136 160 208 254 288
#
# _framework density 17.87867
#
# number of rings (size 3 to 8) (size 9 to 14) (size 15 to 20)
#    0.706    1.882    0.000    3.176    0.000    5.647 
#    0.000    0.588    0.000    1.412    0.000    0.000 
#    0.000   65.882    0.000    0.000    0.000    0.000 
#
# Total GULP energy -421396.610964 kJ/mol
# GULP energy per Si atom -12394.017970 kJ/mol
# Density = 1.783798 g / cm^3
# Si number density = 17.878670 Si / 1000 Ang^3
#
#
#
# Elastic Constant Matrix: (Units=GPa)
#
#
# Indices 1 2 3 4 5 6 
#
# 1 144.4197 52.4218 47.6079 0.0000 0.0000 0.0000
# 2 52.4218 154.2418 30.8495 0.0000 0.0000 0.0000
# 3 47.6079 30.8495 41.8864 0.0000 0.0000 0.0000
# 4 0.0000 0.0000 0.0000 10.1524 0.0000 0.0000
# 5 0.0000 0.0000 0.0000 0.0000 13.7215 0.0000
# 6 0.0000 0.0000 0.0000 0.0000 0.0000 9.7257
#
#
#
# Elastic Compliance Matrix: (Units=1/GPa)
#
#
# Indices 1 2 3 4 5 6 
#
# 1 0.011361 -0.001499 -0.011809 0.000000 0.000000 0.000000
# 2 -0.001499 0.007801 -0.004041 0.000000 0.000000 0.000000
# 3 -0.011809 -0.004041 0.040272 0.000000 0.000000 0.000000
# 4 0.000000 0.000000 0.000000 0.098499 0.000000 0.000000
# 5 0.000000 0.000000 0.000000 0.000000 0.072878 0.000000
# 6 0.000000 0.000000 0.000000 0.000000 0.000000 0.102820
#
#
# Mechanical properties :
#
#
# Convention : Reuss Voigt Hill
#
# Bulk Modulus (GPa) = 40.42746 66.92293 53.67520
# Shear Modulus (GPa) = 13.27751 20.69785 16.98768
#
# Velocity S-wave (km/s) = 2.72811 3.40617 3.08582
# Velocity P-wave (km/s) = 5.70830 7.27889 6.54091
#
# Compressibility (1/GPa) = 0.02473566
#
# Stress axis : x y z
#
# Youngs Moduli (GPa) = 88.01786 128.18453 24.83088
#
# Poissons Ratio (x) = 0.19221 0.29322
# Poissons Ratio (y) = 0.13198 0.10035
# Poissons Ratio (z) = 1.03939 0.51804
#
# Static dielectric constant tensor:
#      x y z
#    x 3.359550 0.000000 0.000000 
#    y 0.000000 3.603150 0.000000 
#    z 0.000000 0.000000 2.700360 
# 
# 
# High freq. dielectric constant tensor:
#      x y z
#    x 1.693940 0.000000 0.000000 
#    y 0.000000 1.716260 0.000000 
#    z 0.000000 0.000000 1.624920 
# 
# From -- ./inp_files/40996.got.cif
#   From: 2010.03.12/outbox.cif.g09.slc.cpg/sg72_21_cif.got.tgz:40996.got - 2010.04.16 14:54:00.
