data_PCOD8293526
_publ_section_title
;
Structure prediction by ZEFSAII (Michael W. Deem and Ramdas Pophale) SiO2 
 PCOD8293526
Probable space group: I B A M
;
_chemical_formula_sum "Si O2"
_cell_formula_units_Z 96
_cell_length_a 9.529513
_cell_length_b 23.973463
_cell_length_c 20.789449
_cell_angle_alpha 90.000000
_cell_angle_beta 90.000000
_cell_angle_gamma 90.000000
_cell_volume 4749.462455
_symmetry_space_group_name_H-M "I B A M"
_symmetry_group_IT_number 72
_symmetry_cell_setting 'orthorhombic'
loop_
_space_group_symop_operation_xyz
x,y,z
-x,-y,z
x,-y,1/2-z
-x,y,1/2-z
-x,-y,-z
x,y,-z
-x,y,1/2+z
x,-y,1/2+z
1/2+x,1/2+y,1/2+z
1/2-x,1/2-y,1/2+z
1/2+x,1/2-y,-z
1/2-x,1/2+y,-z
1/2-x,1/2-y,1/2-z
1/2+x,1/2+y,1/2-z
1/2-x,1/2+y,z
1/2+x,1/2-y,z
loop_
_atom_site_type_symbol
_atom_site_label
_atom_site_fract_x
_atom_site_fract_y
_atom_site_fract_z
Si Si1 0.334884 0.064661 0.260148
Si Si2 0.471784 0.663519 0.572043
Si Si3 0.065134 0.447662 0.429870
Si Si4 0.957973 0.292126 0.077248
Si Si5 0.824187 0.373402 0.392802
Si Si6 0.761022 0.873466 0.859926
O O1 0.500000 0.068732 0.250000
O O2 0.301798 0.089571 0.329738
O O3 0.256265 0.110057 0.214638
O O4 0.283330 0.000000 0.250000
O O5 0.535398 0.659548 0.500000
O O6 0.444724 0.726982 0.591810
O O7 0.325305 0.630427 0.572968
O O8 0.576810 0.635713 0.623109
O O9 0.113069 0.468090 0.500000
O O10 0.204952 0.428765 0.395009
O O11 0.000000 0.500000 0.390336
O O12 0.944513 0.401414 0.436865
O O13 0.828170 0.320772 0.114797
O O14 0.104646 0.311709 0.111571
O O15 0.951123 0.303570 0.000000
#
# Coordination Sequence:
#
# PCOD8293526 Si02
#       6
#    16  16  16  16  16  16
#     4  11  22  41  66  86 111 154 207 253 291 343
#     4  11  23  39  59  89 127 160 189 239 306 357
#     4  10  19  33  56  83 109 145 197 250 293 343
#     4  10  20  37  62  89 119 159 203 242 286 350
#     4  11  21  37  60  87 117 155 201 242 290 349
#     4  11  21  37  60  87 117 155 201 242 290 349
#
# _framework density 20.212814000000002
#
# number of rings (size 3 to 8) (size 9 to 14) (size 15 to 20)
#    0.000    1.333    3.333    6.000    0.000    3.333 
#    0.000    9.167    0.000    6.000    0.000    0.000 
#    0.000    0.000    0.000    0.000    0.000    0.000 
#
# Total GULP energy -594701.733188 kJ/mol
# GULP energy per Si atom -12389.619441 kJ/mol
# Density = 2.016681 g / cm^3
# Si number density = 20.212814 Si / 1000 Ang^3
#
#
#
# Elastic Constant Matrix: (Units=GPa)
#
#
# Indices 1 2 3 4 5 6 
#
# 1 92.7571 13.0914 1.4376 0.0000 0.0000 0.0000
# 2 13.0914 82.9105 26.9294 0.0000 0.0000 0.0000
# 3 1.4376 26.9294 78.1547 -0.0001 0.0000 0.0000
# 4 0.0000 0.0000 -0.0001 5.6199 0.0000 0.0000
# 5 0.0000 0.0000 0.0000 0.0000 27.3869 0.0000
# 6 0.0000 0.0000 0.0000 0.0000 0.0000 10.8554
#
#
#
# Elastic Compliance Matrix: (Units=1/GPa)
#
#
# Indices 1 2 3 4 5 6 
#
# 1 0.011040 -0.001889 0.000448 0.000000 0.000000 0.000000
# 2 -0.001889 0.013904 -0.004756 0.000000 0.000000 0.000000
# 3 0.000448 -0.004756 0.014426 0.000000 0.000000 0.000000
# 4 0.000000 0.000000 0.000000 0.177939 0.000000 0.000000
# 5 0.000000 0.000000 0.000000 0.000000 0.036514 0.000000
# 6 0.000000 0.000000 0.000000 0.000000 0.000000 0.092120
#
#
# Mechanical properties :
#
#
# Convention : Reuss Voigt Hill
#
# Bulk Modulus (GPa) = 37.06989 37.41548 37.24268
# Shear Modulus (GPa) = 13.61178 22.93005 18.27091
#
# Velocity S-wave (km/s) = 2.59786 3.37179 3.00980
# Velocity P-wave (km/s) = 5.23241 5.80599 5.52665
#
# Compressibility (1/GPa) = 0.02697607
#
# Stress axis : x y z
#
# Youngs Moduli (GPa) = 90.57587 71.92060 69.32063
#
# Poissons Ratio (x) = 0.13583 -0.03103
# Poissons Ratio (y) = 0.17107 0.32970
# Poissons Ratio (z) = -0.04055 0.34207
#
# Static dielectric constant tensor:
#      x y z
#    x 3.491840 0.000000 0.000000 
#    y 0.000000 3.921730 0.000000 
#    z 0.000000 0.000000 3.793050 
# 
# 
# High freq. dielectric constant tensor:
#      x y z
#    x 1.769900 0.000000 0.000000 
#    y 0.000000 1.798390 0.000000 
#    z 0.000000 0.000000 1.783500 
# 
# From -- ./inp_files/36021.got.cif
#   From: 2010.03.12/outbox.cif.g09.slc.cpg/sg72_19_cif.got.tgz:36021.got - 2010.04.16 14:54:00.
