data_PCOD8293636
_publ_section_title
;
Structure prediction by ZEFSAII (Michael W. Deem and Ramdas Pophale) SiO2 
 PCOD8293636
Probable space group: I B A M
;
_chemical_formula_sum "Si O2"
_cell_formula_units_Z 68
_cell_length_a 17.016331
_cell_length_b 9.306168
_cell_length_c 21.039860
_cell_angle_alpha 90.000000
_cell_angle_beta 90.000000
_cell_angle_gamma 90.000000
_cell_volume 3331.805639
_symmetry_space_group_name_H-M "I B A M"
_symmetry_group_IT_number 72
_symmetry_cell_setting 'orthorhombic'
loop_
_space_group_symop_operation_xyz
x,y,z
-x,-y,z
x,-y,1/2-z
-x,y,1/2-z
-x,-y,-z
x,y,-z
-x,y,1/2+z
x,-y,1/2+z
1/2+x,1/2+y,1/2+z
1/2-x,1/2-y,1/2+z
1/2+x,1/2-y,-z
1/2-x,1/2+y,-z
1/2-x,1/2-y,1/2-z
1/2+x,1/2+y,1/2-z
1/2-x,1/2+y,z
1/2+x,1/2-y,z
loop_
_atom_site_type_symbol
_atom_site_label
_atom_site_fract_x
_atom_site_fract_y
_atom_site_fract_z
Si Si1 0.429504 0.839557 0.638747
Si Si2 0.877990 0.054268 0.076008
Si Si3 0.200274 0.523401 0.571634
Si Si4 0.500000 0.000000 0.250000
Si Si5 0.925804 0.742553 0.929097
O O1 0.416086 0.671242 0.623020
O O2 0.441838 0.892817 0.710935
O O3 0.516882 0.865281 0.609467
O O4 0.353494 0.915966 0.610987
O O5 0.787995 0.033763 0.098056
O O6 0.924825 0.908294 0.092089
O O7 0.883275 0.092385 0.000000
O O8 0.201706 0.463498 0.500000
O O9 0.162856 0.682534 0.575302
O O10 0.958836 0.735079 0.000000
#
# Coordination Sequence:
#
# PCOD8293636 Si02
#       5
#    16  16  16   4  16
#     4  12  22  41  61  81 124 164 213 254 289 341
#     4  10  21  36  62 100 131 149 183 253 333 386
#     4  10  19  35  63  96 127 157 188 245 328 386
#     4  12  28  44  60  80 112 176 240 254 260 336
#     4  10  19  34  60  94 124 154 194 248 323 381
#
# _framework density 20.409354
#
# number of rings (size 3 to 8) (size 9 to 14) (size 15 to 20)
#    0.000    1.412    2.353    4.235    0.000    7.529 
#    0.000    3.529    0.000    0.000    0.000    0.000 
#    0.000    0.000    0.000    0.000    0.000    0.000 
#
# Total GULP energy -421274.797137 kJ/mol
# GULP energy per Si atom -12390.435210 kJ/mol
# Density = 2.036290 g / cm^3
# Si number density = 20.409354 Si / 1000 Ang^3
#
#
#
# Elastic Constant Matrix: (Units=GPa)
#
#
# Indices 1 2 3 4 5 6 
#
# 1 92.4055 12.0318 36.0422 0.0000 0.0000 0.0000
# 2 12.0318 97.9209 47.4080 0.0000 0.0000 0.0000
# 3 36.0422 47.4080 85.5785 0.0000 0.0000 0.0000
# 4 0.0000 0.0000 0.0000 23.2811 0.0000 0.0000
# 5 0.0000 0.0000 0.0000 0.0000 14.0795 0.0000
# 6 0.0000 0.0000 0.0000 0.0000 0.0000 29.8822
#
#
#
# Elastic Compliance Matrix: (Units=1/GPa)
#
#
# Indices 1 2 3 4 5 6 
#
# 1 0.013098 0.001450 -0.006320 0.000000 0.000000 0.000000
# 2 0.001450 0.014116 -0.008431 0.000000 0.000000 0.000000
# 3 -0.006320 -0.008431 0.019017 0.000000 0.000000 0.000000
# 4 0.000000 0.000000 0.000000 0.042953 0.000000 0.000000
# 5 0.000000 0.000000 0.000000 0.000000 0.071025 0.000000
# 6 0.000000 0.000000 0.000000 0.000000 0.000000 0.033465
#
#
# Mechanical properties :
#
#
# Convention : Reuss Voigt Hill
#
# Bulk Modulus (GPa) = 50.94022 51.87429 51.40726
# Shear Modulus (GPa) = 22.04414 25.47676 23.76045
#
# Velocity S-wave (km/s) = 3.29005 3.53695 3.41573
# Velocity P-wave (km/s) = 6.28061 6.49246 6.38741
#
# Compressibility (1/GPa) = 0.01963085
#
# Stress axis : x y z
#
# Youngs Moduli (GPa) = 76.34741 70.84301 52.58431
#
# Poissons Ratio (x) = -0.10274 0.33232
# Poissons Ratio (y) = -0.11073 0.44331
# Poissons Ratio (z) = 0.48250 0.59724
#
# Static dielectric constant tensor:
#      x y z
#    x 3.933230 0.000000 0.000000 
#    y 0.000000 3.967980 0.000000 
#    z 0.000000 0.000000 3.263870 
# 
# 
# High freq. dielectric constant tensor:
#      x y z
#    x 1.820740 0.000000 0.000000 
#    y 0.000000 1.816500 0.000000 
#    z 0.000000 0.000000 1.732710 
# 
# From -- ./inp_files/27748.got.cif
#   From: 2010.03.12/outbox.cif.g09.slc.cpg/sg72_14_cif.got.tgz:27748.got - 2010.04.16 14:54:00.
