data_PCOD8293426
_publ_section_title
;
Structure prediction by ZEFSAII (Michael W. Deem and Ramdas Pophale) SiO2 
 PCOD8293426
Probable space group: I B A M
;
_chemical_formula_sum "Si O2"
_cell_formula_units_Z 112
_cell_length_a 5.157920
_cell_length_b 33.208313
_cell_length_c 30.699455
_cell_angle_alpha 90.000000
_cell_angle_beta 90.000000
_cell_angle_gamma 90.000000
_cell_volume 5258.381378
_symmetry_space_group_name_H-M "I B A M"
_symmetry_group_IT_number 72
_symmetry_cell_setting 'orthorhombic'
loop_
_space_group_symop_operation_xyz
x,y,z
-x,-y,z
x,-y,1/2-z
-x,y,1/2-z
-x,-y,-z
x,y,-z
-x,y,1/2+z
x,-y,1/2+z
1/2+x,1/2+y,1/2+z
1/2-x,1/2-y,1/2+z
1/2+x,1/2-y,-z
1/2-x,1/2+y,-z
1/2-x,1/2-y,1/2-z
1/2+x,1/2+y,1/2-z
1/2-x,1/2+y,z
1/2+x,1/2-y,z
loop_
_atom_site_type_symbol
_atom_site_label
_atom_site_fract_x
_atom_site_fract_y
_atom_site_fract_z
Si Si1 0.966606 0.101507 0.451356
Si Si2 0.737538 0.848466 0.276974
Si Si3 0.486453 0.910782 0.160746
Si Si4 0.564694 0.235743 0.579630
Si Si5 0.141728 0.229804 0.675464
Si Si6 0.016803 0.642802 0.580256
Si Si7 0.021313 0.047427 0.870069
O O1 0.013507 0.084492 0.500000
O O2 0.707813 0.128572 0.452490
O O3 0.204681 0.129591 0.437341
O O4 0.925844 0.064019 0.418736
O O5 0.500000 0.828504 0.250000
O O6 0.609911 0.890029 0.294749
O O7 0.818685 0.817762 0.315629
O O8 0.000000 0.858388 0.250000
O O9 0.544216 0.875010 0.127397
O O10 0.259702 0.939457 0.145155
O O11 0.753366 0.936992 0.163367
O O12 0.335161 0.258934 0.553501
O O13 0.641074 0.260560 0.623963
O O14 0.490156 0.190107 0.587106
O O15 0.374751 0.255478 0.697396
O O16 0.000000 0.000000 0.871980
#
# Coordination Sequence:
#
# PCOD8293426 Si02
#       7
#    16  16  16  16  16  16  16
#     4  10  21  37  60  90 123 155 187 232 292 354
#     4  12  25  39  58  85 120 159 199 251 309 359
#     4  10  21  39  60  85 119 155 197 238 283 354
#     4  10  19  32  54  79 105 143 199 249 283 324
#     4  10  21  35  52  78 114 151 194 243 298 348
#     4  10  20  36  59  83 113 160 204 237 279 345
#     4  10  21  38  65  95 119 149 188 235 291 351
#
# _framework density 21.299330999999999
#
# number of rings (size 3 to 8) (size 9 to 14) (size 15 to 20)
#    0.000    1.714    0.000    5.143    0.000    8.857 
#    0.000    0.000    0.000   20.143    0.000    0.000 
#    0.000    0.000    0.000    0.000    0.000    0.000 
#
# Total GULP energy -693965.863013 kJ/mol
# GULP energy per Si atom -12392.247554 kJ/mol
# Density = 2.125085 g / cm^3
# Si number density = 21.299331 Si / 1000 Ang^3
#
#
#
# Elastic Constant Matrix: (Units=GPa)
#
#
# Indices 1 2 3 4 5 6 
#
# 1 163.2886 42.6075 4.4892 0.0000 0.0000 0.0000
# 2 42.6075 129.4464 15.4880 0.0000 0.0000 0.0000
# 3 4.4892 15.4880 49.3805 0.0000 0.0000 0.0000
# 4 0.0000 0.0000 0.0000 13.3549 0.0000 0.0000
# 5 0.0000 0.0000 0.0000 0.0000 17.2399 0.0000
# 6 0.0000 0.0000 0.0000 0.0000 0.0000 24.6644
#
#
#
# Elastic Compliance Matrix: (Units=1/GPa)
#
#
# Indices 1 2 3 4 5 6 
#
# 1 0.006700 -0.002216 0.000086 0.000000 0.000000 0.000000
# 2 -0.002216 0.008759 -0.002546 0.000000 0.000000 0.000000
# 3 0.000086 -0.002546 0.021042 0.000000 0.000000 0.000000
# 4 0.000000 0.000000 0.000000 0.074879 0.000000 0.000000
# 5 0.000000 0.000000 0.000000 0.000000 0.058005 0.000000
# 6 0.000000 0.000000 0.000000 0.000000 0.000000 0.040544
#
#
# Mechanical properties :
#
#
# Convention : Reuss Voigt Hill
#
# Bulk Modulus (GPa) = 36.83324 51.92056 44.37690
# Shear Modulus (GPa) = 21.89818 29.68723 25.79270
#
# Velocity S-wave (km/s) = 3.20990 3.73743 3.48366
# Velocity P-wave (km/s) = 5.57393 6.56156 6.08780
#
# Compressibility (1/GPa) = 0.02714939
#
# Stress axis : x y z
#
# Youngs Moduli (GPa) = 149.25648 114.16748 47.52491
#
# Poissons Ratio (x) = 0.25294 -0.00408
# Poissons Ratio (y) = 0.33068 0.12099
# Poissons Ratio (z) = -0.01281 0.29065
#
# Static dielectric constant tensor:
#      x y z
#    x 4.854040 0.000000 0.000000 
#    y 0.000000 3.587010 0.000000 
#    z 0.000000 0.000000 3.582700 
# 
# 
# High freq. dielectric constant tensor:
#      x y z
#    x 1.876090 0.000000 0.000000 
#    y 0.000000 1.818260 0.000000 
#    z 0.000000 0.000000 1.801950 
# 
# From -- ./inp_files/50455.got.cif
#   From: 2010.03.12/outbox.cif.g09.slc.cpg/sg72_26_cif.got.tgz:50455.got - 2010.04.16 14:54:00.
