data_PCOD8293249
_publ_section_title
;
Structure prediction by ZEFSAII (Michael W. Deem and Ramdas Pophale) SiO2 
 PCOD8293249
Probable space group: I B A M
;
_chemical_formula_sum "Si O2"
_cell_formula_units_Z 96
_cell_length_a 16.427786
_cell_length_b 18.321970
_cell_length_c 20.001004
_cell_angle_alpha 90.000000
_cell_angle_beta 90.000000
_cell_angle_gamma 90.000000
_cell_volume 6020.090239
_symmetry_space_group_name_H-M "I B A M"
_symmetry_group_IT_number 72
_symmetry_cell_setting 'orthorhombic'
loop_
_space_group_symop_operation_xyz
x,y,z
-x,-y,z
x,-y,1/2-z
-x,y,1/2-z
-x,-y,-z
x,y,-z
-x,y,1/2+z
x,-y,1/2+z
1/2+x,1/2+y,1/2+z
1/2-x,1/2-y,1/2+z
1/2+x,1/2-y,-z
1/2-x,1/2+y,-z
1/2-x,1/2-y,1/2-z
1/2+x,1/2+y,1/2-z
1/2-x,1/2+y,z
1/2+x,1/2-y,z
loop_
_atom_site_type_symbol
_atom_site_label
_atom_site_fract_x
_atom_site_fract_y
_atom_site_fract_z
Si Si1 0.990619 0.827724 0.423986
Si Si2 0.441598 0.762396 0.189342
Si Si3 0.828987 0.911975 0.422503
Si Si4 0.350543 0.579097 0.924383
Si Si5 0.208765 0.826014 0.311767
Si Si6 0.782690 0.665459 0.823053
O O1 0.987782 0.798870 0.500000
O O2 0.905343 0.862531 0.402193
O O3 0.007516 0.758008 0.376987
O O4 0.058572 0.890307 0.416650
O O5 0.500000 0.783507 0.250000
O O6 0.385280 0.692281 0.208736
O O7 0.381735 0.831309 0.173532
O O8 0.806817 0.903382 0.500000
O O9 0.750315 0.886670 0.380903
O O10 0.851617 0.994606 0.404481
O O11 0.288055 0.620710 0.875453
O O12 0.318735 0.590431 0.000000
O O13 0.252247 0.748762 0.331161
O O14 0.254059 0.864374 0.249568
#
# Coordination Sequence:
#
# PCOD8293249 Si02
#       6
#    16  16  16  16  16  16
#     4   9  17  28  44  67  96 127 155 180 219 278
#     4   9  16  28  47  62  89 122 151 189 229 270
#     4  10  19  29  45  70  99 124 154 190 226 273
#     4   9  17  30  46  67  95 129 154 181 226 279
#     4   8  17  30  45  65  90 121 150 193 231 274
#     4   9  18  30  44  66  93 120 154 198 229 265
#
# _framework density 15.946605
#
# number of rings (size 3 to 8) (size 9 to 14) (size 15 to 20)
#    1.000    2.000    0.000    1.500    0.000    4.000 
#    0.000    0.000    0.000    3.000    0.000    2.333 
#    0.000    2.667    0.000    0.000    0.000    0.000 
#
# Total GULP energy -594799.713492 kJ/mol
# GULP energy per Si atom -12391.660698 kJ/mol
# Density = 1.591031 g / cm^3
# Si number density = 15.946605 Si / 1000 Ang^3
#
#
#
# Elastic Constant Matrix: (Units=GPa)
#
#
# Indices 1 2 3 4 5 6 
#
# 1 67.8530 33.6724 52.8090 0.0000 0.0000 0.0000
# 2 33.6724 28.8495 39.9977 0.0000 0.0000 0.0000
# 3 52.8090 39.9977 95.6631 0.0000 0.0000 0.0000
# 4 0.0000 0.0000 0.0000 24.5108 0.0000 0.0000
# 5 0.0000 0.0000 0.0000 0.0000 28.0771 0.0000
# 6 0.0000 0.0000 0.0000 0.0000 0.0000 19.1152
#
#
#
# Elastic Compliance Matrix: (Units=1/GPa)
#
#
# Indices 1 2 3 4 5 6 
#
# 1 0.036208 -0.034614 -0.005515 0.000000 0.000000 0.000000
# 2 -0.034614 0.115558 -0.029208 0.000000 0.000000 0.000000
# 3 -0.005515 -0.029208 0.025710 0.000000 0.000000 0.000000
# 4 0.000000 0.000000 0.000000 0.040798 0.000000 0.000000
# 5 0.000000 0.000000 0.000000 0.000000 0.035616 0.000000
# 6 0.000000 0.000000 0.000000 0.000000 0.000000 0.052314
#
#
# Mechanical properties :
#
#
# Convention : Reuss Voigt Hill
#
# Bulk Modulus (GPa) = 25.77243 49.48042 37.62642
# Shear Modulus (GPa) = 10.92151 18.73308 14.82730
#
# Velocity S-wave (km/s) = 2.61986 3.43116 3.05258
# Velocity P-wave (km/s) = 5.03471 6.84057 6.00590
#
# Compressibility (1/GPa) = 0.03880115
#
# Stress axis : x y z
#
# Youngs Moduli (GPa) = 27.61853 8.65367 38.89545
#
# Poissons Ratio (x) = 0.29954 0.21451
# Poissons Ratio (y) = 0.95599 1.13605
# Poissons Ratio (z) = 0.15232 0.25275
#
# Static dielectric constant tensor:
#      x y z
#    x 2.838420 0.000000 0.000000 
#    y 0.000000 2.708870 0.000000 
#    z 0.000000 0.000000 3.040130 
# 
# 
# High freq. dielectric constant tensor:
#      x y z
#    x 1.591970 0.000000 0.000000 
#    y 0.000000 1.573960 0.000000 
#    z 0.000000 0.000000 1.619230 
# 
# From -- ./inp_files/39148.got.cif
#   From: 2010.03.12/outbox.cif.g09.slc.cpg/sg72_20_cif.got.tgz:39148.got - 2010.04.16 14:54:00.
