data_PCOD8293321
_publ_section_title
;
Structure prediction by ZEFSAII (Michael W. Deem and Ramdas Pophale) SiO2 
 PCOD8293321
Probable space group: I B A M
;
_chemical_formula_sum "Si O2"
_cell_formula_units_Z 96
_cell_length_a 24.422179
_cell_length_b 21.401556
_cell_length_c 9.753892
_cell_angle_alpha 90.000000
_cell_angle_beta 90.000000
_cell_angle_gamma 90.000000
_cell_volume 5098.092399
_symmetry_space_group_name_H-M "I B A M"
_symmetry_group_IT_number 72
_symmetry_cell_setting 'orthorhombic'
loop_
_space_group_symop_operation_xyz
x,y,z
-x,-y,z
x,-y,1/2-z
-x,y,1/2-z
-x,-y,-z
x,y,-z
-x,y,1/2+z
x,-y,1/2+z
1/2+x,1/2+y,1/2+z
1/2-x,1/2-y,1/2+z
1/2+x,1/2-y,-z
1/2-x,1/2+y,-z
1/2-x,1/2-y,1/2-z
1/2+x,1/2+y,1/2-z
1/2-x,1/2+y,z
1/2+x,1/2-y,z
loop_
_atom_site_type_symbol
_atom_site_label
_atom_site_fract_x
_atom_site_fract_y
_atom_site_fract_z
Si Si1 0.046773 0.226451 0.849624
Si Si2 0.837689 0.218201 0.764018
Si Si3 0.857786 0.916318 0.648476
Si Si4 0.047777 0.078422 0.153838
Si Si5 0.770137 0.668998 0.648345
Si Si6 0.266291 0.056907 0.658729
O O1 0.108080 0.245893 0.807483
O O2 0.042195 0.152212 0.854028
O O3 0.000000 0.254475 0.750000
O O4 0.035022 0.254305 0.000000
O O5 0.853994 0.159091 0.856681
O O6 0.812198 0.273534 0.853576
O O7 0.791936 0.194869 0.656234
O O8 0.883030 0.935291 0.500000
O O9 0.895186 0.940554 0.773420
O O10 0.799024 0.947625 0.665915
O O11 0.000000 0.050506 0.250000
O O12 0.045892 0.049946 0.000000
O O13 0.774942 0.635154 0.500000
O O14 0.785340 0.621774 0.771385
O O15 0.286782 0.054440 0.500000
O O16 0.290515 0.000000 0.750000
#
# Coordination Sequence:
#
# PCOD8293321 Si02
#       6
#    16  16  16  16  16  16
#     4   9  17  27  40  60  90 127 161 192 226 270
#     4   9  18  29  46  71 100 128 158 192 234 283
#     4   9  17  29  45  65  89 118 151 187 227 272
#     4   9  16  25  39  60  85 115 150 187 227 270
#     4  10  19  31  50  72  96 127 160 197 239 284
#     4  10  21  35  50  67  89 118 153 192 234 281
#
# _framework density 18.830573000000001
#
# number of rings (size 3 to 8) (size 9 to 14) (size 15 to 20)
#    0.000    2.667    0.000    2.000    0.000   14.000 
#    0.000    0.000    0.000    0.500    0.000    3.500 
#    0.000    0.667    0.000    4.667    0.000    1.333 
#
# Total GULP energy -594896.007869 kJ/mol
# GULP energy per Si atom -12393.666831 kJ/mol
# Density = 1.878771 g / cm^3
# Si number density = 18.830573 Si / 1000 Ang^3
#
#
#
# Elastic Constant Matrix: (Units=GPa)
#
#
# Indices 1 2 3 4 5 6 
#
# 1 67.3071 13.3694 30.1308 0.0000 0.0000 0.0000
# 2 13.3694 52.3533 27.4760 0.0000 0.0000 0.0000
# 3 30.1308 27.4760 162.6143 0.0000 0.0000 0.0000
# 4 0.0000 0.0000 0.0000 16.0863 0.0000 0.0000
# 5 0.0000 0.0000 0.0000 0.0000 11.7001 0.0000
# 6 0.0000 0.0000 0.0000 0.0000 0.0000 3.4301
#
#
#
# Elastic Compliance Matrix: (Units=1/GPa)
#
#
# Indices 1 2 3 4 5 6 
#
# 1 0.016587 -0.002878 -0.002587 0.000000 0.000000 0.000000
# 2 -0.002878 0.021459 -0.003093 0.000000 0.000000 0.000000
# 3 -0.002587 -0.003093 0.007151 0.000000 0.000000 0.000000
# 4 0.000000 0.000000 0.000000 0.062165 0.000000 0.000000
# 5 0.000000 0.000000 0.000000 0.000000 0.085470 0.000000
# 6 0.000000 0.000000 0.000000 0.000000 0.000000 0.291533
#
#
# Mechanical properties :
#
#
# Convention : Reuss Voigt Hill
#
# Bulk Modulus (GPa) = 35.60990 47.13634 41.37312
# Shear Modulus (GPa) = 9.78778 20.32986 15.05882
#
# Velocity S-wave (km/s) = 2.28234 3.28932 2.83097
# Velocity P-wave (km/s) = 5.08893 6.28588 5.71881
#
# Compressibility (1/GPa) = 0.02808208
#
# Stress axis : x y z
#
# Youngs Moduli (GPa) = 60.28781 46.60059 139.83241
#
# Poissons Ratio (x) = 0.13412 0.36177
# Poissons Ratio (y) = 0.17351 0.43244
# Poissons Ratio (z) = 0.15597 0.14411
#
# Static dielectric constant tensor:
#      x y z
#    x 3.267380 0.000000 0.000000 
#    y 0.000000 3.085990 0.000000 
#    z 0.000000 0.000000 3.700090 
# 
# 
# High freq. dielectric constant tensor:
#      x y z
#    x 1.696060 0.000000 0.000000 
#    y 0.000000 1.694830 0.000000 
#    z 0.000000 0.000000 1.747890 
# 
# From -- ./inp_files/8475.got.cif
#   From: 2010.03.12/outbox.cif.g09.slc.cpg/sg72_5_cif.got.tgz:8475.got - 2010.04.16 14:54:00.
