data_PCOD8293003
_publ_section_title
;
Structure prediction by ZEFSAII (Michael W. Deem and Ramdas Pophale) SiO2 
 PCOD8293003
Probable space group: I B A M
;
_chemical_formula_sum "Si O2"
_cell_formula_units_Z 104
_cell_length_a 29.260376
_cell_length_b 8.490311
_cell_length_c 20.870306
_cell_angle_alpha 90.000000
_cell_angle_beta 90.000000
_cell_angle_gamma 90.000000
_cell_volume 5184.803696
_symmetry_space_group_name_H-M "I B A M"
_symmetry_group_IT_number 72
_symmetry_cell_setting 'orthorhombic'
loop_
_space_group_symop_operation_xyz
x,y,z
-x,-y,z
x,-y,1/2-z
-x,y,1/2-z
-x,-y,-z
x,y,-z
-x,y,1/2+z
x,-y,1/2+z
1/2+x,1/2+y,1/2+z
1/2-x,1/2-y,1/2+z
1/2+x,1/2-y,-z
1/2-x,1/2+y,-z
1/2-x,1/2-y,1/2-z
1/2+x,1/2+y,1/2-z
1/2-x,1/2+y,z
1/2+x,1/2-y,z
loop_
_atom_site_type_symbol
_atom_site_label
_atom_site_fract_x
_atom_site_fract_y
_atom_site_fract_z
Si Si1 0.531350 0.849200 0.430608
Si Si2 0.851521 0.746943 0.790395
Si Si3 0.577909 0.500000 0.250000
Si Si4 0.895129 0.526787 0.365435
Si Si5 0.312673 0.791838 0.349575
Si Si6 0.524876 0.756225 0.185341
Si Si7 0.723361 0.465359 0.174189
O O1 0.530859 0.760434 0.500000
O O2 0.511863 0.741308 0.372844
O O3 0.500000 0.000000 0.435494
O O4 0.583043 0.911999 0.418740
O O5 0.868463 0.581517 0.815622
O O6 0.831360 0.712552 0.721711
O O7 0.811943 0.821196 0.835133
O O8 0.892378 0.872732 0.787675
O O9 0.546261 0.583891 0.196773
O O10 0.856214 0.648795 0.392779
O O11 0.935543 0.619098 0.329639
O O12 0.295060 0.616079 0.365958
O O13 0.271586 0.916311 0.356049
O O14 0.500000 0.815530 0.250000
O O15 0.728541 0.500000 0.250000
#
# Coordination Sequence:
#
# PCOD8293003 Si02
#       7
#    16  16   8  16  16  16  16
#     4   9  21  39  58  81 111 148 198 251 302 359
#     4  11  19  30  47  75 113 146 187 222 279 345
#     4  12  21  34  48  76 114 146 186 236 285 348
#     4  11  21  32  55  76 104 144 186 236 283 345
#     4  11  19  30  47  76 111 151 186 223 280 349
#     4  11  23  36  55  82 112 145 191 243 305 355
#     4  10  18  30  43  72 118 156 178 218 280 352
#
# _framework density 20.058619
#
# number of rings (size 3 to 8) (size 9 to 14) (size 15 to 20)
#    0.000    1.385    3.846    5.308    2.154    3.385 
#    0.000    0.000    0.000    7.385    0.000    5.385 
#    0.000    0.000    0.000    0.000    0.000    0.000 
#
# Total GULP energy -644387.291076 kJ/mol
# GULP energy per Si atom -12392.063290 kJ/mol
# Density = 2.001296 g / cm^3
# Si number density = 20.058619 Si / 1000 Ang^3
#
#
#
# Elastic Constant Matrix: (Units=GPa)
#
#
# Indices 1 2 3 4 5 6 
#
# 1 145.1044 43.9998 36.8262 0.0000 0.0000 0.0000
# 2 43.9998 78.2113 18.5025 0.0000 0.0000 0.0000
# 3 36.8262 18.5025 78.1551 0.0000 0.0000 0.0000
# 4 0.0000 0.0000 0.0000 1.8337 0.0000 0.0000
# 5 0.0000 0.0000 0.0000 0.0000 8.7566 0.0000
# 6 0.0000 0.0000 0.0000 0.0000 0.0000 55.1216
#
#
#
# Elastic Compliance Matrix: (Units=1/GPa)
#
#
# Indices 1 2 3 4 5 6 
#
# 1 0.009018 -0.004309 -0.003229 0.000000 0.000000 0.000000
# 2 -0.004309 0.015604 -0.001664 0.000000 0.000000 0.000000
# 3 -0.003229 -0.001664 0.014710 0.000000 0.000000 0.000000
# 4 0.000000 0.000000 0.000000 0.545346 0.000000 0.000000
# 5 0.000000 0.000000 0.000000 0.000000 0.114199 0.000000
# 6 0.000000 0.000000 0.000000 0.000000 0.000000 0.018142
#
#
# Mechanical properties :
#
#
# Convention : Reuss Voigt Hill
#
# Bulk Modulus (GPa) = 47.78212 55.56975 51.67594
# Shear Modulus (GPa) = 6.73493 26.61854 16.67673
#
# Velocity S-wave (km/s) = 1.83437 3.64680 2.88653
# Velocity P-wave (km/s) = 5.32536 6.74508 6.07682
#
# Compressibility (1/GPa) = 0.02092833
#
# Stress axis : x y z
#
# Youngs Moduli (GPa) = 110.89211 64.08722 67.97937
#
# Poissons Ratio (x) = 0.27617 0.21950
# Poissons Ratio (y) = 0.47787 0.11308
# Poissons Ratio (z) = 0.35806 0.10661
#
# Static dielectric constant tensor:
#      x y z
#    x 4.399260 0.000000 0.000000 
#    y 0.000000 4.005220 0.000000 
#    z 0.000000 0.000000 3.444770 
# 
# 
# High freq. dielectric constant tensor:
#      x y z
#    x 1.813340 0.000000 0.000000 
#    y 0.000000 1.790690 0.000000 
#    z 0.000000 0.000000 1.696050 
# 
# From -- ./inp_files/45955.got.cif
#   From: 2010.03.12/outbox.cif.g09.slc.cpg/sg72_23_cif.got.tgz:45955.got - 2010.04.16 14:54:00.
