data_PCOD8293742
_publ_section_title
;
Structure prediction by ZEFSAII (Michael W. Deem and Ramdas Pophale) SiO2 
 PCOD8293742
Probable space group: I B A M
;
_chemical_formula_sum "Si O2"
_cell_formula_units_Z 96
_cell_length_a 9.856001
_cell_length_b 28.216473
_cell_length_c 14.956760
_cell_angle_alpha 90.000000
_cell_angle_beta 90.000000
_cell_angle_gamma 90.000000
_cell_volume 4159.498679
_symmetry_space_group_name_H-M "I B A M"
_symmetry_group_IT_number 72
_symmetry_cell_setting 'orthorhombic'
loop_
_space_group_symop_operation_xyz
x,y,z
-x,-y,z
x,-y,1/2-z
-x,y,1/2-z
-x,-y,-z
x,y,-z
-x,y,1/2+z
x,-y,1/2+z
1/2+x,1/2+y,1/2+z
1/2-x,1/2-y,1/2+z
1/2+x,1/2-y,-z
1/2-x,1/2+y,-z
1/2-x,1/2-y,1/2-z
1/2+x,1/2+y,1/2-z
1/2-x,1/2+y,z
1/2+x,1/2-y,z
loop_
_atom_site_type_symbol
_atom_site_label
_atom_site_fract_x
_atom_site_fract_y
_atom_site_fract_z
Si Si1 0.997886 0.855415 0.355326
Si Si2 0.735618 0.288613 0.398159
Si Si3 0.921928 0.957762 0.345246
Si Si4 0.619697 0.036086 0.106420
Si Si5 0.953815 0.360000 0.606752
Si Si6 0.277404 0.815173 0.397660
O O1 0.913220 0.811443 0.393651
O O2 0.938193 0.905830 0.390904
O O3 0.000000 0.852687 0.250000
O O4 0.149108 0.849328 0.390969
O O5 0.781318 0.281944 0.500000
O O6 0.741290 0.236643 0.351326
O O7 0.840139 0.324897 0.351475
O O8 0.763046 0.972845 0.342650
O O9 0.000000 0.954499 0.250000
O O10 0.000000 0.000000 0.398984
O O11 0.570529 0.087085 0.140308
O O12 0.500000 0.000000 0.135565
O O13 0.645533 0.033148 0.000000
O O14 0.949161 0.359920 0.500000
O O15 0.097215 0.342856 0.646795
O O16 0.316364 0.805775 0.500000
#
# Coordination Sequence:
#
# PCOD8293742 Si02
#       6
#    16  16  16  16  16  16
#     4  11  23  38  59  86 124 161 201 254 301 362
#     4  10  19  37  62  86 117 158 202 248 302 360
#     4  10  23  43  63  84 125 167 208 251 305 386
#     4  10  21  38  64  96 123 153 201 264 323 365
#     4   9  18  34  56  85 120 150 189 248 299 352
#     4  10  21  36  60  90 118 157 205 248 301 368
#
# _framework density 23.079704
#
# number of rings (size 3 to 8) (size 9 to 14) (size 15 to 20)
#    0.000    2.000    1.667    1.500    2.333    4.333 
#    0.000    2.500    0.000    0.000    0.000    0.000 
#    0.000    0.000    0.000    0.000    0.000    0.000 
#
# Total GULP energy -594914.519765 kJ/mol
# GULP energy per Si atom -12394.052495 kJ/mol
# Density = 2.302717 g / cm^3
# Si number density = 23.079704 Si / 1000 Ang^3
#
#
#
# Elastic Constant Matrix: (Units=GPa)
#
#
# Indices 1 2 3 4 5 6 
#
# 1 217.2322 90.3471 6.6897 -0.0002 0.0001 0.0000
# 2 90.3471 180.8757 5.1530 -0.0001 0.0001 -0.0001
# 3 6.6897 5.1530 26.1964 -0.0007 0.0001 -0.0007
# 4 -0.0002 -0.0001 -0.0007 7.2728 0.0001 -0.0002
# 5 0.0001 0.0001 0.0001 0.0001 17.3304 -0.0001
# 6 0.0000 -0.0001 -0.0007 -0.0002 -0.0001 68.0109
#
#
#
# Elastic Compliance Matrix: (Units=1/GPa)
#
#
# Indices 1 2 3 4 5 6 
#
# 1 0.005832 -0.002887 -0.000922 0.000000 0.000000 0.000000
# 2 -0.002887 0.006989 -0.000638 0.000000 0.000000 0.000000
# 3 -0.000922 -0.000638 0.038534 0.000004 0.000000 0.000000
# 4 0.000000 0.000000 0.000004 0.137498 -0.000001 0.000000
# 5 0.000000 0.000000 0.000000 -0.000001 0.057702 0.000000
# 6 0.000000 0.000000 0.000000 0.000000 0.000000 0.014704
#
#
# Mechanical properties :
#
#
# Convention : Reuss Voigt Hill
#
# Bulk Modulus (GPa) = 23.54985 69.85377 46.70181
# Shear Modulus (GPa) = 17.58671 39.99712 28.79192
#
# Velocity S-wave (km/s) = 2.76343 4.16745 3.53583
# Velocity P-wave (km/s) = 4.51751 7.31361 6.07852
#
# Compressibility (1/GPa) = 0.04246311
#
# Stress axis : x y z
#
# Youngs Moduli (GPa) = 171.45367 143.08399 25.95117
#
# Poissons Ratio (x) = 0.41309 0.02391
# Poissons Ratio (y) = 0.49500 0.01654
# Poissons Ratio (z) = 0.15800 0.09122
#
# Static dielectric constant tensor:
#      x y z
#    x 4.044570 0.000000 0.000000 
#    y 0.000000 4.894130 0.000000 
#    z 0.000000 0.000000 3.516760 
# 
# 
# High freq. dielectric constant tensor:
#      x y z
#    x 1.921690 0.000000 0.000000 
#    y 0.000000 1.931330 0.000000 
#    z 0.000000 0.000000 1.869080 
# 
# From -- ./inp_files/35994.got.cif
#   From: 2010.03.12/outbox.cif.g09.slc.cpg/sg72_18_cif.got.tgz:35994.got - 2010.04.16 14:54:00.
