data_PCOD8293956
_publ_section_title
;
Structure prediction by ZEFSAII (Michael W. Deem and Ramdas Pophale) SiO2 
 PCOD8293956
Probable space group: I B A M
;
_chemical_formula_sum "Si O2"
_cell_formula_units_Z 112
_cell_length_a 10.178193
_cell_length_b 20.913353
_cell_length_c 26.014847
_cell_angle_alpha 90.000000
_cell_angle_beta 90.000000
_cell_angle_gamma 90.000000
_cell_volume 5537.524055
_symmetry_space_group_name_H-M "I B A M"
_symmetry_group_IT_number 72
_symmetry_cell_setting 'orthorhombic'
loop_
_space_group_symop_operation_xyz
x,y,z
-x,-y,z
x,-y,1/2-z
-x,y,1/2-z
-x,-y,-z
x,y,-z
-x,y,1/2+z
x,-y,1/2+z
1/2+x,1/2+y,1/2+z
1/2-x,1/2-y,1/2+z
1/2+x,1/2-y,-z
1/2-x,1/2+y,-z
1/2-x,1/2-y,1/2-z
1/2+x,1/2+y,1/2-z
1/2-x,1/2+y,z
1/2+x,1/2-y,z
loop_
_atom_site_type_symbol
_atom_site_label
_atom_site_fract_x
_atom_site_fract_y
_atom_site_fract_z
Si Si1 0.282269 0.484130 0.940270
Si Si2 0.476030 0.411055 0.557713
Si Si3 0.021404 0.233721 0.059108
Si Si4 0.338838 0.864867 0.805536
Si Si5 0.648317 0.999097 0.342111
Si Si6 0.737375 0.741658 0.875271
Si Si7 0.145448 0.638612 0.186826
O O1 0.365831 0.544118 0.917346
O O2 0.372120 0.422349 0.925324
O O3 0.155329 0.484714 0.903612
O O4 0.237163 0.487064 0.000000
O O5 0.475630 0.437180 0.500000
O O6 0.431547 0.339045 0.562038
O O7 0.879997 0.239647 0.084271
O O8 0.130493 0.270053 0.091819
O O9 0.015439 0.258297 0.000000
O O10 0.287207 0.938119 0.812852
O O11 0.239426 0.816815 0.834935
O O12 0.329846 0.846260 0.746191
O O13 0.489425 0.857286 0.825934
O O14 0.500000 0.000000 0.323554
O O15 0.705973 0.068511 0.326560
O O16 0.727522 0.808974 0.845400
#
# Coordination Sequence:
#
# PCOD8293956 Si02
#       7
#    16  16  16  16  16  16  16
#     4   9  16  30  52  80 112 148 195 237 280 350
#     4   8  16  31  52  74 103 149 193 229 278 341
#     4  11  23  38  58  85 121 160 197 241 296 360
#     4  10  21  39  61  87 117 156 204 253 301 354
#     4  10  20  34  56  82 119 155 193 238 298 357
#     4  12  22  40  62  90 120 156 202 250 300 352
#     4  10  21  39  61  87 117 156 204 253 301 354
#
# _framework density 20.225646000000001
#
# number of rings (size 3 to 8) (size 9 to 14) (size 15 to 20)
#    0.000    2.000    1.429    3.857    0.000    2.000 
#    0.000    1.429    0.000    0.000    0.000    8.000 
#    0.000    0.000    0.000    0.000    0.000    0.000 
#
# Total GULP energy -693806.457491 kJ/mol
# GULP energy per Si atom -12389.401027 kJ/mol
# Density = 2.017961 g / cm^3
# Si number density = 20.225646 Si / 1000 Ang^3
#
#
#
# Elastic Constant Matrix: (Units=GPa)
#
#
# Indices 1 2 3 4 5 6 
#
# 1 51.5684 10.5293 30.6558 0.0000 0.0000 0.0000
# 2 10.5293 103.1569 32.3593 0.0000 0.0000 0.0000
# 3 30.6558 32.3593 109.0881 0.0000 0.0000 0.0000
# 4 0.0000 0.0000 0.0000 28.2436 0.0000 0.0000
# 5 0.0000 0.0000 0.0000 0.0000 28.0118 0.0000
# 6 0.0000 0.0000 0.0000 0.0000 0.0000 21.5853
#
#
#
# Elastic Compliance Matrix: (Units=1/GPa)
#
#
# Indices 1 2 3 4 5 6 
#
# 1 0.023293 -0.000357 -0.006440 0.000000 0.000000 0.000000
# 2 -0.000357 0.010694 -0.003072 0.000000 0.000000 0.000000
# 3 -0.006440 -0.003072 0.011888 0.000000 0.000000 0.000000
# 4 0.000000 0.000000 0.000000 0.035406 0.000000 0.000000
# 5 0.000000 0.000000 0.000000 0.000000 0.035699 0.000000
# 6 0.000000 0.000000 0.000000 0.000000 0.000000 0.046328
#
#
# Mechanical properties :
#
#
# Convention : Reuss Voigt Hill
#
# Bulk Modulus (GPa) = 38.26015 45.65581 41.95798
# Shear Modulus (GPa) = 26.07449 28.25273 27.16361
#
# Velocity S-wave (km/s) = 3.59441 3.74154 3.66871
# Velocity P-wave (km/s) = 6.01532 6.42555 6.22382
#
# Compressibility (1/GPa) = 0.02613685
#
# Stress axis : x y z
#
# Youngs Moduli (GPa) = 42.93154 93.50997 84.11998
#
# Poissons Ratio (x) = 0.03342 0.54171
# Poissons Ratio (y) = 0.01535 0.25840
# Poissons Ratio (z) = 0.27647 0.28724
#
# Static dielectric constant tensor:
#      x y z
#    x 3.419380 0.000000 0.000000 
#    y 0.000000 3.784070 0.000000 
#    z 0.000000 0.000000 3.626700 
# 
# 
# High freq. dielectric constant tensor:
#      x y z
#    x 1.759990 0.000000 0.000000 
#    y 0.000000 1.798410 0.000000 
#    z 0.000000 0.000000 1.788270 
# 
# From -- ./inp_files/43517.got.cif
#   From: 2010.03.12/outbox.cif.g09.slc.cpg/sg72_22_cif.got.tgz:43517.got - 2010.04.16 14:54:00.
