data_PCOD8293584
_publ_section_title
;
Structure prediction by ZEFSAII (Michael W. Deem and Ramdas Pophale) SiO2 
 PCOD8293584
Probable space group: I B A M
;
_chemical_formula_sum "Si O2"
_cell_formula_units_Z 96
_cell_length_a 20.684317
_cell_length_b 27.702454
_cell_length_c 8.683736
_cell_angle_alpha 90.000000
_cell_angle_beta 90.000000
_cell_angle_gamma 90.000000
_cell_volume 4975.835785
_symmetry_space_group_name_H-M "I B A M"
_symmetry_group_IT_number 72
_symmetry_cell_setting 'orthorhombic'
loop_
_space_group_symop_operation_xyz
x,y,z
-x,-y,z
x,-y,1/2-z
-x,y,1/2-z
-x,-y,-z
x,y,-z
-x,y,1/2+z
x,-y,1/2+z
1/2+x,1/2+y,1/2+z
1/2-x,1/2-y,1/2+z
1/2+x,1/2-y,-z
1/2-x,1/2+y,-z
1/2-x,1/2-y,1/2-z
1/2+x,1/2+y,1/2-z
1/2-x,1/2+y,z
1/2+x,1/2-y,z
loop_
_atom_site_type_symbol
_atom_site_label
_atom_site_fract_x
_atom_site_fract_y
_atom_site_fract_z
Si Si1 0.566960 0.888188 0.681244
Si Si2 0.432350 0.447841 0.182994
Si Si3 0.688750 0.613510 0.817493
Si Si4 0.931972 0.722263 0.182460
Si Si5 0.689892 0.052996 0.183232
Si Si6 0.311135 0.722792 0.317038
O O1 0.500000 0.907896 0.750000
O O2 0.561881 0.891731 0.500000
O O3 0.579928 0.833128 0.732237
O O4 0.624934 0.921220 0.744381
O O5 0.415072 0.500000 0.250000
O O6 0.500000 0.428589 0.250000
O O7 0.377410 0.411034 0.239594
O O8 0.436827 0.451493 0.000000
O O9 0.749614 0.583605 0.752544
O O10 0.691670 0.667972 0.755484
O O11 0.691576 0.613450 0.000000
O O12 0.876680 0.754089 0.257210
O O13 0.000000 0.740604 0.250000
O O14 0.931318 0.728664 0.000000
O O15 0.694024 0.000000 0.250000
O O16 0.690766 0.050608 0.000000
O O17 0.308977 0.725184 0.500000
O O18 0.250000 0.750000 0.250000
#
# Coordination Sequence:
#
# PCOD8293584 Si02
#       6
#    16  16  16  16  16  16
#     4   9  19  35  56  78 107 142 176 215 264 318
#     4  10  19  34  55  79 106 139 174 215 262 315
#     4   9  20  37  56  76 105 141 178 219 268 318
#     4  10  20  37  59  84 112 146 184 226 273 326
#     4  10  20  36  55  77 104 138 176 219 266 315
#     4  11  22  38  58  82 111 146 185 229 276 327
#
# _framework density 19.293241999999999
#
# number of rings (size 3 to 8) (size 9 to 14) (size 15 to 20)
#    0.000    2.167    0.000    3.500    0.000    5.000 
#    0.000   10.833    0.000    0.000    0.000    0.000 
#    0.000    0.000    0.000    0.000    0.000    0.000 
#
# Total GULP energy -595309.626846 kJ/mol
# GULP energy per Si atom -12402.283893 kJ/mol
# Density = 1.924933 g / cm^3
# Si number density = 19.293242 Si / 1000 Ang^3
#
#
#
# Elastic Constant Matrix: (Units=GPa)
#
#
# Indices 1 2 3 4 5 6 
#
# 1 205.3429 119.8909 43.8685 0.0000 0.0000 0.0000
# 2 119.8909 156.5041 36.2386 0.0000 0.0000 0.0000
# 3 43.8685 36.2386 54.4932 0.0000 0.0000 0.0000
# 4 0.0000 0.0000 0.0000 27.5479 0.0000 0.0000
# 5 0.0000 0.0000 0.0000 0.0000 34.8622 0.0000
# 6 0.0000 0.0000 0.0000 0.0000 0.0000 44.3362
#
#
#
# Elastic Compliance Matrix: (Units=1/GPa)
#
#
# Indices 1 2 3 4 5 6 
#
# 1 0.009270 -0.006352 -0.003239 0.000000 0.000000 0.000000
# 2 -0.006352 0.011904 -0.002803 0.000000 0.000000 0.000000
# 3 -0.003239 -0.002803 0.022823 0.000000 0.000000 0.000000
# 4 0.000000 0.000000 0.000000 0.036300 0.000000 0.000000
# 5 0.000000 0.000000 0.000000 0.000000 0.028684 0.000000
# 6 0.000000 0.000000 0.000000 0.000000 0.000000 0.022555
#
#
# Mechanical properties :
#
#
# Convention : Reuss Voigt Hill
#
# Bulk Modulus (GPa) = 52.05752 90.70402 71.38077
# Shear Modulus (GPa) = 30.72611 35.77205 33.24908
#
# Velocity S-wave (km/s) = 3.99505 4.31062 4.15583
# Velocity P-wave (km/s) = 6.95136 8.47884 7.75281
#
# Compressibility (1/GPa) = 0.01920952
#
# Stress axis : x y z
#
# Youngs Moduli (GPa) = 107.87181 84.00274 43.81612
#
# Poissons Ratio (x) = 0.53355 0.14192
# Poissons Ratio (y) = 0.68515 0.12283
# Poissons Ratio (z) = 0.34939 0.23549
#
# Static dielectric constant tensor:
#      x y z
#    x 3.521890 0.000000 0.000000 
#    y 0.000000 3.658110 0.000000 
#    z 0.000000 0.000000 3.364220 
# 
# 
# High freq. dielectric constant tensor:
#      x y z
#    x 1.770570 0.000000 0.000000 
#    y 0.000000 1.753140 0.000000 
#    z 0.000000 0.000000 1.737590 
# 
# From -- ./inp_files/5960.got.cif
#   From: 2010.03.12/outbox.cif.g09.slc.cpg/sg72_3_cif.got.tgz:5960.got - 2010.04.16 14:54:00.
