data_PCOD8293179
_publ_section_title
;
Structure prediction by ZEFSAII (Michael W. Deem and Ramdas Pophale) SiO2 
 PCOD8293179
Probable space group: I B A M
;
_chemical_formula_sum "Si O2"
_cell_formula_units_Z 128
_cell_length_a 23.936933
_cell_length_b 12.003791
_cell_length_c 23.933416
_cell_angle_alpha 90.000000
_cell_angle_beta 90.000000
_cell_angle_gamma 90.000000
_cell_volume 6876.882739
_symmetry_space_group_name_H-M "I B A M"
_symmetry_group_IT_number 72
_symmetry_cell_setting 'orthorhombic'
loop_
_space_group_symop_operation_xyz
x,y,z
-x,-y,z
x,-y,1/2-z
-x,y,1/2-z
-x,-y,-z
x,y,-z
-x,y,1/2+z
x,-y,1/2+z
1/2+x,1/2+y,1/2+z
1/2-x,1/2-y,1/2+z
1/2+x,1/2-y,-z
1/2-x,1/2+y,-z
1/2-x,1/2-y,1/2-z
1/2+x,1/2+y,1/2-z
1/2-x,1/2+y,z
1/2+x,1/2-y,z
loop_
_atom_site_type_symbol
_atom_site_label
_atom_site_fract_x
_atom_site_fract_y
_atom_site_fract_z
Si Si1 0.910628 0.285567 0.565713
Si Si2 0.524971 0.878788 0.061108
Si Si3 0.332179 0.616429 0.124496
Si Si4 0.314009 0.714968 0.759593
Si Si5 0.220294 0.685718 0.936680
Si Si6 0.806223 0.563031 0.802959
Si Si7 0.368098 0.974983 0.600728
Si Si8 0.808406 0.123565 0.856268
O O1 0.906032 0.257838 0.500000
O O2 0.885821 0.184153 0.602178
O O3 0.879122 0.401778 0.576929
O O4 0.976048 0.297505 0.584091
O O5 0.500000 0.000000 0.053346
O O6 0.578953 0.890538 0.100740
O O7 0.545086 0.836570 0.000000
O O8 0.321588 0.626731 0.190904
O O9 0.279716 0.661275 0.090464
O O10 0.340306 0.483423 0.117601
O O11 0.250000 0.750000 0.750000
O O12 0.341986 0.829971 0.781460
O O13 0.337943 0.666319 0.701376
O O14 0.181876 0.575921 0.936047
O O15 0.188075 0.781432 0.902742
O O16 0.230200 0.725031 0.000000
O O17 0.779510 0.500000 0.750000
O O18 0.849302 0.482730 0.834782
O O19 0.756516 0.594868 0.845010
#
# Coordination Sequence:
#
# PCOD8293179 Si02
#       8
#    16  16  16  16  16  16  16  16
#     4  10  20  36  57  83 112 146 191 237 290 346
#     4   8  16  32  56  80 105 144 187 228 273 339
#     4  12  21  35  52  80 109 153 184 239 280 335
#     4  10  18  34  52  74 106 145 193 226 261 334
#     4  12  24  34  49  79 116 150 181 226 289 346
#     4  11  19  32  54  81 112 148 186 234 278 338
#     4  11  19  35  55  83 112 145 188 233 294 343
#     4  11  22  37  51  72 115 154 196 223 274 345
#
# _framework density 18.613084000000001
#
# number of rings (size 3 to 8) (size 9 to 14) (size 15 to 20)
#    0.000    1.375    5.000    4.875    0.000    1.000 
#    0.000    0.000    0.000    4.125    0.000    2.625 
#    0.000    4.250    0.000    0.000    0.000    0.000 
#
# Total GULP energy -793183.387841 kJ/mol
# GULP energy per Si atom -12393.490435 kJ/mol
# Density = 1.857072 g / cm^3
# Si number density = 18.613084 Si / 1000 Ang^3
#
#
#
# Elastic Constant Matrix: (Units=GPa)
#
#
# Indices 1 2 3 4 5 6 
#
# 1 75.2492 26.0900 29.9742 0.0000 0.0000 0.0000
# 2 26.0900 92.0737 38.6927 0.0000 0.0000 0.0000
# 3 29.9742 38.6927 119.5295 0.0000 0.0000 0.0000
# 4 0.0000 0.0000 0.0000 24.4119 0.0000 0.0000
# 5 0.0000 0.0000 0.0000 0.0000 18.5007 0.0000
# 6 0.0000 0.0000 0.0000 0.0000 0.0000 24.3648
#
#
#
# Elastic Compliance Matrix: (Units=1/GPa)
#
#
# Indices 1 2 3 4 5 6 
#
# 1 0.015538 -0.003201 -0.002860 0.000000 0.000000 0.000000
# 2 -0.003201 0.013230 -0.003480 0.000000 0.000000 0.000000
# 3 -0.002860 -0.003480 0.010210 0.000000 0.000000 0.000000
# 4 0.000000 0.000000 0.000000 0.040964 0.000000 0.000000
# 5 0.000000 0.000000 0.000000 0.000000 0.054052 0.000000
# 6 0.000000 0.000000 0.000000 0.000000 0.000000 0.041043
#
#
# Mechanical properties :
#
#
# Convention : Reuss Voigt Hill
#
# Bulk Modulus (GPa) = 50.26155 52.92957 51.59556
# Shear Modulus (GPa) = 24.90638 26.26184 25.58411
#
# Velocity S-wave (km/s) = 3.66199 3.76032 3.71148
# Velocity P-wave (km/s) = 6.70389 6.88126 6.79316
#
# Compressibility (1/GPa) = 0.01989593
#
# Stress axis : x y z
#
# Youngs Moduli (GPa) = 64.35681 75.58387 97.94361
#
# Poissons Ratio (x) = 0.24194 0.28015
# Poissons Ratio (y) = 0.20600 0.34085
# Poissons Ratio (z) = 0.18408 0.26304
#
# Static dielectric constant tensor:
#      x y z
#    x 3.321390 0.000000 0.000000 
#    y 0.000000 3.690170 0.000000 
#    z 0.000000 0.000000 3.599970 
# 
# 
# High freq. dielectric constant tensor:
#      x y z
#    x 1.673850 0.000000 0.000000 
#    y 0.000000 1.721470 0.000000 
#    z 0.000000 0.000000 1.725430 
# 
# From -- ./inp_files/45814.got.cif
#   From: 2010.03.12/outbox.cif.g09.slc.cpg/sg72_23_cif.got.tgz:45814.got - 2010.04.16 14:54:00.
