data_PCOD8293496
_publ_section_title
;
Structure prediction by ZEFSAII (Michael W. Deem and Ramdas Pophale) SiO2 
 PCOD8293496
Probable space group: I B A M
;
_chemical_formula_sum "Si O2"
_cell_formula_units_Z 84
_cell_length_a 11.649298
_cell_length_b 23.733162
_cell_length_c 17.698701
_cell_angle_alpha 90.000000
_cell_angle_beta 90.000000
_cell_angle_gamma 90.000000
_cell_volume 4893.242636
_symmetry_space_group_name_H-M "I B A M"
_symmetry_group_IT_number 72
_symmetry_cell_setting 'orthorhombic'
loop_
_space_group_symop_operation_xyz
x,y,z
-x,-y,z
x,-y,1/2-z
-x,y,1/2-z
-x,-y,-z
x,y,-z
-x,y,1/2+z
x,-y,1/2+z
1/2+x,1/2+y,1/2+z
1/2-x,1/2-y,1/2+z
1/2+x,1/2-y,-z
1/2-x,1/2+y,-z
1/2-x,1/2-y,1/2-z
1/2+x,1/2+y,1/2-z
1/2-x,1/2+y,z
1/2+x,1/2-y,z
loop_
_atom_site_type_symbol
_atom_site_label
_atom_site_fract_x
_atom_site_fract_y
_atom_site_fract_z
Si Si1 0.589436 0.046841 0.085448
Si Si2 0.500000 0.500000 0.250000
Si Si3 0.593660 0.756114 0.310426
Si Si4 0.779560 0.051610 0.206165
Si Si5 0.537855 0.164240 0.585505
Si Si6 0.732885 0.835942 0.205567
O O1 0.710676 0.053905 0.128065
O O2 0.534904 0.107972 0.089532
O O3 0.500000 0.000000 0.118797
O O4 0.619803 0.029092 0.000000
O O5 0.583687 0.462272 0.304292
O O6 0.500000 0.737252 0.250000
O O7 0.535474 0.782428 0.384877
O O8 0.676242 0.802839 0.274767
O O9 0.663021 0.699707 0.330974
O O10 0.774404 0.106099 0.258967
O O11 0.719112 0.000000 0.250000
O O12 0.576149 0.177853 0.500000
O O13 0.647394 0.152936 0.637078
#
# Coordination Sequence:
#
# PCOD8293496 Si02
#       6
#    16   4  16  16  16  16
#     4  10  20  34  56  85 112 142 179 230 294 343
#     4   8  24  36  52  84 100 140 190 226 266 324
#     4   9  19  33  53  76 101 139 182 223 263 321
#     4  10  20  36  57  78 112 143 185 236 273 327
#     4  10  20  34  51  80 115 137 178 229 274 336
#     4  10  19  33  54  78 104 143 180 223 277 323
#
# _framework density 17.166530000000002
#
# number of rings (size 3 to 8) (size 9 to 14) (size 15 to 20)
#    0.571    1.714    1.905    1.143    1.333    2.667 
#    0.000    0.476    0.000    0.000    0.000    0.000 
#    0.000    0.000    0.000    0.000    0.000    0.000 
#
# Total GULP energy -520448.463792 kJ/mol
# GULP energy per Si atom -12391.630090 kJ/mol
# Density = 1.712746 g / cm^3
# Si number density = 17.166530 Si / 1000 Ang^3
#
#
#
# Elastic Constant Matrix: (Units=GPa)
#
#
# Indices 1 2 3 4 5 6 
#
# 1 114.7285 51.1662 51.6019 0.0000 0.0000 0.0000
# 2 51.1662 77.6152 45.7769 0.0000 0.0000 0.0000
# 3 51.6019 45.7769 93.4194 0.0001 0.0000 0.0000
# 4 0.0000 0.0000 0.0001 8.8004 0.0000 0.0000
# 5 0.0000 0.0000 0.0000 0.0000 9.8977 0.0000
# 6 0.0000 0.0000 0.0000 0.0000 0.0000 29.9946
#
#
#
# Elastic Compliance Matrix: (Units=1/GPa)
#
#
# Indices 1 2 3 4 5 6 
#
# 1 0.013498 -0.006330 -0.004354 0.000000 0.000000 0.000000
# 2 -0.006330 0.021090 -0.006838 0.000000 0.000000 0.000000
# 3 -0.004354 -0.006838 0.016460 0.000000 0.000000 0.000000
# 4 0.000000 0.000000 0.000000 0.113631 0.000000 0.000000
# 5 0.000000 0.000000 0.000000 0.000000 0.101034 0.000000
# 6 0.000000 0.000000 0.000000 0.000000 0.000000 0.033339
#
#
# Mechanical properties :
#
#
# Convention : Reuss Voigt Hill
#
# Bulk Modulus (GPa) = 62.48441 64.76146 63.62293
# Shear Modulus (GPa) = 14.73057 18.88640 16.80849
#
# Velocity S-wave (km/s) = 2.93251 3.32051 3.13252
# Velocity P-wave (km/s) = 6.92417 7.24626 7.08705
#
# Compressibility (1/GPa) = 0.01600399
#
# Stress axis : x y z
#
# Youngs Moduli (GPa) = 74.08762 47.41579 60.75366
#
# Poissons Ratio (x) = 0.30015 0.26451
# Poissons Ratio (y) = 0.46899 0.41542
# Poissons Ratio (z) = 0.32256 0.32422
#
# Static dielectric constant tensor:
#      x y z
#    x 3.329890 0.000000 0.000000 
#    y 0.000000 3.269460 0.000000 
#    z 0.000000 0.000000 3.204850 
# 
# 
# High freq. dielectric constant tensor:
#      x y z
#    x 1.659760 0.000000 0.000000 
#    y 0.000000 1.672070 0.000000 
#    z 0.000000 0.000000 1.642510 
# 
# From -- ./inp_files/37024.got.cif
#   From: 2010.03.12/outbox.cif.g09.slc.cpg/sg72_19_cif.got.tgz:37024.got - 2010.04.16 14:54:00.
