data_PCOD8293076
_publ_section_title
;
Structure prediction by ZEFSAII (Michael W. Deem and Ramdas Pophale) SiO2 
 PCOD8293076
Probable space group: I B A M
;
_chemical_formula_sum "Si O2"
_cell_formula_units_Z 64
_cell_length_a 30.360610
_cell_length_b 14.831249
_cell_length_c 8.686912
_cell_angle_alpha 90.000000
_cell_angle_beta 90.000000
_cell_angle_gamma 90.000000
_cell_volume 3911.592830
_symmetry_space_group_name_H-M "I B A M"
_symmetry_group_IT_number 72
_symmetry_cell_setting 'orthorhombic'
loop_
_space_group_symop_operation_xyz
x,y,z
-x,-y,z
x,-y,1/2-z
-x,y,1/2-z
-x,-y,-z
x,y,-z
-x,y,1/2+z
x,-y,1/2+z
1/2+x,1/2+y,1/2+z
1/2-x,1/2-y,1/2+z
1/2+x,1/2-y,-z
1/2-x,1/2+y,-z
1/2-x,1/2-y,1/2-z
1/2+x,1/2+y,1/2-z
1/2-x,1/2+y,z
1/2+x,1/2-y,z
loop_
_atom_site_type_symbol
_atom_site_label
_atom_site_fract_x
_atom_site_fract_y
_atom_site_fract_z
Si Si1 0.703004 0.227981 0.181763
Si Si2 0.453052 0.404984 0.681266
Si Si3 0.853828 0.409151 0.825370
Si Si4 0.382165 0.279732 0.175154
O O1 0.750000 0.250000 0.250000
O O2 0.689347 0.125901 0.231733
O O3 0.666710 0.297279 0.253961
O O4 0.703778 0.238137 0.000000
O O5 0.436864 0.500000 0.750000
O O6 0.500000 0.376661 0.750000
O O7 0.457684 0.414596 0.500000
O O8 0.418311 0.328034 0.721636
O O9 0.872979 0.500000 0.750000
O O10 0.890656 0.329161 0.819162
O O11 0.839711 0.428857 0.000000
O O12 0.384035 0.315844 0.000000
#
# Coordination Sequence:
#
# PCOD8293076 Si02
#       4
#    16  16  16  16
#     4  10  18  31  50  73 103 137 174 215 263 311
#     4  11  21  35  56  80 108 141 177 219 268 322
#     4   9  18  31  51  75 102 135 173 211 254 306
#     4   9  19  34  52  76 105 137 175 217 261 312
#
# _framework density 16.361621
#
# number of rings (size 3 to 8) (size 9 to 14) (size 15 to 20)
#    1.500    0.750    0.000    6.000    0.000    0.000 
#    0.000    1.250    0.000    0.750    0.000    5.250 
#    0.000    0.000    0.000    0.000    0.000    0.000 
#
# Total GULP energy -396472.076520 kJ/mol
# GULP energy per Si atom -12389.752391 kJ/mol
# Density = 1.632438 g / cm^3
# Si number density = 16.361621 Si / 1000 Ang^3
#
#
#
# Elastic Constant Matrix: (Units=GPa)
#
#
# Indices 1 2 3 4 5 6 
#
# 1 92.4565 49.0240 45.1900 0.0000 0.0000 0.0000
# 2 49.0240 80.1081 39.4638 0.0000 0.0000 0.0000
# 3 45.1900 39.4638 151.5108 0.0000 0.0000 0.0000
# 4 0.0000 0.0000 0.0000 30.2267 0.0000 0.0000
# 5 0.0000 0.0000 0.0000 0.0000 29.7790 0.0000
# 6 0.0000 0.0000 0.0000 0.0000 0.0000 24.1404
#
#
#
# Elastic Compliance Matrix: (Units=1/GPa)
#
#
# Indices 1 2 3 4 5 6 
#
# 1 0.016919 -0.009026 -0.002695 0.000000 0.000000 0.000000
# 2 -0.009026 0.019136 -0.002292 0.000000 0.000000 0.000000
# 3 -0.002695 -0.002292 0.008001 0.000000 0.000000 0.000000
# 4 0.000000 0.000000 0.000000 0.033083 0.000000 0.000000
# 5 0.000000 0.000000 0.000000 0.000000 0.033581 0.000000
# 6 0.000000 0.000000 0.000000 0.000000 0.000000 0.041424
#
#
# Mechanical properties :
#
#
# Convention : Reuss Voigt Hill
#
# Bulk Modulus (GPa) = 62.38689 65.71455 64.05072
# Shear Modulus (GPa) = 26.95183 29.52240 28.23711
#
# Velocity S-wave (km/s) = 4.06305 4.25239 4.15880
# Velocity P-wave (km/s) = 7.76041 8.02256 7.89257
#
# Compressibility (1/GPa) = 0.01602901
#
# Stress axis : x y z
#
# Youngs Moduli (GPa) = 59.10352 52.25679 124.98226
#
# Poissons Ratio (x) = 0.47169 0.33687
# Poissons Ratio (y) = 0.53350 0.28648
# Poissons Ratio (z) = 0.15930 0.11978
#
# Static dielectric constant tensor:
#      x y z
#    x 2.882380 0.000000 0.000000 
#    y 0.000000 2.954110 0.000000 
#    z 0.000000 0.000000 3.283710 
# 
# 
# High freq. dielectric constant tensor:
#      x y z
#    x 1.602470 0.000000 0.000000 
#    y 0.000000 1.611950 0.000000 
#    z 0.000000 0.000000 1.656420 
# 
# From -- ./inp_files/3790.got.cif
#   From: 2010.03.12/outbox.cif.g09.slc.cpg/sg72_2_cif.got.tgz:3790.got - 2010.04.16 14:54:00.
