data_PCOD8293020
_publ_section_title
;
Structure prediction by ZEFSAII (Michael W. Deem and Ramdas Pophale) SiO2 
 PCOD8293020
Probable space group: I B A M
;
_chemical_formula_sum "Si O2"
_cell_formula_units_Z 96
_cell_length_a 30.020451
_cell_length_b 20.426216
_cell_length_c 9.040149
_cell_angle_alpha 90.000000
_cell_angle_beta 90.000000
_cell_angle_gamma 90.000000
_cell_volume 5543.457485
_symmetry_space_group_name_H-M "I B A M"
_symmetry_group_IT_number 72
_symmetry_cell_setting 'orthorhombic'
loop_
_space_group_symop_operation_xyz
x,y,z
-x,-y,z
x,-y,1/2-z
-x,y,1/2-z
-x,-y,-z
x,y,-z
-x,y,1/2+z
x,-y,1/2+z
1/2+x,1/2+y,1/2+z
1/2-x,1/2-y,1/2+z
1/2+x,1/2-y,-z
1/2-x,1/2+y,-z
1/2-x,1/2-y,1/2-z
1/2+x,1/2+y,1/2-z
1/2-x,1/2+y,z
1/2+x,1/2-y,z
loop_
_atom_site_type_symbol
_atom_site_label
_atom_site_fract_x
_atom_site_fract_y
_atom_site_fract_z
Si Si1 0.456849 0.385323 0.665857
Si Si2 0.130751 0.117376 0.671013
Si Si3 0.275212 0.565566 0.326533
Si Si4 0.221205 0.306310 0.175353
Si Si5 0.043655 0.729300 0.331914
Si Si6 0.632661 0.770975 0.172731
O O1 0.500000 0.413619 0.750000
O O2 0.458207 0.412397 0.500000
O O3 0.411553 0.410814 0.741020
O O4 0.457616 0.307320 0.669755
O O5 0.121494 0.103830 0.500000
O O6 0.174776 0.081081 0.729457
O O7 0.138384 0.193980 0.698875
O O8 0.257393 0.500000 0.250000
O O9 0.275507 0.554511 0.500000
O O10 0.242683 0.624366 0.282909
O O11 0.250000 0.250000 0.250000
O O12 0.171819 0.307799 0.241293
O O13 0.220313 0.294265 0.000000
O O14 0.045087 0.703029 0.500000
O O15 0.086453 0.703736 0.242293
O O16 0.000000 0.701232 0.250000
O O17 0.633980 0.788916 0.000000
#
# Coordination Sequence:
#
# PCOD8293020 Si02
#       6
#    16  16  16  16  16  16
#     4   9  16  25  40  64  90 121 160 200 247 297
#     4   9  17  31  47  66  95 126 160 205 250 295
#     4  10  22  38  53  73 100 132 168 209 255 304
#     4  11  21  35  53  76 103 132 169 212 257 305
#     4   9  16  26  40  64  97 133 166 201 247 299
#     4  10  18  30  48  72 100 131 167 209 253 299
#
# _framework density 17.317712
#
# number of rings (size 3 to 8) (size 9 to 14) (size 15 to 20)
#    0.000    2.333    1.667    2.000    0.000    6.667 
#    0.000    0.000    0.000    0.500    0.000    3.500 
#    0.000    0.667    0.000    7.000    0.000    4.167 
#
# Total GULP energy -595255.977470 kJ/mol
# GULP energy per Si atom -12401.166197 kJ/mol
# Density = 1.727830 g / cm^3
# Si number density = 17.317712 Si / 1000 Ang^3
#
#
#
# Elastic Constant Matrix: (Units=GPa)
#
#
# Indices 1 2 3 4 5 6 
#
# 1 145.7461 47.6507 68.9720 0.0000 0.0000 0.0000
# 2 47.6507 58.7480 42.3202 0.0000 0.0000 0.0000
# 3 68.9720 42.3202 112.2367 0.0000 0.0000 0.0000
# 4 0.0000 0.0000 0.0000 18.2445 0.0000 0.0000
# 5 0.0000 0.0000 0.0000 0.0000 38.8793 0.0000
# 6 0.0000 0.0000 0.0000 0.0000 0.0000 12.1073
#
#
#
# Elastic Compliance Matrix: (Units=1/GPa)
#
#
# Indices 1 2 3 4 5 6 
#
# 1 0.010821 -0.005473 -0.004586 0.000000 0.000000 0.000000
# 2 -0.005473 0.026138 -0.006492 0.000000 0.000000 0.000000
# 3 -0.004586 -0.006492 0.014176 0.000000 0.000000 0.000000
# 4 0.000000 0.000000 0.000000 0.054811 0.000000 0.000000
# 5 0.000000 0.000000 0.000000 0.000000 0.025721 0.000000
# 6 0.000000 0.000000 0.000000 0.000000 0.000000 0.082594
#
#
# Mechanical properties :
#
#
# Convention : Reuss Voigt Hill
#
# Bulk Modulus (GPa) = 55.45711 70.51296 62.98504
# Shear Modulus (GPa) = 19.73363 24.36542 22.04953
#
# Velocity S-wave (km/s) = 3.37932 3.75502 3.57211
# Velocity P-wave (km/s) = 6.87890 7.72049 7.31181
#
# Compressibility (1/GPa) = 0.01803195
#
# Stress axis : x y z
#
# Youngs Moduli (GPa) = 92.41355 38.25840 70.54244
#
# Poissons Ratio (x) = 0.20940 0.32350
# Poissons Ratio (y) = 0.50581 0.45798
# Poissons Ratio (z) = 0.42380 0.24838
#
# Static dielectric constant tensor:
#      x y z
#    x 3.495260 0.000000 0.000000 
#    y 0.000000 2.744000 0.000000 
#    z 0.000000 0.000000 3.343190 
# 
# 
# High freq. dielectric constant tensor:
#      x y z
#    x 1.682110 0.000000 0.000000 
#    y 0.000000 1.606340 0.000000 
#    z 0.000000 0.000000 1.681650 
# 
# From -- ./inp_files/5945.got.cif
#   From: 2010.03.12/outbox.cif.g09.slc.cpg/sg72_3_cif.got.tgz:5945.got - 2010.04.16 14:54:00.
