data_PCOD8293558
_publ_section_title
;
Structure prediction by ZEFSAII (Michael W. Deem and Ramdas Pophale) SiO2 
 PCOD8293558
Probable space group: I B A M
;
_chemical_formula_sum "Si O2"
_cell_formula_units_Z 96
_cell_length_a 13.265525
_cell_length_b 12.875790
_cell_length_c 31.192206
_cell_angle_alpha 90.000000
_cell_angle_beta 90.000000
_cell_angle_gamma 90.000000
_cell_volume 5327.757114
_symmetry_space_group_name_H-M "I B A M"
_symmetry_group_IT_number 72
_symmetry_cell_setting 'orthorhombic'
loop_
_space_group_symop_operation_xyz
x,y,z
-x,-y,z
x,-y,1/2-z
-x,y,1/2-z
-x,-y,-z
x,y,-z
-x,y,1/2+z
x,-y,1/2+z
1/2+x,1/2+y,1/2+z
1/2-x,1/2-y,1/2+z
1/2+x,1/2-y,-z
1/2-x,1/2+y,-z
1/2-x,1/2-y,1/2-z
1/2+x,1/2+y,1/2-z
1/2-x,1/2+y,z
1/2+x,1/2-y,z
loop_
_atom_site_type_symbol
_atom_site_label
_atom_site_fract_x
_atom_site_fract_y
_atom_site_fract_z
Si Si1 0.506822 0.676499 0.000000
Si Si2 0.362736 0.193620 0.860961
Si Si3 0.343883 0.501352 0.500000
Si Si4 0.941354 0.245031 0.409993
Si Si5 0.616828 0.989786 0.797007
Si Si6 0.718038 0.124869 0.864997
Si Si7 0.213590 0.066893 0.088739
O O1 0.487943 0.748143 0.958051
O O2 0.435125 0.578300 0.000000
O O3 0.618149 0.622360 0.000000
O O4 0.471329 0.237232 0.874988
O O5 0.363000 0.120556 0.819410
O O6 0.290431 0.286550 0.847249
O O7 0.314510 0.132440 0.901417
O O8 0.275462 0.476525 0.540852
O O9 0.857185 0.334449 0.402786
O O10 0.888244 0.132990 0.402779
O O11 0.500000 0.000000 0.790814
O O12 0.668930 0.000000 0.750000
O O13 0.652843 0.086036 0.825322
O O14 0.791112 0.033909 0.881339
#
# Coordination Sequence:
#
# PCOD8293558 Si02
#       7
#     8  16   8  16  16  16  16
#     4   9  18  28  50  71 101 145 174 215 265 291
#     4  10  20  34  56  80 104 142 175 217 267 312
#     4   9  16  32  46  71 105 139 180 215 253 309
#     4  10  19  34  50  78 110 139 186 221 255 317
#     4  10  20  37  59  79 104 137 170 213 268 324
#     4  10  20  35  55  79 106 139 177 218 265 316
#     4   9  20  32  51  77 107 145 182 218 264 303
#
# _framework density 18.018839
#
# number of rings (size 3 to 8) (size 9 to 14) (size 15 to 20)
#    0.000    2.333    1.667    1.000    0.000    4.000 
#    0.000    3.333    0.000    3.000    0.000    1.167 
#    0.000    0.000    0.000    0.000    0.000    0.000 
#
# Total GULP energy -594914.082996 kJ/mol
# GULP energy per Si atom -12394.043396 kJ/mol
# Density = 1.797783 g / cm^3
# Si number density = 18.018839 Si / 1000 Ang^3
#
#
#
# Elastic Constant Matrix: (Units=GPa)
#
#
# Indices 1 2 3 4 5 6 
#
# 1 73.5668 46.5261 43.2368 0.0000 0.0000 0.0000
# 2 46.5261 110.1237 59.5480 0.0000 0.0000 0.0000
# 3 43.2368 59.5480 129.2741 0.0000 0.0000 0.0000
# 4 0.0000 0.0000 0.0000 23.3285 0.0000 0.0000
# 5 0.0000 0.0000 0.0000 0.0000 20.6721 0.0000
# 6 0.0000 0.0000 0.0000 0.0000 0.0000 23.1839
#
#
#
# Elastic Compliance Matrix: (Units=1/GPa)
#
#
# Indices 1 2 3 4 5 6 
#
# 1 0.019785 -0.006367 -0.003685 0.000000 0.000000 0.000000
# 2 -0.006367 0.014141 -0.004385 0.000000 0.000000 0.000000
# 3 -0.003685 -0.004385 0.010988 0.000000 0.000000 0.000000
# 4 0.000000 0.000000 0.000000 0.042866 0.000000 0.000000
# 5 0.000000 0.000000 0.000000 0.000000 0.048374 0.000000
# 6 0.000000 0.000000 0.000000 0.000000 0.000000 0.043133
#
#
# Mechanical properties :
#
#
# Convention : Reuss Voigt Hill
#
# Bulk Modulus (GPa) = 62.33496 67.95405 65.14451
# Shear Modulus (GPa) = 23.41843 24.34714 23.88279
#
# Velocity S-wave (km/s) = 3.60900 3.67986 3.64460
# Velocity P-wave (km/s) = 7.21359 7.47327 7.34458
#
# Compressibility (1/GPa) = 0.01604236
#
# Stress axis : x y z
#
# Youngs Moduli (GPa) = 50.54325 70.71405 91.01174
#
# Poissons Ratio (x) = 0.45020 0.33534
# Poissons Ratio (y) = 0.32179 0.39906
# Poissons Ratio (z) = 0.18623 0.31006
#
# Static dielectric constant tensor:
#      x y z
#    x 3.282700 0.000000 0.000000 
#    y 0.000000 3.571610 0.000000 
#    z 0.000000 0.000000 3.483760 
# 
# 
# High freq. dielectric constant tensor:
#      x y z
#    x 1.691170 0.000000 0.000000 
#    y 0.000000 1.702450 0.000000 
#    z 0.000000 0.000000 1.684220 
# 
# From -- ./inp_files/48665.got.cif
#   From: 2010.03.12/outbox.cif.g09.slc.cpg/sg72_25_cif.got.tgz:48665.got - 2010.04.16 14:54:00.
