data_PCOD8293248
_publ_section_title
;
Structure prediction by ZEFSAII (Michael W. Deem and Ramdas Pophale) SiO2 
 PCOD8293248
Probable space group: I B A M
;
_chemical_formula_sum "Si O2"
_cell_formula_units_Z 96
_cell_length_a 25.514925
_cell_length_b 22.605430
_cell_length_c 8.863234
_cell_angle_alpha 90.000000
_cell_angle_beta 90.000000
_cell_angle_gamma 90.000000
_cell_volume 5112.099333
_symmetry_space_group_name_H-M "I B A M"
_symmetry_group_IT_number 72
_symmetry_cell_setting 'orthorhombic'
loop_
_space_group_symop_operation_xyz
x,y,z
-x,-y,z
x,-y,1/2-z
-x,y,1/2-z
-x,-y,-z
x,y,-z
-x,y,1/2+z
x,-y,1/2+z
1/2+x,1/2+y,1/2+z
1/2-x,1/2-y,1/2+z
1/2+x,1/2-y,-z
1/2-x,1/2+y,-z
1/2-x,1/2-y,1/2-z
1/2+x,1/2+y,1/2-z
1/2-x,1/2+y,z
1/2+x,1/2-y,z
loop_
_atom_site_type_symbol
_atom_site_label
_atom_site_fract_x
_atom_site_fract_y
_atom_site_fract_z
Si Si1 0.944030 0.792233 0.820740
Si Si2 0.300881 0.767608 0.335010
Si Si3 0.351889 0.937872 0.676467
Si Si4 0.888421 0.672066 0.175949
Si Si5 0.146535 0.145252 0.334165
Si Si6 0.268877 0.437649 0.322548
O O1 0.926797 0.725311 0.771792
O O2 0.906592 0.845525 0.762449
O O3 0.000000 0.804839 0.750000
O O4 0.945778 0.796298 0.000000
O O5 0.289904 0.798038 0.500000
O O6 0.250000 0.750000 0.250000
O O7 0.329394 0.811454 0.221068
O O8 0.334916 0.710766 0.365678
O O9 0.359665 0.943825 0.500000
O O10 0.395075 0.890417 0.737614
O O11 0.291348 0.920589 0.716558
O O12 0.366484 0.000000 0.750000
O O13 0.893264 0.660353 0.000000
O O14 0.135547 0.115975 0.500000
O O15 0.191032 0.110269 0.243734
O O16 0.283785 0.500000 0.250000
O O17 0.277822 0.441897 0.500000
#
# Coordination Sequence:
#
# PCOD8293248 Si02
#       6
#    16  16  16  16  16  16
#     4  10  21  37  57  79 102 130 166 212 264 314
#     4  10  19  29  44  68  99 133 166 203 249 300
#     4  10  20  33  51  75 106 143 179 213 250 297
#     4  10  20  33  50  73 101 132 168 209 254 305
#     4  10  20  33  50  73 101 133 169 209 253 302
#     4  10  20  33  50  74 105 141 178 212 248 294
#
# _framework density 18.778977999999999
#
# number of rings (size 3 to 8) (size 9 to 14) (size 15 to 20)
#    0.000    2.000    0.000    4.000    0.000    8.667 
#    0.000    0.000    0.000    1.000    0.000    7.000 
#    0.000    0.000    0.000    0.000    0.000    0.000 
#
# Total GULP energy -594758.102169 kJ/mol
# GULP energy per Si atom -12390.793795 kJ/mol
# Density = 1.873624 g / cm^3
# Si number density = 18.778978 Si / 1000 Ang^3
#
#
#
# Elastic Constant Matrix: (Units=GPa)
#
#
# Indices 1 2 3 4 5 6 
#
# 1 30.7246 -12.0047 11.9493 0.0000 0.0000 0.0000
# 2 -12.0047 49.2475 17.7118 0.0000 0.0000 0.0000
# 3 11.9493 17.7118 91.2457 0.0000 0.0000 0.0000
# 4 0.0000 0.0000 0.0000 34.1830 0.0000 0.0000
# 5 0.0000 0.0000 0.0000 0.0000 24.1218 0.0000
# 6 0.0000 0.0000 0.0000 0.0000 0.0000 22.7259
#
#
#
# Elastic Compliance Matrix: (Units=1/GPa)
#
#
# Indices 1 2 3 4 5 6 
#
# 1 0.040517 0.012669 -0.007765 0.000000 0.000000 0.000000
# 2 0.012669 0.025791 -0.006666 0.000000 0.000000 0.000000
# 3 -0.007765 -0.006666 0.013270 0.000000 0.000000 0.000000
# 4 0.000000 0.000000 0.000000 0.029254 0.000000 0.000000
# 5 0.000000 0.000000 0.000000 0.000000 0.041456 0.000000
# 6 0.000000 0.000000 0.000000 0.000000 0.000000 0.044003
#
#
# Mechanical properties :
#
#
# Convention : Reuss Voigt Hill
#
# Bulk Modulus (GPa) = 13.14824 22.94787 18.04806
# Shear Modulus (GPa) = 22.40477 26.44357 24.42417
#
# Velocity S-wave (km/s) = 3.45784 3.75660 3.61031
# Velocity P-wave (km/s) = 4.79156 5.57338 5.19719
#
# Compressibility (1/GPa) = 0.07605579
#
# Stress axis : x y z
#
# Youngs Moduli (GPa) = 24.68078 38.77301 75.35681
#
# Poissons Ratio (x) = -0.49123 0.58517
# Poissons Ratio (y) = -0.31269 0.50229
# Poissons Ratio (z) = 0.19165 0.25844
#
# Static dielectric constant tensor:
#      x y z
#    x 4.021650 0.000000 0.000000 
#    y 0.000000 3.390600 0.000000 
#    z 0.000000 0.000000 3.734970 
# 
# 
# High freq. dielectric constant tensor:
#      x y z
#    x 1.695960 0.000000 0.000000 
#    y 0.000000 1.722570 0.000000 
#    z 0.000000 0.000000 1.749950 
# 
# From -- ./inp_files/5926.got.cif
#   From: 2010.03.12/outbox.cif.g09.slc.cpg/sg72_3_cif.got.tgz:5926.got - 2010.04.16 14:54:00.
