data_PCOD8293590
_publ_section_title
;
Structure prediction by ZEFSAII (Michael W. Deem and Ramdas Pophale) SiO2 
 PCOD8293590
Probable space group: I B A M
;
_chemical_formula_sum "Si O2"
_cell_formula_units_Z 72
_cell_length_a 16.631394
_cell_length_b 22.933868
_cell_length_c 9.420785
_cell_angle_alpha 90.000000
_cell_angle_beta 90.000000
_cell_angle_gamma 90.000000
_cell_volume 3593.296490
_symmetry_space_group_name_H-M "I B A M"
_symmetry_group_IT_number 72
_symmetry_cell_setting 'orthorhombic'
loop_
_space_group_symop_operation_xyz
x,y,z
-x,-y,z
x,-y,1/2-z
-x,y,1/2-z
-x,-y,-z
x,y,-z
-x,y,1/2+z
x,-y,1/2+z
1/2+x,1/2+y,1/2+z
1/2-x,1/2-y,1/2+z
1/2+x,1/2-y,-z
1/2-x,1/2+y,-z
1/2-x,1/2-y,1/2-z
1/2+x,1/2+y,1/2-z
1/2-x,1/2+y,z
1/2+x,1/2-y,z
loop_
_atom_site_type_symbol
_atom_site_label
_atom_site_fract_x
_atom_site_fract_y
_atom_site_fract_z
Si Si1 0.107324 0.449161 0.655069
Si Si2 0.708680 0.442565 0.168990
Si Si3 0.000000 0.650389 0.250000
Si Si4 0.309259 0.330612 0.834510
Si Si5 0.641194 0.226340 0.842694
O O1 0.068613 0.500000 0.750000
O O2 0.109894 0.476832 0.500000
O O3 0.197345 0.434575 0.704290
O O4 0.054444 0.390721 0.651087
O O5 0.675982 0.500000 0.250000
O O6 0.665999 0.387235 0.242769
O O7 0.690364 0.445264 0.000000
O O8 0.058535 0.690352 0.343123
O O9 0.362273 0.277019 0.774964
O O10 0.215328 0.316724 0.810345
O O11 0.329898 0.340479 0.000000
O O12 0.652370 0.253670 0.000000
#
# Coordination Sequence:
#
# PCOD8293590 Si02
#       5
#    16  16   8  16  16
#     4  10  22  35  50  73 107 148 185 223 264 314
#     4  10  19  34  55  80 108 141 182 225 271 323
#     4  12  21  36  54  80 107 146 188 230 270 322
#     4  10  20  37  56  77 105 142 184 230 278 326
#     4  10  22  36  54  77 106 144 186 230 276 325
#
# _framework density 20.037310999999999
#
# number of rings (size 3 to 8) (size 9 to 14) (size 15 to 20)
#    0.000    1.778    2.222    2.333    0.000    6.222 
#    0.000    0.000    0.000    0.000    0.000    0.778 
#    0.000    5.333    0.000    0.000    0.000    0.000 
#
# Total GULP energy -446318.967453 kJ/mol
# GULP energy per Si atom -12397.749096 kJ/mol
# Density = 1.999171 g / cm^3
# Si number density = 20.037311 Si / 1000 Ang^3
#
#
#
# Elastic Constant Matrix: (Units=GPa)
#
#
# Indices 1 2 3 4 5 6 
#
# 1 29.5004 19.4284 8.0155 0.0000 0.0000 0.0000
# 2 19.4284 136.1440 76.8867 0.0000 0.0000 0.0000
# 3 8.0155 76.8867 136.6280 0.0000 0.0000 0.0000
# 4 0.0000 0.0000 0.0000 39.9483 0.0000 0.0000
# 5 0.0000 0.0000 0.0000 0.0000 4.8463 0.0000
# 6 0.0000 0.0000 0.0000 0.0000 0.0000 28.5850
#
#
#
# Elastic Compliance Matrix: (Units=1/GPa)
#
#
# Indices 1 2 3 4 5 6 
#
# 1 0.037546 -0.006031 0.001191 0.000000 0.000000 0.000000
# 2 -0.006031 0.011736 -0.006250 0.000000 0.000000 0.000000
# 3 0.001191 -0.006250 0.010767 0.000000 0.000000 0.000000
# 4 0.000000 0.000000 0.000000 0.025032 0.000000 0.000000
# 5 0.000000 0.000000 0.000000 0.000000 0.206343 0.000000
# 6 0.000000 0.000000 0.000000 0.000000 0.000000 0.034983
#
#
# Mechanical properties :
#
#
# Convention : Reuss Voigt Hill
#
# Bulk Modulus (GPa) = 26.40737 56.77040 41.58889
# Shear Modulus (GPa) = 13.84240 27.87203 20.85722
#
# Velocity S-wave (km/s) = 2.63122 3.73367 3.22983
# Velocity P-wave (km/s) = 4.73696 6.85426 5.89150
#
# Compressibility (1/GPa) = 0.03786821
#
# Stress axis : x y z
#
# Youngs Moduli (GPa) = 26.63409 85.21062 92.87947
#
# Poissons Ratio (x) = 0.51387 -0.11062
# Poissons Ratio (y) = 0.16062 0.58053
# Poissons Ratio (z) = -0.03172 0.53260
#
# Static dielectric constant tensor:
#      x y z
#    x 3.163130 0.000000 0.000000 
#    y 0.000000 3.591140 0.000000 
#    z 0.000000 0.000000 3.599950 
# 
# 
# High freq. dielectric constant tensor:
#      x y z
#    x 1.731450 0.000000 0.000000 
#    y 0.000000 1.783160 0.000000 
#    z 0.000000 0.000000 1.790820 
# 
# From -- ./inp_files/4596.got.cif
#   From: 2010.03.12/outbox.cif.g09.slc.cpg/sg72_3_cif.got.tgz:4596.got - 2010.04.16 14:54:00.
