data_PCOD8293709
_publ_section_title
;
Structure prediction by ZEFSAII (Michael W. Deem and Ramdas Pophale) SiO2 
 PCOD8293709
Probable space group: I B A M
;
_chemical_formula_sum "Si O2"
_cell_formula_units_Z 112
_cell_length_a 10.767409
_cell_length_b 31.729491
_cell_length_c 16.991706
_cell_angle_alpha 90.000000
_cell_angle_beta 90.000000
_cell_angle_gamma 90.000000
_cell_volume 5805.121320
_symmetry_space_group_name_H-M "I B A M"
_symmetry_group_IT_number 72
_symmetry_cell_setting 'orthorhombic'
loop_
_space_group_symop_operation_xyz
x,y,z
-x,-y,z
x,-y,1/2-z
-x,y,1/2-z
-x,-y,-z
x,y,-z
-x,y,1/2+z
x,-y,1/2+z
1/2+x,1/2+y,1/2+z
1/2-x,1/2-y,1/2+z
1/2+x,1/2-y,-z
1/2-x,1/2+y,-z
1/2-x,1/2-y,1/2-z
1/2+x,1/2+y,1/2-z
1/2-x,1/2+y,z
1/2+x,1/2-y,z
loop_
_atom_site_type_symbol
_atom_site_label
_atom_site_fract_x
_atom_site_fract_y
_atom_site_fract_z
Si Si1 0.951414 0.059024 0.410335
Si Si2 0.173718 0.015020 0.661551
Si Si3 0.288388 0.364646 0.589803
Si Si4 0.919995 0.459651 0.409091
Si Si5 0.533328 0.122646 0.659768
Si Si6 0.730611 0.269796 0.909852
Si Si7 0.992764 0.712659 0.905621
O O1 0.997242 0.055089 0.500000
O O2 0.906739 0.106308 0.391849
O O3 0.062589 0.048133 0.351589
O O4 0.840047 0.025569 0.395724
O O5 0.298280 0.039945 0.644104
O O6 0.170825 0.000000 0.750000
O O7 0.241064 0.372268 0.500000
O O8 0.181360 0.376093 0.651144
O O9 0.327258 0.316241 0.600696
O O10 0.882966 0.462013 0.500000
O O11 0.000000 0.500000 0.383889
O O12 0.988854 0.416247 0.392408
O O13 0.500000 0.115471 0.750000
O O14 0.473634 0.165777 0.627488
O O15 0.872948 0.268178 0.875490
O O16 0.626216 0.238823 0.871819
O O17 0.740466 0.256528 0.000000
O O18 0.996183 0.711112 0.000000
#
# Coordination Sequence:
#
# PCOD8293709 Si02
#       7
#    16  16  16  16  16  16  16
#     4  10  19  36  59  80 109 151 196 234 282 346
#     4  11  23  36  55  81 116 149 185 240 293 341
#     4   9  18  35  59  82 110 150 195 236 284 344
#     4  11  24  40  60  83 111 149 197 241 285 344
#     4  11  23  36  56  84 117 150 189 237 294 352
#     4   8  15  30  56  84 109 143 189 235 282 341
#     4   9  17  35  58  82 113 149 192 238 290 347
#
# _framework density 19.293309000000001
#
# number of rings (size 3 to 8) (size 9 to 14) (size 15 to 20)
#    0.000    2.143    0.000    5.571    4.000    2.286 
#    2.571    2.857    0.000    1.714    0.000    0.000 
#    0.000    0.000    0.000    0.000    0.000    0.000 
#
# Total GULP energy -694194.324821 kJ/mol
# GULP energy per Si atom -12396.327229 kJ/mol
# Density = 1.924940 g / cm^3
# Si number density = 19.293309 Si / 1000 Ang^3
#
#
#
# Elastic Constant Matrix: (Units=GPa)
#
#
# Indices 1 2 3 4 5 6 
#
# 1 88.5886 67.8480 26.7843 0.0003 0.0001 0.0000
# 2 67.8480 121.4773 25.2246 0.0002 0.0001 0.0000
# 3 26.7843 25.2246 66.2787 0.0022 0.0000 0.0002
# 4 0.0003 0.0002 0.0022 20.5999 -0.0002 0.0000
# 5 0.0001 0.0001 0.0000 -0.0002 16.1328 0.0003
# 6 0.0000 0.0000 0.0002 0.0000 0.0003 35.9843
#
#
#
# Elastic Compliance Matrix: (Units=1/GPa)
#
#
# Indices 1 2 3 4 5 6 
#
# 1 0.020810 -0.010724 -0.004328 0.000000 0.000000 0.000000
# 2 -0.010724 0.014465 -0.001171 0.000000 0.000000 0.000000
# 3 -0.004328 -0.001171 0.017283 -0.000002 0.000000 0.000000
# 4 0.000000 0.000000 -0.000002 0.048544 0.000001 0.000000
# 5 0.000000 0.000000 0.000000 0.000001 0.061986 -0.000001
# 6 0.000000 0.000000 0.000000 0.000000 -0.000001 0.027790
#
#
# Mechanical properties :
#
#
# Convention : Reuss Voigt Hill
#
# Bulk Modulus (GPa) = 49.72586 57.33983 53.53285
# Shear Modulus (GPa) = 21.73645 24.97591 23.35618
#
# Velocity S-wave (km/s) = 3.36017 3.60187 3.48312
# Velocity P-wave (km/s) = 6.39406 6.86167 6.63199
#
# Compressibility (1/GPa) = 0.02011026
#
# Stress axis : x y z
#
# Youngs Moduli (GPa) = 48.05330 69.13262 57.86132
#
# Poissons Ratio (x) = 0.74140 0.25044
# Poissons Ratio (y) = 0.51534 0.06777
# Poissons Ratio (z) = 0.20799 0.08097
#
# Static dielectric constant tensor:
#      x y z
#    x 3.601480 0.000000 0.000000 
#    y 0.000000 3.649830 0.000000 
#    z 0.000000 0.000000 3.285240 
# 
# 
# High freq. dielectric constant tensor:
#      x y z
#    x 1.747850 0.000000 0.000000 
#    y 0.000000 1.753190 0.000000 
#    z 0.000000 0.000000 1.731460 
# 
# From -- ./inp_files/20697.got.cif
#   From: 2010.03.12/outbox.cif.g09.slc.cpg/sg72_11_cif.got.tgz:20697.got - 2010.04.16 14:54:00.
