data_PCOD8293368
_publ_section_title
;
Structure prediction by ZEFSAII (Michael W. Deem and Ramdas Pophale) SiO2 
 PCOD8293368
Probable space group: I B A M
;
_chemical_formula_sum "Si O2"
_cell_formula_units_Z 112
_cell_length_a 13.577684
_cell_length_b 35.874698
_cell_length_c 14.485018
_cell_angle_alpha 90.000000
_cell_angle_beta 90.000000
_cell_angle_gamma 90.000000
_cell_volume 7055.584377
_symmetry_space_group_name_H-M "I B A M"
_symmetry_group_IT_number 72
_symmetry_cell_setting 'orthorhombic'
loop_
_space_group_symop_operation_xyz
x,y,z
-x,-y,z
x,-y,1/2-z
-x,y,1/2-z
-x,-y,-z
x,y,-z
-x,y,1/2+z
x,-y,1/2+z
1/2+x,1/2+y,1/2+z
1/2-x,1/2-y,1/2+z
1/2+x,1/2-y,-z
1/2-x,1/2+y,-z
1/2-x,1/2-y,1/2-z
1/2+x,1/2+y,1/2-z
1/2-x,1/2+y,z
1/2+x,1/2-y,z
loop_
_atom_site_type_symbol
_atom_site_label
_atom_site_fract_x
_atom_site_fract_y
_atom_site_fract_z
Si Si1 0.112342 0.899779 0.105270
Si Si2 0.112523 0.221770 0.249997
Si Si3 0.383574 0.541192 0.750001
Si Si4 0.270539 0.324983 0.608649
Si Si5 0.112341 0.899778 0.394729
Si Si6 0.729461 0.324982 0.391352
Si Si7 0.112519 0.689953 0.250004
O O1 0.151207 0.935590 0.160829
O O2 0.179108 0.864473 0.128086
O O3 0.000001 0.889604 0.132721
O O4 0.120379 0.911621 0.000000
O O5 0.163716 0.206726 0.157047
O O6 0.163721 0.206725 0.342942
O O7 0.122851 0.265804 0.249998
O O8 0.000000 0.208783 0.250000
O O9 0.334352 0.500000 0.750000
O O10 0.500000 0.536473 0.750000
O O11 0.348795 0.564410 0.839174
O O12 0.260843 0.316172 0.500000
O O13 0.320895 0.364472 0.628094
O O14 0.163638 0.325897 0.657129
O O15 0.120382 0.911618 0.500000
O O16 0.739145 0.316167 0.500000
O O17 0.836367 0.325896 0.342884
O O18 0.000000 0.676575 0.250000
#
# Coordination Sequence:
#
# PCOD8293368 Si02
#       7
#    16  16  16  16  16  16  16
#     4   9  17  28  43  65  90 115 146 181 213 250
#     4  10  20  32  46  67  93 116 144 185 228 271
#     4   9  16  25  39  60  89 125 152 168 198 247
#     4  10  19  32  50  67  86 117 154 188 223 264
#     4   9  17  28  43  65  90 115 146 181 213 250
#     4  10  19  32  50  67  86 117 154 188 223 264
#     4  10  22  35  45  63  90 117 147 189 236 273
#
# _framework density 15.873951
#
# number of rings (size 3 to 8) (size 9 to 14) (size 15 to 20)
#    0.000    2.429    0.000    4.286    0.000    6.286 
#    0.000    5.714    0.000    0.000    0.000    0.000 
#    0.000    9.143    0.000   25.143    0.000    1.143 
#
# Total GULP energy -694277.413831 kJ/mol
# GULP energy per Si atom -12397.810961 kJ/mol
# Density = 1.583782 g / cm^3
# Si number density = 15.873951 Si / 1000 Ang^3
#
#
#
# Elastic Constant Matrix: (Units=GPa)
#
#
# Indices 1 2 3 4 5 6 
#
# 1 104.1305 41.9727 55.7823 -0.0052 0.0003 0.0000
# 2 41.9727 89.6044 50.8492 0.0006 0.0000 0.0001
# 3 55.7823 50.8492 128.7848 -0.0257 0.0004 -0.0002
# 4 -0.0052 0.0006 -0.0257 4.1398 0.0006 -0.0006
# 5 0.0003 0.0000 0.0004 0.0006 18.5818 -0.0005
# 6 0.0000 0.0001 -0.0002 -0.0006 -0.0005 14.1863
#
#
#
# Elastic Compliance Matrix: (Units=1/GPa)
#
#
# Indices 1 2 3 4 5 6 
#
# 1 0.013469 -0.003864 -0.004308 -0.000009 0.000000 0.000000
# 2 -0.003864 0.015492 -0.004443 -0.000035 0.000000 0.000000
# 3 -0.004308 -0.004443 0.011385 0.000066 0.000000 0.000000
# 4 -0.000009 -0.000035 0.000066 0.241557 -0.000007 0.000009
# 5 0.000000 0.000000 0.000000 -0.000007 0.053816 0.000002
# 6 0.000000 0.000000 0.000000 0.000009 0.000002 0.070491
#
#
# Mechanical properties :
#
#
# Convention : Reuss Voigt Hill
#
# Bulk Modulus (GPa) = 66.15989 68.85868 67.50929
# Shear Modulus (GPa) = 11.45532 18.97595 15.21563
#
# Velocity S-wave (km/s) = 2.68925 3.46123 3.09937
# Velocity P-wave (km/s) = 7.17018 7.71013 7.44505
#
# Compressibility (1/GPa) = 0.01511490
#
# Stress axis : x y z
#
# Youngs Moduli (GPa) = 74.24567 64.55133 87.83345
#
# Poissons Ratio (x) = 0.24944 0.37840
# Poissons Ratio (y) = 0.28690 0.39023
# Poissons Ratio (z) = 0.31986 0.28679
#
# Static dielectric constant tensor:
#      x y z
#    x 2.979600 0.000000 0.000000 
#    y 0.000000 3.067520 0.000000 
#    z 0.000000 0.000000 3.259200 
# 
# 
# High freq. dielectric constant tensor:
#      x y z
#    x 1.579000 0.000000 0.000000 
#    y 0.000000 1.603170 0.000000 
#    z 0.000000 0.000000 1.623980 
# 
# From -- ./inp_files/22434.got.cif
#   From: 2010.03.12/outbox.cif.g09.slc.cpg/sg72_12_cif.got.tgz:22434.got - 2010.04.16 14:54:00.
