data_PCOD8293671
_publ_section_title
;
Structure prediction by ZEFSAII (Michael W. Deem and Ramdas Pophale) SiO2 
 PCOD8293671
Probable space group: I B A M
;
_chemical_formula_sum "Si O2"
_cell_formula_units_Z 96
_cell_length_a 8.954428
_cell_length_b 31.133986
_cell_length_c 15.978799
_cell_angle_alpha 90.000000
_cell_angle_beta 90.000000
_cell_angle_gamma 90.000000
_cell_volume 4454.682012
_symmetry_space_group_name_H-M "I B A M"
_symmetry_group_IT_number 72
_symmetry_cell_setting 'orthorhombic'
loop_
_space_group_symop_operation_xyz
x,y,z
-x,-y,z
x,-y,1/2-z
-x,y,1/2-z
-x,-y,-z
x,y,-z
-x,y,1/2+z
x,-y,1/2+z
1/2+x,1/2+y,1/2+z
1/2-x,1/2-y,1/2+z
1/2+x,1/2-y,-z
1/2-x,1/2+y,-z
1/2-x,1/2-y,1/2-z
1/2+x,1/2+y,1/2-z
1/2-x,1/2+y,z
1/2+x,1/2-y,z
loop_
_atom_site_type_symbol
_atom_site_label
_atom_site_fract_x
_atom_site_fract_y
_atom_site_fract_z
Si Si1 0.593345 0.538964 0.904475
Si Si2 0.576258 0.043277 0.900436
Si Si3 0.383670 0.124148 0.099657
Si Si4 0.946844 0.120913 0.341931
Si Si5 0.897255 0.206768 0.900418
Si Si6 0.560695 0.208430 0.900812
O O1 0.500000 0.500000 0.860981
O O2 0.756333 0.544865 0.862246
O O3 0.503655 0.583402 0.902643
O O4 0.620982 0.525511 0.000000
O O5 0.481931 0.084025 0.869259
O O6 0.500000 0.000000 0.866941
O O7 0.580799 0.044663 0.000000
O O8 0.230623 0.123530 0.150683
O O9 0.470802 0.166678 0.128151
O O10 0.352675 0.123546 0.000000
O O11 0.000000 0.107767 0.250000
O O12 0.015503 0.166173 0.366393
O O13 0.728712 0.206285 0.865210
O O14 0.978405 0.249347 0.865664
O O15 0.899477 0.205544 0.000000
O O16 0.567273 0.210661 0.000000
#
# Coordination Sequence:
#
# PCOD8293671 Si02
#       6
#    16  16  16  16  16  16
#     4  10  20  37  62  87 111 144 186 232 282 333
#     4   9  17  31  56  89 115 137 176 229 280 333
#     4  10  19  35  58  83 112 146 187 234 281 329
#     4  12  25  38  53  79 115 154 190 227 276 333
#     4  10  19  36  59  83 110 141 184 234 286 339
#     4   9  18  33  60  90 110 137 183 239 287 331
#
# _framework density 21.550359
#
# number of rings (size 3 to 8) (size 9 to 14) (size 15 to 20)
#    0.000    2.000    0.000    4.500    0.000    8.333 
#    0.000    6.667    0.000    1.000    0.000    0.000 
#    0.000    0.000    0.000    0.000    0.000    0.000 
#
# Total GULP energy -595280.272412 kJ/mol
# GULP energy per Si atom -12401.672342 kJ/mol
# Density = 2.150131 g / cm^3
# Si number density = 21.550359 Si / 1000 Ang^3
#
#
#
# Elastic Constant Matrix: (Units=GPa)
#
#
# Indices 1 2 3 4 5 6 
#
# 1 231.7940 106.9648 20.6345 0.0000 0.0000 0.0000
# 2 106.9648 202.2818 7.3293 0.0001 0.0001 0.0000
# 3 20.6345 7.3293 24.3173 0.0001 0.0003 0.0002
# 4 0.0000 0.0001 0.0001 1.7244 0.0002 0.0001
# 5 0.0000 0.0001 0.0003 0.0002 11.3830 0.0000
# 6 0.0000 0.0000 0.0002 0.0001 0.0000 50.8743
#
#
#
# Elastic Compliance Matrix: (Units=1/GPa)
#
#
# Indices 1 2 3 4 5 6 
#
# 1 0.006114 -0.003079 -0.004260 0.000000 0.000000 0.000000
# 2 -0.003079 0.006548 0.000639 0.000000 0.000000 0.000000
# 3 -0.004260 0.000639 0.044546 -0.000002 -0.000001 0.000000
# 4 0.000000 0.000000 -0.000002 0.579902 -0.000008 -0.000001
# 5 0.000000 0.000000 -0.000001 -0.000008 0.087850 0.000000
# 6 0.000000 0.000000 0.000000 -0.000001 0.000000 0.019656
#
#
# Mechanical properties :
#
#
# Convention : Reuss Voigt Hill
#
# Bulk Modulus (GPa) = 22.82705 80.91670 51.87187
# Shear Modulus (GPa) = 6.47149 34.36066 20.41608
#
# Velocity S-wave (km/s) = 1.73479 3.99737 3.08127
# Velocity P-wave (km/s) = 3.82466 7.67688 6.06476
#
# Compressibility (1/GPa) = 0.04380768
#
# Stress axis : x y z
#
# Youngs Moduli (GPa) = 163.55474 152.70741 22.44895
#
# Poissons Ratio (x) = 0.47015 0.09564
# Poissons Ratio (y) = 0.50354 -0.01434
# Poissons Ratio (z) = 0.69678 -0.09754
#
# Static dielectric constant tensor:
#      x y z
#    x 4.223650 0.000000 0.000000 
#    y 0.000000 4.052760 0.000000 
#    z 0.000000 0.000000 3.299920 
# 
# 
# High freq. dielectric constant tensor:
#      x y z
#    x 1.867090 0.000000 0.000000 
#    y 0.000000 1.864570 0.000000 
#    z 0.000000 0.000000 1.792120 
# 
# From -- ./inp_files/36017.got.cif
#   From: 2010.03.12/outbox.cif.g09.slc.cpg/sg72_19_cif.got.tgz:36017.got - 2010.04.16 14:54:00.
