data_PCOD8293922
_publ_section_title
;
Structure prediction by ZEFSAII (Michael W. Deem and Ramdas Pophale) SiO2 
 PCOD8293922
Probable space group: I B A M
;
_chemical_formula_sum "Si O2"
_cell_formula_units_Z 80
_cell_length_a 26.779296
_cell_length_b 18.321228
_cell_length_c 8.715018
_cell_angle_alpha 90.000000
_cell_angle_beta 90.000000
_cell_angle_gamma 90.000000
_cell_volume 4275.845688
_symmetry_space_group_name_H-M "I B A M"
_symmetry_group_IT_number 72
_symmetry_cell_setting 'orthorhombic'
loop_
_space_group_symop_operation_xyz
x,y,z
-x,-y,z
x,-y,1/2-z
-x,y,1/2-z
-x,-y,-z
x,y,-z
-x,y,1/2+z
x,-y,1/2+z
1/2+x,1/2+y,1/2+z
1/2-x,1/2-y,1/2+z
1/2+x,1/2-y,-z
1/2-x,1/2+y,-z
1/2-x,1/2-y,1/2-z
1/2+x,1/2+y,1/2-z
1/2-x,1/2+y,z
1/2+x,1/2-y,z
loop_
_atom_site_type_symbol
_atom_site_label
_atom_site_fract_x
_atom_site_fract_y
_atom_site_fract_z
Si Si1 0.702407 0.712340 0.677338
Si Si2 0.446924 0.358596 0.680836
Si Si3 0.600529 0.207578 0.174024
Si Si4 0.446709 0.074887 0.179106
Si Si5 0.650784 0.576474 0.818124
O O1 0.711908 0.693633 0.500000
O O2 0.750000 0.750000 0.750000
O O3 0.657346 0.768837 0.696339
O O4 0.690004 0.637573 0.764496
O O5 0.500000 0.381308 0.750000
O O6 0.445773 0.373025 0.500000
O O7 0.436065 0.274027 0.718760
O O8 0.404849 0.408473 0.757139
O O9 0.591386 0.140098 0.286600
O O10 0.590094 0.182748 0.000000
O O11 0.500000 0.095298 0.250000
O O12 0.425472 0.000000 0.250000
O O13 0.452980 0.063918 0.000000
O O14 0.669678 0.500000 0.750000
O O15 0.649932 0.573388 0.000000
#
# Coordination Sequence:
#
# PCOD8293922 Si02
#       5
#    16  16  16  16  16
#     4  10  21  39  62  86 111 141 179 224 273 326
#     4  10  20  34  53  80 112 147 185 224 267 320
#     4   9  19  35  54  77 107 139 176 221 267 318
#     4  11  21  33  51  74 105 142 180 220 266 319
#     4  11  22  38  59  83 113 147 183 225 272 323
#
# _framework density 18.709748000000001
#
# number of rings (size 3 to 8) (size 9 to 14) (size 15 to 20)
#    0.000    1.800    0.000    7.200    0.000    6.800 
#    0.000    3.000    0.000    4.800    0.000    0.000 
#    0.000    0.000    0.000    0.000    0.000    0.000 
#
# Total GULP energy -496170.628259 kJ/mol
# GULP energy per Si atom -12404.265706 kJ/mol
# Density = 1.866716 g / cm^3
# Si number density = 18.709748 Si / 1000 Ang^3
#
#
#
# Elastic Constant Matrix: (Units=GPa)
#
#
# Indices 1 2 3 4 5 6 
#
# 1 91.6324 44.2795 43.6268 0.0000 0.0000 0.0000
# 2 44.2795 122.6115 64.1290 0.0000 0.0000 0.0000
# 3 43.6268 64.1290 157.5031 0.0000 0.0000 0.0000
# 4 0.0000 0.0000 0.0000 35.1578 0.0000 0.0000
# 5 0.0000 0.0000 0.0000 0.0000 32.4158 0.0000
# 6 0.0000 0.0000 0.0000 0.0000 0.0000 16.7532
#
#
#
# Elastic Compliance Matrix: (Units=1/GPa)
#
#
# Indices 1 2 3 4 5 6 
#
# 1 0.013839 -0.003803 -0.002285 0.000000 0.000000 0.000000
# 2 -0.003803 0.011407 -0.003591 0.000000 0.000000 0.000000
# 3 -0.002285 -0.003591 0.008444 0.000000 0.000000 0.000000
# 4 0.000000 0.000000 0.000000 0.028443 0.000000 0.000000
# 5 0.000000 0.000000 0.000000 0.000000 0.030849 0.000000
# 6 0.000000 0.000000 0.000000 0.000000 0.000000 0.059690
#
#
# Mechanical properties :
#
#
# Convention : Reuss Voigt Hill
#
# Bulk Modulus (GPa) = 69.77110 75.09082 72.43096
# Shear Modulus (GPa) = 28.27928 31.51281 29.89604
#
# Velocity S-wave (km/s) = 3.89198 4.10847 4.00169
# Velocity P-wave (km/s) = 7.58742 7.92009 7.75554
#
# Compressibility (1/GPa) = 0.01433258
#
# Stress axis : x y z
#
# Youngs Moduli (GPa) = 72.26210 87.66182 118.42384
#
# Poissons Ratio (x) = 0.33334 0.27058
# Poissons Ratio (y) = 0.27478 0.42531
# Poissons Ratio (z) = 0.16511 0.31483
#
# Static dielectric constant tensor:
#      x y z
#    x 3.210380 0.000000 0.000000 
#    y 0.000000 3.457000 0.000000 
#    z 0.000000 0.000000 3.550670 
# 
# 
# High freq. dielectric constant tensor:
#      x y z
#    x 1.709730 0.000000 0.000000 
#    y 0.000000 1.730750 0.000000 
#    z 0.000000 0.000000 1.743070 
# 
# From -- ./inp_files/4809.got.cif
#   From: 2010.03.12/outbox.cif.g09.slc.cpg/sg72_3_cif.got.tgz:4809.got - 2010.04.16 14:54:00.
