data_PCOD8293252
_publ_section_title
;
Structure prediction by ZEFSAII (Michael W. Deem and Ramdas Pophale) SiO2 
 PCOD8293252
Probable space group: I B A M
;
_chemical_formula_sum "Si O2"
_cell_formula_units_Z 80
_cell_length_a 28.975290
_cell_length_b 23.154128
_cell_length_c 8.765577
_cell_angle_alpha 90.000000
_cell_angle_beta 90.000000
_cell_angle_gamma 90.000000
_cell_volume 5880.804340
_symmetry_space_group_name_H-M "I B A M"
_symmetry_group_IT_number 72
_symmetry_cell_setting 'orthorhombic'
loop_
_space_group_symop_operation_xyz
x,y,z
-x,-y,z
x,-y,1/2-z
-x,y,1/2-z
-x,-y,-z
x,y,-z
-x,y,1/2+z
x,-y,1/2+z
1/2+x,1/2+y,1/2+z
1/2-x,1/2-y,1/2+z
1/2+x,1/2-y,-z
1/2-x,1/2+y,-z
1/2-x,1/2-y,1/2-z
1/2+x,1/2+y,1/2-z
1/2-x,1/2+y,z
1/2+x,1/2-y,z
loop_
_atom_site_type_symbol
_atom_site_label
_atom_site_fract_x
_atom_site_fract_y
_atom_site_fract_z
Si Si1 0.279498 0.560259 0.325708
Si Si2 0.870265 0.128611 0.821546
Si Si3 0.450853 0.439164 0.680825
Si Si4 0.177960 0.226299 0.826659
Si Si5 0.764076 0.673611 0.824401
O O1 0.267782 0.500000 0.250000
O O2 0.287167 0.545738 0.500000
O O3 0.326796 0.589998 0.265870
O O4 0.236222 0.604140 0.298548
O O5 0.914679 0.109856 0.726263
O O6 0.859840 0.196105 0.782380
O O7 0.880294 0.122431 0.000000
O O8 0.433927 0.500000 0.750000
O O9 0.500000 0.421425 0.750000
O O10 0.454896 0.444760 0.500000
O O11 0.185574 0.295886 0.798560
O O12 0.228284 0.199770 0.795880
O O13 0.163038 0.214060 0.000000
O O14 0.747439 0.685324 0.000000
#
# Coordination Sequence:
#
# PCOD8293252 Si02
#       5
#    16  16  16  16  16
#     4   9  17  26  36  51  72  97 123 153 186 219
#     4  10  19  30  41  55  75  96 122 158 194 226
#     4  11  21  33  46  59  75  97 124 154 191 230
#     4   9  15  24  39  55  69  90 120 152 187 225
#     4   8  15  26  36  49  72  96 118 149 188 225
#
# _framework density 13.603581
#
# number of rings (size 3 to 8) (size 9 to 14) (size 15 to 20)
#    0.000    2.600    0.000    5.400    0.000    6.400 
#    0.000    0.000    0.000    0.000    0.000    0.000 
#    0.000    0.000    0.000    0.000    0.000    1.000 
#
# Total GULP energy -495549.491794 kJ/mol
# GULP energy per Si atom -12388.737295 kJ/mol
# Density = 1.357262 g / cm^3
# Si number density = 13.603581 Si / 1000 Ang^3
#
#
#
# Elastic Constant Matrix: (Units=GPa)
#
#
# Indices 1 2 3 4 5 6 
#
# 1 52.2085 44.7314 25.0217 0.0000 0.0000 0.0000
# 2 44.7314 88.1850 30.8635 0.0000 0.0000 0.0000
# 3 25.0217 30.8635 64.1498 0.0000 0.0000 0.0000
# 4 0.0000 0.0000 0.0000 21.6880 0.0000 0.0000
# 5 0.0000 0.0000 0.0000 0.0000 17.4259 0.0000
# 6 0.0000 0.0000 0.0000 0.0000 0.0000 21.2466
#
#
#
# Elastic Compliance Matrix: (Units=1/GPa)
#
#
# Indices 1 2 3 4 5 6 
#
# 1 0.035875 -0.015993 -0.006299 0.000000 0.000000 0.000000
# 2 -0.015993 0.020766 -0.003752 0.000000 0.000000 0.000000
# 3 -0.006299 -0.003752 0.019851 0.000000 0.000000 0.000000
# 4 0.000000 0.000000 0.000000 0.046108 0.000000 0.000000
# 5 0.000000 0.000000 0.000000 0.000000 0.057386 0.000000
# 6 0.000000 0.000000 0.000000 0.000000 0.000000 0.047066
#
#
# Mechanical properties :
#
#
# Convention : Reuss Voigt Hill
#
# Bulk Modulus (GPa) = 40.97858 45.08628 43.03243
# Shear Modulus (GPa) = 17.40491 19.00055 18.20273
#
# Velocity S-wave (km/s) = 3.58080 3.74134 3.66195
# Velocity P-wave (km/s) = 6.87641 7.20267 7.04143
#
# Compressibility (1/GPa) = 0.02440299
#
# Stress axis : x y z
#
# Youngs Moduli (GPa) = 27.87426 48.15665 50.37606
#
# Poissons Ratio (x) = 0.77018 0.31730
# Poissons Ratio (y) = 0.44580 0.18903
# Poissons Ratio (z) = 0.17557 0.18071
#
# Static dielectric constant tensor:
#      x y z
#    x 2.466690 0.000000 0.000000 
#    y 0.000000 2.937980 0.000000 
#    z 0.000000 0.000000 2.775340 
# 
# 
# High freq. dielectric constant tensor:
#      x y z
#    x 1.467750 0.000000 0.000000 
#    y 0.000000 1.508550 0.000000 
#    z 0.000000 0.000000 1.533110 
# 
# From -- ./inp_files/6246.got.cif
#   From: 2010.03.12/outbox.cif.g09.slc.cpg/sg72_4_cif.got.tgz:6246.got - 2010.04.16 14:54:00.
