data_PCOD8293193
_publ_section_title
;
Structure prediction by ZEFSAII (Michael W. Deem and Ramdas Pophale) SiO2 
 PCOD8293193
Probable space group: I B A M
;
_chemical_formula_sum "Si O2"
_cell_formula_units_Z 64
_cell_length_a 7.175030
_cell_length_b 17.518008
_cell_length_c 22.674114
_cell_angle_alpha 90.000000
_cell_angle_beta 90.000000
_cell_angle_gamma 90.000000
_cell_volume 2849.960019
_symmetry_space_group_name_H-M "I B A M"
_symmetry_group_IT_number 72
_symmetry_cell_setting 'orthorhombic'
loop_
_space_group_symop_operation_xyz
x,y,z
-x,-y,z
x,-y,1/2-z
-x,y,1/2-z
-x,-y,-z
x,y,-z
-x,y,1/2+z
x,-y,1/2+z
1/2+x,1/2+y,1/2+z
1/2-x,1/2-y,1/2+z
1/2+x,1/2-y,-z
1/2-x,1/2+y,-z
1/2-x,1/2-y,1/2-z
1/2+x,1/2+y,1/2-z
1/2-x,1/2+y,z
1/2+x,1/2-y,z
loop_
_atom_site_type_symbol
_atom_site_label
_atom_site_fract_x
_atom_site_fract_y
_atom_site_fract_z
Si Si1 0.111283 0.260916 0.000000
Si Si2 0.806045 0.695068 0.126591
Si Si3 0.714833 0.881161 0.000000
Si Si4 0.619043 0.073393 0.625380
Si Si5 0.561773 0.653592 0.316981
O O1 0.227062 0.282215 0.058894
O O2 0.920702 0.307094 0.000000
O O3 0.089324 0.166733 0.000000
O O4 0.624136 0.647124 0.143997
O O5 0.827722 0.768551 0.168683
O O6 0.991992 0.646809 0.134799
O O7 0.685832 0.933988 0.942843
O O8 0.801070 0.082869 0.666830
O O9 0.500000 0.000000 0.644062
O O10 0.500000 0.648557 0.250000
#
# Coordination Sequence:
#
# PCOD8293193 Si02
#       5
#     8  16   8  16  16
#     4  10  18  34  63 104 127 166 225 280 341 398
#     4  11  22  40  68 101 132 174 229 287 337 402
#     4  10  19  36  65  95 134 174 218 283 348 411
#     4  11  25  42  63  99 140 177 223 285 351 405
#     4  12  24  41  70  97 129 179 236 283 327 407
#
# _framework density 22.456454999999998
#
# number of rings (size 3 to 8) (size 9 to 14) (size 15 to 20)
#    0.000    1.000    5.000    2.625    0.000    1.000 
#    0.000    3.750    0.000    6.000    0.000    0.000 
#    0.000    0.000    0.000    0.000    0.000    0.000 
#
# Total GULP energy -396697.440641 kJ/mol
# GULP energy per Si atom -12396.795020 kJ/mol
# Density = 2.240534 g / cm^3
# Si number density = 22.456455 Si / 1000 Ang^3
#
#
#
# Elastic Constant Matrix: (Units=GPa)
#
#
# Indices 1 2 3 4 5 6 
#
# 1 109.7311 20.6128 76.9201 0.0000 0.0000 0.0000
# 2 20.6128 54.3937 60.1333 0.0000 0.0000 0.0000
# 3 76.9201 60.1333 174.6250 0.0000 0.0000 0.0000
# 4 0.0000 0.0000 0.0000 10.6650 0.0000 0.0000
# 5 0.0000 0.0000 0.0000 0.0000 24.4896 0.0000
# 6 0.0000 0.0000 0.0000 0.0000 0.0000 41.8891
#
#
#
# Elastic Compliance Matrix: (Units=1/GPa)
#
#
# Indices 1 2 3 4 5 6 
#
# 1 0.013365 0.002331 -0.006690 0.000000 0.000000 0.000000
# 2 0.002331 0.030092 -0.011389 0.000000 0.000000 0.000000
# 3 -0.006690 -0.011389 0.012595 0.000000 0.000000 0.000000
# 4 0.000000 0.000000 0.000000 0.093765 0.000000 0.000000
# 5 0.000000 0.000000 0.000000 0.000000 0.040834 0.000000
# 6 0.000000 0.000000 0.000000 0.000000 0.000000 0.023873
#
#
# Mechanical properties :
#
#
# Convention : Reuss Voigt Hill
#
# Bulk Modulus (GPa) = 40.72294 72.67579 56.69937
# Shear Modulus (GPa) = 19.66923 27.48097 23.57510
#
# Velocity S-wave (km/s) = 2.96274 3.50200 3.24360
# Velocity P-wave (km/s) = 5.46602 6.98464 6.27147
#
# Compressibility (1/GPa) = 0.02455618
#
# Stress axis : x y z
#
# Youngs Moduli (GPa) = 74.82407 33.23138 79.39546
#
# Poissons Ratio (x) = -0.07746 0.53113
# Poissons Ratio (y) = -0.17441 0.90424
# Poissons Ratio (z) = 0.50055 0.37848
#
# Static dielectric constant tensor:
#      x y z
#    x 4.223950 0.000000 0.000000 
#    y 0.000000 3.732440 0.000000 
#    z 0.000000 0.000000 4.100920 
# 
# 
# High freq. dielectric constant tensor:
#      x y z
#    x 1.900620 0.000000 0.000000 
#    y 0.000000 1.850500 0.000000 
#    z 0.000000 0.000000 1.887020 
# 
# From -- ./inp_files/42039.got.cif
#   From: 2010.03.12/outbox.cif.g09.slc.cpg/sg72_22_cif.got.tgz:42039.got - 2010.04.16 14:54:00.
