data_PCOD8293275
_publ_section_title
;
Structure prediction by ZEFSAII (Michael W. Deem and Ramdas Pophale) SiO2 
 PCOD8293275
Probable space group: I B A M
;
_chemical_formula_sum "Si O2"
_cell_formula_units_Z 80
_cell_length_a 5.078714
_cell_length_b 33.920790
_cell_length_c 26.012731
_cell_angle_alpha 90.000000
_cell_angle_beta 90.000000
_cell_angle_gamma 90.000000
_cell_volume 4481.316988
_symmetry_space_group_name_H-M "I B A M"
_symmetry_group_IT_number 72
_symmetry_cell_setting 'orthorhombic'
loop_
_space_group_symop_operation_xyz
x,y,z
-x,-y,z
x,-y,1/2-z
-x,y,1/2-z
-x,-y,-z
x,y,-z
-x,y,1/2+z
x,-y,1/2+z
1/2+x,1/2+y,1/2+z
1/2-x,1/2-y,1/2+z
1/2+x,1/2-y,-z
1/2-x,1/2+y,-z
1/2-x,1/2-y,1/2-z
1/2+x,1/2+y,1/2-z
1/2-x,1/2+y,z
1/2+x,1/2-y,z
loop_
_atom_site_type_symbol
_atom_site_label
_atom_site_fract_x
_atom_site_fract_y
_atom_site_fract_z
Si Si1 0.499343 0.639561 0.096582
Si Si2 0.000910 0.597062 0.941822
Si Si3 0.546193 0.954030 0.846156
Si Si4 0.455596 0.588289 0.307916
Si Si5 0.502191 0.275358 0.559559
O O1 0.214258 0.630024 0.073191
O O2 0.515570 0.626663 0.156115
O O3 0.545555 0.686185 0.094245
O O4 0.714844 0.616341 0.063434
O O5 0.028809 0.558783 0.905758
O O6 0.041395 0.582641 0.000000
O O7 0.333112 0.930426 0.812664
O O8 0.833949 0.944891 0.823981
O O9 0.500000 0.000000 0.841644
O O10 0.500000 0.602705 0.250000
O O11 0.519433 0.288048 0.500000
O O12 0.722431 0.243398 0.573238
#
# Coordination Sequence:
#
# PCOD8293275 Si02
#       5
#    16  16  16  16  16
#     4  10  20  34  51  73 101 130 167 204 237 291
#     4  10  19  32  51  72  99 136 167 196 240 293
#     4  10  21  34  50  76 102 126 164 208 250 295
#     4  10  21  36  54  73  95 130 169 207 250 288
#     4  10  19  30  48  74 101 128 156 192 241 289
#
# _framework density 17.851894999999999
#
# number of rings (size 3 to 8) (size 9 to 14) (size 15 to 20)
#    0.000    2.000    0.000    4.200    0.000    4.400 
#    0.000    0.000    0.000    8.400    0.000    0.000 
#    0.000    0.000    0.000    0.000    0.000    0.000 
#
# Total GULP energy -496199.327160 kJ/mol
# GULP energy per Si atom -12404.983179 kJ/mol
# Density = 1.781126 g / cm^3
# Si number density = 17.851895 Si / 1000 Ang^3
#
#
#
# Elastic Constant Matrix: (Units=GPa)
#
#
# Indices 1 2 3 4 5 6 
#
# 1 67.1565 2.3826 13.4856 0.0000 0.0000 0.0000
# 2 2.3826 88.5555 37.3154 0.0000 0.0000 0.0000
# 3 13.4856 37.3154 122.8255 0.0000 0.0000 0.0000
# 4 0.0000 0.0000 0.0000 12.8395 0.0000 0.0000
# 5 0.0000 0.0000 0.0000 0.0000 16.0739 0.0000
# 6 0.0000 0.0000 0.0000 0.0000 0.0000 15.6634
#
#
#
# Elastic Compliance Matrix: (Units=1/GPa)
#
#
# Indices 1 2 3 4 5 6 
#
# 1 0.015235 0.000338 -0.001776 0.000000 0.000000 0.000000
# 2 0.000338 0.012958 -0.003974 0.000000 0.000000 0.000000
# 3 -0.001776 -0.003974 0.009544 0.000000 0.000000 0.000000
# 4 0.000000 0.000000 0.000000 0.077885 0.000000 0.000000
# 5 0.000000 0.000000 0.000000 0.000000 0.062213 0.000000
# 6 0.000000 0.000000 0.000000 0.000000 0.000000 0.063843
#
#
# Mechanical properties :
#
#
# Convention : Reuss Voigt Hill
#
# Bulk Modulus (GPa) = 37.15454 42.76717 39.96085
# Shear Modulus (GPa) = 19.12259 23.93895 21.53077
#
# Velocity S-wave (km/s) = 3.27644 3.66591 3.47663
# Velocity P-wave (km/s) = 5.93053 6.47512 6.20880
#
# Compressibility (1/GPa) = 0.02691461
#
# Stress axis : x y z
#
# Youngs Moduli (GPa) = 65.63775 77.17404 104.77953
#
# Poissons Ratio (x) = -0.02610 0.18604
# Poissons Ratio (y) = -0.02220 0.41637
# Poissons Ratio (z) = 0.11654 0.30667
#
# Static dielectric constant tensor:
#      x y z
#    x 3.579780 0.000000 0.000000 
#    y 0.000000 3.046760 0.000000 
#    z 0.000000 0.000000 3.295760 
# 
# 
# High freq. dielectric constant tensor:
#      x y z
#    x 1.716300 0.000000 0.000000 
#    y 0.000000 1.672780 0.000000 
#    z 0.000000 0.000000 1.677740 
# 
# From -- ./inp_files/41540.got.cif
#   From: 2010.03.12/outbox.cif.g09.slc.cpg/sg72_21_cif.got.tgz:41540.got - 2010.04.16 14:54:00.
