data_PCOD8293322
_publ_section_title
;
Structure prediction by ZEFSAII (Michael W. Deem and Ramdas Pophale) SiO2 
 PCOD8293322
Probable space group: I B A M
;
_chemical_formula_sum "Si O2"
_cell_formula_units_Z 116
_cell_length_a 26.156369
_cell_length_b 28.582225
_cell_length_c 9.262201
_cell_angle_alpha 90.000000
_cell_angle_beta 90.000000
_cell_angle_gamma 90.000000
_cell_volume 6924.488377
_symmetry_space_group_name_H-M "I B A M"
_symmetry_group_IT_number 72
_symmetry_cell_setting 'orthorhombic'
loop_
_space_group_symop_operation_xyz
x,y,z
-x,-y,z
x,-y,1/2-z
-x,y,1/2-z
-x,-y,-z
x,y,-z
-x,y,1/2+z
x,-y,1/2+z
1/2+x,1/2+y,1/2+z
1/2-x,1/2-y,1/2+z
1/2+x,1/2-y,-z
1/2-x,1/2+y,-z
1/2-x,1/2-y,1/2-z
1/2+x,1/2+y,1/2-z
1/2-x,1/2+y,z
1/2+x,1/2-y,z
loop_
_atom_site_type_symbol
_atom_site_label
_atom_site_fract_x
_atom_site_fract_y
_atom_site_fract_z
Si Si1 0.449034 0.951819 0.329279
Si Si2 0.332869 0.380372 0.166716
Si Si3 0.689977 0.291621 0.833754
Si Si4 0.309619 0.201356 0.165734
Si Si5 0.597879 0.540710 0.157492
Si Si6 0.154823 0.599363 0.167464
Si Si7 0.000000 0.000000 0.750000
Si Si8 0.242387 0.452073 0.829180
O O1 0.500000 0.932233 0.250000
O O2 0.459049 0.960684 0.500000
O O3 0.404316 0.913822 0.308025
O O4 0.433154 0.000000 0.250000
O O5 0.338852 0.334864 0.263123
O O6 0.384819 0.408276 0.208927
O O7 0.284628 0.412809 0.206258
O O8 0.330462 0.365050 0.000000
O O9 0.669489 0.243908 0.761896
O O10 0.749363 0.301802 0.806456
O O11 0.675664 0.288640 0.000000
O O12 0.336616 0.153269 0.214625
O O13 0.321867 0.212742 0.000000
O O14 0.624495 0.500000 0.250000
O O15 0.536143 0.534427 0.155957
O O16 0.621384 0.533534 0.000000
O O17 0.188580 0.565595 0.266385
O O18 0.170912 0.592765 0.000000
O O19 0.257924 0.500000 0.750000
O O20 0.236865 0.460819 0.000000
#
# Coordination Sequence:
#
# PCOD8293322 Si02
#       8
#    16  16  16  16  16  16   4  16
#     4  10  20  34  53  75 101 131 167 208 249 294
#     4  10  20  33  47  70 101 134 167 202 250 299
#     4  10  19  31  50  74 100 132 168 207 246 292
#     4   9  18  33  51  71 100 132 165 205 247 296
#     4   9  18  31  49  71  97 128 165 207 249 295
#     4  10  20  35  53  74 100 133 169 204 250 300
#     4   8  18  32  54  72  98 128 174 212 252 292
#     4  11  22  32  46  68 101 138 169 200 241 294
#
# _framework density 16.752140000000001
#
# number of rings (size 3 to 8) (size 9 to 14) (size 15 to 20)
#    0.414    1.793    1.379    2.690    0.000    4.414 
#    0.000    0.000    0.000    0.000    1.793    0.000 
#    0.000    0.000    0.000    0.000    0.000    0.000 
#
# Total GULP energy -718868.512600 kJ/mol
# GULP energy per Si atom -12394.284700 kJ/mol
# Density = 1.671401 g / cm^3
# Si number density = 16.752140 Si / 1000 Ang^3
#
#
#
# Elastic Constant Matrix: (Units=GPa)
#
#
# Indices 1 2 3 4 5 6 
#
# 1 71.4693 38.4180 27.0485 0.0000 0.0000 0.0000
# 2 38.4180 119.5429 56.2075 0.0000 0.0000 0.0000
# 3 27.0485 56.2075 85.0994 0.0000 0.0000 0.0000
# 4 0.0000 0.0000 0.0000 30.4880 0.0000 0.0000
# 5 0.0000 0.0000 0.0000 0.0000 18.4079 0.0000
# 6 0.0000 0.0000 0.0000 0.0000 0.0000 22.6583
#
#
#
# Elastic Compliance Matrix: (Units=1/GPa)
#
#
# Indices 1 2 3 4 5 6 
#
# 1 0.017317 -0.004318 -0.002652 0.000000 0.000000 0.000000
# 2 -0.004318 0.013210 -0.007353 0.000000 0.000000 0.000000
# 3 -0.002652 -0.007353 0.017450 0.000000 0.000000 0.000000
# 4 0.000000 0.000000 0.000000 0.032800 0.000000 0.000000
# 5 0.000000 0.000000 0.000000 0.000000 0.054324 0.000000
# 6 0.000000 0.000000 0.000000 0.000000 0.000000 0.044134
#
#
# Mechanical properties :
#
#
# Convention : Reuss Voigt Hill
#
# Bulk Modulus (GPa) = 51.72882 57.71773 54.72328
# Shear Modulus (GPa) = 23.32907 24.60669 23.96788
#
# Velocity S-wave (km/s) = 3.73581 3.83674 3.78661
# Velocity P-wave (km/s) = 7.03948 7.35909 7.20106
#
# Compressibility (1/GPa) = 0.01933158
#
# Stress axis : x y z
#
# Youngs Moduli (GPa) = 57.74685 75.69975 57.30597
#
# Poissons Ratio (x) = 0.32690 0.15197
# Poissons Ratio (y) = 0.24937 0.42135
# Poissons Ratio (z) = 0.15314 0.55659
#
# Static dielectric constant tensor:
#      x y z
#    x 2.952570 0.000000 0.000000 
#    y 0.000000 3.169710 0.000000 
#    z 0.000000 0.000000 3.209660 
# 
# 
# High freq. dielectric constant tensor:
#      x y z
#    x 1.618690 0.000000 0.000000 
#    y 0.000000 1.642480 0.000000 
#    z 0.000000 0.000000 1.654750 
# 
# From -- ./inp_files/8696.got.cif
#   From: 2010.03.12/outbox.cif.g09.slc.cpg/sg72_5_cif.got.tgz:8696.got - 2010.04.16 14:54:00.
