data_PCOD8293499
_publ_section_title
;
Structure prediction by ZEFSAII (Michael W. Deem and Ramdas Pophale) SiO2 
 PCOD8293499
Probable space group: I B A M
;
_chemical_formula_sum "Si O2"
_cell_formula_units_Z 96
_cell_length_a 15.226293
_cell_length_b 24.718563
_cell_length_c 13.814575
_cell_angle_alpha 90.000000
_cell_angle_beta 90.000000
_cell_angle_gamma 90.000000
_cell_volume 5199.420365
_symmetry_space_group_name_H-M "I B A M"
_symmetry_group_IT_number 72
_symmetry_cell_setting 'orthorhombic'
loop_
_space_group_symop_operation_xyz
x,y,z
-x,-y,z
x,-y,1/2-z
-x,y,1/2-z
-x,-y,-z
x,y,-z
-x,y,1/2+z
x,-y,1/2+z
1/2+x,1/2+y,1/2+z
1/2-x,1/2-y,1/2+z
1/2+x,1/2-y,-z
1/2-x,1/2+y,-z
1/2-x,1/2-y,1/2-z
1/2+x,1/2+y,1/2-z
1/2-x,1/2+y,z
1/2+x,1/2-y,z
loop_
_atom_site_type_symbol
_atom_site_label
_atom_site_fract_x
_atom_site_fract_y
_atom_site_fract_z
Si Si1 0.642200 0.940709 0.774050
Si Si2 0.970250 0.714666 0.895237
Si Si3 0.337517 0.744798 0.605049
Si Si4 0.023341 0.407955 0.112866
Si Si5 0.757744 0.856608 0.113169
Si Si6 0.097118 0.192244 0.776813
O O1 0.613932 0.918651 0.668783
O O2 0.557229 0.943342 0.845049
O O3 0.717029 0.904867 0.823846
O O4 0.680053 0.000000 0.750000
O O5 0.997429 0.654530 0.864556
O O6 0.908856 0.746100 0.819127
O O7 0.058859 0.747745 0.904085
O O8 0.921864 0.713613 0.000000
O O9 0.301000 0.724949 0.500000
O O10 0.291156 0.800424 0.635215
O O11 0.332969 0.698080 0.687262
O O12 0.034601 0.421215 0.000000
O O13 0.859290 0.848759 0.146070
O O14 0.752581 0.872109 0.000000
O O15 0.000000 0.169751 0.750000
#
# Coordination Sequence:
#
# PCOD8293499 Si02
#       6
#    16  16  16  16  16  16
#     4  11  23  35  52  78 107 145 194 240 280 324
#     4   9  16  28  47  75 108 144 179 212 259 323
#     4   9  17  29  48  74 108 144 175 212 263 329
#     4  10  19  33  54  78 112 149 182 224 278 339
#     4  11  21  36  56  78 108 147 188 227 278 338
#     4  10  20  32  52  80 111 145 183 227 272 327
#
# _framework density 18.463595000000002
#
# number of rings (size 3 to 8) (size 9 to 14) (size 15 to 20)
#    0.000    2.000    1.667    3.500    4.667    2.667 
#    0.000    2.500    0.000    0.500    0.000    1.167 
#    0.000    0.000    0.000    0.000    0.000    0.000 
#
# Total GULP energy -594788.137349 kJ/mol
# GULP energy per Si atom -12391.419528 kJ/mol
# Density = 1.842157 g / cm^3
# Si number density = 18.463595 Si / 1000 Ang^3
#
#
#
# Elastic Constant Matrix: (Units=GPa)
#
#
# Indices 1 2 3 4 5 6 
#
# 1 70.7315 32.0203 42.1233 0.0000 0.0000 0.0000
# 2 32.0203 48.3220 30.0489 0.0001 0.0000 0.0000
# 3 42.1233 30.0489 116.4057 0.0002 0.0000 0.0000
# 4 0.0000 0.0001 0.0002 17.0189 0.0000 0.0000
# 5 0.0000 0.0000 0.0000 0.0000 20.6646 0.0000
# 6 0.0000 0.0000 0.0000 0.0000 0.0000 20.9659
#
#
#
# Elastic Compliance Matrix: (Units=1/GPa)
#
#
# Indices 1 2 3 4 5 6 
#
# 1 0.022490 -0.011724 -0.005112 0.000000 0.000000 0.000000
# 2 -0.011724 0.030763 -0.003699 0.000000 0.000000 0.000000
# 3 -0.005112 -0.003699 0.011395 0.000000 0.000000 0.000000
# 4 0.000000 0.000000 0.000000 0.058758 0.000000 0.000000
# 5 0.000000 0.000000 0.000000 0.000000 0.048392 0.000000
# 6 0.000000 0.000000 0.000000 0.000000 0.000000 0.047697
#
#
# Mechanical properties :
#
#
# Convention : Reuss Voigt Hill
#
# Bulk Modulus (GPa) = 42.41011 49.31603 45.86307
# Shear Modulus (GPa) = 18.62726 20.48098 19.55412
#
# Velocity S-wave (km/s) = 3.17971 3.33417 3.25786
# Velocity P-wave (km/s) = 6.04154 6.44904 6.24861
#
# Compressibility (1/GPa) = 0.02357928
#
# Stress axis : x y z
#
# Youngs Moduli (GPa) = 44.46473 32.50621 87.75580
#
# Poissons Ratio (x) = 0.38110 0.44860
# Poissons Ratio (y) = 0.52130 0.32459
# Poissons Ratio (z) = 0.22730 0.12023
#
# Static dielectric constant tensor:
#      x y z
#    x 3.170780 0.000000 0.000000 
#    y 0.000000 3.030600 0.000000 
#    z 0.000000 0.000000 4.227680 
# 
# 
# High freq. dielectric constant tensor:
#      x y z
#    x 1.687080 0.000000 0.000000 
#    y 0.000000 1.667110 0.000000 
#    z 0.000000 0.000000 1.745070 
# 
# From -- ./inp_files/21876.got.cif
#   From: 2010.03.12/outbox.cif.g09.slc.cpg/sg72_11_cif.got.tgz:21876.got - 2010.04.16 14:54:00.
