data_PCOD8293068
_publ_section_title
;
Structure prediction by ZEFSAII (Michael W. Deem and Ramdas Pophale) SiO2 
 PCOD8293068
Probable space group: I B A M
;
_chemical_formula_sum "Si O2"
_cell_formula_units_Z 128
_cell_length_a 18.650104
_cell_length_b 22.784180
_cell_length_c 18.094547
_cell_angle_alpha 90.000000
_cell_angle_beta 90.000000
_cell_angle_gamma 90.000000
_cell_volume 7688.867482
_symmetry_space_group_name_H-M "I B A M"
_symmetry_group_IT_number 72
_symmetry_cell_setting 'orthorhombic'
loop_
_space_group_symop_operation_xyz
x,y,z
-x,-y,z
x,-y,1/2-z
-x,y,1/2-z
-x,-y,-z
x,y,-z
-x,y,1/2+z
x,-y,1/2+z
1/2+x,1/2+y,1/2+z
1/2-x,1/2-y,1/2+z
1/2+x,1/2-y,-z
1/2-x,1/2+y,-z
1/2-x,1/2-y,1/2-z
1/2+x,1/2+y,1/2-z
1/2-x,1/2+y,z
1/2+x,1/2-y,z
loop_
_atom_site_type_symbol
_atom_site_label
_atom_site_fract_x
_atom_site_fract_y
_atom_site_fract_z
Si Si1 0.124094 0.071517 0.824463
Si Si2 0.357337 0.441577 0.845678
Si Si3 0.752094 0.859000 0.415114
Si Si4 0.008039 0.114608 0.415487
Si Si5 0.969485 0.250668 0.915454
Si Si6 0.671134 0.741008 0.162511
Si Si7 0.621862 0.785800 0.585462
Si Si8 0.307152 0.310410 0.316383
O O1 0.113934 0.068114 0.736665
O O2 0.047468 0.084439 0.860329
O O3 0.181459 0.122635 0.841875
O O4 0.153516 0.010984 0.858913
O O5 0.280419 0.410911 0.861994
O O6 0.414002 0.413470 0.902205
O O7 0.759522 0.878552 0.500000
O O8 0.797892 0.799400 0.403254
O O9 0.668722 0.843890 0.394400
O O10 0.985575 0.102249 0.500000
O O11 0.009171 0.183645 0.399307
O O12 0.904454 0.268734 0.861921
O O13 0.037155 0.293310 0.897217
O O14 0.945235 0.258756 0.000000
O O15 0.662096 0.699468 0.233967
O O16 0.722699 0.795699 0.181382
O O17 0.633067 0.770287 0.500000
O O18 0.648968 0.729914 0.628948
#
# Coordination Sequence:
#
# PCOD8293068 Si02
#       8
#    16  16  16  16  16  16  16  16
#     4  11  22  35  48  68 101 134 169 208 249 293
#     4  11  22  34  50  68  95 139 174 204 245 290
#     4  10  18  32  51  72  96 127 169 209 242 291
#     4  11  21  33  48  69  99 134 173 209 239 287
#     4  10  18  31  49  72 100 131 162 199 251 300
#     4  10  19  30  51  75  97 128 164 204 251 303
#     4   9  19  32  49  72 100 129 160 203 254 295
#     4  10  19  33  49  70 101 129 162 206 253 298
#
# _framework density 16.647445000000001
#
# number of rings (size 3 to 8) (size 9 to 14) (size 15 to 20)
#    0.000    1.750    3.750    1.500    0.000    3.500 
#    0.000    0.000    0.000    0.000    0.000    0.875 
#    0.000    5.000    0.000    0.000    0.000    0.000 
#
# Total GULP energy -793512.131230 kJ/mol
# GULP energy per Si atom -12398.627050 kJ/mol
# Density = 1.660955 g / cm^3
# Si number density = 16.647445 Si / 1000 Ang^3
#
#
#
# Elastic Constant Matrix: (Units=GPa)
#
#
# Indices 1 2 3 4 5 6 
#
# 1 121.0656 47.0442 46.7665 0.0000 0.0000 0.0000
# 2 47.0442 71.8725 22.8119 0.0000 0.0000 0.0000
# 3 46.7665 22.8119 67.3383 0.0000 0.0000 0.0000
# 4 0.0000 0.0000 0.0000 16.3441 0.0000 0.0000
# 5 0.0000 0.0000 0.0000 0.0000 26.3945 0.0000
# 6 0.0000 0.0000 0.0000 0.0000 0.0000 19.5514
#
#
#
# Elastic Compliance Matrix: (Units=1/GPa)
#
#
# Indices 1 2 3 4 5 6 
#
# 1 0.013622 -0.006626 -0.007216 0.000000 0.000000 0.000000
# 2 -0.006626 0.018813 -0.001771 0.000000 0.000000 0.000000
# 3 -0.007216 -0.001771 0.020462 0.000000 0.000000 0.000000
# 4 0.000000 0.000000 0.000000 0.061184 0.000000 0.000000
# 5 0.000000 0.000000 0.000000 0.000000 0.037887 0.000000
# 6 0.000000 0.000000 0.000000 0.000000 0.000000 0.051147
#
#
# Mechanical properties :
#
#
# Convention : Reuss Voigt Hill
#
# Bulk Modulus (GPa) = 46.14618 54.83571 50.49095
# Shear Modulus (GPa) = 20.69834 22.03493 21.36664
#
# Velocity S-wave (km/s) = 3.52992 3.64211 3.58645
# Velocity P-wave (km/s) = 6.66285 7.12022 6.89533
#
# Compressibility (1/GPa) = 0.02167027
#
# Stress axis : x y z
#
# Youngs Moduli (GPa) = 73.40931 53.15509 48.87126
#
# Poissons Ratio (x) = 0.35221 0.35265
# Poissons Ratio (y) = 0.48642 0.08657
# Poissons Ratio (z) = 0.52972 0.09415
#
# Static dielectric constant tensor:
#      x y z
#    x 3.241410 0.000000 0.000000 
#    y 0.000000 3.047860 0.000000 
#    z 0.000000 0.000000 3.188550 
# 
# 
# High freq. dielectric constant tensor:
#      x y z
#    x 1.631720 0.000000 0.000000 
#    y 0.000000 1.607830 0.000000 
#    z 0.000000 0.000000 1.651590 
# 
# From -- ./inp_files/32063.got.cif
#   From: 2010.03.12/outbox.cif.g09.slc.cpg/sg72_17_cif.got.tgz:32063.got - 2010.04.16 14:54:00.
