data_PCOD8293760
_publ_section_title
;
Structure prediction by ZEFSAII (Michael W. Deem and Ramdas Pophale) SiO2 
 PCOD8293760
Probable space group: I B A M
;
_chemical_formula_sum "Si O2"
_cell_formula_units_Z 96
_cell_length_a 16.086930
_cell_length_b 14.672592
_cell_length_c 19.910141
_cell_angle_alpha 90.000000
_cell_angle_beta 90.000000
_cell_angle_gamma 90.000000
_cell_volume 4699.529163
_symmetry_space_group_name_H-M "I B A M"
_symmetry_group_IT_number 72
_symmetry_cell_setting 'orthorhombic'
loop_
_space_group_symop_operation_xyz
x,y,z
-x,-y,z
x,-y,1/2-z
-x,y,1/2-z
-x,-y,-z
x,y,-z
-x,y,1/2+z
x,-y,1/2+z
1/2+x,1/2+y,1/2+z
1/2-x,1/2-y,1/2+z
1/2+x,1/2-y,-z
1/2-x,1/2+y,-z
1/2-x,1/2-y,1/2-z
1/2+x,1/2+y,1/2-z
1/2-x,1/2+y,z
1/2+x,1/2-y,z
loop_
_atom_site_type_symbol
_atom_site_label
_atom_site_fract_x
_atom_site_fract_y
_atom_site_fract_z
Si Si1 0.656395 0.404600 0.763698
Si Si2 0.592627 0.218679 0.245197
Si Si3 0.244316 0.436111 0.393237
Si Si4 0.157217 0.262441 0.394381
Si Si5 0.054761 0.849232 0.000000
Si Si6 0.219500 0.628827 0.647792
Si Si7 0.383258 0.444270 0.500000
O O1 0.607778 0.500000 0.750000
O O2 0.593201 0.323322 0.782121
O O3 0.730707 0.411474 0.817246
O O4 0.700016 0.383940 0.693636
O O5 0.500000 0.180678 0.250000
O O6 0.632608 0.216902 0.318048
O O7 0.639429 0.155847 0.191124
O O8 0.177876 0.363555 0.423328
O O9 0.201628 0.536481 0.394366
O O10 0.329643 0.431560 0.433725
O O11 0.084902 0.209171 0.434998
O O12 0.245972 0.208731 0.400962
O O13 0.955270 0.866121 0.000000
O O14 0.088837 0.951068 0.000000
#
# Coordination Sequence:
#
# PCOD8293760 Si02
#       7
#    16  16  16  16   8  16   8
#     4   9  18  33  58  87 118 160 204 257 317 382
#     4  11  22  36  59  95 130 161 203 269 337 378
#     4  11  20  38  67  87 117 173 216 246 310 395
#     4  11  21  40  63  86 127 169 212 254 317 387
#     4  11  25  42  58  95 135 160 203 284 327 374
#     4  10  19  38  60  90 124 158 215 262 303 397
#     4  11  25  40  62  93 122 165 218 263 329 371
#
# _framework density 20.427576999999999
#
# number of rings (size 3 to 8) (size 9 to 14) (size 15 to 20)
#    0.000    1.500    5.000    1.500    2.333    0.333 
#    0.000    1.667    0.000    0.000    0.000    3.500 
#    0.000    0.000    0.000    0.000    0.000    0.000 
#
# Total GULP energy -594682.819421 kJ/mol
# GULP energy per Si atom -12389.225405 kJ/mol
# Density = 2.038108 g / cm^3
# Si number density = 20.427577 Si / 1000 Ang^3
#
#
#
# Elastic Constant Matrix: (Units=GPa)
#
#
# Indices 1 2 3 4 5 6 
#
# 1 110.5848 74.6519 22.0150 0.0000 0.0000 0.0000
# 2 74.6519 159.5854 40.4286 0.0000 0.0000 0.0000
# 3 22.0150 40.4286 49.4288 0.0000 0.0000 0.0000
# 4 0.0000 0.0000 0.0000 64.2325 0.0000 0.0000
# 5 0.0000 0.0000 0.0000 0.0000 29.2036 0.0000
# 6 0.0000 0.0000 0.0000 0.0000 0.0000 28.5448
#
#
#
# Elastic Compliance Matrix: (Units=1/GPa)
#
#
# Indices 1 2 3 4 5 6 
#
# 1 0.013259 -0.005937 -0.001050 0.000000 0.000000 0.000000
# 2 -0.005937 0.010562 -0.005995 0.000000 0.000000 0.000000
# 3 -0.001050 -0.005995 0.025602 0.000000 0.000000 0.000000
# 4 0.000000 0.000000 0.000000 0.015568 0.000000 0.000000
# 5 0.000000 0.000000 0.000000 0.000000 0.034242 0.000000
# 6 0.000000 0.000000 0.000000 0.000000 0.000000 0.035033
#
#
# Mechanical properties :
#
#
# Convention : Reuss Voigt Hill
#
# Bulk Modulus (GPa) = 42.62427 65.97665 54.30046
# Shear Modulus (GPa) = 29.75312 36.56309 33.15811
#
# Velocity S-wave (km/s) = 3.82058 4.23530 4.03327
# Velocity P-wave (km/s) = 6.35403 7.50233 6.95193
#
# Compressibility (1/GPa) = 0.02346081
#
# Stress axis : x y z
#
# Youngs Moduli (GPa) = 75.41793 94.67935 39.05957
#
# Poissons Ratio (x) = 0.56207 0.04101
# Poissons Ratio (y) = 0.44773 0.23415
# Poissons Ratio (z) = 0.07919 0.56757
#
# Static dielectric constant tensor:
#      x y z
#    x 3.341250 0.000000 0.000000 
#    y 0.000000 4.361280 0.000000 
#    z 0.000000 0.000000 3.613840 
# 
# 
# High freq. dielectric constant tensor:
#      x y z
#    x 1.757880 0.000000 0.000000 
#    y 0.000000 1.817750 0.000000 
#    z 0.000000 0.000000 1.787500 
# 
# From -- ./inp_files/38085.got.cif
#   From: 2010.03.12/outbox.cif.g09.slc.cpg/sg72_20_cif.got.tgz:38085.got - 2010.04.16 14:54:00.
