data_PCOD8293137
_publ_section_title
;
Structure prediction by ZEFSAII (Michael W. Deem and Ramdas Pophale) SiO2 
 PCOD8293137
Probable space group: I B A M
;
_chemical_formula_sum "Si O2"
_cell_formula_units_Z 96
_cell_length_a 10.281589
_cell_length_b 29.398528
_cell_length_c 16.717751
_cell_angle_alpha 90.000000
_cell_angle_beta 90.000000
_cell_angle_gamma 90.000000
_cell_volume 5053.167302
_symmetry_space_group_name_H-M "I B A M"
_symmetry_group_IT_number 72
_symmetry_cell_setting 'orthorhombic'
loop_
_space_group_symop_operation_xyz
x,y,z
-x,-y,z
x,-y,1/2-z
-x,y,1/2-z
-x,-y,-z
x,y,-z
-x,y,1/2+z
x,-y,1/2+z
1/2+x,1/2+y,1/2+z
1/2-x,1/2-y,1/2+z
1/2+x,1/2-y,-z
1/2-x,1/2+y,-z
1/2-x,1/2-y,1/2-z
1/2+x,1/2+y,1/2-z
1/2-x,1/2+y,z
1/2+x,1/2-y,z
loop_
_atom_site_type_symbol
_atom_site_label
_atom_site_fract_x
_atom_site_fract_y
_atom_site_fract_z
Si Si1 0.028776 0.721057 0.404114
Si Si2 0.682524 0.291213 0.404795
Si Si3 0.112046 0.531839 0.906388
Si Si4 0.358821 0.485451 0.159307
Si Si5 0.989161 0.622740 0.409707
Si Si6 0.790630 0.892628 0.409109
O O1 0.026348 0.719854 0.500000
O O2 0.177792 0.728464 0.375018
O O3 0.977478 0.672492 0.368683
O O4 0.934867 0.760496 0.369915
O O5 0.681963 0.290341 0.500000
O O6 0.661673 0.343340 0.376959
O O7 0.253797 0.511480 0.894004
O O8 0.000000 0.500000 0.867473
O O9 0.099212 0.583109 0.868811
O O10 0.083249 0.536329 0.000000
O O11 0.500000 0.500000 0.128459
O O12 0.335684 0.500000 0.250000
O O13 0.347891 0.431127 0.149153
O O14 0.941844 0.629740 0.500000
O O15 0.135909 0.604789 0.407061
O O16 0.839467 0.901111 0.500000
#
# Coordination Sequence:
#
# PCOD8293137 Si02
#       6
#    16  16  16  16  16  16
#     4   8  13  23  38  62  98 130 155 189 238 292
#     4   8  14  24  42  66  97 131 158 194 245 298
#     4  10  18  32  55  78  99 126 166 211 253 304
#     4  11  24  38  49  68 103 136 173 211 258 306
#     4   8  14  26  46  71 100 129 157 200 253 296
#     4   9  16  31  52  72  98 135 170 203 253 307
#
# _framework density 18.997985
#
# number of rings (size 3 to 8) (size 9 to 14) (size 15 to 20)
#    0.000    3.000    1.667    2.500    0.000    1.667 
#    3.000    0.000    0.000    0.000    0.000    1.167 
#    0.000    0.000    0.000    0.000    0.000    0.000 
#
# Total GULP energy -594741.978534 kJ/mol
# GULP energy per Si atom -12390.457886 kJ/mol
# Density = 1.895474 g / cm^3
# Si number density = 18.997985 Si / 1000 Ang^3
#
#
#
# Elastic Constant Matrix: (Units=GPa)
#
#
# Indices 1 2 3 4 5 6 
#
# 1 100.8641 82.0103 12.4082 0.0000 0.0000 0.0000
# 2 82.0103 178.4919 25.5648 0.0000 0.0000 0.0000
# 3 12.4082 25.5648 17.8496 -0.0004 0.0001 0.0000
# 4 0.0000 0.0000 -0.0004 8.8716 0.0000 0.0000
# 5 0.0000 0.0000 0.0001 0.0000 9.6175 0.0000
# 6 0.0000 0.0000 0.0000 0.0000 0.0000 35.3674
#
#
#
# Elastic Compliance Matrix: (Units=1/GPa)
#
#
# Indices 1 2 3 4 5 6 
#
# 1 0.015835 -0.007170 -0.000739 0.000000 0.000000 0.000000
# 2 -0.007170 0.010295 -0.009760 0.000000 0.000000 0.000000
# 3 -0.000739 -0.009760 0.070516 0.000003 0.000000 0.000000
# 4 0.000000 0.000000 0.000003 0.112720 0.000000 0.000000
# 5 0.000000 0.000000 0.000000 0.000000 0.103977 0.000000
# 6 0.000000 0.000000 0.000000 0.000000 0.000000 0.028275
#
#
# Mechanical properties :
#
#
# Convention : Reuss Voigt Hill
#
# Bulk Modulus (GPa) = 16.31110 59.68579 37.99844
# Shear Modulus (GPa) = 12.58207 22.58610 17.58409
#
# Velocity S-wave (km/s) = 2.57628 3.45174 3.04563
# Velocity P-wave (km/s) = 4.17779 6.88267 5.69320
#
# Compressibility (1/GPa) = 0.06130795
#
# Stress axis : x y z
#
# Youngs Moduli (GPa) = 63.15257 97.13833 14.18110
#
# Poissons Ratio (x) = 0.69644 0.01048
# Poissons Ratio (y) = 0.45278 0.13841
# Poissons Ratio (z) = 0.04667 0.94810
#
# Static dielectric constant tensor:
#      x y z
#    x 3.477150 0.000000 0.000000 
#    y 0.000000 3.951840 0.000000 
#    z 0.000000 0.000000 2.820220 
# 
# 
# High freq. dielectric constant tensor:
#      x y z
#    x 1.725280 0.000000 0.000000 
#    y 0.000000 1.758080 0.000000 
#    z 0.000000 0.000000 1.670580 
# 
# From -- ./inp_files/29600.got.cif
#   From: 2010.03.12/outbox.cif.g09.slc.cpg/sg72_15_cif.got.tgz:29600.got - 2010.04.16 14:54:00.
