data_PCOD8293379
_publ_section_title
;
Structure prediction by ZEFSAII (Michael W. Deem and Ramdas Pophale) SiO2 
 PCOD8293379
Probable space group: I B A M
;
_chemical_formula_sum "Si O2"
_cell_formula_units_Z 80
_cell_length_a 17.787848
_cell_length_b 14.274684
_cell_length_c 14.565476
_cell_angle_alpha 90.000000
_cell_angle_beta 90.000000
_cell_angle_gamma 90.000000
_cell_volume 3698.406082
_symmetry_space_group_name_H-M "I B A M"
_symmetry_group_IT_number 72
_symmetry_cell_setting 'orthorhombic'
loop_
_space_group_symop_operation_xyz
x,y,z
-x,-y,z
x,-y,1/2-z
-x,y,1/2-z
-x,-y,-z
x,y,-z
-x,y,1/2+z
x,-y,1/2+z
1/2+x,1/2+y,1/2+z
1/2-x,1/2-y,1/2+z
1/2+x,1/2-y,-z
1/2-x,1/2+y,-z
1/2-x,1/2-y,1/2-z
1/2+x,1/2+y,1/2-z
1/2-x,1/2+y,z
1/2+x,1/2-y,z
loop_
_atom_site_type_symbol
_atom_site_label
_atom_site_fract_x
_atom_site_fract_y
_atom_site_fract_z
Si Si1 0.703290 0.286663 0.103246
Si Si2 0.648042 0.597624 0.228542
Si Si3 0.287228 0.918606 0.898884
Si Si4 0.620798 0.238505 0.606003
Si Si5 0.076652 0.462272 0.647852
O O1 0.664082 0.355034 0.173941
O O2 0.671596 0.181362 0.118290
O O3 0.791892 0.281961 0.122929
O O4 0.687217 0.323361 0.000000
O O5 0.604005 0.500000 0.250000
O O6 0.724596 0.564353 0.177785
O O7 0.599730 0.668225 0.164604
O O8 0.349107 0.000511 0.902883
O O9 0.248285 0.915363 0.000000
O O10 0.601295 0.256906 0.500000
O O11 0.574052 0.150259 0.643413
O O12 0.080801 0.500000 0.750000
O O13 0.000000 0.500000 0.600718
#
# Coordination Sequence:
#
# PCOD8293379 Si02
#       5
#    16  16  16  16  16
#     4   9  18  31  50  73 101 140 181 230 281 326
#     4  11  20  31  51  75 105 143 184 231 277 323
#     4  10  19  32  50  75 108 145 185 224 274 334
#     4  10  20  34  50  74 110 146 182 224 275 328
#     4  11  22  35  54  80 113 150 184 221 273 336
#
# _framework density 21.630941
#
# number of rings (size 3 to 8) (size 9 to 14) (size 15 to 20)
#    0.000    1.800    0.000    9.000    0.000    4.800 
#    0.000    0.000    0.000    0.000    0.000   11.200 
#    0.000   17.600    0.000    0.200    0.000    0.000 
#
# Total GULP energy -495856.377421 kJ/mol
# GULP energy per Si atom -12396.409436 kJ/mol
# Density = 2.158171 g / cm^3
# Si number density = 21.630941 Si / 1000 Ang^3
#
#
#
# Elastic Constant Matrix: (Units=GPa)
#
#
# Indices 1 2 3 4 5 6 
#
# 1 35.2363 25.9534 1.2010 0.0000 0.0000 0.0000
# 2 25.9534 193.9170 63.2728 0.0000 0.0000 0.0000
# 3 1.2010 63.2728 128.1907 0.0000 0.0000 0.0000
# 4 0.0000 0.0000 0.0000 23.0995 0.0000 0.0000
# 5 0.0000 0.0000 0.0000 0.0000 2.7834 0.0000
# 6 0.0000 0.0000 0.0000 0.0000 0.0000 16.9693
#
#
#
# Elastic Compliance Matrix: (Units=1/GPa)
#
#
# Indices 1 2 3 4 5 6 
#
# 1 0.031978 -0.004985 0.002161 0.000000 0.000000 0.000000
# 2 -0.004985 0.006924 -0.003371 0.000000 0.000000 0.000000
# 3 0.002161 -0.003371 0.009444 0.000000 0.000000 0.000000
# 4 0.000000 0.000000 0.000000 0.043291 0.000000 0.000000
# 5 0.000000 0.000000 0.000000 0.000000 0.359272 0.000000
# 6 0.000000 0.000000 0.000000 0.000000 0.000000 0.058930
#
#
# Mechanical properties :
#
#
# Convention : Reuss Voigt Hill
#
# Bulk Modulus (GPa) = 27.81143 59.79980 43.80561
# Shear Modulus (GPa) = 9.35955 26.36490 17.86222
#
# Velocity S-wave (km/s) = 2.08238 3.49499 2.87674
# Velocity P-wave (km/s) = 4.32052 6.63266 5.59728
#
# Compressibility (1/GPa) = 0.03595644
#
# Stress axis : x y z
#
# Youngs Moduli (GPa) = 31.27166 144.42804 105.88281
#
# Poissons Ratio (x) = 0.71996 -0.22880
# Poissons Ratio (y) = 0.15589 0.35691
# Poissons Ratio (z) = -0.06757 0.48684
#
# Static dielectric constant tensor:
#      x y z
#    x 3.506010 0.000000 0.000000 
#    y 0.000000 4.380340 0.000000 
#    z 0.000000 0.000000 4.069580 
# 
# 
# High freq. dielectric constant tensor:
#      x y z
#    x 1.771110 0.000000 0.000000 
#    y 0.000000 1.866540 0.000000 
#    z 0.000000 0.000000 1.870700 
# 
# From -- ./inp_files/21605.got.cif
#   From: 2010.03.12/outbox.cif.g09.slc.cpg/sg72_11_cif.got.tgz:21605.got - 2010.04.16 14:54:00.
