data_PCOD8293254
_publ_section_title
;
Structure prediction by ZEFSAII (Michael W. Deem and Ramdas Pophale) SiO2 
 PCOD8293254
Probable space group: I B A M
;
_chemical_formula_sum "Si O2"
_cell_formula_units_Z 116
_cell_length_a 31.459807
_cell_length_b 31.459793
_cell_length_c 8.900599
_cell_angle_alpha 90.000000
_cell_angle_beta 90.000000
_cell_angle_gamma 90.000000
_cell_volume 8809.092084
_symmetry_space_group_name_H-M "I B A M"
_symmetry_group_IT_number 72
_symmetry_cell_setting 'orthorhombic'
loop_
_space_group_symop_operation_xyz
x,y,z
-x,-y,z
x,-y,1/2-z
-x,y,1/2-z
-x,-y,-z
x,y,-z
-x,y,1/2+z
x,-y,1/2+z
1/2+x,1/2+y,1/2+z
1/2-x,1/2-y,1/2+z
1/2+x,1/2-y,-z
1/2-x,1/2+y,-z
1/2-x,1/2-y,1/2-z
1/2+x,1/2+y,1/2-z
1/2-x,1/2+y,z
1/2+x,1/2-y,z
loop_
_atom_site_type_symbol
_atom_site_label
_atom_site_fract_x
_atom_site_fract_y
_atom_site_fract_z
Si Si1 0.684604 0.756069 0.330624
Si Si2 0.805387 0.875801 0.324722
Si Si3 0.256069 0.815396 0.669376
Si Si4 0.500000 0.500000 0.250000
Si Si5 0.043220 0.841962 0.321360
Si Si6 0.624199 0.305387 0.324722
Si Si7 0.658038 0.456780 0.821360
Si Si8 0.566684 0.566684 0.333362
O O1 0.669980 0.766881 0.500000
O O2 0.701129 0.798871 0.250000
O O3 0.721991 0.721991 0.333880
O O4 0.645146 0.737858 0.236174
O O5 0.800152 0.885548 0.500000
O O6 0.762142 0.854854 0.263826
O O7 0.845225 0.845224 0.293134
O O8 0.812017 0.918927 0.233354
O O9 0.266881 0.830020 0.500000
O O10 0.530511 0.530511 0.345893
O O11 0.039643 0.840717 0.500000
O O12 0.081073 0.812017 0.266646
O O13 0.050117 0.890054 0.255645
O O14 0.000000 0.824114 0.250000
O O15 0.614452 0.300152 0.500000
O O16 0.675886 0.500000 0.750000
O O17 0.609946 0.449883 0.755645
O O18 0.659283 0.460357 0.000000
O O19 0.580062 0.580062 0.500000
#
# Coordination Sequence:
#
# PCOD8293254 Si02
#       8
#    16  16  16   4  16  16  16  16
#     4   9  16  26  41  61  83 104 122 146 176 218
#     4  10  19  30  44  61  78 100 125 153 188 232
#     4   9  16  26  41  61  83 104 122 146 176 218
#     4  12  18  36  44  58  68  88 114 160 206 252
#     4  11  21  34  45  58  74  95 124 158 198 242
#     4  10  19  30  44  61  78 100 125 153 188 232
#     4  11  21  34  45  58  74  95 124 158 198 242
#     4  10  21  31  43  56  70  88 114 151 199 246
#
# _framework density 13.168214000000001
#
# number of rings (size 3 to 8) (size 9 to 14) (size 15 to 20)
#    0.000    1.931    2.759    2.690    0.000    4.414 
#    0.000    0.000    0.000    0.000    0.000    0.000 
#    0.000    0.000    0.000    0.000    0.000    0.000 
#
# Total GULP energy -719121.275601 kJ/mol
# GULP energy per Si atom -12398.642683 kJ/mol
# Density = 1.313824 g / cm^3
# Si number density = 13.168214 Si / 1000 Ang^3
#
#
#
# Elastic Constant Matrix: (Units=GPa)
#
#
# Indices 1 2 3 4 5 6 
#
# 1 59.8312 46.8456 31.7359 0.0000 0.0000 0.0000
# 2 46.8456 59.8309 31.7358 0.0000 0.0000 0.0000
# 3 31.7359 31.7358 85.8955 0.0000 0.0000 0.0000
# 4 0.0000 0.0000 0.0000 19.8798 0.0000 0.0000
# 5 0.0000 0.0000 0.0000 0.0000 19.8798 0.0000
# 6 0.0000 0.0000 0.0000 0.0000 0.0000 22.4883
#
#
#
# Elastic Compliance Matrix: (Units=1/GPa)
#
#
# Indices 1 2 3 4 5 6 
#
# 1 0.044512 -0.032497 -0.004439 0.000000 0.000000 0.000000
# 2 -0.032497 0.044513 -0.004439 0.000000 0.000000 0.000000
# 3 -0.004439 -0.004439 0.014923 0.000000 0.000000 0.000000
# 4 0.000000 0.000000 0.000000 0.050302 0.000000 0.000000
# 5 0.000000 0.000000 0.000000 0.000000 0.050302 0.000000
# 6 0.000000 0.000000 0.000000 0.000000 0.000000 0.044468
#
#
# Mechanical properties :
#
#
# Convention : Reuss Voigt Hill
#
# Bulk Modulus (GPa) = 47.17871 47.35471 47.26671
# Shear Modulus (GPa) = 14.75637 18.79892 16.77765
#
# Velocity S-wave (km/s) = 3.35118 3.78246 3.57333
# Velocity P-wave (km/s) = 7.13298 7.42398 7.27993
#
# Compressibility (1/GPa) = 0.02119600
#
# Stress axis : x y z
#
# Youngs Moduli (GPa) = 22.46564 22.46555 67.01290
#
# Poissons Ratio (x) = 0.73006 0.29750
# Poissons Ratio (y) = 0.73007 0.29750
# Poissons Ratio (z) = 0.09973 0.09973
#
# Static dielectric constant tensor:
#      x y z
#    x 2.471290 0.000000 0.000000 
#    y 0.000000 2.471290 0.000000 
#    z 0.000000 0.000000 2.692020 
# 
# 
# High freq. dielectric constant tensor:
#      x y z
#    x 1.467540 0.000000 0.000000 
#    y 0.000000 1.467540 0.000000 
#    z 0.000000 0.000000 1.515240 
# 
# From -- ./inp_files/8687.got.cif
#   From: 2010.03.12/outbox.cif.g09.slc.cpg/sg72_5_cif.got.tgz:8687.got - 2010.04.16 14:54:00.
