data_PCOD8293395
_publ_section_title
;
Structure prediction by ZEFSAII (Michael W. Deem and Ramdas Pophale) SiO2 
 PCOD8293395
Probable space group: I B A M
;
_chemical_formula_sum "Si O2"
_cell_formula_units_Z 112
_cell_length_a 14.120859
_cell_length_b 27.435314
_cell_length_c 14.632757
_cell_angle_alpha 90.000000
_cell_angle_beta 90.000000
_cell_angle_gamma 90.000000
_cell_volume 5668.879325
_symmetry_space_group_name_H-M "I B A M"
_symmetry_group_IT_number 72
_symmetry_cell_setting 'orthorhombic'
loop_
_space_group_symop_operation_xyz
x,y,z
-x,-y,z
x,-y,1/2-z
-x,y,1/2-z
-x,-y,-z
x,y,-z
-x,y,1/2+z
x,-y,1/2+z
1/2+x,1/2+y,1/2+z
1/2-x,1/2-y,1/2+z
1/2+x,1/2-y,-z
1/2-x,1/2+y,-z
1/2-x,1/2-y,1/2-z
1/2+x,1/2+y,1/2-z
1/2-x,1/2+y,z
1/2+x,1/2-y,z
loop_
_atom_site_type_symbol
_atom_site_label
_atom_site_fract_x
_atom_site_fract_y
_atom_site_fract_z
Si Si1 0.108378 0.195856 0.750000
Si Si2 0.500000 0.943118 0.099602
Si Si3 0.294638 0.945954 0.352123
Si Si4 0.890621 0.688857 0.250000
Si Si5 0.754422 0.844831 0.603091
Si Si6 0.205363 0.554046 0.647877
Si Si7 0.254421 0.655169 0.896909
O O1 0.119969 0.253409 0.750002
O O2 0.155431 0.175354 0.657666
O O3 0.155431 0.175353 0.842334
O O4 0.000000 0.179190 0.750000
O O5 0.595207 0.929361 0.153311
O O6 0.404792 0.929360 0.153308
O O7 0.500000 0.000000 0.084083
O O8 0.500003 0.917030 0.000000
O O9 0.254693 0.947595 0.250000
O O10 0.237944 0.903918 0.405591
O O11 0.282165 1.000000 0.397693
O O12 0.840684 0.668976 0.158338
O O13 0.840684 0.668977 0.341663
O O14 0.000000 0.672283 0.250000
O O15 0.752610 0.823142 0.500000
O O16 0.762058 0.903918 0.594409
O O17 0.252610 0.676858 0.000000
#
# Coordination Sequence:
#
# PCOD8293395 Si02
#       7
#    16  16  16  16  16  16  16
#     4  10  23  45  64  82 111 146 194 252 305 350
#     4   9  17  27  41  69 109 153 193 222 259 323
#     4  10  19  32  51  77 115 158 192 226 273 333
#     4  10  23  41  60  86 122 155 186 234 290 347
#     4  11  22  37  61  90 119 152 194 239 284 343
#     4  10  19  32  51  77 115 158 192 226 273 333
#     4  11  22  37  61  90 119 152 194 239 284 343
#
# _framework density 19.756992
#
# number of rings (size 3 to 8) (size 9 to 14) (size 15 to 20)
#    0.000    1.857    2.857    3.000    2.000    6.857 
#    0.000    2.857    0.000    1.714    0.000    2.000 
#    0.000    0.000    0.000    0.000    0.000    0.000 
#
# Total GULP energy -693912.699238 kJ/mol
# GULP energy per Si atom -12391.298201 kJ/mol
# Density = 1.971202 g / cm^3
# Si number density = 19.756992 Si / 1000 Ang^3
#
#
#
# Elastic Constant Matrix: (Units=GPa)
#
#
# Indices 1 2 3 4 5 6 
#
# 1 110.4862 42.9084 51.7013 0.0000 0.0004 0.0000
# 2 42.9084 104.6992 28.1910 0.0002 0.0012 0.0000
# 3 51.7013 28.1910 157.8201 -0.0002 0.0009 0.0000
# 4 0.0000 0.0002 -0.0002 11.3725 0.0007 0.0000
# 5 0.0004 0.0012 0.0009 0.0007 90.9074 0.0000
# 6 0.0000 0.0000 0.0000 0.0000 0.0000 25.0203
#
#
#
# Elastic Compliance Matrix: (Units=1/GPa)
#
#
# Indices 1 2 3 4 5 6 
#
# 1 0.012170 -0.004112 -0.003252 0.000000 0.000000 0.000000
# 2 -0.004112 0.011423 -0.000693 0.000000 0.000000 0.000000
# 3 -0.003252 -0.000693 0.007526 0.000000 0.000000 0.000000
# 4 0.000000 0.000000 0.000000 0.087931 -0.000001 0.000000
# 5 0.000000 0.000000 0.000000 -0.000001 0.011000 0.000000
# 6 0.000000 0.000000 0.000000 0.000000 0.000000 0.039968
#
#
# Mechanical properties :
#
#
# Convention : Reuss Voigt Hill
#
# Bulk Modulus (GPa) = 66.65193 68.73412 67.69302
# Shear Modulus (GPa) = 26.15976 42.14035 34.15005
#
# Velocity S-wave (km/s) = 3.64273 4.62338 4.16204
# Velocity P-wave (km/s) = 7.17647 7.96029 7.57852
#
# Compressibility (1/GPa) = 0.01500332
#
# Stress axis : x y z
#
# Youngs Moduli (GPa) = 82.17190 87.54282 132.87926
#
# Poissons Ratio (x) = 0.35995 0.43216
# Poissons Ratio (y) = 0.33787 0.09215
# Poissons Ratio (z) = 0.26724 0.06071
#
# Static dielectric constant tensor:
#      x y z
#    x 3.450120 0.000000 0.000000 
#    y 0.000000 3.816410 0.000000 
#    z 0.000000 0.000000 3.575510 
# 
# 
# High freq. dielectric constant tensor:
#      x y z
#    x 1.725190 0.000000 0.000000 
#    y 0.000000 1.781490 0.000000 
#    z 0.000000 0.000000 1.771640 
# 
# From -- ./inp_files/22435.got.cif
#   From: 2010.03.12/outbox.cif.g09.slc.cpg/sg72_12_cif.got.tgz:22435.got - 2010.04.16 14:54:00.
