data_PCOD8293605
_publ_section_title
;
Structure prediction by ZEFSAII (Michael W. Deem and Ramdas Pophale) SiO2 
 PCOD8293605
Probable space group: I B A M
;
_chemical_formula_sum "Si O2"
_cell_formula_units_Z 112
_cell_length_a 23.759833
_cell_length_b 12.571260
_cell_length_c 19.732275
_cell_angle_alpha 90.000000
_cell_angle_beta 90.000000
_cell_angle_gamma 90.000000
_cell_volume 5893.853706
_symmetry_space_group_name_H-M "I B A M"
_symmetry_group_IT_number 72
_symmetry_cell_setting 'orthorhombic'
loop_
_space_group_symop_operation_xyz
x,y,z
-x,-y,z
x,-y,1/2-z
-x,y,1/2-z
-x,-y,-z
x,y,-z
-x,y,1/2+z
x,-y,1/2+z
1/2+x,1/2+y,1/2+z
1/2-x,1/2-y,1/2+z
1/2+x,1/2-y,-z
1/2-x,1/2+y,-z
1/2-x,1/2-y,1/2-z
1/2+x,1/2+y,1/2-z
1/2-x,1/2+y,z
1/2+x,1/2-y,z
loop_
_atom_site_type_symbol
_atom_site_label
_atom_site_fract_x
_atom_site_fract_y
_atom_site_fract_z
Si Si1 0.847954 0.922115 0.419485
Si Si2 0.321427 0.127371 0.249085
Si Si3 0.443147 0.207854 0.578962
Si Si4 0.238626 0.235870 0.354957
Si Si5 0.471307 0.395618 0.078691
Si Si6 0.837167 0.842967 0.077699
Si Si7 0.054836 0.615848 0.282379
O O1 0.841730 0.918901 0.500000
O O2 0.798884 0.852290 0.389274
O O3 0.908220 0.878296 0.393431
O O4 0.841467 0.040847 0.388312
O O5 0.280625 0.177824 0.304213
O O6 0.301022 0.173767 0.177489
O O7 0.385440 0.167715 0.261522
O O8 0.316900 0.000000 0.250000
O O9 0.441798 0.166805 0.500000
O O10 0.493641 0.289583 0.591102
O O11 0.385777 0.264066 0.602870
O O12 0.450919 0.113622 0.634654
O O13 0.275848 0.294002 0.411493
O O14 0.500000 0.500000 0.113063
O O15 0.465635 0.421679 0.000000
O O16 0.849430 0.862245 0.000000
O O17 0.054313 0.500000 0.250000
O O18 0.000000 0.676690 0.250000
#
# Coordination Sequence:
#
# PCOD8293605 Si02
#       7
#    16  16  16  16  16  16  16
#     4  10  20  33  54  86 119 150 188 240 298 349
#     4  10  22  39  56  76 108 151 195 237 287 347
#     4  10  19  35  63  89 114 152 197 241 295 362
#     4  11  21  35  56  81 109 154 195 238 282 357
#     4   9  16  30  53  84 118 148 181 232 296 352
#     4  10  19  34  56  84 118 152 192 241 293 351
#     4  10  22  41  62  82 112 155 197 246 296 347
#
# _framework density 19.002846000000002
#
# number of rings (size 3 to 8) (size 9 to 14) (size 15 to 20)
#    0.000    2.000    2.857    1.286    2.000    0.000 
#    0.000    1.429    0.000    5.571    0.000    0.000 
#    0.000    0.000    0.000    0.000    0.000    0.000 
#
# Total GULP energy -693885.329153 kJ/mol
# GULP energy per Si atom -12390.809449 kJ/mol
# Density = 1.895959 g / cm^3
# Si number density = 19.002846 Si / 1000 Ang^3
#
#
#
# Elastic Constant Matrix: (Units=GPa)
#
#
# Indices 1 2 3 4 5 6 
#
# 1 152.5306 36.4255 39.7157 0.0000 0.0000 0.0000
# 2 36.4255 76.3210 42.5064 0.0000 0.0000 0.0000
# 3 39.7157 42.5064 72.7295 0.0000 0.0000 0.0000
# 4 0.0000 0.0000 0.0000 19.8908 0.0000 0.0000
# 5 0.0000 0.0000 0.0000 0.0000 5.1003 0.0000
# 6 0.0000 0.0000 0.0000 0.0000 0.0000 19.7479
#
#
#
# Elastic Compliance Matrix: (Units=1/GPa)
#
#
# Indices 1 2 3 4 5 6 
#
# 1 0.007846 -0.002014 -0.003108 0.000000 0.000000 0.000000
# 2 -0.002014 0.019943 -0.010556 0.000000 0.000000 0.000000
# 3 -0.003108 -0.010556 0.021616 0.000000 0.000000 0.000000
# 4 0.000000 0.000000 0.000000 0.050274 0.000000 0.000000
# 5 0.000000 0.000000 0.000000 0.000000 0.196067 0.000000
# 6 0.000000 0.000000 0.000000 0.000000 0.000000 0.050638
#
#
# Mechanical properties :
#
#
# Convention : Reuss Voigt Hill
#
# Bulk Modulus (GPa) = 55.40086 59.87516 57.63801
# Shear Modulus (GPa) = 13.02915 21.14338 17.08626
#
# Velocity S-wave (km/s) = 2.62132 3.33925 3.00182
# Velocity P-wave (km/s) = 6.19508 6.81501 6.51243
#
# Compressibility (1/GPa) = 0.01805026
#
# Stress axis : x y z
#
# Youngs Moduli (GPa) = 127.45107 50.14386 46.26271
#
# Poissons Ratio (x) = 0.10099 0.14376
# Poissons Ratio (y) = 0.25669 0.48833
# Poissons Ratio (z) = 0.39606 0.52930
#
# Static dielectric constant tensor:
#      x y z
#    x 4.192040 0.000000 0.000000 
#    y 0.000000 3.363860 0.000000 
#    z 0.000000 0.000000 3.349680 
# 
# 
# High freq. dielectric constant tensor:
#      x y z
#    x 1.764250 0.000000 0.000000 
#    y 0.000000 1.722560 0.000000 
#    z 0.000000 0.000000 1.716250 
# 
# From -- ./inp_files/45757.got.cif
#   From: 2010.03.12/outbox.cif.g09.slc.cpg/sg72_23_cif.got.tgz:45757.got - 2010.04.16 14:54:00.
