data_PCOD8293355
_publ_section_title
;
Structure prediction by ZEFSAII (Michael W. Deem and Ramdas Pophale) SiO2 
 PCOD8293355
Probable space group: I B A M
;
_chemical_formula_sum "Si O2"
_cell_formula_units_Z 112
_cell_length_a 18.559993
_cell_length_b 18.826115
_cell_length_c 18.498992
_cell_angle_alpha 90.000000
_cell_angle_beta 90.000000
_cell_angle_gamma 90.000000
_cell_volume 6463.780201
_symmetry_space_group_name_H-M "I B A M"
_symmetry_group_IT_number 72
_symmetry_cell_setting 'orthorhombic'
loop_
_space_group_symop_operation_xyz
x,y,z
-x,-y,z
x,-y,1/2-z
-x,y,1/2-z
-x,-y,-z
x,y,-z
-x,y,1/2+z
x,-y,1/2+z
1/2+x,1/2+y,1/2+z
1/2-x,1/2-y,1/2+z
1/2+x,1/2-y,-z
1/2-x,1/2+y,-z
1/2-x,1/2-y,1/2-z
1/2+x,1/2+y,1/2-z
1/2-x,1/2+y,z
1/2+x,1/2-y,z
loop_
_atom_site_type_symbol
_atom_site_label
_atom_site_fract_x
_atom_site_fract_y
_atom_site_fract_z
Si Si1 0.566343 0.462055 0.672785
Si Si2 0.723989 0.852106 0.416225
Si Si3 0.019037 0.800189 0.828560
Si Si4 0.726777 0.485304 0.664990
Si Si5 0.375278 0.274987 0.584958
Si Si6 0.749854 0.623204 0.417649
Si Si7 0.854920 0.253065 0.918911
O O1 0.500000 0.500000 0.628890
O O2 0.569860 0.500000 0.750000
O O3 0.549270 0.379435 0.678929
O O4 0.644441 0.473596 0.636510
O O5 0.721237 0.877610 0.500000
O O6 0.725972 0.917958 0.360701
O O7 0.653483 0.804572 0.397664
O O8 0.794556 0.805251 0.402521
O O9 0.080674 0.751445 0.862311
O O10 0.000000 0.769727 0.750000
O O11 0.949253 0.794396 0.877631
O O12 0.731185 0.500000 0.750000
O O13 0.761627 0.553083 0.628005
O O14 0.385441 0.283159 0.500000
O O15 0.317143 0.331877 0.613623
O O16 0.734591 0.602072 0.500000
O O17 0.822452 0.668639 0.411062
O O18 0.884989 0.241432 0.000000
#
# Coordination Sequence:
#
# PCOD8293355 Si02
#       7
#    16  16  16  16  16  16  16
#     4  10  19  32  44  71 114 149 173 197 257 317
#     4   9  18  36  56  75 102 142 185 227 269 317
#     4  12  21  32  54  79 107 149 177 216 264 325
#     4  11  21  31  53  79 110 145 176 220 267 323
#     4   9  20  36  54  76 106 139 184 233 269 312
#     4   9  19  36  55  76 104 140 182 229 270 317
#     4   9  19  36  55  75 104 140 184 228 268 314
#
# _framework density 17.327321999999999
#
# number of rings (size 3 to 8) (size 9 to 14) (size 15 to 20)
#    0.000    2.143    2.857    3.429    2.000    1.143 
#    0.000    2.857    0.000    4.286    0.000    6.000 
#    0.000    0.000    0.000    0.000    0.000    0.000 
#
# Total GULP energy -694180.953850 kJ/mol
# GULP energy per Si atom -12396.088462 kJ/mol
# Density = 1.728788 g / cm^3
# Si number density = 17.327322 Si / 1000 Ang^3
#
#
#
# Elastic Constant Matrix: (Units=GPa)
#
#
# Indices 1 2 3 4 5 6 
#
# 1 67.7550 33.4311 35.3466 0.0000 0.0000 0.0000
# 2 33.4311 107.5674 53.8476 0.0000 0.0000 0.0000
# 3 35.3466 53.8476 65.5877 0.0000 0.0000 0.0000
# 4 0.0000 0.0000 0.0000 25.2832 0.0000 0.0000
# 5 0.0000 0.0000 0.0000 0.0000 22.7450 0.0000
# 6 0.0000 0.0000 0.0000 0.0000 0.0000 18.5249
#
#
#
# Elastic Compliance Matrix: (Units=1/GPa)
#
#
# Indices 1 2 3 4 5 6 
#
# 1 0.020662 -0.001439 -0.009954 0.000000 0.000000 0.000000
# 2 -0.001439 0.015883 -0.012265 0.000000 0.000000 0.000000
# 3 -0.009954 -0.012265 0.030681 0.000000 0.000000 0.000000
# 4 0.000000 0.000000 0.000000 0.039552 0.000000 0.000000
# 5 0.000000 0.000000 0.000000 0.000000 0.043966 0.000000
# 6 0.000000 0.000000 0.000000 0.000000 0.000000 0.053981
#
#
# Mechanical properties :
#
#
# Convention : Reuss Voigt Hill
#
# Bulk Modulus (GPa) = 50.22413 54.01786 52.12099
# Shear Modulus (GPa) = 19.32914 21.19627 20.26271
#
# Velocity S-wave (km/s) = 3.34358 3.50135 3.42337
# Velocity P-wave (km/s) = 6.62982 6.89844 6.76546
#
# Compressibility (1/GPa) = 0.01991075
#
# Stress axis : x y z
#
# Youngs Moduli (GPa) = 48.39885 62.95877 32.59373
#
# Poissons Ratio (x) = 0.09057 0.32443
# Poissons Ratio (y) = 0.06963 0.39976
# Poissons Ratio (z) = 0.48176 0.77219
#
# Static dielectric constant tensor:
#      x y z
#    x 3.368210 0.000000 0.000000 
#    y 0.000000 3.197850 0.000000 
#    z 0.000000 0.000000 3.162820 
# 
# 
# High freq. dielectric constant tensor:
#      x y z
#    x 1.659330 0.000000 0.000000 
#    y 0.000000 1.664810 0.000000 
#    z 0.000000 0.000000 1.658400 
# 
# From -- ./inp_files/39211.got.cif
#   From: 2010.03.12/outbox.cif.g09.slc.cpg/sg72_20_cif.got.tgz:39211.got - 2010.04.16 14:54:00.
