data_PCOD8293040
_publ_section_title
;
Structure prediction by ZEFSAII (Michael W. Deem and Ramdas Pophale) SiO2 
 PCOD8293040
Probable space group: I B A M
;
_chemical_formula_sum "Si O2"
_cell_formula_units_Z 112
_cell_length_a 23.515046
_cell_length_b 12.952896
_cell_length_c 20.144761
_cell_angle_alpha 90.000000
_cell_angle_beta 90.000000
_cell_angle_gamma 90.000000
_cell_volume 6135.851361
_symmetry_space_group_name_H-M "I B A M"
_symmetry_group_IT_number 72
_symmetry_cell_setting 'orthorhombic'
loop_
_space_group_symop_operation_xyz
x,y,z
-x,-y,z
x,-y,1/2-z
-x,y,1/2-z
-x,-y,-z
x,y,-z
-x,y,1/2+z
x,-y,1/2+z
1/2+x,1/2+y,1/2+z
1/2-x,1/2-y,1/2+z
1/2+x,1/2-y,-z
1/2-x,1/2+y,-z
1/2-x,1/2-y,1/2-z
1/2+x,1/2+y,1/2-z
1/2-x,1/2+y,z
1/2+x,1/2-y,z
loop_
_atom_site_type_symbol
_atom_site_label
_atom_site_fract_x
_atom_site_fract_y
_atom_site_fract_z
Si Si1 0.438184 0.784257 0.184790
Si Si2 0.635670 0.028307 0.175323
Si Si3 0.057875 0.338022 0.336471
Si Si4 0.849008 0.751529 0.574181
Si Si5 0.563045 0.458762 0.822050
Si Si6 0.343266 0.516684 0.425028
Si Si7 0.222883 0.559180 0.077223
O O1 0.383374 0.852988 0.165601
O O2 0.491606 0.830896 0.142639
O O3 0.444090 0.794078 0.262983
O O4 0.431535 0.663902 0.169715
O O5 0.656513 0.000000 0.250000
O O6 0.581844 0.954242 0.158613
O O7 0.686876 0.016931 0.123743
O O8 0.096227 0.261411 0.379560
O O9 0.870512 0.727419 0.500000
O O10 0.797717 0.674869 0.593357
O O11 0.822967 0.864977 0.580129
O O12 0.500000 0.500000 0.836967
O O13 0.582702 0.500000 0.750000
O O14 0.603929 0.504131 0.877219
O O15 0.362507 0.489323 0.500000
O O16 0.289310 0.447444 0.403706
O O17 0.213863 0.528349 0.000000
#
# Coordination Sequence:
#
# PCOD8293040 Si02
#       7
#    16  16  16  16  16  16  16
#     4  10  18  30  51  75 101 133 165 204 251 290
#     4   9  18  31  51  78 103 129 165 207 246 292
#     4   9  16  31  51  74 103 132 165 199 243 302
#     4   9  17  32  53  72  96 133 169 203 246 294
#     4  11  22  36  53  75 103 133 167 205 247 295
#     4  10  21  36  54  75  99 131 170 207 246 295
#     4   9  19  35  53  74 101 132 166 205 249 296
#
# _framework density 18.253374999999998
#
# number of rings (size 3 to 8) (size 9 to 14) (size 15 to 20)
#    0.000    2.429    0.000    3.857    0.000    3.714 
#    0.000    3.571    0.000   10.286    0.000    0.000 
#    0.000    0.000    0.000    0.000    0.000    0.000 
#
# Total GULP energy -694134.891334 kJ/mol
# GULP energy per Si atom -12395.265917 kJ/mol
# Density = 1.821183 g / cm^3
# Si number density = 18.253375 Si / 1000 Ang^3
#
#
#
# Elastic Constant Matrix: (Units=GPa)
#
#
# Indices 1 2 3 4 5 6 
#
# 1 102.3551 37.2136 67.3809 0.0000 0.0000 0.0000
# 2 37.2136 94.6236 31.1228 0.0000 0.0000 0.0000
# 3 67.3809 31.1228 71.9053 0.0000 0.0000 0.0000
# 4 0.0000 0.0000 0.0000 21.5874 0.0000 0.0000
# 5 0.0000 0.0000 0.0000 0.0000 29.0467 0.0000
# 6 0.0000 0.0000 0.0000 0.0000 0.0000 21.7005
#
#
#
# Elastic Compliance Matrix: (Units=1/GPa)
#
#
# Indices 1 2 3 4 5 6 
#
# 1 0.026031 -0.002582 -0.023276 0.000000 0.000000 0.000000
# 2 -0.002582 0.012579 -0.003025 0.000000 0.000000 0.000000
# 3 -0.023276 -0.003025 0.037028 0.000000 0.000000 0.000000
# 4 0.000000 0.000000 0.000000 0.046323 0.000000 0.000000
# 5 0.000000 0.000000 0.000000 0.000000 0.034427 0.000000
# 6 0.000000 0.000000 0.000000 0.000000 0.000000 0.046082
#
#
# Mechanical properties :
#
#
# Convention : Reuss Voigt Hill
#
# Bulk Modulus (GPa) = 55.95269 60.03539 57.99404
# Shear Modulus (GPa) = 18.78343 23.34471 21.06407
#
# Velocity S-wave (km/s) = 3.21134 3.58009 3.40072
# Velocity P-wave (km/s) = 6.66860 7.07466 6.87463
#
# Compressibility (1/GPa) = 0.01787224
#
# Stress axis : x y z
#
# Youngs Moduli (GPa) = 38.41553 79.50049 27.00687
#
# Poissons Ratio (x) = 0.20526 0.62860
# Poissons Ratio (y) = 0.09918 0.08169
# Poissons Ratio (z) = 0.89415 0.24048
#
# Static dielectric constant tensor:
#      x y z
#    x 3.356130 0.000000 0.000000 
#    y 0.000000 3.474630 0.000000 
#    z 0.000000 0.000000 3.331940 
# 
# 
# High freq. dielectric constant tensor:
#      x y z
#    x 1.697360 0.000000 0.000000 
#    y 0.000000 1.713270 0.000000 
#    z 0.000000 0.000000 1.696520 
# 
# From -- ./inp_files/40320.got.cif
#   From: 2010.03.12/outbox.cif.g09.slc.cpg/sg72_21_cif.got.tgz:40320.got - 2010.04.16 14:54:00.
