data_PCOD8293685
_publ_section_title
;
Structure prediction by ZEFSAII (Michael W. Deem and Ramdas Pophale) SiO2 
 PCOD8293685
Probable space group: I B A M
;
_chemical_formula_sum "Si O2"
_cell_formula_units_Z 96
_cell_length_a 20.217455
_cell_length_b 13.996289
_cell_length_c 16.309574
_cell_angle_alpha 90.000000
_cell_angle_beta 90.000000
_cell_angle_gamma 90.000000
_cell_volume 4615.109440
_symmetry_space_group_name_H-M "I B A M"
_symmetry_group_IT_number 72
_symmetry_cell_setting 'orthorhombic'
loop_
_space_group_symop_operation_xyz
x,y,z
-x,-y,z
x,-y,1/2-z
-x,y,1/2-z
-x,-y,-z
x,y,-z
-x,y,1/2+z
x,-y,1/2+z
1/2+x,1/2+y,1/2+z
1/2-x,1/2-y,1/2+z
1/2+x,1/2-y,-z
1/2-x,1/2+y,-z
1/2-x,1/2-y,1/2-z
1/2+x,1/2+y,1/2-z
1/2-x,1/2+y,z
1/2+x,1/2-y,z
loop_
_atom_site_type_symbol
_atom_site_label
_atom_site_fract_x
_atom_site_fract_y
_atom_site_fract_z
Si Si1 0.497119 0.249184 0.093894
Si Si2 0.853816 0.772962 0.902118
Si Si3 0.064122 0.436678 0.408386
Si Si4 0.179205 0.436716 0.093973
Si Si5 0.564250 0.447555 0.406289
Si Si6 0.694804 0.470934 0.840070
O O1 0.569710 0.274644 0.129268
O O2 0.458834 0.160928 0.138051
O O3 0.446244 0.335416 0.101508
O O4 0.510432 0.219498 0.000000
O O5 0.822148 0.672238 0.872053
O O6 0.813934 0.857709 0.856055
O O7 0.848184 0.790401 0.000000
O O8 0.088914 0.409980 0.500000
O O9 0.123919 0.494098 0.363093
O O10 0.000000 0.500000 0.411685
O O11 0.250701 0.484936 0.099485
O O12 0.157639 0.426413 0.000000
O O13 0.500000 0.500000 0.370664
O O14 0.576443 0.480934 0.500000
O O15 0.626101 0.475375 0.352319
O O16 0.719975 0.500000 0.750000
#
# Coordination Sequence:
#
# PCOD8293685 Si02
#       6
#    16  16  16  16  16  16
#     4   9  16  29  56  91 119 144 180 243 306 349
#     4  10  19  37  63  88 116 153 197 247 306 351
#     4   9  15  28  55  92 120 139 180 241 301 350
#     4  10  21  37  62  90 118 154 199 249 298 358
#     4  10  19  35  60  85 110 145 199 253 294 347
#     4  12  26  40  56  82 125 164 198 240 294 366
#
# _framework density 20.80124
#
# number of rings (size 3 to 8) (size 9 to 14) (size 15 to 20)
#    0.000    2.000    3.333    1.500    0.000    2.333 
#    0.000    3.333    0.000    0.500    0.000    0.000 
#    0.000    0.000    0.000    0.000    0.000    0.000 
#
# Total GULP energy -594917.566418 kJ/mol
# GULP energy per Si atom -12394.115967 kJ/mol
# Density = 2.075390 g / cm^3
# Si number density = 20.801240 Si / 1000 Ang^3
#
#
#
# Elastic Constant Matrix: (Units=GPa)
#
#
# Indices 1 2 3 4 5 6 
#
# 1 110.7730 59.2611 4.8362 0.0000 0.0000 0.0000
# 2 59.2611 171.1060 18.4822 0.0000 0.0000 0.0000
# 3 4.8362 18.4822 25.5166 0.0000 0.0000 0.0000
# 4 0.0000 0.0000 0.0000 10.7068 0.0000 0.0000
# 5 0.0000 0.0000 0.0000 0.0000 4.1161 0.0000
# 6 0.0000 0.0000 0.0000 0.0000 0.0000 40.5751
#
#
#
# Elastic Compliance Matrix: (Units=1/GPa)
#
#
# Indices 1 2 3 4 5 6 
#
# 1 0.011093 -0.003922 0.000738 0.000000 0.000000 0.000000
# 2 -0.003922 0.007727 -0.004853 0.000000 0.000000 0.000000
# 3 0.000738 -0.004853 0.042566 0.000000 0.000000 0.000000
# 4 0.000000 0.000000 0.000000 0.093399 0.000000 0.000000
# 5 0.000000 0.000000 0.000000 0.000000 0.242948 0.000000
# 6 0.000000 0.000000 0.000000 0.000000 0.000000 0.024646
#
#
# Mechanical properties :
#
#
# Convention : Reuss Voigt Hill
#
# Bulk Modulus (GPa) = 22.06941 52.50607 37.28774
# Shear Modulus (GPa) = 11.02399 26.06734 18.54566
#
# Velocity S-wave (km/s) = 2.30460 3.54384 2.98915
# Velocity P-wave (km/s) = 4.20883 6.48396 5.46608
#
# Compressibility (1/GPa) = 0.04531159
#
# Stress axis : x y z
#
# Youngs Moduli (GPa) = 90.14431 129.41872 23.49315
#
# Poissons Ratio (x) = 0.50755 -0.01734
# Poissons Ratio (y) = 0.35353 0.11402
# Poissons Ratio (z) = -0.06654 0.62812
#
# Static dielectric constant tensor:
#      x y z
#    x 3.672560 0.000000 0.000000 
#    y 0.000000 4.087460 0.000000 
#    z 0.000000 0.000000 3.195200 
# 
# 
# High freq. dielectric constant tensor:
#      x y z
#    x 1.813860 0.000000 0.000000 
#    y 0.000000 1.836790 0.000000 
#    z 0.000000 0.000000 1.749240 
# 
# From -- ./inp_files/24132.got.cif
#   From: 2010.03.12/outbox.cif.g09.slc.cpg/sg72_13_cif.got.tgz:24132.got - 2010.04.16 14:54:00.
