data_PCOD8293078
_publ_section_title
;
Structure prediction by ZEFSAII (Michael W. Deem and Ramdas Pophale) SiO2 
 PCOD8293078
Probable space group: I B A M
;
_chemical_formula_sum "Si O2"
_cell_formula_units_Z 80
_cell_length_a 27.418608
_cell_length_b 20.099176
_cell_length_c 8.853899
_cell_angle_alpha 90.000000
_cell_angle_beta 90.000000
_cell_angle_gamma 90.000000
_cell_volume 4879.307842
_symmetry_space_group_name_H-M "I B A M"
_symmetry_group_IT_number 72
_symmetry_cell_setting 'orthorhombic'
loop_
_space_group_symop_operation_xyz
x,y,z
-x,-y,z
x,-y,1/2-z
-x,y,1/2-z
-x,-y,-z
x,y,-z
-x,y,1/2+z
x,-y,1/2+z
1/2+x,1/2+y,1/2+z
1/2-x,1/2-y,1/2+z
1/2+x,1/2-y,-z
1/2-x,1/2+y,-z
1/2-x,1/2-y,1/2-z
1/2+x,1/2+y,1/2-z
1/2-x,1/2+y,z
1/2+x,1/2-y,z
loop_
_atom_site_type_symbol
_atom_site_label
_atom_site_fract_x
_atom_site_fract_y
_atom_site_fract_z
Si Si1 0.328370 0.432133 0.821352
Si Si2 0.643406 0.835206 0.829230
Si Si3 0.885947 0.194740 0.829174
Si Si4 0.217039 0.568182 0.678270
Si Si5 0.551526 0.793589 0.678469
O O1 0.349087 0.500000 0.750000
O O2 0.360939 0.370984 0.760103
O O3 0.272742 0.420390 0.769738
O O4 0.331846 0.437116 0.000000
O O5 0.653664 0.755349 0.830193
O O6 0.686290 0.870134 0.738457
O O7 0.591186 0.846269 0.745078
O O8 0.640560 0.863212 0.000000
O O9 0.932177 0.218297 0.727783
O O10 0.904440 0.181465 0.000000
O O11 0.196786 0.500000 0.750000
O O12 0.211910 0.563660 0.500000
O O13 0.500000 0.811953 0.750000
O O14 0.548641 0.799414 0.500000
#
# Coordination Sequence:
#
# PCOD8293078 Si02
#       5
#    16  16  16  16  16
#     4   9  18  32  48  69  99 133 166 198 236 283
#     4   9  18  32  49  71  97 126 160 200 241 281
#     4   8  17  32  48  70  98 127 159 199 241 281
#     4  10  19  31  48  70  98 133 167 198 236 282
#     4  10  18  31  51  74  96 122 156 195 243 292
#
# _framework density 16.395769000000001
#
# number of rings (size 3 to 8) (size 9 to 14) (size 15 to 20)
#    1.200    1.600    0.000    2.400    0.000    2.400 
#    0.000    0.000    0.000    1.200    0.000    8.400 
#    0.000    0.000    0.000    0.000    0.000    0.000 
#
# Total GULP energy -495635.430778 kJ/mol
# GULP energy per Si atom -12390.885769 kJ/mol
# Density = 1.635845 g / cm^3
# Si number density = 16.395769 Si / 1000 Ang^3
#
#
#
# Elastic Constant Matrix: (Units=GPa)
#
#
# Indices 1 2 3 4 5 6 
#
# 1 22.7252 -8.6540 10.0258 0.0000 0.0000 0.0000
# 2 -8.6540 29.2433 4.0742 0.0000 0.0000 0.0000
# 3 10.0258 4.0742 78.3806 0.0000 0.0000 0.0000
# 4 0.0000 0.0000 0.0000 27.7776 0.0000 0.0000
# 5 0.0000 0.0000 0.0000 0.0000 24.6718 0.0000
# 6 0.0000 0.0000 0.0000 0.0000 0.0000 8.3873
#
#
#
# Elastic Compliance Matrix: (Units=1/GPa)
#
#
# Indices 1 2 3 4 5 6 
#
# 1 0.053929 0.017044 -0.007784 0.000000 0.000000 0.000000
# 2 0.017044 0.039832 -0.004251 0.000000 0.000000 0.000000
# 3 -0.007784 -0.004251 0.013975 0.000000 0.000000 0.000000
# 4 0.000000 0.000000 0.000000 0.036000 0.000000 0.000000
# 5 0.000000 0.000000 0.000000 0.000000 0.040532 0.000000
# 6 0.000000 0.000000 0.000000 0.000000 0.000000 0.119229
#
#
# Mechanical properties :
#
#
# Convention : Reuss Voigt Hill
#
# Bulk Modulus (GPa) = 8.49233 15.69345 12.09289
# Shear Modulus (GPa) = 15.02724 20.49420 17.76072
#
# Velocity S-wave (km/s) = 3.03071 3.53933 3.29485
# Velocity P-wave (km/s) = 4.17586 5.12785 4.67614
#
# Compressibility (1/GPa) = 0.11775334
#
# Stress axis : x y z
#
# Youngs Moduli (GPa) = 18.54305 25.10560 71.55701
#
# Poissons Ratio (x) = -0.42789 0.55700
# Poissons Ratio (y) = -0.31604 0.30416
# Poissons Ratio (z) = 0.14434 0.10671
#
# Static dielectric constant tensor:
#      x y z
#    x 2.917370 0.000000 0.000000 
#    y 0.000000 2.976660 0.000000 
#    z 0.000000 0.000000 3.080100 
# 
# 
# High freq. dielectric constant tensor:
#      x y z
#    x 1.608710 0.000000 0.000000 
#    y 0.000000 1.611480 0.000000 
#    z 0.000000 0.000000 1.640300 
# 
# From -- ./inp_files/7916.got.cif
#   From: 2010.03.12/outbox.cif.g09.slc.cpg/sg72_4_cif.got.tgz:7916.got - 2010.04.16 14:54:00.
