data_PCOD8293295
_publ_section_title
;
Structure prediction by ZEFSAII (Michael W. Deem and Ramdas Pophale) SiO2 
 PCOD8293295
Probable space group: I B A M
;
_chemical_formula_sum "Si O2"
_cell_formula_units_Z 88
_cell_length_a 18.895481
_cell_length_b 27.660110
_cell_length_c 9.557482
_cell_angle_alpha 90.000000
_cell_angle_beta 90.000000
_cell_angle_gamma 90.000000
_cell_volume 4995.228318
_symmetry_space_group_name_H-M "I B A M"
_symmetry_group_IT_number 72
_symmetry_cell_setting 'orthorhombic'
loop_
_space_group_symop_operation_xyz
x,y,z
-x,-y,z
x,-y,1/2-z
-x,y,1/2-z
-x,-y,-z
x,y,-z
-x,y,1/2+z
x,-y,1/2+z
1/2+x,1/2+y,1/2+z
1/2-x,1/2-y,1/2+z
1/2+x,1/2-y,-z
1/2-x,1/2+y,-z
1/2-x,1/2-y,1/2-z
1/2+x,1/2+y,1/2-z
1/2-x,1/2+y,z
1/2+x,1/2-y,z
loop_
_atom_site_type_symbol
_atom_site_label
_atom_site_fract_x
_atom_site_fract_y
_atom_site_fract_z
Si Si1 0.500000 0.875635 0.250000
Si Si2 0.768583 0.135534 0.158615
Si Si3 0.181477 0.763048 0.161448
Si Si4 0.093551 0.458412 0.346731
Si Si5 0.256260 0.453416 0.665425
Si Si6 0.123460 0.688031 0.343407
O O1 0.547826 0.909599 0.152033
O O2 0.448661 0.842445 0.157927
O O3 0.826617 0.178799 0.169842
O O4 0.792591 0.094025 0.267159
O O5 0.690284 0.154794 0.198298
O O6 0.767530 0.114852 0.000000
O O7 0.250000 0.750000 0.250000
O O8 0.117469 0.733415 0.235154
O O9 0.188625 0.746431 0.000000
O O10 0.060254 0.500000 0.250000
O O11 0.093135 0.481301 0.500000
O O12 0.173404 0.446711 0.301634
O O13 0.285145 0.500000 0.750000
O O14 0.273460 0.457362 0.500000
O O15 0.134846 0.708331 0.500000
#
# Coordination Sequence:
#
# PCOD8293295 Si02
#       6
#     8  16  16  16  16  16
#     4  12  21  34  48  66  90 122 161 202 238 278
#     4   9  17  32  49  66  86 114 148 189 234 280
#     4   9  18  32  50  69  89 112 145 190 236 283
#     4  10  22  35  46  61  83 118 161 201 239 276
#     4  10  19  31  46  66  89 118 152 192 233 276
#     4  10  21  33  47  67  90 118 154 196 239 281
#
# _framework density 17.616813
#
# number of rings (size 3 to 8) (size 9 to 14) (size 15 to 20)
#    0.000    2.182    1.818    3.000    0.000    8.000 
#    0.000    0.000    0.000    0.000    0.000    0.000 
#    0.000    0.000    0.000    0.818    0.000   12.364 
#
# Total GULP energy -545315.429804 kJ/mol
# GULP energy per Si atom -12393.532496 kJ/mol
# Density = 1.757672 g / cm^3
# Si number density = 17.616813 Si / 1000 Ang^3
#
#
#
# Elastic Constant Matrix: (Units=GPa)
#
#
# Indices 1 2 3 4 5 6 
#
# 1 18.5779 23.0220 11.4138 0.0000 0.0000 0.0000
# 2 23.0220 119.6899 73.6750 0.0000 0.0000 0.0000
# 3 11.4138 73.6750 128.7555 0.0000 0.0000 0.0000
# 4 0.0000 0.0000 0.0000 35.7362 0.0000 0.0000
# 5 0.0000 0.0000 0.0000 0.0000 8.7228 0.0000
# 6 0.0000 0.0000 0.0000 0.0000 0.0000 27.0314
#
#
#
# Elastic Compliance Matrix: (Units=1/GPa)
#
#
# Indices 1 2 3 4 5 6 
#
# 1 0.071131 -0.015129 0.002352 0.000000 0.000000 0.000000
# 2 -0.015129 0.016116 -0.007880 0.000000 0.000000 0.000000
# 3 0.002352 -0.007880 0.012067 0.000000 0.000000 0.000000
# 4 0.000000 0.000000 0.000000 0.027983 0.000000 0.000000
# 5 0.000000 0.000000 0.000000 0.000000 0.114641 0.000000
# 6 0.000000 0.000000 0.000000 0.000000 0.000000 0.036994
#
#
# Mechanical properties :
#
#
# Convention : Reuss Voigt Hill
#
# Bulk Modulus (GPa) = 17.24196 53.69387 35.46791
# Shear Modulus (GPa) = 14.72399 24.89224 19.80812
#
# Velocity S-wave (km/s) = 2.89414 3.76304 3.35683
# Velocity P-wave (km/s) = 4.58002 7.03033 5.93305
#
# Compressibility (1/GPa) = 0.05799804
#
# Stress axis : x y z
#
# Youngs Moduli (GPa) = 14.05853 62.05088 82.86751
#
# Poissons Ratio (x) = 0.93879 -0.19487
# Poissons Ratio (y) = 0.21270 0.65303
# Poissons Ratio (z) = -0.03306 0.48899
#
# Static dielectric constant tensor:
#      x y z
#    x 2.867270 0.000000 0.000000 
#    y 0.000000 3.526970 0.000000 
#    z 0.000000 0.000000 3.402380 
# 
# 
# High freq. dielectric constant tensor:
#      x y z
#    x 1.607550 0.000000 0.000000 
#    y 0.000000 1.682370 0.000000 
#    z 0.000000 0.000000 1.695040 
# 
# From -- ./inp_files/6290.got.cif
#   From: 2010.03.12/outbox.cif.g09.slc.cpg/sg72_4_cif.got.tgz:6290.got - 2010.04.16 14:54:00.
