data_PCOD8293598
_publ_section_title
;
Structure prediction by ZEFSAII (Michael W. Deem and Ramdas Pophale) SiO2 
 PCOD8293598
Probable space group: I B A M
;
_chemical_formula_sum "Si O2"
_cell_formula_units_Z 112
_cell_length_a 10.628907
_cell_length_b 23.075826
_cell_length_c 24.832273
_cell_angle_alpha 90.000000
_cell_angle_beta 90.000000
_cell_angle_gamma 90.000000
_cell_volume 6090.631676
_symmetry_space_group_name_H-M "I B A M"
_symmetry_group_IT_number 72
_symmetry_cell_setting 'orthorhombic'
loop_
_space_group_symop_operation_xyz
x,y,z
-x,-y,z
x,-y,1/2-z
-x,y,1/2-z
-x,-y,-z
x,y,-z
-x,y,1/2+z
x,-y,1/2+z
1/2+x,1/2+y,1/2+z
1/2-x,1/2-y,1/2+z
1/2+x,1/2-y,-z
1/2-x,1/2+y,-z
1/2-x,1/2-y,1/2-z
1/2+x,1/2+y,1/2-z
1/2-x,1/2+y,z
1/2+x,1/2-y,z
loop_
_atom_site_type_symbol
_atom_site_label
_atom_site_fract_x
_atom_site_fract_y
_atom_site_fract_z
Si Si1 0.004525 0.931499 0.122658
Si Si2 0.070945 0.163419 0.801875
Si Si3 0.315601 0.809321 0.737661
Si Si4 0.749916 0.073331 0.562807
Si Si5 0.536582 0.787498 0.337353
Si Si6 0.006704 0.637024 0.437186
Si Si7 0.755598 0.442127 0.437998
O O1 0.002286 0.892886 0.176400
O O2 0.881279 0.908734 0.090564
O O3 0.134487 0.916035 0.092685
O O4 0.000000 0.000000 0.135294
O O5 0.211425 0.144288 0.782754
O O6 0.073691 0.219367 0.841532
O O7 0.000000 0.188058 0.750000
O O8 0.250000 0.750000 0.750000
O O9 0.398920 0.797580 0.685488
O O10 0.380354 0.826075 0.794713
O O11 0.774190 0.079166 0.500000
O O12 0.630167 0.112207 0.579722
O O13 0.717966 0.007834 0.579521
O O14 0.542124 0.809462 0.398816
O O15 0.007426 0.656330 0.500000
O O16 0.114719 0.590124 0.425900
O O17 0.717579 0.438218 0.500000
#
# Coordination Sequence:
#
# PCOD8293598 Si02
#       7
#    16  16  16  16  16  16  16
#     4  10  21  34  53  80 106 139 176 227 277 312
#     4  11  21  34  55  75 101 135 181 223 266 318
#     4   9  17  34  54  79  93 134 189 225 251 300
#     4   9  17  34  55  77 106 143 184 217 254 320
#     4  10  19  34  56  78 105 138 182 224 259 323
#     4  10  20  32  53  84 115 142 171 222 277 319
#     4   9  18  33  54  79 107 145 183 213 260 326
#
# _framework density 18.388897
#
# number of rings (size 3 to 8) (size 9 to 14) (size 15 to 20)
#    0.000    2.286    2.857    1.714    2.000    3.714 
#    0.000    1.429    0.000    6.857    0.000    2.000 
#    0.000    0.000    0.000    0.000    0.000    0.000 
#
# Total GULP energy -693766.292283 kJ/mol
# GULP energy per Si atom -12388.683791 kJ/mol
# Density = 1.834704 g / cm^3
# Si number density = 18.388897 Si / 1000 Ang^3
#
#
#
# Elastic Constant Matrix: (Units=GPa)
#
#
# Indices 1 2 3 4 5 6 
#
# 1 108.1872 24.0362 32.4599 0.0000 0.0000 0.0000
# 2 24.0362 59.0040 39.1043 0.0000 0.0000 0.0000
# 3 32.4599 39.1043 80.2677 0.0000 0.0000 0.0000
# 4 0.0000 0.0000 0.0000 21.0953 0.0000 0.0000
# 5 0.0000 0.0000 0.0000 0.0000 21.2254 0.0000
# 6 0.0000 0.0000 0.0000 0.0000 0.0000 23.1727
#
#
#
# Elastic Compliance Matrix: (Units=1/GPa)
#
#
# Indices 1 2 3 4 5 6 
#
# 1 0.010710 -0.002204 -0.003257 0.000000 0.000000 0.000000
# 2 -0.002204 0.025483 -0.011523 0.000000 0.000000 0.000000
# 3 -0.003257 -0.011523 0.019389 0.000000 0.000000 0.000000
# 4 0.000000 0.000000 0.000000 0.047404 0.000000 0.000000
# 5 0.000000 0.000000 0.000000 0.000000 0.047113 0.000000
# 6 0.000000 0.000000 0.000000 0.000000 0.000000 0.043154
#
#
# Mechanical properties :
#
#
# Convention : Reuss Voigt Hill
#
# Bulk Modulus (GPa) = 46.26857 48.73996 47.50427
# Shear Modulus (GPa) = 21.32853 23.22257 22.27555
#
# Velocity S-wave (km/s) = 3.40936 3.55753 3.48423
# Velocity P-wave (km/s) = 6.38076 6.59070 6.48658
#
# Compressibility (1/GPa) = 0.02161294
#
# Stress axis : x y z
#
# Youngs Moduli (GPa) = 93.36830 39.24213 51.57469
#
# Poissons Ratio (x) = 0.08650 0.16800
# Poissons Ratio (y) = 0.20581 0.59430
# Poissons Ratio (z) = 0.30413 0.45219
#
# Static dielectric constant tensor:
#      x y z
#    x 3.223460 0.000000 0.000000 
#    y 0.000000 3.072180 0.000000 
#    z 0.000000 0.000000 3.357550 
# 
# 
# High freq. dielectric constant tensor:
#      x y z
#    x 1.737030 0.000000 0.000000 
#    y 0.000000 1.680000 0.000000 
#    z 0.000000 0.000000 1.702280 
# 
# From -- ./inp_files/48325.got.cif
#   From: 2010.03.12/outbox.cif.g09.slc.cpg/sg72_25_cif.got.tgz:48325.got - 2010.04.16 14:54:00.
