data_PCOD8293084
_publ_section_title
;
Structure prediction by ZEFSAII (Michael W. Deem and Ramdas Pophale) SiO2 
 PCOD8293084
Probable space group: I B A M
;
_chemical_formula_sum "Si O2"
_cell_formula_units_Z 96
_cell_length_a 24.670340
_cell_length_b 7.901154
_cell_length_c 20.541408
_cell_angle_alpha 90.000000
_cell_angle_beta 90.000000
_cell_angle_gamma 90.000000
_cell_volume 4004.016609
_symmetry_space_group_name_H-M "I B A M"
_symmetry_group_IT_number 72
_symmetry_cell_setting 'orthorhombic'
loop_
_space_group_symop_operation_xyz
x,y,z
-x,-y,z
x,-y,1/2-z
-x,y,1/2-z
-x,-y,-z
x,y,-z
-x,y,1/2+z
x,-y,1/2+z
1/2+x,1/2+y,1/2+z
1/2-x,1/2-y,1/2+z
1/2+x,1/2-y,-z
1/2-x,1/2+y,-z
1/2-x,1/2-y,1/2-z
1/2+x,1/2+y,1/2-z
1/2-x,1/2+y,z
1/2+x,1/2-y,z
loop_
_atom_site_type_symbol
_atom_site_label
_atom_site_fract_x
_atom_site_fract_y
_atom_site_fract_z
Si Si1 0.771564 0.597143 0.000000
Si Si2 0.380933 0.877417 0.378438
Si Si3 0.078099 0.742883 0.576965
Si Si4 0.723111 0.970306 0.678374
Si Si5 0.989029 0.302440 0.178851
Si Si6 0.689383 0.335059 0.885939
Si Si7 0.166355 0.753990 0.000000
O O1 0.792518 0.698058 0.938677
O O2 0.793209 0.407367 0.000000
O O3 0.705214 0.579521 0.000000
O O4 0.327026 0.902962 0.335935
O O5 0.425460 0.781257 0.335295
O O6 0.370368 0.745589 0.436489
O O7 0.402347 0.051803 0.410063
O O8 0.064647 0.766513 0.500000
O O9 0.125869 0.873366 0.600170
O O10 0.025438 0.782848 0.621612
O O11 0.771957 0.001038 0.624304
O O12 0.746411 0.000000 0.750000
O O13 0.700882 0.777836 0.678611
O O14 0.000000 0.500000 0.181681
O O15 0.000000 0.219782 0.250000
#
# Coordination Sequence:
#
# PCOD8293084 Si02
#       7
#     8  16  16  16  16  16   8
#     4  12  18  36  51  80 111 148 184 223 289 329
#     4  10  19  31  50  75 108 146 182 228 279 334
#     4  10  18  31  51  76 108 145 183 231 280 339
#     4  11  23  35  53  79 116 153 183 228 275 341
#     4   9  20  31  47  73 109 151 181 225 294 344
#     4  11  20  36  54  80 114 147 186 227 281 335
#     4  12  20  34  56  79 118 145 186 233 283 335
#
# _framework density 23.975925
#
# number of rings (size 3 to 8) (size 9 to 14) (size 15 to 20)
#    0.000    1.500    6.667    0.500    8.167    1.000 
#    0.000    0.000    0.000    0.000    0.000    1.167 
#    0.000    4.000    0.000    0.000    0.000    0.000 
#
# Total GULP energy -594873.075430 kJ/mol
# GULP energy per Si atom -12393.189071 kJ/mol
# Density = 2.392135 g / cm^3
# Si number density = 23.975925 Si / 1000 Ang^3
#
#
#
# Elastic Constant Matrix: (Units=GPa)
#
#
# Indices 1 2 3 4 5 6 
#
# 1 159.5329 9.4879 61.7774 0.0000 0.0000 0.0000
# 2 9.4879 24.3711 9.4157 0.0000 0.0000 0.0000
# 3 61.7774 9.4157 139.8068 0.0000 0.0000 0.0000
# 4 0.0000 0.0000 0.0000 8.2556 0.0000 0.0000
# 5 0.0000 0.0000 0.0000 0.0000 42.2043 0.0000
# 6 0.0000 0.0000 0.0000 0.0000 0.0000 21.4207
#
#
#
# Elastic Compliance Matrix: (Units=1/GPa)
#
#
# Indices 1 2 3 4 5 6 
#
# 1 0.007631 -0.001713 -0.003257 0.000000 0.000000 0.000000
# 2 -0.001713 0.042513 -0.002106 0.000000 0.000000 0.000000
# 3 -0.003257 -0.002106 0.008734 0.000000 0.000000 0.000000
# 4 0.000000 0.000000 0.000000 0.121130 0.000000 0.000000
# 5 0.000000 0.000000 0.000000 0.000000 0.023694 0.000000
# 6 0.000000 0.000000 0.000000 0.000000 0.000000 0.046684
#
#
# Mechanical properties :
#
#
# Convention : Reuss Voigt Hill
#
# Bulk Modulus (GPa) = 22.35827 53.89698 38.12763
# Shear Modulus (GPa) = 17.89252 30.57810 24.23531
#
# Velocity S-wave (km/s) = 2.73476 3.57510 3.18279
# Velocity P-wave (km/s) = 4.39516 6.29049 5.42622
#
# Compressibility (1/GPa) = 0.04472618
#
# Stress axis : x y z
#
# Youngs Moduli (GPa) = 131.03931 23.52231 114.49941
#
# Poissons Ratio (x) = 0.04029 0.37290
# Poissons Ratio (y) = 0.22443 0.24118
# Poissons Ratio (z) = 0.42676 0.04955
#
# Static dielectric constant tensor:
#      x y z
#    x 4.683250 0.000000 0.000000 
#    y 0.000000 3.907850 0.000000 
#    z 0.000000 0.000000 4.939980 
# 
# 
# High freq. dielectric constant tensor:
#      x y z
#    x 1.947390 0.000000 0.000000 
#    y 0.000000 1.907340 0.000000 
#    z 0.000000 0.000000 1.963400 
# 
# From -- ./inp_files/40304.got.cif
#   From: 2010.03.12/outbox.cif.g09.slc.cpg/sg72_21_cif.got.tgz:40304.got - 2010.04.16 14:54:00.
