data_PCOD8293983
_publ_section_title
;
Structure prediction by ZEFSAII (Michael W. Deem and Ramdas Pophale) SiO2 
 PCOD8293983
Probable space group: I B A M
;
_chemical_formula_sum "Si O2"
_cell_formula_units_Z 80
_cell_length_a 32.606200
_cell_length_b 4.904381
_cell_length_c 25.085808
_cell_angle_alpha 90.000000
_cell_angle_beta 90.000000
_cell_angle_gamma 90.000000
_cell_volume 4011.552528
_symmetry_space_group_name_H-M "I B A M"
_symmetry_group_IT_number 72
_symmetry_cell_setting 'orthorhombic'
loop_
_space_group_symop_operation_xyz
x,y,z
-x,-y,z
x,-y,1/2-z
-x,y,1/2-z
-x,-y,-z
x,y,-z
-x,y,1/2+z
x,-y,1/2+z
1/2+x,1/2+y,1/2+z
1/2-x,1/2-y,1/2+z
1/2+x,1/2-y,-z
1/2-x,1/2+y,-z
1/2-x,1/2-y,1/2-z
1/2+x,1/2+y,1/2-z
1/2-x,1/2+y,z
1/2+x,1/2-y,z
loop_
_atom_site_type_symbol
_atom_site_label
_atom_site_fract_x
_atom_site_fract_y
_atom_site_fract_z
Si Si1 0.657027 0.348612 0.061756
Si Si2 0.722102 0.428712 0.641571
Si Si3 0.652122 0.265634 0.715315
Si Si4 0.611944 0.171629 0.394160
Si Si5 0.972365 0.243829 0.941179
O O1 0.697057 0.475488 0.089848
O O2 0.619815 0.549344 0.074106
O O3 0.642507 0.055203 0.082398
O O4 0.667670 0.324992 0.000000
O O5 0.761955 0.618521 0.642394
O O6 0.692264 0.425741 0.692703
O O7 0.629731 0.500000 0.750000
O O8 0.621051 0.183716 0.668579
O O9 0.663740 0.000000 0.750000
O O10 0.563528 0.141478 0.402645
O O11 0.000000 0.500000 0.950178
O O12 0.955689 0.151208 0.000000
O O13 0.000000 0.000000 0.915700
#
# Coordination Sequence:
#
# PCOD8293983 Si02
#       5
#    16  16  16  16  16
#     4  11  22  37  59  84 115 157 193 228 284 353
#     4  11  23  38  56  84 115 145 191 245 296 348
#     4  11  23  40  61  83 109 151 202 250 299 342
#     4  11  22  39  60  85 118 151 194 239 279 345
#     4  10  20  34  57  89 120 149 180 222 282 343
#
# _framework density 19.942404
#
# number of rings (size 3 to 8) (size 9 to 14) (size 15 to 20)
#    0.000    1.200    0.000    9.000    0.000    4.800 
#    0.000    0.000    0.000    3.600    0.000    0.000 
#    0.000    0.000    0.000    0.000    0.000    0.000 
#
# Total GULP energy -495696.933198 kJ/mol
# GULP energy per Si atom -12392.423330 kJ/mol
# Density = 1.989701 g / cm^3
# Si number density = 19.942404 Si / 1000 Ang^3
#
#
#
# Elastic Constant Matrix: (Units=GPa)
#
#
# Indices 1 2 3 4 5 6 
#
# 1 95.3757 6.6139 49.9037 0.0000 0.0000 0.0000
# 2 6.6139 67.9250 49.8589 0.0000 0.0000 0.0000
# 3 49.9037 49.8589 149.9002 0.0000 0.0000 0.0000
# 4 0.0000 0.0000 0.0000 36.6884 0.0000 0.0000
# 5 0.0000 0.0000 0.0000 0.0000 12.9348 0.0000
# 6 0.0000 0.0000 0.0000 0.0000 0.0000 21.4406
#
#
#
# Elastic Compliance Matrix: (Units=1/GPa)
#
#
# Indices 1 2 3 4 5 6 
#
# 1 0.013017 0.002532 -0.005176 0.000000 0.000000 0.000000
# 2 0.002532 0.019970 -0.007485 0.000000 0.000000 0.000000
# 3 -0.005176 -0.007485 0.010884 0.000000 0.000000 0.000000
# 4 0.000000 0.000000 0.000000 0.027257 0.000000 0.000000
# 5 0.000000 0.000000 0.000000 0.000000 0.077311 0.000000
# 6 0.000000 0.000000 0.000000 0.000000 0.000000 0.046641
#
#
# Mechanical properties :
#
#
# Convention : Reuss Voigt Hill
#
# Bulk Modulus (GPa) = 42.35000 58.43932 50.39466
# Shear Modulus (GPa) = 22.40058 28.00104 25.20081
#
# Velocity S-wave (km/s) = 3.35515 3.75119 3.55868
# Velocity P-wave (km/s) = 6.02425 6.93755 6.49697
#
# Compressibility (1/GPa) = 0.02361275
#
# Stress axis : x y z
#
# Youngs Moduli (GPa) = 76.82029 50.07539 91.87963
#
# Poissons Ratio (x) = -0.12677 0.47554
# Poissons Ratio (y) = -0.19448 0.68773
# Poissons Ratio (z) = 0.39760 0.37482
#
# Static dielectric constant tensor:
#      x y z
#    x 3.316270 0.000000 0.000000 
#    y 0.000000 3.764350 0.000000 
#    z 0.000000 0.000000 3.635650 
# 
# 
# High freq. dielectric constant tensor:
#      x y z
#    x 1.763680 0.000000 0.000000 
#    y 0.000000 1.802490 0.000000 
#    z 0.000000 0.000000 1.769320 
# 
# From -- ./inp_files/46106.got.cif
#   From: 2010.03.12/outbox.cif.g09.slc.cpg/sg72_24_cif.got.tgz:46106.got - 2010.04.16 14:54:00.
