data_PCOD8293433
_publ_section_title
;
Structure prediction by ZEFSAII (Michael W. Deem and Ramdas Pophale) SiO2 
 PCOD8293433
Probable space group: I B A M
;
_chemical_formula_sum "Si O2"
_cell_formula_units_Z 108
_cell_length_a 16.005531
_cell_length_b 11.822959
_cell_length_c 29.181347
_cell_angle_alpha 90.000000
_cell_angle_beta 90.000000
_cell_angle_gamma 90.000000
_cell_volume 5522.066156
_symmetry_space_group_name_H-M "I B A M"
_symmetry_group_IT_number 72
_symmetry_cell_setting 'orthorhombic'
loop_
_space_group_symop_operation_xyz
x,y,z
-x,-y,z
x,-y,1/2-z
-x,y,1/2-z
-x,-y,-z
x,y,-z
-x,y,1/2+z
x,-y,1/2+z
1/2+x,1/2+y,1/2+z
1/2-x,1/2-y,1/2+z
1/2+x,1/2-y,-z
1/2-x,1/2+y,-z
1/2-x,1/2-y,1/2-z
1/2+x,1/2+y,1/2-z
1/2-x,1/2+y,z
1/2+x,1/2-y,z
loop_
_atom_site_type_symbol
_atom_site_label
_atom_site_fract_x
_atom_site_fract_y
_atom_site_fract_z
Si Si1 0.719431 0.000000 0.250000
Si Si2 0.085326 0.749252 0.554108
Si Si3 0.302941 0.033611 0.449240
Si Si4 0.321894 0.569531 0.884663
Si Si5 0.000000 0.000000 0.750000
Si Si6 0.058832 0.395722 0.585283
Si Si7 0.137809 0.903475 0.190488
Si Si8 0.335516 0.851806 0.330970
O O1 0.776235 0.077723 0.217804
O O2 0.663148 0.081232 0.282446
O O3 0.085915 0.779881 0.500000
O O4 0.145736 0.644525 0.565211
O O5 0.117247 0.853501 0.584633
O O6 0.990552 0.717975 0.570116
O O7 0.267438 0.045794 0.500000
O O8 0.224163 0.022329 0.416304
O O9 0.359702 0.919334 0.446313
O O10 0.375995 0.495029 0.849739
O O11 0.254708 0.641609 0.855589
O O12 0.943002 0.085944 0.778148
O O13 0.089615 0.399872 0.637800
O O14 0.000000 0.500000 0.575728
O O15 0.141823 0.777859 0.172867
#
# Coordination Sequence:
#
# PCOD8293433 Si02
#       8
#     8  16  16  16   4  16  16  16
#     4   9  20  39  59  84 105 134 186 240 283 342
#     4  10  19  32  54  83 114 152 192 234 281 331
#     4   9  17  32  53  79 111 145 187 233 280 333
#     4  10  20  33  56  83 109 146 189 234 274 337
#     4  10  24  40  52  78 100 152 190 216 266 362
#     4   9  19  34  51  80 112 147 184 228 287 341
#     4  10  21  38  57  78 110 144 186 225 285 345
#     4  10  20  37  59  81 109 145 182 236 293 332
#
# _framework density 19.557896
#
# number of rings (size 3 to 8) (size 9 to 14) (size 15 to 20)
#    0.000    2.370    0.000    2.222    2.074    2.963 
#    2.667    0.000    0.000    3.556    0.000    0.000 
#    0.000    0.000    0.000    0.000    0.000    0.000 
#
# Total GULP energy -669362.201053 kJ/mol
# GULP energy per Si atom -12395.596316 kJ/mol
# Density = 1.951338 g / cm^3
# Si number density = 19.557896 Si / 1000 Ang^3
#
#
#
# Elastic Constant Matrix: (Units=GPa)
#
#
# Indices 1 2 3 4 5 6 
#
# 1 57.7885 21.5246 34.9788 0.0000 0.0000 0.0000
# 2 21.5246 78.3042 42.1875 0.0000 0.0000 0.0000
# 3 34.9788 42.1875 115.8930 0.0000 0.0000 0.0000
# 4 0.0000 0.0000 0.0000 34.2683 0.0000 0.0000
# 5 0.0000 0.0000 0.0000 0.0000 17.6011 0.0000
# 6 0.0000 0.0000 0.0000 0.0000 0.0000 20.3834
#
#
#
# Elastic Compliance Matrix: (Units=1/GPa)
#
#
# Indices 1 2 3 4 5 6 
#
# 1 0.021738 -0.003036 -0.005456 0.000000 0.000000 0.000000
# 2 -0.003036 0.016310 -0.005021 0.000000 0.000000 0.000000
# 3 -0.005456 -0.005021 0.012103 0.000000 0.000000 0.000000
# 4 0.000000 0.000000 0.000000 0.029181 0.000000 0.000000
# 5 0.000000 0.000000 0.000000 0.000000 0.056815 0.000000
# 6 0.000000 0.000000 0.000000 0.000000 0.000000 0.049060
#
#
# Mechanical properties :
#
#
# Convention : Reuss Voigt Hill
#
# Bulk Modulus (GPa) = 43.24201 49.92971 46.58586
# Shear Modulus (GPa) = 22.73341 24.67021 23.70181
#
# Velocity S-wave (km/s) = 3.41305 3.55546 3.48498
# Velocity P-wave (km/s) = 6.13918 6.51458 6.32966
#
# Compressibility (1/GPa) = 0.02312566
#
# Stress axis : x y z
#
# Youngs Moduli (GPa) = 46.00328 61.31054 82.62399
#
# Poissons Ratio (x) = 0.18614 0.45077
# Poissons Ratio (y) = 0.13967 0.41486
# Poissons Ratio (z) = 0.25098 0.30784
#
# Static dielectric constant tensor:
#      x y z
#    x 3.596790 0.000000 0.000000 
#    y 0.000000 3.282900 0.000000 
#    z 0.000000 0.000000 3.713060 
# 
# 
# High freq. dielectric constant tensor:
#      x y z
#    x 1.749350 0.000000 0.000000 
#    y 0.000000 1.748350 0.000000 
#    z 0.000000 0.000000 1.773630 
# 
# From -- ./inp_files/51821.got.cif
#   From: 2010.03.12/outbox.cif.g09.slc.cpg/sg72_26_cif.got.tgz:51821.got - 2010.04.16 14:54:00.
