data_PCOD8293413
_publ_section_title
;
Structure prediction by ZEFSAII (Michael W. Deem and Ramdas Pophale) SiO2 
 PCOD8293413
Probable space group: I B A M
;
_chemical_formula_sum "Si O2"
_cell_formula_units_Z 96
_cell_length_a 22.139137
_cell_length_b 12.427576
_cell_length_c 17.843540
_cell_angle_alpha 90.000000
_cell_angle_beta 90.000000
_cell_angle_gamma 90.000000
_cell_volume 4909.396789
_symmetry_space_group_name_H-M "I B A M"
_symmetry_group_IT_number 72
_symmetry_cell_setting 'orthorhombic'
loop_
_space_group_symop_operation_xyz
x,y,z
-x,-y,z
x,-y,1/2-z
-x,y,1/2-z
-x,-y,-z
x,y,-z
-x,y,1/2+z
x,-y,1/2+z
1/2+x,1/2+y,1/2+z
1/2-x,1/2-y,1/2+z
1/2+x,1/2-y,-z
1/2-x,1/2+y,-z
1/2-x,1/2-y,1/2-z
1/2+x,1/2+y,1/2-z
1/2-x,1/2+y,z
1/2+x,1/2-y,z
loop_
_atom_site_type_symbol
_atom_site_label
_atom_site_fract_x
_atom_site_fract_y
_atom_site_fract_z
Si Si1 0.867966 0.636261 0.413710
Si Si2 0.696272 0.919049 0.410744
Si Si3 0.597198 0.244362 0.088501
Si Si4 0.326705 0.630163 0.586368
Si Si5 0.009101 0.374255 0.334702
Si Si6 0.932146 0.019277 0.410621
O O1 0.888766 0.620478 0.500000
O O2 0.830771 0.533244 0.384945
O O3 0.827002 0.741503 0.404548
O O4 0.924347 0.655912 0.360486
O O5 0.698654 0.911755 0.500000
O O6 0.654815 0.821267 0.378851
O O7 0.763801 0.909783 0.376640
O O8 0.536380 0.184640 0.110543
O O9 0.594441 0.366673 0.118346
O O10 0.600916 0.244569 0.000000
O O11 0.326200 0.596132 0.500000
O O12 0.386075 0.571915 0.621279
O O13 0.000000 0.500000 0.342882
O O14 0.000000 0.334277 0.250000
O O15 0.935878 0.016214 0.500000
O O16 0.000000 0.000000 0.378313
#
# Coordination Sequence:
#
# PCOD8293413 Si02
#       6
#    16  16  16  16  16  16
#     4  10  19  33  55  80 110 141 177 221 266 317
#     4   9  18  29  46  78 108 137 171 213 260 308
#     4  10  19  32  53  77 106 137 175 219 262 314
#     4   9  18  30  49  79 114 141 171 215 266 316
#     4  11  22  35  52  78 106 141 176 222 273 317
#     4   9  17  29  47  74 105 137 171 211 260 309
#
# _framework density 19.554338000000001
#
# number of rings (size 3 to 8) (size 9 to 14) (size 15 to 20)
#    0.000    2.333    1.667    1.500    2.333    3.333 
#    0.000    0.000    0.000    5.500    4.333    0.000 
#    0.000    0.000    0.000    0.000    0.000    0.000 
#
# Total GULP energy -595050.544086 kJ/mol
# GULP energy per Si atom -12396.886335 kJ/mol
# Density = 1.950983 g / cm^3
# Si number density = 19.554338 Si / 1000 Ang^3
#
#
#
# Elastic Constant Matrix: (Units=GPa)
#
#
# Indices 1 2 3 4 5 6 
#
# 1 178.9531 75.5754 15.8800 0.0000 0.0000 0.0000
# 2 75.5754 134.2274 12.1229 0.0000 0.0000 0.0000
# 3 15.8800 12.1229 16.3851 0.0000 0.0000 0.0000
# 4 0.0000 0.0000 0.0000 7.4393 0.0000 0.0000
# 5 0.0000 0.0000 0.0000 0.0000 15.4432 0.0000
# 6 0.0000 0.0000 0.0000 0.0000 0.0000 79.9445
#
#
#
# Elastic Compliance Matrix: (Units=1/GPa)
#
#
# Indices 1 2 3 4 5 6 
#
# 1 0.007631 -0.003889 -0.004519 0.000000 0.000000 0.000000
# 2 -0.003889 0.009965 -0.003604 0.000000 0.000000 0.000000
# 3 -0.004519 -0.003604 0.068077 0.000000 0.000000 0.000000
# 4 0.000000 0.000000 0.000000 0.134421 0.000000 0.000000
# 5 0.000000 0.000000 0.000000 0.000000 0.064754 0.000000
# 6 0.000000 0.000000 0.000000 0.000000 0.000000 0.012509
#
#
# Mechanical properties :
#
#
# Convention : Reuss Voigt Hill
#
# Bulk Modulus (GPa) = 16.22054 59.63580 37.92817
# Shear Modulus (GPa) = 14.62286 35.63122 25.12704
#
# Velocity S-wave (km/s) = 2.73757 4.27331 3.58856
# Velocity P-wave (km/s) = 4.27849 7.41026 6.05052
#
# Compressibility (1/GPa) = 0.06165025
#
# Stress axis : x y z
#
# Youngs Moduli (GPa) = 131.03946 100.35149 14.68918
#
# Poissons Ratio (x) = 0.39022 0.06638
# Poissons Ratio (y) = 0.50956 0.05294
# Poissons Ratio (z) = 0.59217 0.36168
#
# Static dielectric constant tensor:
#      x y z
#    x 3.836260 0.000000 0.000000 
#    y 0.000000 3.784610 0.000000 
#    z 0.000000 0.000000 2.969330 
# 
# 
# High freq. dielectric constant tensor:
#      x y z
#    x 1.773420 0.000000 0.000000 
#    y 0.000000 1.776580 0.000000 
#    z 0.000000 0.000000 1.688570 
# 
# From -- ./inp_files/33282.got.cif
#   From: 2010.03.12/outbox.cif.g09.slc.cpg/sg72_17_cif.got.tgz:33282.got - 2010.04.16 14:54:00.
