data_PCOD8293944
_publ_section_title
;
Structure prediction by ZEFSAII (Michael W. Deem and Ramdas Pophale) SiO2 
 PCOD8293944
Probable space group: I B A M
;
_chemical_formula_sum "Si O2"
_cell_formula_units_Z 80
_cell_length_a 26.036790
_cell_length_b 16.764148
_cell_length_c 9.861285
_cell_angle_alpha 90.000000
_cell_angle_beta 90.000000
_cell_angle_gamma 90.000000
_cell_volume 4304.299049
_symmetry_space_group_name_H-M "I B A M"
_symmetry_group_IT_number 72
_symmetry_cell_setting 'orthorhombic'
loop_
_space_group_symop_operation_xyz
x,y,z
-x,-y,z
x,-y,1/2-z
-x,y,1/2-z
-x,-y,-z
x,y,-z
-x,y,1/2+z
x,-y,1/2+z
1/2+x,1/2+y,1/2+z
1/2-x,1/2-y,1/2+z
1/2+x,1/2-y,-z
1/2-x,1/2+y,-z
1/2-x,1/2-y,1/2-z
1/2+x,1/2+y,1/2-z
1/2-x,1/2+y,z
1/2+x,1/2-y,z
loop_
_atom_site_type_symbol
_atom_site_label
_atom_site_fract_x
_atom_site_fract_y
_atom_site_fract_z
Si Si1 0.700977 0.763520 0.657768
Si Si2 0.046300 0.653090 0.655123
Si Si3 0.064205 0.924909 0.500000
Si Si4 0.403570 0.684585 0.228502
Si Si5 0.650697 0.930159 0.652684
Si Si6 0.943951 0.891200 0.500000
O O1 0.708938 0.737675 0.500000
O O2 0.750000 0.750000 0.750000
O O3 0.655279 0.712911 0.725787
O O4 0.689734 0.857181 0.664259
O O5 0.030049 0.639282 0.500000
O O6 0.059855 0.745651 0.673646
O O7 0.094230 0.598490 0.696641
O O8 0.000000 0.626070 0.750000
O O9 0.091347 0.891914 0.633346
O O10 0.005157 0.897602 0.500000
O O11 0.075920 0.018599 0.500000
O O12 0.422232 0.659020 0.375528
O O13 0.649825 0.963457 0.500000
O O14 0.670163 0.000000 0.750000
#
# Coordination Sequence:
#
# PCOD8293944 Si02
#       6
#    16  16   8  16  16   8
#     4  10  22  42  67  87 114 151 196 247 298 349
#     4  10  20  34  55  81 114 154 193 233 281 337
#     4  11  20  40  55  82 125 167 198 243 302 342
#     4  11  21  38  57  85 119 153 199 250 290 346
#     4   9  20  39  58  84 117 148 184 233 286 340
#     4  11  24  32  59  88 119 165 206 237 290 372
#
# _framework density 18.586069999999999
#
# number of rings (size 3 to 8) (size 9 to 14) (size 15 to 20)
#    0.000    1.800    2.000    3.600    2.800    3.600 
#    3.600    4.000    0.000    0.000    0.000    0.000 
#    0.000    0.000    0.000    0.000    0.000    0.000 
#
# Total GULP energy -496040.240192 kJ/mol
# GULP energy per Si atom -12401.006005 kJ/mol
# Density = 1.854377 g / cm^3
# Si number density = 18.586070 Si / 1000 Ang^3
#
#
#
# Elastic Constant Matrix: (Units=GPa)
#
#
# Indices 1 2 3 4 5 6 
#
# 1 91.3132 16.6870 39.7304 0.0000 0.0000 0.0000
# 2 16.6870 73.9330 30.6048 0.0000 0.0000 0.0000
# 3 39.7304 30.6048 106.6450 0.0000 0.0000 0.0000
# 4 0.0000 0.0000 0.0000 23.7953 0.0000 0.0000
# 5 0.0000 0.0000 0.0000 0.0000 36.2106 0.0000
# 6 0.0000 0.0000 0.0000 0.0000 0.0000 15.7110
#
#
#
# Elastic Compliance Matrix: (Units=1/GPa)
#
#
# Indices 1 2 3 4 5 6 
#
# 1 0.013144 -0.001066 -0.004591 0.000000 0.000000 0.000000
# 2 -0.001066 0.015436 -0.004032 0.000000 0.000000 0.000000
# 3 -0.004591 -0.004032 0.012244 0.000000 0.000000 0.000000
# 4 0.000000 0.000000 0.000000 0.042025 0.000000 0.000000
# 5 0.000000 0.000000 0.000000 0.000000 0.027616 0.000000
# 6 0.000000 0.000000 0.000000 0.000000 0.000000 0.063650
#
#
# Mechanical properties :
#
#
# Convention : Reuss Voigt Hill
#
# Bulk Modulus (GPa) = 46.63113 49.54839 48.08976
# Shear Modulus (GPa) = 24.92007 27.46799 26.19403
#
# Velocity S-wave (km/s) = 3.66566 3.84849 3.75819
# Velocity P-wave (km/s) = 6.56200 6.81650 6.69046
#
# Compressibility (1/GPa) = 0.02144490
#
# Stress axis : x y z
#
# Youngs Moduli (GPa) = 76.08300 64.78501 81.67024
#
# Poissons Ratio (x) = 0.06908 0.37492
# Poissons Ratio (y) = 0.08112 0.32933
# Poissons Ratio (z) = 0.34927 0.26124
#
# Static dielectric constant tensor:
#      x y z
#    x 3.285400 0.000000 0.000000 
#    y 0.000000 3.401350 0.000000 
#    z 0.000000 0.000000 3.398300 
# 
# 
# High freq. dielectric constant tensor:
#      x y z
#    x 1.708430 0.000000 0.000000 
#    y 0.000000 1.722180 0.000000 
#    z 0.000000 0.000000 1.733430 
# 
# From -- ./inp_files/4848.got.cif
#   From: 2010.03.12/outbox.cif.g09.slc.cpg/sg72_3_cif.got.tgz:4848.got - 2010.04.16 14:54:00.
