data_PCOD8293171
_publ_section_title
;
Structure prediction by ZEFSAII (Michael W. Deem and Ramdas Pophale) SiO2 
 PCOD8293171
Probable space group: I B A M
;
_chemical_formula_sum "Si O2"
_cell_formula_units_Z 52
_cell_length_a 15.172795
_cell_length_b 15.096480
_cell_length_c 9.601228
_cell_angle_alpha 90.000000
_cell_angle_beta 90.000000
_cell_angle_gamma 90.000000
_cell_volume 2199.216925
_symmetry_space_group_name_H-M "I B A M"
_symmetry_group_IT_number 72
_symmetry_cell_setting 'orthorhombic'
loop_
_space_group_symop_operation_xyz
x,y,z
-x,-y,z
x,-y,1/2-z
-x,y,1/2-z
-x,-y,-z
x,y,-z
-x,y,1/2+z
x,-y,1/2+z
1/2+x,1/2+y,1/2+z
1/2-x,1/2-y,1/2+z
1/2+x,1/2-y,-z
1/2-x,1/2+y,-z
1/2-x,1/2-y,1/2-z
1/2+x,1/2+y,1/2-z
1/2-x,1/2+y,z
1/2+x,1/2-y,z
loop_
_atom_site_type_symbol
_atom_site_label
_atom_site_fract_x
_atom_site_fract_y
_atom_site_fract_z
Si Si1 0.049279 0.809098 0.000000
Si Si2 0.891083 0.011919 0.500000
Si Si3 0.903899 0.333170 0.778016
Si Si4 0.216420 0.397281 0.500000
Si Si5 0.143899 0.746878 0.500000
Si Si6 0.500000 0.500000 0.250000
O O1 0.089324 0.907126 0.000000
O O2 0.083755 0.758309 0.136654
O O3 0.942373 0.809652 0.000000
O O4 0.936055 0.054213 0.641801
O O5 0.786445 0.022986 0.500000
O O6 0.853548 0.315610 0.634573
O O7 0.000000 0.375902 0.750000
O O8 0.845402 0.403306 0.864134
O O9 0.268812 0.305134 0.500000
#
# Coordination Sequence:
#
# PCOD8293171 Si02
#       6
#     8   8  16   8   8   4
#     4   9  20  35  60  92 135 175 199 260 347 406
#     4  11  24  38  63  90 145 180 216 258 328 420
#     4   9  20  38  62  91 130 169 217 275 337 381
#     4  11  22  37  56  96 133 168 227 271 323 402
#     4  10  18  33  59  92 127 171 210 265 327 406
#     4  10  24  42  56  94 138 194 200 252 344 418
#
# _framework density 23.644780000000001
#
# number of rings (size 3 to 8) (size 9 to 14) (size 15 to 20)
#    0.000    2.154    0.000    3.692   10.769    0.000 
#    0.000    1.538    0.000    0.000    0.000    3.231 
#   18.462    0.000    0.000    0.000    0.000    0.000 
#
# Total GULP energy -322178.346390 kJ/mol
# GULP energy per Si atom -12391.474861 kJ/mol
# Density = 2.359096 g / cm^3
# Si number density = 23.644780 Si / 1000 Ang^3
#
#
#
# Elastic Constant Matrix: (Units=GPa)
#
#
# Indices 1 2 3 4 5 6 
#
# 1 175.4397 42.9089 65.0997 0.0000 0.0000 0.0000
# 2 42.9089 39.6219 24.4855 0.0000 0.0000 0.0000
# 3 65.0997 24.4855 206.2766 0.0000 0.0000 0.0000
# 4 0.0000 0.0000 0.0000 13.2703 0.0000 0.0000
# 5 0.0000 0.0000 0.0000 0.0000 24.0771 0.0000
# 6 0.0000 0.0000 0.0000 0.0000 0.0000 40.5599
#
#
#
# Elastic Compliance Matrix: (Units=1/GPa)
#
#
# Indices 1 2 3 4 5 6 
#
# 1 0.008252 -0.007907 -0.001666 0.000000 0.000000 0.000000
# 2 -0.007907 0.034813 -0.001637 0.000000 0.000000 0.000000
# 3 -0.001666 -0.001637 0.005568 0.000000 0.000000 0.000000
# 4 0.000000 0.000000 0.000000 0.075356 0.000000 0.000000
# 5 0.000000 0.000000 0.000000 0.000000 0.041533 0.000000
# 6 0.000000 0.000000 0.000000 0.000000 0.000000 0.024655
#
#
# Mechanical properties :
#
#
# Convention : Reuss Voigt Hill
#
# Bulk Modulus (GPa) = 38.14828 76.25850 57.20339
# Shear Modulus (GPa) = 22.59021 34.83774 28.71397
#
# Velocity S-wave (km/s) = 3.09431 3.84263 3.48859
# Velocity P-wave (km/s) = 5.37915 7.21176 6.36179
#
# Compressibility (1/GPa) = 0.02621350
#
# Stress axis : x y z
#
# Youngs Moduli (GPa) = 121.18305 28.72462 179.60270
#
# Poissons Ratio (x) = 0.22713 0.29916
# Poissons Ratio (y) = 0.95822 0.29400
# Poissons Ratio (z) = 0.20185 0.04702
#
# Static dielectric constant tensor:
#      x y z
#    x 4.539670 0.000000 0.000000 
#    y 0.000000 3.484630 0.000000 
#    z 0.000000 0.000000 4.730260 
# 
# 
# High freq. dielectric constant tensor:
#      x y z
#    x 1.944820 0.000000 0.000000 
#    y 0.000000 1.877700 0.000000 
#    z 0.000000 0.000000 1.961290 
# 
# From -- ./inp_files/3193.got.cif
#   From: 2010.03.12/outbox.cif.g09.slc.cpg/sg72_2_cif.got.tgz:3193.got - 2010.04.16 14:54:00.
