data_PCOD8293451
_publ_section_title
;
Structure prediction by ZEFSAII (Michael W. Deem and Ramdas Pophale) SiO2 
 PCOD8293451
Probable space group: I B A M
;
_chemical_formula_sum "Si O2"
_cell_formula_units_Z 96
_cell_length_a 28.873553
_cell_length_b 10.241296
_cell_length_c 18.012872
_cell_angle_alpha 90.000000
_cell_angle_beta 90.000000
_cell_angle_gamma 90.000000
_cell_volume 5326.453135
_symmetry_space_group_name_H-M "I B A M"
_symmetry_group_IT_number 72
_symmetry_cell_setting 'orthorhombic'
loop_
_space_group_symop_operation_xyz
x,y,z
-x,-y,z
x,-y,1/2-z
-x,y,1/2-z
-x,-y,-z
x,y,-z
-x,y,1/2+z
x,-y,1/2+z
1/2+x,1/2+y,1/2+z
1/2-x,1/2-y,1/2+z
1/2+x,1/2-y,-z
1/2-x,1/2+y,-z
1/2-x,1/2-y,1/2-z
1/2+x,1/2+y,1/2-z
1/2-x,1/2+y,z
1/2+x,1/2-y,z
loop_
_atom_site_type_symbol
_atom_site_label
_atom_site_fract_x
_atom_site_fract_y
_atom_site_fract_z
Si Si1 0.368909 0.520869 0.913490
Si Si2 0.122109 0.284558 0.587001
Si Si3 0.691941 0.867249 0.206397
Si Si4 0.702012 0.377319 0.197704
Si Si5 0.980545 0.364072 0.088210
Si Si6 0.967058 0.886916 0.911432
O O1 0.372108 0.367957 0.895245
O O2 0.325209 0.592306 0.877451
O O3 0.415188 0.589851 0.882278
O O4 0.363323 0.544558 0.000000
O O5 0.130014 0.313365 0.500000
O O6 0.159758 0.364266 0.633907
O O7 0.071806 0.334611 0.613577
O O8 0.680656 0.749334 0.262480
O O9 0.744461 0.854885 0.177097
O O10 0.682809 0.000000 0.250000
O O11 0.695537 0.500000 0.250000
O O12 0.014424 0.251247 0.118671
O O13 0.000000 0.500000 0.121169
O O14 0.982197 0.366041 0.000000
O O15 0.967990 0.892522 0.000000
O O16 0.000000 0.000000 0.879348
#
# Coordination Sequence:
#
# PCOD8293451 Si02
#       6
#    16  16  16  16  16  16
#     4  10  19  32  58  88 110 139 186 238 274 309
#     4  10  19  34  58  85 110 143 185 231 278 320
#     4  10  22  38  58  80 108 149 186 221 278 341
#     4  10  20  38  59  79 106 145 186 222 271 340
#     4   9  17  29  49  78 112 145 176 216 272 330
#     4   9  15  27  48  77 109 140 177 219 264 323
#
# _framework density 18.023250999999998
#
# number of rings (size 3 to 8) (size 9 to 14) (size 15 to 20)
#    0.000    2.333    3.333    0.000    0.000    2.000 
#    0.000    2.500    0.000    6.000    0.000    0.000 
#    0.000    0.000    0.000    0.000    0.000    0.000 
#
# Total GULP energy -595181.810408 kJ/mol
# GULP energy per Si atom -12399.621050 kJ/mol
# Density = 1.798223 g / cm^3
# Si number density = 18.023251 Si / 1000 Ang^3
#
#
#
# Elastic Constant Matrix: (Units=GPa)
#
#
# Indices 1 2 3 4 5 6 
#
# 1 123.2869 52.4982 55.0760 0.0000 0.0000 0.0000
# 2 52.4982 123.3897 33.9716 0.0000 0.0000 0.0000
# 3 55.0760 33.9716 49.8786 0.0000 0.0000 0.0000
# 4 0.0000 0.0000 0.0000 19.8545 0.0000 0.0000
# 5 0.0000 0.0000 0.0000 0.0000 15.3013 0.0000
# 6 0.0000 0.0000 0.0000 0.0000 0.0000 -38.0023
#
#
#
# Elastic Compliance Matrix: (Units=1/GPa)
#
#
# Indices 1 2 3 4 5 6 
#
# 1 0.016603 -0.002482 -0.016642 0.000000 0.000000 0.000000
# 2 -0.002482 0.010346 -0.004306 0.000000 0.000000 0.000000
# 3 -0.016642 -0.004306 0.041358 0.000000 0.000000 0.000000
# 4 0.000000 0.000000 0.000000 0.050366 0.000000 0.000000
# 5 0.000000 0.000000 0.000000 0.000000 0.065354 0.000000
# 6 0.000000 0.000000 0.000000 0.000000 0.000000 -0.026314
#
#
# Mechanical properties :
#
#
# Convention : Reuss Voigt Hill
#
# Bulk Modulus (GPa) = 46.62849 64.40522 55.51686
# Shear Modulus (GPa) = 23.61602 9.76466 16.69034
#
# Velocity S-wave (km/s) = 3.62375 2.33015 3.04640
# Velocity P-wave (km/s) = 6.59061 6.56137 6.57601
#
# Compressibility (1/GPa) = 0.02144612
#
# Stress axis : x y z
#
# Youngs Moduli (GPa) = 60.23170 96.65686 24.17938
#
# Poissons Ratio (x) = 0.23990 0.40240
# Poissons Ratio (y) = 0.14949 0.10411
# Poissons Ratio (z) = 1.00238 0.41619
#
# Static dielectric constant tensor:
#      x y z
#    x 3.474010 0.000000 0.000000 
#    y 0.000000 3.998660 0.000000 
#    z 0.000000 0.000000 2.497950 
# 
# 
# High freq. dielectric constant tensor:
#      x y z
#    x 1.706450 0.000000 0.000000 
#    y 0.000000 1.707780 0.000000 
#    z 0.000000 0.000000 1.657300 
# 
# From -- ./inp_files/33261.got.cif
#   From: 2010.03.12/outbox.cif.g09.slc.cpg/sg72_17_cif.got.tgz:33261.got - 2010.04.16 14:54:00.
