data_PCOD8293693
_publ_section_title
;
Structure prediction by ZEFSAII (Michael W. Deem and Ramdas Pophale) SiO2 
 PCOD8293693
Probable space group: I B A M
;
_chemical_formula_sum "Si O2"
_cell_formula_units_Z 64
_cell_length_a 12.774136
_cell_length_b 5.333322
_cell_length_c 35.857704
_cell_angle_alpha 90.000000
_cell_angle_beta 90.000000
_cell_angle_gamma 90.000000
_cell_volume 2442.934476
_symmetry_space_group_name_H-M "I B A M"
_symmetry_group_IT_number 72
_symmetry_cell_setting 'orthorhombic'
loop_
_space_group_symop_operation_xyz
x,y,z
-x,-y,z
x,-y,1/2-z
-x,y,1/2-z
-x,-y,-z
x,y,-z
-x,y,1/2+z
x,-y,1/2+z
1/2+x,1/2+y,1/2+z
1/2-x,1/2-y,1/2+z
1/2+x,1/2-y,-z
1/2-x,1/2+y,-z
1/2-x,1/2-y,1/2-z
1/2+x,1/2+y,1/2-z
1/2-x,1/2+y,z
1/2+x,1/2-y,z
loop_
_atom_site_type_symbol
_atom_site_label
_atom_site_fract_x
_atom_site_fract_y
_atom_site_fract_z
Si Si1 0.630260 0.147625 0.543192
Si Si2 0.567800 0.251229 0.847343
Si Si3 0.363761 0.351722 0.573422
Si Si4 0.865116 0.250937 0.266034
O O1 0.627795 0.218220 0.500000
O O2 0.578106 0.378059 0.566758
O O3 0.748653 0.094281 0.557131
O O4 0.576266 0.874685 0.550983
O O5 0.500000 0.500000 0.843789
O O6 0.642913 0.279568 0.883130
O O7 0.639539 0.236254 0.810740
O O8 0.500000 0.000000 0.851521
O O9 0.923269 0.500000 0.250000
O O10 0.750000 0.250000 0.250000
O O11 0.922270 0.000000 0.250000
#
# Coordination Sequence:
#
# PCOD8293693 Si02
#       4
#    16  16  16  16
#     4  10  19  35  64  92 116 151 204 272 316 346
#     4  12  26  42  61  88 128 170 202 245 312 382
#     4  10  20  35  59  88 121 156 201 249 310 369
#     4  10  23  42  67  94 121 155 208 259 302 359
#
# _framework density 26.198003
#
# number of rings (size 3 to 8) (size 9 to 14) (size 15 to 20)
#    0.000    1.500    0.000    6.750    0.000   11.000 
#    0.000    0.000    0.000   25.500    0.000    0.000 
#    0.000    0.000    0.000    0.000    0.000    0.000 
#
# Total GULP energy -396710.710059 kJ/mol
# GULP energy per Si atom -12397.209689 kJ/mol
# Density = 2.613837 g / cm^3
# Si number density = 26.198003 Si / 1000 Ang^3
#
#
#
# Elastic Constant Matrix: (Units=GPa)
#
#
# Indices 1 2 3 4 5 6 
#
# 1 42.8832 17.6245 14.0603 0.0000 0.0000 0.0000
# 2 17.6245 294.5099 68.4695 0.0000 0.0000 0.0000
# 3 14.0603 68.4695 245.3836 0.0000 0.0000 0.0000
# 4 0.0000 0.0000 0.0000 52.1933 0.0000 0.0000
# 5 0.0000 0.0000 0.0000 0.0000 33.2499 0.0000
# 6 0.0000 0.0000 0.0000 0.0000 0.0000 -90.6715
#
#
#
# Elastic Compliance Matrix: (Units=1/GPa)
#
#
# Indices 1 2 3 4 5 6 
#
# 1 0.024157 -0.001202 -0.001049 0.000000 0.000000 0.000000
# 2 -0.001202 0.003691 -0.000961 0.000000 0.000000 0.000000
# 3 -0.001049 -0.000961 0.004403 0.000000 0.000000 0.000000
# 4 0.000000 0.000000 0.000000 0.019160 0.000000 0.000000
# 5 0.000000 0.000000 0.000000 0.000000 0.030075 0.000000
# 6 0.000000 0.000000 0.000000 0.000000 0.000000 -0.011029
#
#
# Mechanical properties :
#
#
# Convention : Reuss Voigt Hill
#
# Bulk Modulus (GPa) = 38.71765 87.00948 62.86357
# Shear Modulus (GPa) = 58.48650 31.12917 44.80784
#
# Velocity S-wave (km/s) = 4.73004 3.45081 4.14013
# Velocity P-wave (km/s) = 6.68146 7.01155 6.84849
#
# Compressibility (1/GPa) = 0.02582801
#
# Stress axis : x y z
#
# Youngs Moduli (GPa) = 41.39594 270.94349 227.09240
#
# Poissons Ratio (x) = 0.32562 0.23818
# Poissons Ratio (y) = 0.04975 0.21823
# Poissons Ratio (z) = 0.04342 0.26037
#
# Static dielectric constant tensor:
#      x y z
#    x 4.420810 0.000000 0.000000 
#    y 0.000000 4.438320 0.000000 
#    z 0.000000 0.000000 4.814100 
# 
# 
# High freq. dielectric constant tensor:
#      x y z
#    x 2.061950 0.000000 0.000000 
#    y 0.000000 2.104260 0.000000 
#    z 0.000000 0.000000 2.041890 
# 
# From -- ./inp_files/51955.got.cif
#   From: 2010.03.12/outbox.cif.g09.slc.cpg/sg72_26_cif.got.tgz:51955.got - 2010.04.16 14:54:00.
