data_PCOD8293817
_publ_section_title
;
Structure prediction by ZEFSAII (Michael W. Deem and Ramdas Pophale) SiO2 
 PCOD8293817
Probable space group: I B A M
;
_chemical_formula_sum "Si O2"
_cell_formula_units_Z 96
_cell_length_a 9.420814
_cell_length_b 24.625098
_cell_length_c 20.930625
_cell_angle_alpha 90.000000
_cell_angle_beta 90.000000
_cell_angle_gamma 90.000000
_cell_volume 4855.663628
_symmetry_space_group_name_H-M "I B A M"
_symmetry_group_IT_number 72
_symmetry_cell_setting 'orthorhombic'
loop_
_space_group_symop_operation_xyz
x,y,z
-x,-y,z
x,-y,1/2-z
-x,y,1/2-z
-x,-y,-z
x,y,-z
-x,y,1/2+z
x,-y,1/2+z
1/2+x,1/2+y,1/2+z
1/2-x,1/2-y,1/2+z
1/2+x,1/2-y,-z
1/2-x,1/2+y,-z
1/2-x,1/2-y,1/2-z
1/2+x,1/2+y,1/2-z
1/2-x,1/2+y,z
1/2+x,1/2-y,z
loop_
_atom_site_type_symbol
_atom_site_label
_atom_site_fract_x
_atom_site_fract_y
_atom_site_fract_z
Si Si1 0.291275 0.628921 0.800459
Si Si2 0.790339 0.262316 0.851099
Si Si3 0.469900 0.063168 0.179694
Si Si4 0.106969 0.856929 0.166088
Si Si5 0.669692 0.110519 0.071001
Si Si6 0.453408 0.227755 0.431634
O O1 0.207552 0.687189 0.801769
O O2 0.193672 0.581755 0.832901
O O3 0.326686 0.612671 0.727584
O O4 0.438690 0.633601 0.839491
O O5 0.852084 0.206481 0.822171
O O6 0.628753 0.258686 0.875484
O O7 0.883014 0.277584 0.912800
O O8 0.500000 0.089979 0.250000
O O9 0.566668 0.081145 0.120731
O O10 0.500000 0.000000 0.185149
O O11 0.174068 0.883357 0.102433
O O12 0.612137 0.169511 0.059321
O O13 0.679200 0.081989 0.000000
O O14 0.445418 0.258609 0.500000
#
# Coordination Sequence:
#
# PCOD8293817 Si02
#       6
#    16  16  16  16  16  16
#     4  11  21  38  60  88 125 154 208 255 299 361
#     4  11  19  34  52  85 122 160 200 247 290 355
#     4  11  23  42  69  93 115 152 207 267 318 364
#     4  10  22  37  57  90 124 166 200 242 303 368
#     4  10  21  40  62  88 126 164 200 253 310 361
#     4  10  20  32  51  80 122 168 201 234 290 360
#
# _framework density 19.770727000000001
#
# number of rings (size 3 to 8) (size 9 to 14) (size 15 to 20)
#    0.000    1.500    5.000    1.000    0.000    1.000 
#    3.000    1.667    0.000    1.000    0.000    0.000 
#    0.000    0.000    0.000    0.000    0.000    0.000 
#
# Total GULP energy -594631.547323 kJ/mol
# GULP energy per Si atom -12388.157236 kJ/mol
# Density = 1.972573 g / cm^3
# Si number density = 19.770727 Si / 1000 Ang^3
#
#
#
# Elastic Constant Matrix: (Units=GPa)
#
#
# Indices 1 2 3 4 5 6 
#
# 1 110.1840 65.2019 40.7041 0.0000 0.0000 0.0000
# 2 65.2019 41.9569 41.4883 0.0000 0.0000 0.0000
# 3 40.7041 41.4883 124.5631 0.0000 0.0000 0.0000
# 4 0.0000 0.0000 0.0000 17.5798 0.0000 0.0000
# 5 0.0000 0.0000 0.0000 0.0000 33.7093 0.0000
# 6 0.0000 0.0000 0.0000 0.0000 0.0000 17.6856
#
#
#
# Elastic Compliance Matrix: (Units=1/GPa)
#
#
# Indices 1 2 3 4 5 6 
#
# 1 0.477226 -0.875892 0.135788 0.000000 0.000000 0.000000
# 2 -0.875892 1.643134 -0.261060 0.000001 0.000000 0.000000
# 3 0.135788 -0.261060 0.050607 0.000000 0.000000 0.000000
# 4 0.000000 0.000001 0.000000 0.056883 0.000000 0.000000
# 5 0.000000 0.000000 0.000000 0.000000 0.029665 0.000000
# 6 0.000000 0.000000 0.000000 0.000000 0.000000 0.056543
#
#
# Mechanical properties :
#
#
# Convention : Reuss Voigt Hill
#
# Bulk Modulus (GPa) = 5.92979 63.49919 34.71449
# Shear Modulus (GPa) = 1.14348 22.41558 11.77953
#
# Velocity S-wave (km/s) = 0.76133 3.37081 2.44356
# Velocity P-wave (km/s) = 1.94387 6.88021 5.05549
#
# Compressibility (1/GPa) = 0.16864016
#
# Stress axis : x y z
#
# Youngs Moduli (GPa) = 2.09544 0.60859 19.76000
#
# Poissons Ratio (x) = 0.53306 -2.68317
# Poissons Ratio (y) = 1.83538 5.15855
# Poissons Ratio (z) = -0.28454 0.15888
#
# Static dielectric constant tensor:
#      x y z
#    x 3.347050 -0.000010 0.000000 
#    y -0.000010 -18.324510 0.000000 
#    z 0.000000 0.000000 4.118800 
# 
# 
# High freq. dielectric constant tensor:
#      x y z
#    x 1.781240 0.000000 0.000000 
#    y 0.000000 1.727580 0.000000 
#    z 0.000000 0.000000 1.772900 
# 
# From -- ./inp_files/35998.got.cif
#   From: 2010.03.12/outbox.cif.g09.slc.cpg/sg72_18_cif.got.tgz:35998.got - 2010.04.16 14:54:00.
