data_PCOD8293855
_publ_section_title
;
Structure prediction by ZEFSAII (Michael W. Deem and Ramdas Pophale) SiO2 
 PCOD8293855
Probable space group: I B A M
;
_chemical_formula_sum "Si O2"
_cell_formula_units_Z 96
_cell_length_a 12.598186
_cell_length_b 34.329611
_cell_length_c 10.474882
_cell_angle_alpha 90.000000
_cell_angle_beta 90.000000
_cell_angle_gamma 90.000000
_cell_volume 4530.290355
_symmetry_space_group_name_H-M "I B A M"
_symmetry_group_IT_number 72
_symmetry_cell_setting 'orthorhombic'
loop_
_space_group_symop_operation_xyz
x,y,z
-x,-y,z
x,-y,1/2-z
-x,y,1/2-z
-x,-y,-z
x,y,-z
-x,y,1/2+z
x,-y,1/2+z
1/2+x,1/2+y,1/2+z
1/2-x,1/2-y,1/2+z
1/2+x,1/2-y,-z
1/2-x,1/2+y,-z
1/2-x,1/2-y,1/2-z
1/2+x,1/2+y,1/2-z
1/2-x,1/2+y,z
1/2+x,1/2-y,z
loop_
_atom_site_type_symbol
_atom_site_label
_atom_site_fract_x
_atom_site_fract_y
_atom_site_fract_z
Si Si1 0.885639 0.978921 0.137087
Si Si2 0.369399 0.268184 0.500000
Si Si3 0.877852 0.364862 0.756063
Si Si4 0.620906 0.312849 0.756087
Si Si5 0.118078 0.312969 0.500000
Si Si6 0.130364 0.680465 0.500000
Si Si7 0.680474 0.394569 0.148771
Si Si8 0.124076 0.774439 0.000000
O O1 0.891517 0.933012 0.168529
O O2 0.819059 0.000000 0.250000
O O3 0.828402 0.984561 0.000000
O O4 0.000000 0.000000 0.132047
O O5 0.324985 0.290609 0.624916
O O6 0.319509 0.224150 0.500000
O O7 0.497005 0.270476 0.500000
O O8 0.840938 0.344499 0.625430
O O9 0.799336 0.401018 0.789844
O O10 0.000000 0.378883 0.750000
O O11 0.850437 0.334674 0.869343
O O12 0.500000 0.299873 0.750000
O O13 0.628113 0.359365 0.773024
O O14 0.669572 0.298873 0.620984
O O15 0.170687 0.269831 0.500000
O O16 0.992635 0.309622 0.500000
O O17 0.687980 0.383809 0.000000
#
# Coordination Sequence:
#
# PCOD8293855 Si02
#       8
#    16   8  16  16   8   8  16   8
#     4   9  20  40  64  93 120 153 191 224 282 361
#     4   9  16  33  51  73 112 163 202 248 310 370
#     4  10  20  36  58  86 112 156 208 254 306 343
#     4  10  20  33  51  80 116 161 202 245 313 363
#     4   9  16  33  57  77 110 164 209 256 310 359
#     4   9  18  31  55  81 112 150 211 268 294 339
#     4  11  22  39  62  86 125 159 191 242 303 370
#     4   9  18  31  49  79 116 155 210 260 302 354
#
# _framework density 21.190695999999999
#
# number of rings (size 3 to 8) (size 9 to 14) (size 15 to 20)
#    0.000    2.333    1.667    1.000    2.333    4.667 
#    3.000    5.000    0.000    0.500    0.000    2.333 
#    0.000    0.000    0.000    0.000    0.000    0.000 
#
# Total GULP energy -594751.596425 kJ/mol
# GULP energy per Si atom -12390.658259 kJ/mol
# Density = 2.114246 g / cm^3
# Si number density = 21.190696 Si / 1000 Ang^3
#
#
#
# Elastic Constant Matrix: (Units=GPa)
#
#
# Indices 1 2 3 4 5 6 
#
# 1 66.3221 33.5950 8.8993 -0.0023 0.0008 0.0005
# 2 33.5950 129.9847 79.7454 -0.0010 0.0020 -0.0012
# 3 8.8993 79.7454 205.9956 -0.0035 -0.0042 -0.0022
# 4 -0.0023 -0.0010 -0.0035 39.8189 0.0143 0.0008
# 5 0.0008 0.0020 -0.0042 0.0143 1.5743 0.0009
# 6 0.0005 -0.0012 -0.0022 0.0008 0.0009 31.1400
#
#
#
# Elastic Compliance Matrix: (Units=1/GPa)
#
#
# Indices 1 2 3 4 5 6 
#
# 1 0.017616 -0.005359 0.001313 0.000001 0.000002 0.000000
# 2 -0.005359 0.011720 -0.004305 0.000000 -0.000024 0.000000
# 3 0.001313 -0.004305 0.006464 0.000001 0.000022 0.000000
# 4 0.000001 0.000000 0.000001 0.025114 -0.000229 -0.000001
# 5 0.000002 -0.000024 0.000022 -0.000229 0.635217 -0.000018
# 6 0.000000 0.000000 0.000000 -0.000001 -0.000018 0.032113
#
#
# Mechanical properties :
#
#
# Convention : Reuss Voigt Hill
#
# Bulk Modulus (GPa) = 52.35947 71.86465 62.11206
# Shear Modulus (GPa) = 6.65503 33.17746 19.91624
#
# Velocity S-wave (km/s) = 1.77408 3.96114 3.06904
# Velocity P-wave (km/s) = 5.38134 7.40998 6.47559
#
# Compressibility (1/GPa) = 0.01909874
#
# Stress axis : x y z
#
# Youngs Moduli (GPa) = 56.76613 85.32754 154.69242
#
# Poissons Ratio (x) = 0.45725 -0.20318
# Poissons Ratio (y) = 0.30420 0.66601
# Poissons Ratio (z) = -0.07456 0.36737
#
# Static dielectric constant tensor:
#      x y z
#    x 3.904680 0.000000 0.000010 
#    y 0.000000 3.592440 -0.000010 
#    z 0.000010 -0.000010 4.818000 
# 
# 
# High freq. dielectric constant tensor:
#      x y z
#    x 1.839270 0.000000 0.000000 
#    y 0.000000 1.794080 0.000000 
#    z 0.000000 0.000000 1.856800 
# 
# From -- ./inp_files/13127.got.cif
#   From: 2010.03.12/outbox.cif.g09.slc.cpg/sg72_7_cif.got.tgz:13127.got - 2010.04.16 14:54:00.
