data_PCOD8293873
_publ_section_title
;
Structure prediction by ZEFSAII (Michael W. Deem and Ramdas Pophale) SiO2 
 PCOD8293873
Probable space group: I B A M
;
_chemical_formula_sum "Si O2"
_cell_formula_units_Z 116
_cell_length_a 21.845216
_cell_length_b 32.252578
_cell_length_c 8.958367
_cell_angle_alpha 90.000000
_cell_angle_beta 90.000000
_cell_angle_gamma 90.000000
_cell_volume 6311.747662
_symmetry_space_group_name_H-M "I B A M"
_symmetry_group_IT_number 72
_symmetry_cell_setting 'orthorhombic'
loop_
_space_group_symop_operation_xyz
x,y,z
-x,-y,z
x,-y,1/2-z
-x,y,1/2-z
-x,-y,-z
x,y,-z
-x,y,1/2+z
x,-y,1/2+z
1/2+x,1/2+y,1/2+z
1/2-x,1/2-y,1/2+z
1/2+x,1/2-y,-z
1/2-x,1/2+y,-z
1/2-x,1/2-y,1/2-z
1/2+x,1/2+y,1/2-z
1/2-x,1/2+y,z
1/2+x,1/2-y,z
loop_
_atom_site_type_symbol
_atom_site_label
_atom_site_fract_x
_atom_site_fract_y
_atom_site_fract_z
Si Si1 0.713372 0.898177 0.824121
Si Si2 0.172472 0.226790 0.828810
Si Si3 0.783563 0.687255 0.169574
Si Si4 0.060514 0.171294 0.172202
Si Si5 0.380589 0.962477 0.337034
Si Si6 0.565089 0.577011 0.321551
Si Si7 0.000000 0.500000 0.750000
Si Si8 0.186416 0.043379 0.679954
O O1 0.703808 0.850905 0.777761
O O2 0.647586 0.919236 0.779376
O O3 0.768672 0.919958 0.735772
O O4 0.728052 0.899865 0.000000
O O5 0.164916 0.276730 0.812222
O O6 0.220691 0.209385 0.711761
O O7 0.110516 0.204682 0.781486
O O8 0.190950 0.215567 0.000000
O O9 0.780274 0.671015 0.000000
O O10 0.079350 0.124833 0.220127
O O11 0.000000 0.187046 0.250000
O O12 0.046248 0.171408 0.000000
O O13 0.354775 0.968381 0.500000
O O14 0.348896 0.000000 0.250000
O O15 0.455163 0.967881 0.337751
O O16 0.500000 0.563664 0.250000
O O17 0.564561 0.569112 0.500000
O O18 0.618151 0.550687 0.242692
O O19 0.186079 0.041888 0.500000
O O20 0.209787 0.000000 0.750000
#
# Coordination Sequence:
#
# PCOD8293873 Si02
#       8
#    16  16  16  16  16  16   4  16
#     4  11  22  37  55  80 112 145 180 224 276 326
#     4   9  18  34  54  77 108 141 176 220 269 322
#     4  10  20  33  53  81 107 140 180 219 268 323
#     4   9  18  32  53  78 105 138 175 218 266 313
#     4   9  19  33  55  80 105 136 174 217 263 316
#     4  10  20  36  57  82 111 146 187 231 276 327
#     4   8  18  36  58  84 106 132 180 220 262 316
#     4  12  25  40  57  81 110 144 184 228 278 331
#
# _framework density 18.378426999999999
#
# number of rings (size 3 to 8) (size 9 to 14) (size 15 to 20)
#    0.414    1.655    0.000    3.931    0.000    5.241 
#    0.000    1.379    1.517    0.000    0.000    0.000 
#    0.000    0.000    0.000    0.000    0.000    0.000 
#
# Total GULP energy -718636.549447 kJ/mol
# GULP energy per Si atom -12390.285335 kJ/mol
# Density = 1.833660 g / cm^3
# Si number density = 18.378427 Si / 1000 Ang^3
#
#
#
# Elastic Constant Matrix: (Units=GPa)
#
#
# Indices 1 2 3 4 5 6 
#
# 1 76.1531 35.8125 28.1755 0.0000 0.0000 0.0001
# 2 35.8125 99.9844 34.0200 0.0000 0.0000 0.0006
# 3 28.1755 34.0200 85.4259 0.0000 -0.0002 0.0001
# 4 0.0000 0.0000 0.0000 29.1609 0.0000 -0.0004
# 5 0.0000 0.0000 -0.0002 0.0000 13.6229 -0.0007
# 6 0.0001 0.0006 0.0001 -0.0004 -0.0007 -435.0507
#
#
#
# Elastic Compliance Matrix: (Units=1/GPa)
#
#
# Indices 1 2 3 4 5 6 
#
# 1 0.016705 -0.004753 -0.003617 0.000000 0.000000 0.000000
# 2 -0.004753 0.012921 -0.003578 0.000000 0.000000 0.000000
# 3 -0.003617 -0.003578 0.014324 0.000000 0.000000 0.000000
# 4 0.000000 0.000000 0.000000 0.034293 0.000000 0.000000
# 5 0.000000 0.000000 0.000000 0.000000 0.073406 0.000000
# 6 0.000000 0.000000 0.000000 0.000000 0.000000 -0.002299
#
#
# Mechanical properties :
#
#
# Convention : Reuss Voigt Hill
#
# Bulk Modulus (GPa) = 49.86433 50.84216 50.35325
# Shear Modulus (GPa) = 27.78852 -67.54969 -19.88059
#
# Velocity S-wave (km/s) = 3.89269 -6.06916 -3.29254
# Velocity P-wave (km/s) = 6.88440 4.62480 3.60597
#
# Compressibility (1/GPa) = 0.02005441
#
# Stress axis : x y z
#
# Youngs Moduli (GPa) = 59.86351 77.39111 69.81281
#
# Poissons Ratio (x) = 0.36781 0.25251
# Poissons Ratio (y) = 0.28451 0.24981
# Poissons Ratio (z) = 0.21652 0.27693
#
# Static dielectric constant tensor:
#      x y z
#    x 3.369960 0.000000 0.000000 
#    y 0.000000 3.625400 0.000000 
#    z 0.000000 0.000000 3.411370 
# 
# 
# High freq. dielectric constant tensor:
#      x y z
#    x 1.700140 0.000000 0.000000 
#    y 0.000000 1.711640 0.000000 
#    z 0.000000 0.000000 1.721430 
# 
# From -- ./inp_files/7362.got.cif
#   From: 2010.03.12/outbox.cif.g09.slc.cpg/sg72_4_cif.got.tgz:7362.got - 2010.04.16 14:54:00.
