data_PCOD8293246
_publ_section_title
;
Structure prediction by ZEFSAII (Michael W. Deem and Ramdas Pophale) SiO2 
 PCOD8293246
Probable space group: I B A M
;
_chemical_formula_sum "Si O2"
_cell_formula_units_Z 80
_cell_length_a 19.319247
_cell_length_b 26.879199
_cell_length_c 8.775501
_cell_angle_alpha 90.000000
_cell_angle_beta 90.000000
_cell_angle_gamma 90.000000
_cell_volume 4556.993800
_symmetry_space_group_name_H-M "I B A M"
_symmetry_group_IT_number 72
_symmetry_cell_setting 'orthorhombic'
loop_
_space_group_symop_operation_xyz
x,y,z
-x,-y,z
x,-y,1/2-z
-x,y,1/2-z
-x,-y,-z
x,y,-z
-x,y,1/2+z
x,-y,1/2+z
1/2+x,1/2+y,1/2+z
1/2-x,1/2-y,1/2+z
1/2+x,1/2-y,-z
1/2-x,1/2+y,-z
1/2-x,1/2-y,1/2-z
1/2+x,1/2+y,1/2-z
1/2-x,1/2+y,z
1/2+x,1/2-y,z
loop_
_atom_site_type_symbol
_atom_site_label
_atom_site_fract_x
_atom_site_fract_y
_atom_site_fract_z
Si Si1 0.286492 0.701028 0.679768
Si Si2 0.073736 0.552654 0.181102
Si Si3 0.435793 0.192256 0.333640
Si Si4 0.933338 0.193873 0.667691
Si Si5 0.823170 0.640008 0.322548
O O1 0.282939 0.707308 0.500000
O O2 0.250000 0.750000 0.750000
O O3 0.364772 0.691263 0.730973
O O4 0.247637 0.649921 0.731191
O O5 0.096607 0.500000 0.250000
O O6 0.134713 0.590879 0.228801
O O7 0.000000 0.569432 0.250000
O O8 0.066476 0.549069 0.000000
O O9 0.500000 0.165121 0.250000
O O10 0.423073 0.167171 0.500000
O O11 0.453371 0.249256 0.359263
O O12 0.370283 0.187317 0.222598
O O13 0.921560 0.169283 0.500000
O O14 0.000000 0.168094 0.750000
O O15 0.806347 0.639839 0.500000
#
# Coordination Sequence:
#
# PCOD8293246 Si02
#       5
#    16  16  16  16  16
#     4  12  23  35  51  72 101 136 172 215 262 308
#     4  10  21  36  55  77 103 137 175 220 267 315
#     4  10  19  29  44  65  92 127 166 208 251 295
#     4  10  20  34  50  69  95 130 170 209 250 298
#     4  11  22  34  50  72  99 131 171 215 260 310
#
# _framework density 17.555434000000002
#
# number of rings (size 3 to 8) (size 9 to 14) (size 15 to 20)
#    0.000    1.400    2.000    5.400    0.000    6.400 
#    0.000    0.000    0.000    0.000    0.000    0.000 
#    0.000    0.800    0.000    8.400    0.000    4.600 
#
# Total GULP energy -495677.080141 kJ/mol
# GULP energy per Si atom -12391.927004 kJ/mol
# Density = 1.751548 g / cm^3
# Si number density = 17.555434 Si / 1000 Ang^3
#
#
#
# Elastic Constant Matrix: (Units=GPa)
#
#
# Indices 1 2 3 4 5 6 
#
# 1 140.6983 35.8182 62.2073 0.0000 0.0000 0.0000
# 2 35.8182 51.4187 35.3373 0.0000 0.0000 0.0000
# 3 62.2073 35.3373 135.8601 0.0000 0.0000 0.0000
# 4 0.0000 0.0000 0.0000 17.7869 0.0000 0.0000
# 5 0.0000 0.0000 0.0000 0.0000 33.6452 0.0000
# 6 0.0000 0.0000 0.0000 0.0000 0.0000 23.0679
#
#
#
# Elastic Compliance Matrix: (Units=1/GPa)
#
#
# Indices 1 2 3 4 5 6 
#
# 1 0.009701 -0.004511 -0.003268 0.000000 0.000000 0.000000
# 2 -0.004511 0.025779 -0.004640 0.000000 0.000000 0.000000
# 3 -0.003268 -0.004640 0.010064 0.000000 0.000000 0.000000
# 4 0.000000 0.000000 0.000000 0.056221 0.000000 0.000000
# 5 0.000000 0.000000 0.000000 0.000000 0.029722 0.000000
# 6 0.000000 0.000000 0.000000 0.000000 0.000000 0.043350
#
#
# Mechanical properties :
#
#
# Convention : Reuss Voigt Hill
#
# Bulk Modulus (GPa) = 48.29687 66.07809 57.18748
# Shear Modulus (GPa) = 24.20390 27.87428 26.03909
#
# Velocity S-wave (km/s) = 3.71713 3.98903 3.85548
# Velocity P-wave (km/s) = 6.78185 7.67710 7.24332
#
# Compressibility (1/GPa) = 0.02070528
#
# Stress axis : x y z
#
# Youngs Moduli (GPa) = 103.08219 38.79072 99.36607
#
# Poissons Ratio (x) = 0.17500 0.32477
# Poissons Ratio (y) = 0.46505 0.46101
# Poissons Ratio (z) = 0.33692 0.17997
#
# Static dielectric constant tensor:
#      x y z
#    x 3.422420 0.000000 0.000000 
#    y 0.000000 2.956660 0.000000 
#    z 0.000000 0.000000 3.694440 
# 
# 
# High freq. dielectric constant tensor:
#      x y z
#    x 1.678200 0.000000 0.000000 
#    y 0.000000 1.617570 0.000000 
#    z 0.000000 0.000000 1.703940 
# 
# From -- ./inp_files/4785.got.cif
#   From: 2010.03.12/outbox.cif.g09.slc.cpg/sg72_3_cif.got.tgz:4785.got - 2010.04.16 14:54:00.
