data_PCOD8293438
_publ_section_title
;
Structure prediction by ZEFSAII (Michael W. Deem and Ramdas Pophale) SiO2 
 PCOD8293438
Probable space group: I B A M
;
_chemical_formula_sum "Si O2"
_cell_formula_units_Z 96
_cell_length_a 15.294861
_cell_length_b 18.863461
_cell_length_c 14.267836
_cell_angle_alpha 90.000000
_cell_angle_beta 90.000000
_cell_angle_gamma 90.000000
_cell_volume 4116.470635
_symmetry_space_group_name_H-M "I B A M"
_symmetry_group_IT_number 72
_symmetry_cell_setting 'orthorhombic'
loop_
_space_group_symop_operation_xyz
x,y,z
-x,-y,z
x,-y,1/2-z
-x,y,1/2-z
-x,-y,-z
x,y,-z
-x,y,1/2+z
x,-y,1/2+z
1/2+x,1/2+y,1/2+z
1/2-x,1/2-y,1/2+z
1/2+x,1/2-y,-z
1/2-x,1/2+y,-z
1/2-x,1/2-y,1/2-z
1/2+x,1/2+y,1/2-z
1/2-x,1/2+y,z
1/2+x,1/2-y,z
loop_
_atom_site_type_symbol
_atom_site_label
_atom_site_fract_x
_atom_site_fract_y
_atom_site_fract_z
Si Si1 0.368268 0.139216 0.100306
Si Si2 0.530510 0.776923 0.645471
Si Si3 0.096966 0.518150 0.605119
Si Si4 0.812923 0.357302 0.298184
Si Si5 0.524918 0.378463 0.896014
Si Si6 0.634546 0.580144 0.227879
O O1 0.471970 0.158789 0.104755
O O2 0.318535 0.170342 0.190343
O O3 0.350977 0.055545 0.103207
O O4 0.331597 0.168300 0.000000
O O5 0.500000 0.760382 0.750000
O O6 0.634101 0.798981 0.640072
O O7 0.511082 0.705438 0.588831
O O8 0.100861 0.552128 0.500000
O O9 0.137395 0.568645 0.684278
O O10 0.000000 0.500000 0.637075
O O11 0.710867 0.371229 0.319092
O O12 0.443531 0.418641 0.847415
O O13 0.608361 0.387532 0.828602
O O14 0.539339 0.411445 0.000000
O O15 0.664813 0.500000 0.250000
#
# Coordination Sequence:
#
# PCOD8293438 Si02
#       6
#    16  16  16  16  16  16
#     4  10  20  34  56  91 133 176 219 259 314 396
#     4  10  20  39  65  94 130 173 217 263 325 405
#     4  10  19  32  54  88 130 174 222 261 307 386
#     4  11  23  38  67  97 135 178 215 275 338 392
#     4  11  24  46  72  93 128 176 226 283 345 402
#     4  11  25  46  70 102 132 166 231 291 342 404
#
# _framework density 23.320948000000001
#
# number of rings (size 3 to 8) (size 9 to 14) (size 15 to 20)
#    0.000    1.500    3.333    3.000    0.000    4.667 
#    0.000    0.000    0.000    0.000    0.000    0.000 
#    0.000    0.000    0.000    0.000    0.000    0.000 
#
# Total GULP energy -594727.391277 kJ/mol
# GULP energy per Si atom -12390.153985 kJ/mol
# Density = 2.326787 g / cm^3
# Si number density = 23.320948 Si / 1000 Ang^3
#
#
#
# Elastic Constant Matrix: (Units=GPa)
#
#
# Indices 1 2 3 4 5 6 
#
# 1 91.4724 7.9495 4.3905 0.0000 0.0000 0.0000
# 2 7.9495 57.7339 5.6350 0.0000 0.0000 0.0000
# 3 4.3905 5.6350 119.4331 0.0000 0.0000 0.0000
# 4 0.0000 0.0000 0.0000 17.8416 0.0000 0.0000
# 5 0.0000 0.0000 0.0000 0.0000 14.4574 0.0000
# 6 0.0000 0.0000 0.0000 0.0000 0.0000 17.8985
#
#
#
# Elastic Compliance Matrix: (Units=1/GPa)
#
#
# Indices 1 2 3 4 5 6 
#
# 1 0.011078 -0.001492 -0.000337 0.000000 0.000000 0.000000
# 2 -0.001492 0.017602 -0.000776 0.000000 0.000000 0.000000
# 3 -0.000337 -0.000776 0.008422 0.000000 0.000000 0.000000
# 4 0.000000 0.000000 0.000000 0.056049 0.000000 0.000000
# 5 0.000000 0.000000 0.000000 0.000000 0.069168 0.000000
# 6 0.000000 0.000000 0.000000 0.000000 0.000000 0.055871
#
#
# Mechanical properties :
#
#
# Convention : Reuss Voigt Hill
#
# Bulk Modulus (GPa) = 31.35569 33.84330 32.59950
# Shear Modulus (GPa) = 21.36474 26.75047 24.05760
#
# Velocity S-wave (km/s) = 3.03003 3.39050 3.21532
# Velocity P-wave (km/s) = 5.07108 5.46542 5.27194
#
# Compressibility (1/GPa) = 0.03189214
#
# Stress axis : x y z
#
# Youngs Moduli (GPa) = 90.26794 56.81157 118.73858
#
# Poissons Ratio (x) = 0.08479 0.03999
# Poissons Ratio (y) = 0.13472 0.09210
# Poissons Ratio (z) = 0.03040 0.04406
#
# Static dielectric constant tensor:
#      x y z
#    x 3.871000 0.000000 0.000000 
#    y 0.000000 4.084720 0.000000 
#    z 0.000000 0.000000 4.337370 
# 
# 
# High freq. dielectric constant tensor:
#      x y z
#    x 1.889750 0.000000 0.000000 
#    y 0.000000 1.912530 0.000000 
#    z 0.000000 0.000000 1.925610 
# 
# From -- ./inp_files/21829.got.cif
#   From: 2010.03.12/outbox.cif.g09.slc.cpg/sg72_11_cif.got.tgz:21829.got - 2010.04.16 14:54:00.
