data_PCOD8293423
_publ_section_title
;
Structure prediction by ZEFSAII (Michael W. Deem and Ramdas Pophale) SiO2 
 PCOD8293423
Probable space group: I B A M
;
_chemical_formula_sum "Si O2"
_cell_formula_units_Z 108
_cell_length_a 15.016855
_cell_length_b 17.268136
_cell_length_c 20.949765
_cell_angle_alpha 90.000000
_cell_angle_beta 90.000000
_cell_angle_gamma 90.000000
_cell_volume 5432.548390
_symmetry_space_group_name_H-M "I B A M"
_symmetry_group_IT_number 72
_symmetry_cell_setting 'orthorhombic'
loop_
_space_group_symop_operation_xyz
x,y,z
-x,-y,z
x,-y,1/2-z
-x,y,1/2-z
-x,-y,-z
x,y,-z
-x,y,1/2+z
x,-y,1/2+z
1/2+x,1/2+y,1/2+z
1/2-x,1/2-y,1/2+z
1/2+x,1/2-y,-z
1/2-x,1/2+y,-z
1/2-x,1/2-y,1/2-z
1/2+x,1/2+y,1/2-z
1/2-x,1/2+y,z
1/2+x,1/2-y,z
loop_
_atom_site_type_symbol
_atom_site_label
_atom_site_fract_x
_atom_site_fract_y
_atom_site_fract_z
Si Si1 0.889933 0.665194 0.879955
Si Si2 0.353108 0.772194 0.256335
Si Si3 0.225179 0.500000 0.250000
Si Si4 0.590586 0.172235 0.391230
Si Si5 0.796402 0.810332 0.429508
Si Si6 0.599452 0.992485 0.136870
Si Si7 0.634578 0.387399 0.696433
Si Si8 0.000000 0.000000 0.250000
O O1 0.887654 0.680707 0.804225
O O2 0.807514 0.708441 0.913957
O O3 0.875454 0.574008 0.896012
O O4 0.986440 0.694789 0.903653
O O5 0.250000 0.750000 0.250000
O O6 0.380117 0.822524 0.317362
O O7 0.399343 0.688073 0.265271
O O8 0.166722 0.470920 0.307795
O O9 0.279768 0.576320 0.269200
O O10 0.652333 0.228333 0.432577
O O11 0.603483 0.081604 0.411387
O O12 0.803900 0.848130 0.500000
O O13 0.840681 0.866715 0.376949
O O14 0.500000 0.000000 0.165255
O O15 0.556487 0.449986 0.699807
#
# Coordination Sequence:
#
# PCOD8293423 Si02
#       8
#    16  16   8  16  16  16  16   4
#     4  11  21  37  60  91 124 162 196 252 324 365
#     4  11  18  33  57  91 126 156 196 249 314 367
#     4  11  17  31  57  88 124 156 187 243 315 369
#     4  10  22  35  61  89 123 158 201 256 308 369
#     4  11  24  44  62  85 122 169 220 255 299 370
#     4  10  19  32  53  93 126 148 184 241 313 381
#     4  10  22  37  59  92 123 161 201 254 312 375
#     4  10  24  40  64  96 130 158 198 254 340 378
#
# _framework density 19.880172999999999
#
# number of rings (size 3 to 8) (size 9 to 14) (size 15 to 20)
#    0.000    1.481    4.444    2.444    4.148    2.963 
#    0.000    1.111    0.000    2.667    0.000    0.000 
#    0.000    0.000    0.000    0.000    0.000    0.000 
#
# Total GULP energy -669162.510810 kJ/mol
# GULP energy per Si atom -12391.898348 kJ/mol
# Density = 1.983493 g / cm^3
# Si number density = 19.880173 Si / 1000 Ang^3
#
#
#
# Elastic Constant Matrix: (Units=GPa)
#
#
# Indices 1 2 3 4 5 6 
#
# 1 132.7339 43.2143 27.7116 0.0000 0.0000 0.0000
# 2 43.2143 113.5256 24.3325 0.0000 0.0000 0.0000
# 3 27.7116 24.3325 80.0359 0.0000 0.0000 0.0000
# 4 0.0000 0.0000 0.0000 11.6878 0.0000 0.0000
# 5 0.0000 0.0000 0.0000 0.0000 10.6814 0.0000
# 6 0.0000 0.0000 0.0000 0.0000 0.0000 23.6718
#
#
#
# Elastic Compliance Matrix: (Units=1/GPa)
#
#
# Indices 1 2 3 4 5 6 
#
# 1 0.008950 -0.002934 -0.002207 0.000000 0.000000 0.000000
# 2 -0.002934 0.010384 -0.002141 0.000000 0.000000 0.000000
# 3 -0.002207 -0.002141 0.013909 0.000000 0.000000 0.000000
# 4 0.000000 0.000000 0.000000 0.085559 0.000000 0.000000
# 5 0.000000 0.000000 0.000000 0.000000 0.093621 0.000000
# 6 0.000000 0.000000 0.000000 0.000000 0.000000 0.042244
#
#
# Mechanical properties :
#
#
# Convention : Reuss Voigt Hill
#
# Bulk Modulus (GPa) = 53.53377 57.42360 55.47868
# Shear Modulus (GPa) = 18.15158 24.61066 21.38112
#
# Velocity S-wave (km/s) = 3.02495 3.52227 3.28304
# Velocity P-wave (km/s) = 6.25996 6.74458 6.50678
#
# Compressibility (1/GPa) = 0.01867980
#
# Stress axis : x y z
#
# Youngs Moduli (GPa) = 111.73482 96.29922 71.89346
#
# Poissons Ratio (x) = 0.28252 0.15866
# Poissons Ratio (y) = 0.32781 0.15394
# Poissons Ratio (z) = 0.24658 0.20620
#
# Static dielectric constant tensor:
#      x y z
#    x 3.863160 0.000000 0.000000 
#    y 0.000000 3.891720 0.000000 
#    z 0.000000 0.000000 3.240250 
# 
# 
# High freq. dielectric constant tensor:
#      x y z
#    x 1.789190 0.000000 0.000000 
#    y 0.000000 1.785710 0.000000 
#    z 0.000000 0.000000 1.730560 
# 
# From -- ./inp_files/39249.got.cif
#   From: 2010.03.12/outbox.cif.g09.slc.cpg/sg72_20_cif.got.tgz:39249.got - 2010.04.16 14:54:00.
