data_PCOD8293341
_publ_section_title
;
Structure prediction by ZEFSAII (Michael W. Deem and Ramdas Pophale) SiO2 
 PCOD8293341
Probable space group: I B A M
;
_chemical_formula_sum "Si O2"
_cell_formula_units_Z 128
_cell_length_a 12.565110
_cell_length_b 24.103765
_cell_length_c 22.511725
_cell_angle_alpha 90.000000
_cell_angle_beta 90.000000
_cell_angle_gamma 90.000000
_cell_volume 6818.046429
_symmetry_space_group_name_H-M "I B A M"
_symmetry_group_IT_number 72
_symmetry_cell_setting 'orthorhombic'
loop_
_space_group_symop_operation_xyz
x,y,z
-x,-y,z
x,-y,1/2-z
-x,y,1/2-z
-x,-y,-z
x,y,-z
-x,y,1/2+z
x,-y,1/2+z
1/2+x,1/2+y,1/2+z
1/2-x,1/2-y,1/2+z
1/2+x,1/2-y,-z
1/2-x,1/2+y,-z
1/2-x,1/2-y,1/2-z
1/2+x,1/2+y,1/2-z
1/2-x,1/2+y,z
1/2+x,1/2-y,z
loop_
_atom_site_type_symbol
_atom_site_label
_atom_site_fract_x
_atom_site_fract_y
_atom_site_fract_z
Si Si1 0.374918 0.438746 0.757052
Si Si2 0.239102 0.212203 0.570237
Si Si3 0.318047 0.835390 0.429581
Si Si4 0.324701 0.532265 0.380880
Si Si5 0.397258 0.030353 0.433551
Si Si6 0.439701 0.627786 0.567770
Si Si7 0.646518 0.406167 0.866685
Si Si8 0.447419 0.158004 0.566148
O O1 0.325266 0.500000 0.750000
O O2 0.500000 0.439534 0.750000
O O3 0.340684 0.425205 0.824528
O O4 0.332795 0.397861 0.704572
O O5 0.244412 0.202951 0.500000
O O6 0.230593 0.276229 0.588066
O O7 0.137683 0.176576 0.592505
O O8 0.350984 0.190829 0.598729
O O9 0.318303 0.845949 0.500000
O O10 0.251153 0.885023 0.400302
O O11 0.437737 0.836030 0.402454
O O12 0.201815 0.518220 0.391453
O O13 0.377597 0.568479 0.433295
O O14 0.380156 0.471870 0.375722
O O15 0.375773 0.006595 0.500000
O O16 0.415202 0.094895 0.436592
O O17 0.500000 0.000000 0.405730
O O18 0.476007 0.639819 0.500000
O O19 0.544252 0.627275 0.609332
O O20 0.461028 0.182887 0.500000
#
# Coordination Sequence:
#
# PCOD8293341 Si02
#       8
#    16  16  16  16  16  16  16  16
#     4   9  18  35  54  74 103 145 189 221 267 333
#     4   9  19  34  51  75 108 148 188 218 266 339
#     4  10  21  34  53  79 111 148 182 229 282 328
#     4  11  20  34  55  80 111 149 184 225 277 340
#     4  10  19  31  51  80 115 149 180 217 275 349
#     4  11  21  32  51  83 115 143 177 226 282 337
#     4  11  22  34  53  82 112 139 184 235 280 325
#     4   9  17  32  49  70 104 145 182 210 257 335
#
# _framework density 18.773706000000001
#
# number of rings (size 3 to 8) (size 9 to 14) (size 15 to 20)
#    0.000    2.000    2.500    1.875    1.750    3.500 
#    0.000    0.000    0.000    9.375    0.000    0.000 
#    0.000    0.000    0.000    0.000    0.000    0.000 
#
# Total GULP energy -793099.686227 kJ/mol
# GULP energy per Si atom -12392.182597 kJ/mol
# Density = 1.873098 g / cm^3
# Si number density = 18.773706 Si / 1000 Ang^3
#
#
#
# Elastic Constant Matrix: (Units=GPa)
#
#
# Indices 1 2 3 4 5 6 
#
# 1 114.6106 12.6898 38.7758 0.0000 0.0000 0.0000
# 2 12.6898 59.0258 21.6586 0.0000 0.0000 0.0000
# 3 38.7758 21.6586 69.7116 0.0000 0.0000 0.0000
# 4 0.0000 0.0000 0.0000 14.7021 0.0000 0.0000
# 5 0.0000 0.0000 0.0000 0.0000 18.1062 0.0000
# 6 0.0000 0.0000 0.0000 0.0000 0.0000 24.8867
#
#
#
# Elastic Compliance Matrix: (Units=1/GPa)
#
#
# Indices 1 2 3 4 5 6 
#
# 1 0.010749 -0.000132 -0.005938 0.000000 0.000000 0.000000
# 2 -0.000132 0.019123 -0.005868 0.000000 0.000000 0.000000
# 3 -0.005938 -0.005868 0.019471 0.000000 0.000000 0.000000
# 4 0.000000 0.000000 0.000000 0.068017 0.000000 0.000000
# 5 0.000000 0.000000 0.000000 0.000000 0.055230 0.000000
# 6 0.000000 0.000000 0.000000 0.000000 0.000000 0.040182
#
#
# Mechanical properties :
#
#
# Convention : Reuss Voigt Hill
#
# Bulk Modulus (GPa) = 39.26624 43.28852 41.27738
# Shear Modulus (GPa) = 20.39681 22.88726 21.64204
#
# Velocity S-wave (km/s) = 3.29972 3.49537 3.39895
# Velocity P-wave (km/s) = 5.95638 6.27680 6.11869
#
# Compressibility (1/GPa) = 0.02546717
#
# Stress axis : x y z
#
# Youngs Moduli (GPa) = 93.03437 52.29232 51.35931
#
# Poissons Ratio (x) = 0.00691 0.30496
# Poissons Ratio (y) = 0.01229 0.30137
# Poissons Ratio (z) = 0.55241 0.30685
#
# Static dielectric constant tensor:
#      x y z
#    x 3.200830 0.000000 0.000000 
#    y 0.000000 3.321520 0.000000 
#    z 0.000000 0.000000 3.475710 
# 
# 
# High freq. dielectric constant tensor:
#      x y z
#    x 1.739210 0.000000 0.000000 
#    y 0.000000 1.717090 0.000000 
#    z 0.000000 0.000000 1.681370 
# 
# From -- ./inp_files/43684.got.cif
#   From: 2010.03.12/outbox.cif.g09.slc.cpg/sg72_22_cif.got.tgz:43684.got - 2010.04.16 14:54:00.
