data_PCOD8293264
_publ_section_title
;
Structure prediction by ZEFSAII (Michael W. Deem and Ramdas Pophale) SiO2 
 PCOD8293264
Probable space group: I B A M
;
_chemical_formula_sum "Si O2"
_cell_formula_units_Z 96
_cell_length_a 19.981168
_cell_length_b 30.380992
_cell_length_c 9.200294
_cell_angle_alpha 90.000000
_cell_angle_beta 90.000000
_cell_angle_gamma 90.000000
_cell_volume 5585.017359
_symmetry_space_group_name_H-M "I B A M"
_symmetry_group_IT_number 72
_symmetry_cell_setting 'orthorhombic'
loop_
_space_group_symop_operation_xyz
x,y,z
-x,-y,z
x,-y,1/2-z
-x,y,1/2-z
-x,-y,-z
x,y,-z
-x,y,1/2+z
x,-y,1/2+z
1/2+x,1/2+y,1/2+z
1/2-x,1/2-y,1/2+z
1/2+x,1/2-y,-z
1/2-x,1/2+y,-z
1/2-x,1/2-y,1/2-z
1/2+x,1/2+y,1/2-z
1/2-x,1/2+y,z
1/2+x,1/2-y,z
loop_
_atom_site_type_symbol
_atom_site_label
_atom_site_fract_x
_atom_site_fract_y
_atom_site_fract_z
Si Si1 0.168699 0.040076 0.840983
Si Si2 0.566184 0.702681 0.330080
Si Si3 0.172624 0.541654 0.163831
Si Si4 0.181278 0.136320 0.827249
Si Si5 0.818619 0.629821 0.172111
Si Si6 0.565590 0.802909 0.331453
O O1 0.248261 0.035975 0.846056
O O2 0.151276 0.088645 0.779224
O O3 0.136949 0.000000 0.750000
O O4 0.137354 0.034865 0.000000
O O5 0.500000 0.685370 0.250000
O O6 0.553286 0.697585 0.500000
O O7 0.628907 0.673439 0.280688
O O8 0.582162 0.752832 0.285018
O O9 0.141448 0.500000 0.250000
O O10 0.154465 0.585376 0.253455
O O11 0.142703 0.544127 0.000000
O O12 0.248923 0.145936 0.740016
O O13 0.196961 0.136036 0.000000
O O14 0.871137 0.667782 0.210250
O O15 0.810411 0.622097 0.000000
O O16 0.500000 0.820634 0.250000
O O17 0.548959 0.805909 0.500000
#
# Coordination Sequence:
#
# PCOD8293264 Si02
#       6
#    16  16  16  16  16  16
#     4   8  14  24  39  61  88 118 150 183 222 269
#     4   9  18  34  52  69  92 123 160 199 240 289
#     4   9  16  27  44  67  95 127 159 191 232 279
#     4   9  18  31  47  69  97 126 156 195 243 287
#     4  10  19  30  46  72 101 125 156 197 237 280
#     4   9  19  34  51  70  93 124 160 197 238 287
#
# _framework density 17.188846000000002
#
# number of rings (size 3 to 8) (size 9 to 14) (size 15 to 20)
#    0.000    3.000    0.000    2.000    0.000    6.667 
#    0.000    0.000    0.000    1.000    0.000    7.000 
#    0.000    0.000    0.000    0.000    0.000    0.000 
#
# Total GULP energy -595038.393971 kJ/mol
# GULP energy per Si atom -12396.633208 kJ/mol
# Density = 1.714972 g / cm^3
# Si number density = 17.188846 Si / 1000 Ang^3
#
#
#
# Elastic Constant Matrix: (Units=GPa)
#
#
# Indices 1 2 3 4 5 6 
#
# 1 83.1781 71.9587 51.6200 0.0000 0.0000 0.0000
# 2 71.9587 126.0791 60.2694 0.0000 0.0000 0.0000
# 3 51.6200 60.2694 81.7111 0.0001 0.0002 0.0001
# 4 0.0000 0.0000 0.0001 28.3125 0.0000 0.0000
# 5 0.0000 0.0000 0.0002 0.0000 22.7156 0.0000
# 6 0.0000 0.0000 0.0001 0.0000 0.0000 2.5190
#
#
#
# Elastic Compliance Matrix: (Units=1/GPa)
#
#
# Indices 1 2 3 4 5 6 
#
# 1 0.027396 -0.011373 -0.008919 0.000000 0.000000 0.000000
# 2 -0.011373 0.016972 -0.005334 0.000000 0.000000 0.000000
# 3 -0.008919 -0.005334 0.021807 0.000000 0.000000 0.000000
# 4 0.000000 0.000000 0.000000 0.035320 0.000000 0.000000
# 5 0.000000 0.000000 0.000000 0.000000 0.044023 -0.000001
# 6 0.000000 0.000000 0.000000 0.000000 -0.000001 0.396984
#
#
# Mechanical properties :
#
#
# Convention : Reuss Voigt Hill
#
# Bulk Modulus (GPa) = 67.00494 73.18494 70.09494
# Shear Modulus (GPa) = 8.35106 17.85077 13.10092
#
# Velocity S-wave (km/s) = 2.20657 3.22609 2.76375
# Velocity P-wave (km/s) = 6.74968 7.51973 7.14509
#
# Compressibility (1/GPa) = 0.01492427
#
# Stress axis : x y z
#
# Youngs Moduli (GPa) = 36.50173 58.92007 45.85714
#
# Poissons Ratio (x) = 0.67008 0.40899
# Poissons Ratio (y) = 0.41512 0.24460
# Poissons Ratio (z) = 0.32555 0.31428
#
# Static dielectric constant tensor:
#      x y z
#    x 2.833220 0.000000 0.000000 
#    y 0.000000 3.468830 0.000000 
#    z 0.000000 0.000000 3.331840 
# 
# 
# High freq. dielectric constant tensor:
#      x y z
#    x 1.618220 0.000000 0.000000 
#    y 0.000000 1.675180 0.000000 
#    z 0.000000 0.000000 1.668160 
# 
# From -- ./inp_files/6016.got.cif
#   From: 2010.03.12/outbox.cif.g09.slc.cpg/sg72_4_cif.got.tgz:6016.got - 2010.04.16 14:54:00.
