data_PCOD8293469
_publ_section_title
;
Structure prediction by ZEFSAII (Michael W. Deem and Ramdas Pophale) SiO2 
 PCOD8293469
Probable space group: I B A M
;
_chemical_formula_sum "Si O2"
_cell_formula_units_Z 112
_cell_length_a 11.396009
_cell_length_b 30.869920
_cell_length_c 16.769366
_cell_angle_alpha 90.000000
_cell_angle_beta 90.000000
_cell_angle_gamma 90.000000
_cell_volume 5899.360433
_symmetry_space_group_name_H-M "I B A M"
_symmetry_group_IT_number 72
_symmetry_cell_setting 'orthorhombic'
loop_
_space_group_symop_operation_xyz
x,y,z
-x,-y,z
x,-y,1/2-z
-x,y,1/2-z
-x,-y,-z
x,y,-z
-x,y,1/2+z
x,-y,1/2+z
1/2+x,1/2+y,1/2+z
1/2-x,1/2-y,1/2+z
1/2+x,1/2-y,-z
1/2-x,1/2+y,-z
1/2-x,1/2-y,1/2-z
1/2+x,1/2+y,1/2-z
1/2-x,1/2+y,z
1/2+x,1/2-y,z
loop_
_atom_site_type_symbol
_atom_site_label
_atom_site_fract_x
_atom_site_fract_y
_atom_site_fract_z
Si Si1 0.386954 0.167503 0.905348
Si Si2 0.487996 0.451103 0.593286
Si Si3 0.650348 0.379841 0.672674
Si Si4 0.347061 0.834453 0.094416
Si Si5 0.983387 0.820030 0.910647
Si Si6 0.189477 0.111514 0.858043
Si Si7 0.788866 0.240156 0.594268
O O1 0.519714 0.167410 0.873342
O O2 0.325958 0.122938 0.872886
O O3 0.317219 0.210129 0.871303
O O4 0.387485 0.167551 0.000000
O O5 0.500000 0.500000 0.624429
O O6 0.514261 0.447990 0.500000
O O7 0.584544 0.421625 0.637648
O O8 0.354131 0.436126 0.614267
O O9 0.781400 0.374900 0.636418
O O10 0.584518 0.335314 0.648842
O O11 0.653171 0.382589 0.766838
O O12 0.279892 0.790056 0.120432
O O13 0.343982 0.841226 0.000000
O O14 0.881873 0.856102 0.915130
O O15 0.918835 0.776613 0.879214
O O16 0.036678 0.813890 0.000000
O O17 0.784351 0.235881 0.500000
#
# Coordination Sequence:
#
# PCOD8293469 Si02
#       7
#    16  16  16  16  16  16  16
#     4   9  18  34  53  71  99 141 190 227 261 310
#     4  10  20  36  61  89 109 128 164 212 259 313
#     4  11  21  31  50  77 112 142 166 212 268 323
#     4  10  20  32  50  74 101 139 185 230 267 301
#     4   9  16  30  51  71  96 131 177 221 259 306
#     4  10  19  33  52  74 107 142 171 203 259 322
#     4   8  16  29  49  73  94 128 184 237 266 295
#
# _framework density 18.985109999999999
#
# number of rings (size 3 to 8) (size 9 to 14) (size 15 to 20)
#    0.000    2.429    0.000    6.000    2.000    1.714 
#    0.000    2.857    6.286    0.857    0.000    6.000 
#    0.000    0.000    0.000    0.000    0.000    0.000 
#
# Total GULP energy -693896.538465 kJ/mol
# GULP energy per Si atom -12391.009615 kJ/mol
# Density = 1.894190 g / cm^3
# Si number density = 18.985110 Si / 1000 Ang^3
#
#
#
# Elastic Constant Matrix: (Units=GPa)
#
#
# Indices 1 2 3 4 5 6 
#
# 1 111.2984 50.5006 16.9784 0.0000 0.0000 0.0000
# 2 50.5006 98.8421 16.1447 0.0001 0.0000 0.0000
# 3 16.9784 16.1447 49.4351 0.0004 0.0000 -0.0001
# 4 0.0000 0.0001 0.0004 6.4700 -0.0001 0.0000
# 5 0.0000 0.0000 0.0000 -0.0001 19.6826 0.0000
# 6 0.0000 0.0000 -0.0001 0.0000 0.0000 22.5602
#
#
#
# Elastic Compliance Matrix: (Units=1/GPa)
#
#
# Indices 1 2 3 4 5 6 
#
# 1 0.011923 -0.005729 -0.002224 0.000000 0.000000 0.000000
# 2 -0.005729 0.013440 -0.002422 0.000000 0.000000 0.000000
# 3 -0.002224 -0.002422 0.021783 -0.000001 0.000000 0.000000
# 4 0.000000 0.000000 -0.000001 0.154560 0.000000 0.000000
# 5 0.000000 0.000000 0.000000 0.000000 0.050806 0.000000
# 6 0.000000 0.000000 0.000000 0.000000 0.000000 0.044326
#
#
# Mechanical properties :
#
#
# Convention : Reuss Voigt Hill
#
# Bulk Modulus (GPa) = 37.88261 47.42477 42.65369
# Shear Modulus (GPa) = 15.31924 21.47269 18.39596
#
# Velocity S-wave (km/s) = 2.84369 3.36672 3.11620
# Velocity P-wave (km/s) = 5.54791 6.33619 5.95511
#
# Compressibility (1/GPa) = 0.02639733
#
# Stress axis : x y z
#
# Youngs Moduli (GPa) = 83.86812 74.40701 45.90671
#
# Poissons Ratio (x) = 0.42625 0.10211
# Poissons Ratio (y) = 0.48045 0.11117
# Poissons Ratio (z) = 0.18654 0.18019
#
# Static dielectric constant tensor:
#      x y z
#    x 3.830380 0.000000 0.000000 
#    y 0.000000 3.508950 0.000000 
#    z 0.000000 0.000000 3.220120 
# 
# 
# High freq. dielectric constant tensor:
#      x y z
#    x 1.735840 0.000000 0.000000 
#    y 0.000000 1.706390 0.000000 
#    z 0.000000 0.000000 1.722260 
# 
# From -- ./inp_files/20702.got.cif
#   From: 2010.03.12/outbox.cif.g09.slc.cpg/sg72_11_cif.got.tgz:20702.got - 2010.04.16 14:54:00.
