data_PCOD8293799
_publ_section_title
;
Structure prediction by ZEFSAII (Michael W. Deem and Ramdas Pophale) SiO2 
 PCOD8293799
Probable space group: I B A M
;
_chemical_formula_sum "Si O2"
_cell_formula_units_Z 112
_cell_length_a 14.645608
_cell_length_b 12.513882
_cell_length_c 27.713649
_cell_angle_alpha 90.000000
_cell_angle_beta 90.000000
_cell_angle_gamma 90.000000
_cell_volume 5079.174965
_symmetry_space_group_name_H-M "I B A M"
_symmetry_group_IT_number 72
_symmetry_cell_setting 'orthorhombic'
loop_
_space_group_symop_operation_xyz
x,y,z
-x,-y,z
x,-y,1/2-z
-x,y,1/2-z
-x,-y,-z
x,y,-z
-x,y,1/2+z
x,-y,1/2+z
1/2+x,1/2+y,1/2+z
1/2-x,1/2-y,1/2+z
1/2+x,1/2-y,-z
1/2-x,1/2+y,-z
1/2-x,1/2-y,1/2-z
1/2+x,1/2+y,1/2-z
1/2-x,1/2+y,z
1/2+x,1/2-y,z
loop_
_atom_site_type_symbol
_atom_site_label
_atom_site_fract_x
_atom_site_fract_y
_atom_site_fract_z
Si Si1 0.713522 0.966420 0.846687
Si Si2 0.401897 0.463724 0.195139
Si Si3 0.059326 0.398409 0.867409
Si Si4 0.219563 0.960330 0.446301
Si Si5 0.396194 0.667997 0.446325
Si Si6 0.892003 0.734961 0.654423
Si Si7 0.596306 0.264075 0.053294
O O1 0.704108 0.973822 0.905200
O O2 0.680939 0.851867 0.826455
O O3 0.817878 0.980535 0.831732
O O4 0.641074 0.059905 0.831456
O O5 0.500000 0.500000 0.172892
O O6 0.396945 0.500000 0.250000
O O7 0.389951 0.336915 0.189395
O O8 0.104196 0.337764 0.912390
O O9 0.000000 0.500000 0.885264
O O10 0.993504 0.314537 0.840392
O O11 0.262718 0.967645 0.500000
O O12 0.178656 0.843770 0.436340
O O13 0.140421 0.048628 0.440127
O O14 0.367621 0.713577 0.500000
O O15 0.362367 0.739409 0.401114
O O16 0.505059 0.665552 0.441508
O O17 0.604840 0.215218 0.000000
#
# Coordination Sequence:
#
# PCOD8293799 Si02
#       7
#    16  16  16  16  16  16  16
#     4  11  24  40  66  99 132 176 215 261 327 384
#     4  11  27  48  70  99 125 157 212 269 329 394
#     4   9  21  39  59  92 130 173 220 259 314 386
#     4  10  20  31  51  91 135 172 221 271 314 371
#     4   9  17  32  54  87 132 176 221 264 312 374
#     4  10  22  41  68  96 133 177 213 266 321 376
#     4   9  18  30  52  84 124 178 226 267 317 364
#
# _framework density 22.050826000000001
#
# number of rings (size 3 to 8) (size 9 to 14) (size 15 to 20)
#    0.000    2.143    1.429    0.429    6.000    3.714 
#    0.000    7.143    0.000    3.000    0.000    0.000 
#    0.000    0.000    0.000    0.000    0.000    0.000 
#
# Total GULP energy -693917.250395 kJ/mol
# GULP energy per Si atom -12391.379471 kJ/mol
# Density = 2.200064 g / cm^3
# Si number density = 22.050826 Si / 1000 Ang^3
#
#
#
# Elastic Constant Matrix: (Units=GPa)
#
#
# Indices 1 2 3 4 5 6 
#
# 1 108.3139 52.8952 32.4874 0.0000 0.0000 0.0000
# 2 52.8952 134.0979 42.2433 0.0000 0.0000 0.0000
# 3 32.4874 42.2433 72.5489 0.0000 0.0000 0.0000
# 4 0.0000 0.0000 0.0000 16.1238 0.0000 0.0000
# 5 0.0000 0.0000 0.0000 0.0000 15.8011 0.0000
# 6 0.0000 0.0000 0.0000 0.0000 0.0000 28.9894
#
#
#
# Elastic Compliance Matrix: (Units=1/GPa)
#
#
# Indices 1 2 3 4 5 6 
#
# 1 0.012016 -0.003729 -0.003210 0.000000 0.000000 0.000000
# 2 -0.003729 0.010289 -0.004322 0.000000 0.000000 0.000000
# 3 -0.003210 -0.004322 0.017737 0.000000 0.000000 0.000000
# 4 0.000000 0.000000 0.000000 0.062020 0.000000 0.000000
# 5 0.000000 0.000000 0.000000 0.000000 0.063287 0.000000
# 6 0.000000 0.000000 0.000000 0.000000 0.000000 0.034495
#
#
# Mechanical properties :
#
#
# Convention : Reuss Voigt Hill
#
# Bulk Modulus (GPa) = 57.06759 63.35694 60.21226
# Shear Modulus (GPa) = 21.91007 24.67187 23.29097
#
# Velocity S-wave (km/s) = 3.15559 3.34857 3.25351
# Velocity P-wave (km/s) = 6.26204 6.61401 6.44043
#
# Compressibility (1/GPa) = 0.01752308
#
# Stress axis : x y z
#
# Youngs Moduli (GPa) = 83.22236 97.18770 56.37796
#
# Poissons Ratio (x) = 0.36238 0.18096
# Poissons Ratio (y) = 0.31031 0.24364
# Poissons Ratio (z) = 0.26712 0.42000
#
# Static dielectric constant tensor:
#      x y z
#    x 3.975440 0.000000 0.000000 
#    y 0.000000 4.013880 0.000000 
#    z 0.000000 0.000000 3.775590 
# 
# 
# High freq. dielectric constant tensor:
#      x y z
#    x 1.871140 0.000000 0.000000 
#    y 0.000000 1.875730 0.000000 
#    z 0.000000 0.000000 1.830400 
# 
# From -- ./inp_files/51792.got.cif
#   From: 2010.03.12/outbox.cif.g09.slc.cpg/sg72_26_cif.got.tgz:51792.got - 2010.04.16 14:54:00.
