data_PCOD8293850
_publ_section_title
;
Structure prediction by ZEFSAII (Michael W. Deem and Ramdas Pophale) SiO2 
 PCOD8293850
Probable space group: I B A M
;
_chemical_formula_sum "Si O2"
_cell_formula_units_Z 96
_cell_length_a 31.023192
_cell_length_b 19.566697
_cell_length_c 8.760755
_cell_angle_alpha 90.000000
_cell_angle_beta 90.000000
_cell_angle_gamma 90.000000
_cell_volume 5317.965746
_symmetry_space_group_name_H-M "I B A M"
_symmetry_group_IT_number 72
_symmetry_cell_setting 'orthorhombic'
loop_
_space_group_symop_operation_xyz
x,y,z
-x,-y,z
x,-y,1/2-z
-x,y,1/2-z
-x,-y,-z
x,y,-z
-x,y,1/2+z
x,-y,1/2+z
1/2+x,1/2+y,1/2+z
1/2-x,1/2-y,1/2+z
1/2+x,1/2-y,-z
1/2-x,1/2+y,-z
1/2-x,1/2-y,1/2-z
1/2+x,1/2+y,1/2-z
1/2-x,1/2+y,z
1/2+x,1/2-y,z
loop_
_atom_site_type_symbol
_atom_site_label
_atom_site_fract_x
_atom_site_fract_y
_atom_site_fract_z
Si Si1 0.541156 0.327825 0.824103
Si Si2 0.135218 0.180192 0.821293
Si Si3 0.959354 0.319662 0.823359
Si Si4 0.292828 0.572217 0.819404
Si Si5 0.136320 0.672882 0.823889
Si Si6 0.797925 0.427880 0.679875
O O1 0.500000 0.367704 0.750000
O O2 0.588976 0.356977 0.786675
O O3 0.542061 0.250573 0.767685
O O4 0.531413 0.329960 0.000000
O O5 0.172056 0.127935 0.771096
O O6 0.140845 0.248157 0.722106
O O7 0.138231 0.199603 0.000000
O O8 0.912740 0.355056 0.800969
O O9 0.000000 0.362264 0.750000
O O10 0.968345 0.305717 0.000000
O O11 0.307218 0.500000 0.750000
O O12 0.247293 0.596209 0.751138
O O13 0.288662 0.564927 0.000000
O O14 0.166461 0.628307 0.716359
O O15 0.150351 0.665335 0.000000
O O16 0.812593 0.500000 0.750000
O O17 0.792606 0.436025 0.500000
#
# Coordination Sequence:
#
# PCOD8293850 Si02
#       6
#    16  16  16  16  16  16
#     4   9  15  25  42  66  96 128 162 198 240 288
#     4   9  19  33  50  74 103 133 165 205 250 294
#     4   9  16  26  43  68  98 130 162 197 238 285
#     4  10  20  36  55  74  98 129 167 207 249 299
#     4  10  20  33  51  77 105 132 166 206 246 290
#     4  11  22  37  56  75  98 130 166 203 247 298
#
# _framework density 18.052015999999998
#
# number of rings (size 3 to 8) (size 9 to 14) (size 15 to 20)
#    0.000    2.333    0.000    5.500    0.000    4.667 
#    0.000    0.000    0.000    1.000    0.000    7.000 
#    0.000    0.000    0.000    0.000    0.000    0.000 
#
# Total GULP energy -594822.736673 kJ/mol
# GULP energy per Si atom -12392.140347 kJ/mol
# Density = 1.801093 g / cm^3
# Si number density = 18.052016 Si / 1000 Ang^3
#
#
#
# Elastic Constant Matrix: (Units=GPa)
#
#
# Indices 1 2 3 4 5 6 
#
# 1 145.9563 58.6501 56.1858 0.0000 0.0000 0.0000
# 2 58.6501 52.7342 33.1690 0.0000 0.0000 0.0000
# 3 56.1858 33.1690 90.8371 0.0000 0.0000 0.0000
# 4 0.0000 0.0000 0.0000 23.1673 0.0000 0.0000
# 5 0.0000 0.0000 0.0000 0.0000 31.7612 0.0000
# 6 0.0000 0.0000 0.0000 0.0000 0.0000 -1.1038
#
#
#
# Elastic Compliance Matrix: (Units=1/GPa)
#
#
# Indices 1 2 3 4 5 6 
#
# 1 0.013262 -0.012449 -0.003657 0.000000 0.000000 0.000000
# 2 -0.012449 0.036303 -0.005556 0.000000 0.000000 0.000000
# 3 -0.003657 -0.005556 0.015299 0.000000 0.000000 0.000000
# 4 0.000000 0.000000 0.000000 0.043164 0.000000 0.000000
# 5 0.000000 0.000000 0.000000 0.000000 0.031485 0.000000
# 6 0.000000 0.000000 0.000000 0.000000 0.000000 -0.905999
#
#
# Mechanical properties :
#
#
# Convention : Reuss Voigt Hill
#
# Bulk Modulus (GPa) = 46.42450 65.05970 55.74210
# Shear Modulus (GPa) = -6.98342 20.19980 6.60819
#
# Velocity S-wave (km/s) = -1.96898 3.34874 1.91535
# Velocity P-wave (km/s) = 4.53913 7.14636 5.98641
#
# Compressibility (1/GPa) = 0.02154035
#
# Stress axis : x y z
#
# Youngs Moduli (GPa) = 75.40575 27.54571 65.36209
#
# Poissons Ratio (x) = 0.34292 0.23903
# Poissons Ratio (y) = 0.93874 0.36314
# Poissons Ratio (z) = 0.27576 0.15304
#
# Static dielectric constant tensor:
#      x y z
#    x 4.262900 0.000000 0.000000 
#    y 0.000000 2.864050 0.000000 
#    z 0.000000 0.000000 3.452140 
# 
# 
# High freq. dielectric constant tensor:
#      x y z
#    x 1.725770 0.000000 0.000000 
#    y 0.000000 1.641470 0.000000 
#    z 0.000000 0.000000 1.716660 
# 
# From -- ./inp_files/8272.got.cif
#   From: 2010.03.12/outbox.cif.g09.slc.cpg/sg72_5_cif.got.tgz:8272.got - 2010.04.16 14:54:00.
