data_PCOD8293919
_publ_section_title
;
Structure prediction by ZEFSAII (Michael W. Deem and Ramdas Pophale) SiO2 
 PCOD8293919
Probable space group: I B A M
;
_chemical_formula_sum "Si O2"
_cell_formula_units_Z 88
_cell_length_a 34.094539
_cell_length_b 5.673978
_cell_length_c 22.634629
_cell_angle_alpha 90.000000
_cell_angle_beta 90.000000
_cell_angle_gamma 90.000000
_cell_volume 4378.706649
_symmetry_space_group_name_H-M "I B A M"
_symmetry_group_IT_number 72
_symmetry_cell_setting 'orthorhombic'
loop_
_space_group_symop_operation_xyz
x,y,z
-x,-y,z
x,-y,1/2-z
-x,y,1/2-z
-x,-y,-z
x,y,-z
-x,y,1/2+z
x,-y,1/2+z
1/2+x,1/2+y,1/2+z
1/2-x,1/2-y,1/2+z
1/2+x,1/2-y,-z
1/2-x,1/2+y,-z
1/2-x,1/2-y,1/2-z
1/2+x,1/2+y,1/2-z
1/2-x,1/2+y,z
1/2+x,1/2-y,z
loop_
_atom_site_type_symbol
_atom_site_label
_atom_site_fract_x
_atom_site_fract_y
_atom_site_fract_z
Si Si1 0.266838 0.720015 0.931071
Si Si2 0.647757 0.423793 0.066277
Si Si3 0.539991 0.632149 0.327524
Si Si4 0.069505 0.381839 0.066234
Si Si5 0.420335 0.000000 0.250000
Si Si6 0.397878 0.260084 0.142047
O O1 0.249597 0.469961 0.904261
O O2 0.313299 0.721380 0.917941
O O3 0.256467 0.720453 0.000000
O O4 0.610841 0.252137 0.070170
O O5 0.642168 0.635914 0.113820
O O6 0.651551 0.530984 0.000000
O O7 0.500000 0.500000 0.314051
O O8 0.537107 0.765633 0.390825
O O9 0.576625 0.460735 0.328487
O O10 0.549300 0.804337 0.273247
O O11 0.077501 0.646573 0.088153
O O12 0.052509 0.384930 0.000000
O O13 0.391325 0.923990 0.304019
#
# Coordination Sequence:
#
# PCOD8293919 Si02
#       6
#    16  16  16  16   8  16
#     4   9  18  30  48  79 115 150 187 228 280 339
#     4   9  18  32  52  76 110 148 182 225 272 332
#     4  10  22  38  55  78 107 139 180 228 283 332
#     4   9  19  34  53  79 110 146 183 218 270 336
#     4  10  22  37  54  76 104 136 182 236 284 332
#     4  10  20  34  53  77 104 140 187 227 281 328
#
# _framework density 20.097259999999999
#
# number of rings (size 3 to 8) (size 9 to 14) (size 15 to 20)
#    0.000    2.545    0.000    1.091    2.545    6.182 
#    0.000    0.909    0.000    0.000    0.000    1.273 
#    0.000    0.000    0.000    0.000    0.000    0.000 
#
# Total GULP energy -545190.313830 kJ/mol
# GULP energy per Si atom -12390.688951 kJ/mol
# Density = 2.005152 g / cm^3
# Si number density = 20.097260 Si / 1000 Ang^3
#
#
#
# Elastic Constant Matrix: (Units=GPa)
#
#
# Indices 1 2 3 4 5 6 
#
# 1 58.1095 16.8352 11.9627 0.0000 0.0000 0.0000
# 2 16.8352 95.9870 23.7069 0.0000 0.0000 0.0000
# 3 11.9627 23.7069 103.2115 0.0000 0.0000 0.0000
# 4 0.0000 0.0000 0.0000 30.3296 0.0000 0.0000
# 5 0.0000 0.0000 0.0000 0.0000 14.1735 0.0000
# 6 0.0000 0.0000 0.0000 0.0000 0.0000 21.2648
#
#
#
# Elastic Compliance Matrix: (Units=1/GPa)
#
#
# Indices 1 2 3 4 5 6 
#
# 1 0.018338 -0.002853 -0.001470 0.000000 0.000000 0.000000
# 2 -0.002853 0.011489 -0.002308 0.000000 0.000000 0.000000
# 3 -0.001470 -0.002308 0.010389 0.000000 0.000000 0.000000
# 4 0.000000 0.000000 0.000000 0.032971 0.000000 0.000000
# 5 0.000000 0.000000 0.000000 0.000000 0.070554 0.000000
# 6 0.000000 0.000000 0.000000 0.000000 0.000000 0.047026
#
#
# Mechanical properties :
#
#
# Convention : Reuss Voigt Hill
#
# Bulk Modulus (GPa) = 37.10141 40.25750 38.67946
# Shear Modulus (GPa) = 23.47258 26.80715 25.13986
#
# Velocity S-wave (km/s) = 3.42123 3.65618 3.54066
# Velocity P-wave (km/s) = 5.84016 6.15617 6.00024
#
# Compressibility (1/GPa) = 0.02695315
#
# Stress axis : x y z
#
# Youngs Moduli (GPa) = 54.53105 87.04305 96.25197
#
# Poissons Ratio (x) = 0.24836 0.14150
# Poissons Ratio (y) = 0.15559 0.22216
# Poissons Ratio (z) = 0.08017 0.20091
#
# Static dielectric constant tensor:
#      x y z
#    x 3.376660 0.000000 0.000000 
#    y 0.000000 4.055420 0.000000 
#    z 0.000000 0.000000 3.840330 
# 
# 
# High freq. dielectric constant tensor:
#      x y z
#    x 1.747920 0.000000 0.000000 
#    y 0.000000 1.801140 0.000000 
#    z 0.000000 0.000000 1.768490 
# 
# From -- ./inp_files/46138.got.cif
#   From: 2010.03.12/outbox.cif.g09.slc.cpg/sg72_24_cif.got.tgz:46138.got - 2010.04.16 14:54:00.
