data_PCOD8293213
_publ_section_title
;
Structure prediction by ZEFSAII (Michael W. Deem and Ramdas Pophale) SiO2 
 PCOD8293213
Probable space group: I B A M
;
_chemical_formula_sum "Si O2"
_cell_formula_units_Z 84
_cell_length_a 16.805726
_cell_length_b 10.161190
_cell_length_c 25.422273
_cell_angle_alpha 90.000000
_cell_angle_beta 90.000000
_cell_angle_gamma 90.000000
_cell_volume 4341.264319
_symmetry_space_group_name_H-M "I B A M"
_symmetry_group_IT_number 72
_symmetry_cell_setting 'orthorhombic'
loop_
_space_group_symop_operation_xyz
x,y,z
-x,-y,z
x,-y,1/2-z
-x,y,1/2-z
-x,-y,-z
x,y,-z
-x,y,1/2+z
x,-y,1/2+z
1/2+x,1/2+y,1/2+z
1/2-x,1/2-y,1/2+z
1/2+x,1/2-y,-z
1/2-x,1/2+y,-z
1/2-x,1/2-y,1/2-z
1/2+x,1/2+y,1/2-z
1/2-x,1/2+y,z
1/2+x,1/2-y,z
loop_
_atom_site_type_symbol
_atom_site_label
_atom_site_fract_x
_atom_site_fract_y
_atom_site_fract_z
Si Si1 0.436487 0.306855 0.500000
Si Si2 0.800101 0.936035 0.401862
Si Si3 0.637396 0.823416 0.289662
Si Si4 0.500000 0.000000 0.750000
Si Si5 0.816387 0.110543 0.788600
Si Si6 0.663119 0.732974 0.599588
Si Si7 0.602088 0.389655 0.500000
O O1 0.400882 0.246071 0.553427
O O2 0.531052 0.282988 0.500000
O O3 0.426369 0.461757 0.500000
O O4 0.848609 0.907989 0.347796
O O5 0.716028 0.863528 0.403013
O O6 0.847766 0.864899 0.447891
O O7 0.790118 0.094402 0.409269
O O8 0.558764 0.913287 0.286343
O O9 0.720337 0.902696 0.293957
O O10 0.648684 0.744845 0.234902
O O11 0.625562 0.731437 0.341459
O O12 0.849551 0.000000 0.750000
#
# Coordination Sequence:
#
# PCOD8293213 Si02
#       7
#     8  16  16   4  16  16   8
#     4   9  19  36  55  79 118 153 194 235 302 348
#     4  10  20  34  62  86 114 148 203 248 294 343
#     4  10  22  35  59  84 122 156 193 240 309 359
#     4  12  24  40  54  90 124 158 184 250 304 374
#     4  10  18  36  58  85 112 152 200 244 290 359
#     4  10  20  36  59  88 113 154 192 249 290 357
#     4   9  19  36  55  81 114 159 194 244 292 357
#
# _framework density 19.349201999999998
#
# number of rings (size 3 to 8) (size 9 to 14) (size 15 to 20)
#    0.000    2.095    2.857    0.571    0.000    1.524 
#    0.000    0.476    0.000    1.714    0.000    0.000 
#    0.000    0.000    0.000    0.000    0.000    0.000 
#
# Total GULP energy -520382.621775 kJ/mol
# GULP energy per Si atom -12390.062423 kJ/mol
# Density = 1.930516 g / cm^3
# Si number density = 19.349202 Si / 1000 Ang^3
#
#
#
# Elastic Constant Matrix: (Units=GPa)
#
#
# Indices 1 2 3 4 5 6 
#
# 1 79.4228 37.2467 42.1578 0.0000 0.0000 0.0000
# 2 37.2467 76.6919 29.6824 0.0000 0.0000 0.0000
# 3 42.1578 29.6824 168.1877 0.0000 0.0000 0.0000
# 4 0.0000 0.0000 0.0000 24.6835 0.0000 0.0000
# 5 0.0000 0.0000 0.0000 0.0000 26.5601 0.0000
# 6 0.0000 0.0000 0.0000 0.0000 0.0000 27.3595
#
#
#
# Elastic Compliance Matrix: (Units=1/GPa)
#
#
# Indices 1 2 3 4 5 6 
#
# 1 0.017724 -0.007393 -0.003138 0.000000 0.000000 0.000000
# 2 -0.007393 0.017079 -0.001161 0.000000 0.000000 0.000000
# 3 -0.003138 -0.001161 0.006937 0.000000 0.000000 0.000000
# 4 0.000000 0.000000 0.000000 0.040513 0.000000 0.000000
# 5 0.000000 0.000000 0.000000 0.000000 0.037650 0.000000
# 6 0.000000 0.000000 0.000000 0.000000 0.000000 0.036550
#
#
# Mechanical properties :
#
#
# Convention : Reuss Voigt Hill
#
# Bulk Modulus (GPa) = 54.47882 60.27513 57.37697
# Shear Modulus (GPa) = 26.88798 30.06830 28.47814
#
# Velocity S-wave (km/s) = 3.73180 3.94633 3.84057
# Velocity P-wave (km/s) = 6.83997 7.20996 7.02740
#
# Compressibility (1/GPa) = 0.01835576
#
# Stress axis : x y z
#
# Youngs Moduli (GPa) = 56.42187 58.55069 144.15138
#
# Poissons Ratio (x) = 0.43288 0.45232
# Poissons Ratio (y) = 0.41715 0.16736
# Poissons Ratio (z) = 0.17704 0.06798
#
# Static dielectric constant tensor:
#      x y z
#    x 3.372770 0.000000 0.000000 
#    y 0.000000 3.336410 0.000000 
#    z 0.000000 0.000000 4.123610 
# 
# 
# High freq. dielectric constant tensor:
#      x y z
#    x 1.717800 0.000000 0.000000 
#    y 0.000000 1.737780 0.000000 
#    z 0.000000 0.000000 1.776570 
# 
# From -- ./inp_files/44774.got.cif
#   From: 2010.03.12/outbox.cif.g09.slc.cpg/sg72_23_cif.got.tgz:44774.got - 2010.04.16 14:54:00.
