data_PCOD8293565
_publ_section_title
;
Structure prediction by ZEFSAII (Michael W. Deem and Ramdas Pophale) SiO2 
 PCOD8293565
Probable space group: I B A M
;
_chemical_formula_sum "Si O2"
_cell_formula_units_Z 80
_cell_length_a 27.556537
_cell_length_b 18.042266
_cell_length_c 8.560496
_cell_angle_alpha 90.000000
_cell_angle_beta 90.000000
_cell_angle_gamma 90.000000
_cell_volume 4256.127695
_symmetry_space_group_name_H-M "I B A M"
_symmetry_group_IT_number 72
_symmetry_cell_setting 'orthorhombic'
loop_
_space_group_symop_operation_xyz
x,y,z
-x,-y,z
x,-y,1/2-z
-x,y,1/2-z
-x,-y,-z
x,y,-z
-x,y,1/2+z
x,-y,1/2+z
1/2+x,1/2+y,1/2+z
1/2-x,1/2-y,1/2+z
1/2+x,1/2-y,-z
1/2-x,1/2+y,-z
1/2-x,1/2-y,1/2-z
1/2+x,1/2+y,1/2-z
1/2-x,1/2+y,z
1/2+x,1/2-y,z
loop_
_atom_site_type_symbol
_atom_site_label
_atom_site_fract_x
_atom_site_fract_y
_atom_site_fract_z
Si Si1 0.788191 0.921885 0.313898
Si Si2 0.049951 0.273577 0.684766
Si Si3 0.185981 0.373155 0.315374
Si Si4 0.913325 0.422941 0.315853
Si Si5 0.349424 0.714941 0.684001
O O1 0.785802 0.922103 0.500000
O O2 0.735443 0.907137 0.245534
O O3 0.824709 0.858957 0.247372
O O4 0.807818 0.000000 0.250000
O O5 0.049112 0.272714 0.500000
O O6 0.054937 0.357760 0.741277
O O7 0.095644 0.225343 0.748778
O O8 0.000000 0.238912 0.750000
O O9 0.180965 0.384842 0.500000
O O10 0.142842 0.416701 0.232007
O O11 0.183047 0.286181 0.269888
O O12 0.934217 0.500000 0.250000
O O13 0.918946 0.419868 0.500000
O O14 0.351970 0.707565 0.500000
#
# Coordination Sequence:
#
# PCOD8293565 Si02
#       5
#    16  16  16  16  16
#     4  11  21  34  51  76 106 139 172 210 254 303
#     4  10  20  37  57  79 101 129 168 214 262 311
#     4  10  19  34  53  76 104 139 176 213 251 299
#     4  11  21  34  51  75 106 142 176 212 251 297
#     4   8  18  35  55  75 102 134 170 212 255 300
#
# _framework density 18.796429
#
# number of rings (size 3 to 8) (size 9 to 14) (size 15 to 20)
#    0.000    2.000    0.000    6.000    0.000    0.400 
#    0.000   13.000    0.000    0.600    0.000    4.200 
#    0.000    0.000    0.000    0.000    0.000    0.000 
#
# Total GULP energy -496002.125134 kJ/mol
# GULP energy per Si atom -12400.053128 kJ/mol
# Density = 1.875365 g / cm^3
# Si number density = 18.796429 Si / 1000 Ang^3
#
#
#
# Elastic Constant Matrix: (Units=GPa)
#
#
# Indices 1 2 3 4 5 6 
#
# 1 73.7908 13.4619 5.7490 0.0000 0.0000 0.0000
# 2 13.4619 72.4701 -3.0014 0.0000 0.0000 0.0000
# 3 5.7490 -3.0014 52.7505 0.0000 0.0000 0.0000
# 4 0.0000 0.0000 0.0000 23.6615 0.0000 0.0000
# 5 0.0000 0.0000 0.0000 0.0000 25.8293 0.0000
# 6 0.0000 0.0000 0.0000 0.0000 0.0000 11.3960
#
#
#
# Elastic Compliance Matrix: (Units=1/GPa)
#
#
# Indices 1 2 3 4 5 6 
#
# 1 0.014177 -0.002704 -0.001699 0.000000 0.000000 0.000000
# 2 -0.002704 0.014347 0.001111 0.000000 0.000000 0.000000
# 3 -0.001699 0.001111 0.019206 0.000000 0.000000 0.000000
# 4 0.000000 0.000000 0.000000 0.042263 0.000000 0.000000
# 5 0.000000 0.000000 0.000000 0.000000 0.038716 0.000000
# 6 0.000000 0.000000 0.000000 0.000000 0.000000 0.087750
#
#
# Mechanical properties :
#
#
# Convention : Reuss Voigt Hill
#
# Bulk Modulus (GPa) = 24.30351 25.71448 25.00899
# Shear Modulus (GPa) = 21.11862 24.36414 22.74138
#
# Velocity S-wave (km/s) = 3.35557 3.60420 3.48210
# Velocity P-wave (km/s) = 5.28877 5.57051 5.43146
#
# Compressibility (1/GPa) = 0.04114631
#
# Stress axis : x y z
#
# Youngs Moduli (GPa) = 70.53434 69.70053 52.06828
#
# Poissons Ratio (x) = 0.18847 0.08846
# Poissons Ratio (y) = 0.19072 -0.05785
# Poissons Ratio (z) = 0.11984 -0.07744
#
# Static dielectric constant tensor:
#      x y z
#    x 3.840070 0.000000 0.000000 
#    y 0.000000 3.708320 0.000000 
#    z 0.000000 0.000000 3.365940 
# 
# 
# High freq. dielectric constant tensor:
#      x y z
#    x 1.727210 0.000000 0.000000 
#    y 0.000000 1.718700 0.000000 
#    z 0.000000 0.000000 1.727650 
# 
# From -- ./inp_files/4759.got.cif
#   From: 2010.03.12/outbox.cif.g09.slc.cpg/sg72_3_cif.got.tgz:4759.got - 2010.04.16 14:54:00.
