data_PCOD8293456
_publ_section_title
;
Structure prediction by ZEFSAII (Michael W. Deem and Ramdas Pophale) SiO2 
 PCOD8293456
Probable space group: I B A M
;
_chemical_formula_sum "Si O2"
_cell_formula_units_Z 80
_cell_length_a 19.708971
_cell_length_b 25.954326
_cell_length_c 8.721386
_cell_angle_alpha 90.000000
_cell_angle_beta 90.000000
_cell_angle_gamma 90.000000
_cell_volume 4461.277255
_symmetry_space_group_name_H-M "I B A M"
_symmetry_group_IT_number 72
_symmetry_cell_setting 'orthorhombic'
loop_
_space_group_symop_operation_xyz
x,y,z
-x,-y,z
x,-y,1/2-z
-x,y,1/2-z
-x,-y,-z
x,y,-z
-x,y,1/2+z
x,-y,1/2+z
1/2+x,1/2+y,1/2+z
1/2-x,1/2-y,1/2+z
1/2+x,1/2-y,-z
1/2-x,1/2+y,-z
1/2-x,1/2-y,1/2-z
1/2+x,1/2+y,1/2-z
1/2-x,1/2+y,z
1/2+x,1/2-y,z
loop_
_atom_site_type_symbol
_atom_site_label
_atom_site_fract_x
_atom_site_fract_y
_atom_site_fract_z
Si Si1 0.072402 0.054360 0.182143
Si Si2 0.172357 0.856081 0.318885
Si Si3 0.823578 0.753502 0.320729
Si Si4 0.674593 0.858966 0.179836
Si Si5 0.073086 0.445447 0.316461
O O1 0.126724 0.096513 0.236574
O O2 0.000000 0.070506 0.250000
O O3 0.096787 0.000000 0.250000
O O4 0.066950 0.050244 0.000000
O O5 0.172964 0.851443 0.500000
O O6 0.139165 0.802816 0.254419
O O7 0.248815 0.864028 0.253050
O O8 0.818383 0.763054 0.500000
O O9 0.750000 0.750000 0.250000
O O10 0.857901 0.697746 0.284860
O O11 0.625598 0.902777 0.247584
O O12 0.680100 0.867673 0.000000
O O13 0.097805 0.500000 0.250000
O O14 0.069495 0.447787 0.500000
O O15 0.000000 0.430704 0.250000
#
# Coordination Sequence:
#
# PCOD8293456 Si02
#       5
#    16  16  16  16  16
#     4  10  20  34  52  71  97 129 162 199 242 292
#     4   9  18  33  51  73  98 126 160 201 242 283
#     4   9  16  29  49  72  98 128 159 195 240 289
#     4   8  16  31  50  70  95 124 155 192 236 278
#     4  10  19  33  50  68  93 125 157 193 235 282
#
# _framework density 17.932085000000001
#
# number of rings (size 3 to 8) (size 9 to 14) (size 15 to 20)
#    0.000    2.800    0.000    4.200    0.000    2.400 
#    0.000   11.000    0.000    4.800    0.000    0.000 
#    0.000    0.000    0.000    0.000    0.000    0.000 
#
# Total GULP energy -495689.366628 kJ/mol
# GULP energy per Si atom -12392.234166 kJ/mol
# Density = 1.789127 g / cm^3
# Si number density = 17.932085 Si / 1000 Ang^3
#
#
#
# Elastic Constant Matrix: (Units=GPa)
#
#
# Indices 1 2 3 4 5 6 
#
# 1 83.5223 95.3626 26.1669 0.0000 0.0000 0.0000
# 2 95.3626 192.0364 46.3377 0.0000 0.0000 0.0000
# 3 26.1669 46.3377 52.1557 0.0000 0.0000 0.0000
# 4 0.0000 0.0000 0.0000 30.9824 0.0000 0.0000
# 5 0.0000 0.0000 0.0000 0.0000 18.7122 0.0000
# 6 0.0000 0.0000 0.0000 0.0000 0.0000 15.5129
#
#
#
# Elastic Compliance Matrix: (Units=1/GPa)
#
#
# Indices 1 2 3 4 5 6 
#
# 1 0.027837 -0.013306 -0.002144 0.000000 0.000000 0.000000
# 2 -0.013306 0.012989 -0.004864 0.000000 0.000000 0.000000
# 3 -0.002144 -0.004864 0.024571 0.000000 0.000000 0.000000
# 4 0.000000 0.000000 0.000000 0.032276 0.000000 0.000000
# 5 0.000000 0.000000 0.000000 0.000000 0.053441 0.000000
# 6 0.000000 0.000000 0.000000 0.000000 0.000000 0.064463
#
#
# Mechanical properties :
#
#
# Convention : Reuss Voigt Hill
#
# Bulk Modulus (GPa) = 40.37543 73.71653 57.04598
# Shear Modulus (GPa) = 18.90640 23.69797 21.30219
#
# Velocity S-wave (km/s) = 3.25057 3.63924 3.45039
# Velocity P-wave (km/s) = 6.05417 7.67182 6.91049
#
# Compressibility (1/GPa) = 0.02476754
#
# Stress axis : x y z
#
# Youngs Moduli (GPa) = 35.92347 76.99063 40.69908
#
# Poissons Ratio (x) = 1.02444 0.08727
# Poissons Ratio (y) = 0.47800 0.19796
# Poissons Ratio (z) = 0.07703 0.37448
#
# Static dielectric constant tensor:
#      x y z
#    x 3.290430 0.000000 0.000000 
#    y 0.000000 3.954810 0.000000 
#    z 0.000000 0.000000 3.285040 
# 
# 
# High freq. dielectric constant tensor:
#      x y z
#    x 1.663310 0.000000 0.000000 
#    y 0.000000 1.714000 0.000000 
#    z 0.000000 0.000000 1.686620 
# 
# From -- ./inp_files/4770.got.cif
#   From: 2010.03.12/outbox.cif.g09.slc.cpg/sg72_3_cif.got.tgz:4770.got - 2010.04.16 14:54:00.
