data_PCOD8293603
_publ_section_title
;
Structure prediction by ZEFSAII (Michael W. Deem and Ramdas Pophale) SiO2 
 PCOD8293603
Probable space group: I B A M
;
_chemical_formula_sum "Si O2"
_cell_formula_units_Z 80
_cell_length_a 8.652053
_cell_length_b 28.503296
_cell_length_c 16.709366
_cell_angle_alpha 90.000000
_cell_angle_beta 90.000000
_cell_angle_gamma 90.000000
_cell_volume 4120.730630
_symmetry_space_group_name_H-M "I B A M"
_symmetry_group_IT_number 72
_symmetry_cell_setting 'orthorhombic'
loop_
_space_group_symop_operation_xyz
x,y,z
-x,-y,z
x,-y,1/2-z
-x,y,1/2-z
-x,-y,-z
x,y,-z
-x,y,1/2+z
x,-y,1/2+z
1/2+x,1/2+y,1/2+z
1/2-x,1/2-y,1/2+z
1/2+x,1/2-y,-z
1/2-x,1/2+y,-z
1/2-x,1/2-y,1/2-z
1/2+x,1/2+y,1/2-z
1/2-x,1/2+y,z
1/2+x,1/2-y,z
loop_
_atom_site_type_symbol
_atom_site_label
_atom_site_fract_x
_atom_site_fract_y
_atom_site_fract_z
Si Si1 0.103155 0.370808 0.825970
Si Si2 0.818614 0.949410 0.658362
Si Si3 0.665224 0.554527 0.652199
Si Si4 0.308294 0.147104 0.091171
Si Si5 0.318805 0.300844 0.736341
O O1 0.185407 0.414254 0.872003
O O2 0.236062 0.335164 0.798833
O O3 0.000000 0.387639 0.750000
O O4 0.989970 0.345776 0.889421
O O5 0.824353 0.940521 0.753048
O O6 0.988214 0.937945 0.623444
O O7 0.774884 0.002148 0.631658
O O8 0.769229 0.592530 0.607572
O O9 0.207966 0.181989 0.145618
O O10 0.274498 0.160550 0.000000
O O11 0.500000 0.300840 0.750000
O O12 0.250000 0.250000 0.750000
#
# Coordination Sequence:
#
# PCOD8293603 Si02
#       5
#    16  16  16  16  16
#     4  10  19  34  56  83 117 157 199 239 281 351
#     4   9  16  31  55  84 111 158 211 249 275 337
#     4   9  17  31  55  83 117 154 206 248 287 339
#     4  11  23  39  57  90 129 156 187 247 308 347
#     4  11  22  42  69  92 113 149 202 243 286 357
#
# _framework density 19.414033
#
# number of rings (size 3 to 8) (size 9 to 14) (size 15 to 20)
#    0.000    2.000    4.000    4.200    0.000    0.800 
#    0.000   12.000    0.000    0.000    0.000    0.000 
#    0.000    0.000    0.000    0.000    0.000    0.000 
#
# Total GULP energy -495859.324132 kJ/mol
# GULP energy per Si atom -12396.483103 kJ/mol
# Density = 1.936985 g / cm^3
# Si number density = 19.414033 Si / 1000 Ang^3
#
#
#
# Elastic Constant Matrix: (Units=GPa)
#
#
# Indices 1 2 3 4 5 6 
#
# 1 148.1286 69.6083 39.5059 0.0001 0.0000 0.0000
# 2 69.6083 127.9417 41.3492 0.0000 0.0000 0.0000
# 3 39.5059 41.3492 93.4679 0.0006 0.0003 -0.0002
# 4 0.0001 0.0000 0.0006 11.3552 0.0001 0.0000
# 5 0.0000 0.0000 0.0003 0.0001 12.9763 0.0000
# 6 0.0000 0.0000 -0.0002 0.0000 0.0000 39.7656
#
#
#
# Elastic Compliance Matrix: (Units=1/GPa)
#
#
# Indices 1 2 3 4 5 6 
#
# 1 0.009377 -0.004458 -0.001991 0.000000 0.000000 0.000000
# 2 -0.004458 0.011240 -0.003088 0.000000 0.000000 0.000000
# 3 -0.001991 -0.003088 0.012906 -0.000001 0.000000 0.000000
# 4 0.000000 0.000000 -0.000001 0.088066 -0.000001 0.000000
# 5 0.000000 0.000000 0.000000 -0.000001 0.077064 0.000000
# 6 0.000000 0.000000 0.000000 0.000000 0.000000 0.025147
#
#
# Mechanical properties :
#
#
# Convention : Reuss Voigt Hill
#
# Bulk Modulus (GPa) = 69.21076 74.49612 71.85344
# Shear Modulus (GPa) = 20.18654 27.42441 23.80547
#
# Velocity S-wave (km/s) = 3.22808 3.76254 3.50551
# Velocity P-wave (km/s) = 7.04423 7.57174 7.31275
#
# Compressibility (1/GPa) = 0.01444862
#
# Stress axis : x y z
#
# Youngs Moduli (GPa) = 106.64555 88.97167 77.48037
#
# Poissons Ratio (x) = 0.39665 0.15427
# Poissons Ratio (y) = 0.47544 0.23926
# Poissons Ratio (z) = 0.21234 0.27474
#
# Static dielectric constant tensor:
#      x y z
#    x 3.941240 0.000000 0.000000 
#    y 0.000000 3.731500 0.000000 
#    z 0.000000 0.000000 3.171540 
# 
# 
# High freq. dielectric constant tensor:
#      x y z
#    x 1.769020 0.000000 0.000000 
#    y 0.000000 1.755620 0.000000 
#    z 0.000000 0.000000 1.704990 
# 
# From -- ./inp_files/28117.got.cif
#   From: 2010.03.12/outbox.cif.g09.slc.cpg/sg72_15_cif.got.tgz:28117.got - 2010.04.16 14:54:00.
