data_PCOD8293844
_publ_section_title
;
Structure prediction by ZEFSAII (Michael W. Deem and Ramdas Pophale) SiO2 
 PCOD8293844
Probable space group: I B A M
;
_chemical_formula_sum "Si O2"
_cell_formula_units_Z 80
_cell_length_a 14.155482
_cell_length_b 9.817610
_cell_length_c 31.759181
_cell_angle_alpha 90.000000
_cell_angle_beta 90.000000
_cell_angle_gamma 90.000000
_cell_volume 4413.668713
_symmetry_space_group_name_H-M "I B A M"
_symmetry_group_IT_number 72
_symmetry_cell_setting 'orthorhombic'
loop_
_space_group_symop_operation_xyz
x,y,z
-x,-y,z
x,-y,1/2-z
-x,y,1/2-z
-x,-y,-z
x,y,-z
-x,y,1/2+z
x,-y,1/2+z
1/2+x,1/2+y,1/2+z
1/2-x,1/2-y,1/2+z
1/2+x,1/2-y,-z
1/2-x,1/2+y,-z
1/2-x,1/2-y,1/2-z
1/2+x,1/2+y,1/2-z
1/2-x,1/2+y,z
1/2+x,1/2-y,z
loop_
_atom_site_type_symbol
_atom_site_label
_atom_site_fract_x
_atom_site_fract_y
_atom_site_fract_z
Si Si1 0.652469 0.667362 0.291868
Si Si2 0.186246 0.863887 0.802326
Si Si3 0.491385 0.842994 0.933104
Si Si4 0.488262 0.347476 0.855327
Si Si5 0.148950 0.674981 0.000000
Si Si6 0.334182 0.859213 0.000000
O O1 0.714664 0.790173 0.310210
O O2 0.704847 0.525390 0.302307
O O3 0.639297 0.683495 0.241774
O O4 0.551311 0.672106 0.313734
O O5 0.118590 0.821014 0.840693
O O6 0.482080 0.756403 0.891130
O O7 0.583954 0.797983 0.959186
O O8 0.395593 0.818948 0.959292
O O9 0.500000 0.000000 0.920454
O O10 0.500000 0.500000 0.873326
O O11 0.187564 0.520504 0.000000
O O12 0.235958 0.778764 0.000000
#
# Coordination Sequence:
#
# PCOD8293844 Si02
#       6
#    16  16  16  16   8   8
#     4   9  18  33  51  71  98 133 171 208 246 290
#     4   9  18  33  51  71  98 133 171 208 246 290
#     4   9  20  37  53  74 104 132 161 200 247 298
#     4  10  20  33  51  75 102 132 166 205 248 292
#     4   9  19  37  58  76  98 131 165 199 244 296
#     4   9  19  37  58  76  98 131 165 199 244 296
#
# _framework density 18.125512000000001
#
# number of rings (size 3 to 8) (size 9 to 14) (size 15 to 20)
#    0.000    2.800    0.000    1.800    0.000    7.200 
#    0.000   10.000    0.000    6.000    0.000    0.000 
#    0.000    0.000    0.000    0.000    0.000    0.000 
#
# Total GULP energy -495987.803326 kJ/mol
# GULP energy per Si atom -12399.695083 kJ/mol
# Density = 1.808426 g / cm^3
# Si number density = 18.125512 Si / 1000 Ang^3
#
#
#
# Elastic Constant Matrix: (Units=GPa)
#
#
# Indices 1 2 3 4 5 6 
#
# 1 69.3832 36.5544 7.1754 0.0000 0.0000 0.0000
# 2 36.5544 70.5652 28.9927 0.0000 0.0000 0.0000
# 3 7.1754 28.9927 57.6787 0.0000 0.0000 0.0000
# 4 0.0000 0.0000 0.0000 26.4511 0.0000 0.0000
# 5 0.0000 0.0000 0.0000 0.0000 15.5641 0.0000
# 6 0.0000 0.0000 0.0000 0.0000 0.0000 34.3943
#
#
#
# Elastic Compliance Matrix: (Units=1/GPa)
#
#
# Indices 1 2 3 4 5 6 
#
# 1 0.020365 -0.011984 0.003490 0.000000 0.000000 0.000000
# 2 -0.011984 0.024911 -0.011031 0.000000 0.000000 0.000000
# 3 0.003490 -0.011031 0.022448 0.000000 0.000000 0.000000
# 4 0.000000 0.000000 0.000000 0.037806 0.000000 0.000000
# 5 0.000000 0.000000 0.000000 0.000000 0.064250 0.000000
# 6 0.000000 0.000000 0.000000 0.000000 0.000000 0.029075
#
#
# Mechanical properties :
#
#
# Convention : Reuss Voigt Hill
#
# Bulk Modulus (GPa) = 34.87284 38.11913 36.49598
# Shear Modulus (GPa) = 20.20500 23.60887 21.90693
#
# Velocity S-wave (km/s) = 3.34237 3.61296 3.48030
# Velocity P-wave (km/s) = 5.84608 6.20330 6.02734
#
# Compressibility (1/GPa) = 0.02867561
#
# Stress axis : x y z
#
# Youngs Moduli (GPa) = 49.10288 40.14213 44.54714
#
# Poissons Ratio (x) = 0.48105 -0.15548
# Poissons Ratio (y) = 0.58844 0.49141
# Poissons Ratio (z) = -0.17138 0.44281
#
# Static dielectric constant tensor:
#      x y z
#    x 3.200390 0.000000 0.000000 
#    y 0.000000 3.351370 0.000000 
#    z 0.000000 0.000000 3.195790 
# 
# 
# High freq. dielectric constant tensor:
#      x y z
#    x 1.697520 0.000000 0.000000 
#    y 0.000000 1.702270 0.000000 
#    z 0.000000 0.000000 1.695320 
# 
# From -- ./inp_files/51254.got.cif
#   From: 2010.03.12/outbox.cif.g09.slc.cpg/sg72_26_cif.got.tgz:51254.got - 2010.04.16 14:54:00.
