data_PCOD8293313
_publ_section_title
;
Structure prediction by ZEFSAII (Michael W. Deem and Ramdas Pophale) SiO2 
 PCOD8293313
Probable space group: I B A M
;
_chemical_formula_sum "Si O2"
_cell_formula_units_Z 96
_cell_length_a 24.921840
_cell_length_b 24.989633
_cell_length_c 8.912132
_cell_angle_alpha 90.000000
_cell_angle_beta 90.000000
_cell_angle_gamma 90.000000
_cell_volume 5550.365614
_symmetry_space_group_name_H-M "I B A M"
_symmetry_group_IT_number 72
_symmetry_cell_setting 'orthorhombic'
loop_
_space_group_symop_operation_xyz
x,y,z
-x,-y,z
x,-y,1/2-z
-x,y,1/2-z
-x,-y,-z
x,y,-z
-x,y,1/2+z
x,-y,1/2+z
1/2+x,1/2+y,1/2+z
1/2-x,1/2-y,1/2+z
1/2+x,1/2-y,-z
1/2-x,1/2+y,-z
1/2-x,1/2-y,1/2-z
1/2+x,1/2+y,1/2-z
1/2-x,1/2+y,z
1/2+x,1/2-y,z
loop_
_atom_site_type_symbol
_atom_site_label
_atom_site_fract_x
_atom_site_fract_y
_atom_site_fract_z
Si Si1 0.246356 0.170572 0.826004
Si Si2 0.665649 0.763447 0.323695
Si Si3 0.949409 0.611852 0.334293
Si Si4 0.635908 0.052029 0.177697
Si Si5 0.947934 0.263598 0.833793
Si Si6 0.748699 0.448339 0.824245
O O1 0.301541 0.185073 0.738568
O O2 0.198945 0.210424 0.779903
O O3 0.223836 0.110451 0.790974
O O4 0.261466 0.175778 0.000000
O O5 0.659162 0.771339 0.500000
O O6 0.607179 0.754466 0.254882
O O7 0.942574 0.586048 0.500000
O O8 0.897295 0.603554 0.230614
O O9 0.959036 0.674193 0.351839
O O10 0.000000 0.585176 0.250000
O O11 0.693743 0.055253 0.249840
O O12 0.606573 0.000000 0.250000
O O13 0.639569 0.048983 0.000000
O O14 0.000000 0.237847 0.750000
O O15 0.943177 0.237655 0.000000
O O16 0.717769 0.500000 0.750000
O O17 0.753200 0.459614 0.000000
#
# Coordination Sequence:
#
# PCOD8293313 Si02
#       6
#    16  16  16  16  16  16
#     4   9  19  33  48  69  98 129 158 193 236 280
#     4  10  19  31  49  72  97 126 160 195 233 279
#     4  10  20  33  46  61  81 107 142 183 226 268
#     4  11  21  32  45  61  81 108 144 184 227 270
#     4  10  20  33  49  68  92 121 152 188 229 274
#     4  10  19  32  48  66  90 119 152 188 227 270
#
# _framework density 17.296157999999998
#
# number of rings (size 3 to 8) (size 9 to 14) (size 15 to 20)
#    0.000    2.000    0.000    5.500    0.000    8.333 
#    0.000    1.667    0.000    0.000    0.000    0.000 
#    0.000    0.667    0.000    7.667    0.000    2.333 
#
# Total GULP energy -594849.580646 kJ/mol
# GULP energy per Si atom -12392.699597 kJ/mol
# Density = 1.725679 g / cm^3
# Si number density = 17.296158 Si / 1000 Ang^3
#
#
#
# Elastic Constant Matrix: (Units=GPa)
#
#
# Indices 1 2 3 4 5 6 
#
# 1 74.9622 13.3400 36.2371 0.0000 0.0000 0.0000
# 2 13.3400 68.9414 36.1628 0.0000 0.0000 0.0000
# 3 36.2371 36.1628 108.4640 0.0000 0.0000 0.0000
# 4 0.0000 0.0000 0.0000 23.0986 0.0000 0.0000
# 5 0.0000 0.0000 0.0000 0.0000 17.5666 0.0000
# 6 0.0000 0.0000 0.0000 0.0000 0.0000 16.9915
#
#
#
# Elastic Compliance Matrix: (Units=1/GPa)
#
#
# Indices 1 2 3 4 5 6 
#
# 1 0.015917 -0.000352 -0.005200 0.000000 0.000000 0.000000
# 2 -0.000352 0.017587 -0.005746 0.000000 0.000000 0.000000
# 3 -0.005200 -0.005746 0.012873 0.000000 0.000000 0.000000
# 4 0.000000 0.000000 0.000000 0.043293 0.000000 0.000000
# 5 0.000000 0.000000 0.000000 0.000000 0.056926 0.000000
# 6 0.000000 0.000000 0.000000 0.000000 0.000000 0.058853
#
#
# Mechanical properties :
#
#
# Convention : Reuss Voigt Hill
#
# Bulk Modulus (GPa) = 42.05247 47.09414 44.57330
# Shear Modulus (GPa) = 21.18895 22.63985 21.91440
#
# Velocity S-wave (km/s) = 3.50389 3.62187 3.56337
# Velocity P-wave (km/s) = 6.38245 6.69162 6.53886
#
# Compressibility (1/GPa) = 0.02377982
#
# Stress axis : x y z
#
# Youngs Moduli (GPa) = 62.82782 56.85920 77.68307
#
# Poissons Ratio (x) = 0.02002 0.40397
# Poissons Ratio (y) = 0.02212 0.44638
# Poissons Ratio (z) = 0.32672 0.32672
#
# Static dielectric constant tensor:
#      x y z
#    x 2.987620 0.000000 0.000000 
#    y 0.000000 3.780010 0.000000 
#    z 0.000000 0.000000 3.534830 
# 
# 
# High freq. dielectric constant tensor:
#      x y z
#    x 1.634110 0.000000 0.000000 
#    y 0.000000 1.646110 0.000000 
#    z 0.000000 0.000000 1.689640 
# 
# From -- ./inp_files/7086.got.cif
#   From: 2010.03.12/outbox.cif.g09.slc.cpg/sg72_4_cif.got.tgz:7086.got - 2010.04.16 14:54:00.
