data_PCOD8293664
_publ_section_title
;
Structure prediction by ZEFSAII (Michael W. Deem and Ramdas Pophale) SiO2 
 PCOD8293664
Probable space group: I B A M
;
_chemical_formula_sum "Si O2"
_cell_formula_units_Z 96
_cell_length_a 28.637013
_cell_length_b 20.052402
_cell_length_c 9.074502
_cell_angle_alpha 90.000000
_cell_angle_beta 90.000000
_cell_angle_gamma 90.000000
_cell_volume 5210.950166
_symmetry_space_group_name_H-M "I B A M"
_symmetry_group_IT_number 72
_symmetry_cell_setting 'orthorhombic'
loop_
_space_group_symop_operation_xyz
x,y,z
-x,-y,z
x,-y,1/2-z
-x,y,1/2-z
-x,-y,-z
x,y,-z
-x,y,1/2+z
x,-y,1/2+z
1/2+x,1/2+y,1/2+z
1/2-x,1/2-y,1/2+z
1/2+x,1/2-y,-z
1/2-x,1/2+y,-z
1/2-x,1/2-y,1/2-z
1/2+x,1/2+y,1/2-z
1/2-x,1/2+y,z
1/2+x,1/2-y,z
loop_
_atom_site_type_symbol
_atom_site_label
_atom_site_fract_x
_atom_site_fract_y
_atom_site_fract_z
Si Si1 0.593042 0.681376 0.333227
Si Si2 0.627209 0.071035 0.175088
Si Si3 0.785387 0.656409 0.173929
Si Si4 0.049811 0.323357 0.172217
Si Si5 0.450249 0.563001 0.325789
Si Si6 0.799513 0.805986 0.166129
O O1 0.575555 0.665131 0.500000
O O2 0.576705 0.755190 0.288265
O O3 0.573978 0.632295 0.209933
O O4 0.647939 0.669823 0.324528
O O5 0.675556 0.104655 0.231680
O O6 0.583355 0.116511 0.223923
O O7 0.621132 0.000000 0.250000
O O8 0.628188 0.062852 0.000000
O O9 0.799164 0.730502 0.227831
O O10 0.733871 0.643505 0.241894
O O11 0.782585 0.650997 0.000000
O O12 0.000000 0.328183 0.250000
O O13 0.040210 0.327952 0.000000
O O14 0.423347 0.500000 0.250000
O O15 0.500000 0.566449 0.250000
O O16 0.453872 0.552873 0.500000
O O17 0.780709 0.806776 0.000000
#
# Coordination Sequence:
#
# PCOD8293664 Si02
#       6
#    16  16  16  16  16  16
#     4  10  19  35  57  82 113 147 180 225 279 328
#     4  10  21  38  57  78 109 149 188 231 283 334
#     4   9  17  33  54  78 107 140 176 219 269 323
#     4  10  21  37  56  79 110 145 186 234 284 333
#     4  11  22  37  56  79 108 144 184 223 268 325
#     4   9  17  31  55  82 108 138 173 218 271 323
#
# _framework density 18.422743000000001
#
# number of rings (size 3 to 8) (size 9 to 14) (size 15 to 20)
#    0.000    2.167    1.667    2.500    0.000    4.333 
#    0.000    2.500    0.000    2.000    0.000    0.000 
#    0.000    0.000    0.000    0.000    0.000    0.000 
#
# Total GULP energy -594989.260527 kJ/mol
# GULP energy per Si atom -12395.609594 kJ/mol
# Density = 1.838081 g / cm^3
# Si number density = 18.422743 Si / 1000 Ang^3
#
#
#
# Elastic Constant Matrix: (Units=GPa)
#
#
# Indices 1 2 3 4 5 6 
#
# 1 119.5675 59.6423 46.1860 0.0000 0.0000 0.0000
# 2 59.6423 115.6340 51.2765 0.0000 0.0000 0.0000
# 3 46.1860 51.2765 76.8797 0.0000 0.0000 0.0000
# 4 0.0000 0.0000 0.0000 31.3646 0.0000 0.0000
# 5 0.0000 0.0000 0.0000 0.0000 29.9702 0.0000
# 6 0.0000 0.0000 0.0000 0.0000 0.0000 26.6895
#
#
#
# Elastic Compliance Matrix: (Units=1/GPa)
#
#
# Indices 1 2 3 4 5 6 
#
# 1 0.012254 -0.004339 -0.004467 0.000000 0.000000 0.000000
# 2 -0.004339 0.013817 -0.006608 0.000000 0.000000 0.000000
# 3 -0.004467 -0.006608 0.020099 0.000000 0.000000 0.000000
# 4 0.000000 0.000000 0.000000 0.031883 0.000000 0.000000
# 5 0.000000 0.000000 0.000000 0.000000 0.033366 0.000000
# 6 0.000000 0.000000 0.000000 0.000000 0.000000 0.037468
#
#
# Mechanical properties :
#
#
# Convention : Reuss Voigt Hill
#
# Bulk Modulus (GPa) = 65.19345 69.58787 67.39066
# Shear Modulus (GPa) = 27.05204 27.93662 27.49433
#
# Velocity S-wave (km/s) = 3.83613 3.89835 3.86737
# Velocity P-wave (km/s) = 7.42196 7.62349 7.52340
#
# Compressibility (1/GPa) = 0.01533896
#
# Stress axis : x y z
#
# Youngs Moduli (GPa) = 81.60890 72.37722 49.75456
#
# Poissons Ratio (x) = 0.31406 0.22227
# Poissons Ratio (y) = 0.35412 0.32880
# Poissons Ratio (z) = 0.36457 0.47830
#
# Static dielectric constant tensor:
#      x y z
#    x 3.491770 0.000000 0.000000 
#    y 0.000000 3.828190 0.000000 
#    z 0.000000 0.000000 3.342050 
# 
# 
# High freq. dielectric constant tensor:
#      x y z
#    x 1.717750 0.000000 0.000000 
#    y 0.000000 1.705990 0.000000 
#    z 0.000000 0.000000 1.707110 
# 
# From -- ./inp_files/5963.got.cif
#   From: 2010.03.12/outbox.cif.g09.slc.cpg/sg72_3_cif.got.tgz:5963.got - 2010.04.16 14:54:00.
