data_PCOD8293840
_publ_section_title
;
Structure prediction by ZEFSAII (Michael W. Deem and Ramdas Pophale) SiO2 
 PCOD8293840
Probable space group: I B A M
;
_chemical_formula_sum "Si O2"
_cell_formula_units_Z 80
_cell_length_a 17.488390
_cell_length_b 28.341428
_cell_length_c 8.996806
_cell_angle_alpha 90.000000
_cell_angle_beta 90.000000
_cell_angle_gamma 90.000000
_cell_volume 4459.230421
_symmetry_space_group_name_H-M "I B A M"
_symmetry_group_IT_number 72
_symmetry_cell_setting 'orthorhombic'
loop_
_space_group_symop_operation_xyz
x,y,z
-x,-y,z
x,-y,1/2-z
-x,y,1/2-z
-x,-y,-z
x,y,-z
-x,y,1/2+z
x,-y,1/2+z
1/2+x,1/2+y,1/2+z
1/2-x,1/2-y,1/2+z
1/2+x,1/2-y,-z
1/2-x,1/2+y,-z
1/2-x,1/2-y,1/2-z
1/2+x,1/2+y,1/2-z
1/2-x,1/2+y,z
1/2+x,1/2-y,z
loop_
_atom_site_type_symbol
_atom_site_label
_atom_site_fract_x
_atom_site_fract_y
_atom_site_fract_z
Si Si1 0.240543 0.949548 0.327112
Si Si2 0.930092 0.050025 0.671051
Si Si3 0.579422 0.209353 0.171024
Si Si4 0.784488 0.640468 0.823758
Si Si5 0.693454 0.713991 0.674043
O O1 0.262586 0.954608 0.500000
O O2 0.154373 0.928488 0.309219
O O3 0.294803 0.911674 0.245433
O O4 0.251547 0.000000 0.250000
O O5 0.951386 0.044264 0.500000
O O6 0.000000 0.079442 0.750000
O O7 0.927009 0.000000 0.750000
O O8 0.500000 0.200502 0.250000
O O9 0.642189 0.171238 0.226099
O O10 0.609035 0.263288 0.197662
O O11 0.564136 0.200174 0.000000
O O12 0.706910 0.663943 0.755028
O O13 0.775433 0.637469 0.000000
O O14 0.712018 0.708937 0.500000
O O15 0.750000 0.750000 0.750000
#
# Coordination Sequence:
#
# PCOD8293840 Si02
#       5
#    16  16  16  16  16
#     4  10  20  33  50  73 100 135 176 218 259 303
#     4   9  16  26  42  63  87 116 154 196 242 290
#     4   9  19  33  52  78 105 132 165 204 250 305
#     4  10  20  34  52  76 103 134 172 212 253 302
#     4   9  17  31  50  74 101 129 162 200 244 298
#
# _framework density 17.940315999999999
#
# number of rings (size 3 to 8) (size 9 to 14) (size 15 to 20)
#    0.000    2.600    0.000    4.200    0.000    7.200 
#    0.000    1.000    0.000    0.600    0.000    4.200 
#    0.000    0.000    0.000    0.000    0.000    0.000 
#
# Total GULP energy -495524.678868 kJ/mol
# GULP energy per Si atom -12388.116972 kJ/mol
# Density = 1.789948 g / cm^3
# Si number density = 17.940316 Si / 1000 Ang^3
#
#
#
# Elastic Constant Matrix: (Units=GPa)
#
#
# Indices 1 2 3 4 5 6 
#
# 1 83.2726 43.1640 47.0743 -0.0005 -0.0002 0.0000
# 2 43.1640 105.1801 52.5222 0.0001 -0.0004 -0.0002
# 3 47.0743 52.5222 119.5983 -0.0029 -0.0004 0.0003
# 4 -0.0005 0.0001 -0.0029 30.1677 -0.0002 -0.0004
# 5 -0.0002 -0.0004 -0.0004 -0.0002 29.8768 0.0000
# 6 0.0000 -0.0002 0.0003 -0.0004 0.0000 17.0593
#
#
#
# Elastic Compliance Matrix: (Units=1/GPa)
#
#
# Indices 1 2 3 4 5 6 
#
# 1 0.017070 -0.004675 -0.004665 0.000000 0.000000 0.000000
# 2 -0.004675 0.013459 -0.004070 -0.000001 0.000000 0.000000
# 3 -0.004665 -0.004070 0.011985 0.000001 0.000000 0.000000
# 4 0.000000 -0.000001 0.000001 0.033148 0.000000 0.000001
# 5 0.000000 0.000000 0.000000 0.000000 0.033471 0.000000
# 6 0.000000 0.000000 0.000000 0.000001 0.000000 0.058619
#
#
# Mechanical properties :
#
#
# Convention : Reuss Voigt Hill
#
# Bulk Modulus (GPa) = 63.72933 65.95246 64.84090
# Shear Modulus (GPa) = 25.02456 26.44013 25.73234
#
# Velocity S-wave (km/s) = 3.73886 3.84315 3.79136
# Velocity P-wave (km/s) = 7.36470 7.51898 7.44224
#
# Compressibility (1/GPa) = 0.01569136
#
# Stress axis : x y z
#
# Youngs Moduli (GPa) = 58.58378 74.30163 83.43686
#
# Poissons Ratio (x) = 0.34738 0.38927
# Poissons Ratio (y) = 0.27390 0.33961
# Poissons Ratio (z) = 0.27332 0.30242
#
# Static dielectric constant tensor:
#      x y z
#    x 3.686660 0.000000 0.000010 
#    y 0.000000 3.265400 -0.000010 
#    z 0.000010 -0.000010 3.461580 
# 
# 
# High freq. dielectric constant tensor:
#      x y z
#    x 1.669920 0.000000 0.000000 
#    y 0.000000 1.675370 0.000000 
#    z 0.000000 0.000000 1.710990 
# 
# From -- ./inp_files/4804.got.cif
#   From: 2010.03.12/outbox.cif.g09.slc.cpg/sg72_3_cif.got.tgz:4804.got - 2010.04.16 14:54:00.
