data_PCOD8293409
_publ_section_title
;
Structure prediction by ZEFSAII (Michael W. Deem and Ramdas Pophale) SiO2 
 PCOD8293409
Probable space group: I B A M
;
_chemical_formula_sum "Si O2"
_cell_formula_units_Z 88
_cell_length_a 25.539051
_cell_length_b 18.470144
_cell_length_c 9.150208
_cell_angle_alpha 90.000000
_cell_angle_beta 90.000000
_cell_angle_gamma 90.000000
_cell_volume 4316.244154
_symmetry_space_group_name_H-M "I B A M"
_symmetry_group_IT_number 72
_symmetry_cell_setting 'orthorhombic'
loop_
_space_group_symop_operation_xyz
x,y,z
-x,-y,z
x,-y,1/2-z
-x,y,1/2-z
-x,-y,-z
x,y,-z
-x,y,1/2+z
x,-y,1/2+z
1/2+x,1/2+y,1/2+z
1/2-x,1/2-y,1/2+z
1/2+x,1/2-y,-z
1/2-x,1/2+y,-z
1/2-x,1/2-y,1/2-z
1/2+x,1/2+y,1/2-z
1/2-x,1/2+y,z
1/2+x,1/2-y,z
loop_
_atom_site_type_symbol
_atom_site_label
_atom_site_fract_x
_atom_site_fract_y
_atom_site_fract_z
Si Si1 0.163328 0.647173 0.324446
Si Si2 0.251148 0.426764 0.329561
Si Si3 0.574642 0.067239 0.335969
Si Si4 0.373441 0.571747 0.168392
Si Si5 0.000000 0.687210 0.750000
Si Si6 0.904485 0.777367 0.835846
O O1 0.165605 0.641341 0.500000
O O2 0.220323 0.638485 0.251064
O O3 0.125712 0.585336 0.259766
O O4 0.139376 0.723816 0.269356
O O5 0.233246 0.500000 0.250000
O O6 0.236125 0.430524 0.500000
O O7 0.312257 0.413394 0.306262
O O8 0.590591 0.044602 0.500000
O O9 0.534599 0.134811 0.351864
O O10 0.547895 0.000000 0.250000
O O11 0.393046 0.500000 0.250000
O O12 0.403170 0.642482 0.237135
O O13 0.386956 0.558396 0.000000
O O14 0.961520 0.740370 0.838069
O O15 0.886622 0.792485 0.000000
#
# Coordination Sequence:
#
# PCOD8293409 Si02
#       6
#    16  16  16  16   8  16
#     4  10  20  34  53  78 110 146 180 216 259 307
#     4  10  19  32  52  78 109 144 180 217 257 306
#     4  11  22  35  53  78 109 145 184 222 258 304
#     4   9  19  37  59  81 106 137 173 215 265 320
#     4  10  21  36  57  78 104 138 178 222 269 316
#     4   9  19  37  57  77 105 139 174 217 269 319
#
# _framework density 20.388095
#
# number of rings (size 3 to 8) (size 9 to 14) (size 15 to 20)
#    0.000    2.182    0.000    3.000    0.000    4.364 
#    0.000    5.909    0.000    2.182    0.000    0.000 
#    0.000    0.000    0.000    0.000    0.000    0.000 
#
# Total GULP energy -545300.102473 kJ/mol
# GULP energy per Si atom -12393.184147 kJ/mol
# Density = 2.034169 g / cm^3
# Si number density = 20.388095 Si / 1000 Ang^3
#
#
#
# Elastic Constant Matrix: (Units=GPa)
#
#
# Indices 1 2 3 4 5 6 
#
# 1 47.3325 45.6597 21.4298 0.0000 0.0000 0.0000
# 2 45.6597 160.6163 49.5038 0.0000 0.0000 0.0000
# 3 21.4298 49.5038 107.5257 0.0000 0.0000 0.0000
# 4 0.0000 0.0000 0.0000 24.8785 0.0000 0.0000
# 5 0.0000 0.0000 0.0000 0.0000 13.7218 0.0000
# 6 0.0000 0.0000 0.0000 0.0000 0.0000 25.1407
#
#
#
# Elastic Compliance Matrix: (Units=1/GPa)
#
#
# Indices 1 2 3 4 5 6 
#
# 1 0.029616 -0.007691 -0.002361 0.000000 0.000000 0.000000
# 2 -0.007691 0.009253 -0.002727 0.000000 0.000000 0.000000
# 3 -0.002361 -0.002727 0.011026 0.000000 0.000000 0.000000
# 4 0.000000 0.000000 0.000000 0.040195 0.000000 0.000000
# 5 0.000000 0.000000 0.000000 0.000000 0.072877 0.000000
# 6 0.000000 0.000000 0.000000 0.000000 0.000000 0.039776
#
#
# Mechanical properties :
#
#
# Convention : Reuss Voigt Hill
#
# Bulk Modulus (GPa) = 41.09245 60.96235 51.02740
# Shear Modulus (GPa) = 21.14930 26.00697 23.57814
#
# Velocity S-wave (km/s) = 3.22426 3.57542 3.40437
# Velocity P-wave (km/s) = 5.83610 6.85644 6.36674
#
# Compressibility (1/GPa) = 0.02433537
#
# Stress axis : x y z
#
# Youngs Moduli (GPa) = 33.76582 108.07280 90.69255
#
# Poissons Ratio (x) = 0.83122 0.21416
# Poissons Ratio (y) = 0.25970 0.24733
# Poissons Ratio (z) = 0.07973 0.29473
#
# Static dielectric constant tensor:
#      x y z
#    x 3.521560 0.000000 0.000000 
#    y 0.000000 3.924920 0.000000 
#    z 0.000000 0.000000 3.503040 
# 
# 
# High freq. dielectric constant tensor:
#      x y z
#    x 1.782510 0.000000 0.000000 
#    y 0.000000 1.800530 0.000000 
#    z 0.000000 0.000000 1.781580 
# 
# From -- ./inp_files/9063.got.cif
#   From: 2010.03.12/outbox.cif.g09.slc.cpg/sg72_5_cif.got.tgz:9063.got - 2010.04.16 14:54:00.
