data_PCOD8293365
_publ_section_title
;
Structure prediction by ZEFSAII (Michael W. Deem and Ramdas Pophale) SiO2 
 PCOD8293365
Probable space group: I B A M
;
_chemical_formula_sum "Si O2"
_cell_formula_units_Z 80
_cell_length_a 14.742033
_cell_length_b 32.422765
_cell_length_c 8.976780
_cell_angle_alpha 90.000000
_cell_angle_beta 90.000000
_cell_angle_gamma 90.000000
_cell_volume 4290.698607
_symmetry_space_group_name_H-M "I B A M"
_symmetry_group_IT_number 72
_symmetry_cell_setting 'orthorhombic'
loop_
_space_group_symop_operation_xyz
x,y,z
-x,-y,z
x,-y,1/2-z
-x,y,1/2-z
-x,-y,-z
x,y,-z
-x,y,1/2+z
x,-y,1/2+z
1/2+x,1/2+y,1/2+z
1/2-x,1/2-y,1/2+z
1/2+x,1/2-y,-z
1/2-x,1/2+y,-z
1/2-x,1/2-y,1/2-z
1/2+x,1/2+y,1/2-z
1/2-x,1/2+y,z
1/2+x,1/2-y,z
loop_
_atom_site_type_symbol
_atom_site_label
_atom_site_fract_x
_atom_site_fract_y
_atom_site_fract_z
Si Si1 0.905865 0.042426 0.324294
Si Si2 0.662391 0.699958 0.165714
Si Si3 0.587107 0.140870 0.674651
Si Si4 0.371087 0.222468 0.333866
Si Si5 0.213572 0.879830 0.673469
O O1 0.920604 0.036203 0.500000
O O2 0.829257 0.076069 0.289683
O O3 0.000000 0.056738 0.250000
O O4 0.872214 0.000000 0.250000
O O5 0.605723 0.732844 0.263362
O O6 0.764277 0.715922 0.156646
O O7 0.657202 0.654956 0.239989
O O8 0.620548 0.696946 0.000000
O O9 0.500000 0.118300 0.750000
O O10 0.574053 0.138909 0.500000
O O11 0.585894 0.188196 0.727485
O O12 0.680924 0.118942 0.724539
O O13 0.413094 0.219751 0.500000
O O14 0.207597 0.868583 0.500000
#
# Coordination Sequence:
#
# PCOD8293365 Si02
#       5
#    16  16  16  16  16
#     4  10  20  36  58  83 107 131 159 196 246 304
#     4   9  16  26  44  69  95 126 167 212 254 294
#     4  10  19  32  49  71 100 135 176 217 253 294
#     4   9  16  27  43  64  93 130 170 211 254 295
#     4   9  19  34  52  74 103 136 168 206 254 305
#
# _framework density 18.644981999999999
#
# number of rings (size 3 to 8) (size 9 to 14) (size 15 to 20)
#    0.000    2.600    0.000    3.000    0.000    7.200 
#    0.000    1.000    0.000    3.000    0.000    4.200 
#    0.000    0.000    0.000    0.000    0.000    0.000 
#
# Total GULP energy -495904.776872 kJ/mol
# GULP energy per Si atom -12397.619422 kJ/mol
# Density = 1.860255 g / cm^3
# Si number density = 18.644982 Si / 1000 Ang^3
#
#
#
# Elastic Constant Matrix: (Units=GPa)
#
#
# Indices 1 2 3 4 5 6 
#
# 1 79.4904 57.0299 36.4400 -0.0006 0.0006 0.0004
# 2 57.0299 114.0048 53.5371 -0.0036 0.0007 0.0005
# 3 36.4400 53.5371 100.3128 -0.0117 0.0098 -0.0035
# 4 -0.0006 -0.0036 -0.0117 26.0515 0.0000 -0.0008
# 5 0.0006 0.0007 0.0098 0.0000 24.8993 0.0000
# 6 0.0004 0.0005 -0.0035 -0.0008 0.0000 14.2501
#
#
#
# Elastic Compliance Matrix: (Units=1/GPa)
#
#
# Indices 1 2 3 4 5 6 
#
# 1 0.020112 -0.008847 -0.002584 -0.000002 0.000001 -0.000001
# 2 -0.008847 0.015597 -0.005110 0.000000 0.000002 -0.000001
# 3 -0.002584 -0.005110 0.013635 0.000005 -0.000005 0.000004
# 4 -0.000002 0.000000 0.000005 0.038386 0.000000 0.000002
# 5 0.000001 0.000002 -0.000005 0.000000 0.040162 0.000000
# 6 -0.000001 -0.000001 0.000004 0.000002 0.000000 0.070175
#
#
# Mechanical properties :
#
#
# Convention : Reuss Voigt Hill
#
# Bulk Modulus (GPa) = 61.49833 65.31356 63.40594
# Shear Modulus (GPa) = 21.13531 22.82691 21.98111
#
# Velocity S-wave (km/s) = 3.37050 3.50278 3.43728
# Velocity P-wave (km/s) = 6.94280 7.17394 7.05932
#
# Compressibility (1/GPa) = 0.01626060
#
# Stress axis : x y z
#
# Youngs Moduli (GPa) = 49.72071 64.11390 73.34105
#
# Poissons Ratio (x) = 0.56725 0.18953
# Poissons Ratio (y) = 0.43990 0.37479
# Poissons Ratio (z) = 0.12849 0.32764
#
# Static dielectric constant tensor:
#      x y z
#    x 3.464920 0.000000 0.000010 
#    y 0.000000 3.214730 -0.000010 
#    z 0.000010 -0.000010 3.623400 
# 
# 
# High freq. dielectric constant tensor:
#      x y z
#    x 1.712590 0.000000 0.000000 
#    y 0.000000 1.693560 0.000000 
#    z 0.000000 0.000000 1.739030 
# 
# From -- ./inp_files/4773.got.cif
#   From: 2010.03.12/outbox.cif.g09.slc.cpg/sg72_3_cif.got.tgz:4773.got - 2010.04.16 14:54:00.
