data_PCOD8293876
_publ_section_title
;
Structure prediction by ZEFSAII (Michael W. Deem and Ramdas Pophale) SiO2 
 PCOD8293876
Probable space group: I B A M
;
_chemical_formula_sum "Si O2"
_cell_formula_units_Z 112
_cell_length_a 15.597707
_cell_length_b 15.103556
_cell_length_c 26.264615
_cell_angle_alpha 90.000000
_cell_angle_beta 90.000000
_cell_angle_gamma 90.000000
_cell_volume 6187.440094
_symmetry_space_group_name_H-M "I B A M"
_symmetry_group_IT_number 72
_symmetry_cell_setting 'orthorhombic'
loop_
_space_group_symop_operation_xyz
x,y,z
-x,-y,z
x,-y,1/2-z
-x,y,1/2-z
-x,-y,-z
x,y,-z
-x,y,1/2+z
x,-y,1/2+z
1/2+x,1/2+y,1/2+z
1/2-x,1/2-y,1/2+z
1/2+x,1/2-y,-z
1/2-x,1/2+y,-z
1/2-x,1/2-y,1/2-z
1/2+x,1/2+y,1/2-z
1/2-x,1/2+y,z
1/2+x,1/2-y,z
loop_
_atom_site_type_symbol
_atom_site_label
_atom_site_fract_x
_atom_site_fract_y
_atom_site_fract_z
Si Si1 0.036361 0.739936 0.117737
Si Si2 0.727601 0.745812 0.878915
Si Si3 0.049650 0.909003 0.356093
Si Si4 0.223993 0.407465 0.189490
Si Si5 0.719562 0.398770 0.197053
Si Si6 0.114756 0.800493 0.559021
Si Si7 0.974827 0.601089 0.194400
O O1 0.133378 0.741668 0.096657
O O2 0.027571 0.654174 0.152550
O O3 0.016971 0.827947 0.151826
O O4 0.967393 0.736812 0.071208
O O5 0.729563 0.648176 0.854428
O O6 0.744262 0.816942 0.834686
O O7 0.797342 0.753057 0.923767
O O8 0.117164 0.909784 0.309809
O O9 0.102312 0.891975 0.409099
O O10 0.000000 0.000000 0.359388
O O11 0.233871 0.511621 0.178493
O O12 0.263586 0.381295 0.243814
O O13 0.125028 0.381459 0.187349
O O14 0.119469 0.823383 0.500000
O O15 0.000000 0.500000 0.187519
O O16 0.000000 0.635838 0.250000
#
# Coordination Sequence:
#
# PCOD8293876 Si02
#       7
#    16  16  16  16  16  16  16
#     4  10  21  36  56  87 109 151 183 242 286 344
#     4  11  20  37  59  79 114 149 185 236 288 341
#     4   9  19  37  56  82 119 147 191 235 285 343
#     4  11  20  34  52  82 116 156 185 229 279 339
#     4  10  20  33  53  83 116 152 192 225 269 342
#     4   9  21  39  60  84 110 143 192 243 289 343
#     4  11  20  34  54  83 113 153 199 234 277 343
#
# _framework density 18.101185000000001
#
# number of rings (size 3 to 8) (size 9 to 14) (size 15 to 20)
#    0.857    1.000    1.429    4.714    0.000    2.000 
#    0.000    4.286    0.000    1.286    0.000    0.000 
#    0.000    0.000    0.000    0.000    0.000    0.000 
#
# Total GULP energy -694213.134837 kJ/mol
# GULP energy per Si atom -12396.663122 kJ/mol
# Density = 1.805999 g / cm^3
# Si number density = 18.101185 Si / 1000 Ang^3
#
#
#
# Elastic Constant Matrix: (Units=GPa)
#
#
# Indices 1 2 3 4 5 6 
#
# 1 147.1508 10.9609 34.4885 0.0000 0.0000 0.0000
# 2 10.9609 52.2258 13.5969 0.0000 0.0000 0.0000
# 3 34.4885 13.5969 62.2954 0.0000 0.0000 0.0000
# 4 0.0000 0.0000 0.0000 17.3103 0.0000 0.0000
# 5 0.0000 0.0000 0.0000 0.0000 7.7452 0.0000
# 6 0.0000 0.0000 0.0000 0.0000 0.0000 25.4574
#
#
#
# Elastic Compliance Matrix: (Units=1/GPa)
#
#
# Indices 1 2 3 4 5 6 
#
# 1 0.007824 -0.000545 -0.004212 0.000000 0.000000 0.000000
# 2 -0.000545 0.020339 -0.004137 0.000000 0.000000 0.000000
# 3 -0.004212 -0.004137 0.019288 0.000000 0.000000 0.000000
# 4 0.000000 0.000000 0.000000 0.057769 0.000000 0.000000
# 5 0.000000 0.000000 0.000000 0.000000 0.129113 0.000000
# 6 0.000000 0.000000 0.000000 0.000000 0.000000 0.039281
#
#
# Mechanical properties :
#
#
# Convention : Reuss Voigt Hill
#
# Bulk Modulus (GPa) = 33.71505 42.19607 37.95556
# Shear Modulus (GPa) = 16.59526 23.61095 20.10311
#
# Velocity S-wave (km/s) = 3.03116 3.61555 3.33618
# Velocity P-wave (km/s) = 5.56030 6.38682 5.98783
#
# Compressibility (1/GPa) = 0.02966034
#
# Stress axis : x y z
#
# Youngs Moduli (GPa) = 127.81762 49.16604 51.84648
#
# Poissons Ratio (x) = 0.02681 0.21840
# Poissons Ratio (y) = 0.06970 0.21451
# Poissons Ratio (z) = 0.53842 0.20342
#
# Static dielectric constant tensor:
#      x y z
#    x 3.629690 0.000000 0.000000 
#    y 0.000000 3.274320 0.000000 
#    z 0.000000 0.000000 2.940030 
# 
# 
# High freq. dielectric constant tensor:
#      x y z
#    x 1.720120 0.000000 0.000000 
#    y 0.000000 1.700030 0.000000 
#    z 0.000000 0.000000 1.661750 
# 
# From -- ./inp_files/51865.got.cif
#   From: 2010.03.12/outbox.cif.g09.slc.cpg/sg72_26_cif.got.tgz:51865.got - 2010.04.16 14:54:00.
