data_PCOD8293807
_publ_section_title
;
Structure prediction by ZEFSAII (Michael W. Deem and Ramdas Pophale) SiO2 
 PCOD8293807
Probable space group: I B A M
;
_chemical_formula_sum "Si O2"
_cell_formula_units_Z 112
_cell_length_a 27.073400
_cell_length_b 17.043512
_cell_length_c 14.334723
_cell_angle_alpha 90.000000
_cell_angle_beta 90.000000
_cell_angle_gamma 90.000000
_cell_volume 6614.411283
_symmetry_space_group_name_H-M "I B A M"
_symmetry_group_IT_number 72
_symmetry_cell_setting 'orthorhombic'
loop_
_space_group_symop_operation_xyz
x,y,z
-x,-y,z
x,-y,1/2-z
-x,y,1/2-z
-x,-y,-z
x,y,-z
-x,y,1/2+z
x,-y,1/2+z
1/2+x,1/2+y,1/2+z
1/2-x,1/2-y,1/2+z
1/2+x,1/2-y,-z
1/2-x,1/2+y,-z
1/2-x,1/2-y,1/2-z
1/2+x,1/2+y,1/2-z
1/2-x,1/2+y,z
1/2+x,1/2-y,z
loop_
_atom_site_type_symbol
_atom_site_label
_atom_site_fract_x
_atom_site_fract_y
_atom_site_fract_z
Si Si1 0.242739 0.701738 0.105959
Si Si2 0.986667 0.910004 0.606031
Si Si3 0.392402 0.587832 0.281052
Si Si4 0.701057 0.631488 0.107777
Si Si5 0.288928 0.911865 0.231954
Si Si6 0.160659 0.297952 0.895540
Si Si7 0.910755 0.169348 0.603554
O O1 0.206599 0.775470 0.125015
O O2 0.226781 0.631028 0.172710
O O3 0.298743 0.730020 0.126111
O O4 0.237325 0.671468 0.000000
O O5 0.967631 0.905087 0.500000
O O6 0.943885 0.881944 0.675340
O O7 0.031794 0.849388 0.621886
O O8 0.000000 0.000000 0.629970
O O9 0.397564 0.500000 0.250000
O O10 0.351708 0.602030 0.358770
O O11 0.378521 0.631325 0.185330
O O12 0.742373 0.583616 0.163381
O O13 0.707068 0.610135 0.000000
O O14 0.334013 0.866745 0.180417
O O15 0.307372 0.000000 0.250000
O O16 0.105192 0.261199 0.891630
O O17 0.171086 0.331091 0.000000
O O18 0.896580 0.136378 0.500000
#
# Coordination Sequence:
#
# PCOD8293807 Si02
#       7
#    16  16  16  16  16  16  16
#     4   9  18  33  51  68  96 130 166 207 251 300
#     4  10  20  34  47  67 100 135 171 214 250 290
#     4  12  21  30  48  69 100 138 172 211 256 293
#     4  10  21  35  49  70  99 137 174 209 250 301
#     4  11  20  32  51  75 101 128 161 213 262 305
#     4   9  18  34  52  69  93 131 170 208 249 302
#     4  10  20  32  49  68  92 132 178 211 248 298
#
# _framework density 16.932724
#
# number of rings (size 3 to 8) (size 9 to 14) (size 15 to 20)
#    0.000    1.857    1.429    6.000    0.000    1.714 
#    0.000    1.429    0.000    0.000    0.000    0.000 
#    0.000    9.143    0.000   41.143    0.000    0.143 
#
# Total GULP energy -694066.593353 kJ/mol
# GULP energy per Si atom -12394.046310 kJ/mol
# Density = 1.689418 g / cm^3
# Si number density = 16.932724 Si / 1000 Ang^3
#
#
#
# Elastic Constant Matrix: (Units=GPa)
#
#
# Indices 1 2 3 4 5 6 
#
# 1 81.4094 36.4511 33.7840 0.0000 0.0000 0.0000
# 2 36.4511 82.7284 48.8841 0.0000 0.0000 0.0000
# 3 33.7840 48.8841 115.5810 0.0000 0.0000 0.0000
# 4 0.0000 0.0000 0.0000 2049.6236 0.0000 0.0000
# 5 0.0000 0.0000 0.0000 0.0000 39.0931 0.0000
# 6 0.0000 0.0000 0.0000 0.0000 0.0000 23.7589
#
#
#
# Elastic Compliance Matrix: (Units=1/GPa)
#
#
# Indices 1 2 3 4 5 6 
#
# 1 0.015719 -0.005614 -0.002220 0.000000 0.000000 0.000000
# 2 -0.005614 0.018120 -0.006023 0.000000 0.000000 0.000000
# 3 -0.002220 -0.006023 0.011848 0.000000 0.000000 0.000000
# 4 0.000000 0.000000 0.000000 0.000488 0.000000 0.000000
# 5 0.000000 0.000000 0.000000 0.000000 0.025580 0.000000
# 6 0.000000 0.000000 0.000000 0.000000 0.000000 0.042089
#
#
# Mechanical properties :
#
#
# Convention : Reuss Voigt Hill
#
# Bulk Modulus (GPa) = 55.63857 57.55082 56.59470
# Shear Modulus (GPa) = 33.88701 433.20177 233.54439
#
# Velocity S-wave (km/s) = 4.47841 16.01226 11.75688
# Velocity P-wave (km/s) = 7.72473 19.38861 14.75788
#
# Compressibility (1/GPa) = 0.01797314
#
# Stress axis : x y z
#
# Youngs Moduli (GPa) = 63.61912 55.18702 84.40097
#
# Poissons Ratio (x) = 0.30981 0.18738
# Poissons Ratio (y) = 0.35715 0.50834
# Poissons Ratio (z) = 0.14124 0.33238
#
# Static dielectric constant tensor:
#      x y z
#    x 3.276630 0.000000 0.000000 
#    y 0.000000 2.883540 0.000000 
#    z 0.000000 0.000000 3.465320 
# 
# 
# High freq. dielectric constant tensor:
#      x y z
#    x 1.628960 0.000000 0.000000 
#    y 0.000000 1.614790 0.000000 
#    z 0.000000 0.000000 1.685430 
# 
# From -- ./inp_files/25945.got.cif
#   From: 2010.03.12/outbox.cif.g09.slc.cpg/sg72_13_cif.got.tgz:25945.got - 2010.04.16 14:54:00.
