data_PCOD8293635
_publ_section_title
;
Structure prediction by ZEFSAII (Michael W. Deem and Ramdas Pophale) SiO2 
 PCOD8293635
Probable space group: I B A M
;
_chemical_formula_sum "Si O2"
_cell_formula_units_Z 112
_cell_length_a 14.271918
_cell_length_b 14.102102
_cell_length_c 27.477861
_cell_angle_alpha 90.000000
_cell_angle_beta 90.000000
_cell_angle_gamma 90.000000
_cell_volume 5530.305408
_symmetry_space_group_name_H-M "I B A M"
_symmetry_group_IT_number 72
_symmetry_cell_setting 'orthorhombic'
loop_
_space_group_symop_operation_xyz
x,y,z
-x,-y,z
x,-y,1/2-z
-x,y,1/2-z
-x,-y,-z
x,y,-z
-x,y,1/2+z
x,-y,1/2+z
1/2+x,1/2+y,1/2+z
1/2-x,1/2-y,1/2+z
1/2+x,1/2-y,-z
1/2-x,1/2+y,-z
1/2-x,1/2-y,1/2-z
1/2+x,1/2+y,1/2-z
1/2-x,1/2+y,z
1/2+x,1/2-y,z
loop_
_atom_site_type_symbol
_atom_site_label
_atom_site_fract_x
_atom_site_fract_y
_atom_site_fract_z
Si Si1 0.277785 0.732856 0.305153
Si Si2 0.146188 0.816540 0.943821
Si Si3 0.961880 0.260834 0.145258
Si Si4 0.849444 0.751343 0.052383
Si Si5 0.424785 0.077409 0.605734
Si Si6 0.277705 0.549783 0.364675
Si Si7 0.126698 0.144118 0.143977
O O1 0.250000 0.750000 0.250000
O O2 0.378254 0.779300 0.316979
O O3 0.284719 0.623017 0.319956
O O4 0.200715 0.778277 0.339153
O O5 0.070741 0.759744 0.910838
O O6 0.237157 0.750587 0.946107
O O7 0.173532 0.912644 0.914283
O O8 0.112087 0.837329 0.000000
O O9 0.024992 0.355951 0.146155
O O10 0.024120 0.171001 0.165610
O O11 0.890531 0.646585 0.063004
O O12 0.885463 0.835361 0.086682
O O13 0.886571 0.781484 0.000000
O O14 0.332113 0.024624 0.627137
O O15 0.500000 0.000000 0.586870
O O16 0.337418 0.460613 0.345308
#
# Coordination Sequence:
#
# PCOD8293635 Si02
#       7
#    16  16  16  16  16  16  16
#     4  11  23  42  63  88 123 162 206 266 321 374
#     4   9  18  35  57  84 118 160 207 248 296 367
#     4  10  20  38  62  90 121 168 204 254 311 374
#     4   9  18  35  55  82 124 168 203 251 314 363
#     4  10  19  34  60  90 125 160 209 260 313 373
#     4  10  21  40  62  89 126 164 202 260 324 374
#     4  11  21  39  62  89 125 163 209 257 314 373
#
# _framework density 20.252047000000001
#
# number of rings (size 3 to 8) (size 9 to 14) (size 15 to 20)
#    0.000    2.000    5.714    0.857    0.000    6.571 
#    0.000    0.714    0.000    3.429    0.000    0.000 
#    0.000    0.000    0.000    0.000    0.000    0.000 
#
# Total GULP energy -693802.150530 kJ/mol
# GULP energy per Si atom -12389.324117 kJ/mol
# Density = 2.020595 g / cm^3
# Si number density = 20.252047 Si / 1000 Ang^3
#
#
#
# Elastic Constant Matrix: (Units=GPa)
#
#
# Indices 1 2 3 4 5 6 
#
# 1 99.2654 18.6291 31.7482 0.0000 0.0000 0.0000
# 2 18.6291 82.4387 31.8088 0.0000 0.0000 0.0000
# 3 31.7482 31.8088 109.7893 0.0000 0.0000 0.0000
# 4 0.0000 0.0000 0.0000 9.9262 0.0000 0.0000
# 5 0.0000 0.0000 0.0000 0.0000 11.2633 0.0000
# 6 0.0000 0.0000 0.0000 0.0000 0.0000 33.1738
#
#
#
# Elastic Compliance Matrix: (Units=1/GPa)
#
#
# Indices 1 2 3 4 5 6 
#
# 1 0.011252 -0.001449 -0.002834 0.000000 0.000000 0.000000
# 2 -0.001449 0.013844 -0.003592 0.000000 0.000000 0.000000
# 3 -0.002834 -0.003592 0.010969 0.000000 0.000000 0.000000
# 4 0.000000 0.000000 0.000000 0.100744 0.000000 0.000000
# 5 0.000000 0.000000 0.000000 0.000000 0.088784 0.000000
# 6 0.000000 0.000000 0.000000 0.000000 0.000000 0.030144
#
#
# Mechanical properties :
#
#
# Convention : Reuss Voigt Hill
#
# Bulk Modulus (GPa) = 49.22612 50.65175 49.93894
# Shear Modulus (GPa) = 17.96894 24.82648 21.39771
#
# Velocity S-wave (km/s) = 2.98193 3.50505 3.25402
# Velocity P-wave (km/s) = 6.01792 6.43782 6.23141
#
# Compressibility (1/GPa) = 0.02031442
#
# Stress axis : x y z
#
# Youngs Moduli (GPa) = 88.86999 72.23559 91.17011
#
# Poissons Ratio (x) = 0.10469 0.25838
# Poissons Ratio (y) = 0.12880 0.32746
# Poissons Ratio (z) = 0.25186 0.25945
#
# Static dielectric constant tensor:
#      x y z
#    x 4.069670 0.000000 0.000000 
#    y 0.000000 3.417520 0.000000 
#    z 0.000000 0.000000 4.267780 
# 
# 
# High freq. dielectric constant tensor:
#      x y z
#    x 1.817910 0.000000 0.000000 
#    y 0.000000 1.765720 0.000000 
#    z 0.000000 0.000000 1.758640 
# 
# From -- ./inp_files/48712.got.cif
#   From: 2010.03.12/outbox.cif.g09.slc.cpg/sg72_25_cif.got.tgz:48712.got - 2010.04.16 14:54:00.
