data_PCOD8293080
_publ_section_title
;
Structure prediction by ZEFSAII (Michael W. Deem and Ramdas Pophale) SiO2 
 PCOD8293080
Probable space group: I B A M
;
_chemical_formula_sum "Si O2"
_cell_formula_units_Z 64
_cell_length_a 29.362899
_cell_length_b 15.179861
_cell_length_c 8.692646
_cell_angle_alpha 90.000000
_cell_angle_beta 90.000000
_cell_angle_gamma 90.000000
_cell_volume 3874.527251
_symmetry_space_group_name_H-M "I B A M"
_symmetry_group_IT_number 72
_symmetry_cell_setting 'orthorhombic'
loop_
_space_group_symop_operation_xyz
x,y,z
-x,-y,z
x,-y,1/2-z
-x,y,1/2-z
-x,-y,-z
x,y,-z
-x,y,1/2+z
x,-y,1/2+z
1/2+x,1/2+y,1/2+z
1/2-x,1/2-y,1/2+z
1/2+x,1/2-y,-z
1/2-x,1/2+y,-z
1/2-x,1/2-y,1/2-z
1/2+x,1/2+y,1/2-z
1/2-x,1/2+y,z
1/2+x,1/2-y,z
loop_
_atom_site_type_symbol
_atom_site_label
_atom_site_fract_x
_atom_site_fract_y
_atom_site_fract_z
Si Si1 0.293765 0.791526 0.673528
Si Si2 0.548095 0.593658 0.681255
Si Si3 0.362746 0.906047 0.181736
Si Si4 0.390069 0.737185 0.673976
O O1 0.281821 0.820342 0.500000
O O2 0.250000 0.750000 0.750000
O O3 0.311250 0.878120 0.766556
O O4 0.335262 0.720183 0.674279
O O5 0.562900 0.500000 0.750000
O O6 0.500000 0.625084 0.750000
O O7 0.543422 0.584377 0.500000
O O8 0.586442 0.664030 0.722227
O O9 0.398424 0.834208 0.251391
O O10 0.375930 0.000000 0.250000
O O11 0.366571 0.908418 0.000000
O O12 0.409459 0.734849 0.500000
#
# Coordination Sequence:
#
# PCOD8293080 Si02
#       4
#    16  16  16  16
#     4   9  18  31  50  73 103 136 173 217 261 310
#     4  11  21  35  56  80 108 141 177 220 267 322
#     4  10  18  31  51  75 102 136 175 212 256 308
#     4   9  19  34  52  76 105 137 175 218 262 313
#
# _framework density 16.518143999999999
#
# number of rings (size 3 to 8) (size 9 to 14) (size 15 to 20)
#    1.500    0.750    0.000    6.000    0.000    0.000 
#    0.000    1.250    0.000    6.750    0.000    5.250 
#    0.000    0.000    0.000    0.000    0.000    0.000 
#
# Total GULP energy -396503.699087 kJ/mol
# GULP energy per Si atom -12390.740596 kJ/mol
# Density = 1.648055 g / cm^3
# Si number density = 16.518144 Si / 1000 Ang^3
#
#
#
# Elastic Constant Matrix: (Units=GPa)
#
#
# Indices 1 2 3 4 5 6 
#
# 1 55.3086 44.6322 32.5621 0.0000 0.0000 0.0000
# 2 44.6322 107.2638 50.3731 0.0000 0.0000 0.0000
# 3 32.5621 50.3731 160.1673 0.0000 0.0000 0.0000
# 4 0.0000 0.0000 0.0000 32.6303 0.0000 0.0000
# 5 0.0000 0.0000 0.0000 0.0000 27.2927 0.0000
# 6 0.0000 0.0000 0.0000 0.0000 0.0000 24.6965
#
#
#
# Elastic Compliance Matrix: (Units=1/GPa)
#
#
# Indices 1 2 3 4 5 6 
#
# 1 0.027971 -0.010522 -0.002377 0.000000 0.000000 0.000000
# 2 -0.010522 0.014897 -0.002546 0.000000 0.000000 0.000000
# 3 -0.002377 -0.002546 0.007527 0.000000 0.000000 0.000000
# 4 0.000000 0.000000 0.000000 0.030646 0.000000 0.000000
# 5 0.000000 0.000000 0.000000 0.000000 0.036640 0.000000
# 6 0.000000 0.000000 0.000000 0.000000 0.000000 0.040492
#
#
# Mechanical properties :
#
#
# Convention : Reuss Voigt Hill
#
# Bulk Modulus (GPa) = 51.27046 64.20826 57.73936
# Shear Modulus (GPa) = 25.56693 29.93539 27.75116
#
# Velocity S-wave (km/s) = 3.93849 4.26170 4.10328
# Velocity P-wave (km/s) = 7.19642 7.94807 7.58157
#
# Compressibility (1/GPa) = 0.01950441
#
# Stress axis : x y z
#
# Youngs Moduli (GPa) = 35.75128 67.12899 132.84709
#
# Poissons Ratio (x) = 0.70635 0.31581
# Poissons Ratio (y) = 0.37618 0.33821
# Poissons Ratio (z) = 0.08499 0.17090
#
# Static dielectric constant tensor:
#      x y z
#    x 2.846860 0.000000 0.000000 
#    y 0.000000 3.011040 0.000000 
#    z 0.000000 0.000000 3.309120 
# 
# 
# High freq. dielectric constant tensor:
#      x y z
#    x 1.606080 0.000000 0.000000 
#    y 0.000000 1.621640 0.000000 
#    z 0.000000 0.000000 1.662560 
# 
# From -- ./inp_files/3783.got.cif
#   From: 2010.03.12/outbox.cif.g09.slc.cpg/sg72_2_cif.got.tgz:3783.got - 2010.04.16 14:54:00.
