data_PCOD8293962
_publ_section_title
;
Structure prediction by ZEFSAII (Michael W. Deem and Ramdas Pophale) SiO2 
 PCOD8293962
Probable space group: I B A M
;
_chemical_formula_sum "Si O2"
_cell_formula_units_Z 80
_cell_length_a 12.760216
_cell_length_b 17.066480
_cell_length_c 18.234743
_cell_angle_alpha 90.000000
_cell_angle_beta 90.000000
_cell_angle_gamma 90.000000
_cell_volume 3971.015927
_symmetry_space_group_name_H-M "I B A M"
_symmetry_group_IT_number 72
_symmetry_cell_setting 'orthorhombic'
loop_
_space_group_symop_operation_xyz
x,y,z
-x,-y,z
x,-y,1/2-z
-x,y,1/2-z
-x,-y,-z
x,y,-z
-x,y,1/2+z
x,-y,1/2+z
1/2+x,1/2+y,1/2+z
1/2-x,1/2-y,1/2+z
1/2+x,1/2-y,-z
1/2-x,1/2+y,-z
1/2-x,1/2-y,1/2-z
1/2+x,1/2+y,1/2-z
1/2-x,1/2+y,z
1/2+x,1/2-y,z
loop_
_atom_site_type_symbol
_atom_site_label
_atom_site_fract_x
_atom_site_fract_y
_atom_site_fract_z
Si Si1 0.570848 0.430367 0.083960
Si Si2 0.052301 0.179087 0.673510
Si Si3 0.254946 0.423823 0.202417
Si Si4 0.312827 0.969967 0.585938
Si Si5 0.592833 0.143886 0.694673
O O1 0.500000 0.500000 0.120503
O O2 0.534918 0.346202 0.114681
O O3 0.694231 0.439508 0.097360
O O4 0.542297 0.428412 0.000000
O O5 0.151227 0.122660 0.665082
O O6 0.082148 0.269280 0.662738
O O7 0.000000 0.163521 0.750000
O O8 0.290352 0.500000 0.250000
O O9 0.180899 0.450101 0.133731
O O10 0.196644 0.363418 0.256008
O O11 0.339985 0.983199 0.500000
O O12 0.397090 0.910681 0.622320
O O13 0.500000 0.118513 0.750000
#
# Coordination Sequence:
#
# PCOD8293962 Si02
#       5
#    16  16  16  16  16
#     4  10  20  35  58  90 122 147 184 245 304 353
#     4  11  21  33  58  88 118 155 197 237 297 357
#     4  10  20  34  56  83 115 151 197 249 293 339
#     4  10  21  39  63  89 115 152 199 246 296 351
#     4  10  23  40  55  80 121 163 195 244 291 339
#
# _framework density 20.145979000000001
#
# number of rings (size 3 to 8) (size 9 to 14) (size 15 to 20)
#    0.000    1.800    2.000    3.000    0.000    6.000 
#    0.000    2.000    0.000    1.200    0.000    0.000 
#    0.000    0.000    0.000    0.000    0.000    0.000 
#
# Total GULP energy -495757.282322 kJ/mol
# GULP energy per Si atom -12393.932058 kJ/mol
# Density = 2.010013 g / cm^3
# Si number density = 20.145979 Si / 1000 Ang^3
#
#
#
# Elastic Constant Matrix: (Units=GPa)
#
#
# Indices 1 2 3 4 5 6 
#
# 1 26.6364 15.1103 3.2262 0.0000 0.0000 0.0000
# 2 15.1103 94.8680 36.8710 0.0000 0.0000 0.0000
# 3 3.2262 36.8710 99.7836 0.0000 0.0000 0.0000
# 4 0.0000 0.0000 0.0000 -331.6262 0.0000 0.0000
# 5 0.0000 0.0000 0.0000 0.0000 34.1723 0.0000
# 6 0.0000 0.0000 0.0000 0.0000 0.0000 40.9327
#
#
#
# Elastic Compliance Matrix: (Units=1/GPa)
#
#
# Indices 1 2 3 4 5 6 
#
# 1 0.041412 -0.007094 0.001283 0.000000 0.000000 0.000000
# 2 -0.007094 0.013524 -0.004768 0.000000 0.000000 0.000000
# 3 0.001283 -0.004768 0.011742 0.000000 0.000000 0.000000
# 4 0.000000 0.000000 0.000000 -0.003015 0.000000 0.000000
# 5 0.000000 0.000000 0.000000 0.000000 0.029263 0.000000
# 6 0.000000 0.000000 0.000000 0.000000 0.000000 0.024430
#
#
# Mechanical properties :
#
#
# Convention : Reuss Voigt Hill
#
# Bulk Modulus (GPa) = 21.96920 36.85587 29.41254
# Shear Modulus (GPa) = 32.53338 -40.23218 -3.84940
#
# Velocity S-wave (km/s) = 4.02292 -4.47367 -1.38380
# Velocity P-wave (km/s) = 5.70151 2.88977 3.47537
#
# Compressibility (1/GPa) = 0.04551826
#
# Stress axis : x y z
#
# Youngs Moduli (GPa) = 24.14774 73.94259 85.16441
#
# Poissons Ratio (x) = 0.52458 -0.10923
# Poissons Ratio (y) = 0.17131 0.40605
# Poissons Ratio (z) = -0.03097 0.35255
#
# Static dielectric constant tensor:
#      x y z
#    x 3.505640 0.000000 0.000000 
#    y 0.000000 3.654170 0.000000 
#    z 0.000000 0.000000 3.747290 
# 
# 
# High freq. dielectric constant tensor:
#      x y z
#    x 1.783860 0.000000 0.000000 
#    y 0.000000 1.773040 0.000000 
#    z 0.000000 0.000000 1.789150 
# 
# From -- ./inp_files/30451.got.cif
#   From: 2010.03.12/outbox.cif.g09.slc.cpg/sg72_16_cif.got.tgz:30451.got - 2010.04.16 14:54:00.
