data_PCOD8293869
_publ_section_title
;
Structure prediction by ZEFSAII (Michael W. Deem and Ramdas Pophale) SiO2 
 PCOD8293869
Probable space group: I B A M
;
_chemical_formula_sum "Si O2"
_cell_formula_units_Z 64
_cell_length_a 30.446317
_cell_length_b 14.923766
_cell_length_c 8.912887
_cell_angle_alpha 90.000000
_cell_angle_beta 90.000000
_cell_angle_gamma 90.000000
_cell_volume 4049.781537
_symmetry_space_group_name_H-M "I B A M"
_symmetry_group_IT_number 72
_symmetry_cell_setting 'orthorhombic'
loop_
_space_group_symop_operation_xyz
x,y,z
-x,-y,z
x,-y,1/2-z
-x,y,1/2-z
-x,-y,-z
x,y,-z
-x,y,1/2+z
x,-y,1/2+z
1/2+x,1/2+y,1/2+z
1/2-x,1/2-y,1/2+z
1/2+x,1/2-y,-z
1/2-x,1/2+y,-z
1/2-x,1/2-y,1/2-z
1/2+x,1/2+y,1/2-z
1/2-x,1/2+y,z
1/2+x,1/2-y,z
loop_
_atom_site_type_symbol
_atom_site_label
_atom_site_fract_x
_atom_site_fract_y
_atom_site_fract_z
Si Si1 0.380672 0.235982 0.323510
Si Si2 0.545806 0.093702 0.178138
Si Si3 0.795888 0.759481 0.669147
Si Si4 0.360999 0.594149 0.330838
O O1 0.375623 0.245004 0.500000
O O2 0.418211 0.166873 0.277171
O O3 0.333894 0.202279 0.254662
O O4 0.392595 0.334142 0.254470
O O5 0.500000 0.125271 0.250000
O O6 0.560835 0.000000 0.250000
O O7 0.540624 0.082986 0.000000
O O8 0.791411 0.723089 0.500000
O O9 0.750000 0.750000 0.750000
O O10 0.811496 0.864047 0.670293
O O11 0.361188 0.500000 0.250000
O O12 0.378242 0.581575 0.500000
#
# Coordination Sequence:
#
# PCOD8293869 Si02
#       4
#    16  16  16  16
#     4   9  18  32  50  72 100 132 167 207 251 300
#     4  10  20  33  53  77 103 136 170 211 257 307
#     4   9  18  30  48  71  97 130 165 207 252 295
#     4   9  18  30  49  73  96 129 165 200 245 294
#
# _framework density 15.803322
#
# number of rings (size 3 to 8) (size 9 to 14) (size 15 to 20)
#    1.500    1.250    0.000    3.000    0.000    4.000 
#    0.000    1.250    0.000    0.750    0.000    5.250 
#    0.000    0.000    0.000    0.000    0.000    0.000 
#
# Total GULP energy -396423.479780 kJ/mol
# GULP energy per Si atom -12388.233743 kJ/mol
# Density = 1.576735 g / cm^3
# Si number density = 15.803322 Si / 1000 Ang^3
#
#
#
# Elastic Constant Matrix: (Units=GPa)
#
#
# Indices 1 2 3 4 5 6 
#
# 1 108.9981 70.2781 65.6085 0.0000 0.0000 0.0000
# 2 70.2781 102.4468 62.9114 0.0000 0.0000 0.0000
# 3 65.6085 62.9114 135.6371 0.0000 0.0000 0.0000
# 4 0.0000 0.0000 0.0000 28.7520 0.0000 0.0000
# 5 0.0000 0.0000 0.0000 0.0000 24.1184 0.0000
# 6 0.0000 0.0000 0.0000 0.0000 0.0000 24.8390
#
#
#
# Elastic Compliance Matrix: (Units=1/GPa)
#
#
# Indices 1 2 3 4 5 6 
#
# 1 0.017988 -0.009783 -0.004163 0.000000 0.000000 0.000000
# 2 -0.009783 0.018969 -0.004066 0.000000 0.000000 0.000000
# 3 -0.004163 -0.004066 0.011272 0.000000 0.000000 0.000000
# 4 0.000000 0.000000 0.000000 0.034780 0.000000 0.000000
# 5 0.000000 0.000000 0.000000 0.000000 0.041462 0.000000
# 6 0.000000 0.000000 0.000000 0.000000 0.000000 0.040259
#
#
# Mechanical properties :
#
#
# Convention : Reuss Voigt Hill
#
# Bulk Modulus (GPa) = 81.93661 82.74199 82.33930
# Shear Modulus (GPa) = 24.41096 25.42748 24.91922
#
# Velocity S-wave (km/s) = 3.93450 4.01558 3.97525
# Velocity P-wave (km/s) = 8.52060 8.60063 8.56071
#
# Compressibility (1/GPa) = 0.01220456
#
# Stress axis : x y z
#
# Youngs Moduli (GPa) = 55.59131 52.71635 88.71170
#
# Poissons Ratio (x) = 0.51574 0.36934
# Poissons Ratio (y) = 0.54386 0.36072
# Poissons Ratio (z) = 0.23145 0.21436
#
# Static dielectric constant tensor:
#      x y z
#    x 2.815010 0.000000 0.000000 
#    y 0.000000 2.828980 0.000000 
#    z 0.000000 0.000000 3.175110 
# 
# 
# High freq. dielectric constant tensor:
#      x y z
#    x 1.584590 0.000000 0.000000 
#    y 0.000000 1.587390 0.000000 
#    z 0.000000 0.000000 1.631960 
# 
# From -- ./inp_files/3787.got.cif
#   From: 2010.03.12/outbox.cif.g09.slc.cpg/sg72_2_cif.got.tgz:3787.got - 2010.04.16 14:54:00.
