data_PCOD8293074
_publ_section_title
;
Structure prediction by ZEFSAII (Michael W. Deem and Ramdas Pophale) SiO2 
 PCOD8293074
Probable space group: I B A M
;
_chemical_formula_sum "Si O2"
_cell_formula_units_Z 128
_cell_length_a 21.690006
_cell_length_b 21.673807
_cell_length_c 17.200879
_cell_angle_alpha 90.000000
_cell_angle_beta 90.000000
_cell_angle_gamma 90.000000
_cell_volume 8086.219289
_symmetry_space_group_name_H-M "I B A M"
_symmetry_group_IT_number 72
_symmetry_cell_setting 'orthorhombic'
loop_
_space_group_symop_operation_xyz
x,y,z
-x,-y,z
x,-y,1/2-z
-x,y,1/2-z
-x,-y,-z
x,y,-z
-x,y,1/2+z
x,-y,1/2+z
1/2+x,1/2+y,1/2+z
1/2-x,1/2-y,1/2+z
1/2+x,1/2-y,-z
1/2-x,1/2+y,-z
1/2-x,1/2-y,1/2-z
1/2+x,1/2+y,1/2-z
1/2-x,1/2+y,z
1/2+x,1/2-y,z
loop_
_atom_site_type_symbol
_atom_site_label
_atom_site_fract_x
_atom_site_fract_y
_atom_site_fract_z
Si Si1 0.064380 0.382990 0.912123
Si Si2 0.926639 0.253784 0.087561
Si Si3 0.430755 0.099311 0.086545
Si Si4 0.152034 0.769156 0.231533
Si Si5 0.267953 0.150159 0.731573
Si Si6 0.459185 0.765521 0.178117
Si Si7 0.303366 0.928643 0.911282
Si Si8 0.678168 0.958372 0.821852
O O1 0.075212 0.324204 0.857893
O O2 0.122255 0.428190 0.903125
O O3 0.001184 0.419519 0.891750
O O4 0.058832 0.357616 0.000000
O O5 0.926649 0.327235 0.091185
O O6 0.871987 0.229169 0.142560
O O7 0.994569 0.231435 0.117487
O O8 0.915474 0.229192 0.000000
O O9 0.384656 0.069733 0.146723
O O10 0.413406 0.076196 0.000000
O O11 0.198813 0.825306 0.242474
O O12 0.183490 0.704000 0.251447
O O13 0.094619 0.779846 0.290608
O O14 0.274498 0.124080 0.643686
O O15 0.276373 0.096069 0.794819
O O16 0.500000 0.789987 0.250000
O O17 0.285547 0.998129 0.883985
O O18 0.281578 0.916838 0.000000
O O19 0.657586 0.000000 0.750000
#
# Coordination Sequence:
#
# PCOD8293074 Si02
#       8
#    16  16  16  16  16  16  16  16
#     4   9  17  28  43  62  87 120 158 198 236 267
#     4   9  17  29  49  72  94 122 151 188 235 279
#     4   9  16  28  44  61  88 121 157 199 234 268
#     4  10  18  31  50  68  94 124 156 196 234 278
#     4  10  20  33  46  66  93 124 163 201 231 273
#     4   9  16  26  46  69  93 119 149 188 235 280
#     4  10  20  33  48  63  88 126 164 205 240 270
#     4  10  20  32  45  61  87 122 163 205 239 267
#
# _framework density 15.8294
#
# number of rings (size 3 to 8) (size 9 to 14) (size 15 to 20)
#    0.000    2.500    2.500    1.500    0.000    1.000 
#    0.000    3.750    0.000    3.000    0.000    0.000 
#    0.000   40.500    0.000   20.250    0.000    0.000 
#
# Total GULP energy -793247.930780 kJ/mol
# GULP energy per Si atom -12394.498918 kJ/mol
# Density = 1.579337 g / cm^3
# Si number density = 15.829400 Si / 1000 Ang^3
#
#
#
# Elastic Constant Matrix: (Units=GPa)
#
#
# Indices 1 2 3 4 5 6 
#
# 1 84.5557 46.2161 49.5493 0.0000 0.0000 0.0000
# 2 46.2161 62.4269 41.9747 0.0000 0.0000 0.0000
# 3 49.5493 41.9747 102.9115 0.0000 0.0000 0.0000
# 4 0.0000 0.0000 0.0000 12.7161 0.0000 0.0000
# 5 0.0000 0.0000 0.0000 0.0000 19.3242 0.0000
# 6 0.0000 0.0000 0.0000 0.0000 0.0000 17.5842
#
#
#
# Elastic Compliance Matrix: (Units=1/GPa)
#
#
# Indices 1 2 3 4 5 6 
#
# 1 0.021848 -0.012541 -0.005404 0.000000 0.000000 0.000000
# 2 -0.012541 0.029270 -0.005900 0.000000 0.000000 0.000000
# 3 -0.005404 -0.005900 0.014726 0.000000 0.000000 0.000000
# 4 0.000000 0.000000 0.000000 0.078640 0.000000 0.000000
# 5 0.000000 0.000000 0.000000 0.000000 0.051748 0.000000
# 6 0.000000 0.000000 0.000000 0.000000 0.000000 0.056869
#
#
# Mechanical properties :
#
#
# Convention : Reuss Voigt Hill
#
# Bulk Modulus (GPa) = 55.08723 58.37492 56.73108
# Shear Modulus (GPa) = 16.29492 17.40184 16.84838
#
# Velocity S-wave (km/s) = 3.21192 3.31922 3.26601
# Velocity P-wave (km/s) = 6.97362 7.18660 7.08091
#
# Compressibility (1/GPa) = 0.01815303
#
# Stress axis : x y z
#
# Youngs Moduli (GPa) = 45.77106 34.16416 67.90863
#
# Poissons Ratio (x) = 0.42845 0.36699
# Poissons Ratio (y) = 0.57401 0.40069
# Poissons Ratio (z) = 0.24735 0.20159
#
# Static dielectric constant tensor:
#      x y z
#    x 2.949300 0.000000 0.000000 
#    y 0.000000 2.713880 0.000000 
#    z 0.000000 0.000000 3.310860 
# 
# 
# High freq. dielectric constant tensor:
#      x y z
#    x 1.588510 0.000000 0.000000 
#    y 0.000000 1.565910 0.000000 
#    z 0.000000 0.000000 1.623440 
# 
# From -- ./inp_files/32931.got.cif
#   From: 2010.03.12/outbox.cif.g09.slc.cpg/sg72_17_cif.got.tgz:32931.got - 2010.04.16 14:54:00.
