data_PCOD8293422
_publ_section_title
;
Structure prediction by ZEFSAII (Michael W. Deem and Ramdas Pophale) SiO2 
 PCOD8293422
Probable space group: I B A M
;
_chemical_formula_sum "Si O2"
_cell_formula_units_Z 104
_cell_length_a 12.704037
_cell_length_b 17.857357
_cell_length_c 26.751699
_cell_angle_alpha 90.000000
_cell_angle_beta 90.000000
_cell_angle_gamma 90.000000
_cell_volume 6068.904454
_symmetry_space_group_name_H-M "I B A M"
_symmetry_group_IT_number 72
_symmetry_cell_setting 'orthorhombic'
loop_
_space_group_symop_operation_xyz
x,y,z
-x,-y,z
x,-y,1/2-z
-x,y,1/2-z
-x,-y,-z
x,y,-z
-x,y,1/2+z
x,-y,1/2+z
1/2+x,1/2+y,1/2+z
1/2-x,1/2-y,1/2+z
1/2+x,1/2-y,-z
1/2-x,1/2+y,-z
1/2-x,1/2-y,1/2-z
1/2+x,1/2+y,1/2-z
1/2-x,1/2+y,z
1/2+x,1/2-y,z
loop_
_atom_site_type_symbol
_atom_site_label
_atom_site_fract_x
_atom_site_fract_y
_atom_site_fract_z
Si Si1 0.219038 0.000000 0.750000
Si Si2 0.875062 0.586979 0.500000
Si Si3 0.746431 0.757867 0.168740
Si Si4 0.610339 0.863670 0.896603
Si Si5 0.873338 0.418546 0.500000
Si Si6 0.613694 0.005248 0.833412
Si Si7 0.875985 0.838848 0.746524
Si Si8 0.873774 0.649704 0.896178
O O1 0.293166 0.018248 0.796850
O O2 0.146321 0.072570 0.743083
O O3 0.836554 0.633880 0.451576
O O4 0.827719 0.503069 0.500000
O O5 0.000972 0.580401 0.500000
O O6 0.675242 0.821036 0.144704
O O7 0.827237 0.798786 0.205332
O O8 0.672052 0.698956 0.197106
O O9 0.807366 0.719943 0.122852
O O10 0.603010 0.950276 0.880623
O O11 0.495458 0.826342 0.900339
O O12 0.830718 0.376622 0.549680
O O13 0.500000 0.000000 0.805267
O O14 0.639469 0.087128 0.853682
O O15 0.000000 0.825439 0.750000
#
# Coordination Sequence:
#
# PCOD8293422 Si02
#       8
#     8   8  16  16   8  16  16  16
#     4  12  20  38  54  76 100 140 184 218 248 312
#     4   9  16  29  52  80 105 129 167 211 253 303
#     4  11  22  37  52  74 110 135 170 213 264 320
#     4  10  19  33  54  78 106 137 167 210 261 308
#     4   9  16  29  52  80 105 129 167 211 253 303
#     4  10  19  32  53  81 107 133 172 215 260 305
#     4  11  24  38  53  74 102 140 179 219 257 309
#     4  10  19  33  54  78 106 137 167 210 261 308
#
# _framework density 17.136536
#
# number of rings (size 3 to 8) (size 9 to 14) (size 15 to 20)
#    0.000    1.692    4.615    1.385    0.000    0.615 
#    0.000    0.000    0.000    0.000    0.000    0.000 
#    0.000    4.923    0.000    0.000    0.000    0.000 
#
# Total GULP energy -644728.857158 kJ/mol
# GULP energy per Si atom -12398.631868 kJ/mol
# Density = 1.709753 g / cm^3
# Si number density = 17.136536 Si / 1000 Ang^3
#
#
#
# Elastic Constant Matrix: (Units=GPa)
#
#
# Indices 1 2 3 4 5 6 
#
# 1 81.8766 31.4187 35.3571 0.0000 0.0000 0.0000
# 2 31.4187 79.0904 26.5407 0.0000 0.0000 0.0000
# 3 35.3571 26.5407 100.3519 0.0000 0.0000 0.0000
# 4 0.0000 0.0000 0.0000 21.6533 0.0000 0.0000
# 5 0.0000 0.0000 0.0000 0.0000 -21.7038 0.0000
# 6 0.0000 0.0000 0.0000 0.0000 0.0000 15.8204
#
#
#
# Elastic Compliance Matrix: (Units=1/GPa)
#
#
# Indices 1 2 3 4 5 6 
#
# 1 0.015959 -0.004886 -0.004330 0.000000 0.000000 0.000000
# 2 -0.004886 0.015371 -0.002344 0.000000 0.000000 0.000000
# 3 -0.004330 -0.002344 0.012111 0.000000 0.000000 0.000000
# 4 0.000000 0.000000 0.000000 0.046182 0.000000 0.000000
# 5 0.000000 0.000000 0.000000 0.000000 -0.046075 0.000000
# 6 0.000000 0.000000 0.000000 0.000000 0.000000 0.063210
#
#
# Mechanical properties :
#
#
# Convention : Reuss Voigt Hill
#
# Bulk Modulus (GPa) = 49.21387 49.77244 49.49316
# Shear Modulus (GPa) = 36.58935 14.35413 25.47174
#
# Velocity S-wave (km/s) = 4.62580 2.89733 3.85957
# Velocity P-wave (km/s) = 7.57045 6.34826 6.98613
#
# Compressibility (1/GPa) = 0.02031948
#
# Stress axis : x y z
#
# Youngs Moduli (GPa) = 62.66228 65.05592 82.57289
#
# Poissons Ratio (x) = 0.31789 0.35757
# Poissons Ratio (y) = 0.30619 0.19353
# Poissons Ratio (z) = 0.27135 0.15247
#
# Static dielectric constant tensor:
#      x y z
#    x 2.954630 0.000000 0.000000 
#    y 0.000000 3.096120 0.000000 
#    z 0.000000 0.000000 3.265910 
# 
# 
# High freq. dielectric constant tensor:
#      x y z
#    x 1.634860 0.000000 0.000000 
#    y 0.000000 1.660770 0.000000 
#    z 0.000000 0.000000 1.671340 
# 
# From -- ./inp_files/48185.got.cif
#   From: 2010.03.12/outbox.cif.g09.slc.cpg/sg72_25_cif.got.tgz:48185.got - 2010.04.16 14:54:00.
