data_PCOD8293891
_publ_section_title
;
Structure prediction by ZEFSAII (Michael W. Deem and Ramdas Pophale) SiO2 
 PCOD8293891
Probable space group: I B A M
;
_chemical_formula_sum "Si O2"
_cell_formula_units_Z 80
_cell_length_a 14.947294
_cell_length_b 29.414525
_cell_length_c 10.570303
_cell_angle_alpha 90.000000
_cell_angle_beta 90.000000
_cell_angle_gamma 90.000000
_cell_volume 4647.419255
_symmetry_space_group_name_H-M "I B A M"
_symmetry_group_IT_number 72
_symmetry_cell_setting 'orthorhombic'
loop_
_space_group_symop_operation_xyz
x,y,z
-x,-y,z
x,-y,1/2-z
-x,y,1/2-z
-x,-y,-z
x,y,-z
-x,y,1/2+z
x,-y,1/2+z
1/2+x,1/2+y,1/2+z
1/2-x,1/2-y,1/2+z
1/2+x,1/2-y,-z
1/2-x,1/2+y,-z
1/2-x,1/2-y,1/2-z
1/2+x,1/2+y,1/2-z
1/2-x,1/2+y,z
1/2+x,1/2-y,z
loop_
_atom_site_type_symbol
_atom_site_label
_atom_site_fract_x
_atom_site_fract_y
_atom_site_fract_z
Si Si1 0.313280 0.293565 0.744835
Si Si2 0.437711 0.204517 0.500000
Si Si3 0.615250 0.098978 0.500000
Si Si4 0.274467 0.186392 0.000000
Si Si5 0.240758 0.787344 0.000000
Si Si6 0.893248 0.448241 0.250711
Si Si7 0.500000 0.753032 0.250000
Si Si8 0.905339 0.399423 0.500000
O O1 0.250000 0.250000 0.750000
O O2 0.286816 0.324045 0.624141
O O3 0.416617 0.280530 0.746724
O O4 0.288033 0.317753 0.878642
O O5 0.343924 0.232419 0.500000
O O6 0.496143 0.214615 0.374363
O O7 0.393533 0.154606 0.500000
O O8 0.641193 0.152241 0.500000
O O9 0.651415 0.075275 0.627633
O O10 0.510217 0.091805 0.500000
O O11 0.312281 0.238257 0.000000
O O12 0.859497 0.500000 0.250000
O O13 0.859760 0.422010 0.376483
O O14 0.000000 0.445993 0.250000
#
# Coordination Sequence:
#
# PCOD8293891 Si02
#       8
#    16   8   8   8   8  16   8   8
#     4  10  20  35  51  68  95 132 174 213 258 292
#     4  12  25  32  51  74 101 129 188 217 257 291
#     4  10  21  30  51  72  95 134 163 216 257 278
#     4  10  20  34  47  69  96 124 174 199 246 303
#     4  10  21  36  46  69 100 139 162 215 267 289
#     4   9  18  35  49  67  95 129 168 205 258 313
#     4  12  22  38  54  70  95 144 179 218 250 308
#     4  10  23  28  47  76  94 124 175 222 242 293
#
# _framework density 17.213854999999999
#
# number of rings (size 3 to 8) (size 9 to 14) (size 15 to 20)
#    0.000    1.800    4.000    1.200   12.600    2.400 
#    0.000    0.000    0.000    0.000    0.000    0.000 
#    0.000    0.000    0.000    2.700    0.000    0.000 
#
# Total GULP energy -495609.708163 kJ/mol
# GULP energy per Si atom -12390.242704 kJ/mol
# Density = 1.717468 g / cm^3
# Si number density = 17.213855 Si / 1000 Ang^3
#
#
#
# Elastic Constant Matrix: (Units=GPa)
#
#
# Indices 1 2 3 4 5 6 
#
# 1 36.7195 -8.7291 19.4499 -0.0003 0.0000 0.0000
# 2 -8.7291 48.5911 34.2110 -0.0006 0.0001 0.0001
# 3 19.4499 34.2110 196.4518 -0.0021 0.0005 0.0010
# 4 -0.0003 -0.0006 -0.0021 24.7118 0.0004 0.0004
# 5 0.0000 0.0001 0.0005 0.0004 18.4776 -0.0002
# 6 0.0000 0.0001 0.0010 0.0004 -0.0002 8.3191
#
#
#
# Elastic Compliance Matrix: (Units=1/GPa)
#
#
# Indices 1 2 3 4 5 6 
#
# 1 0.031897 0.009065 -0.004737 0.000000 0.000000 0.000000
# 2 0.009065 0.026032 -0.005431 0.000000 0.000000 0.000000
# 3 -0.004737 -0.005431 0.006505 0.000000 0.000000 -0.000001
# 4 0.000000 0.000000 0.000000 0.040467 -0.000001 -0.000002
# 5 0.000000 0.000000 0.000000 -0.000001 0.054120 0.000001
# 6 0.000000 0.000000 -0.000001 -0.000002 0.000001 0.120205
#
#
# Mechanical properties :
#
#
# Convention : Reuss Voigt Hill
#
# Bulk Modulus (GPa) = 16.06953 41.29180 28.68066
# Shear Modulus (GPa) = 16.54680 26.09041 21.31860
#
# Velocity S-wave (km/s) = 3.10376 3.89738 3.52299
# Velocity P-wave (km/s) = 4.71168 6.65525 5.76595
#
# Compressibility (1/GPa) = 0.06222957
#
# Stress axis : x y z
#
# Youngs Moduli (GPa) = 31.35048 38.41429 153.72760
#
# Poissons Ratio (x) = -0.34823 0.72816
# Poissons Ratio (y) = -0.28419 0.83487
# Poissons Ratio (z) = 0.14850 0.20862
#
# Static dielectric constant tensor:
#      x y z
#    x 2.900360 0.000000 -0.000080 
#    y 0.000000 2.875910 -0.000030 
#    z -0.000080 -0.000030 5.254920 
# 
# 
# High freq. dielectric constant tensor:
#      x y z
#    x 1.615610 0.000000 0.000000 
#    y 0.000000 1.613580 0.000000 
#    z 0.000000 0.000000 1.707810 
# 
# From -- ./inp_files/12988.got.cif
#   From: 2010.03.12/outbox.cif.g09.slc.cpg/sg72_7_cif.got.tgz:12988.got - 2010.04.16 14:54:00.
