data_PCOD8293759
_publ_section_title
;
Structure prediction by ZEFSAII (Michael W. Deem and Ramdas Pophale) SiO2 
 PCOD8293759
Probable space group: I B A M
;
_chemical_formula_sum "Si O2"
_cell_formula_units_Z 116
_cell_length_a 26.474709
_cell_length_b 13.782470
_cell_length_c 16.135353
_cell_angle_alpha 90.000000
_cell_angle_beta 90.000000
_cell_angle_gamma 90.000000
_cell_volume 5887.578655
_symmetry_space_group_name_H-M "I B A M"
_symmetry_group_IT_number 72
_symmetry_cell_setting 'orthorhombic'
loop_
_space_group_symop_operation_xyz
x,y,z
-x,-y,z
x,-y,1/2-z
-x,y,1/2-z
-x,-y,-z
x,y,-z
-x,y,1/2+z
x,-y,1/2+z
1/2+x,1/2+y,1/2+z
1/2-x,1/2-y,1/2+z
1/2+x,1/2-y,-z
1/2-x,1/2+y,-z
1/2-x,1/2-y,1/2-z
1/2+x,1/2+y,1/2-z
1/2-x,1/2+y,z
1/2+x,1/2-y,z
loop_
_atom_site_type_symbol
_atom_site_label
_atom_site_fract_x
_atom_site_fract_y
_atom_site_fract_z
Si Si1 0.854788 0.473841 0.906811
Si Si2 0.353764 0.162819 0.691760
Si Si3 0.500000 0.000000 0.750000
Si Si4 0.568793 0.842091 0.828303
Si Si5 0.425512 0.543589 0.097617
Si Si6 0.827512 0.843103 0.902883
Si Si7 0.266846 0.090475 0.803818
Si Si8 0.975828 0.850035 0.401707
O O1 0.870210 0.558409 0.843331
O O2 0.891869 0.381980 0.896735
O O3 0.797967 0.443453 0.884266
O O4 0.856061 0.512478 0.000000
O O5 0.400054 0.195908 0.749072
O O6 0.348513 0.235720 0.614776
O O7 0.301938 0.157669 0.745184
O O8 0.532369 0.931369 0.809317
O O9 0.536697 0.752326 0.861115
O O10 0.369744 0.578035 0.123844
O O11 0.469135 0.615860 0.131580
O O12 0.435200 0.432603 0.126657
O O13 0.431186 0.547514 0.000000
O O14 0.780622 0.853681 0.841208
O O15 0.813215 0.852147 0.000000
O O16 0.247003 0.000000 0.750000
O O17 0.974963 0.836592 0.500000
#
# Coordination Sequence:
#
# PCOD8293759 Si02
#       8
#    16  16   4  16  16  16  16  16
#     4  10  19  38  60  83 109 145 193 237 280 348
#     4  10  21  38  55  81 115 157 180 231 297 346
#     4  12  24  40  54  82 124 152 186 248 280 328
#     4  11  22  37  59  81 115 154 189 233 289 333
#     4   8  18  35  56  83 119 146 183 240 290 329
#     4  11  21  35  58  87 113 149 192 238 283 342
#     4   9  20  37  58  80 113 149 187 235 296 339
#     4   9  18  37  60  84 112 154 193 233 287 347
#
# _framework density 19.702497000000001
#
# number of rings (size 3 to 8) (size 9 to 14) (size 15 to 20)
#    0.000    2.207    1.379    3.310    1.931    1.103 
#    0.000    2.759    0.000    6.621    0.000    0.000 
#    0.000    0.000    0.000    0.000    0.000    0.000 
#
# Total GULP energy -718989.702979 kJ/mol
# GULP energy per Si atom -12396.374189 kJ/mol
# Density = 1.965765 g / cm^3
# Si number density = 19.702497 Si / 1000 Ang^3
#
#
#
# Elastic Constant Matrix: (Units=GPa)
#
#
# Indices 1 2 3 4 5 6 
#
# 1 85.5338 45.7871 35.0728 0.0000 0.0000 0.0000
# 2 45.7871 116.7411 32.7376 0.0000 0.0000 0.0000
# 3 35.0728 32.7376 81.7522 0.0000 0.0000 0.0000
# 4 0.0000 0.0000 0.0000 33.1928 0.0000 0.0000
# 5 0.0000 0.0000 0.0000 0.0000 18.0100 0.0000
# 6 0.0000 0.0000 0.0000 0.0000 0.0000 27.9774
#
#
#
# Elastic Compliance Matrix: (Units=1/GPa)
#
#
# Indices 1 2 3 4 5 6 
#
# 1 0.016457 -0.005041 -0.005042 0.000000 0.000000 0.000000
# 2 -0.005041 0.011194 -0.002320 0.000000 0.000000 0.000000
# 3 -0.005042 -0.002320 0.015324 0.000000 0.000000 0.000000
# 4 0.000000 0.000000 0.000000 0.030127 0.000000 0.000000
# 5 0.000000 0.000000 0.000000 0.000000 0.055525 0.000000
# 6 0.000000 0.000000 0.000000 0.000000 0.000000 0.035743
#
#
# Mechanical properties :
#
#
# Convention : Reuss Voigt Hill
#
# Bulk Modulus (GPa) = 55.03617 56.80247 55.91932
# Shear Modulus (GPa) = 25.61071 27.19801 26.40436
#
# Velocity S-wave (km/s) = 3.60928 3.71945 3.66478
# Velocity P-wave (km/s) = 6.73524 6.88029 6.80815
#
# Compressibility (1/GPa) = 0.01816987
#
# Stress axis : x y z
#
# Youngs Moduli (GPa) = 60.76443 89.33699 65.25690
#
# Poissons Ratio (x) = 0.45033 0.32901
# Poissons Ratio (y) = 0.30630 0.15139
# Poissons Ratio (z) = 0.30636 0.20725
#
# Static dielectric constant tensor:
#      x y z
#    x 3.702060 0.000000 0.000000 
#    y 0.000000 3.566650 0.000000 
#    z 0.000000 0.000000 3.354970 
# 
# 
# High freq. dielectric constant tensor:
#      x y z
#    x 1.768120 0.000000 0.000000 
#    y 0.000000 1.767000 0.000000 
#    z 0.000000 0.000000 1.757800 
# 
# From -- ./inp_files/34002.got.cif
#   From: 2010.03.12/outbox.cif.g09.slc.cpg/sg72_18_cif.got.tgz:34002.got - 2010.04.16 14:54:00.
