data_PCOD8293172
_publ_section_title
;
Structure prediction by ZEFSAII (Michael W. Deem and Ramdas Pophale) SiO2 
 PCOD8293172
Probable space group: I B A M
;
_chemical_formula_sum "Si O2"
_cell_formula_units_Z 112
_cell_length_a 11.754072
_cell_length_b 30.066983
_cell_length_c 17.350064
_cell_angle_alpha 90.000000
_cell_angle_beta 90.000000
_cell_angle_gamma 90.000000
_cell_volume 6131.677148
_symmetry_space_group_name_H-M "I B A M"
_symmetry_group_IT_number 72
_symmetry_cell_setting 'orthorhombic'
loop_
_space_group_symop_operation_xyz
x,y,z
-x,-y,z
x,-y,1/2-z
-x,y,1/2-z
-x,-y,-z
x,y,-z
-x,y,1/2+z
x,-y,1/2+z
1/2+x,1/2+y,1/2+z
1/2-x,1/2-y,1/2+z
1/2+x,1/2-y,-z
1/2-x,1/2+y,-z
1/2-x,1/2-y,1/2-z
1/2+x,1/2+y,1/2-z
1/2-x,1/2+y,z
1/2+x,1/2-y,z
loop_
_atom_site_type_symbol
_atom_site_label
_atom_site_fract_x
_atom_site_fract_y
_atom_site_fract_z
Si Si1 0.351333 0.900659 0.913878
Si Si2 0.022863 0.665767 0.839379
Si Si3 0.812283 0.168777 0.857519
Si Si4 0.566679 0.666956 0.588691
Si Si5 0.632936 0.950054 0.265669
Si Si6 0.753886 0.867697 0.807429
Si Si7 0.369706 0.766080 0.088709
O O1 0.457716 0.870281 0.890679
O O2 0.237353 0.871120 0.909315
O O3 0.342662 0.942083 0.855994
O O4 0.366907 0.919328 0.000000
O O5 0.157211 0.660527 0.852605
O O6 0.000000 0.655420 0.750000
O O7 0.977476 0.714301 0.863728
O O8 0.790570 0.158966 0.768241
O O9 0.748940 0.214780 0.878695
O O10 0.944366 0.173177 0.873607
O O11 0.555685 0.652358 0.500000
O O12 0.638091 0.629512 0.635067
O O13 0.633340 0.713301 0.598035
O O14 0.500000 0.942900 0.250000
O O15 0.707550 0.916841 0.212849
O O16 0.673277 0.000000 0.250000
O O17 0.384766 0.780250 0.000000
#
# Coordination Sequence:
#
# PCOD8293172 Si02
#       7
#    16  16  16  16  16  16  16
#     4  10  18  33  60  84 109 152 190 224 278 347
#     4  11  17  34  55  81 111 145 189 232 283 333
#     4  10  20  39  57  75 108 150 200 232 275 342
#     4  11  25  38  52  80 115 153 194 244 291 327
#     4  10  19  38  62  86 120 149 177 233 293 357
#     4  11  21  37  58  85 109 150 188 233 295 345
#     4  10  22  36  54  76 108 154 197 241 285 330
#
# _framework density 18.265802000000001
#
# number of rings (size 3 to 8) (size 9 to 14) (size 15 to 20)
#    0.000    1.571    5.714    3.000    2.000    2.857 
#    0.000    2.143    0.000    6.857    0.000    5.000 
#    0.000    0.000    0.000    0.000    0.000    0.000 
#
# Total GULP energy -694383.741973 kJ/mol
# GULP energy per Si atom -12399.709678 kJ/mol
# Density = 1.822423 g / cm^3
# Si number density = 18.265802 Si / 1000 Ang^3
#
#
#
# Elastic Constant Matrix: (Units=GPa)
#
#
# Indices 1 2 3 4 5 6 
#
# 1 125.0306 36.2378 44.3792 0.0000 0.0000 0.0000
# 2 36.2378 82.0995 43.4886 0.0001 0.0000 0.0000
# 3 44.3792 43.4886 79.9566 0.0002 0.0000 -0.0001
# 4 0.0000 0.0001 0.0002 22.1382 -0.0001 0.0000
# 5 0.0000 0.0000 0.0000 -0.0001 24.5383 0.0000
# 6 0.0000 0.0000 -0.0001 0.0000 0.0000 19.9024
#
#
#
# Elastic Compliance Matrix: (Units=1/GPa)
#
#
# Indices 1 2 3 4 5 6 
#
# 1 0.010215 -0.002115 -0.004520 0.000000 0.000000 0.000000
# 2 -0.002115 0.017548 -0.008370 0.000000 0.000000 0.000000
# 3 -0.004520 -0.008370 0.019568 0.000000 0.000000 0.000000
# 4 0.000000 0.000000 0.000000 0.045171 0.000000 0.000000
# 5 0.000000 0.000000 0.000000 0.000000 0.040753 0.000000
# 6 0.000000 0.000000 0.000000 0.000000 0.000000 0.050245
#
#
# Mechanical properties :
#
#
# Convention : Reuss Voigt Hill
#
# Bulk Modulus (GPa) = 57.73256 59.47753 58.60504
# Shear Modulus (GPa) = 22.80163 24.18121 23.49142
#
# Velocity S-wave (km/s) = 3.53699 3.64242 3.59010
# Velocity P-wave (km/s) = 6.95385 7.09384 7.02419
#
# Compressibility (1/GPa) = 0.01732125
#
# Stress axis : x y z
#
# Youngs Moduli (GPa) = 97.89340 56.98769 51.10383
#
# Poissons Ratio (x) = 0.12052 0.23097
# Poissons Ratio (y) = 0.20703 0.42776
# Poissons Ratio (z) = 0.44244 0.47701
#
# Static dielectric constant tensor:
#      x y z
#    x 3.433480 0.000000 0.000000 
#    y 0.000000 3.176590 0.000000 
#    z 0.000000 0.000000 3.509130 
# 
# 
# High freq. dielectric constant tensor:
#      x y z
#    x 1.705170 0.000000 0.000000 
#    y 0.000000 1.677390 0.000000 
#    z 0.000000 0.000000 1.716360 
# 
# From -- ./inp_files/20719.got.cif
#   From: 2010.03.12/outbox.cif.g09.slc.cpg/sg72_11_cif.got.tgz:20719.got - 2010.04.16 14:54:00.
