data_PCOD8293839
_publ_section_title
;
Structure prediction by ZEFSAII (Michael W. Deem and Ramdas Pophale) SiO2 
 PCOD8293839
Probable space group: I B A M
;
_chemical_formula_sum "Si O2"
_cell_formula_units_Z 96
_cell_length_a 27.847678
_cell_length_b 20.837723
_cell_length_c 8.989067
_cell_angle_alpha 90.000000
_cell_angle_beta 90.000000
_cell_angle_gamma 90.000000
_cell_volume 5216.195578
_symmetry_space_group_name_H-M "I B A M"
_symmetry_group_IT_number 72
_symmetry_cell_setting 'orthorhombic'
loop_
_space_group_symop_operation_xyz
x,y,z
-x,-y,z
x,-y,1/2-z
-x,y,1/2-z
-x,-y,-z
x,y,-z
-x,y,1/2+z
x,-y,1/2+z
1/2+x,1/2+y,1/2+z
1/2-x,1/2-y,1/2+z
1/2+x,1/2-y,-z
1/2-x,1/2+y,-z
1/2-x,1/2-y,1/2-z
1/2+x,1/2+y,1/2-z
1/2-x,1/2+y,z
1/2+x,1/2-y,z
loop_
_atom_site_type_symbol
_atom_site_label
_atom_site_fract_x
_atom_site_fract_y
_atom_site_fract_z
Si Si1 0.111144 0.936955 0.831949
Si Si2 0.611888 0.691172 0.671265
Si Si3 0.225333 0.190844 0.171091
Si Si4 0.274472 0.562923 0.332191
Si Si5 0.448770 0.940614 0.672263
Si Si6 0.051393 0.701517 0.173411
O O1 0.092620 0.874416 0.744735
O O2 0.168332 0.938874 0.831879
O O3 0.090614 0.000000 0.750000
O O4 0.091248 0.935251 0.000000
O O5 0.596123 0.691173 0.500000
O O6 0.668615 0.697248 0.689477
O O7 0.589294 0.750974 0.754941
O O8 0.250000 0.250000 0.250000
O O9 0.244302 0.125634 0.246606
O O10 0.240955 0.189336 0.000000
O O11 0.253931 0.500000 0.250000
O O12 0.254512 0.564174 0.500000
O O13 0.500000 0.937829 0.750000
O O14 0.454545 0.956784 0.500000
O O15 0.425988 0.870026 0.695881
O O16 0.419373 0.000000 0.750000
O O17 0.000000 0.709527 0.250000
O O18 0.044844 0.717103 0.000000
#
# Coordination Sequence:
#
# PCOD8293839 Si02
#       6
#    16  16  16  16  16  16
#     4   9  16  27  45  69  96 125 159 200 242 284
#     4  10  20  33  50  73 100 130 164 202 244 290
#     4  10  20  33  50  73 100 130 164 203 247 294
#     4   9  16  27  45  69  96 125 159 200 243 286
#     4   9  16  26  43  67  93 121 155 195 237 279
#     4  10  20  33  50  73 100 130 163 200 243 290
#
# _framework density 18.404216999999999
#
# number of rings (size 3 to 8) (size 9 to 14) (size 15 to 20)
#    0.000    2.500    0.000    3.500    0.000    8.000 
#    0.000    0.000    0.000    1.500    0.000    5.833 
#    0.000    0.000    0.000    0.000    0.000    0.000 
#
# Total GULP energy -595025.207569 kJ/mol
# GULP energy per Si atom -12396.358491 kJ/mol
# Density = 1.836233 g / cm^3
# Si number density = 18.404217 Si / 1000 Ang^3
#
#
#
# Elastic Constant Matrix: (Units=GPa)
#
#
# Indices 1 2 3 4 5 6 
#
# 1 12.0599 26.8320 26.5361 0.0000 0.0000 0.0000
# 2 26.8320 197.4928 111.2756 0.0000 0.0000 0.0000
# 3 26.5361 111.2756 191.1084 0.0000 0.0000 0.0000
# 4 0.0000 0.0000 0.0000 43.8116 0.0000 0.0000
# 5 0.0000 0.0000 0.0000 0.0000 20.8998 0.0000
# 6 0.0000 0.0000 0.0000 0.0000 0.0000 22.2433
#
#
#
# Elastic Compliance Matrix: (Units=1/GPa)
#
#
# Indices 1 2 3 4 5 6 
#
# 1 0.135150 -0.011591 -0.012017 0.000000 0.000000 0.000000
# 2 -0.011591 0.008530 -0.003357 0.000000 0.000000 0.000000
# 3 -0.012017 -0.003357 0.008856 0.000000 0.000000 0.000000
# 4 0.000000 0.000000 0.000000 0.022825 0.000000 0.000000
# 5 0.000000 0.000000 0.000000 0.000000 0.047847 0.000000
# 6 0.000000 0.000000 0.000000 0.000000 0.000000 0.044957
#
#
# Mechanical properties :
#
#
# Convention : Reuss Voigt Hill
#
# Bulk Modulus (GPa) = 10.14141 81.10538 45.62340
# Shear Modulus (GPa) = 14.08590 33.12543 23.60566
#
# Velocity S-wave (km/s) = 2.76952 4.24710 3.58526
# Velocity P-wave (km/s) = 3.96854 8.25924 6.47937
#
# Compressibility (1/GPa) = 0.09860563
#
# Stress axis : x y z
#
# Youngs Moduli (GPa) = 7.39917 117.23574 112.91776
#
# Poissons Ratio (x) = 1.35888 1.35694
# Poissons Ratio (y) = 0.08576 0.37908
# Poissons Ratio (z) = 0.08892 0.39358
#
# Static dielectric constant tensor:
#      x y z
#    x 2.756900 0.000000 0.000000 
#    y 0.000000 4.059140 0.000000 
#    z 0.000000 0.000000 3.680100 
# 
# 
# High freq. dielectric constant tensor:
#      x y z
#    x 1.639440 0.000000 0.000000 
#    y 0.000000 1.739890 0.000000 
#    z 0.000000 0.000000 1.737830 
# 
# From -- ./inp_files/8054.got.cif
#   From: 2010.03.12/outbox.cif.g09.slc.cpg/sg72_5_cif.got.tgz:8054.got - 2010.04.16 14:54:00.
