data_PCOD8293543
_publ_section_title
;
Structure prediction by ZEFSAII (Michael W. Deem and Ramdas Pophale) SiO2 
 PCOD8293543
Probable space group: I B A M
;
_chemical_formula_sum "Si O2"
_cell_formula_units_Z 112
_cell_length_a 11.195488
_cell_length_b 27.844050
_cell_length_c 18.396775
_cell_angle_alpha 90.000000
_cell_angle_beta 90.000000
_cell_angle_gamma 90.000000
_cell_volume 5734.784867
_symmetry_space_group_name_H-M "I B A M"
_symmetry_group_IT_number 72
_symmetry_cell_setting 'orthorhombic'
loop_
_space_group_symop_operation_xyz
x,y,z
-x,-y,z
x,-y,1/2-z
-x,y,1/2-z
-x,-y,-z
x,y,-z
-x,y,1/2+z
x,-y,1/2+z
1/2+x,1/2+y,1/2+z
1/2-x,1/2-y,1/2+z
1/2+x,1/2-y,-z
1/2-x,1/2+y,-z
1/2-x,1/2-y,1/2-z
1/2+x,1/2+y,1/2-z
1/2-x,1/2+y,z
1/2+x,1/2-y,z
loop_
_atom_site_type_symbol
_atom_site_label
_atom_site_fract_x
_atom_site_fract_y
_atom_site_fract_z
Si Si1 0.619018 0.193245 0.584538
Si Si2 0.002906 0.390006 0.835109
Si Si3 0.850815 0.869397 0.917197
Si Si4 0.872496 0.766017 0.709980
Si Si5 0.257762 0.058791 0.668136
Si Si6 0.276467 0.951117 0.338918
Si Si7 0.935910 0.131156 0.178640
O O1 0.590446 0.204306 0.500000
O O2 0.519906 0.157292 0.617063
O O3 0.747850 0.169299 0.594251
O O4 0.620008 0.242021 0.630459
O O5 0.909003 0.431786 0.854843
O O6 0.000000 0.375852 0.750000
O O7 0.129343 0.410963 0.858608
O O8 0.820062 0.920548 0.882256
O O9 0.968714 0.849077 0.879130
O O10 0.879964 0.878756 0.000000
O O11 0.750000 0.750000 0.750000
O O12 0.855202 0.823192 0.701103
O O13 0.000000 0.754806 0.750000
O O14 0.252661 0.054010 0.754280
O O15 0.141920 0.088596 0.642824
O O16 0.263031 0.005825 0.633428
O O17 0.000000 0.109959 0.250000
#
# Coordination Sequence:
#
# PCOD8293543 Si02
#       7
#    16  16  16  16  16  16  16
#     4  10  21  39  63  88 116 155 200 244 301 363
#     4   9  18  32  60  88 121 148 193 245 294 347
#     4  10  21  40  60  82 118 160 194 237 295 361
#     4  11  25  40  66  92 121 159 205 254 308 358
#     4  10  19  33  58  87 118 150 194 247 289 337
#     4   9  18  34  57  88 116 152 195 238 293 348
#     4  11  22  38  57  83 118 151 198 244 292 349
#
# _framework density 19.529938999999999
#
# number of rings (size 3 to 8) (size 9 to 14) (size 15 to 20)
#    0.000    2.000    1.429    2.571    6.000    2.857 
#    0.000    3.571    0.000    3.429    0.000    0.000 
#    0.000    0.000    0.000    0.000    0.000    0.000 
#
# Total GULP energy -694328.790803 kJ/mol
# GULP energy per Si atom -12398.728407 kJ/mol
# Density = 1.948549 g / cm^3
# Si number density = 19.529939 Si / 1000 Ang^3
#
#
#
# Elastic Constant Matrix: (Units=GPa)
#
#
# Indices 1 2 3 4 5 6 
#
# 1 97.0216 35.1423 24.1925 0.0000 0.0000 0.0007
# 2 35.1423 81.3902 29.6839 0.0000 0.0000 0.0002
# 3 24.1925 29.6839 70.0519 -0.0007 0.0002 0.0121
# 4 0.0000 0.0000 -0.0007 18.9859 0.0001 0.0046
# 5 0.0000 0.0000 0.0002 0.0001 27.2397 -0.0015
# 6 0.0007 0.0002 0.0121 0.0046 -0.0015 -229.9763
#
#
#
# Elastic Compliance Matrix: (Units=1/GPa)
#
#
# Indices 1 2 3 4 5 6 
#
# 1 0.012553 -0.004541 -0.002411 0.000000 0.000000 0.000000
# 2 -0.004541 0.016175 -0.005286 0.000000 0.000000 0.000000
# 3 -0.002411 -0.005286 0.017348 0.000001 0.000000 0.000001
# 4 0.000000 0.000000 0.000001 0.052671 0.000000 0.000001
# 5 0.000000 0.000000 0.000000 0.000000 0.036711 0.000000
# 6 0.000000 0.000000 0.000001 0.000001 0.000000 -0.004348
#
#
# Mechanical properties :
#
#
# Convention : Reuss Voigt Hill
#
# Bulk Modulus (GPa) = 46.29591 47.38902 46.84247
# Shear Modulus (GPa) = 30.71556 -26.12046 2.29755
#
# Velocity S-wave (km/s) = 3.97008 -3.66109 1.08581
# Velocity P-wave (km/s) = 6.69119 2.53890 5.06053
#
# Compressibility (1/GPa) = 0.02160018
#
# Stress axis : x y z
#
# Youngs Moduli (GPa) = 79.66299 61.82439 57.64475
#
# Poissons Ratio (x) = 0.28073 0.13899
# Poissons Ratio (y) = 0.36172 0.30470
# Poissons Ratio (z) = 0.19207 0.32679
#
# Static dielectric constant tensor:
#      x y z
#    x 3.630380 0.000000 0.000000 
#    y 0.000000 3.654120 0.000000 
#    z 0.000000 0.000000 3.430510 
# 
# 
# High freq. dielectric constant tensor:
#      x y z
#    x 1.765010 0.000000 0.000000 
#    y 0.000000 1.763350 0.000000 
#    z 0.000000 0.000000 1.734610 
# 
# From -- ./inp_files/37434.got.cif
#   From: 2010.03.12/outbox.cif.g09.slc.cpg/sg72_19_cif.got.tgz:37434.got - 2010.04.16 14:54:00.
