data_PCOD8293324
_publ_section_title
;
Structure prediction by ZEFSAII (Michael W. Deem and Ramdas Pophale) SiO2 
 PCOD8293324
Probable space group: I B A M
;
_chemical_formula_sum "Si O2"
_cell_formula_units_Z 96
_cell_length_a 30.164331
_cell_length_b 20.711652
_cell_length_c 9.226340
_cell_angle_alpha 90.000000
_cell_angle_beta 90.000000
_cell_angle_gamma 90.000000
_cell_volume 5764.184761
_symmetry_space_group_name_H-M "I B A M"
_symmetry_group_IT_number 72
_symmetry_cell_setting 'orthorhombic'
loop_
_space_group_symop_operation_xyz
x,y,z
-x,-y,z
x,-y,1/2-z
-x,y,1/2-z
-x,-y,-z
x,y,-z
-x,y,1/2+z
x,-y,1/2+z
1/2+x,1/2+y,1/2+z
1/2-x,1/2-y,1/2+z
1/2+x,1/2-y,-z
1/2-x,1/2+y,-z
1/2-x,1/2-y,1/2-z
1/2+x,1/2+y,1/2-z
1/2-x,1/2+y,z
1/2+x,1/2-y,z
loop_
_atom_site_type_symbol
_atom_site_label
_atom_site_fract_x
_atom_site_fract_y
_atom_site_fract_z
Si Si1 0.217638 0.701330 0.831682
Si Si2 0.341954 0.603803 0.837734
Si Si3 0.254778 0.938188 0.333713
Si Si4 0.436881 0.440471 0.338318
Si Si5 0.543692 0.704059 0.673046
Si Si6 0.130606 0.774815 0.168122
O O1 0.250000 0.750000 0.750000
O O2 0.224548 0.628531 0.773096
O O3 0.165953 0.717682 0.808107
O O4 0.231063 0.705254 0.000000
O O5 0.298036 0.562938 0.809151
O O6 0.383643 0.555977 0.827074
O O7 0.345545 0.659912 0.719524
O O8 0.340932 0.635025 0.000000
O O9 0.267816 0.947382 0.500000
O O10 0.274507 0.000000 0.250000
O O11 0.457724 0.500000 0.250000
O O12 0.454077 0.449743 0.500000
O O13 0.453024 0.371104 0.279886
O O14 0.500000 0.733209 0.750000
O O15 0.542046 0.713329 0.500000
O O16 0.586755 0.740480 0.737120
O O17 0.117181 0.781960 0.000000
#
# Coordination Sequence:
#
# PCOD8293324 Si02
#       6
#    16  16  16  16  16  16
#     4  10  20  33  51  74 101 133 171 210 248 295
#     4   9  17  30  45  63  92 127 163 206 248 284
#     4  10  20  32  46  68 100 134 169 210 250 292
#     4   9  18  29  42  61  85 118 156 195 241 286
#     4  10  21  36  51  68  91 119 153 200 251 296
#     4  10  19  31  50  74  95 123 163 203 246 295
#
# _framework density 16.654567
#
# number of rings (size 3 to 8) (size 9 to 14) (size 15 to 20)
#    0.000    2.333    1.667    2.500    0.000    5.667 
#    0.000    1.667    0.000    0.000    0.000    0.000 
#    0.000    0.667    0.000    7.667    0.000    2.333 
#
# Total GULP energy -595064.871226 kJ/mol
# GULP energy per Si atom -12397.184817 kJ/mol
# Density = 1.661666 g / cm^3
# Si number density = 16.654567 Si / 1000 Ang^3
#
#
#
# Elastic Constant Matrix: (Units=GPa)
#
#
# Indices 1 2 3 4 5 6 
#
# 1 80.1141 35.1159 43.2548 0.0000 0.0000 0.0000
# 2 35.1159 86.5152 41.1396 0.0000 0.0000 0.0000
# 3 43.2548 41.1396 78.4775 0.0000 0.0000 0.0000
# 4 0.0000 0.0000 0.0000 22.8865 0.0000 0.0000
# 5 0.0000 0.0000 0.0000 0.0000 21.0816 0.0000
# 6 0.0000 0.0000 0.0000 0.0000 0.0000 7.3218
#
#
#
# Elastic Compliance Matrix: (Units=1/GPa)
#
#
# Indices 1 2 3 4 5 6 
#
# 1 0.018556 -0.003554 -0.008364 0.000000 0.000000 0.000000
# 2 -0.003554 0.016078 -0.006469 0.000000 0.000000 0.000000
# 3 -0.008364 -0.006469 0.020744 0.000000 0.000000 0.000000
# 4 0.000000 0.000000 0.000000 0.043694 0.000000 0.000000
# 5 0.000000 0.000000 0.000000 0.000000 0.047435 0.000000
# 6 0.000000 0.000000 0.000000 0.000000 0.000000 0.136578
#
#
# Mechanical properties :
#
#
# Convention : Reuss Voigt Hill
#
# Bulk Modulus (GPa) = 53.75787 53.79194 53.77491
# Shear Modulus (GPa) = 15.33455 18.63109 16.98282
#
# Velocity S-wave (km/s) = 3.03766 3.34829 3.19675
# Velocity P-wave (km/s) = 6.68217 6.87872 6.78116
#
# Compressibility (1/GPa) = 0.01860193
#
# Stress axis : x y z
#
# Youngs Moduli (GPa) = 53.89015 62.19848 48.20661
#
# Poissons Ratio (x) = 0.22108 0.40322
# Poissons Ratio (y) = 0.19155 0.31185
# Poissons Ratio (z) = 0.45076 0.40237
#
# Static dielectric constant tensor:
#      x y z
#    x 3.182260 0.000000 0.000000 
#    y 0.000000 2.861570 0.000000 
#    z 0.000000 0.000000 3.175900 
# 
# 
# High freq. dielectric constant tensor:
#      x y z
#    x 1.635470 0.000000 0.000000 
#    y 0.000000 1.598590 0.000000 
#    z 0.000000 0.000000 1.648370 
# 
# From -- ./inp_files/8284.got.cif
#   From: 2010.03.12/outbox.cif.g09.slc.cpg/sg72_5_cif.got.tgz:8284.got - 2010.04.16 14:54:00.
