data_PCOD8293101
_publ_section_title
;
Structure prediction by ZEFSAII (Michael W. Deem and Ramdas Pophale) SiO2 
 PCOD8293101
Probable space group: I B A M
;
_chemical_formula_sum "Si O2"
_cell_formula_units_Z 112
_cell_length_a 18.286307
_cell_length_b 19.330794
_cell_length_c 18.373879
_cell_angle_alpha 90.000000
_cell_angle_beta 90.000000
_cell_angle_gamma 90.000000
_cell_volume 6494.961057
_symmetry_space_group_name_H-M "I B A M"
_symmetry_group_IT_number 72
_symmetry_cell_setting 'orthorhombic'
loop_
_space_group_symop_operation_xyz
x,y,z
-x,-y,z
x,-y,1/2-z
-x,y,1/2-z
-x,-y,-z
x,y,-z
-x,y,1/2+z
x,-y,1/2+z
1/2+x,1/2+y,1/2+z
1/2-x,1/2-y,1/2+z
1/2+x,1/2-y,-z
1/2-x,1/2+y,-z
1/2-x,1/2-y,1/2-z
1/2+x,1/2+y,1/2-z
1/2-x,1/2+y,z
1/2+x,1/2-y,z
loop_
_atom_site_type_symbol
_atom_site_label
_atom_site_fract_x
_atom_site_fract_y
_atom_site_fract_z
Si Si1 0.219817 0.033550 0.413676
Si Si2 0.981148 0.190209 0.828949
Si Si3 0.737130 0.114228 0.585593
Si Si4 0.275603 0.175221 0.582446
Si Si5 0.871385 0.202611 0.413035
Si Si6 0.427683 0.535655 0.327447
Si Si7 0.364887 0.770230 0.417112
O O1 0.208384 0.041116 0.500000
O O2 0.268355 0.966387 0.393546
O O3 0.263066 0.099919 0.380179
O O4 0.139708 0.024102 0.380715
O O5 0.940610 0.117292 0.818669
O O6 0.930788 0.247130 0.866679
O O7 0.000000 0.220369 0.750000
O O8 0.053052 0.181607 0.877201
O O9 0.738765 0.126942 0.500000
O O10 0.812988 0.145964 0.615293
O O11 0.666103 0.156366 0.613858
O O12 0.297600 0.160595 0.500000
O O13 0.341453 0.221998 0.615220
O O14 0.199505 0.214903 0.587383
O O15 0.879869 0.202019 0.500000
O O16 0.500000 0.500000 0.361904
O O17 0.410889 0.500000 0.250000
O O18 0.393654 0.776479 0.500000
#
# Coordination Sequence:
#
# PCOD8293101 Si02
#       7
#    16  16  16  16  16  16  16
#     4  10  18  31  55  79  98 129 169 204 246 305
#     4  12  22  33  49  72 101 140 172 202 242 298
#     4   8  16  30  51  78 102 124 162 215 255 292
#     4   8  15  30  52  77 100 125 165 214 253 293
#     4   9  18  33  52  74 101 130 167 213 256 294
#     4  11  22  35  45  66 109 144 160 194 249 296
#     4   9  17  33  53  73  99 131 168 209 254 295
#
# _framework density 17.244136999999998
#
# number of rings (size 3 to 8) (size 9 to 14) (size 15 to 20)
#    0.000    2.429    2.857    3.000    0.000    0.857 
#    0.000    4.286    0.000    0.857    0.000    6.000 
#    0.000    0.000    0.000    0.000    0.000    0.000 
#
# Total GULP energy -693957.057083 kJ/mol
# GULP energy per Si atom -12392.090305 kJ/mol
# Density = 1.720489 g / cm^3
# Si number density = 17.244137 Si / 1000 Ang^3
#
#
#
# Elastic Constant Matrix: (Units=GPa)
#
#
# Indices 1 2 3 4 5 6 
#
# 1 45.0670 25.4447 26.3903 0.0000 0.0000 0.0000
# 2 25.4447 116.2773 27.7359 0.0000 0.0000 0.0000
# 3 26.3903 27.7359 50.7053 0.0000 0.0000 0.0000
# 4 0.0000 0.0000 0.0000 0.3034 0.0000 0.0000
# 5 0.0000 0.0000 0.0000 0.0000 6.2578 0.0000
# 6 0.0000 0.0000 0.0000 0.0000 0.0000 24.8994
#
#
#
# Elastic Compliance Matrix: (Units=1/GPa)
#
#
# Indices 1 2 3 4 5 6 
#
# 1 0.033186 -0.003614 -0.015296 0.000000 0.000000 0.000000
# 2 -0.003614 0.010284 -0.003745 0.000000 0.000000 0.000000
# 3 -0.015296 -0.003745 0.029731 0.000000 0.000000 0.000000
# 4 0.000000 0.000000 0.000000 3.295921 0.000001 0.000000
# 5 0.000000 0.000000 0.000000 0.000001 0.159802 0.000000
# 6 0.000000 0.000000 0.000000 0.000000 0.000000 0.040162
#
#
# Mechanical properties :
#
#
# Convention : Reuss Voigt Hill
#
# Bulk Modulus (GPa) = 35.85059 41.24350 38.54704
# Shear Modulus (GPa) = 1.37981 15.12402 8.25191
#
# Velocity S-wave (km/s) = 0.89549 2.96472 2.18992
# Velocity P-wave (km/s) = 4.68021 5.97401 5.36624
#
# Compressibility (1/GPa) = 0.02789354
#
# Stress axis : x y z
#
# Youngs Moduli (GPa) = 30.13305 97.23739 33.63496
#
# Poissons Ratio (x) = 0.35137 0.51447
# Poissons Ratio (y) = 0.10889 0.12595
# Poissons Ratio (z) = 0.46090 0.36413
#
# Static dielectric constant tensor:
#      x y z
#    x 3.136040 0.000000 0.000000 
#    y 0.000000 3.592140 0.000000 
#    z 0.000000 0.000000 2.954600 
# 
# 
# High freq. dielectric constant tensor:
#      x y z
#    x 1.647490 0.000000 0.000000 
#    y 0.000000 1.673390 0.000000 
#    z 0.000000 0.000000 1.633450 
# 
# From -- ./inp_files/31922.got.cif
#   From: 2010.03.12/outbox.cif.g09.slc.cpg/sg72_16_cif.got.tgz:31922.got - 2010.04.16 14:54:00.
