data_PCOD8293757
_publ_section_title
;
Structure prediction by ZEFSAII (Michael W. Deem and Ramdas Pophale) SiO2 
 PCOD8293757
Probable space group: I B A M
;
_chemical_formula_sum "Si O2"
_cell_formula_units_Z 116
_cell_length_a 26.916049
_cell_length_b 9.555528
_cell_length_c 24.507363
_cell_angle_alpha 90.000000
_cell_angle_beta 90.000000
_cell_angle_gamma 90.000000
_cell_volume 6303.221709
_symmetry_space_group_name_H-M "I B A M"
_symmetry_group_IT_number 72
_symmetry_cell_setting 'orthorhombic'
loop_
_space_group_symop_operation_xyz
x,y,z
-x,-y,z
x,-y,1/2-z
-x,y,1/2-z
-x,-y,-z
x,y,-z
-x,y,1/2+z
x,-y,1/2+z
1/2+x,1/2+y,1/2+z
1/2-x,1/2-y,1/2+z
1/2+x,1/2-y,-z
1/2-x,1/2+y,-z
1/2-x,1/2-y,1/2-z
1/2+x,1/2+y,1/2-z
1/2-x,1/2+y,z
1/2+x,1/2-y,z
loop_
_atom_site_type_symbol
_atom_site_label
_atom_site_fract_x
_atom_site_fract_y
_atom_site_fract_z
Si Si1 0.845530 0.682716 0.303907
Si Si2 0.500000 0.500000 0.250000
Si Si3 0.934363 0.125644 0.158820
Si Si4 0.499917 0.334726 0.440432
Si Si5 0.602123 0.656292 0.393647
Si Si6 0.741122 0.294008 0.374930
Si Si7 0.341895 0.864654 0.180893
Si Si8 0.203758 0.058152 0.062291
O O1 0.888084 0.779327 0.327573
O O2 0.793257 0.720462 0.330572
O O3 0.860385 0.523425 0.316240
O O4 0.839602 0.708143 0.239716
O O5 0.531594 0.394643 0.287915
O O6 0.963405 0.205226 0.109355
O O7 0.916139 0.972345 0.142660
O O8 0.500000 0.500000 0.444429
O O9 0.516903 0.273229 0.500000
O O10 0.443589 0.283831 0.429160
O O11 0.618695 0.781123 0.354714
O O12 0.646974 0.608273 0.432476
O O13 0.787410 0.362624 0.344620
O O14 0.710488 0.415058 0.404800
O O15 0.758727 0.177607 0.417737
O O16 0.216344 0.026831 0.000000
#
# Coordination Sequence:
#
# PCOD8293757 Si02
#       8
#    16   4  16  16  16  16  16  16
#     4  11  22  39  57  87 115 158 188 237 292 354
#     4  12  20  36  58  94 120 144 188 256 296 340
#     4  11  21  35  62  87 119 146 195 242 295 344
#     4   9  18  35  58  85 114 147 190 241 290 340
#     4  10  19  38  59  87 113 153 188 245 283 347
#     4  11  21  40  57  83 119 151 194 240 288 345
#     4  10  23  38  59  81 123 151 194 231 291 355
#     4  11  22  36  59  86 115 154 197 241 289 341
#
# _framework density 18.403288
#
# number of rings (size 3 to 8) (size 9 to 14) (size 15 to 20)
#    0.000    1.517    4.828    2.069    0.000    0.552 
#    0.000    0.690    0.000    0.828    0.000    0.000 
#    0.000    0.000    0.000    0.000    0.000    0.000 
#
# Total GULP energy -719228.304519 kJ/mol
# GULP energy per Si atom -12400.488009 kJ/mol
# Density = 1.836140 g / cm^3
# Si number density = 18.403288 Si / 1000 Ang^3
#
#
#
# Elastic Constant Matrix: (Units=GPa)
#
#
# Indices 1 2 3 4 5 6 
#
# 1 61.0491 -1.1493 20.6071 0.0000 0.0000 0.0000
# 2 -1.1493 42.4252 10.1912 0.0000 0.0000 0.0000
# 3 20.6071 10.1912 113.2876 0.0000 0.0000 0.0000
# 4 0.0000 0.0000 0.0000 9.8607 0.0000 0.0000
# 5 0.0000 0.0000 0.0000 0.0000 13.9236 0.0000
# 6 0.0000 0.0000 0.0000 0.0000 0.0000 18.9216
#
#
#
# Elastic Compliance Matrix: (Units=1/GPa)
#
#
# Indices 1 2 3 4 5 6 
#
# 1 0.017518 0.001267 -0.003301 0.000000 0.000000 0.000000
# 2 0.001267 0.024183 -0.002406 0.000000 0.000000 0.000000
# 3 -0.003301 -0.002406 0.009644 0.000000 0.000000 0.000000
# 4 0.000000 0.000000 0.000000 0.101412 0.000000 0.000000
# 5 0.000000 0.000000 0.000000 0.000000 0.071820 0.000000
# 6 0.000000 0.000000 0.000000 0.000000 0.000000 0.052850
#
#
# Mechanical properties :
#
#
# Convention : Reuss Voigt Hill
#
# Bulk Modulus (GPa) = 23.54773 30.67331 27.11052
# Shear Modulus (GPa) = 16.64103 21.01537 18.82820
#
# Velocity S-wave (km/s) = 3.01032 3.38292 3.20205
# Velocity P-wave (km/s) = 4.99058 5.65353 5.33237
#
# Compressibility (1/GPa) = 0.04246694
#
# Stress axis : x y z
#
# Youngs Moduli (GPa) = 57.08336 41.35100 103.69235
#
# Poissons Ratio (x) = -0.05241 0.34225
# Poissons Ratio (y) = -0.07235 0.24949
# Poissons Ratio (z) = 0.18841 0.09949
#
# Static dielectric constant tensor:
#      x y z
#    x 3.522680 0.000000 0.000000 
#    y 0.000000 3.178170 0.000000 
#    z 0.000000 0.000000 3.730680 
# 
# 
# High freq. dielectric constant tensor:
#      x y z
#    x 1.722300 0.000000 0.000000 
#    y 0.000000 1.692990 0.000000 
#    z 0.000000 0.000000 1.727460 
# 
# From -- ./inp_files/45986.got.cif
#   From: 2010.03.12/outbox.cif.g09.slc.cpg/sg72_23_cif.got.tgz:45986.got - 2010.04.16 14:54:00.
