data_PCOD8293274
_publ_section_title
;
Structure prediction by ZEFSAII (Michael W. Deem and Ramdas Pophale) SiO2 
 PCOD8293274
Probable space group: I B A M
;
_chemical_formula_sum "Si O2"
_cell_formula_units_Z 112
_cell_length_a 13.683027
_cell_length_b 33.349726
_cell_length_c 14.109968
_cell_angle_alpha 90.000000
_cell_angle_beta 90.000000
_cell_angle_gamma 90.000000
_cell_volume 6438.733988
_symmetry_space_group_name_H-M "I B A M"
_symmetry_group_IT_number 72
_symmetry_cell_setting 'orthorhombic'
loop_
_space_group_symop_operation_xyz
x,y,z
-x,-y,z
x,-y,1/2-z
-x,y,1/2-z
-x,-y,-z
x,y,-z
-x,y,1/2+z
x,-y,1/2+z
1/2+x,1/2+y,1/2+z
1/2-x,1/2-y,1/2+z
1/2+x,1/2-y,-z
1/2-x,1/2+y,-z
1/2-x,1/2-y,1/2-z
1/2+x,1/2+y,1/2-z
1/2-x,1/2+y,z
1/2+x,1/2-y,z
loop_
_atom_site_type_symbol
_atom_site_label
_atom_site_fract_x
_atom_site_fract_y
_atom_site_fract_z
Si Si1 0.164405 0.748670 0.389487
Si Si2 0.163568 0.394617 0.739055
Si Si3 0.466264 0.791816 0.605687
Si Si4 0.840251 0.047335 0.253034
Si Si5 0.011136 0.382246 0.107445
Si Si6 0.503966 0.452448 0.604416
Si Si7 0.218778 0.305153 0.272203
O O1 0.195353 0.747342 0.500000
O O2 0.225641 0.714436 0.332479
O O3 0.192374 0.791212 0.340773
O O4 0.047932 0.742276 0.378886
O O5 0.237164 0.431333 0.736520
O O6 0.092326 0.397205 0.648549
O O7 0.222716 0.352912 0.735914
O O8 0.101567 0.400123 0.834814
O O9 0.420698 0.788680 0.500000
O O10 0.520380 0.834405 0.617432
O O11 0.381970 0.788078 0.682909
O O12 0.906784 0.061434 0.341169
O O13 0.897214 0.061000 0.157973
O O14 0.821115 0.000000 0.250000
O O15 0.018709 0.397306 0.000000
O O16 0.500000 0.500000 0.599979
O O17 0.504930 0.433058 0.500000
#
# Coordination Sequence:
#
# PCOD8293274 Si02
#       7
#    16  16  16  16  16  16  16
#     4  10  19  30  48  72  95 121 162 208 249 293
#     4  10  19  32  52  75 101 134 170 210 256 299
#     4   9  16  30  51  69  91 124 165 205 242 291
#     4   9  18  32  53  79 104 132 168 209 250 298
#     4   9  18  32  49  72  99 133 175 211 246 297
#     4   8  15  31  54  77  99 127 166 205 244 297
#     4  10  19  31  49  72  96 127 164 205 249 296
#
# _framework density 17.394722999999999
#
# number of rings (size 3 to 8) (size 9 to 14) (size 15 to 20)
#    0.000    2.714    1.429    1.714    0.000    1.714 
#    0.000    1.429   12.571    0.857    0.000    0.000 
#    0.000    0.000    0.000    0.000    0.000    0.000 
#
# Total GULP energy -694211.665047 kJ/mol
# GULP energy per Si atom -12396.636876 kJ/mol
# Density = 1.735513 g / cm^3
# Si number density = 17.394723 Si / 1000 Ang^3
#
#
#
# Elastic Constant Matrix: (Units=GPa)
#
#
# Indices 1 2 3 4 5 6 
#
# 1 89.8727 45.0187 39.9785 -0.0006 0.0003 0.0000
# 2 45.0187 59.6362 30.4399 -0.0007 0.0003 0.0001
# 3 39.9785 30.4399 139.3849 -0.0043 0.0020 0.0002
# 4 -0.0006 -0.0007 -0.0043 15.5055 0.0006 0.0001
# 5 0.0003 0.0003 0.0020 0.0006 18.4635 -0.0003
# 6 0.0000 0.0001 0.0002 0.0001 -0.0003 35.1514
#
#
#
# Elastic Compliance Matrix: (Units=1/GPa)
#
#
# Indices 1 2 3 4 5 6 
#
# 1 0.018672 -0.012787 -0.002563 -0.000001 0.000000 0.000000
# 2 -0.012787 0.027629 -0.002366 0.000000 0.000000 0.000000
# 3 -0.002563 -0.002366 0.008426 0.000002 -0.000001 0.000000
# 4 -0.000001 0.000000 0.000002 0.064493 -0.000002 0.000000
# 5 0.000000 0.000000 -0.000001 -0.000002 0.054161 0.000000
# 6 0.000000 0.000000 0.000000 0.000000 0.000000 0.028448
#
#
# Mechanical properties :
#
#
# Convention : Reuss Voigt Hill
#
# Bulk Modulus (GPa) = 51.82779 57.75199 54.78989
# Shear Modulus (GPa) = 20.51747 25.38786 22.95267
#
# Velocity S-wave (km/s) = 3.43814 3.82450 3.63646
# Velocity P-wave (km/s) = 6.75433 7.26467 7.01414
#
# Compressibility (1/GPa) = 0.01929467
#
# Stress axis : x y z
#
# Youngs Moduli (GPa) = 53.55513 36.19371 118.67668
#
# Poissons Ratio (x) = 0.46282 0.30417
# Poissons Ratio (y) = 0.68483 0.28081
# Poissons Ratio (z) = 0.13726 0.08564
#
# Static dielectric constant tensor:
#      x y z
#    x 3.077260 0.000000 0.000000 
#    y 0.000000 2.833440 0.000000 
#    z 0.000000 0.000000 3.705650 
# 
# 
# High freq. dielectric constant tensor:
#      x y z
#    x 1.662230 0.000000 0.000000 
#    y 0.000000 1.627740 0.000000 
#    z 0.000000 0.000000 1.690420 
# 
# From -- ./inp_files/22423.got.cif
#   From: 2010.03.12/outbox.cif.g09.slc.cpg/sg72_12_cif.got.tgz:22423.got - 2010.04.16 14:54:00.
