data_PCOD8293892
_publ_section_title
;
Structure prediction by ZEFSAII (Michael W. Deem and Ramdas Pophale) SiO2 
 PCOD8293892
Probable space group: I B A M
;
_chemical_formula_sum "Si O2"
_cell_formula_units_Z 112
_cell_length_a 15.983030
_cell_length_b 27.371599
_cell_length_c 14.650117
_cell_angle_alpha 90.000000
_cell_angle_beta 90.000000
_cell_angle_gamma 90.000000
_cell_volume 6409.149124
_symmetry_space_group_name_H-M "I B A M"
_symmetry_group_IT_number 72
_symmetry_cell_setting 'orthorhombic'
loop_
_space_group_symop_operation_xyz
x,y,z
-x,-y,z
x,-y,1/2-z
-x,y,1/2-z
-x,-y,-z
x,y,-z
-x,y,1/2+z
x,-y,1/2+z
1/2+x,1/2+y,1/2+z
1/2-x,1/2-y,1/2+z
1/2+x,1/2-y,-z
1/2-x,1/2+y,-z
1/2-x,1/2-y,1/2-z
1/2+x,1/2+y,1/2-z
1/2-x,1/2+y,z
1/2+x,1/2-y,z
loop_
_atom_site_type_symbol
_atom_site_label
_atom_site_fract_x
_atom_site_fract_y
_atom_site_fract_z
Si Si1 0.771170 0.660572 0.107250
Si Si2 0.907940 0.978918 0.101981
Si Si3 0.975410 0.882449 0.151386
Si Si4 0.650404 0.421926 0.603180
Si Si5 0.615137 0.287447 0.101233
Si Si6 0.299977 0.765996 0.396235
Si Si7 0.909544 0.298495 0.270099
O O1 0.718925 0.614337 0.147440
O O2 0.714304 0.708484 0.122066
O O3 0.855055 0.664657 0.167727
O O4 0.793791 0.654888 0.000000
O O5 0.911249 0.928918 0.160909
O O6 0.852602 0.023099 0.147701
O O7 0.875933 0.965688 0.000000
O O8 0.000000 0.000000 0.094897
O O9 0.929381 0.839510 0.098638
O O10 0.000000 0.863103 0.250000
O O11 0.059271 0.897008 0.098994
O O12 0.678401 0.430193 0.500000
O O13 0.713250 0.294249 0.123316
O O14 0.573696 0.251538 0.174490
O O15 0.606934 0.263886 0.000000
O O16 0.331597 0.774578 0.500000
O O17 0.367237 0.787284 0.326867
O O18 0.000000 0.322557 0.250000
#
# Coordination Sequence:
#
# PCOD8293892 Si02
#       7
#    16  16  16  16  16  16  16
#     4   9  18  33  51  70  94 129 168 211 252 298
#     4   8  15  30  44  61  94 130 163 201 234 276
#     4  11  21  27  45  72 104 137 169 201 243 291
#     4   9  18  31  49  67  91 134 173 203 245 289
#     4  10  20  34  49  70  98 136 175 211 247 292
#     4   9  20  35  51  67  95 129 163 210 256 296
#     4  11  22  33  50  71  98 128 165 216 259 302
#
# _framework density 17.475019
#
# number of rings (size 3 to 8) (size 9 to 14) (size 15 to 20)
#    0.000    2.429    0.000    5.571    6.000    3.714 
#    0.000    0.000    0.000    0.000    0.000    0.000 
#    0.000    2.286    0.000    8.429    0.000    0.000 
#
# Total GULP energy -693890.238069 kJ/mol
# GULP energy per Si atom -12390.897108 kJ/mol
# Density = 1.743524 g / cm^3
# Si number density = 17.475019 Si / 1000 Ang^3
#
#
#
# Elastic Constant Matrix: (Units=GPa)
#
#
# Indices 1 2 3 4 5 6 
#
# 1 90.8725 47.8116 32.6586 0.0000 0.0000 0.0000
# 2 47.8116 86.6194 14.4456 -0.0002 0.0000 0.0000
# 3 32.6586 14.4456 67.3119 -0.0015 0.0000 0.0000
# 4 0.0000 -0.0002 -0.0015 78.2511 -0.0004 -0.0002
# 5 0.0000 0.0000 0.0000 -0.0004 19.5583 0.0000
# 6 0.0000 0.0000 0.0000 -0.0002 0.0000 29.0976
#
#
#
# Elastic Compliance Matrix: (Units=1/GPa)
#
#
# Indices 1 2 3 4 5 6 
#
# 1 0.018151 -0.008868 -0.006904 0.000000 0.000000 0.000000
# 2 -0.008868 0.016305 0.000803 0.000000 0.000000 0.000000
# 3 -0.006904 0.000803 0.018033 0.000000 0.000000 0.000000
# 4 0.000000 0.000000 0.000000 0.012779 0.000000 0.000000
# 5 0.000000 0.000000 0.000000 0.000000 0.051129 0.000000
# 6 0.000000 0.000000 0.000000 0.000000 0.000000 0.034367
#
#
# Mechanical properties :
#
#
# Convention : Reuss Voigt Hill
#
# Bulk Modulus (GPa) = 44.33826 48.29282 46.31554
# Shear Modulus (GPa) = 26.56474 35.37394 30.96934
#
# Velocity S-wave (km/s) = 3.90315 4.50406 4.21433
# Velocity P-wave (km/s) = 6.76315 7.39892 7.08817
#
# Compressibility (1/GPa) = 0.02255389
#
# Stress axis : x y z
#
# Youngs Moduli (GPa) = 55.09321 61.32903 55.45289
#
# Poissons Ratio (x) = 0.54384 0.38282
# Poissons Ratio (y) = 0.48854 -0.04454
# Poissons Ratio (z) = 0.38034 -0.04925
#
# Static dielectric constant tensor:
#      x y z
#    x 3.050000 0.000000 0.000000 
#    y 0.000000 3.395660 0.000000 
#    z 0.000000 0.000000 3.287000 
# 
# 
# High freq. dielectric constant tensor:
#      x y z
#    x 1.634630 0.000000 0.000000 
#    y 0.000000 1.653480 0.000000 
#    z 0.000000 0.000000 1.685600 
# 
# From -- ./inp_files/22302.got.cif
#   From: 2010.03.12/outbox.cif.g09.slc.cpg/sg72_12_cif.got.tgz:22302.got - 2010.04.16 14:54:00.
