data_PCOD8293513
_publ_section_title
;
Structure prediction by ZEFSAII (Michael W. Deem and Ramdas Pophale) SiO2 
 PCOD8293513
Probable space group: I B A M
;
_chemical_formula_sum "Si O2"
_cell_formula_units_Z 116
_cell_length_a 6.403071
_cell_length_b 28.081516
_cell_length_c 23.764744
_cell_angle_alpha 90.000000
_cell_angle_beta 90.000000
_cell_angle_gamma 90.000000
_cell_volume 4273.089681
_symmetry_space_group_name_H-M "I B A M"
_symmetry_group_IT_number 72
_symmetry_cell_setting 'orthorhombic'
loop_
_space_group_symop_operation_xyz
x,y,z
-x,-y,z
x,-y,1/2-z
-x,y,1/2-z
-x,-y,-z
x,y,-z
-x,y,1/2+z
x,-y,1/2+z
1/2+x,1/2+y,1/2+z
1/2-x,1/2-y,1/2+z
1/2+x,1/2-y,-z
1/2-x,1/2+y,-z
1/2-x,1/2-y,1/2-z
1/2+x,1/2+y,1/2-z
1/2-x,1/2+y,z
1/2+x,1/2-y,z
loop_
_atom_site_type_symbol
_atom_site_label
_atom_site_fract_x
_atom_site_fract_y
_atom_site_fract_z
Si Si1 0.617303 0.181661 0.338290
Si Si2 0.130638 0.617359 0.936055
Si Si3 0.604843 0.352289 0.439047
Si Si4 0.278792 0.962339 0.646021
Si Si5 0.580572 0.290809 0.341248
Si Si6 0.803647 0.067056 0.861423
Si Si7 0.256382 0.633229 0.264747
Si Si8 0.000000 0.500000 0.750000
O O1 0.544307 0.162719 0.399659
O O2 0.538431 0.235591 0.329617
O O3 0.589195 0.141435 0.288158
O O4 0.866500 0.182419 0.329093
O O5 0.375559 0.626154 0.942209
O O6 0.086520 0.570282 0.897314
O O7 0.037123 0.613666 0.000000
O O8 0.697244 0.341481 0.500000
O O9 0.629177 0.302114 0.406406
O O10 0.744431 0.394438 0.410905
O O11 0.359658 0.964717 0.710562
O O12 0.049667 0.940469 0.647802
O O13 0.297932 0.016479 0.622998
O O14 0.762942 0.317438 0.304186
O O15 0.706120 0.087007 0.803226
O O16 0.500000 0.629253 0.250000
#
# Coordination Sequence:
#
# PCOD8293513 Si02
#       8
#    16  16  16  16  16  16  16   4
#     4  10  19  33  55  79 112 148 190 233 284 332
#     4   9  19  37  59  82 112 153 197 236 279 337
#     4   8  15  31  55  86 114 139 187 250 285 318
#     4  10  22  39  58  87 116 150 185 235 288 347
#     4   9  18  31  49  76 111 150 188 232 283 335
#     4   9  19  34  63  87 105 150 199 230 277 349
#     4   9  17  30  53  79 108 141 186 235 277 329
#     4  12  28  38  54  84 128 138 180 238 300 350
#
# _framework density 27.146635
#
# number of rings (size 3 to 8) (size 9 to 14) (size 15 to 20)
#    0.000    2.759    0.000    2.897    3.862    1.655 
#    0.000    5.862    4.552    1.655    0.000    0.000 
#    0.000    0.000    0.000    0.000    0.000    0.000 
#
# Total GULP energy -718643.444991 kJ/mol
# GULP energy per Si atom -12390.404224 kJ/mol
# Density = 2.708485 g / cm^3
# Si number density = 27.146635 Si / 1000 Ang^3
#
#
#
# Elastic Constant Matrix: (Units=GPa)
#
#
# Indices 1 2 3 4 5 6 
#
# 1 43.2449 8.8752 2.0667 0.0000 0.0000 0.0000
# 2 8.8752 114.1749 31.0858 0.0000 0.0000 0.0000
# 3 2.0667 31.0858 181.3456 0.0000 0.0000 0.0000
# 4 0.0000 0.0000 0.0000 36.6433 0.0000 0.0000
# 5 0.0000 0.0000 0.0000 0.0000 18.1884 0.0000
# 6 0.0000 0.0000 0.0000 0.0000 0.0000 33.5669
#
#
#
# Elastic Compliance Matrix: (Units=1/GPa)
#
#
# Indices 1 2 3 4 5 6 
#
# 1 0.023499 -0.001840 0.000048 0.000000 0.000000 0.000000
# 2 -0.001840 0.009331 -0.001579 0.000000 0.000000 0.000000
# 3 0.000048 -0.001579 0.005784 0.000000 0.000000 0.000000
# 4 0.000000 0.000000 0.000000 0.027290 0.000000 0.000000
# 5 0.000000 0.000000 0.000000 0.000000 0.054980 0.000000
# 6 0.000000 0.000000 0.000000 0.000000 0.000000 0.029791
#
#
# Mechanical properties :
#
#
# Convention : Reuss Voigt Hill
#
# Bulk Modulus (GPa) = 31.37380 46.98008 39.17694
# Shear Modulus (GPa) = 29.75438 37.46223 33.60830
#
# Velocity S-wave (km/s) = 3.31427 3.71886 3.52238
# Velocity P-wave (km/s) = 5.12134 5.98193 5.56829
#
# Compressibility (1/GPa) = 0.03187373
#
# Stress axis : x y z
#
# Youngs Moduli (GPa) = 42.55429 107.16645 172.87919
#
# Poissons Ratio (x) = 0.19715 -0.00822
# Poissons Ratio (y) = 0.07828 0.27290
# Poissons Ratio (z) = -0.00202 0.16917
#
# Static dielectric constant tensor:
#      x y z
#    x 5.601600 0.000000 0.000000 
#    y 0.000000 4.940360 0.000000 
#    z 0.000000 0.000000 5.320340 
# 
# 
# High freq. dielectric constant tensor:
#      x y z
#    x 2.164860 0.000000 0.000000 
#    y 0.000000 2.090830 0.000000 
#    z 0.000000 0.000000 2.079520 
# 
# From -- ./inp_files/42701.got.cif
#   From: 2010.03.12/outbox.cif.g09.slc.cpg/sg72_22_cif.got.tgz:42701.got - 2010.04.16 14:54:00.
