data_PCOD8293864
_publ_section_title
;
Structure prediction by ZEFSAII (Michael W. Deem and Ramdas Pophale) SiO2 
 PCOD8293864
Probable space group: I B A M
;
_chemical_formula_sum "Si O2"
_cell_formula_units_Z 96
_cell_length_a 23.236868
_cell_length_b 25.558924
_cell_length_c 8.514637
_cell_angle_alpha 90.000000
_cell_angle_beta 90.000000
_cell_angle_gamma 90.000000
_cell_volume 5056.922468
_symmetry_space_group_name_H-M "I B A M"
_symmetry_group_IT_number 72
_symmetry_cell_setting 'orthorhombic'
loop_
_space_group_symop_operation_xyz
x,y,z
-x,-y,z
x,-y,1/2-z
-x,y,1/2-z
-x,-y,-z
x,y,-z
-x,y,1/2+z
x,-y,1/2+z
1/2+x,1/2+y,1/2+z
1/2-x,1/2-y,1/2+z
1/2+x,1/2-y,-z
1/2-x,1/2+y,-z
1/2-x,1/2-y,1/2-z
1/2+x,1/2+y,1/2-z
1/2-x,1/2+y,z
1/2+x,1/2-y,z
loop_
_atom_site_type_symbol
_atom_site_label
_atom_site_fract_x
_atom_site_fract_y
_atom_site_fract_z
Si Si1 0.747948 0.306089 0.319453
Si Si2 0.139119 0.659863 0.180498
Si Si3 0.691480 0.054212 0.320126
Si Si4 0.816054 0.943698 0.684328
Si Si5 0.637803 0.653347 0.680287
Si Si6 0.936919 0.252363 0.687431
O O1 0.727205 0.308577 0.500000
O O2 0.750000 0.250000 0.250000
O O3 0.811994 0.326472 0.304507
O O4 0.704980 0.336481 0.206443
O O5 0.138738 0.596385 0.194548
O O6 0.083231 0.692155 0.237243
O O7 0.152541 0.675842 0.000000
O O8 0.708213 0.044970 0.500000
O O9 0.751147 0.072514 0.237816
O O10 0.667850 0.000000 0.250000
O O11 0.815029 0.945473 0.500000
O O12 0.867429 0.903295 0.735761
O O13 0.833465 0.000000 0.750000
O O14 0.621898 0.646282 0.500000
O O15 0.600881 0.702424 0.747818
O O16 0.934995 0.257028 0.500000
O O17 0.000000 0.240928 0.750000
#
# Coordination Sequence:
#
# PCOD8293864 Si02
#       6
#    16  16  16  16  16  16
#     4  12  22  32  51  81 115 151 186 227 283 341
#     4  11  22  36  57  82 116 152 189 234 282 339
#     4  10  20  33  52  80 117 155 189 229 275 334
#     4  11  21  33  53  81 117 156 190 229 277 336
#     4  11  22  37  56  82 115 150 189 232 281 341
#     4  11  25  42  62  83 111 147 191 240 290 344
#
# _framework density 18.983879000000002
#
# number of rings (size 3 to 8) (size 9 to 14) (size 15 to 20)
#    0.000    1.000    3.333    6.000    0.000    4.000 
#    0.000    0.000    0.000    1.000    0.000    7.000 
#    0.000    0.000    0.000    0.000    0.000    0.000 
#
# Total GULP energy -594632.805633 kJ/mol
# GULP energy per Si atom -12388.183451 kJ/mol
# Density = 1.894067 g / cm^3
# Si number density = 18.983879 Si / 1000 Ang^3
#
#
#
# Elastic Constant Matrix: (Units=GPa)
#
#
# Indices 1 2 3 4 5 6 
#
# 1 63.7071 42.3697 23.7480 0.0000 0.0000 0.0000
# 2 42.3697 145.9905 51.7051 0.0000 0.0000 0.0000
# 3 23.7480 51.7051 117.2935 0.0000 0.0000 0.0000
# 4 0.0000 0.0000 0.0000 32.5427 0.0000 0.0000
# 5 0.0000 0.0000 0.0000 0.0000 24.2738 0.0000
# 6 0.0000 0.0000 0.0000 0.0000 0.0000 17.3256
#
#
#
# Elastic Compliance Matrix: (Units=1/GPa)
#
#
# Indices 1 2 3 4 5 6 
#
# 1 0.019748 -0.005114 -0.001744 0.000000 0.000000 0.000000
# 2 -0.005114 0.009441 -0.003127 0.000000 0.000000 0.000000
# 3 -0.001744 -0.003127 0.010257 0.000000 0.000000 0.000000
# 4 0.000000 0.000000 0.000000 0.030729 0.000000 0.000000
# 5 0.000000 0.000000 0.000000 0.000000 0.041197 0.000000
# 6 0.000000 0.000000 0.000000 0.000000 0.000000 0.057718
#
#
# Mechanical properties :
#
#
# Convention : Reuss Voigt Hill
#
# Bulk Modulus (GPa) = 51.34104 62.51517 56.92811
# Shear Modulus (GPa) = 25.56887 28.77298 27.17092
#
# Velocity S-wave (km/s) = 3.67396 3.89736 3.78731
# Velocity P-wave (km/s) = 6.71569 7.29758 7.01268
#
# Compressibility (1/GPa) = 0.01947760
#
# Stress axis : x y z
#
# Youngs Moduli (GPa) = 50.63842 105.91947 97.49469
#
# Poissons Ratio (x) = 0.54162 0.17004
# Poissons Ratio (y) = 0.25894 0.30482
# Poissons Ratio (z) = 0.08832 0.33116
#
# Static dielectric constant tensor:
#      x y z
#    x 3.093510 0.000000 0.000000 
#    y 0.000000 3.866950 0.000000 
#    z 0.000000 0.000000 3.501330 
# 
# 
# High freq. dielectric constant tensor:
#      x y z
#    x 1.678080 0.000000 0.000000 
#    y 0.000000 1.762330 0.000000 
#    z 0.000000 0.000000 1.753480 
# 
# From -- ./inp_files/5966.got.cif
#   From: 2010.03.12/outbox.cif.g09.slc.cpg/sg72_3_cif.got.tgz:5966.got - 2010.04.16 14:54:00.
