data_PCOD8293783
_publ_section_title
;
Structure prediction by ZEFSAII (Michael W. Deem and Ramdas Pophale) SiO2 
 PCOD8293783
Probable space group: I B A M
;
_chemical_formula_sum "Si O2"
_cell_formula_units_Z 112
_cell_length_a 12.294803
_cell_length_b 26.015471
_cell_length_c 17.717041
_cell_angle_alpha 90.000000
_cell_angle_beta 90.000000
_cell_angle_gamma 90.000000
_cell_volume 5666.885759
_symmetry_space_group_name_H-M "I B A M"
_symmetry_group_IT_number 72
_symmetry_cell_setting 'orthorhombic'
loop_
_space_group_symop_operation_xyz
x,y,z
-x,-y,z
x,-y,1/2-z
-x,y,1/2-z
-x,-y,-z
x,y,-z
-x,y,1/2+z
x,-y,1/2+z
1/2+x,1/2+y,1/2+z
1/2-x,1/2-y,1/2+z
1/2+x,1/2-y,-z
1/2-x,1/2+y,-z
1/2-x,1/2-y,1/2-z
1/2+x,1/2+y,1/2-z
1/2-x,1/2+y,z
1/2+x,1/2-y,z
loop_
_atom_site_type_symbol
_atom_site_label
_atom_site_fract_x
_atom_site_fract_y
_atom_site_fract_z
Si Si1 0.492625 0.188211 0.585802
Si Si2 0.927331 0.801234 0.912319
Si Si3 0.285070 0.464027 0.178540
Si Si4 0.701982 0.557573 0.584879
Si Si5 0.610671 0.879460 0.709276
Si Si6 0.786059 0.658464 0.650913
Si Si7 0.462533 0.406636 0.913922
O O1 0.456451 0.180537 0.500000
O O2 0.480130 0.247445 0.610690
O O3 0.414358 0.150728 0.632537
O O4 0.618955 0.175663 0.594885
O O5 0.818821 0.806517 0.862431
O O6 0.012290 0.846918 0.895097
O O7 0.892885 0.804417 0.000000
O O8 0.319548 0.500000 0.250000
O O9 0.257494 0.501565 0.109164
O O10 0.178407 0.430852 0.194384
O O11 0.381150 0.426173 0.150966
O O12 0.739261 0.568718 0.500000
O O13 0.758714 0.598911 0.637868
O O14 0.571734 0.559857 0.592451
O O15 0.500000 0.897151 0.750000
O O16 0.675172 0.838870 0.762304
O O17 0.415892 0.411748 0.000000
#
# Coordination Sequence:
#
# PCOD8293783 Si02
#       7
#    16  16  16  16  16  16  16
#     4  10  21  38  63  91 116 155 204 255 304 364
#     4   9  19  37  63  93 123 159 199 248 308 363
#     4  12  23  38  57  87 118 165 198 250 307 361
#     4  10  20  37  61  87 118 161 202 242 298 363
#     4  10  24  43  60  82 120 157 203 256 305 356
#     4  10  19  40  60  83 119 162 200 243 304 373
#     4   9  20  38  60  90 127 155 193 249 303 367
#
# _framework density 19.763942
#
# number of rings (size 3 to 8) (size 9 to 14) (size 15 to 20)
#    0.000    2.000    1.429    3.000    0.000    5.429 
#    0.000    5.714    0.000    2.571    0.000    0.000 
#    0.000    0.000    0.000    0.000    0.000    0.000 
#
# Total GULP energy -694404.609626 kJ/mol
# GULP energy per Si atom -12400.082315 kJ/mol
# Density = 1.971896 g / cm^3
# Si number density = 19.763942 Si / 1000 Ang^3
#
#
#
# Elastic Constant Matrix: (Units=GPa)
#
#
# Indices 1 2 3 4 5 6 
#
# 1 106.2504 60.3722 53.6020 0.0000 0.0000 0.0000
# 2 60.3722 110.2750 49.7618 0.0001 0.0000 0.0000
# 3 53.6020 49.7618 88.7400 0.0003 -0.0001 0.0000
# 4 0.0000 0.0001 0.0003 30.2624 0.0000 0.0000
# 5 0.0000 0.0000 -0.0001 0.0000 28.0368 0.0000
# 6 0.0000 0.0000 0.0000 0.0000 0.0000 22.7685
#
#
#
# Elastic Compliance Matrix: (Units=1/GPa)
#
#
# Indices 1 2 3 4 5 6 
#
# 1 0.015945 -0.005868 -0.006341 0.000000 0.000000 0.000000
# 2 -0.005868 0.014300 -0.004474 0.000000 0.000000 0.000000
# 3 -0.006341 -0.004474 0.017608 0.000000 0.000000 0.000000
# 4 0.000000 0.000000 0.000000 0.033044 0.000000 0.000000
# 5 0.000000 0.000000 0.000000 0.000000 0.035667 0.000000
# 6 0.000000 0.000000 0.000000 0.000000 0.000000 0.043920
#
#
# Mechanical properties :
#
#
# Convention : Reuss Voigt Hill
#
# Bulk Modulus (GPa) = 69.02957 70.30413 69.66685
# Shear Modulus (GPa) = 25.16620 25.64883 25.40752
#
# Velocity S-wave (km/s) = 3.57226 3.60635 3.58935
# Velocity P-wave (km/s) = 7.21232 7.27943 7.24595
#
# Compressibility (1/GPa) = 0.01448655
#
# Stress axis : x y z
#
# Youngs Moduli (GPa) = 62.71658 69.93084 56.79301
#
# Poissons Ratio (x) = 0.41036 0.36010
# Poissons Ratio (y) = 0.36802 0.25411
# Poissons Ratio (z) = 0.39766 0.31289
#
# Static dielectric constant tensor:
#      x y z
#    x 3.455400 0.000000 0.000000 
#    y 0.000000 3.618620 0.000000 
#    z 0.000000 0.000000 3.650980 
# 
# 
# High freq. dielectric constant tensor:
#      x y z
#    x 1.757650 0.000000 0.000000 
#    y 0.000000 1.774500 0.000000 
#    z 0.000000 0.000000 1.775440 
# 
# From -- ./inp_files/37320.got.cif
#   From: 2010.03.12/outbox.cif.g09.slc.cpg/sg72_19_cif.got.tgz:37320.got - 2010.04.16 14:54:00.
