data_PCOD8293022
_publ_section_title
;
Structure prediction by ZEFSAII (Michael W. Deem and Ramdas Pophale) SiO2 
 PCOD8293022
Probable space group: I B A M
;
_chemical_formula_sum "Si O2"
_cell_formula_units_Z 80
_cell_length_a 17.003918
_cell_length_b 15.525874
_cell_length_c 15.081284
_cell_angle_alpha 90.000000
_cell_angle_beta 90.000000
_cell_angle_gamma 90.000000
_cell_volume 3981.469358
_symmetry_space_group_name_H-M "I B A M"
_symmetry_group_IT_number 72
_symmetry_cell_setting 'orthorhombic'
loop_
_space_group_symop_operation_xyz
x,y,z
-x,-y,z
x,-y,1/2-z
-x,y,1/2-z
-x,-y,-z
x,y,-z
-x,y,1/2+z
x,-y,1/2+z
1/2+x,1/2+y,1/2+z
1/2-x,1/2-y,1/2+z
1/2+x,1/2-y,-z
1/2-x,1/2+y,-z
1/2-x,1/2-y,1/2-z
1/2+x,1/2+y,1/2-z
1/2-x,1/2+y,z
1/2+x,1/2-y,z
loop_
_atom_site_type_symbol
_atom_site_label
_atom_site_fract_x
_atom_site_fract_y
_atom_site_fract_z
Si Si1 0.882909 0.275965 0.096522
Si Si2 0.920180 0.964936 0.897604
Si Si3 0.815899 0.319739 0.269339
Si Si4 0.457596 0.281474 0.659578
Si Si5 0.793390 0.903599 0.397425
O O1 0.851716 0.343265 0.171602
O O2 0.846071 0.181734 0.111235
O O3 0.977185 0.263287 0.097789
O O4 0.859556 0.313342 0.000000
O O5 0.914763 0.863188 0.884409
O O6 0.843885 0.015318 0.860588
O O7 0.922438 0.990358 0.000000
O O8 0.000000 0.000000 0.851770
O O9 0.750000 0.250000 0.250000
O O10 0.887719 0.285181 0.327325
O O11 0.779714 0.397249 0.328175
O O12 0.500000 0.309976 0.750000
O O13 0.764824 0.915341 0.500000
#
# Coordination Sequence:
#
# PCOD8293022 Si02
#       5
#    16  16  16  16  16
#     4   9  16  30  49  68  97 136 177 224 266 307
#     4  10  18  30  48  73 105 141 178 212 258 321
#     4   9  19  33  44  69 104 140 179 214 264 323
#     4  10  19  30  47  75 102 138 180 219 263 324
#     4   9  17  30  47  68 105 145 174 217 263 309
#
# _framework density 20.093084999999999
#
# number of rings (size 3 to 8) (size 9 to 14) (size 15 to 20)
#    0.000    2.600    2.000    0.600    0.000    2.000 
#    0.000    0.000    0.000    0.000    0.000    1.400 
#    0.000   50.400    0.000   90.800    0.000    0.000 
#
# Total GULP energy -495594.650224 kJ/mol
# GULP energy per Si atom -12389.866256 kJ/mol
# Density = 2.004735 g / cm^3
# Si number density = 20.093085 Si / 1000 Ang^3
#
#
#
# Elastic Constant Matrix: (Units=GPa)
#
#
# Indices 1 2 3 4 5 6 
#
# 1 121.4818 46.4219 63.5969 0.0000 0.0000 0.0000
# 2 46.4219 40.5214 37.9384 0.0000 0.0000 0.0000
# 3 63.5969 37.9384 111.2593 0.0000 0.0000 0.0000
# 4 0.0000 0.0000 0.0000 12.7066 0.0000 0.0000
# 5 0.0000 0.0000 0.0000 0.0000 25.4584 0.0000
# 6 0.0000 0.0000 0.0000 0.0000 0.0000 39.2952
#
#
#
# Elastic Compliance Matrix: (Units=1/GPa)
#
#
# Indices 1 2 3 4 5 6 
#
# 1 0.015886 -0.014245 -0.004223 0.000000 0.000000 0.000000
# 2 -0.014245 0.049026 -0.008575 0.000000 0.000000 0.000000
# 3 -0.004223 -0.008575 0.014326 0.000000 0.000000 0.000000
# 4 0.000000 0.000000 0.000000 0.078699 0.000000 0.000000
# 5 0.000000 0.000000 0.000000 0.000000 0.039280 0.000000
# 6 0.000000 0.000000 0.000000 0.000000 0.000000 0.025448
#
#
# Mechanical properties :
#
#
# Convention : Reuss Voigt Hill
#
# Bulk Modulus (GPa) = 39.75869 63.24187 51.50028
# Shear Modulus (GPa) = 17.53552 23.84575 20.69064
#
# Velocity S-wave (km/s) = 2.95738 3.44868 3.21244
# Velocity P-wave (km/s) = 5.61174 6.88481 6.28062
#
# Compressibility (1/GPa) = 0.02515173
#
# Stress axis : x y z
#
# Youngs Moduli (GPa) = 62.94797 20.39731 69.80394
#
# Poissons Ratio (x) = 0.29057 0.29479
# Poissons Ratio (y) = 0.89672 0.59854
# Poissons Ratio (z) = 0.26584 0.17490
#
# Static dielectric constant tensor:
#      x y z
#    x 4.079000 0.000000 0.000000 
#    y 0.000000 3.069710 0.000000 
#    z 0.000000 0.000000 4.055800 
# 
# 
# High freq. dielectric constant tensor:
#      x y z
#    x 1.783860 0.000000 0.000000 
#    y 0.000000 1.714540 0.000000 
#    z 0.000000 0.000000 1.797540 
# 
# From -- ./inp_files/30477.got.cif
#   From: 2010.03.12/outbox.cif.g09.slc.cpg/sg72_16_cif.got.tgz:30477.got - 2010.04.16 14:54:00.
