data_PCOD8293071
_publ_section_title
;
Structure prediction by ZEFSAII (Michael W. Deem and Ramdas Pophale) SiO2 
 PCOD8293071
Probable space group: I B A M
;
_chemical_formula_sum "Si O2"
_cell_formula_units_Z 64
_cell_length_a 14.448509
_cell_length_b 27.741782
_cell_length_c 8.454132
_cell_angle_alpha 90.000000
_cell_angle_beta 90.000000
_cell_angle_gamma 90.000000
_cell_volume 3388.647638
_symmetry_space_group_name_H-M "I B A M"
_symmetry_group_IT_number 72
_symmetry_cell_setting 'orthorhombic'
loop_
_space_group_symop_operation_xyz
x,y,z
-x,-y,z
x,-y,1/2-z
-x,y,1/2-z
-x,-y,-z
x,y,-z
-x,y,1/2+z
x,-y,1/2+z
1/2+x,1/2+y,1/2+z
1/2-x,1/2-y,1/2+z
1/2+x,1/2-y,-z
1/2-x,1/2+y,-z
1/2-x,1/2-y,1/2-z
1/2+x,1/2+y,1/2-z
1/2-x,1/2+y,z
1/2+x,1/2-y,z
loop_
_atom_site_type_symbol
_atom_site_label
_atom_site_fract_x
_atom_site_fract_y
_atom_site_fract_z
Si Si1 0.400510 0.447245 0.187155
Si Si2 0.289806 0.639171 0.813706
Si Si3 0.905941 0.671384 0.814591
Si Si4 0.651498 0.734349 0.187112
O O1 0.376141 0.500000 0.250000
O O2 0.500000 0.429630 0.250000
O O3 0.319949 0.412412 0.248304
O O4 0.402861 0.447884 0.000000
O O5 0.183026 0.647878 0.768360
O O6 0.360623 0.678789 0.739103
O O7 0.300249 0.641227 0.000000
O O8 0.917688 0.728250 0.771097
O O9 0.000000 0.646063 0.750000
O O10 0.895701 0.663798 0.000000
O O11 0.750000 0.750000 0.250000
O O12 0.643181 0.739565 0.000000
#
# Coordination Sequence:
#
# PCOD8293071 Si02
#       4
#    16  16  16  16
#     4  11  22  39  60  85 111 140 175 220 272 327
#     4  11  21  36  56  81 110 145 183 225 271 323
#     4  11  21  35  53  78 110 148 187 227 269 319
#     4  10  18  31  49  73 103 139 178 220 263 311
#
# _framework density 18.886592
#
# number of rings (size 3 to 8) (size 9 to 14) (size 15 to 20)
#    0.000    1.250    0.000   12.750    0.000    1.000 
#    0.000    5.000    0.000    0.750    0.000    5.250 
#    0.000    0.000    0.000    0.000    0.000    0.000 
#
# Total GULP energy -396712.462606 kJ/mol
# GULP energy per Si atom -12397.264456 kJ/mol
# Density = 1.884361 g / cm^3
# Si number density = 18.886592 Si / 1000 Ang^3
#
#
#
# Elastic Constant Matrix: (Units=GPa)
#
#
# Indices 1 2 3 4 5 6 
#
# 1 84.8164 45.8316 15.2291 0.0000 -0.0006 -0.0006
# 2 45.8316 93.1126 22.7231 0.0023 -0.0002 -0.0001
# 3 15.2291 22.7231 141.8595 0.0065 -0.0019 -0.0022
# 4 0.0000 0.0023 0.0065 32.4549 -0.0001 0.0001
# 5 -0.0006 -0.0002 -0.0019 -0.0001 30.5184 0.0000
# 6 -0.0006 -0.0001 -0.0022 0.0001 0.0000 27.0827
#
#
#
# Elastic Compliance Matrix: (Units=1/GPa)
#
#
# Indices 1 2 3 4 5 6 
#
# 1 0.016093 -0.007805 -0.000477 0.000001 0.000000 0.000000
# 2 -0.007805 0.014962 -0.001559 -0.000001 0.000000 0.000000
# 3 -0.000477 -0.001559 0.007350 -0.000001 0.000000 0.000001
# 4 0.000001 -0.000001 -0.000001 0.030812 0.000000 0.000000
# 5 0.000000 0.000000 0.000000 0.000000 0.032767 0.000000
# 6 0.000000 0.000000 0.000001 0.000000 0.000000 0.036924
#
#
# Mechanical properties :
#
#
# Convention : Reuss Voigt Hill
#
# Bulk Modulus (GPa) = 53.40985 54.15066 53.78025
# Shear Modulus (GPa) = 30.33401 33.74487 32.03944
#
# Velocity S-wave (km/s) = 4.01198 4.23154 4.12322
# Velocity P-wave (km/s) = 7.05705 7.25315 7.15577
#
# Compressibility (1/GPa) = 0.01872314
#
# Stress axis : x y z
#
# Youngs Moduli (GPa) = 62.13733 66.83703 136.05141
#
# Poissons Ratio (x) = 0.52166 0.06496
# Poissons Ratio (y) = 0.48498 0.21206
# Poissons Ratio (z) = 0.02967 0.10418
#
# Static dielectric constant tensor:
#      x y z
#    x 3.339200 0.000010 0.000000 
#    y 0.000010 3.711290 -0.000010 
#    z 0.000000 -0.000010 3.628480 
# 
# 
# High freq. dielectric constant tensor:
#      x y z
#    x 1.729610 0.000000 0.000000 
#    y 0.000000 1.713810 0.000000 
#    z 0.000000 0.000000 1.760370 
# 
# From -- ./inp_files/3452.got.cif
#   From: 2010.03.12/outbox.cif.g09.slc.cpg/sg72_2_cif.got.tgz:3452.got - 2010.04.16 14:54:00.
