data_PCOD8293191
_publ_section_title
;
Structure prediction by ZEFSAII (Michael W. Deem and Ramdas Pophale) SiO2 
 PCOD8293191
Probable space group: I B A M
;
_chemical_formula_sum "Si O2"
_cell_formula_units_Z 96
_cell_length_a 13.958666
_cell_length_b 15.252249
_cell_length_c 22.934515
_cell_angle_alpha 90.000000
_cell_angle_beta 90.000000
_cell_angle_gamma 90.000000
_cell_volume 4882.782314
_symmetry_space_group_name_H-M "I B A M"
_symmetry_group_IT_number 72
_symmetry_cell_setting 'orthorhombic'
loop_
_space_group_symop_operation_xyz
x,y,z
-x,-y,z
x,-y,1/2-z
-x,y,1/2-z
-x,-y,-z
x,y,-z
-x,y,1/2+z
x,-y,1/2+z
1/2+x,1/2+y,1/2+z
1/2-x,1/2-y,1/2+z
1/2+x,1/2-y,-z
1/2-x,1/2+y,-z
1/2-x,1/2-y,1/2-z
1/2+x,1/2+y,1/2-z
1/2-x,1/2+y,z
1/2+x,1/2-y,z
loop_
_atom_site_type_symbol
_atom_site_label
_atom_site_fract_x
_atom_site_fract_y
_atom_site_fract_z
Si Si1 0.475961 0.409446 0.371796
Si Si2 0.633906 0.252927 0.930946
Si Si3 0.684001 0.826725 0.126639
Si Si4 0.092112 0.199891 0.711082
Si Si5 0.691925 0.423173 0.209210
Si Si6 0.004495 0.598760 0.931881
O O1 0.500000 0.500000 0.406934
O O2 0.426308 0.339427 0.414219
O O3 0.569134 0.366664 0.342038
O O4 0.411305 0.443863 0.318056
O O5 0.739326 0.259016 0.901893
O O6 0.578433 0.165291 0.907799
O O7 0.645924 0.250828 0.000000
O O8 0.627964 0.787798 0.181354
O O9 0.737305 0.909826 0.154824
O O10 0.609207 0.860226 0.078669
O O11 0.178107 0.163444 0.751082
O O12 0.000000 0.223628 0.750000
O O13 0.731062 0.500000 0.250000
O O14 0.000000 0.500000 0.904332
O O15 0.987964 0.591188 0.000000
#
# Coordination Sequence:
#
# PCOD8293191 Si02
#       6
#    16  16  16  16  16  16
#     4  10  18  34  61  85 116 154 190 238 300 356
#     4  10  22  40  63  89 116 151 200 249 296 357
#     4  11  22  39  61  86 118 159 197 248 295 350
#     4  10  20  35  57  83 115 156 194 228 292 349
#     4  10  20  33  54  87 118 153 195 236 288 356
#     4  10  22  43  65  86 119 160 200 249 308 361
#
# _framework density 19.660920999999998
#
# number of rings (size 3 to 8) (size 9 to 14) (size 15 to 20)
#    0.000    1.833    3.333    1.000    0.000    1.667 
#    3.000    0.000    0.000    0.000    0.000    0.000 
#    0.000    0.000    0.000    0.000    0.000    0.000 
#
# Total GULP energy -594877.643832 kJ/mol
# GULP energy per Si atom -12393.284246 kJ/mol
# Density = 1.961617 g / cm^3
# Si number density = 19.660921 Si / 1000 Ang^3
#
#
#
# Elastic Constant Matrix: (Units=GPa)
#
#
# Indices 1 2 3 4 5 6 
#
# 1 93.4809 45.7938 21.5800 0.0000 0.0000 0.0000
# 2 45.7938 118.2847 23.1602 0.0000 0.0000 0.0000
# 3 21.5800 23.1602 55.0041 0.0000 0.0000 0.0000
# 4 0.0000 0.0000 0.0000 32.4889 0.0000 0.0000
# 5 0.0000 0.0000 0.0000 0.0000 27.2285 0.0000
# 6 0.0000 0.0000 0.0000 0.0000 0.0000 17.9066
#
#
#
# Elastic Compliance Matrix: (Units=1/GPa)
#
#
# Indices 1 2 3 4 5 6 
#
# 1 0.013774 -0.004659 -0.003443 0.000000 0.000000 0.000000
# 2 -0.004659 0.010789 -0.002715 0.000000 0.000000 0.000000
# 3 -0.003443 -0.002715 0.020674 0.000000 0.000000 0.000000
# 4 0.000000 0.000000 0.000000 0.030780 0.000000 0.000000
# 5 0.000000 0.000000 0.000000 0.000000 0.036726 0.000000
# 6 0.000000 0.000000 0.000000 0.000000 0.000000 0.055845
#
#
# Mechanical properties :
#
#
# Convention : Reuss Voigt Hill
#
# Bulk Modulus (GPa) = 42.36362 49.75973 46.06167
# Shear Modulus (GPa) = 25.24100 27.27386 26.25743
#
# Velocity S-wave (km/s) = 3.58692 3.72857 3.65843
# Velocity P-wave (km/s) = 6.22484 6.62572 6.42841
#
# Compressibility (1/GPa) = 0.02360516
#
# Stress axis : x y z
#
# Youngs Moduli (GPa) = 72.59950 92.68349 48.36902
#
# Poissons Ratio (x) = 0.43178 0.16651
# Poissons Ratio (y) = 0.33821 0.13134
# Poissons Ratio (z) = 0.24992 0.25166
#
# Static dielectric constant tensor:
#      x y z
#    x 3.661210 0.000000 0.000000 
#    y 0.000000 3.675440 0.000000 
#    z 0.000000 0.000000 3.414400 
# 
# 
# High freq. dielectric constant tensor:
#      x y z
#    x 1.760400 0.000000 0.000000 
#    y 0.000000 1.762400 0.000000 
#    z 0.000000 0.000000 1.753770 
# 
# From -- ./inp_files/38005.got.cif
#   From: 2010.03.12/outbox.cif.g09.slc.cpg/sg72_20_cif.got.tgz:38005.got - 2010.04.16 14:54:00.
