data_PCOD8293782
_publ_section_title
;
Structure prediction by ZEFSAII (Michael W. Deem and Ramdas Pophale) SiO2 
 PCOD8293782
Probable space group: I B A M
;
_chemical_formula_sum "Si O2"
_cell_formula_units_Z 96
_cell_length_a 14.378558
_cell_length_b 10.698044
_cell_length_c 29.746173
_cell_angle_alpha 90.000000
_cell_angle_beta 90.000000
_cell_angle_gamma 90.000000
_cell_volume 4575.629094
_symmetry_space_group_name_H-M "I B A M"
_symmetry_group_IT_number 72
_symmetry_cell_setting 'orthorhombic'
loop_
_space_group_symop_operation_xyz
x,y,z
-x,-y,z
x,-y,1/2-z
-x,y,1/2-z
-x,-y,-z
x,y,-z
-x,y,1/2+z
x,-y,1/2+z
1/2+x,1/2+y,1/2+z
1/2-x,1/2-y,1/2+z
1/2+x,1/2-y,-z
1/2-x,1/2+y,-z
1/2-x,1/2-y,1/2-z
1/2+x,1/2+y,1/2-z
1/2-x,1/2+y,z
1/2+x,1/2-y,z
loop_
_atom_site_type_symbol
_atom_site_label
_atom_site_fract_x
_atom_site_fract_y
_atom_site_fract_z
Si Si1 0.716700 0.859635 0.000000
Si Si2 0.765481 0.249504 0.648809
Si Si3 0.192189 0.494047 0.302116
Si Si4 0.611722 0.496637 0.000000
Si Si5 0.092967 0.418302 0.000000
Si Si6 0.936614 0.715530 0.091213
Si Si7 0.000000 0.500000 0.656684
Si Si8 0.369776 0.311899 0.072982
O O1 0.670696 0.802532 0.044256
O O2 0.831699 0.863231 0.000000
O O3 0.687015 0.003426 0.000000
O O4 0.786519 0.366823 0.680594
O O5 0.851060 0.216407 0.615774
O O6 0.677239 0.301218 0.621351
O O7 0.749159 0.120126 0.675389
O O8 0.216227 0.500000 0.250000
O O9 0.084554 0.463201 0.310917
O O10 0.500000 0.500000 0.000000
O O11 0.649546 0.562152 0.045448
O O12 0.100639 0.337407 0.044630
O O13 0.000000 0.500000 0.000000
O O14 0.977161 0.612542 0.124084
O O15 0.018960 0.810416 0.079425
#
# Coordination Sequence:
#
# PCOD8293782 Si02
#       8
#     8  16  16   8   8  16   8  16
#     4  11  23  39  58  88 134 172 231 273 322 381
#     4  11  26  41  73  99 134 177 221 285 349 419
#     4  11  24  46  71 102 133 171 223 291 358 423
#     4  11  27  40  59  89 136 193 225 280 336 409
#     4  12  18  33  64  94 134 174 227 290 316 380
#     4  11  21  37  63  99 132 175 229 278 333 391
#     4  10  19  39  70  98 124 172 232 283 329 414
#     4  11  23  41  60  94 129 176 232 274 330 397
#
# _framework density 20.980720999999999
#
# number of rings (size 3 to 8) (size 9 to 14) (size 15 to 20)
#    0.000    1.000    4.167    2.250    7.000    0.667 
#    0.000    0.000    0.000    1.000    0.000    0.000 
#    0.000    0.000    0.000    0.000    0.000    0.000 
#
# Total GULP energy -594952.817679 kJ/mol
# GULP energy per Si atom -12394.850368 kJ/mol
# Density = 2.093297 g / cm^3
# Si number density = 20.980721 Si / 1000 Ang^3
#
#
#
# Elastic Constant Matrix: (Units=GPa)
#
#
# Indices 1 2 3 4 5 6 
#
# 1 119.9710 48.1028 44.1358 0.0000 0.0000 0.0000
# 2 48.1028 76.7265 42.9331 0.0000 0.0000 0.0000
# 3 44.1358 42.9331 133.6248 0.0000 0.0000 0.0000
# 4 0.0000 0.0000 0.0000 26.4745 0.0000 0.0000
# 5 0.0000 0.0000 0.0000 0.0000 25.0158 0.0000
# 6 0.0000 0.0000 0.0000 0.0000 0.0000 35.9451
#
#
#
# Elastic Compliance Matrix: (Units=1/GPa)
#
#
# Indices 1 2 3 4 5 6 
#
# 1 0.011480 -0.006188 -0.001804 0.000000 0.000000 0.000000
# 2 -0.006188 0.019226 -0.004133 0.000000 0.000000 0.000000
# 3 -0.001804 -0.004133 0.009407 0.000000 0.000000 0.000000
# 4 0.000000 0.000000 0.000000 0.037772 0.000000 0.000000
# 5 0.000000 0.000000 0.000000 0.000000 0.039975 0.000000
# 6 0.000000 0.000000 0.000000 0.000000 0.000000 0.027820
#
#
# Mechanical properties :
#
#
# Convention : Reuss Voigt Hill
#
# Bulk Modulus (GPa) = 63.03887 66.74065 64.88976
# Shear Modulus (GPa) = 28.53594 30.49711 29.51653
#
# Velocity S-wave (km/s) = 3.69196 3.81672 3.75486
# Velocity P-wave (km/s) = 6.94877 7.16259 7.05649
#
# Compressibility (1/GPa) = 0.01586323
#
# Stress axis : x y z
#
# Youngs Moduli (GPa) = 87.10814 52.01392 106.29980
#
# Poissons Ratio (x) = 0.32186 0.19172
# Poissons Ratio (y) = 0.53903 0.43936
# Poissons Ratio (z) = 0.15711 0.21499
#
# Static dielectric constant tensor:
#      x y z
#    x 4.203260 0.000000 0.000000 
#    y 0.000000 3.741500 0.000000 
#    z 0.000000 0.000000 3.811910 
# 
# 
# High freq. dielectric constant tensor:
#      x y z
#    x 1.839500 0.000000 0.000000 
#    y 0.000000 1.818660 0.000000 
#    z 0.000000 0.000000 1.818950 
# 
# From -- ./inp_files/51734.got.cif
#   From: 2010.03.12/outbox.cif.g09.slc.cpg/sg72_26_cif.got.tgz:51734.got - 2010.04.16 14:54:00.
