data_PCOD8293545
_publ_section_title
;
Structure prediction by ZEFSAII (Michael W. Deem and Ramdas Pophale) SiO2 
 PCOD8293545
Probable space group: I B A M
;
_chemical_formula_sum "Si O2"
_cell_formula_units_Z 96
_cell_length_a 28.545338
_cell_length_b 20.140735
_cell_length_c 8.567323
_cell_angle_alpha 90.000000
_cell_angle_beta 90.000000
_cell_angle_gamma 90.000000
_cell_volume 4925.560364
_symmetry_space_group_name_H-M "I B A M"
_symmetry_group_IT_number 72
_symmetry_cell_setting 'orthorhombic'
loop_
_space_group_symop_operation_xyz
x,y,z
-x,-y,z
x,-y,1/2-z
-x,y,1/2-z
-x,-y,-z
x,y,-z
-x,y,1/2+z
x,-y,1/2+z
1/2+x,1/2+y,1/2+z
1/2-x,1/2-y,1/2+z
1/2+x,1/2-y,-z
1/2-x,1/2+y,-z
1/2-x,1/2-y,1/2-z
1/2+x,1/2+y,1/2-z
1/2-x,1/2+y,z
1/2+x,1/2-y,z
loop_
_atom_site_type_symbol
_atom_site_label
_atom_site_fract_x
_atom_site_fract_y
_atom_site_fract_z
Si Si1 0.791679 0.831551 0.678786
Si Si2 0.123935 0.073592 0.316254
Si Si3 0.404045 0.810348 0.679071
Si Si4 0.052677 0.177152 0.814478
Si Si5 0.809869 0.695325 0.175227
Si Si6 0.949117 0.564244 0.819609
O O1 0.801669 0.808089 0.500000
O O2 0.825957 0.892209 0.721932
O O3 0.798946 0.772856 0.801375
O O4 0.736537 0.850665 0.695863
O O5 0.113978 0.072455 0.500000
O O6 0.081035 0.111322 0.232918
O O7 0.126273 0.000000 0.250000
O O8 0.418952 0.817873 0.500000
O O9 0.419472 0.738573 0.739926
O O10 0.348703 0.823160 0.697402
O O11 0.427135 0.865669 0.783639
O O12 0.000000 0.173377 0.750000
O O13 0.050969 0.184693 0.000000
O O14 0.829861 0.686493 0.000000
O O15 0.921358 0.500000 0.750000
O O16 0.000000 0.565392 0.750000
O O17 0.951796 0.553219 0.000000
#
# Coordination Sequence:
#
# PCOD8293545 Si02
#       6
#    16  16  16  16  16  16
#     4   9  19  36  58  85 118 153 194 242 293 352
#     4  11  23  41  63  89 122 162 204 253 307 368
#     4  12  23  38  59  89 124 161 200 249 301 356
#     4  12  25  42  63  90 120 157 203 258 311 367
#     4  10  19  33  58  89 118 152 195 243 292 350
#     4  11  22  39  60  85 116 155 198 242 293 357
#
# _framework density 19.490169000000002
#
# number of rings (size 3 to 8) (size 9 to 14) (size 15 to 20)
#    0.000    1.167    1.667    6.500    0.000    1.667 
#    0.000    2.500    0.000    2.000    0.000    0.000 
#    0.000    0.000    0.000    0.000    0.000    0.000 
#
# Total GULP energy -595047.841588 kJ/mol
# GULP energy per Si atom -12396.830033 kJ/mol
# Density = 1.944581 g / cm^3
# Si number density = 19.490169 Si / 1000 Ang^3
#
#
#
# Elastic Constant Matrix: (Units=GPa)
#
#
# Indices 1 2 3 4 5 6 
#
# 1 109.7226 32.0157 42.9682 0.0000 0.0000 0.0000
# 2 32.0157 80.1169 21.2229 0.0000 0.0000 0.0000
# 3 42.9682 21.2229 106.6623 0.0000 0.0000 0.0000
# 4 0.0000 0.0000 0.0000 32.8668 0.0000 0.0000
# 5 0.0000 0.0000 0.0000 0.0000 26.8753 0.0000
# 6 0.0000 0.0000 0.0000 0.0000 0.0000 25.2192
#
#
#
# Elastic Compliance Matrix: (Units=1/GPa)
#
#
# Indices 1 2 3 4 5 6 
#
# 1 0.011743 -0.003631 -0.004008 0.000000 0.000000 0.000000
# 2 -0.003631 0.014299 -0.001382 0.000000 0.000000 0.000000
# 3 -0.004008 -0.001382 0.011265 0.000000 0.000000 0.000000
# 4 0.000000 0.000000 0.000000 0.030426 0.000000 0.000000
# 5 0.000000 0.000000 0.000000 0.000000 0.037209 0.000000
# 6 0.000000 0.000000 0.000000 0.000000 0.000000 0.039652
#
#
# Mechanical properties :
#
#
# Convention : Reuss Voigt Hill
#
# Bulk Modulus (GPa) = 51.91004 54.32396 53.11700
# Shear Modulus (GPa) = 29.57561 30.34526 29.96044
#
# Velocity S-wave (km/s) = 3.89969 3.95010 3.92498
# Velocity P-wave (km/s) = 6.85336 6.98122 6.91759
#
# Compressibility (1/GPa) = 0.01926410
#
# Stress axis : x y z
#
# Youngs Moduli (GPa) = 85.15746 69.93543 88.76980
#
# Poissons Ratio (x) = 0.25393 0.35580
# Poissons Ratio (y) = 0.30920 0.12272
# Poissons Ratio (z) = 0.34132 0.09668
#
# Static dielectric constant tensor:
#      x y z
#    x 3.891640 0.000000 0.000000 
#    y 0.000000 3.171650 0.000000 
#    z 0.000000 0.000000 3.705430 
# 
# 
# High freq. dielectric constant tensor:
#      x y z
#    x 1.766190 0.000000 0.000000 
#    y 0.000000 1.743700 0.000000 
#    z 0.000000 0.000000 1.776450 
# 
# From -- ./inp_files/8064.got.cif
#   From: 2010.03.12/outbox.cif.g09.slc.cpg/sg72_5_cif.got.tgz:8064.got - 2010.04.16 14:54:00.
