data_PCOD8293764
_publ_section_title
;
Structure prediction by ZEFSAII (Michael W. Deem and Ramdas Pophale) SiO2 
 PCOD8293764
Probable space group: I B A M
;
_chemical_formula_sum "Si O2"
_cell_formula_units_Z 80
_cell_length_a 25.797935
_cell_length_b 8.857104
_cell_length_c 16.173718
_cell_angle_alpha 90.000000
_cell_angle_beta 90.000000
_cell_angle_gamma 90.000000
_cell_volume 3695.613586
_symmetry_space_group_name_H-M "I B A M"
_symmetry_group_IT_number 72
_symmetry_cell_setting 'orthorhombic'
loop_
_space_group_symop_operation_xyz
x,y,z
-x,-y,z
x,-y,1/2-z
-x,y,1/2-z
-x,-y,-z
x,y,-z
-x,y,1/2+z
x,-y,1/2+z
1/2+x,1/2+y,1/2+z
1/2-x,1/2-y,1/2+z
1/2+x,1/2-y,-z
1/2-x,1/2+y,-z
1/2-x,1/2-y,1/2-z
1/2+x,1/2+y,1/2-z
1/2-x,1/2+y,z
1/2+x,1/2-y,z
loop_
_atom_site_type_symbol
_atom_site_label
_atom_site_fract_x
_atom_site_fract_y
_atom_site_fract_z
Si Si1 0.456504 0.879945 0.405623
Si Si2 0.721912 0.006320 0.095062
Si Si3 0.792709 0.794227 0.317163
Si Si4 0.121472 0.587024 0.664213
Si Si5 0.411780 0.330750 0.769480
O O1 0.466195 0.822222 0.500000
O O2 0.448822 0.738519 0.342108
O O3 0.500000 0.000000 0.375701
O O4 0.404430 0.978613 0.403495
O O5 0.775178 0.049163 0.141013
O O6 0.677685 0.125655 0.126353
O O7 0.704738 0.836837 0.114426
O O8 0.731912 0.028935 0.000000
O O9 0.750000 0.750000 0.250000
O O10 0.850564 0.824352 0.286958
O O11 0.131137 0.500000 0.750000
O O12 0.084584 0.731540 0.684700
O O13 0.430987 0.500000 0.750000
#
# Coordination Sequence:
#
# PCOD8293764 Si02
#       5
#    16  16  16  16  16
#     4  10  22  43  71  98 128 170 218 276 339 397
#     4  12  23  36  56  89 127 171 224 275 324 386
#     4  12  22  39  59  86 128 177 220 268 325 392
#     4  10  19  38  62  88 122 170 218 266 321 392
#     4  11  23  40  65  98 132 170 221 275 335 396
#
# _framework density 21.647286000000001
#
# number of rings (size 3 to 8) (size 9 to 14) (size 15 to 20)
#    0.000    1.000    6.000    3.000    0.000    4.400 
#    0.000    4.000    0.000    2.400    0.000    0.000 
#    0.000    0.000    0.000    0.000    0.000    0.000 
#
# Total GULP energy -495621.126142 kJ/mol
# GULP energy per Si atom -12390.528154 kJ/mol
# Density = 2.159802 g / cm^3
# Si number density = 21.647286 Si / 1000 Ang^3
#
#
#
# Elastic Constant Matrix: (Units=GPa)
#
#
# Indices 1 2 3 4 5 6 
#
# 1 73.2601 15.3208 20.6871 0.0000 0.0000 0.0000
# 2 15.3208 125.9493 34.5413 0.0000 0.0000 0.0000
# 3 20.6871 34.5413 79.0430 0.0000 0.0000 0.0000
# 4 0.0000 0.0000 0.0000 32.1068 0.0000 0.0000
# 5 0.0000 0.0000 0.0000 0.0000 21.9214 0.0000
# 6 0.0000 0.0000 0.0000 0.0000 0.0000 31.0548
#
#
#
# Elastic Compliance Matrix: (Units=1/GPa)
#
#
# Indices 1 2 3 4 5 6 
#
# 1 0.014817 -0.000839 -0.003511 0.000000 0.000000 0.000000
# 2 -0.000839 0.009068 -0.003743 0.000000 0.000000 0.000000
# 3 -0.003511 -0.003743 0.015206 0.000000 0.000000 0.000000
# 4 0.000000 0.000000 0.000000 0.031146 0.000000 0.000000
# 5 0.000000 0.000000 0.000000 0.000000 0.045617 0.000000
# 6 0.000000 0.000000 0.000000 0.000000 0.000000 0.032201
#
#
# Mechanical properties :
#
#
# Convention : Reuss Voigt Hill
#
# Bulk Modulus (GPa) = 43.66042 46.59454 45.12748
# Shear Modulus (GPa) = 29.09041 30.86348 29.97695
#
# Velocity S-wave (km/s) = 3.66981 3.78000 3.72531
# Velocity P-wave (km/s) = 6.17815 6.37357 6.27662
#
# Compressibility (1/GPa) = 0.02290404
#
# Stress axis : x y z
#
# Youngs Moduli (GPa) = 67.49005 110.27349 65.76363
#
# Poissons Ratio (x) = 0.09257 0.23090
# Poissons Ratio (y) = 0.05666 0.24616
# Poissons Ratio (z) = 0.23696 0.41277
#
# Static dielectric constant tensor:
#      x y z
#    x 4.002790 0.000000 0.000000 
#    y 0.000000 4.471480 0.000000 
#    z 0.000000 0.000000 3.783660 
# 
# 
# High freq. dielectric constant tensor:
#      x y z
#    x 1.853220 0.000000 0.000000 
#    y 0.000000 1.837450 0.000000 
#    z 0.000000 0.000000 1.837710 
# 
# From -- ./inp_files/33769.got.cif
#   From: 2010.03.12/outbox.cif.g09.slc.cpg/sg72_17_cif.got.tgz:33769.got - 2010.04.16 14:54:00.
