data_PCOD8293851
_publ_section_title
;
Structure prediction by ZEFSAII (Michael W. Deem and Ramdas Pophale) SiO2 
 PCOD8293851
Probable space group: I B A M
;
_chemical_formula_sum "Si O2"
_cell_formula_units_Z 80
_cell_length_a 18.513193
_cell_length_b 26.586020
_cell_length_c 8.721130
_cell_angle_alpha 90.000000
_cell_angle_beta 90.000000
_cell_angle_gamma 90.000000
_cell_volume 4292.471458
_symmetry_space_group_name_H-M "I B A M"
_symmetry_group_IT_number 72
_symmetry_cell_setting 'orthorhombic'
loop_
_space_group_symop_operation_xyz
x,y,z
-x,-y,z
x,-y,1/2-z
-x,y,1/2-z
-x,-y,-z
x,y,-z
-x,y,1/2+z
x,-y,1/2+z
1/2+x,1/2+y,1/2+z
1/2-x,1/2-y,1/2+z
1/2+x,1/2-y,-z
1/2-x,1/2+y,-z
1/2-x,1/2-y,1/2-z
1/2+x,1/2+y,1/2-z
1/2-x,1/2+y,z
1/2+x,1/2-y,z
loop_
_atom_site_type_symbol
_atom_site_label
_atom_site_fract_x
_atom_site_fract_y
_atom_site_fract_z
Si Si1 0.788586 0.702601 0.322425
Si Si2 0.077115 0.653448 0.319574
Si Si3 0.847380 0.551434 0.818835
Si Si4 0.211215 0.098738 0.822053
Si Si5 0.075581 0.054112 0.318336
O O1 0.802860 0.712427 0.500000
O O2 0.750000 0.750000 0.250000
O O3 0.865645 0.693720 0.242926
O O4 0.736986 0.655284 0.294262
O O5 0.073387 0.659014 0.500000
O O6 0.099851 0.596956 0.270634
O O7 0.000000 0.666524 0.250000
O O8 0.880421 0.500000 0.750000
O O9 0.768859 0.559646 0.745640
O O10 0.839396 0.547298 0.000000
O O11 0.136517 0.093572 0.730991
O O12 0.199792 0.086273 0.000000
O O13 0.069605 0.050349 0.500000
O O14 0.000000 0.073492 0.250000
O O15 0.096036 0.000000 0.250000
#
# Coordination Sequence:
#
# PCOD8293851 Si02
#       5
#    16  16  16  16  16
#     4  10  21  38  61  84 108 138 176 221 269 320
#     4  10  21  37  57  81 111 144 180 220 266 316
#     4  10  20  33  51  77 108 144 182 220 260 309
#     4  10  20  35  54  77 105 138 176 219 265 316
#     4  11  21  34  52  75 106 142 178 218 263 315
#
# _framework density 18.637281999999999
#
# number of rings (size 3 to 8) (size 9 to 14) (size 15 to 20)
#    0.000    1.800    0.000    5.400    0.000    5.200 
#    0.000    3.000    0.000    4.800    0.000    0.000 
#    0.000    0.000    0.000    0.000    0.000    0.000 
#
# Total GULP energy -496203.468745 kJ/mol
# GULP energy per Si atom -12405.086719 kJ/mol
# Density = 1.859486 g / cm^3
# Si number density = 18.637282 Si / 1000 Ang^3
#
#
#
# Elastic Constant Matrix: (Units=GPa)
#
#
# Indices 1 2 3 4 5 6 
#
# 1 149.5638 53.5170 64.2406 0.0000 0.0000 0.0000
# 2 53.5170 91.4657 45.4763 0.0000 0.0000 0.0000
# 3 64.2406 45.4763 126.4862 0.0000 0.0000 0.0000
# 4 0.0000 0.0000 0.0000 31.9431 0.0000 0.0000
# 5 0.0000 0.0000 0.0000 0.0000 35.4285 0.0000
# 6 0.0000 0.0000 0.0000 0.0000 0.0000 21.0980
#
#
#
# Elastic Compliance Matrix: (Units=1/GPa)
#
#
# Indices 1 2 3 4 5 6 
#
# 1 0.009559 -0.003871 -0.003463 0.000000 0.000000 0.000000
# 2 -0.003871 0.014881 -0.003384 0.000000 0.000000 0.000000
# 3 -0.003463 -0.003384 0.010881 0.000000 0.000000 0.000000
# 4 0.000000 0.000000 0.000000 0.031306 0.000000 0.000000
# 5 0.000000 0.000000 0.000000 0.000000 0.028226 0.000000
# 6 0.000000 0.000000 0.000000 0.000000 0.000000 0.047398
#
#
# Mechanical properties :
#
#
# Convention : Reuss Voigt Hill
#
# Bulk Modulus (GPa) = 72.02208 77.10926 74.56567
# Shear Modulus (GPa) = 29.70632 31.31269 30.50951
#
# Velocity S-wave (km/s) = 3.99672 4.10336 4.05039
# Velocity P-wave (km/s) = 7.74767 7.99460 7.87210
#
# Compressibility (1/GPa) = 0.01388463
#
# Stress axis : x y z
#
# Youngs Moduli (GPa) = 104.61728 67.20181 91.89952
#
# Poissons Ratio (x) = 0.26014 0.31824
# Poissons Ratio (y) = 0.40498 0.31099
# Poissons Ratio (z) = 0.36228 0.22741
#
# Static dielectric constant tensor:
#      x y z
#    x 3.447260 0.000000 0.000000 
#    y 0.000000 3.308900 0.000000 
#    z 0.000000 0.000000 3.587300 
# 
# 
# High freq. dielectric constant tensor:
#      x y z
#    x 1.725430 0.000000 0.000000 
#    y 0.000000 1.707750 0.000000 
#    z 0.000000 0.000000 1.744430 
# 
# From -- ./inp_files/4791.got.cif
#   From: 2010.03.12/outbox.cif.g09.slc.cpg/sg72_3_cif.got.tgz:4791.got - 2010.04.16 14:54:00.
