data_PCOD8293054
_publ_section_title
;
Structure prediction by ZEFSAII (Michael W. Deem and Ramdas Pophale) SiO2 
 PCOD8293054
Probable space group: I B A M
;
_chemical_formula_sum "Si O2"
_cell_formula_units_Z 128
_cell_length_a 18.178350
_cell_length_b 18.754928
_cell_length_c 20.511002
_cell_angle_alpha 90.000000
_cell_angle_beta 90.000000
_cell_angle_gamma 90.000000
_cell_volume 6992.890683
_symmetry_space_group_name_H-M "I B A M"
_symmetry_group_IT_number 72
_symmetry_cell_setting 'orthorhombic'
loop_
_space_group_symop_operation_xyz
x,y,z
-x,-y,z
x,-y,1/2-z
-x,y,1/2-z
-x,-y,-z
x,y,-z
-x,y,1/2+z
x,-y,1/2+z
1/2+x,1/2+y,1/2+z
1/2-x,1/2-y,1/2+z
1/2+x,1/2-y,-z
1/2-x,1/2+y,-z
1/2-x,1/2-y,1/2-z
1/2+x,1/2+y,1/2-z
1/2-x,1/2+y,z
1/2+x,1/2-y,z
loop_
_atom_site_type_symbol
_atom_site_label
_atom_site_fract_x
_atom_site_fract_y
_atom_site_fract_z
Si Si1 0.314263 0.078568 0.732847
Si Si2 0.645482 0.429955 0.292606
Si Si3 0.742770 0.777301 0.571039
Si Si4 0.111562 0.866301 0.073545
Si Si5 0.541494 0.216099 0.425161
Si Si6 0.607183 0.818430 0.640550
Si Si7 0.331338 0.812924 0.655585
Si Si8 0.413110 0.287699 0.253094
O O1 0.233538 0.079583 0.700322
O O2 0.375364 0.112763 0.685450
O O3 0.311014 0.119882 0.801255
O O4 0.341465 0.000000 0.750000
O O5 0.626503 0.500000 0.250000
O O6 0.609320 0.424660 0.366501
O O7 0.609175 0.369756 0.247827
O O8 0.741208 0.741006 0.500000
O O9 0.806766 0.835302 0.574319
O O10 0.665260 0.816343 0.581931
O O11 0.755342 0.717037 0.625984
O O12 0.053153 0.801765 0.086483
O O13 0.096678 0.899054 0.000000
O O14 0.525926 0.201299 0.500000
O O15 0.475242 0.180791 0.385212
O O16 0.613432 0.170256 0.404378
O O17 0.619033 0.746570 0.681695
O O18 0.374148 0.750145 0.692647
O O19 0.500000 0.275592 0.250000
#
# Coordination Sequence:
#
# PCOD8293054 Si02
#       8
#    16  16  16  16  16  16  16  16
#     4  10  22  35  53  77 109 144 183 229 279 328
#     4  11  20  34  53  81 112 146 184 228 275 328
#     4  10  18  30  54  82 105 136 182 223 269 327
#     4   9  17  33  53  78 108 146 183 221 272 338
#     4  10  19  33  55  80 108 137 178 226 279 334
#     4  11  19  32  54  80 110 135 178 232 274 318
#     4  10  18  35  55  75 105 141 178 226 277 327
#     4  11  19  32  52  79 108 137 175 224 277 331
#
# _framework density 18.304304999999999
#
# number of rings (size 3 to 8) (size 9 to 14) (size 15 to 20)
#    0.000    1.750    5.000    2.250    0.000    2.250 
#    0.000    1.250    0.000   14.250    0.000    2.625 
#    0.000    0.000    0.000    0.000    0.000    0.000 
#
# Total GULP energy -792980.195820 kJ/mol
# GULP energy per Si atom -12390.315560 kJ/mol
# Density = 1.826264 g / cm^3
# Si number density = 18.304305 Si / 1000 Ang^3
#
#
#
# Elastic Constant Matrix: (Units=GPa)
#
#
# Indices 1 2 3 4 5 6 
#
# 1 67.5603 17.2972 16.1049 0.0000 0.0000 0.0000
# 2 17.2972 86.9877 46.6651 0.0000 0.0000 0.0000
# 3 16.1049 46.6651 110.2213 0.0000 0.0000 0.0000
# 4 0.0000 0.0000 0.0000 21.0278 0.0000 0.0000
# 5 0.0000 0.0000 0.0000 0.0000 26.5107 0.0000
# 6 0.0000 0.0000 0.0000 0.0000 0.0000 17.0486
#
#
#
# Elastic Compliance Matrix: (Units=1/GPa)
#
#
# Indices 1 2 3 4 5 6 
#
# 1 0.015730 -0.002452 -0.001260 0.000000 0.000000 0.000000
# 2 -0.002452 0.015256 -0.006101 0.000000 0.000000 0.000000
# 3 -0.001260 -0.006101 0.011840 0.000000 0.000000 0.000000
# 4 0.000000 0.000000 0.000000 0.047556 0.000000 0.000000
# 5 0.000000 0.000000 0.000000 0.000000 0.037721 0.000000
# 6 0.000000 0.000000 0.000000 0.000000 0.000000 0.058656
#
#
# Mechanical properties :
#
#
# Convention : Reuss Voigt Hill
#
# Bulk Modulus (GPa) = 43.10366 47.21152 45.15759
# Shear Modulus (GPa) = 23.35167 25.23089 24.29128
#
# Velocity S-wave (km/s) = 3.57564 3.71673 3.64686
# Velocity P-wave (km/s) = 6.37545 6.65337 6.51589
#
# Compressibility (1/GPa) = 0.02319989
#
# Stress axis : x y z
#
# Youngs Moduli (GPa) = 63.57391 65.54679 84.46082
#
# Poissons Ratio (x) = 0.16070 0.10645
# Poissons Ratio (y) = 0.15586 0.51529
# Poissons Ratio (z) = 0.08013 0.39990
#
# Static dielectric constant tensor:
#      x y z
#    x 3.348630 0.000000 0.000000 
#    y 0.000000 3.053260 0.000000 
#    z 0.000000 0.000000 2.708470 
# 
# 
# High freq. dielectric constant tensor:
#      x y z
#    x 1.710030 0.000000 0.000000 
#    y 0.000000 1.660760 0.000000 
#    z 0.000000 0.000000 1.726960 
# 
# From -- ./inp_files/45053.got.cif
#   From: 2010.03.12/outbox.cif.g09.slc.cpg/sg72_23_cif.got.tgz:45053.got - 2010.04.16 14:54:00.
