data_PCOD8293618
_publ_section_title
;
Structure prediction by ZEFSAII (Michael W. Deem and Ramdas Pophale) SiO2 
 PCOD8293618
Probable space group: I B A M
;
_chemical_formula_sum "Si O2"
_cell_formula_units_Z 112
_cell_length_a 12.004258
_cell_length_b 28.537019
_cell_length_c 17.079161
_cell_angle_alpha 90.000000
_cell_angle_beta 90.000000
_cell_angle_gamma 90.000000
_cell_volume 5850.735403
_symmetry_space_group_name_H-M "I B A M"
_symmetry_group_IT_number 72
_symmetry_cell_setting 'orthorhombic'
loop_
_space_group_symop_operation_xyz
x,y,z
-x,-y,z
x,-y,1/2-z
-x,y,1/2-z
-x,-y,-z
x,y,-z
-x,y,1/2+z
x,-y,1/2+z
1/2+x,1/2+y,1/2+z
1/2-x,1/2-y,1/2+z
1/2+x,1/2-y,-z
1/2-x,1/2+y,-z
1/2-x,1/2-y,1/2-z
1/2+x,1/2+y,1/2-z
1/2-x,1/2+y,z
1/2+x,1/2-y,z
loop_
_atom_site_type_symbol
_atom_site_label
_atom_site_fract_x
_atom_site_fract_y
_atom_site_fract_z
Si Si1 0.870308 0.660864 0.591874
Si Si2 0.301074 0.584575 0.091183
Si Si3 0.616474 0.171163 0.092975
Si Si4 0.688475 0.605698 0.908339
Si Si5 0.126803 0.992937 0.158344
Si Si6 0.979969 0.150967 0.341581
Si Si7 0.676058 0.726620 0.593058
O O1 0.883968 0.667081 0.500000
O O2 0.815046 0.610513 0.611885
O O3 0.790857 0.702795 0.623476
O O4 0.993168 0.664008 0.630161
O O5 0.293700 0.530008 0.113665
O O6 0.400272 0.606972 0.141356
O O7 0.329121 0.591385 0.000000
O O8 0.694197 0.128080 0.119164
O O9 0.669732 0.220016 0.122855
O O10 0.610268 0.172869 0.000000
O O11 0.670879 0.558382 0.860629
O O12 0.594603 0.643650 0.887920
O O13 0.686860 0.594390 0.000000
O O14 0.136625 0.000000 0.250000
O O15 0.000000 0.000000 0.129018
O O16 0.928956 0.199488 0.371189
O O17 0.000000 0.153243 0.250000
O O18 0.667688 0.722178 0.500000
#
# Coordination Sequence:
#
# PCOD8293618 Si02
#       7
#    16  16  16  16  16  16  16
#     4   8  16  32  53  80 111 142 185 232 280 331
#     4  10  19  34  58  82 105 147 193 232 277 339
#     4   9  19  34  56  85 115 144 185 242 289 322
#     4  11  22  35  57  89 117 143 186 240 282 328
#     4  11  22  36  57  83 116 149 180 225 294 347
#     4  11  21  34  53  80 119 152 184 229 282 335
#     4   9  18  33  58  83 107 149 195 234 277 332
#
# _framework density 19.142893000000001
#
# number of rings (size 3 to 8) (size 9 to 14) (size 15 to 20)
#    0.000    2.143    1.429    3.429    2.000    0.571 
#    0.000    1.429    3.143    4.286    0.000    0.000 
#    0.000    0.000    0.000    0.000    0.000    0.000 
#
# Total GULP energy -694387.734670 kJ/mol
# GULP energy per Si atom -12399.780976 kJ/mol
# Density = 1.909932 g / cm^3
# Si number density = 19.142893 Si / 1000 Ang^3
#
#
#
# Elastic Constant Matrix: (Units=GPa)
#
#
# Indices 1 2 3 4 5 6 
#
# 1 153.9271 81.8309 26.7870 0.0000 0.0000 0.0000
# 2 81.8309 149.8413 32.4453 0.0000 0.0000 0.0000
# 3 26.7870 32.4453 52.0160 0.0001 0.0000 0.0002
# 4 0.0000 0.0000 0.0001 19.0541 0.0000 0.0000
# 5 0.0000 0.0000 0.0000 0.0000 4.3749 0.0000
# 6 0.0000 0.0000 0.0002 0.0000 0.0000 26.0773
#
#
#
# Elastic Compliance Matrix: (Units=1/GPa)
#
#
# Indices 1 2 3 4 5 6 
#
# 1 0.009310 -0.004678 -0.001876 0.000000 0.000000 0.000000
# 2 -0.004678 0.010066 -0.003870 0.000000 0.000000 0.000000
# 3 -0.001876 -0.003870 0.022605 0.000000 0.000000 0.000000
# 4 0.000000 0.000000 0.000000 0.052482 0.000000 0.000000
# 5 0.000000 0.000000 0.000000 0.000000 0.228579 0.000000
# 6 0.000000 0.000000 0.000000 0.000000 0.000000 0.038348
#
#
# Mechanical properties :
#
#
# Convention : Reuss Voigt Hill
#
# Bulk Modulus (GPa) = 47.32009 70.87897 59.09953
# Shear Modulus (GPa) = 12.84412 24.21601 18.53006
#
# Velocity S-wave (km/s) = 2.59310 3.56056 3.11462
# Velocity P-wave (km/s) = 5.80850 7.34916 6.62377
#
# Compressibility (1/GPa) = 0.02113267
#
# Stress axis : x y z
#
# Youngs Moduli (GPa) = 107.41018 99.33969 44.23781
#
# Poissons Ratio (x) = 0.46472 0.08301
# Poissons Ratio (y) = 0.50247 0.17120
# Poissons Ratio (z) = 0.20155 0.38444
#
# Static dielectric constant tensor:
#      x y z
#    x 3.836290 0.000000 0.000000 
#    y 0.000000 3.609820 0.000000 
#    z 0.000000 0.000000 3.136420 
# 
# 
# High freq. dielectric constant tensor:
#      x y z
#    x 1.737580 0.000000 0.000000 
#    y 0.000000 1.749130 0.000000 
#    z 0.000000 0.000000 1.719760 
# 
# From -- ./inp_files/20683.got.cif
#   From: 2010.03.12/outbox.cif.g09.slc.cpg/sg72_11_cif.got.tgz:20683.got - 2010.04.16 14:54:00.
