data_PCOD8293909
_publ_section_title
;
Structure prediction by ZEFSAII (Michael W. Deem and Ramdas Pophale) SiO2 
 PCOD8293909
Probable space group: I B A M
;
_chemical_formula_sum "Si O2"
_cell_formula_units_Z 112
_cell_length_a 12.616221
_cell_length_b 28.358190
_cell_length_c 14.875059
_cell_angle_alpha 90.000000
_cell_angle_beta 90.000000
_cell_angle_gamma 90.000000
_cell_volume 5321.897343
_symmetry_space_group_name_H-M "I B A M"
_symmetry_group_IT_number 72
_symmetry_cell_setting 'orthorhombic'
loop_
_space_group_symop_operation_xyz
x,y,z
-x,-y,z
x,-y,1/2-z
-x,y,1/2-z
-x,-y,-z
x,y,-z
-x,y,1/2+z
x,-y,1/2+z
1/2+x,1/2+y,1/2+z
1/2-x,1/2-y,1/2+z
1/2+x,1/2-y,-z
1/2-x,1/2+y,-z
1/2-x,1/2-y,1/2-z
1/2+x,1/2+y,1/2-z
1/2-x,1/2+y,z
1/2+x,1/2-y,z
loop_
_atom_site_type_symbol
_atom_site_label
_atom_site_fract_x
_atom_site_fract_y
_atom_site_fract_z
Si Si1 0.219172 0.061579 0.396621
Si Si2 0.496207 0.383052 0.149594
Si Si3 0.315275 0.842854 0.603197
Si Si4 0.385033 0.891550 0.228052
Si Si5 0.454155 0.806838 0.896553
Si Si6 0.107282 0.206143 0.899967
Si Si7 0.098019 0.972717 0.604317
O O1 0.253383 0.068869 0.500000
O O2 0.113758 0.093039 0.380495
O O3 0.315231 0.073487 0.331377
O O4 0.199885 0.005600 0.377171
O O5 0.500000 0.364762 0.250000
O O6 0.517757 0.334884 0.095888
O O7 0.596922 0.419435 0.142203
O O8 0.295494 0.861787 0.500000
O O9 0.328632 0.884929 0.675172
O O10 0.419310 0.810840 0.605876
O O11 0.216657 0.812887 0.641935
O O12 0.500000 0.914062 0.250000
O O13 0.398240 0.843498 0.170672
O O14 0.430007 0.755022 0.854897
O O15 0.415013 0.815096 0.000000
O O16 0.134138 0.221612 0.000000
O O17 0.075335 0.966867 0.500000
O O18 0.000000 0.000000 0.650340
#
# Coordination Sequence:
#
# PCOD8293909 Si02
#       7
#    16  16  16  16  16  16  16
#     4  10  20  35  57  85 117 154 197 244 294 352
#     4  11  21  32  52  85 122 155 191 232 286 353
#     4   9  19  35  51  72 107 150 191 236 296 352
#     4  10  20  35  56  81 112 150 195 246 297 346
#     4   9  19  34  52  76 108 149 196 245 294 345
#     4  10  20  34  52  76 110 152 196 239 285 344
#     4   8  16  32  51  75 111 148 180 224 286 348
#
# _framework density 21.045126
#
# number of rings (size 3 to 8) (size 9 to 14) (size 15 to 20)
#    0.000    2.429    0.000    3.429    0.000    6.571 
#    0.000    2.857    0.000    0.000    0.000   18.000 
#    0.000   39.429    0.000    0.000    0.000    0.000 
#
# Total GULP energy -693731.164337 kJ/mol
# GULP energy per Si atom -12388.056506 kJ/mol
# Density = 2.099723 g / cm^3
# Si number density = 21.045126 Si / 1000 Ang^3
#
#
#
# Elastic Constant Matrix: (Units=GPa)
#
#
# Indices 1 2 3 4 5 6 
#
# 1 85.8133 25.2958 39.6785 0.0000 0.0001 0.0001
# 2 25.2958 79.1552 22.0198 0.0005 0.0000 0.0001
# 3 39.6785 22.0198 100.1889 0.0015 0.0002 0.0006
# 4 0.0000 0.0005 0.0015 12.7918 -0.0001 0.0001
# 5 0.0001 0.0000 0.0002 -0.0001 33.2495 -0.0001
# 6 0.0001 0.0001 0.0006 0.0001 -0.0001 21.8261
#
#
#
# Elastic Compliance Matrix: (Units=1/GPa)
#
#
# Indices 1 2 3 4 5 6 
#
# 1 0.015060 -0.003359 -0.005226 0.000001 0.000000 0.000000
# 2 -0.003359 0.014205 -0.001792 0.000000 0.000000 0.000000
# 3 -0.005226 -0.001792 0.012445 -0.000001 0.000000 0.000000
# 4 0.000001 0.000000 -0.000001 0.078175 0.000000 0.000000
# 5 0.000000 0.000000 0.000000 0.000000 0.030076 0.000000
# 6 0.000000 0.000000 0.000000 0.000000 0.000000 0.045817
#
#
# Mechanical properties :
#
#
# Convention : Reuss Voigt Hill
#
# Bulk Modulus (GPa) = 47.71845 48.79394 48.25619
# Shear Modulus (GPa) = 22.36978 25.45104 23.91041
#
# Velocity S-wave (km/s) = 3.26382 3.48135 3.37434
# Velocity P-wave (km/s) = 6.07675 6.27658 6.17747
#
# Compressibility (1/GPa) = 0.02095626
#
# Stress axis : x y z
#
# Youngs Moduli (GPa) = 66.40224 70.39642 80.35587
#
# Poissons Ratio (x) = 0.23645 0.41994
# Poissons Ratio (y) = 0.22304 0.14398
# Poissons Ratio (z) = 0.34702 0.12614
#
# Static dielectric constant tensor:
#      x y z
#    x 3.720760 0.000000 0.000000 
#    y 0.000000 3.745660 0.000000 
#    z 0.000000 0.000000 3.952360 
# 
# 
# High freq. dielectric constant tensor:
#      x y z
#    x 1.807440 0.000000 0.000000 
#    y 0.000000 1.806050 0.000000 
#    z 0.000000 0.000000 1.833680 
# 
# From -- ./inp_files/20711.got.cif
#   From: 2010.03.12/outbox.cif.g09.slc.cpg/sg72_11_cif.got.tgz:20711.got - 2010.04.16 14:54:00.
