data_PCOD8293711
_publ_section_title
;
Structure prediction by ZEFSAII (Michael W. Deem and Ramdas Pophale) SiO2 
 PCOD8293711
Probable space group: I B A M
;
_chemical_formula_sum "Si O2"
_cell_formula_units_Z 96
_cell_length_a 15.467260
_cell_length_b 20.985902
_cell_length_c 14.067324
_cell_angle_alpha 90.000000
_cell_angle_beta 90.000000
_cell_angle_gamma 90.000000
_cell_volume 4566.174630
_symmetry_space_group_name_H-M "I B A M"
_symmetry_group_IT_number 72
_symmetry_cell_setting 'orthorhombic'
loop_
_space_group_symop_operation_xyz
x,y,z
-x,-y,z
x,-y,1/2-z
-x,y,1/2-z
-x,-y,-z
x,y,-z
-x,y,1/2+z
x,-y,1/2+z
1/2+x,1/2+y,1/2+z
1/2-x,1/2-y,1/2+z
1/2+x,1/2-y,-z
1/2-x,1/2+y,-z
1/2-x,1/2-y,1/2-z
1/2+x,1/2+y,1/2-z
1/2-x,1/2+y,z
1/2+x,1/2-y,z
loop_
_atom_site_type_symbol
_atom_site_label
_atom_site_fract_x
_atom_site_fract_y
_atom_site_fract_z
Si Si1 0.097333 0.977580 0.106885
Si Si2 0.303629 0.711965 0.887839
Si Si3 0.168613 0.911774 0.728213
Si Si4 0.927845 0.676072 0.110359
Si Si5 0.860980 0.427676 0.256901
Si Si6 0.618040 0.825343 0.108558
O O1 0.102611 0.918510 0.181964
O O2 0.156251 0.034360 0.147903
O O3 0.128356 0.958605 0.000000
O O4 0.000000 0.000000 0.102731
O O5 0.342376 0.655192 0.824676
O O6 0.354346 0.774949 0.853788
O O7 0.200379 0.720176 0.865784
O O8 0.320661 0.699005 0.000000
O O9 0.259960 0.922679 0.780464
O O10 0.916304 0.609188 0.163483
O O11 0.023956 0.705159 0.133249
O O12 0.916518 0.662141 0.000000
O O13 0.894243 0.500000 0.250000
O O14 0.874490 0.393986 0.156216
O O15 0.623237 0.843172 0.000000
#
# Coordination Sequence:
#
# PCOD8293711 Si02
#       6
#    16  16  16  16  16  16
#     4  10  20  36  57  85 122 158 200 256 307 357
#     4   9  19  38  63  87 118 159 201 250 310 371
#     4  10  19  36  59  87 116 159 201 247 299 369
#     4  10  22  40  61  89 123 157 203 258 309 366
#     4  11  22  38  58  87 117 158 202 249 299 359
#     4   9  20  38  60  86 119 158 199 250 310 363
#
# _framework density 21.024162
#
# number of rings (size 3 to 8) (size 9 to 14) (size 15 to 20)
#    0.000    2.167    1.667    2.000    0.000    6.000 
#    0.000    8.333    0.000    7.000    0.000    0.000 
#    0.000    0.000    0.000    0.000    0.000    0.000 
#
# Total GULP energy -594846.108915 kJ/mol
# GULP energy per Si atom -12392.627269 kJ/mol
# Density = 2.097631 g / cm^3
# Si number density = 21.024162 Si / 1000 Ang^3
#
#
#
# Elastic Constant Matrix: (Units=GPa)
#
#
# Indices 1 2 3 4 5 6 
#
# 1 126.8881 58.2665 45.9703 0.0000 0.0000 0.0000
# 2 58.2665 119.6182 41.3890 0.0000 0.0000 0.0000
# 3 45.9703 41.3890 101.7698 -0.0001 0.0000 0.0000
# 4 0.0000 0.0000 -0.0001 24.2589 0.0000 0.0000
# 5 0.0000 0.0000 0.0000 0.0000 31.2362 0.0000
# 6 0.0000 0.0000 0.0000 0.0000 0.0000 26.5941
#
#
#
# Elastic Compliance Matrix: (Units=1/GPa)
#
#
# Indices 1 2 3 4 5 6 
#
# 1 0.011002 -0.004236 -0.003247 0.000000 0.000000 0.000000
# 2 -0.004236 0.011360 -0.002707 0.000000 0.000000 0.000000
# 3 -0.003247 -0.002707 0.012394 0.000000 0.000000 0.000000
# 4 0.000000 0.000000 0.000000 0.041222 0.000000 0.000000
# 5 0.000000 0.000000 0.000000 0.000000 0.032014 0.000000
# 6 0.000000 0.000000 0.000000 0.000000 0.000000 0.037602
#
#
# Mechanical properties :
#
#
# Convention : Reuss Voigt Hill
#
# Bulk Modulus (GPa) = 69.55734 71.05863 70.30798
# Shear Modulus (GPa) = 29.27993 29.92788 29.60390
#
# Velocity S-wave (km/s) = 3.73591 3.77702 3.75652
# Velocity P-wave (km/s) = 7.19484 7.27277 7.23391
#
# Compressibility (1/GPa) = 0.01437663
#
# Stress axis : x y z
#
# Youngs Moduli (GPa) = 90.88893 88.03060 80.68648
#
# Poissons Ratio (x) = 0.37288 0.26201
# Poissons Ratio (y) = 0.38498 0.21838
# Poissons Ratio (z) = 0.29514 0.23826
#
# Static dielectric constant tensor:
#      x y z
#    x 4.294820 0.000000 0.000000 
#    y 0.000000 3.539710 0.000000 
#    z 0.000000 0.000000 4.027880 
# 
# 
# High freq. dielectric constant tensor:
#      x y z
#    x 1.837460 0.000000 0.000000 
#    y 0.000000 1.789790 0.000000 
#    z 0.000000 0.000000 1.836770 
# 
# From -- ./inp_files/21787.got.cif
#   From: 2010.03.12/outbox.cif.g09.slc.cpg/sg72_11_cif.got.tgz:21787.got - 2010.04.16 14:54:00.
