data_PCOD8293108
_publ_section_title
;
Structure prediction by ZEFSAII (Michael W. Deem and Ramdas Pophale) SiO2 
 PCOD8293108
Probable space group: I B A M
;
_chemical_formula_sum "Si O2"
_cell_formula_units_Z 80
_cell_length_a 9.299978
_cell_length_b 24.735861
_cell_length_c 19.095374
_cell_angle_alpha 90.000000
_cell_angle_beta 90.000000
_cell_angle_gamma 90.000000
_cell_volume 4392.756417
_symmetry_space_group_name_H-M "I B A M"
_symmetry_group_IT_number 72
_symmetry_cell_setting 'orthorhombic'
loop_
_space_group_symop_operation_xyz
x,y,z
-x,-y,z
x,-y,1/2-z
-x,y,1/2-z
-x,-y,-z
x,y,-z
-x,y,1/2+z
x,-y,1/2+z
1/2+x,1/2+y,1/2+z
1/2-x,1/2-y,1/2+z
1/2+x,1/2-y,-z
1/2-x,1/2+y,-z
1/2-x,1/2-y,1/2-z
1/2+x,1/2+y,1/2-z
1/2-x,1/2+y,z
1/2+x,1/2-y,z
loop_
_atom_site_type_symbol
_atom_site_label
_atom_site_fract_x
_atom_site_fract_y
_atom_site_fract_z
Si Si1 0.119062 0.352240 0.081755
Si Si2 0.961324 0.438122 0.828224
Si Si3 0.298203 0.369804 0.313099
Si Si4 0.106925 0.156953 0.661843
Si Si5 0.564845 0.216831 0.323722
O O1 0.290376 0.352876 0.095638
O O2 0.050951 0.405713 0.114702
O O3 0.048298 0.298693 0.115531
O O4 0.088943 0.351695 0.000000
O O5 0.791410 0.423385 0.836304
O O6 0.000000 0.500000 0.841116
O O7 0.000000 0.419257 0.750000
O O8 0.324875 0.371296 0.229899
O O9 0.450451 0.368688 0.353937
O O10 0.212460 0.315771 0.335345
O O11 0.094194 0.220193 0.677256
O O12 0.500000 0.197773 0.250000
#
# Coordination Sequence:
#
# PCOD8293108 Si02
#       5
#    16  16  16  16  16
#     4  11  23  37  53  80 120 154 186 230 286 344
#     4  10  20  39  63  82 104 140 198 252 286 334
#     4  10  18  31  56  87 106 138 187 240 280 325
#     4  11  19  31  55  85 117 146 182 233 283 331
#     4  11  18  33  57  84 111 153 196 227 263 330
#
# _framework density 18.211798999999999
#
# number of rings (size 3 to 8) (size 9 to 14) (size 15 to 20)
#    0.000    1.400    6.000    3.000    0.000    1.200 
#    0.000    5.000    0.000    1.200    0.000    0.000 
#    0.000    0.000    0.000    0.000    0.000    0.000 
#
# Total GULP energy -495946.369979 kJ/mol
# GULP energy per Si atom -12398.659249 kJ/mol
# Density = 1.817035 g / cm^3
# Si number density = 18.211799 Si / 1000 Ang^3
#
#
#
# Elastic Constant Matrix: (Units=GPa)
#
#
# Indices 1 2 3 4 5 6 
#
# 1 151.3475 46.3850 41.9782 0.0000 0.0000 0.0000
# 2 46.3850 100.5807 24.5444 0.0000 0.0000 0.0000
# 3 41.9782 24.5444 115.7053 0.0002 0.0000 0.0000
# 4 0.0000 0.0000 0.0002 3.8945 0.0000 0.0000
# 5 0.0000 0.0000 0.0000 0.0000 22.9757 0.0000
# 6 0.0000 0.0000 0.0000 0.0000 0.0000 14.9593
#
#
#
# Elastic Compliance Matrix: (Units=1/GPa)
#
#
# Indices 1 2 3 4 5 6 
#
# 1 0.008238 -0.003237 -0.002302 0.000000 0.000000 0.000000
# 2 -0.003237 0.011757 -0.001320 0.000000 0.000000 0.000000
# 3 -0.002302 -0.001320 0.009758 -0.000001 0.000000 0.000000
# 4 0.000000 0.000000 -0.000001 0.256769 0.000000 0.000000
# 5 0.000000 0.000000 0.000000 0.000000 0.043524 0.000000
# 6 0.000000 0.000000 0.000000 0.000000 0.000000 0.066848
#
#
# Mechanical properties :
#
#
# Convention : Reuss Voigt Hill
#
# Bulk Modulus (GPa) = 62.36306 65.93875 64.15090
# Shear Modulus (GPa) = 12.02045 25.34761 18.68403
#
# Velocity S-wave (km/s) = 2.57190 3.73476 3.20649
# Velocity P-wave (km/s) = 6.56789 7.40832 7.00072
#
# Compressibility (1/GPa) = 0.01603513
#
# Stress axis : x y z
#
# Youngs Moduli (GPa) = 121.38864 85.05386 102.48273
#
# Poissons Ratio (x) = 0.27535 0.23592
# Poissons Ratio (y) = 0.39298 0.13523
# Poissons Ratio (z) = 0.27944 0.11223
#
# Static dielectric constant tensor:
#      x y z
#    x 3.728660 0.000000 0.000000 
#    y 0.000000 3.144340 0.000000 
#    z 0.000000 0.000000 3.046790 
# 
# 
# High freq. dielectric constant tensor:
#      x y z
#    x 1.724740 0.000000 0.000000 
#    y 0.000000 1.689120 0.000000 
#    z 0.000000 0.000000 1.669580 
# 
# From -- ./inp_files/28193.got.cif
#   From: 2010.03.12/outbox.cif.g09.slc.cpg/sg72_15_cif.got.tgz:28193.got - 2010.04.16 14:54:00.
