data_PCOD8293007
_publ_section_title
;
Structure prediction by ZEFSAII (Michael W. Deem and Ramdas Pophale) SiO2 
 PCOD8293007
Probable space group: I B A M
;
_chemical_formula_sum "Si O2"
_cell_formula_units_Z 128
_cell_length_a 26.321745
_cell_length_b 17.565413
_cell_length_c 18.895342
_cell_angle_alpha 90.000000
_cell_angle_beta 90.000000
_cell_angle_gamma 90.000000
_cell_volume 8736.305245
_symmetry_space_group_name_H-M "I B A M"
_symmetry_group_IT_number 72
_symmetry_cell_setting 'orthorhombic'
loop_
_space_group_symop_operation_xyz
x,y,z
-x,-y,z
x,-y,1/2-z
-x,y,1/2-z
-x,-y,-z
x,y,-z
-x,y,1/2+z
x,-y,1/2+z
1/2+x,1/2+y,1/2+z
1/2-x,1/2-y,1/2+z
1/2+x,1/2-y,-z
1/2-x,1/2+y,-z
1/2-x,1/2-y,1/2-z
1/2+x,1/2+y,1/2-z
1/2-x,1/2+y,z
1/2+x,1/2-y,z
loop_
_atom_site_type_symbol
_atom_site_label
_atom_site_fract_x
_atom_site_fract_y
_atom_site_fract_z
Si Si1 0.137029 0.320626 0.838361
Si Si2 0.694365 0.682304 0.308307
Si Si3 0.252162 0.037654 0.825736
Si Si4 0.790950 0.781128 0.657916
Si Si5 0.150239 0.359797 0.675645
Si Si6 0.448721 0.101164 0.419089
Si Si7 0.063881 0.574194 0.918734
Si Si8 0.769720 0.396539 0.582009
O O1 0.147056 0.228482 0.844154
O O2 0.137330 0.343428 0.756654
O O3 0.081954 0.339599 0.870361
O O4 0.179168 0.370265 0.879022
O O5 0.707751 0.600281 0.342203
O O6 0.740113 0.740697 0.316621
O O7 0.686716 0.670108 0.223922
O O8 0.307274 0.075643 0.826553
O O9 0.241924 0.000000 0.750000
O O10 0.250565 0.976982 0.888348
O O11 0.831149 0.716715 0.635321
O O12 0.776675 0.837090 0.593485
O O13 0.100542 0.384541 0.635024
O O14 0.435603 0.120193 0.500000
O O15 0.508549 0.109995 0.405142
O O16 0.433595 0.014928 0.401017
O O17 0.080294 0.587657 0.000000
O O18 0.782042 0.405050 0.500000
#
# Coordination Sequence:
#
# PCOD8293007 Si02
#       8
#    16  16  16  16  16  16  16  16
#     4  10  18  30  45  65  85 114 155 182 219 267
#     4   8  15  28  45  60  81 114 146 179 213 261
#     4  11  17  29  45  63  89 119 149 180 223 262
#     4   8  15  29  41  58  83 111 144 176 213 256
#     4  10  19  28  46  65  85 115 150 184 217 262
#     4   9  18  32  45  59  87 121 149 185 225 260
#     4   9  19  32  44  61  86 117 152 187 225 261
#     4  11  20  28  42  65  88 116 149 182 216 263
#
# _framework density 14.651503
#
# number of rings (size 3 to 8) (size 9 to 14) (size 15 to 20)
#    0.000    2.500    2.500    3.375    0.000    2.500 
#    0.000    6.875    0.000    0.000    0.000    0.000 
#    0.000    1.000    1.000    3.875    0.000    0.000 
#
# Total GULP energy -793111.321611 kJ/mol
# GULP energy per Si atom -12392.364400 kJ/mol
# Density = 1.461816 g / cm^3
# Si number density = 14.651503 Si / 1000 Ang^3
#
#
#
# Elastic Constant Matrix: (Units=GPa)
#
#
# Indices 1 2 3 4 5 6 
#
# 1 68.2690 41.0018 38.6786 0.0000 0.0000 0.0000
# 2 41.0018 79.3090 39.5632 0.0000 0.0000 0.0000
# 3 38.6786 39.5632 76.7922 0.0000 0.0000 0.0000
# 4 0.0000 0.0000 0.0000 17.0972 0.0000 0.0000
# 5 0.0000 0.0000 0.0000 0.0000 24.0959 0.0000
# 6 0.0000 0.0000 0.0000 0.0000 0.0000 25.6944
#
#
#
# Elastic Compliance Matrix: (Units=1/GPa)
#
#
# Indices 1 2 3 4 5 6 
#
# 1 0.024242 -0.008670 -0.007744 0.000000 0.000000 0.000000
# 2 -0.008670 0.020071 -0.005974 0.000000 0.000000 0.000000
# 3 -0.007744 -0.005974 0.020000 0.000000 0.000000 0.000000
# 4 0.000000 0.000000 0.000000 0.058489 0.000000 0.000000
# 5 0.000000 0.000000 0.000000 0.000000 0.041501 0.000000
# 6 0.000000 0.000000 0.000000 0.000000 0.000000 0.038919
#
#
# Mechanical properties :
#
#
# Convention : Reuss Voigt Hill
#
# Bulk Modulus (GPa) = 51.17993 51.42859 51.30426
# Shear Modulus (GPa) = 19.64559 20.38595 20.01577
#
# Velocity S-wave (km/s) = 3.66575 3.73418 3.70012
# Velocity P-wave (km/s) = 7.27491 7.33277 7.30390
#
# Compressibility (1/GPa) = 0.01953891
#
# Stress axis : x y z
#
# Youngs Moduli (GPa) = 41.25012 49.82256 49.99988
#
# Poissons Ratio (x) = 0.43197 0.38718
# Poissons Ratio (y) = 0.35764 0.29868
# Poissons Ratio (z) = 0.31942 0.29762
#
# Static dielectric constant tensor:
#      x y z
#    x 2.753380 0.000000 0.000000 
#    y 0.000000 3.007540 0.000000 
#    z 0.000000 0.000000 2.784840 
# 
# 
# High freq. dielectric constant tensor:
#      x y z
#    x 1.530210 0.000000 0.000000 
#    y 0.000000 1.551470 0.000000 
#    z 0.000000 0.000000 1.555870 
# 
# From -- ./inp_files/33533.got.cif
#   From: 2010.03.12/outbox.cif.g09.slc.cpg/sg72_17_cif.got.tgz:33533.got - 2010.04.16 14:54:00.
