data_PCOD8293847
_publ_section_title
;
Structure prediction by ZEFSAII (Michael W. Deem and Ramdas Pophale) SiO2 
 PCOD8293847
Probable space group: I B A M
;
_chemical_formula_sum "Si O2"
_cell_formula_units_Z 64
_cell_length_a 27.336044
_cell_length_b 14.560490
_cell_length_c 8.826381
_cell_angle_alpha 90.000000
_cell_angle_beta 90.000000
_cell_angle_gamma 90.000000
_cell_volume 3513.130848
_symmetry_space_group_name_H-M "I B A M"
_symmetry_group_IT_number 72
_symmetry_cell_setting 'orthorhombic'
loop_
_space_group_symop_operation_xyz
x,y,z
-x,-y,z
x,-y,1/2-z
-x,y,1/2-z
-x,-y,-z
x,y,-z
-x,y,1/2+z
x,-y,1/2+z
1/2+x,1/2+y,1/2+z
1/2-x,1/2-y,1/2+z
1/2+x,1/2-y,-z
1/2-x,1/2+y,-z
1/2-x,1/2-y,1/2-z
1/2+x,1/2+y,1/2-z
1/2-x,1/2+y,z
1/2+x,1/2-y,z
loop_
_atom_site_type_symbol
_atom_site_label
_atom_site_fract_x
_atom_site_fract_y
_atom_site_fract_z
Si Si1 0.262412 0.844963 0.175305
Si Si2 0.866954 0.711917 0.825083
Si Si3 0.327814 0.410987 0.677960
Si Si4 0.551891 0.096120 0.679377
O O1 0.250000 0.750000 0.250000
O O2 0.320874 0.857797 0.195571
O O3 0.228365 0.917894 0.261443
O O4 0.247833 0.843943 0.000000
O O5 0.853882 0.815977 0.772847
O O6 0.910262 0.676512 0.719132
O O7 0.883742 0.712308 0.000000
O O8 0.355370 0.500000 0.750000
O O9 0.327103 0.420290 0.500000
O O10 0.500000 0.123954 0.750000
O O11 0.546968 0.085586 0.500000
O O12 0.570223 0.000000 0.750000
#
# Coordination Sequence:
#
# PCOD8293847 Si02
#       4
#    16  16  16  16
#     4   9  17  30  48  70 100 135 172 213 253 297
#     4   9  19  35  53  76 105 137 174 215 258 306
#     4  10  20  33  51  75 107 144 180 218 256 302
#     4  11  22  37  58  80 104 132 164 208 259 313
#
# _framework density 18.217368
#
# number of rings (size 3 to 8) (size 9 to 14) (size 15 to 20)
#    0.000    2.250    0.000    6.000    0.000    7.000 
#    0.000    0.000    0.000    0.750    0.000    5.250 
#    0.000    0.000    0.000    0.000    0.000    0.000 
#
# Total GULP energy -396559.145865 kJ/mol
# GULP energy per Si atom -12392.473308 kJ/mol
# Density = 1.817590 g / cm^3
# Si number density = 18.217368 Si / 1000 Ang^3
#
#
#
# Elastic Constant Matrix: (Units=GPa)
#
#
# Indices 1 2 3 4 5 6 
#
# 1 87.4709 54.6652 53.0937 0.0000 0.0000 0.0000
# 2 54.6652 106.5172 51.1920 0.0000 0.0000 0.0000
# 3 53.0937 51.1920 119.1541 0.0000 0.0000 0.0000
# 4 0.0000 0.0000 0.0000 31.8818 0.0000 0.0000
# 5 0.0000 0.0000 0.0000 0.0000 30.0435 0.0000
# 6 0.0000 0.0000 0.0000 0.0000 0.0000 21.6656
#
#
#
# Elastic Compliance Matrix: (Units=1/GPa)
#
#
# Indices 1 2 3 4 5 6 
#
# 1 0.019302 -0.007274 -0.005475 0.000000 0.000000 0.000000
# 2 -0.007274 0.014573 -0.003019 0.000000 0.000000 0.000000
# 3 -0.005475 -0.003019 0.012130 0.000000 0.000000 0.000000
# 4 0.000000 0.000000 0.000000 0.031366 0.000000 0.000000
# 5 0.000000 0.000000 0.000000 0.000000 0.033285 0.000000
# 6 0.000000 0.000000 0.000000 0.000000 0.000000 0.046156
#
#
# Mechanical properties :
#
#
# Convention : Reuss Voigt Hill
#
# Bulk Modulus (GPa) = 69.12971 70.11602 69.62286
# Shear Modulus (GPa) = 25.88369 26.99758 26.44064
#
# Velocity S-wave (km/s) = 3.77347 3.85381 3.81385
# Velocity P-wave (km/s) = 7.55083 7.64033 7.59571
#
# Compressibility (1/GPa) = 0.01446556
#
# Stress axis : x y z
#
# Youngs Moduli (GPa) = 51.80779 68.62216 82.44347
#
# Poissons Ratio (x) = 0.49919 0.45142
# Poissons Ratio (y) = 0.37687 0.24893
# Poissons Ratio (z) = 0.28367 0.20720
#
# Static dielectric constant tensor:
#      x y z
#    x 3.392640 0.000000 0.000000 
#    y 0.000000 3.540010 0.000000 
#    z 0.000000 0.000000 4.151830 
# 
# 
# High freq. dielectric constant tensor:
#      x y z
#    x 1.680660 0.000000 0.000000 
#    y 0.000000 1.702050 0.000000 
#    z 0.000000 0.000000 1.718650 
# 
# From -- ./inp_files/3429.got.cif
#   From: 2010.03.12/outbox.cif.g09.slc.cpg/sg72_2_cif.got.tgz:3429.got - 2010.04.16 14:54:00.
