data_PCOD8293716
_publ_section_title
;
Structure prediction by ZEFSAII (Michael W. Deem and Ramdas Pophale) SiO2 
 PCOD8293716
Probable space group: I B A M
;
_chemical_formula_sum "Si O2"
_cell_formula_units_Z 64
_cell_length_a 19.475964
_cell_length_b 8.914962
_cell_length_c 15.942778
_cell_angle_alpha 90.000000
_cell_angle_beta 90.000000
_cell_angle_gamma 90.000000
_cell_volume 2768.104352
_symmetry_space_group_name_H-M "I B A M"
_symmetry_group_IT_number 72
_symmetry_cell_setting 'orthorhombic'
loop_
_space_group_symop_operation_xyz
x,y,z
-x,-y,z
x,-y,1/2-z
-x,y,1/2-z
-x,-y,-z
x,y,-z
-x,y,1/2+z
x,-y,1/2+z
1/2+x,1/2+y,1/2+z
1/2-x,1/2-y,1/2+z
1/2+x,1/2-y,-z
1/2-x,1/2+y,-z
1/2-x,1/2-y,1/2-z
1/2+x,1/2+y,1/2-z
1/2-x,1/2+y,z
1/2+x,1/2-y,z
loop_
_atom_site_type_symbol
_atom_site_label
_atom_site_fract_x
_atom_site_fract_y
_atom_site_fract_z
Si Si1 0.839563 0.626441 0.099484
Si Si2 0.463755 0.294741 0.338903
Si Si3 0.906673 0.088727 0.905018
Si Si4 0.790482 0.693963 0.599286
O O1 0.913472 0.655614 0.141893
O O2 0.809274 0.469886 0.134965
O O3 0.786451 0.758599 0.125331
O O4 0.849114 0.620611 0.000000
O O5 0.500000 0.274462 0.250000
O O6 0.418782 0.446977 0.344504
O O7 0.525148 0.306345 0.406920
O O8 0.843765 0.182502 0.865935
O O9 0.890591 0.034103 0.000000
O O10 0.798154 0.691118 0.500000
#
# Coordination Sequence:
#
# PCOD8293716 Si02
#       4
#    16  16  16  16
#     4  10  19  36  60  90 122 156 196 249 302 355
#     4  11  22  36  55  83 121 162 200 240 290 355
#     4  10  19  36  60  87 114 151 198 250 303 357
#     4   9  19  34  61  94 121 149 197 253 305 357
#
# _framework density 23.120514
#
# number of rings (size 3 to 8) (size 9 to 14) (size 15 to 20)
#    0.000    2.000    0.000    6.000    0.000    5.000 
#    0.000    8.750    0.000    0.000    0.000    0.000 
#    0.000    0.000    0.000    0.000    0.000    0.000 
#
# Total GULP energy -396706.942507 kJ/mol
# GULP energy per Si atom -12397.091953 kJ/mol
# Density = 2.306789 g / cm^3
# Si number density = 23.120514 Si / 1000 Ang^3
#
#
#
# Elastic Constant Matrix: (Units=GPa)
#
#
# Indices 1 2 3 4 5 6 
#
# 1 114.7838 32.4577 29.2416 0.0000 0.0000 0.0000
# 2 32.4577 71.4326 34.4941 0.0000 0.0000 0.0000
# 3 29.2416 34.4941 59.6855 0.0000 0.0000 0.0000
# 4 0.0000 0.0000 0.0000 14.0913 0.0000 0.0000
# 5 0.0000 0.0000 0.0000 0.0000 27.7125 0.0000
# 6 0.0000 0.0000 0.0000 0.0000 0.0000 55.1662
#
#
#
# Elastic Compliance Matrix: (Units=1/GPa)
#
#
# Indices 1 2 3 4 5 6 
#
# 1 0.010443 -0.003155 -0.003293 0.000000 0.000000 0.000000
# 2 -0.003155 0.020372 -0.010228 0.000000 0.000000 0.000000
# 3 -0.003293 -0.010228 0.024279 0.000000 0.000000 0.000000
# 4 0.000000 0.000000 0.000000 0.070966 0.000000 0.000000
# 5 0.000000 0.000000 0.000000 0.000000 0.036085 0.000000
# 6 0.000000 0.000000 0.000000 0.000000 0.000000 0.018127
#
#
# Mechanical properties :
#
#
# Convention : Reuss Voigt Hill
#
# Bulk Modulus (GPa) = 45.99376 48.69877 47.34626
# Shear Modulus (GPa) = 22.63776 29.37456 26.00616
#
# Velocity S-wave (km/s) = 3.13248 3.56827 3.35746
# Velocity P-wave (km/s) = 5.74626 6.17134 5.96259
#
# Compressibility (1/GPa) = 0.02174208
#
# Stress axis : x y z
#
# Youngs Moduli (GPa) = 95.75722 49.08787 41.18836
#
# Poissons Ratio (x) = 0.15487 0.13563
# Poissons Ratio (y) = 0.30211 0.42126
# Poissons Ratio (z) = 0.31533 0.50206
#
# Static dielectric constant tensor:
#      x y z
#    x 4.440790 0.000000 0.000000 
#    y 0.000000 4.224910 0.000000 
#    z 0.000000 0.000000 3.682180 
# 
# 
# High freq. dielectric constant tensor:
#      x y z
#    x 1.929690 0.000000 0.000000 
#    y 0.000000 1.903590 0.000000 
#    z 0.000000 0.000000 1.872400 
# 
# From -- ./inp_files/22809.got.cif
#   From: 2010.03.12/outbox.cif.g09.slc.cpg/sg72_12_cif.got.tgz:22809.got - 2010.04.16 14:54:00.
