data_PCOD8293665
_publ_section_title
;
Structure prediction by ZEFSAII (Michael W. Deem and Ramdas Pophale) SiO2 
 PCOD8293665
Probable space group: I B A M
;
_chemical_formula_sum "Si O2"
_cell_formula_units_Z 80
_cell_length_a 27.911678
_cell_length_b 8.973400
_cell_length_c 16.217972
_cell_angle_alpha 90.000000
_cell_angle_beta 90.000000
_cell_angle_gamma 90.000000
_cell_volume 4061.996267
_symmetry_space_group_name_H-M "I B A M"
_symmetry_group_IT_number 72
_symmetry_cell_setting 'orthorhombic'
loop_
_space_group_symop_operation_xyz
x,y,z
-x,-y,z
x,-y,1/2-z
-x,y,1/2-z
-x,-y,-z
x,y,-z
-x,y,1/2+z
x,-y,1/2+z
1/2+x,1/2+y,1/2+z
1/2-x,1/2-y,1/2+z
1/2+x,1/2-y,-z
1/2-x,1/2+y,-z
1/2-x,1/2-y,1/2-z
1/2+x,1/2+y,1/2-z
1/2-x,1/2+y,z
1/2+x,1/2-y,z
loop_
_atom_site_type_symbol
_atom_site_label
_atom_site_fract_x
_atom_site_fract_y
_atom_site_fract_z
Si Si1 0.614618 0.905147 0.591687
Si Si2 0.448489 0.827759 0.769916
Si Si3 0.290994 0.580067 0.403638
Si Si4 0.143544 0.293285 0.680076
Si Si5 0.801429 0.244764 0.654623
O O1 0.599616 0.953895 0.500000
O O2 0.637072 0.042752 0.642470
O O3 0.568121 0.827744 0.634254
O O4 0.657019 0.784398 0.589167
O O5 0.500000 0.751405 0.750000
O O6 0.408344 0.743152 0.715440
O O7 0.451794 0.000000 0.750000
O O8 0.285303 0.543213 0.500000
O O9 0.339285 0.677262 0.389462
O O10 0.246763 0.673920 0.370571
O O11 0.293190 0.431409 0.349713
O O12 0.182769 0.293951 0.753412
#
# Coordination Sequence:
#
# PCOD8293665 Si02
#       5
#    16  16  16  16  16
#     4  10  19  35  57  83 110 142 181 227 269 311
#     4   8  16  33  55  80 110 140 176 218 268 326
#     4  12  23  36  54  80 109 141 183 231 271 318
#     4  10  21  36  56  79 107 142 180 220 268 328
#     4  11  23  38  54  75 108 148 182 219 272 328
#
# _framework density 19.694749999999999
#
# number of rings (size 3 to 8) (size 9 to 14) (size 15 to 20)
#    0.000    1.800    0.000    6.600    0.000    1.600 
#    0.000    9.000    0.000    9.600    0.000    7.000 
#    0.000    0.000    0.000    0.000    0.000    0.000 
#
# Total GULP energy -495757.835775 kJ/mol
# GULP energy per Si atom -12393.945894 kJ/mol
# Density = 1.964992 g / cm^3
# Si number density = 19.694750 Si / 1000 Ang^3
#
#
#
# Elastic Constant Matrix: (Units=GPa)
#
#
# Indices 1 2 3 4 5 6 
#
# 1 137.7511 42.4733 59.5596 0.0000 0.0000 0.0000
# 2 42.4733 74.2510 24.5564 0.0000 0.0000 0.0000
# 3 59.5596 24.5564 113.3136 0.0000 0.0000 0.0000
# 4 0.0000 0.0000 0.0000 26.2146 0.0000 0.0000
# 5 0.0000 0.0000 0.0000 0.0000 -29.0535 0.0000
# 6 0.0000 0.0000 0.0000 0.0000 0.0000 18.8161
#
#
#
# Elastic Compliance Matrix: (Units=1/GPa)
#
#
# Indices 1 2 3 4 5 6 
#
# 1 0.010665 -0.004575 -0.004614 0.000000 0.000000 0.000000
# 2 -0.004575 0.016470 -0.001165 0.000000 0.000000 0.000000
# 3 -0.004614 -0.001165 0.011503 0.000000 0.000000 0.000000
# 4 0.000000 0.000000 0.000000 0.038147 0.000000 0.000000
# 5 0.000000 0.000000 0.000000 0.000000 -0.034419 0.000000
# 6 0.000000 0.000000 0.000000 0.000000 0.000000 0.053146
#
#
# Mechanical properties :
#
#
# Convention : Reuss Voigt Hill
#
# Bulk Modulus (GPa) = 55.77130 64.27714 60.02422
# Shear Modulus (GPa) = 40.91811 16.44388 28.68100
#
# Velocity S-wave (km/s) = 4.56303 2.89266 3.82026
# Velocity P-wave (km/s) = 7.49273 6.62301 7.07125
#
# Compressibility (1/GPa) = 0.01793037
#
# Stress axis : x y z
#
# Youngs Moduli (GPa) = 93.76378 60.71712 86.93478
#
# Poissons Ratio (x) = 0.27776 0.40115
# Poissons Ratio (y) = 0.42893 0.10125
# Poissons Ratio (z) = 0.43266 0.07072
#
# Static dielectric constant tensor:
#      x y z
#    x 4.177720 0.000000 0.000000 
#    y 0.000000 3.420740 0.000000 
#    z 0.000000 0.000000 3.650740 
# 
# 
# High freq. dielectric constant tensor:
#      x y z
#    x 1.765120 0.000000 0.000000 
#    y 0.000000 1.744460 0.000000 
#    z 0.000000 0.000000 1.770810 
# 
# From -- ./inp_files/33777.got.cif
#   From: 2010.03.12/outbox.cif.g09.slc.cpg/sg72_17_cif.got.tgz:33777.got - 2010.04.16 14:54:00.
