data_PCOD8293995
_publ_section_title
;
Structure prediction by ZEFSAII (Michael W. Deem and Ramdas Pophale) SiO2 
 PCOD8293995
Probable space group: I B A M
;
_chemical_formula_sum "Si O2"
_cell_formula_units_Z 112
_cell_length_a 14.648150
_cell_length_b 21.814774
_cell_length_c 17.431583
_cell_angle_alpha 90.000000
_cell_angle_beta 90.000000
_cell_angle_gamma 90.000000
_cell_volume 5570.194047
_symmetry_space_group_name_H-M "I B A M"
_symmetry_group_IT_number 72
_symmetry_cell_setting 'orthorhombic'
loop_
_space_group_symop_operation_xyz
x,y,z
-x,-y,z
x,-y,1/2-z
-x,y,1/2-z
-x,-y,-z
x,y,-z
-x,y,1/2+z
x,-y,1/2+z
1/2+x,1/2+y,1/2+z
1/2-x,1/2-y,1/2+z
1/2+x,1/2-y,-z
1/2-x,1/2+y,-z
1/2-x,1/2-y,1/2-z
1/2+x,1/2+y,1/2-z
1/2-x,1/2+y,z
1/2+x,1/2-y,z
loop_
_atom_site_type_symbol
_atom_site_label
_atom_site_fract_x
_atom_site_fract_y
_atom_site_fract_z
Si Si1 0.691122 0.216532 0.087528
Si Si2 0.905949 0.608752 0.653703
Si Si3 0.109482 0.258707 0.589075
Si Si4 0.718787 0.007637 0.588901
Si Si5 0.886537 0.399343 0.667957
Si Si6 0.556661 0.679081 0.410417
Si Si7 0.580923 0.456445 0.908526
O O1 0.798664 0.220334 0.100579
O O2 0.649049 0.167079 0.144102
O O3 0.648626 0.283001 0.106527
O O4 0.667763 0.197736 0.000000
O O5 0.887333 0.679596 0.637595
O O6 0.841648 0.568369 0.599572
O O7 0.882467 0.594589 0.741162
O O8 0.011002 0.591626 0.636421
O O9 0.092986 0.275655 0.500000
O O10 0.029516 0.216106 0.623507
O O11 0.720266 0.989894 0.500000
O O12 0.821327 0.018701 0.619896
O O13 0.678244 0.951159 0.634867
O O14 0.539387 0.670673 0.500000
O O15 0.565497 0.611617 0.373404
O O16 0.500000 0.500000 0.877654
O O17 0.580692 0.453776 0.000000
#
# Coordination Sequence:
#
# PCOD8293995 Si02
#       7
#    16  16  16  16  16  16  16
#     4  10  20  35  58  89 120 150 199 251 297 354
#     4  11  23  41  59  85 122 161 200 245 304 367
#     4  10  20  34  60  89 118 155 200 249 301 358
#     4  11  23  38  62  90 119 157 203 250 302 357
#     4  11  24  39  59  86 121 160 201 249 303 363
#     4   9  17  32  54  84 120 153 184 239 299 346
#     4   9  19  35  58  89 122 151 191 246 303 355
#
# _framework density 20.107019000000001
#
# number of rings (size 3 to 8) (size 9 to 14) (size 15 to 20)
#    0.000    1.857    1.429    2.571    2.000    6.286 
#    0.000    0.000    0.000    1.714    0.000    0.000 
#    0.000    0.000    0.000    0.000    0.000    0.000 
#
# Total GULP energy -694584.926712 kJ/mol
# GULP energy per Si atom -12403.302263 kJ/mol
# Density = 2.006125 g / cm^3
# Si number density = 20.107019 Si / 1000 Ang^3
#
#
#
# Elastic Constant Matrix: (Units=GPa)
#
#
# Indices 1 2 3 4 5 6 
#
# 1 134.8330 51.1945 30.1779 0.0000 0.0000 0.0000
# 2 51.1945 134.4907 25.5291 0.0002 0.0000 0.0000
# 3 30.1779 25.5291 36.7585 0.0005 0.0001 0.0000
# 4 0.0000 0.0002 0.0005 18.5928 0.0000 0.0000
# 5 0.0000 0.0000 0.0001 0.0000 18.7804 0.0000
# 6 0.0000 0.0000 0.0000 0.0000 0.0000 36.1816
#
#
#
# Elastic Compliance Matrix: (Units=1/GPa)
#
#
# Indices 1 2 3 4 5 6 
#
# 1 0.009782 -0.002533 -0.006272 0.000000 0.000000 0.000000
# 2 -0.002533 0.009220 -0.004324 0.000000 0.000000 0.000000
# 3 -0.006272 -0.004324 0.035357 -0.000001 0.000000 0.000000
# 4 0.000000 0.000000 -0.000001 0.053784 0.000000 0.000000
# 5 0.000000 0.000000 0.000000 0.000000 0.053247 0.000000
# 6 0.000000 0.000000 0.000000 0.000000 0.000000 0.027638
#
#
# Mechanical properties :
#
#
# Convention : Reuss Voigt Hill
#
# Bulk Modulus (GPa) = 35.58523 57.76501 46.67512
# Shear Modulus (GPa) = 22.25650 27.98968 25.12309
#
# Velocity S-wave (km/s) = 3.33062 3.73505 3.53862
# Velocity P-wave (km/s) = 5.70325 6.88418 6.32135
#
# Compressibility (1/GPa) = 0.02810155
#
# Stress axis : x y z
#
# Youngs Moduli (GPa) = 102.22788 108.45403 28.28328
#
# Poissons Ratio (x) = 0.27473 0.17738
# Poissons Ratio (y) = 0.25895 0.12230
# Poissons Ratio (z) = 0.64113 0.46896
#
# Static dielectric constant tensor:
#      x y z
#    x 3.888510 0.000000 0.000000 
#    y 0.000000 3.766950 0.000000 
#    z 0.000000 0.000000 3.353590 
# 
# 
# High freq. dielectric constant tensor:
#      x y z
#    x 1.801770 0.000000 0.000000 
#    y 0.000000 1.795290 0.000000 
#    z 0.000000 0.000000 1.746990 
# 
# From -- ./inp_files/22102.got.cif
#   From: 2010.03.12/outbox.cif.g09.slc.cpg/sg72_12_cif.got.tgz:22102.got - 2010.04.16 14:54:00.
