data_PCOD8293190
_publ_section_title
;
Structure prediction by ZEFSAII (Michael W. Deem and Ramdas Pophale) SiO2 
 PCOD8293190
Probable space group: I B A M
;
_chemical_formula_sum "Si O2"
_cell_formula_units_Z 116
_cell_length_a 9.333671
_cell_length_b 25.860898
_cell_length_c 23.809004
_cell_angle_alpha 90.000000
_cell_angle_beta 90.000000
_cell_angle_gamma 90.000000
_cell_volume 5746.948666
_symmetry_space_group_name_H-M "I B A M"
_symmetry_group_IT_number 72
_symmetry_cell_setting 'orthorhombic'
loop_
_space_group_symop_operation_xyz
x,y,z
-x,-y,z
x,-y,1/2-z
-x,y,1/2-z
-x,-y,-z
x,y,-z
-x,y,1/2+z
x,-y,1/2+z
1/2+x,1/2+y,1/2+z
1/2-x,1/2-y,1/2+z
1/2+x,1/2-y,-z
1/2-x,1/2+y,-z
1/2-x,1/2-y,1/2-z
1/2+x,1/2+y,1/2-z
1/2-x,1/2+y,z
1/2+x,1/2-y,z
loop_
_atom_site_type_symbol
_atom_site_label
_atom_site_fract_x
_atom_site_fract_y
_atom_site_fract_z
Si Si1 0.310282 0.281593 0.436838
Si Si2 0.465897 0.619506 0.315392
Si Si3 0.990038 0.674947 0.688724
Si Si4 0.081813 0.224963 0.375508
Si Si5 0.167898 0.579096 0.668129
Si Si6 0.241217 0.381320 0.624934
Si Si7 0.991763 0.440472 0.937738
Si Si8 0.500000 0.000000 0.250000
O O1 0.272857 0.267094 0.500000
O O2 0.241489 0.237256 0.396845
O O3 0.480445 0.286524 0.428714
O O4 0.244046 0.336985 0.422002
O O5 0.500000 0.619576 0.250000
O O6 0.417721 0.677338 0.332618
O O7 0.340674 0.577689 0.327556
O O8 0.604035 0.601443 0.351813
O O9 0.993911 0.724508 0.649691
O O10 0.848423 0.639887 0.678286
O O11 0.000000 0.699047 0.750000
O O12 0.125785 0.637327 0.684155
O O13 0.123827 0.573634 0.602822
O O14 0.098123 0.535856 0.709472
O O15 0.157499 0.428100 0.594683
O O16 0.000000 0.500000 0.949357
O O17 0.002701 0.413294 0.000000
#
# Coordination Sequence:
#
# PCOD8293190 Si02
#       8
#    16  16  16  16  16  16  16   4
#     4  10  19  34  53  76 115 159 200 248 296 350
#     4  11  23  38  59  90 133 163 198 253 319 382
#     4  10  18  34  60  82 116 156 202 241 289 351
#     4  10  21  35  53  87 116 159 204 244 293 365
#     4  11  23  40  66  94 121 161 210 254 309 370
#     4   9  21  36  55  84 118 154 197 244 314 368
#     4  10  21  41  67  88 113 155 209 261 306 369
#     4  12  24  44  68  92 124 156 210 266 312 370
#
# _framework density 20.184625
#
# number of rings (size 3 to 8) (size 9 to 14) (size 15 to 20)
#    0.000    1.793    1.379    2.897    1.931    0.000 
#    0.000   16.897    0.000    1.655    0.000    0.000 
#    0.000    0.000    0.000    0.000    0.000    0.000 
#
# Total GULP energy -718731.999117 kJ/mol
# GULP energy per Si atom -12391.931019 kJ/mol
# Density = 2.013868 g / cm^3
# Si number density = 20.184625 Si / 1000 Ang^3
#
#
#
# Elastic Constant Matrix: (Units=GPa)
#
#
# Indices 1 2 3 4 5 6 
#
# 1 137.7827 36.0893 56.8085 0.0000 0.0000 0.0000
# 2 36.0893 71.9582 34.9683 0.0000 0.0000 0.0000
# 3 56.8085 34.9683 147.2500 0.0000 0.0000 0.0000
# 4 0.0000 0.0000 0.0000 25.1999 0.0000 0.0000
# 5 0.0000 0.0000 0.0000 0.0000 19.5799 0.0000
# 6 0.0000 0.0000 0.0000 0.0000 0.0000 21.5555
#
#
#
# Elastic Compliance Matrix: (Units=1/GPa)
#
#
# Indices 1 2 3 4 5 6 
#
# 1 0.009273 -0.003292 -0.002796 0.000000 0.000000 0.000000
# 2 -0.003292 0.016879 -0.002738 0.000000 0.000000 0.000000
# 3 -0.002796 -0.002738 0.008520 0.000000 0.000000 0.000000
# 4 0.000000 0.000000 0.000000 0.039683 0.000000 0.000000
# 5 0.000000 0.000000 0.000000 0.000000 0.051073 0.000000
# 6 0.000000 0.000000 0.000000 0.000000 0.000000 0.046392
#
#
# Mechanical properties :
#
#
# Convention : Reuss Voigt Hill
#
# Bulk Modulus (GPa) = 58.75566 68.08035 63.41801
# Shear Modulus (GPa) = 25.62218 28.54206 27.08212
#
# Velocity S-wave (km/s) = 3.56672 3.76446 3.66692
# Velocity P-wave (km/s) = 6.79222 7.25927 7.02962
#
# Compressibility (1/GPa) = 0.01701964
#
# Stress axis : x y z
#
# Youngs Moduli (GPa) = 107.84313 59.24645 117.37127
#
# Poissons Ratio (x) = 0.19504 0.32812
# Poissons Ratio (y) = 0.35502 0.32139
# Poissons Ratio (z) = 0.30149 0.16223
#
# Static dielectric constant tensor:
#      x y z
#    x 3.602450 0.000000 0.000000 
#    y 0.000000 3.524950 0.000000 
#    z 0.000000 0.000000 3.777860 
# 
# 
# High freq. dielectric constant tensor:
#      x y z
#    x 1.787600 0.000000 0.000000 
#    y 0.000000 1.773700 0.000000 
#    z 0.000000 0.000000 1.793130 
# 
# From -- ./inp_files/42718.got.cif
#   From: 2010.03.12/outbox.cif.g09.slc.cpg/sg72_22_cif.got.tgz:42718.got - 2010.04.16 14:54:00.
