data_PCOD8293091
_publ_section_title
;
Structure prediction by ZEFSAII (Michael W. Deem and Ramdas Pophale) SiO2 
 PCOD8293091
Probable space group: I B A M
;
_chemical_formula_sum "Si O2"
_cell_formula_units_Z 112
_cell_length_a 13.414619
_cell_length_b 26.881796
_cell_length_c 15.307195
_cell_angle_alpha 90.000000
_cell_angle_beta 90.000000
_cell_angle_gamma 90.000000
_cell_volume 5519.913068
_symmetry_space_group_name_H-M "I B A M"
_symmetry_group_IT_number 72
_symmetry_cell_setting 'orthorhombic'
loop_
_space_group_symop_operation_xyz
x,y,z
-x,-y,z
x,-y,1/2-z
-x,y,1/2-z
-x,-y,-z
x,y,-z
-x,y,1/2+z
x,-y,1/2+z
1/2+x,1/2+y,1/2+z
1/2-x,1/2-y,1/2+z
1/2+x,1/2-y,-z
1/2-x,1/2+y,-z
1/2-x,1/2-y,1/2-z
1/2+x,1/2+y,1/2-z
1/2-x,1/2+y,z
1/2+x,1/2-y,z
loop_
_atom_site_type_symbol
_atom_site_label
_atom_site_fract_x
_atom_site_fract_y
_atom_site_fract_z
Si Si1 0.761085 0.446985 0.844643
Si Si2 0.860616 0.606753 0.184420
Si Si3 0.233864 0.192263 0.738413
Si Si4 0.208813 0.050713 0.597001
Si Si5 0.973731 0.554920 0.402892
Si Si6 0.090517 0.143590 0.398265
Si Si7 0.359601 0.358075 0.600017
O O1 0.803568 0.429332 0.752070
O O2 0.721473 0.503474 0.839360
O O3 0.668829 0.415086 0.880877
O O4 0.855143 0.439830 0.908994
O O5 0.837183 0.664239 0.208795
O O6 0.804968 0.587869 0.096573
O O7 0.978017 0.595311 0.165892
O O8 0.250000 0.250000 0.750000
O O9 0.149950 0.180915 0.665681
O O10 0.204866 0.175480 0.835359
O O11 0.194061 0.029282 0.500000
O O12 0.115969 0.085969 0.625058
O O13 0.016797 0.563174 0.500000
O O14 0.000000 0.500000 0.367406
O O15 0.116782 0.154933 0.500000
O O16 0.974827 0.151115 0.379355
O O17 0.334909 0.343617 0.500000
#
# Coordination Sequence:
#
# PCOD8293091 Si02
#       7
#    16  16  16  16  16  16  16
#     4  11  21  33  53  82 118 159 198 237 283 349
#     4  10  21  35  53  79 112 152 197 244 296 356
#     4  10  22  41  64  87 112 149 200 261 313 360
#     4  10  18  31  52  82 115 151 194 231 274 342
#     4  11  21  33  53  80 116 161 199 241 295 357
#     4   9  20  38  62  89 119 154 192 240 297 360
#     4  10  21  39  60  86 121 156 191 238 300 361
#
# _framework density 20.290175999999999
#
# number of rings (size 3 to 8) (size 9 to 14) (size 15 to 20)
#    0.000    1.857    1.429    3.000    0.000    2.286 
#    0.000    7.857    0.000    8.571    0.000    0.000 
#    0.000    0.000    0.000    0.000    0.000    0.000 
#
# Total GULP energy -693900.122260 kJ/mol
# GULP energy per Si atom -12391.073612 kJ/mol
# Density = 2.024399 g / cm^3
# Si number density = 20.290176 Si / 1000 Ang^3
#
#
#
# Elastic Constant Matrix: (Units=GPa)
#
#
# Indices 1 2 3 4 5 6 
#
# 1 67.9868 44.0301 38.3154 0.0000 0.0000 0.0000
# 2 44.0301 157.5296 48.8284 -0.0001 0.0000 0.0000
# 3 38.3154 48.8284 91.6798 -0.0003 0.0002 0.0001
# 4 0.0000 -0.0001 -0.0003 18.6227 0.0001 0.0000
# 5 0.0000 0.0000 0.0002 0.0001 28.1855 0.0000
# 6 0.0000 0.0000 0.0001 0.0000 0.0000 18.8303
#
#
#
# Elastic Compliance Matrix: (Units=1/GPa)
#
#
# Indices 1 2 3 4 5 6 
#
# 1 0.020951 -0.003763 -0.006752 0.000000 0.000000 0.000000
# 2 -0.003763 0.008279 -0.002837 0.000000 0.000000 0.000000
# 3 -0.006752 -0.002837 0.015240 0.000000 0.000000 0.000000
# 4 0.000000 0.000000 0.000000 0.053698 0.000000 0.000000
# 5 0.000000 0.000000 0.000000 0.000000 0.035479 0.000000
# 6 0.000000 0.000000 0.000000 0.000000 0.000000 0.053106
#
#
# Mechanical properties :
#
#
# Convention : Reuss Voigt Hill
#
# Bulk Modulus (GPa) = 56.28410 64.39377 60.33894
# Shear Modulus (GPa) = 22.79166 25.52919 24.16042
#
# Velocity S-wave (km/s) = 3.35518 3.55097 3.45446
# Velocity P-wave (km/s) = 6.54289 6.97265 6.76119
#
# Compressibility (1/GPa) = 0.01776701
#
# Stress axis : x y z
#
# Youngs Moduli (GPa) = 47.73068 120.78626 65.61646
#
# Poissons Ratio (x) = 0.45453 0.44302
# Poissons Ratio (y) = 0.17961 0.18614
# Poissons Ratio (z) = 0.32226 0.34264
#
# Static dielectric constant tensor:
#      x y z
#    x 3.725880 0.000000 0.000000 
#    y 0.000000 3.387570 0.000000 
#    z 0.000000 0.000000 3.873260 
# 
# 
# High freq. dielectric constant tensor:
#      x y z
#    x 1.784550 0.000000 0.000000 
#    y 0.000000 1.755790 0.000000 
#    z 0.000000 0.000000 1.814380 
# 
# From -- ./inp_files/22301.got.cif
#   From: 2010.03.12/outbox.cif.g09.slc.cpg/sg72_12_cif.got.tgz:22301.got - 2010.04.16 14:54:00.
