data_PCOD8293343
_publ_section_title
;
Structure prediction by ZEFSAII (Michael W. Deem and Ramdas Pophale) SiO2 
 PCOD8293343
Probable space group: I B A M
;
_chemical_formula_sum "Si O2"
_cell_formula_units_Z 88
_cell_length_a 14.691854
_cell_length_b 23.381508
_cell_length_c 14.328245
_cell_angle_alpha 90.000000
_cell_angle_beta 90.000000
_cell_angle_gamma 90.000000
_cell_volume 4922.005794
_symmetry_space_group_name_H-M "I B A M"
_symmetry_group_IT_number 72
_symmetry_cell_setting 'orthorhombic'
loop_
_space_group_symop_operation_xyz
x,y,z
-x,-y,z
x,-y,1/2-z
-x,y,1/2-z
-x,-y,-z
x,y,-z
-x,y,1/2+z
x,-y,1/2+z
1/2+x,1/2+y,1/2+z
1/2-x,1/2-y,1/2+z
1/2+x,1/2-y,-z
1/2-x,1/2+y,-z
1/2-x,1/2-y,1/2-z
1/2+x,1/2+y,1/2-z
1/2-x,1/2+y,z
1/2+x,1/2-y,z
loop_
_atom_site_type_symbol
_atom_site_label
_atom_site_fract_x
_atom_site_fract_y
_atom_site_fract_z
Si Si1 0.206755 0.841326 0.500000
Si Si2 0.499356 0.678713 0.000000
Si Si3 0.505526 0.101010 0.359438
Si Si4 0.228387 0.743754 0.358149
Si Si5 0.693060 0.659798 0.000000
Si Si6 0.647848 0.070309 0.000000
Si Si7 0.522940 0.771626 0.352701
Si Si8 0.650053 0.059846 0.500000
O O1 0.233575 0.805703 0.407568
O O2 0.260114 0.900901 0.500000
O O3 0.097347 0.854212 0.500000
O O4 0.513344 0.720001 0.912755
O O5 0.587806 0.636948 0.000000
O O6 0.500000 0.085552 0.250000
O O7 0.411275 0.082682 0.407594
O O8 0.525760 0.168310 0.375543
O O9 0.589879 0.069020 0.407096
O O10 0.250000 0.750000 0.250000
O O11 0.294629 0.698836 0.407785
O O12 0.128814 0.717501 0.371214
O O13 0.760174 0.606577 0.000000
O O14 0.682489 0.005291 0.000000
O O15 0.500000 0.751311 0.250000
#
# Coordination Sequence:
#
# PCOD8293343 Si02
#       8
#     8   8  16  16   8   8  16   8
#     4   9  23  36  52  80 105 139 185 223 266 317
#     4  10  20  36  51  74 111 140 172 220 272 314
#     4  10  21  35  56  82 113 145 178 216 266 327
#     4  10  20  33  54  80 110 138 175 217 269 329
#     4  11  21  34  56  76 107 145 177 223 270 315
#     4  11  22  40  51  81 111 143 192 221 266 318
#     4  10  19  31  51  82 111 136 171 211 259 332
#     4  11  24  36  57  75 111 149 182 233 264 312
#
# _framework density 17.878889999999998
#
# number of rings (size 3 to 8) (size 9 to 14) (size 15 to 20)
#    0.000    1.818    1.818    3.818   10.182    1.455 
#    0.000    0.455    0.000    0.000    0.000    0.000 
#    0.000    7.273    0.000    0.000    0.000    0.000 
#
# Total GULP energy -545473.926143 kJ/mol
# GULP energy per Si atom -12397.134685 kJ/mol
# Density = 1.783820 g / cm^3
# Si number density = 17.878890 Si / 1000 Ang^3
#
#
#
# Elastic Constant Matrix: (Units=GPa)
#
#
# Indices 1 2 3 4 5 6 
#
# 1 132.4734 57.2823 37.5958 0.0000 0.0000 0.0000
# 2 57.2823 99.4977 43.3770 -0.0008 0.0000 0.0000
# 3 37.5958 43.3770 133.2543 -0.0011 0.0000 0.0001
# 4 0.0000 -0.0008 -0.0011 39.5057 0.0000 0.0001
# 5 0.0000 0.0000 0.0000 0.0000 18.3708 0.0000
# 6 0.0000 0.0000 0.0001 0.0001 0.0000 25.2541
#
#
#
# Elastic Compliance Matrix: (Units=1/GPa)
#
#
# Indices 1 2 3 4 5 6 
#
# 1 0.010194 -0.005378 -0.001125 0.000000 0.000000 0.000000
# 2 -0.005378 0.014550 -0.003219 0.000000 0.000000 0.000000
# 3 -0.001125 -0.003219 0.008870 0.000000 0.000000 0.000000
# 4 0.000000 0.000000 0.000000 0.025313 0.000000 0.000000
# 5 0.000000 0.000000 0.000000 0.000000 0.054434 0.000000
# 6 0.000000 0.000000 0.000000 0.000000 0.000000 0.039598
#
#
# Mechanical properties :
#
#
# Convention : Reuss Voigt Hill
#
# Bulk Modulus (GPa) = 70.57793 71.30396 70.94094
# Shear Modulus (GPa) = 28.22858 31.75746 29.99302
#
# Velocity S-wave (km/s) = 3.97782 4.21914 4.10025
# Velocity P-wave (km/s) = 7.78837 7.98142 7.88548
#
# Compressibility (1/GPa) = 0.01416874
#
# Stress axis : x y z
#
# Youngs Moduli (GPa) = 98.10163 68.72847 112.74218
#
# Poissons Ratio (x) = 0.36962 0.12687
# Poissons Ratio (y) = 0.52759 0.36292
# Poissons Ratio (z) = 0.11040 0.22124
#
# Static dielectric constant tensor:
#      x y z
#    x 3.348240 0.000000 0.000000 
#    y 0.000000 3.033520 0.000000 
#    z 0.000000 0.000000 3.360470 
# 
# 
# High freq. dielectric constant tensor:
#      x y z
#    x 1.691900 0.000000 0.000000 
#    y 0.000000 1.658450 0.000000 
#    z 0.000000 0.000000 1.704600 
# 
# From -- ./inp_files/21754.got.cif
#   From: 2010.03.12/outbox.cif.g09.slc.cpg/sg72_11_cif.got.tgz:21754.got - 2010.04.16 14:54:00.
