data_PCOD8293787
_publ_section_title
;
Structure prediction by ZEFSAII (Michael W. Deem and Ramdas Pophale) SiO2 
 PCOD8293787
Probable space group: I B A M
;
_chemical_formula_sum "Si O2"
_cell_formula_units_Z 80
_cell_length_a 11.671869
_cell_length_b 30.678457
_cell_length_c 10.416854
_cell_angle_alpha 90.000000
_cell_angle_beta 90.000000
_cell_angle_gamma 90.000000
_cell_volume 3730.014280
_symmetry_space_group_name_H-M "I B A M"
_symmetry_group_IT_number 72
_symmetry_cell_setting 'orthorhombic'
loop_
_space_group_symop_operation_xyz
x,y,z
-x,-y,z
x,-y,1/2-z
-x,y,1/2-z
-x,-y,-z
x,y,-z
-x,y,1/2+z
x,-y,1/2+z
1/2+x,1/2+y,1/2+z
1/2-x,1/2-y,1/2+z
1/2+x,1/2-y,-z
1/2-x,1/2+y,-z
1/2-x,1/2-y,1/2-z
1/2+x,1/2+y,1/2-z
1/2-x,1/2+y,z
1/2+x,1/2-y,z
loop_
_atom_site_type_symbol
_atom_site_label
_atom_site_fract_x
_atom_site_fract_y
_atom_site_fract_z
Si Si1 0.500000 0.899734 0.750000
Si Si2 0.226279 0.692893 0.500000
Si Si3 0.961078 0.839681 0.500000
Si Si4 0.885027 0.907648 0.296281
Si Si5 0.704754 0.154529 0.718798
Si Si6 0.299824 0.708239 0.000000
Si Si7 0.323092 0.035610 0.360419
O O1 0.412663 0.868462 0.672123
O O2 0.575768 0.929306 0.654861
O O3 0.363904 0.697909 0.500000
O O4 0.190152 0.666950 0.370233
O O5 0.172275 0.740739 0.500000
O O6 0.943535 0.870181 0.379285
O O7 0.081083 0.816313 0.500000
O O8 0.805907 0.881170 0.194792
O O9 0.802112 0.942093 0.364881
O O10 0.000000 0.933328 0.250000
O O11 0.728494 0.196015 0.628319
O O12 0.339657 0.013216 0.500000
O O13 0.331016 0.000000 0.250000
#
# Coordination Sequence:
#
# PCOD8293787 Si02
#       7
#     8   8   8  16  16   8  16
#     4  10  25  42  68  90 132 176 220 268 312 398
#     4  10  24  40  58  91 137 174 206 266 342 382
#     4  10  20  38  64  87 127 170 208 265 322 378
#     4  10  19  41  66  91 126 169 213 261 321 391
#     4  10  23  39  63  93 125 172 221 260 323 383
#     4  12  22  38  64 101 124 164 228 275 322 381
#     4  11  25  46  68  98 134 173 212 269 340 395
#
# _framework density 21.447638999999999
#
# number of rings (size 3 to 8) (size 9 to 14) (size 15 to 20)
#    0.000    1.600    3.000    0.900    5.600    3.600 
#    7.200    1.000    0.000    0.000    0.000    0.000 
#    0.000    0.000    0.000    0.000    0.000    0.000 
#
# Total GULP energy -495547.629839 kJ/mol
# GULP energy per Si atom -12388.690746 kJ/mol
# Density = 2.139882 g / cm^3
# Si number density = 21.447639 Si / 1000 Ang^3
#
#
#
# Elastic Constant Matrix: (Units=GPa)
#
#
# Indices 1 2 3 4 5 6 
#
# 1 167.6067 50.8780 41.4448 0.0001 -0.0001 -0.0001
# 2 50.8780 96.3253 36.8953 -0.0001 0.0003 -0.0001
# 3 41.4448 36.8953 114.7506 -0.0013 0.0004 -0.0020
# 4 0.0001 -0.0001 -0.0013 28.3173 -0.0008 -0.0006
# 5 -0.0001 0.0003 0.0004 -0.0008 18.8040 0.0006
# 6 -0.0001 -0.0001 -0.0020 -0.0006 0.0006 26.6725
#
#
#
# Elastic Compliance Matrix: (Units=1/GPa)
#
#
# Indices 1 2 3 4 5 6 
#
# 1 0.007356 -0.003271 -0.001605 0.000000 0.000000 0.000000
# 2 -0.003271 0.013294 -0.003093 0.000000 0.000000 0.000000
# 3 -0.001605 -0.003093 0.010289 0.000000 0.000000 0.000001
# 4 0.000000 0.000000 0.000000 0.035314 0.000002 0.000001
# 5 0.000000 0.000000 0.000000 0.000002 0.053180 -0.000001
# 6 0.000000 0.000000 0.000001 0.000001 -0.000001 0.037492
#
#
# Mechanical properties :
#
#
# Convention : Reuss Voigt Hill
#
# Bulk Modulus (GPa) = 66.66260 70.79098 68.72679
# Shear Modulus (GPa) = 28.11159 31.38972 29.75065
#
# Velocity S-wave (km/s) = 3.62430 3.82979 3.72846
# Velocity P-wave (km/s) = 6.97589 7.25496 7.11679
#
# Compressibility (1/GPa) = 0.01500092
#
# Stress axis : x y z
#
# Youngs Moduli (GPa) = 135.94192 75.22374 97.19291
#
# Poissons Ratio (x) = 0.24602 0.15602
# Poissons Ratio (y) = 0.44460 0.30062
# Poissons Ratio (z) = 0.21822 0.23267
#
# Static dielectric constant tensor:
#      x y z
#    x 4.312520 0.000000 0.000000 
#    y 0.000000 3.656540 0.000000 
#    z 0.000000 0.000000 3.739640 
# 
# 
# High freq. dielectric constant tensor:
#      x y z
#    x 1.862000 0.000000 0.000000 
#    y 0.000000 1.823710 0.000000 
#    z 0.000000 0.000000 1.827260 
# 
# From -- ./inp_files/11709.got.cif
#   From: 2010.03.12/outbox.cif.g09.slc.cpg/sg72_6_cif.got.tgz:11709.got - 2010.04.16 14:54:00.
