data_PCOD8293255
_publ_section_title
;
Structure prediction by ZEFSAII (Michael W. Deem and Ramdas Pophale) SiO2 
 PCOD8293255
Probable space group: I B A M
;
_chemical_formula_sum "Si O2"
_cell_formula_units_Z 120
_cell_length_a 25.988893
_cell_length_b 28.730478
_cell_length_c 9.096537
_cell_angle_alpha 90.000000
_cell_angle_beta 90.000000
_cell_angle_gamma 90.000000
_cell_volume 6792.141469
_symmetry_space_group_name_H-M "I B A M"
_symmetry_group_IT_number 72
_symmetry_cell_setting 'orthorhombic'
loop_
_space_group_symop_operation_xyz
x,y,z
-x,-y,z
x,-y,1/2-z
-x,y,1/2-z
-x,-y,-z
x,y,-z
-x,y,1/2+z
x,-y,1/2+z
1/2+x,1/2+y,1/2+z
1/2-x,1/2-y,1/2+z
1/2+x,1/2-y,-z
1/2-x,1/2+y,-z
1/2-x,1/2-y,1/2-z
1/2+x,1/2+y,1/2-z
1/2-x,1/2+y,z
1/2+x,1/2-y,z
loop_
_atom_site_type_symbol
_atom_site_label
_atom_site_fract_x
_atom_site_fract_y
_atom_site_fract_z
Si Si1 0.946134 0.874488 0.327691
Si Si2 0.500000 0.119569 0.250000
Si Si3 0.338303 0.095639 0.176855
Si Si4 0.368562 0.452853 0.171299
Si Si5 0.594784 0.822288 0.835726
Si Si6 0.553821 0.271070 0.673138
Si Si7 0.574316 0.043517 0.835691
Si Si8 0.249528 0.048243 0.673451
O O1 0.955784 0.880073 0.500000
O O2 0.903852 0.910830 0.269575
O O3 0.924478 0.822610 0.291393
O O4 0.000000 0.884581 0.250000
O O5 0.460841 0.152283 0.160728
O O6 0.533910 0.085864 0.146802
O O7 0.361204 0.145173 0.236380
O O8 0.375740 0.055918 0.238688
O O9 0.282395 0.089134 0.249944
O O10 0.335801 0.092801 0.000000
O O11 0.385973 0.500000 0.250000
O O12 0.309760 0.439912 0.206799
O O13 0.376800 0.461072 0.000000
O O14 0.590675 0.770433 0.763896
O O15 0.613421 0.814742 0.000000
O O16 0.500000 0.264702 0.750000
O O17 0.545432 0.264047 0.500000
O O18 0.548622 0.000000 0.750000
O O19 0.591299 0.029217 0.000000
O O20 0.260797 0.045285 0.500000
O O21 0.265153 0.000000 0.750000
#
# Coordination Sequence:
#
# PCOD8293255 Si02
#       8
#    16   8  16  16  16  16  16  16
#     4   9  18  32  51  77 107 135 163 192 229 277
#     4  10  19  30  44  62  88 116 155 196 244 290
#     4  10  20  33  48  67  92 120 157 203 248 293
#     4   9  19  34  52  76 103 133 164 195 232 278
#     4   9  17  29  45  66  91 120 155 196 243 289
#     4   9  16  29  49  71  96 127 161 198 237 281
#     4  11  22  33  45  61  86 121 158 198 245 298
#     4  10  19  33  52  71  93 122 161 203 244 288
#
# _framework density 17.667477000000002
#
# number of rings (size 3 to 8) (size 9 to 14) (size 15 to 20)
#    0.000    2.400    0.667    2.200    0.000    3.467 
#    0.000    2.000    0.000    0.800    0.000    0.000 
#    0.000    0.000    0.000    0.000    0.000    0.933 
#
# Total GULP energy -743524.399810 kJ/mol
# GULP energy per Si atom -12392.073330 kJ/mol
# Density = 1.762727 g / cm^3
# Si number density = 17.667477 Si / 1000 Ang^3
#
#
#
# Elastic Constant Matrix: (Units=GPa)
#
#
# Indices 1 2 3 4 5 6 
#
# 1 92.8133 77.8487 32.4257 0.0000 0.0000 0.0000
# 2 77.8487 152.8699 41.6922 0.0000 0.0000 0.0000
# 3 32.4257 41.6922 69.2150 0.0000 0.0000 0.0000
# 4 0.0000 0.0000 0.0000 19.4334 0.0000 0.0000
# 5 0.0000 0.0000 0.0000 0.0000 22.3435 0.0000
# 6 0.0000 0.0000 0.0000 0.0000 0.0000 27.4007
#
#
#
# Elastic Compliance Matrix: (Units=1/GPa)
#
#
# Indices 1 2 3 4 5 6 
#
# 1 0.019607 -0.008950 -0.003794 0.000000 0.000000 0.000000
# 2 -0.008950 0.011913 -0.002983 0.000000 0.000000 0.000000
# 3 -0.003794 -0.002983 0.018022 0.000000 0.000000 0.000000
# 4 0.000000 0.000000 0.000000 0.051458 0.000000 0.000000
# 5 0.000000 0.000000 0.000000 0.000000 0.044756 0.000000
# 6 0.000000 0.000000 0.000000 0.000000 0.000000 0.036495
#
#
# Mechanical properties :
#
#
# Convention : Reuss Voigt Hill
#
# Bulk Modulus (GPa) = 55.28718 68.75906 62.02312
# Shear Modulus (GPa) = 22.75477 24.69760 23.72619
#
# Velocity S-wave (km/s) = 3.59269 3.74292 3.66858
# Velocity P-wave (km/s) = 6.96929 7.59488 7.28880
#
# Compressibility (1/GPa) = 0.01808738
#
# Stress axis : x y z
#
# Youngs Moduli (GPa) = 51.00274 83.94353 55.48756
#
# Poissons Ratio (x) = 0.75129 0.21054
# Poissons Ratio (y) = 0.45647 0.16552
# Poissons Ratio (z) = 0.19352 0.25040
#
# Static dielectric constant tensor:
#      x y z
#    x 3.178970 0.000000 0.000000 
#    y 0.000000 3.618770 0.000000 
#    z 0.000000 0.000000 3.174030 
# 
# 
# High freq. dielectric constant tensor:
#      x y z
#    x 1.659000 0.000000 0.000000 
#    y 0.000000 1.683230 0.000000 
#    z 0.000000 0.000000 1.676020 
# 
# From -- ./inp_files/8566.got.cif
#   From: 2010.03.12/outbox.cif.g09.slc.cpg/sg72_5_cif.got.tgz:8566.got - 2010.04.16 14:54:00.
