data_PCOD8293462
_publ_section_title
;
Structure prediction by ZEFSAII (Michael W. Deem and Ramdas Pophale) SiO2 
 PCOD8293462
Probable space group: I B A M
;
_chemical_formula_sum "Si O2"
_cell_formula_units_Z 128
_cell_length_a 16.776500
_cell_length_b 23.298840
_cell_length_c 18.963545
_cell_angle_alpha 90.000000
_cell_angle_beta 90.000000
_cell_angle_gamma 90.000000
_cell_volume 7412.337521
_symmetry_space_group_name_H-M "I B A M"
_symmetry_group_IT_number 72
_symmetry_cell_setting 'orthorhombic'
loop_
_space_group_symop_operation_xyz
x,y,z
-x,-y,z
x,-y,1/2-z
-x,y,1/2-z
-x,-y,-z
x,y,-z
-x,y,1/2+z
x,-y,1/2+z
1/2+x,1/2+y,1/2+z
1/2-x,1/2-y,1/2+z
1/2+x,1/2-y,-z
1/2-x,1/2+y,-z
1/2-x,1/2-y,1/2-z
1/2+x,1/2+y,1/2-z
1/2-x,1/2+y,z
1/2+x,1/2-y,z
loop_
_atom_site_type_symbol
_atom_site_label
_atom_site_fract_x
_atom_site_fract_y
_atom_site_fract_z
Si Si1 0.883638 0.069230 0.679372
Si Si2 0.533859 0.732805 0.080993
Si Si3 0.720601 0.851945 0.323555
Si Si4 0.977888 0.100500 0.917782
Si Si5 0.158491 0.054002 0.666837
Si Si6 0.688162 0.689453 0.690185
Si Si7 0.784009 0.760559 0.417511
Si Si8 0.432897 0.789447 0.192832
O O1 0.896633 0.066914 0.764026
O O2 0.840908 0.128409 0.661001
O O3 0.964085 0.064457 0.633412
O O4 0.829244 0.014270 0.657391
O O5 0.510064 0.667501 0.098502
O O6 0.624135 0.743371 0.104447
O O7 0.476599 0.777541 0.119375
O O8 0.522016 0.746331 0.000000
O O9 0.753446 0.917280 0.324043
O O10 0.757756 0.815970 0.259138
O O11 0.748985 0.822501 0.396066
O O12 0.624694 0.845398 0.315842
O O13 0.887540 0.081723 0.899429
O O14 0.994278 0.086620 0.000000
O O15 0.737469 0.711638 0.623903
O O16 0.616739 0.732174 0.712411
O O17 0.770676 0.751546 0.500000
O O18 0.500000 0.803062 0.250000
#
# Coordination Sequence:
#
# PCOD8293462 Si02
#       8
#    16  16  16  16  16  16  16  16
#     4  10  21  35  51  74  98 137 177 217 252 297
#     4  10  20  32  47  71 102 134 163 199 251 305
#     4  10  20  34  50  72  99 133 173 210 256 305
#     4  11  21  33  48  72 106 139 171 209 253 303
#     4  10  21  36  53  69  99 140 182 212 250 302
#     4  10  20  33  50  73 101 129 167 209 254 308
#     4  10  19  33  51  72 101 135 166 201 256 315
#     4  11  20  30  51  76 101 130 166 211 259 306
#
# _framework density 17.268507
#
# number of rings (size 3 to 8) (size 9 to 14) (size 15 to 20)
#    0.000    1.750    2.500    3.750    1.750    4.500 
#    0.000    0.000    0.000    0.000    0.000   14.875 
#    0.000    2.000    0.000    0.000    0.000    0.250 
#
# Total GULP energy -793394.603215 kJ/mol
# GULP energy per Si atom -12396.790675 kJ/mol
# Density = 1.722920 g / cm^3
# Si number density = 17.268507 Si / 1000 Ang^3
#
#
#
# Elastic Constant Matrix: (Units=GPa)
#
#
# Indices 1 2 3 4 5 6 
#
# 1 105.6103 46.3770 37.8658 0.0000 0.0000 0.0000
# 2 46.3770 86.4010 25.0673 0.0000 0.0000 0.0000
# 3 37.8658 25.0673 61.8923 0.0000 0.0000 -0.0001
# 4 0.0000 0.0000 0.0000 15.0427 0.0000 0.0000
# 5 0.0000 0.0000 0.0000 0.0000 28.0416 0.0000
# 6 0.0000 0.0000 -0.0001 0.0000 0.0000 13.2856
#
#
#
# Elastic Compliance Matrix: (Units=1/GPa)
#
#
# Indices 1 2 3 4 5 6 
#
# 1 0.014325 -0.005832 -0.006402 0.000000 0.000000 0.000000
# 2 -0.005832 0.015489 -0.002705 0.000000 0.000000 0.000000
# 3 -0.006402 -0.002705 0.021170 0.000000 0.000000 0.000000
# 4 0.000000 0.000000 0.000000 0.066477 0.000000 0.000000
# 5 0.000000 0.000000 0.000000 0.000000 0.035661 0.000000
# 6 0.000000 0.000000 0.000000 0.000000 0.000000 0.075269
#
#
# Mechanical properties :
#
#
# Convention : Reuss Voigt Hill
#
# Bulk Modulus (GPa) = 47.38171 52.50264 49.94218
# Shear Modulus (GPa) = 18.84617 20.91356 19.87986
#
# Velocity S-wave (km/s) = 3.30716 3.48383 3.39665
# Velocity P-wave (km/s) = 6.48698 6.83026 6.66083
#
# Compressibility (1/GPa) = 0.02110519
#
# Stress axis : x y z
#
# Youngs Moduli (GPa) = 69.80723 64.56128 47.23722
#
# Poissons Ratio (x) = 0.37651 0.30242
# Poissons Ratio (y) = 0.40710 0.12780
# Poissons Ratio (z) = 0.44692 0.17467
#
# Static dielectric constant tensor:
#      x y z
#    x 3.225030 0.000000 0.000000 
#    y 0.000000 3.136560 0.000000 
#    z 0.000000 0.000000 3.209440 
# 
# 
# High freq. dielectric constant tensor:
#      x y z
#    x 1.652990 0.000000 0.000000 
#    y 0.000000 1.644590 0.000000 
#    z 0.000000 0.000000 1.673660 
# 
# From -- ./inp_files/32052.got.cif
#   From: 2010.03.12/outbox.cif.g09.slc.cpg/sg72_17_cif.got.tgz:32052.got - 2010.04.16 14:54:00.
