data_PCOD8293821
_publ_section_title
;
Structure prediction by ZEFSAII (Michael W. Deem and Ramdas Pophale) SiO2 
 PCOD8293821
Probable space group: I B A M
;
_chemical_formula_sum "Si O2"
_cell_formula_units_Z 112
_cell_length_a 14.225541
_cell_length_b 12.121839
_cell_length_c 30.158131
_cell_angle_alpha 90.000000
_cell_angle_beta 90.000000
_cell_angle_gamma 90.000000
_cell_volume 5200.459596
_symmetry_space_group_name_H-M "I B A M"
_symmetry_group_IT_number 72
_symmetry_cell_setting 'orthorhombic'
loop_
_space_group_symop_operation_xyz
x,y,z
-x,-y,z
x,-y,1/2-z
-x,y,1/2-z
-x,-y,-z
x,y,-z
-x,y,1/2+z
x,-y,1/2+z
1/2+x,1/2+y,1/2+z
1/2-x,1/2-y,1/2+z
1/2+x,1/2-y,-z
1/2-x,1/2+y,-z
1/2-x,1/2-y,1/2-z
1/2+x,1/2+y,1/2-z
1/2-x,1/2+y,z
1/2+x,1/2-y,z
loop_
_atom_site_type_symbol
_atom_site_label
_atom_site_fract_x
_atom_site_fract_y
_atom_site_fract_z
Si Si1 0.720522 0.959332 0.854200
Si Si2 0.393962 0.464008 0.201478
Si Si3 0.062297 0.397212 0.870183
Si Si4 0.223185 0.952970 0.451456
Si Si5 0.435389 0.599824 0.420834
Si Si6 0.898709 0.748361 0.659670
Si Si7 0.593034 0.249285 0.048181
O O1 0.712169 0.964586 0.908037
O O2 0.685456 0.839660 0.838095
O O3 0.824072 0.980489 0.834868
O O4 0.647917 0.056627 0.839446
O O5 0.500000 0.500000 0.190508
O O6 0.360504 0.500000 0.250000
O O7 0.390791 0.329981 0.201768
O O8 0.103561 0.341340 0.914054
O O9 0.000000 0.500000 0.886065
O O10 0.000361 0.311350 0.841634
O O11 0.274680 0.961091 0.500000
O O12 0.178659 0.832689 0.446364
O O13 0.144773 0.048735 0.451790
O O14 0.500000 0.500000 0.401576
O O15 0.386937 0.666996 0.381130
O O16 0.495181 0.684865 0.449736
O O17 0.597694 0.191129 0.000000
#
# Coordination Sequence:
#
# PCOD8293821 Si02
#       7
#    16  16  16  16  16  16  16
#     4  11  24  40  65  96 132 178 214 260 327 383
#     4  11  26  46  70 101 126 157 211 265 324 392
#     4   9  21  39  59  90 127 176 218 256 317 387
#     4  10  20  32  52  89 130 170 224 276 314 369
#     4   9  16  32  56  83 119 169 219 270 322 371
#     4  10  21  40  67  94 128 170 212 262 321 380
#     4   9  18  30  52  85 122 171 225 272 321 368
#
# _framework density 21.536557999999999
#
# number of rings (size 3 to 8) (size 9 to 14) (size 15 to 20)
#    0.000    2.143    1.429    0.857    6.000    3.143 
#    0.000    9.286    0.000    3.000    0.000    0.000 
#    0.000    0.000    0.000    0.000    0.000    0.000 
#
# Total GULP energy -694026.291229 kJ/mol
# GULP energy per Si atom -12393.326629 kJ/mol
# Density = 2.148754 g / cm^3
# Si number density = 21.536558 Si / 1000 Ang^3
#
#
#
# Elastic Constant Matrix: (Units=GPa)
#
#
# Indices 1 2 3 4 5 6 
#
# 1 90.0598 46.2433 29.7624 0.0000 0.0000 0.0000
# 2 46.2433 141.8840 46.4282 0.0000 0.0000 0.0000
# 3 29.7624 46.4282 96.1602 0.0000 0.0000 0.0000
# 4 0.0000 0.0000 0.0000 18.9336 0.0000 0.0000
# 5 0.0000 0.0000 0.0000 0.0000 6.9900 0.0000
# 6 0.0000 0.0000 0.0000 0.0000 0.0000 25.4554
#
#
#
# Elastic Compliance Matrix: (Units=1/GPa)
#
#
# Indices 1 2 3 4 5 6 
#
# 1 0.013823 -0.003688 -0.002498 0.000000 0.000000 0.000000
# 2 -0.003688 0.009354 -0.003375 0.000000 0.000000 0.000000
# 3 -0.002498 -0.003375 0.012802 0.000000 0.000000 0.000000
# 4 0.000000 0.000000 0.000000 0.052816 0.000000 0.000000
# 5 0.000000 0.000000 0.000000 0.000000 0.143062 0.000000
# 6 0.000000 0.000000 0.000000 0.000000 0.000000 0.039284
#
#
# Mechanical properties :
#
#
# Convention : Reuss Voigt Hill
#
# Bulk Modulus (GPa) = 59.31955 63.66353 61.49154
# Shear Modulus (GPa) = 16.89865 23.98715 20.44290
#
# Velocity S-wave (km/s) = 2.80420 3.34097 3.08428
# Velocity P-wave (km/s) = 6.17156 6.67140 6.42634
#
# Compressibility (1/GPa) = 0.01685785
#
# Stress axis : x y z
#
# Youngs Moduli (GPa) = 72.34439 106.90172 78.11321
#
# Poissons Ratio (x) = 0.39424 0.19510
# Poissons Ratio (y) = 0.26680 0.26364
# Poissons Ratio (z) = 0.18069 0.36080
#
# Static dielectric constant tensor:
#      x y z
#    x 3.772730 0.000000 0.000000 
#    y 0.000000 4.152780 0.000000 
#    z 0.000000 0.000000 3.741530 
# 
# 
# High freq. dielectric constant tensor:
#      x y z
#    x 1.835690 0.000000 0.000000 
#    y 0.000000 1.859390 0.000000 
#    z 0.000000 0.000000 1.814150 
# 
# From -- ./inp_files/51793.got.cif
#   From: 2010.03.12/outbox.cif.g09.slc.cpg/sg72_26_cif.got.tgz:51793.got - 2010.04.16 14:54:00.
