data_PCOD8293561
_publ_section_title
;
Structure prediction by ZEFSAII (Michael W. Deem and Ramdas Pophale) SiO2 
 PCOD8293561
Probable space group: I B A M
;
_chemical_formula_sum "Si O2"
_cell_formula_units_Z 88
_cell_length_a 33.140584
_cell_length_b 4.948224
_cell_length_c 26.505918
_cell_angle_alpha 90.000000
_cell_angle_beta 90.000000
_cell_angle_gamma 90.000000
_cell_volume 4346.626853
_symmetry_space_group_name_H-M "I B A M"
_symmetry_group_IT_number 72
_symmetry_cell_setting 'orthorhombic'
loop_
_space_group_symop_operation_xyz
x,y,z
-x,-y,z
x,-y,1/2-z
-x,y,1/2-z
-x,-y,-z
x,y,-z
-x,y,1/2+z
x,-y,1/2+z
1/2+x,1/2+y,1/2+z
1/2-x,1/2-y,1/2+z
1/2+x,1/2-y,-z
1/2-x,1/2+y,-z
1/2-x,1/2-y,1/2-z
1/2+x,1/2+y,1/2-z
1/2-x,1/2+y,z
1/2+x,1/2-y,z
loop_
_atom_site_type_symbol
_atom_site_label
_atom_site_fract_x
_atom_site_fract_y
_atom_site_fract_z
Si Si1 0.455492 0.538291 0.343646
Si Si2 0.849137 0.569045 0.133064
Si Si3 0.066462 0.465418 0.901893
Si Si4 0.723094 0.006317 0.056833
Si Si5 0.370819 0.412941 0.805562
Si Si6 0.528837 0.756799 0.500000
O O1 0.500000 0.500000 0.318828
O O2 0.442985 0.234988 0.356463
O O3 0.419676 0.642936 0.306778
O O4 0.457991 0.752127 0.391426
O O5 0.885981 0.468662 0.097429
O O6 0.809670 0.569863 0.099087
O O7 0.847019 0.361711 0.180289
O O8 0.856645 0.868465 0.153565
O O9 0.056606 0.292452 0.951379
O O10 0.738847 0.703293 0.064554
O O11 0.705260 0.043345 0.000000
O O12 0.357576 0.500000 0.750000
O O13 0.500000 0.500000 0.500000
O O14 0.500000 0.000000 0.500000
#
# Coordination Sequence:
#
# PCOD8293561 Si02
#       6
#    16  16  16  16  16   8
#     4  10  19  34  52  74 106 143 188 243 288 327
#     4  10  21  38  60  83 115 150 183 235 285 341
#     4  10  21  33  50  75 104 149 188 227 280 336
#     4  10  21  38  63  93 119 148 181 226 283 340
#     4  10  21  37  58  84 111 151 197 235 289 338
#     4  12  22  32  48  72 106 148 192 234 272 322
#
# _framework density 20.245585999999999
#
# number of rings (size 3 to 8) (size 9 to 14) (size 15 to 20)
#    0.000    1.818    0.000    4.909    1.273    0.364 
#    0.000    0.000    0.000   17.455    0.000    0.000 
#    0.000    0.000    0.000    0.000    0.000    0.000 
#
# Total GULP energy -545269.520464 kJ/mol
# GULP energy per Si atom -12392.489101 kJ/mol
# Density = 2.019951 g / cm^3
# Si number density = 20.245586 Si / 1000 Ang^3
#
#
#
# Elastic Constant Matrix: (Units=GPa)
#
#
# Indices 1 2 3 4 5 6 
#
# 1 83.3992 10.6867 37.5838 0.0000 0.0000 0.0000
# 2 10.6867 95.1416 6.7944 0.0000 0.0000 0.0000
# 3 37.5838 6.7944 78.6783 0.0000 0.0000 0.0000
# 4 0.0000 0.0000 0.0000 28.4144 0.0000 0.0000
# 5 0.0000 0.0000 0.0000 0.0000 19.7924 0.0000
# 6 0.0000 0.0000 0.0000 0.0000 0.0000 24.8797
#
#
#
# Elastic Compliance Matrix: (Units=1/GPa)
#
#
# Indices 1 2 3 4 5 6 
#
# 1 0.015418 -0.001213 -0.007260 0.000000 0.000000 0.000000
# 2 -0.001213 0.010671 -0.000342 0.000000 0.000000 0.000000
# 3 -0.007260 -0.000342 0.016208 0.000000 0.000000 0.000000
# 4 0.000000 0.000000 0.000000 0.035193 0.000000 0.000000
# 5 0.000000 0.000000 0.000000 0.000000 0.050524 0.000000
# 6 0.000000 0.000000 0.000000 0.000000 0.000000 0.040193
#
#
# Mechanical properties :
#
#
# Convention : Reuss Voigt Hill
#
# Bulk Modulus (GPa) = 40.54177 40.81656 40.67917
# Shear Modulus (GPa) = 25.76513 28.09424 26.92969
#
# Velocity S-wave (km/s) = 3.57126 3.72919 3.65108
# Velocity P-wave (km/s) = 6.08882 6.22471 6.15714
#
# Compressibility (1/GPa) = 0.02466592
#
# Stress axis : x y z
#
# Youngs Moduli (GPa) = 64.86021 93.70885 61.69948
#
# Poissons Ratio (x) = 0.11370 0.44795
# Poissons Ratio (y) = 0.07870 0.02110
# Poissons Ratio (z) = 0.47089 0.03204
#
# Static dielectric constant tensor:
#      x y z
#    x 3.548130 0.000000 0.000000 
#    y 0.000000 3.871370 0.000000 
#    z 0.000000 0.000000 3.279130 
# 
# 
# High freq. dielectric constant tensor:
#      x y z
#    x 1.772750 0.000000 0.000000 
#    y 0.000000 1.814490 0.000000 
#    z 0.000000 0.000000 1.763540 
# 
# From -- ./inp_files/49953.got.cif
#   From: 2010.03.12/outbox.cif.g09.slc.cpg/sg72_25_cif.got.tgz:49953.got - 2010.04.16 14:54:00.
