data_PCOD8293299
_publ_section_title
;
Structure prediction by ZEFSAII (Michael W. Deem and Ramdas Pophale) SiO2 
 PCOD8293299
Probable space group: I B A M
;
_chemical_formula_sum "Si O2"
_cell_formula_units_Z 80
_cell_length_a 18.569861
_cell_length_b 26.529334
_cell_length_c 8.863630
_cell_angle_alpha 90.000000
_cell_angle_beta 90.000000
_cell_angle_gamma 90.000000
_cell_volume 4366.632262
_symmetry_space_group_name_H-M "I B A M"
_symmetry_group_IT_number 72
_symmetry_cell_setting 'orthorhombic'
loop_
_space_group_symop_operation_xyz
x,y,z
-x,-y,z
x,-y,1/2-z
-x,y,1/2-z
-x,-y,-z
x,y,-z
-x,y,1/2+z
x,-y,1/2+z
1/2+x,1/2+y,1/2+z
1/2-x,1/2-y,1/2+z
1/2+x,1/2-y,-z
1/2-x,1/2+y,-z
1/2-x,1/2-y,1/2-z
1/2+x,1/2+y,1/2-z
1/2-x,1/2+y,z
1/2+x,1/2-y,z
loop_
_atom_site_type_symbol
_atom_site_label
_atom_site_fract_x
_atom_site_fract_y
_atom_site_fract_z
Si Si1 0.852681 0.948849 0.323391
Si Si2 0.928329 0.446128 0.177037
Si Si3 0.923590 0.155006 0.179005
Si Si4 0.789855 0.796581 0.176191
Si Si5 0.278203 0.902249 0.326965
O O1 0.854731 0.956111 0.500000
O O2 0.901726 0.901725 0.271538
O O3 0.770596 0.939197 0.273155
O O4 0.883393 0.000000 0.250000
O O5 0.912811 0.500000 0.250000
O O6 0.861568 0.409892 0.214611
O O7 0.000000 0.421659 0.250000
O O8 0.940229 0.452940 0.000000
O O9 0.866678 0.194953 0.244399
O O10 0.000000 0.168385 0.250000
O O11 0.926329 0.160558 0.000000
O O12 0.750000 0.750000 0.250000
O O13 0.739054 0.844367 0.206502
O O14 0.802618 0.786759 0.000000
O O15 0.262361 0.916495 0.500000
#
# Coordination Sequence:
#
# PCOD8293299 Si02
#       5
#    16  16  16  16  16
#     4  10  20  32  50  76 106 139 176 213 253 305
#     4  10  19  31  47  70  99 133 168 205 249 299
#     4  10  21  37  56  80 108 140 176 215 260 311
#     4  10  20  37  59  81 105 135 172 217 264 313
#     4   9  19  34  52  73 100 133 172 216 259 304
#
# _framework density 18.320754999999998
#
# number of rings (size 3 to 8) (size 9 to 14) (size 15 to 20)
#    0.000    2.200    0.000    3.600    0.000    6.800 
#    0.000    3.000    0.000    2.400    0.000    0.000 
#    0.000    0.000    0.000    0.000    0.000    0.000 
#
# Total GULP energy -496104.102275 kJ/mol
# GULP energy per Si atom -12402.602557 kJ/mol
# Density = 1.827906 g / cm^3
# Si number density = 18.320755 Si / 1000 Ang^3
#
#
#
# Elastic Constant Matrix: (Units=GPa)
#
#
# Indices 1 2 3 4 5 6 
#
# 1 153.3674 55.7981 55.9067 0.0000 0.0000 0.0000
# 2 55.7981 89.0513 42.9993 0.0000 0.0000 0.0000
# 3 55.9067 42.9993 93.1228 0.0000 0.0000 0.0000
# 4 0.0000 0.0000 0.0000 29.4379 0.0000 0.0000
# 5 0.0000 0.0000 0.0000 0.0000 31.9688 0.0000
# 6 0.0000 0.0000 0.0000 0.0000 0.0000 20.7344
#
#
#
# Elastic Compliance Matrix: (Units=1/GPa)
#
#
# Indices 1 2 3 4 5 6 
#
# 1 0.009362 -0.004057 -0.003747 0.000000 0.000000 0.000000
# 2 -0.004057 0.016209 -0.005049 0.000000 0.000000 0.000000
# 3 -0.003747 -0.005049 0.015320 0.000000 0.000000 0.000000
# 4 0.000000 0.000000 0.000000 0.033970 0.000000 0.000000
# 5 0.000000 0.000000 0.000000 0.000000 0.031281 0.000000
# 6 0.000000 0.000000 0.000000 0.000000 0.000000 0.048229
#
#
# Mechanical properties :
#
#
# Convention : Reuss Voigt Hill
#
# Bulk Modulus (GPa) = 65.85600 71.66107 68.75853
# Shear Modulus (GPa) = 27.00669 28.48405 27.74537
#
# Velocity S-wave (km/s) = 3.84357 3.94730 3.89578
# Velocity P-wave (km/s) = 7.46469 7.74432 7.60579
#
# Compressibility (1/GPa) = 0.01518465
#
# Stress axis : x y z
#
# Youngs Moduli (GPa) = 106.81160 61.69253 65.27505
#
# Poissons Ratio (x) = 0.25027 0.24462
# Poissons Ratio (y) = 0.43331 0.32959
# Poissons Ratio (z) = 0.40028 0.31150
#
# Static dielectric constant tensor:
#      x y z
#    x 3.478770 0.000000 0.000000 
#    y 0.000000 3.262690 0.000000 
#    z 0.000000 0.000000 3.495370 
# 
# 
# High freq. dielectric constant tensor:
#      x y z
#    x 1.713040 0.000000 0.000000 
#    y 0.000000 1.693090 0.000000 
#    z 0.000000 0.000000 1.724330 
# 
# From -- ./inp_files/4997.got.cif
#   From: 2010.03.12/outbox.cif.g09.slc.cpg/sg72_3_cif.got.tgz:4997.got - 2010.04.16 14:54:00.
