data_PCOD8293025
_publ_section_title
;
Structure prediction by ZEFSAII (Michael W. Deem and Ramdas Pophale) SiO2 
 PCOD8293025
Probable space group: I B A M
;
_chemical_formula_sum "Si O2"
_cell_formula_units_Z 116
_cell_length_a 26.468376
_cell_length_b 26.508919
_cell_length_c 9.933705
_cell_angle_alpha 90.000000
_cell_angle_beta 90.000000
_cell_angle_gamma 90.000000
_cell_volume 6969.964598
_symmetry_space_group_name_H-M "I B A M"
_symmetry_group_IT_number 72
_symmetry_cell_setting 'orthorhombic'
loop_
_space_group_symop_operation_xyz
x,y,z
-x,-y,z
x,-y,1/2-z
-x,y,1/2-z
-x,-y,-z
x,y,-z
-x,y,1/2+z
x,-y,1/2+z
1/2+x,1/2+y,1/2+z
1/2-x,1/2-y,1/2+z
1/2+x,1/2-y,-z
1/2-x,1/2+y,-z
1/2-x,1/2-y,1/2-z
1/2+x,1/2+y,1/2-z
1/2-x,1/2+y,z
1/2+x,1/2-y,z
loop_
_atom_site_type_symbol
_atom_site_label
_atom_site_fract_x
_atom_site_fract_y
_atom_site_fract_z
Si Si1 0.310639 0.848352 0.155415
Si Si2 0.213931 0.455278 0.843187
Si Si3 0.415663 0.571754 0.152059
Si Si4 0.860785 0.250483 0.653551
Si Si5 0.204569 0.186095 0.346155
Si Si6 0.000000 0.000000 0.250000
Si Si7 0.546139 0.682015 0.654923
Si Si8 0.171739 0.925467 0.849063
O O1 0.317107 0.905558 0.209060
O O2 0.359100 0.811682 0.177334
O O3 0.260590 0.821855 0.214950
O O4 0.296799 0.856737 0.000000
O O5 0.193320 0.500000 0.750000
O O6 0.273451 0.447832 0.815359
O O7 0.203721 0.467735 0.000000
O O8 0.464514 0.535680 0.159504
O O9 0.430199 0.628420 0.196049
O O10 0.370460 0.552350 0.247888
O O11 0.395117 0.571598 0.000000
O O12 0.844505 0.238328 0.500000
O O13 0.820251 0.227635 0.753092
O O14 0.915721 0.228175 0.681787
O O15 0.204989 0.205747 0.500000
O O16 0.172785 0.134722 0.335289
O O17 0.500000 0.694803 0.750000
O O18 0.528271 0.680572 0.500000
O O19 0.155355 0.941081 0.000000
#
# Coordination Sequence:
#
# PCOD8293025 Si02
#       8
#    16  16  16  16  16   4  16  16
#     4   8  16  30  47  68  98 127 154 185 227 282
#     4   9  18  33  49  69  96 129 159 186 223 271
#     4  11  23  38  52  66  84 113 160 208 248 290
#     4  10  18  30  49  71  93 121 154 193 235 282
#     4   9  16  28  46  69  95 125 151 180 230 287
#     4  12  26  40  48  62  86 120 156 210 268 292
#     4  10  21  36  52  70  90 118 157 200 247 293
#     4   9  19  33  49  67  91 121 153 190 237 284
#
# _framework density 16.642838999999999
#
# number of rings (size 3 to 8) (size 9 to 14) (size 15 to 20)
#    0.000    2.483    2.069    2.276    0.966    2.759 
#    0.000    2.759    0.000    0.000    0.000    0.000 
#    0.000    0.552    0.000    6.897    0.000    0.000 
#
# Total GULP energy -718876.818064 kJ/mol
# GULP energy per Si atom -12394.427898 kJ/mol
# Density = 1.660496 g / cm^3
# Si number density = 16.642839 Si / 1000 Ang^3
#
#
#
# Elastic Constant Matrix: (Units=GPa)
#
#
# Indices 1 2 3 4 5 6 
#
# 1 44.5793 35.6176 26.2186 0.0000 0.0000 0.0000
# 2 35.6176 107.5071 44.9117 0.0000 0.0000 0.0000
# 3 26.2186 44.9117 61.5181 0.0000 0.0000 0.0000
# 4 0.0000 0.0000 0.0000 17.6229 0.0000 0.0000
# 5 0.0000 0.0000 0.0000 0.0000 14.9297 0.0000
# 6 0.0000 0.0000 0.0000 0.0000 0.0000 24.8735
#
#
#
# Elastic Compliance Matrix: (Units=1/GPa)
#
#
# Indices 1 2 3 4 5 6 
#
# 1 0.033589 -0.007407 -0.008908 0.000000 0.000000 0.000000
# 2 -0.007407 0.015017 -0.007806 0.000000 0.000000 0.000000
# 3 -0.008908 -0.007806 0.025751 0.000000 0.000000 0.000000
# 4 0.000000 0.000000 0.000000 0.056744 0.000000 0.000000
# 5 0.000000 0.000000 0.000000 0.000000 0.066980 0.000000
# 6 0.000000 0.000000 0.000000 0.000000 0.000000 0.040203
#
#
# Mechanical properties :
#
#
# Convention : Reuss Voigt Hill
#
# Bulk Modulus (GPa) = 38.29313 47.45558 42.87435
# Shear Modulus (GPa) = 16.93585 18.60900 17.77242
#
# Velocity S-wave (km/s) = 3.19345 3.34749 3.27138
# Velocity P-wave (km/s) = 6.05444 6.59673 6.33140
#
# Compressibility (1/GPa) = 0.02611434
#
# Stress axis : x y z
#
# Youngs Moduli (GPa) = 29.77188 66.59230 38.83353
#
# Poissons Ratio (x) = 0.49323 0.34593
# Poissons Ratio (y) = 0.22051 0.30315
# Poissons Ratio (z) = 0.26521 0.51984
#
# Static dielectric constant tensor:
#      x y z
#    x 2.822550 0.000000 0.000000 
#    y 0.000000 3.233960 0.000000 
#    z 0.000000 0.000000 3.026730 
# 
# 
# High freq. dielectric constant tensor:
#      x y z
#    x 1.599840 0.000000 0.000000 
#    y 0.000000 1.642080 0.000000 
#    z 0.000000 0.000000 1.634380 
# 
# From -- ./inp_files/7548.got.cif
#   From: 2010.03.12/outbox.cif.g09.slc.cpg/sg72_4_cif.got.tgz:7548.got - 2010.04.16 14:54:00.
