data_PCOD8293720
_publ_section_title
;
Structure prediction by ZEFSAII (Michael W. Deem and Ramdas Pophale) SiO2 
 PCOD8293720
Probable space group: I B A M
;
_chemical_formula_sum "Si O2"
_cell_formula_units_Z 80
_cell_length_a 11.246920
_cell_length_b 16.701827
_cell_length_c 21.275104
_cell_angle_alpha 90.000000
_cell_angle_beta 90.000000
_cell_angle_gamma 90.000000
_cell_volume 3996.403021
_symmetry_space_group_name_H-M "I B A M"
_symmetry_group_IT_number 72
_symmetry_cell_setting 'orthorhombic'
loop_
_space_group_symop_operation_xyz
x,y,z
-x,-y,z
x,-y,1/2-z
-x,y,1/2-z
-x,-y,-z
x,y,-z
-x,y,1/2+z
x,-y,1/2+z
1/2+x,1/2+y,1/2+z
1/2-x,1/2-y,1/2+z
1/2+x,1/2-y,-z
1/2-x,1/2+y,-z
1/2-x,1/2-y,1/2-z
1/2+x,1/2+y,1/2-z
1/2-x,1/2+y,z
1/2+x,1/2-y,z
loop_
_atom_site_type_symbol
_atom_site_label
_atom_site_fract_x
_atom_site_fract_y
_atom_site_fract_z
Si Si1 0.213669 0.421113 0.931113
Si Si2 0.000000 0.000000 0.342338
Si Si3 0.703225 0.500000 0.750000
Si Si4 0.011076 0.680834 0.926943
Si Si5 0.380402 0.950293 0.658151
Si Si6 0.521744 0.637754 0.070744
O O1 0.202578 0.493443 0.883641
O O2 0.340275 0.381109 0.926981
O O3 0.120993 0.350860 0.917330
O O4 0.188486 0.457332 0.000000
O O5 0.888186 0.965486 0.302242
O O6 0.046775 0.925897 0.385053
O O7 0.795838 0.434362 0.780385
O O8 0.096631 0.631403 0.879832
O O9 0.006333 0.772340 0.904275
O O10 0.054260 0.673752 0.000000
O O11 0.500000 0.000000 0.675210
O O12 0.470626 0.629198 0.000000
#
# Coordination Sequence:
#
# PCOD8293720 Si02
#       6
#    16   8   8  16  16  16
#     4   9  17  33  56  84 116 146 186 245 304 356
#     4  11  23  40  58  76 119 159 200 242 290 347
#     4  11  23  38  58  78 111 161 208 240 270 349
#     4   9  19  34  59  93 120 146 187 250 314 361
#     4  10  19  36  61  82 113 150 198 244 291 345
#     4  10  20  37  60  88 119 151 195 247 309 370
#
# _framework density 20.018001000000002
#
# number of rings (size 3 to 8) (size 9 to 14) (size 15 to 20)
#    0.000    2.200    2.000    1.200    0.000    4.000 
#    0.000    3.000   17.600    0.000    0.000    0.000 
#    0.000    0.000    0.000    0.000    0.000    0.000 
#
# Total GULP energy -495557.707364 kJ/mol
# GULP energy per Si atom -12388.942684 kJ/mol
# Density = 1.997244 g / cm^3
# Si number density = 20.018001 Si / 1000 Ang^3
#
#
#
# Elastic Constant Matrix: (Units=GPa)
#
#
# Indices 1 2 3 4 5 6 
#
# 1 57.5093 19.5701 38.0364 0.0000 0.0000 0.0000
# 2 19.5701 124.8360 57.2987 0.0000 0.0000 0.0000
# 3 38.0364 57.2987 92.9860 0.0000 0.0000 0.0000
# 4 0.0000 0.0000 0.0000 17.5456 0.0000 0.0000
# 5 0.0000 0.0000 0.0000 0.0000 33.0919 0.0000
# 6 0.0000 0.0000 0.0000 0.0000 0.0000 19.2442
#
#
#
# Elastic Compliance Matrix: (Units=1/GPa)
#
#
# Indices 1 2 3 4 5 6 
#
# 1 0.023933 0.001034 -0.010427 0.000000 0.000000 0.000000
# 2 0.001034 0.011214 -0.007333 0.000000 0.000000 0.000000
# 3 -0.010427 -0.007333 0.019538 0.000000 0.000000 0.000000
# 4 0.000000 0.000000 0.000000 0.056995 0.000000 0.000000
# 5 0.000000 0.000000 0.000000 0.000000 0.030219 0.000000
# 6 0.000000 0.000000 0.000000 0.000000 0.000000 0.051964
#
#
# Mechanical properties :
#
#
# Convention : Reuss Voigt Hill
#
# Bulk Modulus (GPa) = 47.09648 56.12686 51.61167
# Shear Modulus (GPa) = 21.33164 24.67140 23.00152
#
# Velocity S-wave (km/s) = 3.26793 3.51445 3.39343
# Velocity P-wave (km/s) = 6.14958 6.67589 6.41813
#
# Compressibility (1/GPa) = 0.02123301
#
# Stress axis : x y z
#
# Youngs Moduli (GPa) = 41.78318 89.17141 51.18112
#
# Poissons Ratio (x) = -0.09221 0.53367
# Poissons Ratio (y) = -0.04321 0.37533
# Poissons Ratio (z) = 0.43568 0.65393
#
# Static dielectric constant tensor:
#      x y z
#    x 3.741980 0.000000 0.000000 
#    y 0.000000 3.445850 0.000000 
#    z 0.000000 0.000000 4.061400 
# 
# 
# High freq. dielectric constant tensor:
#      x y z
#    x 1.789760 0.000000 0.000000 
#    y 0.000000 1.747000 0.000000 
#    z 0.000000 0.000000 1.785810 
# 
# From -- ./inp_files/43142.got.cif
#   From: 2010.03.12/outbox.cif.g09.slc.cpg/sg72_22_cif.got.tgz:43142.got - 2010.04.16 14:54:00.
