data_PCOD8293392
_publ_section_title
;
Structure prediction by ZEFSAII (Michael W. Deem and Ramdas Pophale) SiO2 
 PCOD8293392
Probable space group: I B A M
;
_chemical_formula_sum "Si O2"
_cell_formula_units_Z 112
_cell_length_a 13.916640
_cell_length_b 19.370207
_cell_length_c 22.858100
_cell_angle_alpha 90.000000
_cell_angle_beta 90.000000
_cell_angle_gamma 90.000000
_cell_volume 6161.816816
_symmetry_space_group_name_H-M "I B A M"
_symmetry_group_IT_number 72
_symmetry_cell_setting 'orthorhombic'
loop_
_space_group_symop_operation_xyz
x,y,z
-x,-y,z
x,-y,1/2-z
-x,y,1/2-z
-x,-y,-z
x,y,-z
-x,y,1/2+z
x,-y,1/2+z
1/2+x,1/2+y,1/2+z
1/2-x,1/2-y,1/2+z
1/2+x,1/2-y,-z
1/2-x,1/2+y,-z
1/2-x,1/2-y,1/2-z
1/2+x,1/2+y,1/2-z
1/2-x,1/2+y,z
1/2+x,1/2-y,z
loop_
_atom_site_type_symbol
_atom_site_label
_atom_site_fract_x
_atom_site_fract_y
_atom_site_fract_z
Si Si1 0.744752 0.708672 0.433823
Si Si2 0.466547 0.732728 0.931644
Si Si3 0.062049 0.618002 0.381296
Si Si4 0.780413 0.465552 0.567234
Si Si5 0.154010 0.404938 0.363802
Si Si6 0.605207 0.918711 0.741511
Si Si7 0.152353 0.844275 0.067944
O O1 0.775441 0.692162 0.500000
O O2 0.633014 0.691327 0.423481
O O3 0.814714 0.665213 0.393734
O O4 0.762961 0.789152 0.419532
O O5 0.460277 0.802598 0.894564
O O6 0.551110 0.683619 0.905614
O O7 0.484087 0.751365 0.000000
O O8 0.121694 0.580189 0.432377
O O9 0.131981 0.606453 0.323917
O O10 0.959406 0.579682 0.373211
O O11 0.764854 0.489480 0.500000
O O12 0.785689 0.531693 0.609360
O O13 0.690355 0.418575 0.590597
O O14 0.174730 0.393098 0.294263
O O15 0.500000 0.885889 0.750000
O O16 0.602960 0.000000 0.750000
O O17 0.134055 0.853198 0.000000
#
# Coordination Sequence:
#
# PCOD8293392 Si02
#       7
#    16  16  16  16  16  16  16
#     4  10  19  32  51  77 106 137 175 212 263 322
#     4  10  19  33  54  77 107 144 176 214 265 320
#     4  11  19  31  53  77 105 136 173 216 265 318
#     4  11  21  31  49  80 109 134 172 219 266 322
#     4  11  21  33  51  76 107 137 173 221 261 315
#     4   9  18  33  48  70 105 141 168 202 266 319
#     4   9  18  33  50  72 108 145 171 206 265 321
#
# _framework density 18.176456999999999
#
# number of rings (size 3 to 8) (size 9 to 14) (size 15 to 20)
#    0.000    1.857    4.286    1.286    0.000    2.286 
#    0.000    1.429    0.000    3.429    0.000    0.000 
#    0.000    0.000    0.000    0.000    0.000    0.000 
#
# Total GULP energy -693872.484872 kJ/mol
# GULP energy per Si atom -12390.580087 kJ/mol
# Density = 1.813509 g / cm^3
# Si number density = 18.176457 Si / 1000 Ang^3
#
#
#
# Elastic Constant Matrix: (Units=GPa)
#
#
# Indices 1 2 3 4 5 6 
#
# 1 63.0395 8.4311 27.0931 0.0000 0.0000 0.0000
# 2 8.4311 65.2467 44.0922 0.0000 0.0000 0.0000
# 3 27.0931 44.0922 92.9905 0.0000 0.0000 0.0000
# 4 0.0000 0.0000 0.0000 20.6043 0.0000 0.0000
# 5 0.0000 0.0000 0.0000 0.0000 16.4856 0.0000
# 6 0.0000 0.0000 0.0000 0.0000 0.0000 25.9520
#
#
#
# Elastic Compliance Matrix: (Units=1/GPa)
#
#
# Indices 1 2 3 4 5 6 
#
# 1 0.018279 0.001820 -0.006189 0.000000 0.000000 0.000000
# 2 0.001820 0.022734 -0.011310 0.000000 0.000000 0.000000
# 3 -0.006189 -0.011310 0.017920 0.000000 0.000000 0.000000
# 4 0.000000 0.000000 0.000000 0.048534 0.000000 0.000000
# 5 0.000000 0.000000 0.000000 0.000000 0.060659 0.000000
# 6 0.000000 0.000000 0.000000 0.000000 0.000000 0.038533
#
#
# Mechanical properties :
#
#
# Convention : Reuss Voigt Hill
#
# Bulk Modulus (GPa) = 36.26316 42.27882 39.27099
# Shear Modulus (GPa) = 20.22588 22.05239 21.13913
#
# Velocity S-wave (km/s) = 3.33941 3.48694 3.41397
# Velocity P-wave (km/s) = 5.90448 6.28668 6.09857
#
# Compressibility (1/GPa) = 0.02757620
#
# Stress axis : x y z
#
# Youngs Moduli (GPa) = 54.70616 43.98651 55.80463
#
# Poissons Ratio (x) = -0.08007 0.34537
# Poissons Ratio (y) = -0.09958 0.63115
# Poissons Ratio (z) = 0.33857 0.49749
#
# Static dielectric constant tensor:
#      x y z
#    x 3.448910 0.000000 0.000000 
#    y 0.000000 3.203140 0.000000 
#    z 0.000000 0.000000 3.408560 
# 
# 
# High freq. dielectric constant tensor:
#      x y z
#    x 1.685800 0.000000 0.000000 
#    y 0.000000 1.691340 0.000000 
#    z 0.000000 0.000000 1.684690 
# 
# From -- ./inp_files/43509.got.cif
#   From: 2010.03.12/outbox.cif.g09.slc.cpg/sg72_22_cif.got.tgz:43509.got - 2010.04.16 14:54:00.
