data_PCOD8293865
_publ_section_title
;
Structure prediction by ZEFSAII (Michael W. Deem and Ramdas Pophale) SiO2 
 PCOD8293865
Probable space group: I B A M
;
_chemical_formula_sum "Si O2"
_cell_formula_units_Z 96
_cell_length_a 23.726523
_cell_length_b 11.988442
_cell_length_c 15.936239
_cell_angle_alpha 90.000000
_cell_angle_beta 90.000000
_cell_angle_gamma 90.000000
_cell_volume 4532.968281
_symmetry_space_group_name_H-M "I B A M"
_symmetry_group_IT_number 72
_symmetry_cell_setting 'orthorhombic'
loop_
_space_group_symop_operation_xyz
x,y,z
-x,-y,z
x,-y,1/2-z
-x,y,1/2-z
-x,-y,-z
x,y,-z
-x,y,1/2+z
x,-y,1/2+z
1/2+x,1/2+y,1/2+z
1/2-x,1/2-y,1/2+z
1/2+x,1/2-y,-z
1/2-x,1/2+y,-z
1/2-x,1/2-y,1/2-z
1/2+x,1/2+y,1/2-z
1/2-x,1/2+y,z
1/2+x,1/2-y,z
loop_
_atom_site_type_symbol
_atom_site_label
_atom_site_fract_x
_atom_site_fract_y
_atom_site_fract_z
Si Si1 0.413170 0.795341 0.594335
Si Si2 0.131639 0.125333 0.100234
Si Si3 0.706044 0.826698 0.403035
Si Si4 0.672110 0.384684 0.600539
Si Si5 0.402422 0.041376 0.401764
Si Si6 0.472006 0.755602 0.840463
O O1 0.391936 0.811367 0.500000
O O2 0.369986 0.709138 0.638138
O O3 0.476219 0.746699 0.594713
O O4 0.411013 0.917815 0.636936
O O5 0.178989 0.212625 0.132835
O O6 0.071451 0.155559 0.141499
O O7 0.150591 0.004547 0.132655
O O8 0.124695 0.134057 0.000000
O O9 0.718369 0.806513 0.500000
O O10 0.766009 0.858256 0.361466
O O11 0.663095 0.928654 0.389244
O O12 0.671509 0.387221 0.500000
O O13 0.419662 0.049572 0.500000
O O14 0.441600 0.125324 0.350076
O O15 0.500000 0.744215 0.750000
#
# Coordination Sequence:
#
# PCOD8293865 Si02
#       6
#    16  16  16  16  16  16
#     4  10  20  33  52  81 112 140 177 223 276 333
#     4   9  18  34  55  80 113 147 181 226 281 329
#     4   8  15  28  50  80 110 137 173 221 271 322
#     4   9  18  30  51  83 112 144 180 221 271 332
#     4   9  18  33  55  82 111 142 175 225 282 325
#     4  11  22  36  54  76 104 147 189 231 272 325
#
# _framework density 21.178175
#
# number of rings (size 3 to 8) (size 9 to 14) (size 15 to 20)
#    0.000    2.667    0.000    3.000    2.333    3.333 
#    0.000    4.167    0.000    4.000    8.667    0.000 
#    0.000    0.000    0.000    0.000    0.000    0.000 
#
# Total GULP energy -595003.056300 kJ/mol
# GULP energy per Si atom -12395.897006 kJ/mol
# Density = 2.112997 g / cm^3
# Si number density = 21.178175 Si / 1000 Ang^3
#
#
#
# Elastic Constant Matrix: (Units=GPa)
#
#
# Indices 1 2 3 4 5 6 
#
# 1 178.6902 67.5015 17.8500 0.0000 0.0000 0.0000
# 2 67.5015 105.6818 19.0060 0.0000 0.0000 0.0000
# 3 17.8500 19.0060 31.5678 0.0000 0.0000 0.0000
# 4 0.0000 0.0000 0.0000 9.2275 0.0000 0.0000
# 5 0.0000 0.0000 0.0000 0.0000 13.1249 0.0000
# 6 0.0000 0.0000 0.0000 0.0000 0.0000 29.0758
#
#
#
# Elastic Compliance Matrix: (Units=1/GPa)
#
#
# Indices 1 2 3 4 5 6 
#
# 1 0.007440 -0.004480 -0.001509 0.000000 0.000000 0.000000
# 2 -0.004480 0.013310 -0.005480 0.000000 0.000000 0.000000
# 3 -0.001509 -0.005480 0.035830 0.000000 0.000000 0.000000
# 4 0.000000 0.000000 0.000000 0.108372 0.000000 0.000000
# 5 0.000000 0.000000 0.000000 0.000000 0.076191 0.000000
# 6 0.000000 0.000000 0.000000 0.000000 0.000000 0.034393
#
#
# Mechanical properties :
#
#
# Convention : Reuss Voigt Hill
#
# Bulk Modulus (GPa) = 29.72584 58.29499 44.01041
# Shear Modulus (GPa) = 16.14530 24.39112 20.26821
#
# Velocity S-wave (km/s) = 2.76407 3.39737 3.09695
# Velocity P-wave (km/s) = 4.92477 6.55555 5.79778
#
# Compressibility (1/GPa) = 0.03364077
#
# Stress axis : x y z
#
# Youngs Moduli (GPa) = 134.41690 75.13373 27.90919
#
# Poissons Ratio (x) = 0.33663 0.04212
# Poissons Ratio (y) = 0.60224 0.15294
# Poissons Ratio (z) = 0.20286 0.41172
#
# Static dielectric constant tensor:
#      x y z
#    x 4.068420 0.000000 0.000000 
#    y 0.000000 3.989140 0.000000 
#    z 0.000000 0.000000 3.228420 
# 
# 
# High freq. dielectric constant tensor:
#      x y z
#    x 1.842820 0.000000 0.000000 
#    y 0.000000 1.831280 0.000000 
#    z 0.000000 0.000000 1.778360 
# 
# From -- ./inp_files/33237.got.cif
#   From: 2010.03.12/outbox.cif.g09.slc.cpg/sg72_17_cif.got.tgz:33237.got - 2010.04.16 14:54:00.
