data_PCOD8293529
_publ_section_title
;
Structure prediction by ZEFSAII (Michael W. Deem and Ramdas Pophale) SiO2 
 PCOD8293529
Probable space group: I B A M
;
_chemical_formula_sum "Si O2"
_cell_formula_units_Z 116
_cell_length_a 26.443452
_cell_length_b 23.399029
_cell_length_c 9.102094
_cell_angle_alpha 90.000000
_cell_angle_beta 90.000000
_cell_angle_gamma 90.000000
_cell_volume 5631.930677
_symmetry_space_group_name_H-M "I B A M"
_symmetry_group_IT_number 72
_symmetry_cell_setting 'orthorhombic'
loop_
_space_group_symop_operation_xyz
x,y,z
-x,-y,z
x,-y,1/2-z
-x,y,1/2-z
-x,-y,-z
x,y,-z
-x,y,1/2+z
x,-y,1/2+z
1/2+x,1/2+y,1/2+z
1/2-x,1/2-y,1/2+z
1/2+x,1/2-y,-z
1/2-x,1/2+y,-z
1/2-x,1/2-y,1/2-z
1/2+x,1/2+y,1/2-z
1/2-x,1/2+y,z
1/2+x,1/2-y,z
loop_
_atom_site_type_symbol
_atom_site_label
_atom_site_fract_x
_atom_site_fract_y
_atom_site_fract_z
Si Si1 0.561048 0.704731 0.338102
Si Si2 0.160419 0.667181 0.828325
Si Si3 0.820942 0.778995 0.163783
Si Si4 0.813797 0.107735 0.172222
Si Si5 0.500000 0.500000 0.250000
Si Si6 0.452860 0.183738 0.828651
Si Si7 0.776735 0.444666 0.172994
Si Si8 0.070219 0.097954 0.337784
O O1 0.536718 0.713973 0.500000
O O2 0.620401 0.709682 0.351783
O O3 0.542103 0.750164 0.219171
O O4 0.545909 0.642072 0.278414
O O5 0.188822 0.718065 0.741772
O O6 0.101768 0.660017 0.778287
O O7 0.187404 0.608433 0.789298
O O8 0.162642 0.682623 0.000000
O O9 0.798990 0.829968 0.262654
O O10 0.796080 0.779372 0.000000
O O11 0.778404 0.062840 0.255616
O O12 0.871106 0.087478 0.204974
O O13 0.801594 0.108291 0.000000
O O14 0.462244 0.460278 0.156041
O O15 0.500000 0.150626 0.750000
O O16 0.460730 0.177149 0.000000
O O17 0.801766 0.500000 0.250000
O O18 0.771233 0.454156 0.000000
O O19 0.069355 0.125659 0.500000
#
# Coordination Sequence:
#
# PCOD8293529 Si02
#       8
#    16  16  16  16   4  16  16  16
#     4   9  18  33  54  80 111 147 186 232 283 340
#     4   9  20  38  59  85 121 157 191 236 287 346
#     4   9  17  32  57  89 119 150 189 236 292 347
#     4  10  21  39  62  87 115 152 195 244 298 352
#     4  12  26  40  56  78 106 152 204 250 294 332
#     4  10  19  33  56  86 118 151 185 225 276 337
#     4  11  24  42  63  88 115 151 196 240 292 347
#     4  10  23  41  57  77 107 146 194 245 295 341
#
# _framework density 20.596844000000001
#
# number of rings (size 3 to 8) (size 9 to 14) (size 15 to 20)
#    0.000    2.207    0.000    2.276    1.931    7.172 
#    0.000    0.000    0.000    0.414    0.000    2.897 
#    0.000    0.000    0.000    0.000    0.000    0.000 
#
# Total GULP energy -718980.875468 kJ/mol
# GULP energy per Si atom -12396.221991 kJ/mol
# Density = 2.054996 g / cm^3
# Si number density = 20.596844 Si / 1000 Ang^3
#
#
#
# Elastic Constant Matrix: (Units=GPa)
#
#
# Indices 1 2 3 4 5 6 
#
# 1 75.9495 43.2031 29.7032 0.0000 0.0000 0.0000
# 2 43.2031 119.4666 48.6168 0.0000 0.0000 0.0000
# 3 29.7032 48.6168 103.7439 0.0000 0.0000 0.0000
# 4 0.0000 0.0000 0.0000 29.0968 0.0000 0.0000
# 5 0.0000 0.0000 0.0000 0.0000 26.6649 0.0000
# 6 0.0000 0.0000 0.0000 0.0000 0.0000 20.5487
#
#
#
# Elastic Compliance Matrix: (Units=1/GPa)
#
#
# Indices 1 2 3 4 5 6 
#
# 1 0.017072 -0.005171 -0.002465 0.000000 0.000000 0.000000
# 2 -0.005171 0.011909 -0.004100 0.000000 0.000000 0.000000
# 3 -0.002465 -0.004100 0.012266 0.000000 0.000000 0.000000
# 4 0.000000 0.000000 0.000000 0.034368 0.000000 0.000000
# 5 0.000000 0.000000 0.000000 0.000000 0.037502 0.000000
# 6 0.000000 0.000000 0.000000 0.000000 0.000000 0.048665
#
#
# Mechanical properties :
#
#
# Convention : Reuss Voigt Hill
#
# Bulk Modulus (GPa) = 56.25720 60.24515 58.25118
# Shear Modulus (GPa) = 26.15336 27.10453 26.62894
#
# Velocity S-wave (km/s) = 3.56726 3.63155 3.59954
# Velocity P-wave (km/s) = 6.65882 6.84816 6.75416
#
# Compressibility (1/GPa) = 0.01777550
#
# Stress axis : x y z
#
# Youngs Moduli (GPa) = 58.57567 83.96925 81.52366
#
# Poissons Ratio (x) = 0.43418 0.20094
# Poissons Ratio (y) = 0.30288 0.33428
# Poissons Ratio (z) = 0.14438 0.34431
#
# Static dielectric constant tensor:
#      x y z
#    x 3.973620 0.000000 0.000000 
#    y 0.000000 3.503590 0.000000 
#    z 0.000000 0.000000 3.912620 
# 
# 
# High freq. dielectric constant tensor:
#      x y z
#    x 1.816220 0.000000 0.000000 
#    y 0.000000 1.773340 0.000000 
#    z 0.000000 0.000000 1.813300 
# 
# From -- ./inp_files/7502.got.cif
#   From: 2010.03.12/outbox.cif.g09.slc.cpg/sg72_4_cif.got.tgz:7502.got - 2010.04.16 14:54:00.
