data_PCOD8293043
_publ_section_title
;
Structure prediction by ZEFSAII (Michael W. Deem and Ramdas Pophale) SiO2 
 PCOD8293043
Probable space group: I B A M
;
_chemical_formula_sum "Si O2"
_cell_formula_units_Z 80
_cell_length_a 17.597752
_cell_length_b 15.989716
_cell_length_c 14.180465
_cell_angle_alpha 90.000000
_cell_angle_beta 90.000000
_cell_angle_gamma 90.000000
_cell_volume 3990.142587
_symmetry_space_group_name_H-M "I B A M"
_symmetry_group_IT_number 72
_symmetry_cell_setting 'orthorhombic'
loop_
_space_group_symop_operation_xyz
x,y,z
-x,-y,z
x,-y,1/2-z
-x,y,1/2-z
-x,-y,-z
x,y,-z
-x,y,1/2+z
x,-y,1/2+z
1/2+x,1/2+y,1/2+z
1/2-x,1/2-y,1/2+z
1/2+x,1/2-y,-z
1/2-x,1/2+y,-z
1/2-x,1/2-y,1/2-z
1/2+x,1/2+y,1/2-z
1/2-x,1/2+y,z
1/2+x,1/2-y,z
loop_
_atom_site_type_symbol
_atom_site_label
_atom_site_fract_x
_atom_site_fract_y
_atom_site_fract_z
Si Si1 0.696033 0.095326 0.391914
Si Si2 0.395910 0.267405 0.893805
Si Si3 0.811279 0.181028 0.726451
Si Si4 0.434277 0.773894 0.888600
Si Si5 0.576670 0.039786 0.887892
O O1 0.723610 0.082435 0.500000
O O2 0.643946 0.177555 0.386935
O O3 0.768602 0.102333 0.321531
O O4 0.648341 0.015655 0.355494
O O5 0.355340 0.335977 0.825498
O O6 0.481805 0.255027 0.858020
O O7 0.392014 0.302899 0.000000
O O8 0.750000 0.250000 0.750000
O O9 0.872195 0.211308 0.650522
O O10 0.415236 0.866298 0.848253
O O11 0.428089 0.774566 0.000000
O O12 0.500000 0.000000 0.845687
O O13 0.571293 0.040323 0.000000
#
# Coordination Sequence:
#
# PCOD8293043 Si02
#       5
#    16  16  16  16  16
#     4   9  16  29  48  72 105 142 173 215 262 311
#     4   9  17  30  48  67  95 136 182 224 263 305
#     4  10  20  31  44  67 106 139 177 213 268 322
#     4  10  18  30  51  76 102 137 180 219 263 323
#     4   9  15  27  50  77 106 141 177 210 254 314
#
# _framework density 20.049409000000001
#
# number of rings (size 3 to 8) (size 9 to 14) (size 15 to 20)
#    0.000    2.600    2.000    1.200    0.000    0.800 
#    0.000    4.000    0.000    0.000    0.000    1.400 
#    0.000   28.000    0.000  111.800    0.000    0.000 
#
# Total GULP energy -495747.338859 kJ/mol
# GULP energy per Si atom -12393.683471 kJ/mol
# Density = 2.000378 g / cm^3
# Si number density = 20.049409 Si / 1000 Ang^3
#
#
#
# Elastic Constant Matrix: (Units=GPa)
#
#
# Indices 1 2 3 4 5 6 
#
# 1 142.1439 52.5300 63.9994 0.0000 0.0000 0.0000
# 2 52.5300 43.3204 34.9543 0.0000 0.0000 0.0000
# 3 63.9994 34.9543 75.0208 0.0000 0.0000 0.0000
# 4 0.0000 0.0000 0.0000 12.8253 0.0000 0.0000
# 5 0.0000 0.0000 0.0000 0.0000 32.2164 0.0000
# 6 0.0000 0.0000 0.0000 0.0000 0.0000 33.8522
#
#
#
# Elastic Compliance Matrix: (Units=1/GPa)
#
#
# Indices 1 2 3 4 5 6 
#
# 1 0.014605 -0.012270 -0.006743 0.000000 0.000000 0.000000
# 2 -0.012270 0.047298 -0.011570 0.000000 0.000000 0.000000
# 3 -0.006743 -0.011570 0.024473 0.000000 0.000000 0.000000
# 4 0.000000 0.000000 0.000000 0.077971 0.000000 0.000000
# 5 0.000000 0.000000 0.000000 0.000000 0.031040 0.000000
# 6 0.000000 0.000000 0.000000 0.000000 0.000000 0.029540
#
#
# Mechanical properties :
#
#
# Convention : Reuss Voigt Hill
#
# Bulk Modulus (GPa) = 39.66632 62.60583 51.13608
# Shear Modulus (GPa) = 16.97817 23.04556 20.01186
#
# Velocity S-wave (km/s) = 2.91317 3.39401 3.16274
# Velocity P-wave (km/s) = 5.58056 6.83028 6.23680
#
# Compressibility (1/GPa) = 0.02521030
#
# Stress axis : x y z
#
# Youngs Moduli (GPa) = 68.46784 21.14267 40.86168
#
# Poissons Ratio (x) = 0.25941 0.27553
# Poissons Ratio (y) = 0.84008 0.47278
# Poissons Ratio (z) = 0.46167 0.24463
#
# Static dielectric constant tensor:
#      x y z
#    x 3.971910 0.000000 0.000000 
#    y 0.000000 3.277030 0.000000 
#    z 0.000000 0.000000 3.966260 
# 
# 
# High freq. dielectric constant tensor:
#      x y z
#    x 1.785130 0.000000 0.000000 
#    y 0.000000 1.717070 0.000000 
#    z 0.000000 0.000000 1.799620 
# 
# From -- ./inp_files/23100.got.cif
#   From: 2010.03.12/outbox.cif.g09.slc.cpg/sg72_12_cif.got.tgz:23100.got - 2010.04.16 14:54:00.
