data_PCOD8293120
_publ_section_title
;
Structure prediction by ZEFSAII (Michael W. Deem and Ramdas Pophale) SiO2 
 PCOD8293120
Probable space group: I B A M
;
_chemical_formula_sum "Si O2"
_cell_formula_units_Z 80
_cell_length_a 8.628055
_cell_length_b 28.881965
_cell_length_c 16.512531
_cell_angle_alpha 90.000000
_cell_angle_beta 90.000000
_cell_angle_gamma 90.000000
_cell_volume 4114.843177
_symmetry_space_group_name_H-M "I B A M"
_symmetry_group_IT_number 72
_symmetry_cell_setting 'orthorhombic'
loop_
_space_group_symop_operation_xyz
x,y,z
-x,-y,z
x,-y,1/2-z
-x,y,1/2-z
-x,-y,-z
x,y,-z
-x,y,1/2+z
x,-y,1/2+z
1/2+x,1/2+y,1/2+z
1/2-x,1/2-y,1/2+z
1/2+x,1/2-y,-z
1/2-x,1/2+y,-z
1/2-x,1/2-y,1/2-z
1/2+x,1/2+y,1/2-z
1/2-x,1/2+y,z
1/2+x,1/2-y,z
loop_
_atom_site_type_symbol
_atom_site_label
_atom_site_fract_x
_atom_site_fract_y
_atom_site_fract_z
Si Si1 0.395166 0.876414 0.825897
Si Si2 0.202170 0.794891 0.903470
Si Si3 0.649652 0.699738 0.404275
Si Si4 0.695591 0.105286 0.593092
Si Si5 0.679402 0.446647 0.762328
O O1 0.500000 0.861196 0.750000
O O2 0.303291 0.832907 0.858970
O O3 0.509798 0.895105 0.896049
O O4 0.277684 0.917180 0.802006
O O5 0.260767 0.744986 0.872883
O O6 0.026422 0.800473 0.873043
O O7 0.218756 0.800742 0.000000
O O8 0.651256 0.700455 0.500000
O O9 0.738043 0.654191 0.373298
O O10 0.739114 0.096486 0.500000
O O11 0.774931 0.065148 0.645484
O O12 0.719625 0.500000 0.750000
O O13 0.500000 0.435640 0.750000
#
# Coordination Sequence:
#
# PCOD8293120 Si02
#       5
#    16  16  16  16  16
#     4  10  21  35  54  80 110 145 182 227 281 331
#     4  10  18  32  52  77 109 147 186 226 270 325
#     4   9  18  31  53  80 110 145 183 225 270 317
#     4  10  20  37  59  85 113 147 189 230 270 330
#     4  10  22  42  62  81 111 147 181 229 290 338
#
# _framework density 19.441808999999999
#
# number of rings (size 3 to 8) (size 9 to 14) (size 15 to 20)
#    0.000    2.200    0.000    3.000    0.000    6.800 
#    0.000   16.000    0.000    0.000    0.000    0.000 
#    0.000    0.000    0.000    0.000    0.000    0.000 
#
# Total GULP energy -496061.207775 kJ/mol
# GULP energy per Si atom -12401.530194 kJ/mol
# Density = 1.939756 g / cm^3
# Si number density = 19.441809 Si / 1000 Ang^3
#
#
#
# Elastic Constant Matrix: (Units=GPa)
#
#
# Indices 1 2 3 4 5 6 
#
# 1 145.1623 80.8214 42.2123 0.0000 0.0000 0.0000
# 2 80.8214 151.7681 61.8412 -0.0001 0.0000 0.0000
# 3 42.2123 61.8412 69.1058 -0.0003 0.0000 -0.0001
# 4 0.0000 -0.0001 -0.0003 31.6604 0.0000 0.0000
# 5 0.0000 0.0000 0.0000 0.0000 27.4928 0.0000
# 6 0.0000 0.0000 -0.0001 0.0000 0.0000 36.7065
#
#
#
# Elastic Compliance Matrix: (Units=1/GPa)
#
#
# Indices 1 2 3 4 5 6 
#
# 1 0.009984 -0.004457 -0.002110 0.000000 0.000000 0.000000
# 2 -0.004457 0.012360 -0.008338 0.000000 0.000000 0.000000
# 3 -0.002110 -0.008338 0.023221 0.000000 0.000000 0.000000
# 4 0.000000 0.000000 0.000000 0.031585 0.000000 0.000000
# 5 0.000000 0.000000 0.000000 0.000000 0.036373 0.000000
# 6 0.000000 0.000000 0.000000 0.000000 0.000000 0.027243
#
#
# Mechanical properties :
#
#
# Convention : Reuss Voigt Hill
#
# Bulk Modulus (GPa) = 63.47375 81.75399 72.61387
# Shear Modulus (GPa) = 28.43672 31.24937 29.84305
#
# Velocity S-wave (km/s) = 3.82862 4.01350 3.92215
# Velocity P-wave (km/s) = 7.22934 7.97618 7.61193
#
# Compressibility (1/GPa) = 0.01575455
#
# Stress axis : x y z
#
# Youngs Moduli (GPa) = 100.16104 80.90549 43.06396
#
# Poissons Ratio (x) = 0.36059 0.09087
# Poissons Ratio (y) = 0.44641 0.35908
# Poissons Ratio (z) = 0.21135 0.67462
#
# Static dielectric constant tensor:
#      x y z
#    x 3.912910 0.000000 0.000000 
#    y 0.000000 3.565580 0.000000 
#    z 0.000000 0.000000 3.401210 
# 
# 
# High freq. dielectric constant tensor:
#      x y z
#    x 1.777110 0.000000 0.000000 
#    y 0.000000 1.752970 0.000000 
#    z 0.000000 0.000000 1.743890 
# 
# From -- ./inp_files/28091.got.cif
#   From: 2010.03.12/outbox.cif.g09.slc.cpg/sg72_15_cif.got.tgz:28091.got - 2010.04.16 14:54:00.
