data_PCOD8293744
_publ_section_title
;
Structure prediction by ZEFSAII (Michael W. Deem and Ramdas Pophale) SiO2 
 PCOD8293744
Probable space group: I B A M
;
_chemical_formula_sum "Si O2"
_cell_formula_units_Z 96
_cell_length_a 26.600769
_cell_length_b 9.874356
_cell_length_c 17.122953
_cell_angle_alpha 90.000000
_cell_angle_beta 90.000000
_cell_angle_gamma 90.000000
_cell_volume 4497.608377
_symmetry_space_group_name_H-M "I B A M"
_symmetry_group_IT_number 72
_symmetry_cell_setting 'orthorhombic'
loop_
_space_group_symop_operation_xyz
x,y,z
-x,-y,z
x,-y,1/2-z
-x,y,1/2-z
-x,-y,-z
x,y,-z
-x,y,1/2+z
x,-y,1/2+z
1/2+x,1/2+y,1/2+z
1/2-x,1/2-y,1/2+z
1/2+x,1/2-y,-z
1/2-x,1/2+y,-z
1/2-x,1/2-y,1/2-z
1/2+x,1/2+y,1/2-z
1/2-x,1/2+y,z
1/2+x,1/2-y,z
loop_
_atom_site_type_symbol
_atom_site_label
_atom_site_fract_x
_atom_site_fract_y
_atom_site_fract_z
Si Si1 0.574722 0.225916 0.907123
Si Si2 0.537647 0.266367 0.591978
Si Si3 0.224307 0.672032 0.908858
Si Si4 0.211232 0.951962 0.837124
Si Si5 0.402259 0.502197 0.661206
Si Si6 0.881858 0.444012 0.907140
O O1 0.517479 0.231161 0.875044
O O2 0.604341 0.352089 0.872059
O O3 0.603317 0.092690 0.875825
O O4 0.575777 0.232759 0.000000
O O5 0.536363 0.253331 0.500000
O O6 0.555072 0.417538 0.613726
O O7 0.577329 0.160232 0.627943
O O8 0.235897 0.807662 0.859199
O O9 0.269612 0.567263 0.896252
O O10 0.173403 0.598850 0.878559
O O11 0.220642 0.711364 0.000000
O O12 0.225543 0.000000 0.750000
O O13 0.151896 0.928089 0.847883
O O14 0.420177 0.500000 0.750000
O O15 0.884130 0.442787 0.000000
#
# Coordination Sequence:
#
# PCOD8293744 Si02
#       6
#    16  16  16  16  16  16
#     4  10  21  36  61  92 119 157 204 253 305 361
#     4  10  19  37  62  87 120 160 202 251 307 361
#     4  11  23  41  67  97 124 160 209 264 311 364
#     4  11  25  44  64  89 127 168 206 252 319 383
#     4  11  24  40  59  85 123 165 204 247 303 362
#     4   9  19  37  60  90 123 153 194 250 308 361
#
# _framework density 21.344676
#
# number of rings (size 3 to 8) (size 9 to 14) (size 15 to 20)
#    0.000    1.667    1.667    2.500    2.333    6.667 
#    0.000    0.833    0.000    2.000    0.000    0.000 
#    0.000    0.000    0.000    0.000    0.000    0.000 
#
# Total GULP energy -595352.982816 kJ/mol
# GULP energy per Si atom -12403.187142 kJ/mol
# Density = 2.129609 g / cm^3
# Si number density = 21.344676 Si / 1000 Ang^3
#
#
#
# Elastic Constant Matrix: (Units=GPa)
#
#
# Indices 1 2 3 4 5 6 
#
# 1 56.9733 27.5716 28.0636 0.0000 0.0000 0.0000
# 2 27.5716 158.6351 33.8281 0.0000 0.0000 0.0000
# 3 28.0636 33.8281 37.4054 0.0000 0.0000 0.0000
# 4 0.0000 0.0000 0.0000 22.3776 0.0000 0.0000
# 5 0.0000 0.0000 0.0000 0.0000 -13.0450 0.0000
# 6 0.0000 0.0000 0.0000 0.0000 0.0000 35.3454
#
#
#
# Elastic Compliance Matrix: (Units=1/GPa)
#
#
# Indices 1 2 3 4 5 6 
#
# 1 0.027870 -0.000477 -0.020478 0.000000 0.000000 0.000000
# 2 -0.000477 0.007818 -0.006712 0.000000 0.000000 0.000000
# 3 -0.020478 -0.006712 0.048168 0.000000 0.000000 0.000000
# 4 0.000000 0.000000 0.000000 0.044688 0.000000 0.000000
# 5 0.000000 0.000000 0.000000 0.000000 -0.076658 0.000000
# 6 0.000000 0.000000 0.000000 0.000000 0.000000 0.028292
#
#
# Mechanical properties :
#
#
# Convention : Reuss Voigt Hill
#
# Bulk Modulus (GPa) = 35.06167 47.99338 41.52753
# Shear Modulus (GPa) = 34.47784 19.83898 27.15841
#
# Velocity S-wave (km/s) = 4.02343 3.05201 3.57090
# Velocity P-wave (km/s) = 6.16815 5.91214 6.04150
#
# Compressibility (1/GPa) = 0.02852117
#
# Stress axis : x y z
#
# Youngs Moduli (GPa) = 35.88093 127.90844 20.76048
#
# Poissons Ratio (x) = 0.06103 0.42514
# Poissons Ratio (y) = 0.01712 0.13935
# Poissons Ratio (z) = 0.73477 0.85858
#
# Static dielectric constant tensor:
#      x y z
#    x 3.936840 0.000000 0.000000 
#    y 0.000000 3.980140 0.000000 
#    z 0.000000 0.000000 3.496920 
# 
# 
# High freq. dielectric constant tensor:
#      x y z
#    x 1.842790 0.000000 0.000000 
#    y 0.000000 1.850520 0.000000 
#    z 0.000000 0.000000 1.807480 
# 
# From -- ./inp_files/40704.got.cif
#   From: 2010.03.12/outbox.cif.g09.slc.cpg/sg72_21_cif.got.tgz:40704.got - 2010.04.16 14:54:00.
