data_PCOD8293530
_publ_section_title
;
Structure prediction by ZEFSAII (Michael W. Deem and Ramdas Pophale) SiO2 
 PCOD8293530
Probable space group: I B A M
;
_chemical_formula_sum "Si O2"
_cell_formula_units_Z 88
_cell_length_a 13.027466
_cell_length_b 23.396485
_cell_length_c 13.766998
_cell_angle_alpha 90.000000
_cell_angle_beta 90.000000
_cell_angle_gamma 90.000000
_cell_volume 4196.138490
_symmetry_space_group_name_H-M "I B A M"
_symmetry_group_IT_number 72
_symmetry_cell_setting 'orthorhombic'
loop_
_space_group_symop_operation_xyz
x,y,z
-x,-y,z
x,-y,1/2-z
-x,y,1/2-z
-x,-y,-z
x,y,-z
-x,y,1/2+z
x,-y,1/2+z
1/2+x,1/2+y,1/2+z
1/2-x,1/2-y,1/2+z
1/2+x,1/2-y,-z
1/2-x,1/2+y,-z
1/2-x,1/2-y,1/2-z
1/2+x,1/2+y,1/2-z
1/2-x,1/2+y,z
1/2+x,1/2-y,z
loop_
_atom_site_type_symbol
_atom_site_label
_atom_site_fract_x
_atom_site_fract_y
_atom_site_fract_z
Si Si1 0.698687 0.645814 0.211767
Si Si2 0.000000 0.207716 0.750000
Si Si3 0.718814 0.039021 0.887443
Si Si4 0.486659 0.088609 0.607918
Si Si5 0.620077 0.791823 0.610438
Si Si6 0.788072 0.410693 0.886582
O O1 0.583464 0.667771 0.197297
O O2 0.704785 0.583294 0.163209
O O3 0.773357 0.692810 0.163793
O O4 0.724622 0.636510 0.326433
O O5 0.940657 0.243627 0.668762
O O6 0.602034 0.048090 0.846421
O O7 0.757585 0.974529 0.870373
O O8 0.716509 0.056050 0.000000
O O9 0.510017 0.065987 0.500000
O O10 0.451672 0.153538 0.608894
O O11 0.597004 0.087229 0.660489
O O12 0.642699 0.771217 0.500000
O O13 0.785127 0.392840 0.000000
#
# Coordination Sequence:
#
# PCOD8293530 Si02
#       6
#    16   8  16  16  16  16
#     4  11  23  40  59  85 117 151 197 249 298 353
#     4  12  26  42  61  84 115 158 206 246 298 358
#     4   9  18  34  57  86 119 157 198 243 300 358
#     4   8  15  30  55  86 116 144 179 230 295 360
#     4  10  22  41  64  89 116 149 194 249 307 362
#     4  10  19  33  56  87 124 160 195 240 297 362
#
# _framework density 20.971661000000001
#
# number of rings (size 3 to 8) (size 9 to 14) (size 15 to 20)
#    0.000    2.182    0.000    4.364    0.000    6.545 
#    0.000    7.273    0.000    2.182    0.000    0.000 
#    0.000    0.000    0.000    0.000    0.000    0.000 
#
# Total GULP energy -545377.271165 kJ/mol
# GULP energy per Si atom -12394.937981 kJ/mol
# Density = 2.092393 g / cm^3
# Si number density = 20.971661 Si / 1000 Ang^3
#
#
#
# Elastic Constant Matrix: (Units=GPa)
#
#
# Indices 1 2 3 4 5 6 
#
# 1 118.9015 53.6539 47.6952 0.0000 0.0000 0.0000
# 2 53.6539 53.2218 36.3451 -0.0002 0.0002 0.0002
# 3 47.6952 36.3451 112.2712 -0.0001 0.0001 0.0002
# 4 0.0000 -0.0002 -0.0001 28.6899 0.0001 0.0002
# 5 0.0000 0.0002 0.0001 0.0001 13.5045 -0.0001
# 6 0.0000 0.0002 0.0002 0.0002 -0.0001 5.4443
#
#
#
# Elastic Compliance Matrix: (Units=1/GPa)
#
#
# Indices 1 2 3 4 5 6 
#
# 1 0.015769 -0.014536 -0.001993 0.000000 0.000000 0.000001
# 2 -0.014536 0.037521 -0.005971 0.000000 -0.000001 -0.000002
# 3 -0.001993 -0.005971 0.011687 0.000000 0.000000 0.000000
# 4 0.000000 0.000000 0.000000 0.034855 0.000000 -0.000001
# 5 0.000000 -0.000001 0.000000 0.000000 0.074050 0.000002
# 6 0.000001 -0.000002 0.000000 -0.000001 0.000002 0.183678
#
#
# Mechanical properties :
#
#
# Convention : Reuss Voigt Hill
#
# Bulk Modulus (GPa) = 50.06065 62.19809 56.12937
# Shear Modulus (GPa) = 12.21834 19.30775 15.76305
#
# Velocity S-wave (km/s) = 2.41635 3.03753 2.74457
# Velocity P-wave (km/s) = 5.63094 6.48264 6.07174
#
# Compressibility (1/GPa) = 0.01997577
#
# Stress axis : x y z
#
# Youngs Moduli (GPa) = 63.41444 26.65163 85.56553
#
# Poissons Ratio (x) = 0.38741 0.17057
# Poissons Ratio (y) = 0.92179 0.51094
# Poissons Ratio (z) = 0.12641 0.15915
#
# Static dielectric constant tensor:
#      x y z
#    x 3.552530 0.000000 0.000000 
#    y 0.000000 3.703880 0.000000 
#    z 0.000000 0.000000 3.990340 
# 
# 
# High freq. dielectric constant tensor:
#      x y z
#    x 1.784350 0.000000 0.000000 
#    y 0.000000 1.819530 0.000000 
#    z 0.000000 0.000000 1.831640 
# 
# From -- ./inp_files/20289.got.cif
#   From: 2010.03.12/outbox.cif.g09.slc.cpg/sg72_11_cif.got.tgz:20289.got - 2010.04.16 14:54:00.
