data_PCOD8293750
_publ_section_title
;
Structure prediction by ZEFSAII (Michael W. Deem and Ramdas Pophale) SiO2 
 PCOD8293750
Probable space group: I B A M
;
_chemical_formula_sum "Si O2"
_cell_formula_units_Z 52
_cell_length_a 22.652937
_cell_length_b 6.568243
_cell_length_c 13.095765
_cell_angle_alpha 90.000000
_cell_angle_beta 90.000000
_cell_angle_gamma 90.000000
_cell_volume 1948.518807
_symmetry_space_group_name_H-M "I B A M"
_symmetry_group_IT_number 72
_symmetry_cell_setting 'orthorhombic'
loop_
_space_group_symop_operation_xyz
x,y,z
-x,-y,z
x,-y,1/2-z
-x,y,1/2-z
-x,-y,-z
x,y,-z
-x,y,1/2+z
x,-y,1/2+z
1/2+x,1/2+y,1/2+z
1/2-x,1/2-y,1/2+z
1/2+x,1/2-y,-z
1/2-x,1/2+y,-z
1/2-x,1/2-y,1/2-z
1/2+x,1/2+y,1/2-z
1/2-x,1/2+y,z
1/2+x,1/2-y,z
loop_
_atom_site_type_symbol
_atom_site_label
_atom_site_fract_x
_atom_site_fract_y
_atom_site_fract_z
Si Si1 0.048098 0.837943 0.616841
Si Si2 0.801812 0.348634 0.114008
Si Si3 0.000000 0.500000 0.750000
Si Si4 0.826395 0.796088 0.171065
O O1 0.035005 0.788661 0.500000
O O2 0.042968 0.631767 0.680180
O O3 0.115006 0.917343 0.634584
O O4 0.000000 0.000000 0.657126
O O5 0.833451 0.562583 0.135371
O O6 0.819915 0.188193 0.204077
O O7 0.731426 0.392813 0.118296
O O8 0.819444 0.271201 0.000000
#
# Coordination Sequence:
#
# PCOD8293750 Si02
#       4
#    16  16   4  16
#     4  11  25  48  74 103 146 198 249 308 375 442
#     4  10  19  37  65 102 142 184 229 295 368 433
#     4  12  24  48  72 104 136 188 256 312 358 440
#     4  10  22  40  64 102 141 181 237 294 359 446
#
# _framework density 26.686938000000001
#
# number of rings (size 3 to 8) (size 9 to 14) (size 15 to 20)
#    0.000    1.538    0.000    5.538    0.000    0.000 
#   27.692    1.538    0.000    2.769    0.000    0.000 
#    0.000    0.000    0.000    0.000    0.000    0.000 
#
# Total GULP energy -322487.091093 kJ/mol
# GULP energy per Si atom -12403.349657 kJ/mol
# Density = 2.662620 g / cm^3
# Si number density = 26.686938 Si / 1000 Ang^3
#
#
#
# Elastic Constant Matrix: (Units=GPa)
#
#
# Indices 1 2 3 4 5 6 
#
# 1 180.4968 34.8050 26.0808 0.0000 0.0000 0.0000
# 2 34.8050 47.5967 41.6432 0.0000 0.0000 0.0000
# 3 26.0808 41.6432 216.0307 0.0000 0.0000 0.0000
# 4 0.0000 0.0000 0.0000 39.5206 0.0000 0.0000
# 5 0.0000 0.0000 0.0000 0.0000 38.1570 0.0000
# 6 0.0000 0.0000 0.0000 0.0000 0.0000 38.8778
#
#
#
# Elastic Compliance Matrix: (Units=1/GPa)
#
#
# Indices 1 2 3 4 5 6 
#
# 1 0.006454 -0.004857 0.000157 0.000000 0.000000 0.000000
# 2 -0.004857 0.028927 -0.004990 0.000000 0.000000 0.000000
# 3 0.000157 -0.004990 0.005572 0.000000 0.000000 0.000000
# 4 0.000000 0.000000 0.000000 0.025303 0.000000 0.000000
# 5 0.000000 0.000000 0.000000 0.000000 0.026207 0.000000
# 6 0.000000 0.000000 0.000000 0.000000 0.000000 0.025722
#
#
# Mechanical properties :
#
#
# Convention : Reuss Voigt Hill
#
# Bulk Modulus (GPa) = 46.35259 72.13135 59.24197
# Shear Modulus (GPa) = 34.54081 46.08410 40.31246
#
# Velocity S-wave (km/s) = 3.60154 4.16004 3.89082
# Velocity P-wave (km/s) = 5.89080 7.08251 6.51396
#
# Compressibility (1/GPa) = 0.02157377
#
# Stress axis : x y z
#
# Youngs Moduli (GPa) = 154.93928 34.56952 179.47301
#
# Poissons Ratio (x) = 0.16790 -0.02819
# Poissons Ratio (y) = 0.75254 0.89553
# Poissons Ratio (z) = -0.02434 0.17249
#
# Static dielectric constant tensor:
#      x y z
#    x 4.685370 0.000000 0.000000 
#    y 0.000000 4.673890 0.000000 
#    z 0.000000 0.000000 4.982280 
# 
# 
# High freq. dielectric constant tensor:
#      x y z
#    x 2.062280 0.000000 0.000000 
#    y 0.000000 2.074950 0.000000 
#    z 0.000000 0.000000 2.087680 
# 
# From -- ./inp_files/23730.got.cif
#   From: 2010.03.12/outbox.cif.g09.slc.cpg/sg72_12_cif.got.tgz:23730.got - 2010.04.16 14:54:00.
