data_PCOD8293690
_publ_section_title
;
Structure prediction by ZEFSAII (Michael W. Deem and Ramdas Pophale) SiO2 
 PCOD8293690
Probable space group: I B A M
;
_chemical_formula_sum "Si O2"
_cell_formula_units_Z 116
_cell_length_a 27.309057
_cell_length_b 21.084059
_cell_length_c 8.745572
_cell_angle_alpha 90.000000
_cell_angle_beta 90.000000
_cell_angle_gamma 90.000000
_cell_volume 5035.575900
_symmetry_space_group_name_H-M "I B A M"
_symmetry_group_IT_number 72
_symmetry_cell_setting 'orthorhombic'
loop_
_space_group_symop_operation_xyz
x,y,z
-x,-y,z
x,-y,1/2-z
-x,y,1/2-z
-x,-y,-z
x,y,-z
-x,y,1/2+z
x,-y,1/2+z
1/2+x,1/2+y,1/2+z
1/2-x,1/2-y,1/2+z
1/2+x,1/2-y,-z
1/2-x,1/2+y,-z
1/2-x,1/2-y,1/2-z
1/2+x,1/2+y,1/2-z
1/2-x,1/2+y,z
1/2+x,1/2-y,z
loop_
_atom_site_type_symbol
_atom_site_label
_atom_site_fract_x
_atom_site_fract_y
_atom_site_fract_z
Si Si1 0.220634 0.377791 0.319170
Si Si2 0.628859 0.063645 0.180230
Si Si3 0.500000 0.500000 0.750000
Si Si4 0.452657 0.140869 0.176423
Si Si5 0.680524 0.383181 0.321163
Si Si6 0.180265 0.251263 0.172711
Si Si7 0.081692 0.098805 0.829357
Si Si8 0.931453 0.759906 0.829793
O O1 0.216694 0.371452 0.500000
O O2 0.181250 0.426966 0.257167
O O3 0.272323 0.409559 0.269603
O O4 0.212214 0.308245 0.244209
O O5 0.594184 0.120732 0.227679
O O6 0.605504 0.000000 0.250000
O O7 0.634508 0.060057 0.000000
O O8 0.462227 0.453267 0.662807
O O9 0.500000 0.106446 0.250000
O O10 0.458640 0.216644 0.204075
O O11 0.447292 0.123395 0.000000
O O12 0.686655 0.394980 0.500000
O O13 0.681901 0.308919 0.283384
O O14 0.629772 0.418784 0.270637
O O15 0.123447 0.267505 0.162167
O O16 0.200288 0.236618 0.000000
O O17 0.062603 0.167339 0.771524
O O18 0.101840 0.108433 0.000000
O O19 0.954604 0.752476 0.000000
#
# Coordination Sequence:
#
# PCOD8293690 Si02
#       8
#    16  16   4  16  16  16  16  16
#     4  12  23  39  65  98 136 181 228 279 344 412
#     4  12  26  47  70  98 135 178 230 281 339 411
#     4  12  26  48  80 110 134 184 238 290 364 424
#     4  12  25  42  67 100 136 178 227 281 342 400
#     4  11  23  40  64  98 137 178 229 285 344 410
#     4  10  19  35  62  96 138 181 223 277 345 415
#     4  10  24  46  70  99 137 177 227 284 347 417
#     4   9  19  38  64  96 135 177 223 283 346 411
#
# _framework density 23.036095
#
# number of rings (size 3 to 8) (size 9 to 14) (size 15 to 20)
#    0.000    1.103    1.379    6.828    0.966    3.586 
#    1.241    1.379    0.000    0.000    0.000    0.000 
#    0.000    0.000    0.000    0.000    0.000    0.000 
#
# Total GULP energy -718768.981692 kJ/mol
# GULP energy per Si atom -12392.568650 kJ/mol
# Density = 2.298366 g / cm^3
# Si number density = 23.036095 Si / 1000 Ang^3
#
#
#
# Elastic Constant Matrix: (Units=GPa)
#
#
# Indices 1 2 3 4 5 6 
#
# 1 126.9532 37.3984 48.0247 0.0000 0.0000 0.0000
# 2 37.3984 81.3183 26.2910 0.0000 0.0000 0.0000
# 3 48.0247 26.2910 151.1384 0.0000 0.0000 0.0000
# 4 0.0000 0.0000 0.0000 23.1921 0.0000 0.0000
# 5 0.0000 0.0000 0.0000 0.0000 33.3128 0.0000
# 6 0.0000 0.0000 0.0000 0.0000 0.0000 41.3795
#
#
#
# Elastic Compliance Matrix: (Units=1/GPa)
#
#
# Indices 1 2 3 4 5 6 
#
# 1 0.009930 -0.003758 -0.002502 0.000000 0.000000 0.000000
# 2 -0.003758 0.014452 -0.001320 0.000000 0.000000 0.000000
# 3 -0.002502 -0.001320 0.007641 0.000000 0.000000 0.000000
# 4 0.000000 0.000000 0.000000 0.043118 0.000000 0.000000
# 5 0.000000 0.000000 0.000000 0.000000 0.030018 0.000000
# 6 0.000000 0.000000 0.000000 0.000000 0.000000 0.024167
#
#
# Mechanical properties :
#
#
# Convention : Reuss Voigt Hill
#
# Bulk Modulus (GPa) = 59.29664 64.75980 62.02822
# Shear Modulus (GPa) = 33.30938 36.08993 34.69966
#
# Velocity S-wave (km/s) = 3.80671 3.96241 3.88534
# Velocity P-wave (km/s) = 6.71699 7.00768 6.86388
#
# Compressibility (1/GPa) = 0.01686436
#
# Stress axis : x y z
#
# Youngs Moduli (GPa) = 100.70131 69.19235 130.87359
#
# Poissons Ratio (x) = 0.26004 0.32740
# Poissons Ratio (y) = 0.37845 0.17274
# Poissons Ratio (z) = 0.25192 0.09133
#
# Static dielectric constant tensor:
#      x y z
#    x 4.274560 0.000000 0.000000 
#    y 0.000000 3.964920 0.000000 
#    z 0.000000 0.000000 3.976980 
# 
# 
# High freq. dielectric constant tensor:
#      x y z
#    x 1.925310 0.000000 0.000000 
#    y 0.000000 1.894750 0.000000 
#    z 0.000000 0.000000 1.908300 
# 
# From -- ./inp_files/8432.got.cif
#   From: 2010.03.12/outbox.cif.g09.slc.cpg/sg72_5_cif.got.tgz:8432.got - 2010.04.16 14:54:00.
