data_PCOD8293063
_publ_section_title
;
Structure prediction by ZEFSAII (Michael W. Deem and Ramdas Pophale) SiO2 
 PCOD8293063
Probable space group: I B A M
;
_chemical_formula_sum "Si O2"
_cell_formula_units_Z 60
_cell_length_a 17.325087
_cell_length_b 5.302450
_cell_length_c 31.356633
_cell_angle_alpha 90.000000
_cell_angle_beta 90.000000
_cell_angle_gamma 90.000000
_cell_volume 2880.589870
_symmetry_space_group_name_H-M "I B A M"
_symmetry_group_IT_number 72
_symmetry_cell_setting 'orthorhombic'
loop_
_space_group_symop_operation_xyz
x,y,z
-x,-y,z
x,-y,1/2-z
-x,y,1/2-z
-x,-y,-z
x,y,-z
-x,y,1/2+z
x,-y,1/2+z
1/2+x,1/2+y,1/2+z
1/2-x,1/2-y,1/2+z
1/2+x,1/2-y,-z
1/2-x,1/2+y,-z
1/2-x,1/2-y,1/2-z
1/2+x,1/2+y,1/2-z
1/2-x,1/2+y,z
1/2+x,1/2-y,z
loop_
_atom_site_type_symbol
_atom_site_label
_atom_site_fract_x
_atom_site_fract_y
_atom_site_fract_z
Si Si1 0.668355 0.743380 0.371696
Si Si2 0.500000 0.000000 0.750000
Si Si3 0.852979 0.740365 0.774829
Si Si4 0.340316 0.243482 0.092706
Si Si5 0.700084 0.220883 0.500000
O O1 0.683814 0.737453 0.321336
O O2 0.621350 0.493981 0.386585
O O3 0.749366 0.744005 0.396413
O O4 0.621593 0.994543 0.385878
O O5 0.555037 0.820554 0.721053
O O6 0.813323 0.500000 0.750000
O O7 0.838802 0.000000 0.750000
O O8 0.353323 0.243030 0.041877
O O9 0.761261 0.446708 0.500000
#
# Coordination Sequence:
#
# PCOD8293063 Si02
#       5
#    16   4  16  16   8
#     4  10  18  31  46  68  98 127 161 196 226 274
#     4   8  22  36  54  68  86 118 162 208 254 282
#     4  10  20  35  52  68  91 124 159 204 243 284
#     4  10  19  30  45  71 103 132 157 192 219 277
#     4  12  16  30  46  66 100 138 165 184 229 258
#
# _framework density 20.829066000000001
#
# number of rings (size 3 to 8) (size 9 to 14) (size 15 to 20)
#    0.800    1.067    5.333    2.000    0.000    0.000 
#    0.000   16.000    0.000    0.000    0.000    0.000 
#    0.000   11.733    0.000    0.000    0.000    0.000 
#
# Total GULP energy -371671.631817 kJ/mol
# GULP energy per Si atom -12389.054394 kJ/mol
# Density = 2.078166 g / cm^3
# Si number density = 20.829066 Si / 1000 Ang^3
#
#
#
# Elastic Constant Matrix: (Units=GPa)
#
#
# Indices 1 2 3 4 5 6 
#
# 1 22.0956 -7.7964 -2.1055 0.0000 0.0000 0.0000
# 2 -7.7964 233.7197 80.6218 0.0000 0.0000 0.0000
# 3 -2.1055 80.6218 195.1519 0.0000 0.0000 0.0000
# 4 0.0000 0.0000 0.0000 43.0081 0.0000 0.0000
# 5 0.0000 0.0000 0.0000 0.0000 4.3929 0.0000
# 6 0.0000 0.0000 0.0000 0.0000 0.0000 -15.7143
#
#
#
# Elastic Compliance Matrix: (Units=1/GPa)
#
#
# Indices 1 2 3 4 5 6 
#
# 1 0.045801 0.001583 -0.000160 0.000000 0.000000 0.000000
# 2 0.001583 0.005044 -0.002067 0.000000 0.000000 0.000000
# 3 -0.000160 -0.002067 0.005976 0.000000 0.000000 0.000000
# 4 0.000000 0.000000 0.000000 0.023251 0.000000 0.000000
# 5 0.000000 0.000000 0.000000 0.000000 0.227639 0.000000
# 6 0.000000 0.000000 0.000000 0.000000 0.000000 -0.063636
#
#
# Mechanical properties :
#
#
# Convention : Reuss Voigt Hill
#
# Bulk Modulus (GPa) = 18.00683 65.82301 41.91492
# Shear Modulus (GPa) = 18.94833 31.68715 25.31774
#
# Velocity S-wave (km/s) = 3.01941 3.90461 3.49019
# Velocity P-wave (km/s) = 4.56285 7.21097 6.03397
#
# Compressibility (1/GPa) = 0.05553447
#
# Stress axis : x y z
#
# Youngs Moduli (GPa) = 21.83350 198.23937 167.32566
#
# Poissons Ratio (x) = -0.31380 0.02674
# Poissons Ratio (y) = -0.03456 0.34584
# Poissons Ratio (z) = 0.00349 0.40974
#
# Static dielectric constant tensor:
#      x y z
#    x 2.910130 0.000000 0.000000 
#    y 0.000000 6.657760 0.000000 
#    z 0.000000 0.000000 3.803190 
# 
# 
# High freq. dielectric constant tensor:
#      x y z
#    x 1.715530 0.000000 0.000000 
#    y 0.000000 1.859770 0.000000 
#    z 0.000000 0.000000 1.821510 
# 
# From -- ./inp_files/46071.got.cif
#   From: 2010.03.12/outbox.cif.g09.slc.cpg/sg72_24_cif.got.tgz:46071.got - 2010.04.16 14:54:00.
