data_PCOD8293900
_publ_section_title
;
Structure prediction by ZEFSAII (Michael W. Deem and Ramdas Pophale) SiO2 
 PCOD8293900
Probable space group: I B A M
;
_chemical_formula_sum "Si O2"
_cell_formula_units_Z 88
_cell_length_a 13.991535
_cell_length_b 24.111448
_cell_length_c 14.180201
_cell_angle_alpha 90.000000
_cell_angle_beta 90.000000
_cell_angle_gamma 90.000000
_cell_volume 4783.778279
_symmetry_space_group_name_H-M "I B A M"
_symmetry_group_IT_number 72
_symmetry_cell_setting 'orthorhombic'
loop_
_space_group_symop_operation_xyz
x,y,z
-x,-y,z
x,-y,1/2-z
-x,y,1/2-z
-x,-y,-z
x,y,-z
-x,y,1/2+z
x,-y,1/2+z
1/2+x,1/2+y,1/2+z
1/2-x,1/2-y,1/2+z
1/2+x,1/2-y,-z
1/2-x,1/2+y,-z
1/2-x,1/2-y,1/2-z
1/2+x,1/2+y,1/2-z
1/2-x,1/2+y,z
1/2+x,1/2-y,z
loop_
_atom_site_type_symbol
_atom_site_label
_atom_site_fract_x
_atom_site_fract_y
_atom_site_fract_z
Si Si1 0.731943 0.762307 0.606463
Si Si2 0.007464 0.720949 0.396117
Si Si3 0.157007 0.438089 0.742871
Si Si4 0.294298 0.337931 0.734701
Si Si5 0.500000 0.691607 0.750000
Si Si6 0.504304 0.904323 0.611522
O O1 0.772107 0.759616 0.500000
O O2 0.620079 0.772453 0.607047
O O3 0.753258 0.703795 0.658388
O O4 0.779454 0.813810 0.660549
O O5 0.966604 0.731308 0.500000
O O6 0.958460 0.767071 0.330675
O O7 0.980831 0.659348 0.362661
O O8 0.199215 0.500000 0.750000
O O9 0.246017 0.397668 0.723331
O O10 0.103638 0.421340 0.839502
O O11 0.083031 0.439002 0.655087
O O12 0.409263 0.345164 0.717457
O O13 0.513863 0.914839 0.500000
#
# Coordination Sequence:
#
# PCOD8293900 Si02
#       6
#    16  16  16  16   8  16
#     4   9  18  33  54  78 106 135 167 215 270 323
#     4   9  17  30  51  80 109 133 164 207 261 324
#     4  11  23  37  53  77 110 145 185 226 262 311
#     4  10  21  35  53  77 107 141 181 220 265 312
#     4  10  20  34  51  74 109 142 172 218 266 310
#     4  10  20  35  56  82 111 142 175 213 267 331
#
# _framework density 18.395500999999999
#
# number of rings (size 3 to 8) (size 9 to 14) (size 15 to 20)
#    0.000    2.182    1.818    2.182    5.091    2.909 
#    0.000    0.455    0.000    0.000    0.000    0.000 
#    0.000   10.182    0.000    0.000    0.000    0.000 
#
# Total GULP energy -545528.954241 kJ/mol
# GULP energy per Si atom -12398.385324 kJ/mol
# Density = 1.835363 g / cm^3
# Si number density = 18.395501 Si / 1000 Ang^3
#
#
#
# Elastic Constant Matrix: (Units=GPa)
#
#
# Indices 1 2 3 4 5 6 
#
# 1 31.5041 23.4580 -4.6496 0.0003 0.0000 0.0000
# 2 23.4580 95.5073 21.4931 -0.0001 0.0000 0.0000
# 3 -4.6496 21.4931 110.6142 -0.0003 -0.0001 0.0000
# 4 0.0003 -0.0001 -0.0003 12.6448 0.0000 0.0000
# 5 0.0000 0.0000 -0.0001 0.0000 13.9286 0.0000
# 6 0.0000 0.0000 0.0000 0.0000 0.0000 25.2822
#
#
#
# Elastic Compliance Matrix: (Units=1/GPa)
#
#
# Indices 1 2 3 4 5 6 
#
# 1 0.040305 -0.010751 0.003783 -0.000001 0.000000 0.000000
# 2 -0.010751 0.013817 -0.003137 0.000000 0.000000 0.000000
# 3 0.003783 -0.003137 0.009809 0.000000 0.000000 0.000000
# 4 -0.000001 0.000000 0.000000 0.079084 0.000000 0.000000
# 5 0.000000 0.000000 0.000000 0.000000 0.071795 0.000000
# 6 0.000000 0.000000 0.000000 0.000000 0.000000 0.039553
#
#
# Mechanical properties :
#
#
# Convention : Reuss Voigt Hill
#
# Bulk Modulus (GPa) = 22.87156 35.35873 29.11514
# Shear Modulus (GPa) = 17.29227 23.52606 20.40916
#
# Velocity S-wave (km/s) = 3.06931 3.58005 3.33448
# Velocity P-wave (km/s) = 5.00211 6.02928 5.53955
#
# Compressibility (1/GPa) = 0.04372242
#
# Stress axis : x y z
#
# Youngs Moduli (GPa) = 24.81053 72.37522 101.94797
#
# Poissons Ratio (x) = 0.77811 -0.38569
# Poissons Ratio (y) = 0.26674 0.31977
# Poissons Ratio (z) = -0.09386 0.22701
#
# Static dielectric constant tensor:
#      x y z
#    x 3.210910 0.000000 0.000000 
#    y 0.000000 3.203400 0.000000 
#    z 0.000000 0.000000 3.742530 
# 
# 
# High freq. dielectric constant tensor:
#      x y z
#    x 1.704300 0.000000 0.000000 
#    y 0.000000 1.684310 0.000000 
#    z 0.000000 0.000000 1.720620 
# 
# From -- ./inp_files/21987.got.cif
#   From: 2010.03.12/outbox.cif.g09.slc.cpg/sg72_11_cif.got.tgz:21987.got - 2010.04.16 14:54:00.
