data_PCOD8293734
_publ_section_title
;
Structure prediction by ZEFSAII (Michael W. Deem and Ramdas Pophale) SiO2 
 PCOD8293734
Probable space group: I B A M
;
_chemical_formula_sum "Si O2"
_cell_formula_units_Z 112
_cell_length_a 10.773721
_cell_length_b 31.078325
_cell_length_c 17.247681
_cell_angle_alpha 90.000000
_cell_angle_beta 90.000000
_cell_angle_gamma 90.000000
_cell_volume 5775.027278
_symmetry_space_group_name_H-M "I B A M"
_symmetry_group_IT_number 72
_symmetry_cell_setting 'orthorhombic'
loop_
_space_group_symop_operation_xyz
x,y,z
-x,-y,z
x,-y,1/2-z
-x,y,1/2-z
-x,-y,-z
x,y,-z
-x,y,1/2+z
x,-y,1/2+z
1/2+x,1/2+y,1/2+z
1/2-x,1/2-y,1/2+z
1/2+x,1/2-y,-z
1/2-x,1/2+y,-z
1/2-x,1/2-y,1/2-z
1/2+x,1/2+y,1/2-z
1/2-x,1/2+y,z
1/2+x,1/2-y,z
loop_
_atom_site_type_symbol
_atom_site_label
_atom_site_fract_x
_atom_site_fract_y
_atom_site_fract_z
Si Si1 0.087566 0.040227 0.411843
Si Si2 0.954684 0.439326 0.911594
Si Si3 0.467674 0.379764 0.662221
Si Si4 0.780519 0.635332 0.411623
Si Si5 0.670562 0.014780 0.837320
Si Si6 0.258865 0.233500 0.089402
Si Si7 0.006885 0.781656 0.159279
O O1 0.135751 0.039717 0.500000
O O2 0.198415 0.036561 0.351237
O O3 0.023427 0.085697 0.396468
O O4 0.000000 0.000000 0.395239
O O5 0.906101 0.391184 0.895873
O O6 0.846009 0.474013 0.894597
O O7 0.067943 0.448736 0.854139
O O8 0.998978 0.444486 0.000000
O O9 0.500000 0.392285 0.750000
O O10 0.319940 0.381035 0.650217
O O11 0.515689 0.332298 0.639809
O O12 0.733499 0.627211 0.500000
O O13 0.808406 0.685252 0.398314
O O14 0.656317 0.000000 0.750000
O O15 0.118546 0.239126 0.122745
O O16 0.363139 0.262776 0.129202
O O17 0.251357 0.246563 0.000000
O O18 0.000000 0.773169 0.250000
#
# Coordination Sequence:
#
# PCOD8293734 Si02
#       7
#    16  16  16  16  16  16  16
#     4  11  24  39  58  84 114 152 196 240 293 352
#     4  10  19  37  59  77 109 154 195 237 291 349
#     4  10  22  37  59  87 119 153 194 244 297 355
#     4   9  19  36  60  84 114 155 198 238 291 357
#     4  11  23  36  54  82 115 148 190 243 292 343
#     4  10  20  37  62  91 120 159 206 249 297 365
#     4  10  21  40  61  89 125 162 200 250 313 364
#
# _framework density 19.393847000000001
#
# number of rings (size 3 to 8) (size 9 to 14) (size 15 to 20)
#    0.000    1.857    0.000    4.714    4.000    4.000 
#    2.571    1.429    0.000    0.000    0.000    0.000 
#    0.000    0.000    0.000    0.000    0.000    0.000 
#
# Total GULP energy -694370.691550 kJ/mol
# GULP energy per Si atom -12399.476635 kJ/mol
# Density = 1.934971 g / cm^3
# Si number density = 19.393847 Si / 1000 Ang^3
#
#
#
# Elastic Constant Matrix: (Units=GPa)
#
#
# Indices 1 2 3 4 5 6 
#
# 1 107.7442 60.8399 61.7973 0.0000 0.0000 0.0000
# 2 60.8399 85.2396 45.0797 0.0000 0.0000 0.0000
# 3 61.7973 45.0797 121.3421 0.0000 0.0000 0.0001
# 4 0.0000 0.0000 0.0000 -9.0036 0.0002 0.0000
# 5 0.0000 0.0000 0.0000 0.0002 34.0143 0.0000
# 6 0.0000 0.0000 0.0001 0.0000 0.0000 32.7976
#
#
#
# Elastic Compliance Matrix: (Units=1/GPa)
#
#
# Indices 1 2 3 4 5 6 
#
# 1 0.018077 -0.009998 -0.005492 0.000000 0.000000 0.000000
# 2 -0.009998 0.020130 -0.002387 0.000000 0.000000 0.000000
# 3 -0.005492 -0.002387 0.011925 0.000000 0.000000 0.000000
# 4 0.000000 0.000000 0.000000 -0.111067 0.000001 0.000000
# 5 0.000000 0.000000 0.000000 0.000001 0.029399 0.000000
# 6 0.000000 0.000000 0.000000 0.000000 0.000000 0.030490
#
#
# Mechanical properties :
#
#
# Convention : Reuss Voigt Hill
#
# Bulk Modulus (GPa) = 69.54833 72.19552 70.87193
# Shear Modulus (GPa) = 126.58577 21.33560 73.96068
#
# Velocity S-wave (km/s) = 8.08782 3.32041 6.18215
# Velocity P-wave (km/s) = 11.09756 7.21158 9.35850
#
# Compressibility (1/GPa) = 0.01437849
#
# Stress axis : x y z
#
# Youngs Moduli (GPa) = 55.32038 49.67761 83.85949
#
# Poissons Ratio (x) = 0.49667 0.46054
# Poissons Ratio (y) = 0.55308 0.20015
# Poissons Ratio (z) = 0.30381 0.11857
#
# Static dielectric constant tensor:
#      x y z
#    x 3.460680 0.000000 0.000000 
#    y 0.000000 3.580710 0.000000 
#    z 0.000000 0.000000 3.579260 
# 
# 
# High freq. dielectric constant tensor:
#      x y z
#    x 1.751630 0.000000 0.000000 
#    y 0.000000 1.752840 0.000000 
#    z 0.000000 0.000000 1.763500 
# 
# From -- ./inp_files/20725.got.cif
#   From: 2010.03.12/outbox.cif.g09.slc.cpg/sg72_11_cif.got.tgz:20725.got - 2010.04.16 14:54:00.
