data_PCOD8293643
_publ_section_title
;
Structure prediction by ZEFSAII (Michael W. Deem and Ramdas Pophale) SiO2 
 PCOD8293643
Probable space group: I B A M
;
_chemical_formula_sum "Si O2"
_cell_formula_units_Z 88
_cell_length_a 13.755728
_cell_length_b 10.152438
_cell_length_c 28.769137
_cell_angle_alpha 90.000000
_cell_angle_beta 90.000000
_cell_angle_gamma 90.000000
_cell_volume 4017.730112
_symmetry_space_group_name_H-M "I B A M"
_symmetry_group_IT_number 72
_symmetry_cell_setting 'orthorhombic'
loop_
_space_group_symop_operation_xyz
x,y,z
-x,-y,z
x,-y,1/2-z
-x,y,1/2-z
-x,-y,-z
x,y,-z
-x,y,1/2+z
x,-y,1/2+z
1/2+x,1/2+y,1/2+z
1/2-x,1/2-y,1/2+z
1/2+x,1/2-y,-z
1/2-x,1/2+y,-z
1/2-x,1/2-y,1/2-z
1/2+x,1/2+y,1/2-z
1/2-x,1/2+y,z
1/2+x,1/2-y,z
loop_
_atom_site_type_symbol
_atom_site_label
_atom_site_fract_x
_atom_site_fract_y
_atom_site_fract_z
Si Si1 0.199030 0.656508 0.607542
Si Si2 0.811962 0.282854 0.184371
Si Si3 0.000000 0.000000 0.085619
Si Si4 0.507099 0.248035 0.852635
Si Si5 0.706011 0.425673 0.053057
Si Si6 0.369005 0.367359 0.273977
O O1 0.265276 0.664938 0.653706
O O2 0.085375 0.654674 0.622377
O O3 0.222108 0.523772 0.580152
O O4 0.219595 0.782964 0.575464
O O5 0.726217 0.391267 0.192281
O O6 0.842840 0.237107 0.235016
O O7 0.908765 0.336349 0.158046
O O8 0.022709 0.872332 0.116229
O O9 0.905311 0.974625 0.054283
O O10 0.543890 0.308426 0.804034
O O11 0.740640 0.418491 0.000000
O O12 0.404261 0.500000 0.250000
#
# Coordination Sequence:
#
# PCOD8293643 Si02
#       6
#    16  16   8  16  16  16
#     4  10  23  38  65  89 123 164 201 255 317 372
#     4  10  20  36  56  85 124 159 205 248 306 358
#     4  10  19  34  65  94 116 158 212 257 305 374
#     4  10  19  35  59  89 123 161 207 251 303 365
#     4  11  22  41  65  93 122 158 206 265 319 377
#     4  10  21  33  59  88 120 162 207 254 297 362
#
# _framework density 21.902913999999999
#
# number of rings (size 3 to 8) (size 9 to 14) (size 15 to 20)
#    0.000    1.818    1.818    2.455    5.091    0.727 
#    0.000    0.909    4.000    1.091    0.000    0.000 
#    0.000    0.000    0.000    0.000    0.000    0.000 
#
# Total GULP energy -545397.482885 kJ/mol
# GULP energy per Si atom -12395.397338 kJ/mol
# Density = 2.185306 g / cm^3
# Si number density = 21.902914 Si / 1000 Ang^3
#
#
#
# Elastic Constant Matrix: (Units=GPa)
#
#
# Indices 1 2 3 4 5 6 
#
# 1 129.4408 7.9705 12.8877 0.0000 0.0000 0.0000
# 2 7.9705 27.2364 5.7859 0.0000 0.0000 0.0000
# 3 12.8877 5.7859 90.0062 0.0000 0.0000 0.0000
# 4 0.0000 0.0000 0.0000 14.2571 0.0000 0.0000
# 5 0.0000 0.0000 0.0000 0.0000 26.2147 0.0000
# 6 0.0000 0.0000 0.0000 0.0000 0.0000 -20.3269
#
#
#
# Elastic Compliance Matrix: (Units=1/GPa)
#
#
# Indices 1 2 3 4 5 6 
#
# 1 0.007956 -0.002115 -0.001003 0.000000 0.000000 0.000000
# 2 -0.002115 0.037786 -0.002126 0.000000 0.000000 0.000000
# 3 -0.001003 -0.002126 0.011391 0.000000 0.000000 0.000000
# 4 0.000000 0.000000 0.000000 0.070140 0.000000 0.000000
# 5 0.000000 0.000000 0.000000 0.000000 0.038147 0.000000
# 6 0.000000 0.000000 0.000000 0.000000 0.000000 -0.049196
#
#
# Mechanical properties :
#
#
# Convention : Reuss Voigt Hill
#
# Bulk Modulus (GPa) = 21.43915 33.33019 27.38467
# Shear Modulus (GPa) = 35.14681 18.69826 26.92253
#
# Velocity S-wave (km/s) = 4.01017 2.92496 3.50976
# Velocity P-wave (km/s) = 5.59030 5.16309 5.38094
#
# Compressibility (1/GPa) = 0.04664364
#
# Stress axis : x y z
#
# Youngs Moduli (GPa) = 125.69667 26.46472 87.79121
#
# Poissons Ratio (x) = 0.05597 0.08807
# Poissons Ratio (y) = 0.26585 0.18666
# Poissons Ratio (z) = 0.12610 0.05627
#
# Static dielectric constant tensor:
#      x y z
#    x 4.318020 0.000000 0.000000 
#    y 0.000000 3.546500 0.000000 
#    z 0.000000 0.000000 4.000900 
# 
# 
# High freq. dielectric constant tensor:
#      x y z
#    x 1.880360 0.000000 0.000000 
#    y 0.000000 1.823280 0.000000 
#    z 0.000000 0.000000 1.865620 
# 
# From -- ./inp_files/48580.got.cif
#   From: 2010.03.12/outbox.cif.g09.slc.cpg/sg72_25_cif.got.tgz:48580.got - 2010.04.16 14:54:00.
