data_PCOD8293566
_publ_section_title
;
Structure prediction by ZEFSAII (Michael W. Deem and Ramdas Pophale) SiO2 
 PCOD8293566
Probable space group: I B A M
;
_chemical_formula_sum "Si O2"
_cell_formula_units_Z 116
_cell_length_a 26.342391
_cell_length_b 26.729745
_cell_length_c 9.247230
_cell_angle_alpha 90.000000
_cell_angle_beta 90.000000
_cell_angle_gamma 90.000000
_cell_volume 6511.209468
_symmetry_space_group_name_H-M "I B A M"
_symmetry_group_IT_number 72
_symmetry_cell_setting 'orthorhombic'
loop_
_space_group_symop_operation_xyz
x,y,z
-x,-y,z
x,-y,1/2-z
-x,y,1/2-z
-x,-y,-z
x,y,-z
-x,y,1/2+z
x,-y,1/2+z
1/2+x,1/2+y,1/2+z
1/2-x,1/2-y,1/2+z
1/2+x,1/2-y,-z
1/2-x,1/2+y,-z
1/2-x,1/2-y,1/2-z
1/2+x,1/2+y,1/2-z
1/2-x,1/2+y,z
1/2+x,1/2-y,z
loop_
_atom_site_type_symbol
_atom_site_label
_atom_site_fract_x
_atom_site_fract_y
_atom_site_fract_z
Si Si1 0.926963 0.821017 0.168128
Si Si2 0.074810 0.917285 0.161890
Si Si3 0.754695 0.373582 0.164238
Si Si4 0.000000 0.000000 0.250000
Si Si5 0.687138 0.550524 0.829382
Si Si6 0.547658 0.220997 0.328070
Si Si7 0.182057 0.215751 0.159900
Si Si8 0.656971 0.809306 0.832196
O O1 0.946012 0.874261 0.231111
O O2 0.951026 0.776723 0.261952
O O3 0.866559 0.819373 0.189886
O O4 0.943414 0.816734 0.000000
O O5 0.130450 0.933925 0.217261
O O6 0.036670 0.964470 0.156002
O O7 0.079248 0.895431 0.000000
O O8 0.729514 0.409953 0.279439
O O9 0.730635 0.318798 0.177856
O O10 0.814161 0.361906 0.202913
O O11 0.748594 0.394540 0.000000
O O12 0.702047 0.500000 0.750000
O O13 0.691449 0.543215 0.000000
O O14 0.500000 0.193643 0.250000
O O15 0.540002 0.223599 0.500000
O O16 0.597969 0.189662 0.282965
O O17 0.186131 0.262383 0.264988
O O18 0.177892 0.238661 0.000000
O O19 0.659299 0.798267 0.000000
#
# Coordination Sequence:
#
# PCOD8293566 Si02
#       8
#    16  16  16   4  16  16  16  16
#     4  10  20  34  53  74  98 131 169 214 263 313
#     4  11  24  40  56  73  94 125 170 224 277 321
#     4  10  19  34  53  77 105 135 167 210 263 314
#     4  12  26  44  56  70  94 128 176 234 284 316
#     4  11  23  39  58  78 100 133 173 217 268 322
#     4  10  20  35  52  74 104 140 177 212 251 299
#     4   9  17  29  48  74 103 134 166 202 254 311
#     4   9  19  32  50  75 106 137 171 211 253 305
#
# _framework density 17.815429999999999
#
# number of rings (size 3 to 8) (size 9 to 14) (size 15 to 20)
#    0.000    1.931    2.069    1.862    0.966    3.862 
#    0.000    0.000    0.000    0.000    0.000    0.000 
#    0.000    0.552    0.000    6.345    0.000    1.931 
#
# Total GULP energy -718979.200951 kJ/mol
# GULP energy per Si atom -12396.193120 kJ/mol
# Density = 1.777488 g / cm^3
# Si number density = 17.815430 Si / 1000 Ang^3
#
#
#
# Elastic Constant Matrix: (Units=GPa)
#
#
# Indices 1 2 3 4 5 6 
#
# 1 102.7384 43.2823 39.6859 0.0000 0.0000 0.0000
# 2 43.2823 55.4829 30.7185 0.0000 0.0000 0.0000
# 3 39.6859 30.7185 75.9570 0.0000 0.0000 0.0000
# 4 0.0000 0.0000 0.0000 25.5381 0.0000 0.0000
# 5 0.0000 0.0000 0.0000 0.0000 21.3178 0.0000
# 6 0.0000 0.0000 0.0000 0.0000 0.0000 23.4009
#
#
#
# Elastic Compliance Matrix: (Units=1/GPa)
#
#
# Indices 1 2 3 4 5 6 
#
# 1 0.015437 -0.009763 -0.004117 0.000000 0.000000 0.000000
# 2 -0.009763 0.029398 -0.006788 0.000000 0.000000 0.000000
# 3 -0.004117 -0.006788 0.018062 0.000000 0.000000 0.000000
# 4 0.000000 0.000000 0.000000 0.039157 0.000000 0.000000
# 5 0.000000 0.000000 0.000000 0.000000 0.046909 0.000000
# 6 0.000000 0.000000 0.000000 0.000000 0.000000 0.042733
#
#
# Mechanical properties :
#
#
# Convention : Reuss Voigt Hill
#
# Bulk Modulus (GPa) = 46.38189 51.28351 48.83270
# Shear Modulus (GPa) = 20.81434 22.08413 21.44923
#
# Velocity S-wave (km/s) = 3.42180 3.52462 3.47359
# Velocity P-wave (km/s) = 6.45777 6.73888 6.59982
#
# Compressibility (1/GPa) = 0.02156014
#
# Stress axis : x y z
#
# Youngs Moduli (GPa) = 64.78055 34.01609 55.36569
#
# Poissons Ratio (x) = 0.33209 0.22795
# Poissons Ratio (y) = 0.63244 0.37583
# Poissons Ratio (z) = 0.26671 0.23091
#
# Static dielectric constant tensor:
#      x y z
#    x 3.718060 0.000000 0.000000 
#    y 0.000000 2.972650 0.000000 
#    z 0.000000 0.000000 3.316900 
# 
# 
# High freq. dielectric constant tensor:
#      x y z
#    x 1.695900 0.000000 0.000000 
#    y 0.000000 1.643420 0.000000 
#    z 0.000000 0.000000 1.695500 
# 
# From -- ./inp_files/8385.got.cif
#   From: 2010.03.12/outbox.cif.g09.slc.cpg/sg72_5_cif.got.tgz:8385.got - 2010.04.16 14:54:00.
