data_PCOD8293753
_publ_section_title
;
Structure prediction by ZEFSAII (Michael W. Deem and Ramdas Pophale) SiO2 
 PCOD8293753
Probable space group: I B A M
;
_chemical_formula_sum "Si O2"
_cell_formula_units_Z 112
_cell_length_a 14.486889
_cell_length_b 14.412832
_cell_length_c 28.516253
_cell_angle_alpha 90.000000
_cell_angle_beta 90.000000
_cell_angle_gamma 90.000000
_cell_volume 5954.110854
_symmetry_space_group_name_H-M "I B A M"
_symmetry_group_IT_number 72
_symmetry_cell_setting 'orthorhombic'
loop_
_space_group_symop_operation_xyz
x,y,z
-x,-y,z
x,-y,1/2-z
-x,y,1/2-z
-x,-y,-z
x,y,-z
-x,y,1/2+z
x,-y,1/2+z
1/2+x,1/2+y,1/2+z
1/2-x,1/2-y,1/2+z
1/2+x,1/2-y,-z
1/2-x,1/2+y,-z
1/2-x,1/2-y,1/2-z
1/2+x,1/2+y,1/2-z
1/2-x,1/2+y,z
1/2+x,1/2-y,z
loop_
_atom_site_type_symbol
_atom_site_label
_atom_site_fract_x
_atom_site_fract_y
_atom_site_fract_z
Si Si1 0.883236 0.256098 0.134864
Si Si2 0.774400 0.376233 0.673046
Si Si3 0.058096 0.137891 0.447661
Si Si4 0.770668 0.574840 0.362259
Si Si5 0.545482 0.772799 0.294492
Si Si6 0.639385 0.558788 0.446669
Si Si7 0.801420 0.845368 0.234713
O O1 0.790253 0.202018 0.149849
O O2 0.864540 0.366431 0.131558
O O3 0.912701 0.223341 0.083893
O O4 0.967494 0.238696 0.169891
O O5 0.788867 0.464946 0.639787
O O6 0.876753 0.335205 0.680771
O O7 0.723732 0.411746 0.721231
O O8 0.088396 0.163527 0.500000
O O9 0.948661 0.125243 0.444806
O O10 0.109914 0.044576 0.431585
O O11 0.709899 0.597348 0.408136
O O12 0.727694 0.609873 0.313904
O O13 0.500000 0.827543 0.250000
O O14 0.590996 0.679801 0.271714
O O15 0.680170 0.559878 0.500000
O O16 0.750000 0.750000 0.250000
#
# Coordination Sequence:
#
# PCOD8293753 Si02
#       7
#    16  16  16  16  16  16  16
#     4  12  22  38  62  87 122 161 199 253 299 362
#     4  11  23  40  58  88 121 156 206 248 294 364
#     4   9  19  37  61  90 120 151 199 258 310 359
#     4  12  22  37  63  86 121 164 198 244 306 360
#     4  11  21  38  63  82 121 162 201 249 298 355
#     4   9  19  37  62  91 118 150 203 259 304 360
#     4  10  19  38  56  83 119 155 198 247 289 350
#
# _framework density 18.810533
#
# number of rings (size 3 to 8) (size 9 to 14) (size 15 to 20)
#    0.000    1.429    5.714    3.000    0.000    1.143 
#    0.000    2.143    0.000    0.857    0.000    2.000 
#    0.000    0.000    0.000    0.000    0.000    0.000 
#
# Total GULP energy -693956.750224 kJ/mol
# GULP energy per Si atom -12392.084825 kJ/mol
# Density = 1.876772 g / cm^3
# Si number density = 18.810533 Si / 1000 Ang^3
#
#
#
# Elastic Constant Matrix: (Units=GPa)
#
#
# Indices 1 2 3 4 5 6 
#
# 1 92.1070 36.1171 33.4796 0.0000 0.0000 0.0000
# 2 36.1171 75.3929 29.2867 0.0000 0.0000 0.0000
# 3 33.4796 29.2867 104.5072 0.0000 0.0000 0.0000
# 4 0.0000 0.0000 0.0000 28.7216 0.0000 0.0000
# 5 0.0000 0.0000 0.0000 0.0000 34.8555 0.0000
# 6 0.0000 0.0000 0.0000 0.0000 0.0000 18.6271
#
#
#
# Elastic Compliance Matrix: (Units=1/GPa)
#
#
# Indices 1 2 3 4 5 6 
#
# 1 0.014136 -0.005625 -0.002952 0.000000 0.000000 0.000000
# 2 -0.005625 0.017122 -0.002996 0.000000 0.000000 0.000000
# 3 -0.002952 -0.002996 0.011354 0.000000 0.000000 0.000000
# 4 0.000000 0.000000 0.000000 0.034817 0.000000 0.000000
# 5 0.000000 0.000000 0.000000 0.000000 0.028690 0.000000
# 6 0.000000 0.000000 0.000000 0.000000 0.000000 0.053685
#
#
# Mechanical properties :
#
#
# Convention : Reuss Voigt Hill
#
# Bulk Modulus (GPa) = 51.37324 52.19710 51.78517
# Shear Modulus (GPa) = 26.39365 27.98243 27.18804
#
# Velocity S-wave (km/s) = 3.74990 3.86112 3.80592
# Velocity P-wave (km/s) = 6.79111 6.90556 6.84858
#
# Compressibility (1/GPa) = 0.01946539
#
# Stress axis : x y z
#
# Youngs Moduli (GPa) = 70.74306 58.40294 88.07362
#
# Poissons Ratio (x) = 0.32851 0.26001
# Poissons Ratio (y) = 0.39793 0.26390
# Poissons Ratio (z) = 0.20884 0.17499
#
# Static dielectric constant tensor:
#      x y z
#    x 3.431810 0.000000 0.000000 
#    y 0.000000 3.399490 0.000000 
#    z 0.000000 0.000000 3.651160 
# 
# 
# High freq. dielectric constant tensor:
#      x y z
#    x 1.721700 0.000000 0.000000 
#    y 0.000000 1.709160 0.000000 
#    z 0.000000 0.000000 1.740460 
# 
# From -- ./inp_files/51857.got.cif
#   From: 2010.03.12/outbox.cif.g09.slc.cpg/sg72_26_cif.got.tgz:51857.got - 2010.04.16 14:54:00.
