data_PCOD8293465
_publ_section_title
;
Structure prediction by ZEFSAII (Michael W. Deem and Ramdas Pophale) SiO2 
 PCOD8293465
Probable space group: I B A M
;
_chemical_formula_sum "Si O2"
_cell_formula_units_Z 80
_cell_length_a 27.513719
_cell_length_b 18.148758
_cell_length_c 8.521172
_cell_angle_alpha 90.000000
_cell_angle_beta 90.000000
_cell_angle_gamma 90.000000
_cell_volume 4254.960559
_symmetry_space_group_name_H-M "I B A M"
_symmetry_group_IT_number 72
_symmetry_cell_setting 'orthorhombic'
loop_
_space_group_symop_operation_xyz
x,y,z
-x,-y,z
x,-y,1/2-z
-x,y,1/2-z
-x,-y,-z
x,y,-z
-x,y,1/2+z
x,-y,1/2+z
1/2+x,1/2+y,1/2+z
1/2-x,1/2-y,1/2+z
1/2+x,1/2-y,-z
1/2-x,1/2+y,-z
1/2-x,1/2-y,1/2-z
1/2+x,1/2+y,1/2-z
1/2-x,1/2+y,z
1/2+x,1/2-y,z
loop_
_atom_site_type_symbol
_atom_site_label
_atom_site_fract_x
_atom_site_fract_y
_atom_site_fract_z
Si Si1 0.708016 0.919990 0.315090
Si Si2 0.051410 0.225419 0.185394
Si Si3 0.853211 0.292604 0.185647
Si Si4 0.909363 0.078282 0.185702
Si Si5 0.808365 0.857554 0.685129
O O1 0.712242 0.924735 0.500000
O O2 0.664064 0.867139 0.267324
O O3 0.758621 0.889127 0.240690
O O4 0.696304 0.000000 0.250000
O O5 0.091712 0.277012 0.264871
O O6 0.058003 0.140336 0.233509
O O7 0.000000 0.253721 0.250000
O O8 0.054146 0.233901 0.000000
O O9 0.818974 0.225329 0.245808
O O10 0.850528 0.301413 0.000000
O O11 0.853037 0.089942 0.234529
O O12 0.927198 0.000000 0.250000
O O13 0.916612 0.083827 0.000000
O O14 0.803622 0.855111 0.500000
#
# Coordination Sequence:
#
# PCOD8293465 Si02
#       5
#    16  16  16  16  16
#     4  11  21  34  52  79 111 146 182 220 264 314
#     4  11  22  38  58  80 103 135 176 222 271 323
#     4  10  20  37  57  80 108 140 177 223 268 316
#     4  10  19  33  51  77 111 147 183 223 265 312
#     4   8  17  32  52  77 109 145 183 219 259 309
#
# _framework density 18.801583000000001
#
# number of rings (size 3 to 8) (size 9 to 14) (size 15 to 20)
#    0.000    2.000    0.000    6.000    0.000    0.400 
#    0.000   12.000    0.000    0.600    0.000    4.200 
#    0.000    0.000    0.000    0.000    0.000    0.000 
#
# Total GULP energy -496089.888380 kJ/mol
# GULP energy per Si atom -12402.247209 kJ/mol
# Density = 1.875879 g / cm^3
# Si number density = 18.801583 Si / 1000 Ang^3
#
#
#
# Elastic Constant Matrix: (Units=GPa)
#
#
# Indices 1 2 3 4 5 6 
#
# 1 91.5565 44.4782 2.6255 0.0000 0.0000 0.0000
# 2 44.4782 111.2626 15.0149 0.0000 0.0000 0.0000
# 3 2.6255 15.0149 55.6315 0.0000 0.0000 0.0000
# 4 0.0000 0.0000 0.0000 26.8929 0.0000 0.0000
# 5 0.0000 0.0000 0.0000 0.0000 26.7526 0.0000
# 6 0.0000 0.0000 0.0000 0.0000 0.0000 19.3440
#
#
#
# Elastic Compliance Matrix: (Units=1/GPa)
#
#
# Indices 1 2 3 4 5 6 
#
# 1 0.013594 -0.005550 0.000856 0.000000 0.000000 0.000000
# 2 -0.005550 0.011593 -0.002867 0.000000 0.000000 0.000000
# 3 0.000856 -0.002867 0.018709 0.000000 0.000000 0.000000
# 4 0.000000 0.000000 0.000000 0.037184 0.000000 0.000000
# 5 0.000000 0.000000 0.000000 0.000000 0.037380 0.000000
# 6 0.000000 0.000000 0.000000 0.000000 0.000000 0.051696
#
#
# Mechanical properties :
#
#
# Convention : Reuss Voigt Hill
#
# Bulk Modulus (GPa) = 34.75268 42.52085 38.63676
# Shear Modulus (GPa) = 25.65838 27.68671 26.67255
#
# Velocity S-wave (km/s) = 3.69818 3.84158 3.77056
# Velocity P-wave (km/s) = 6.06296 6.50704 6.28892
#
# Compressibility (1/GPa) = 0.02877476
#
# Stress axis : x y z
#
# Youngs Moduli (GPa) = 73.56330 86.25732 53.45066
#
# Poissons Ratio (x) = 0.47871 -0.04577
# Poissons Ratio (y) = 0.40826 0.15325
# Poissons Ratio (z) = -0.06299 0.24731
#
# Static dielectric constant tensor:
#      x y z
#    x 0.000000 0.000000 0.000000 
#    y 0.000000 0.000000 0.000000 
#    z 0.000000 0.000000 0.000000 
# 
# 
# High freq. dielectric constant tensor:
#      x y z
#    x 1.727070 0.000000 0.000000 
#    y 0.000000 1.717540 0.000000 
#    z 0.000000 0.000000 1.728610 
# 
# From -- ./inp_files/4769.got.cif
#   From: 2010.03.12/outbox.cif.g09.slc.cpg/sg72_3_cif.got.tgz:4769.got - 2010.04.16 14:54:00.
