data_PCOD8293140
_publ_section_title
;
Structure prediction by ZEFSAII (Michael W. Deem and Ramdas Pophale) SiO2 
 PCOD8293140
Probable space group: I B A M
;
_chemical_formula_sum "Si O2"
_cell_formula_units_Z 68
_cell_length_a 19.350922
_cell_length_b 9.722433
_cell_length_c 21.078756
_cell_angle_alpha 90.000000
_cell_angle_beta 90.000000
_cell_angle_gamma 90.000000
_cell_volume 3965.715895
_symmetry_space_group_name_H-M "I B A M"
_symmetry_group_IT_number 72
_symmetry_cell_setting 'orthorhombic'
loop_
_space_group_symop_operation_xyz
x,y,z
-x,-y,z
x,-y,1/2-z
-x,y,1/2-z
-x,-y,-z
x,y,-z
-x,y,1/2+z
x,-y,1/2+z
1/2+x,1/2+y,1/2+z
1/2-x,1/2-y,1/2+z
1/2+x,1/2-y,-z
1/2-x,1/2+y,-z
1/2-x,1/2-y,1/2-z
1/2+x,1/2+y,1/2-z
1/2-x,1/2+y,z
1/2+x,1/2-y,z
loop_
_atom_site_type_symbol
_atom_site_label
_atom_site_fract_x
_atom_site_fract_y
_atom_site_fract_z
Si Si1 0.500000 0.000000 0.750000
Si Si2 0.953932 0.133972 0.071384
Si Si3 0.961714 0.369960 0.628795
Si Si4 0.815712 0.286432 0.575420
Si Si5 0.808289 0.023989 0.075437
O O1 0.546651 0.097954 0.795666
O O2 0.878626 0.096067 0.098833
O O3 0.988678 0.240023 0.119273
O O4 0.948879 0.196220 0.000000
O O5 0.000000 0.000000 0.068872
O O6 0.887573 0.346988 0.598793
O O7 0.000000 0.500000 0.595460
O O8 0.816804 0.284654 0.500000
O O9 0.755482 0.386016 0.601397
O O10 0.803514 0.132037 0.601898
O O11 0.808231 0.018593 0.000000
#
# Coordination Sequence:
#
# PCOD8293140 Si02
#       5
#     4  16  16  16  16
#     4   8  24  40  52  76 100 140 192 250 256 292
#     4  10  18  32  55  85 113 137 171 217 271 331
#     4  10  21  37  56  73 106 143 184 232 266 309
#     4  10  19  32  52  81 112 144 171 209 271 331
#     4   9  19  31  48  82 122 142 164 205 264 339
#
# _framework density 17.146967
#
# number of rings (size 3 to 8) (size 9 to 14) (size 15 to 20)
#    0.706    1.647    2.353    0.706    3.294    1.882 
#    0.000    0.588    0.000    5.647    0.000    0.000 
#    0.000    0.000    0.000    0.000    0.000    0.000 
#
# Total GULP energy -421385.924237 kJ/mol
# GULP energy per Si atom -12393.703654 kJ/mol
# Density = 1.710794 g / cm^3
# Si number density = 17.146967 Si / 1000 Ang^3
#
#
#
# Elastic Constant Matrix: (Units=GPa)
#
#
# Indices 1 2 3 4 5 6 
#
# 1 164.4010 80.6592 17.6358 0.0000 0.0000 0.0000
# 2 80.6592 113.2332 35.2195 0.0000 0.0000 0.0000
# 3 17.6358 35.2195 36.4884 0.0000 0.0000 0.0000
# 4 0.0000 0.0000 0.0000 21.8799 0.0000 0.0000
# 5 0.0000 0.0000 0.0000 0.0000 7.5589 0.0000
# 6 0.0000 0.0000 0.0000 0.0000 0.0000 35.1838
#
#
#
# Elastic Compliance Matrix: (Units=1/GPa)
#
#
# Indices 1 2 3 4 5 6 
#
# 1 0.009545 -0.007665 0.002786 0.000000 0.000000 0.000000
# 2 -0.007665 0.018776 -0.014418 0.000000 0.000000 0.000000
# 3 0.002786 -0.014418 0.039977 0.000000 0.000000 0.000000
# 4 0.000000 0.000000 0.000000 0.045704 0.000000 0.000000
# 5 0.000000 0.000000 0.000000 0.000000 0.132294 0.000000
# 6 0.000000 0.000000 0.000000 0.000000 0.000000 0.028422
#
#
# Mechanical properties :
#
#
# Convention : Reuss Voigt Hill
#
# Bulk Modulus (GPa) = 33.66870 64.57242 49.12056
# Shear Modulus (GPa) = 15.46960 24.96505 20.21733
#
# Velocity S-wave (km/s) = 3.00688 3.81983 3.43747
# Velocity P-wave (km/s) = 5.63322 7.56272 6.66813
#
# Compressibility (1/GPa) = 0.02970118
#
# Stress axis : x y z
#
# Youngs Moduli (GPa) = 104.77026 53.25884 25.01465
#
# Poissons Ratio (x) = 0.40825 -0.06968
# Poissons Ratio (y) = 0.80310 0.36067
# Poissons Ratio (z) = -0.29185 0.76791
#
# Static dielectric constant tensor:
#      x y z
#    x 3.344880 0.000000 0.000000 
#    y 0.000000 3.374290 0.000000 
#    z 0.000000 0.000000 2.729850 
# 
# 
# High freq. dielectric constant tensor:
#      x y z
#    x 1.671180 0.000000 0.000000 
#    y 0.000000 1.676580 0.000000 
#    z 0.000000 0.000000 1.601590 
# 
# From -- ./inp_files/48909.got.cif
#   From: 2010.03.12/outbox.cif.g09.slc.cpg/sg72_25_cif.got.tgz:48909.got - 2010.04.16 14:54:00.
