data_PCOD8293371
_publ_section_title
;
Structure prediction by ZEFSAII (Michael W. Deem and Ramdas Pophale) SiO2 
 PCOD8293371
Probable space group: I B A M
;
_chemical_formula_sum "Si O2"
_cell_formula_units_Z 104
_cell_length_a 23.404320
_cell_length_b 25.615709
_cell_length_c 9.052373
_cell_angle_alpha 90.000000
_cell_angle_beta 90.000000
_cell_angle_gamma 90.000000
_cell_volume 5427.062823
_symmetry_space_group_name_H-M "I B A M"
_symmetry_group_IT_number 72
_symmetry_cell_setting 'orthorhombic'
loop_
_space_group_symop_operation_xyz
x,y,z
-x,-y,z
x,-y,1/2-z
-x,y,1/2-z
-x,-y,-z
x,y,-z
-x,y,1/2+z
x,-y,1/2+z
1/2+x,1/2+y,1/2+z
1/2-x,1/2-y,1/2+z
1/2+x,1/2-y,-z
1/2-x,1/2+y,-z
1/2-x,1/2-y,1/2-z
1/2+x,1/2+y,1/2-z
1/2-x,1/2+y,z
1/2+x,1/2-y,z
loop_
_atom_site_type_symbol
_atom_site_label
_atom_site_fract_x
_atom_site_fract_y
_atom_site_fract_z
Si Si1 0.059289 0.251448 0.325646
Si Si2 0.878611 0.836706 0.822760
Si Si3 0.219928 0.908287 0.336151
Si Si4 0.143920 0.000000 0.250000
Si Si5 0.942473 0.628495 0.328448
Si Si6 0.053512 0.922895 0.164247
Si Si7 0.160616 0.444623 0.676471
O O1 0.056127 0.240282 0.500000
O O2 0.111667 0.219779 0.251058
O O3 0.072023 0.311716 0.290186
O O4 0.000000 0.234111 0.250000
O O5 0.817843 0.861189 0.765743
O O6 0.928810 0.873532 0.763167
O O7 0.880992 0.833745 0.000000
O O8 0.234887 0.890033 0.500000
O O9 0.280564 0.919573 0.256938
O O10 0.183401 0.961591 0.345341
O O11 0.103744 0.034693 0.355098
O O12 0.953324 0.620901 0.500000
O O13 0.890105 0.593399 0.273398
O O14 0.000000 0.609374 0.250000
O O15 0.000000 0.948429 0.250000
O O16 0.036337 0.904316 0.000000
O O17 0.149077 0.500000 0.750000
O O18 0.164320 0.451544 0.500000
#
# Coordination Sequence:
#
# PCOD8293371 Si02
#       7
#    16  16  16   8  16  16  16
#     4  10  19  34  55  79 106 141 181 223 270 322
#     4  10  20  34  52  75 104 140 179 223 269 315
#     4   9  18  33  52  74 103 138 177 217 264 315
#     4  10  19  32  50  70  95 134 176 224 268 312
#     4   9  20  37  59  84 113 143 174 215 266 322
#     4  11  22  33  47  69 100 136 178 225 273 321
#     4  10  20  37  59  84 111 143 179 218 264 318
#
# _framework density 19.163219000000002
#
# number of rings (size 3 to 8) (size 9 to 14) (size 15 to 20)
#    0.000    2.154    0.769    2.538    0.000    4.000 
#    0.000    3.077    0.000    0.000    0.000    0.000 
#    0.000    0.000    0.000    0.000    0.000    0.000 
#
# Total GULP energy -644550.315056 kJ/mol
# GULP energy per Si atom -12395.198366 kJ/mol
# Density = 1.911960 g / cm^3
# Si number density = 19.163219 Si / 1000 Ang^3
#
#
#
# Elastic Constant Matrix: (Units=GPa)
#
#
# Indices 1 2 3 4 5 6 
#
# 1 153.4178 84.4369 44.3444 0.0000 0.0000 0.0000
# 2 84.4369 110.1724 38.3275 0.0000 0.0000 0.0000
# 3 44.3444 38.3275 80.2156 0.0000 0.0000 0.0000
# 4 0.0000 0.0000 0.0000 23.9517 0.0000 0.0000
# 5 0.0000 0.0000 0.0000 0.0000 22.2732 0.0000
# 6 0.0000 0.0000 0.0000 0.0000 0.0000 31.1084
#
#
#
# Elastic Compliance Matrix: (Units=1/GPa)
#
#
# Indices 1 2 3 4 5 6 
#
# 1 0.011716 -0.008067 -0.002622 0.000000 0.000000 0.000000
# 2 -0.008067 0.016441 -0.003396 0.000000 0.000000 0.000000
# 3 -0.002622 -0.003396 0.015539 0.000000 0.000000 0.000000
# 4 0.000000 0.000000 0.000000 0.041751 0.000000 0.000000
# 5 0.000000 0.000000 0.000000 0.000000 0.044897 0.000000
# 6 0.000000 0.000000 0.000000 0.000000 0.000000 0.032146
#
#
# Mechanical properties :
#
#
# Convention : Reuss Voigt Hill
#
# Bulk Modulus (GPa) = 64.41267 75.33594 69.87431
# Shear Modulus (GPa) = 25.53186 27.24645 26.38915
#
# Velocity S-wave (km/s) = 3.65408 3.77478 3.71492
# Velocity P-wave (km/s) = 7.17556 7.64178 7.41234
#
# Compressibility (1/GPa) = 0.01552490
#
# Stress axis : x y z
#
# Youngs Moduli (GPa) = 85.35402 60.82501 64.35561
#
# Poissons Ratio (x) = 0.49067 0.16876
# Poissons Ratio (y) = 0.68854 0.21855
# Poissons Ratio (z) = 0.22383 0.20656
#
# Static dielectric constant tensor:
#      x y z
#    x 3.641440 0.000000 0.000000 
#    y 0.000000 3.469620 0.000000 
#    z 0.000000 0.000000 3.307510 
# 
# 
# High freq. dielectric constant tensor:
#      x y z
#    x 1.740970 0.000000 0.000000 
#    y 0.000000 1.737580 0.000000 
#    z 0.000000 0.000000 1.732970 
# 
# From -- ./inp_files/7204.got.cif
#   From: 2010.03.12/outbox.cif.g09.slc.cpg/sg72_4_cif.got.tgz:7204.got - 2010.04.16 14:54:00.
