data_PCOD8293356
_publ_section_title
;
Structure prediction by ZEFSAII (Michael W. Deem and Ramdas Pophale) SiO2 
 PCOD8293356
Probable space group: I B A M
;
_chemical_formula_sum "Si O2"
_cell_formula_units_Z 96
_cell_length_a 25.384845
_cell_length_b 24.931417
_cell_length_c 8.987276
_cell_angle_alpha 90.000000
_cell_angle_beta 90.000000
_cell_angle_gamma 90.000000
_cell_volume 5687.868638
_symmetry_space_group_name_H-M "I B A M"
_symmetry_group_IT_number 72
_symmetry_cell_setting 'orthorhombic'
loop_
_space_group_symop_operation_xyz
x,y,z
-x,-y,z
x,-y,1/2-z
-x,y,1/2-z
-x,-y,-z
x,y,-z
-x,y,1/2+z
x,-y,1/2+z
1/2+x,1/2+y,1/2+z
1/2-x,1/2-y,1/2+z
1/2+x,1/2-y,-z
1/2-x,1/2+y,-z
1/2-x,1/2-y,1/2-z
1/2+x,1/2+y,1/2-z
1/2-x,1/2+y,z
1/2+x,1/2-y,z
loop_
_atom_site_type_symbol
_atom_site_label
_atom_site_fract_x
_atom_site_fract_y
_atom_site_fract_z
Si Si1 0.254155 0.551552 0.174538
Si Si2 0.549786 0.266206 0.163006
Si Si3 0.366414 0.447416 0.176659
Si Si4 0.451165 0.390543 0.336086
Si Si5 0.736622 0.827892 0.172419
Si Si6 0.667004 0.256950 0.823943
O O1 0.223846 0.500000 0.250000
O O2 0.308126 0.557195 0.261962
O O3 0.226048 0.608764 0.198728
O O4 0.263462 0.540318 0.000000
O O5 0.500000 0.239705 0.250000
O O6 0.537622 0.328372 0.144173
O O7 0.607411 0.260009 0.242486
O O8 0.550958 0.238841 0.000000
O O9 0.393484 0.500000 0.250000
O O10 0.398964 0.396879 0.236543
O O11 0.366517 0.449834 0.000000
O O12 0.500000 0.418061 0.250000
O O13 0.444455 0.416792 0.500000
O O14 0.692521 0.798112 0.267749
O O15 0.795284 0.807450 0.222938
O O16 0.728873 0.813053 0.000000
O O17 0.661928 0.256245 0.000000
#
# Coordination Sequence:
#
# PCOD8293356 Si02
#       6
#    16  16  16  16  16  16
#     4  10  19  32  48  66  90 118 149 185 225 268
#     4   9  18  31  47  66  90 119 149 184 224 267
#     4  11  21  32  45  61  80 107 144 183 226 269
#     4  10  19  32  46  61  82 108 142 183 226 267
#     4   9  18  31  47  68  94 123 153 189 231 272
#     4   9  17  30  47  68  94 123 154 188 228 271
#
# _framework density 16.878028
#
# number of rings (size 3 to 8) (size 9 to 14) (size 15 to 20)
#    0.000    2.333    0.000    4.500    0.000    5.667 
#    0.000    5.000    0.000    0.000    0.000    0.000 
#    0.000    0.667    0.000    7.333    0.000    5.333 
#
# Total GULP energy -594689.175495 kJ/mol
# GULP energy per Si atom -12389.357823 kJ/mol
# Density = 1.683961 g / cm^3
# Si number density = 16.878028 Si / 1000 Ang^3
#
#
#
# Elastic Constant Matrix: (Units=GPa)
#
#
# Indices 1 2 3 4 5 6 
#
# 1 82.9384 15.9285 23.8599 0.0000 0.0000 0.0000
# 2 15.9285 64.6575 23.1604 0.0000 0.0000 0.0000
# 3 23.8599 23.1604 87.5085 0.0000 0.0000 0.0000
# 4 0.0000 0.0000 0.0000 23.3496 0.0000 0.0000
# 5 0.0000 0.0000 0.0000 0.0000 22.7035 0.0000
# 6 0.0000 0.0000 0.0000 0.0000 0.0000 16.3576
#
#
#
# Elastic Compliance Matrix: (Units=1/GPa)
#
#
# Indices 1 2 3 4 5 6 
#
# 1 0.013359 -0.002194 -0.003062 0.000000 0.000000 0.000000
# 2 -0.002194 0.017446 -0.004019 0.000000 0.000000 0.000000
# 3 -0.003062 -0.004019 0.013326 0.000000 0.000000 0.000000
# 4 0.000000 0.000000 0.000000 0.042827 0.000000 0.000000
# 5 0.000000 0.000000 0.000000 0.000000 0.044046 0.000000
# 6 0.000000 0.000000 0.000000 0.000000 0.000000 0.061134
#
#
# Mechanical properties :
#
#
# Convention : Reuss Voigt Hill
#
# Bulk Modulus (GPa) = 39.09120 40.11134 39.60127
# Shear Modulus (GPa) = 22.80851 23.95917 23.38384
#
# Velocity S-wave (km/s) = 3.68009 3.77178 3.72622
# Velocity P-wave (km/s) = 6.42407 6.54106 6.48283
#
# Compressibility (1/GPa) = 0.02558120
#
# Stress axis : x y z
#
# Youngs Moduli (GPa) = 74.85365 57.31851 75.04121
#
# Poissons Ratio (x) = 0.12578 0.22976
# Poissons Ratio (y) = 0.16426 0.30160
# Poissons Ratio (z) = 0.22919 0.23037
#
# Static dielectric constant tensor:
#      x y z
#    x 3.026090 0.000000 0.000000 
#    y 0.000000 3.317520 0.000000 
#    z 0.000000 0.000000 3.413360 
# 
# 
# High freq. dielectric constant tensor:
#      x y z
#    x 1.622370 0.000000 0.000000 
#    y 0.000000 1.621690 0.000000 
#    z 0.000000 0.000000 1.659810 
# 
# From -- ./inp_files/7087.got.cif
#   From: 2010.03.12/outbox.cif.g09.slc.cpg/sg72_4_cif.got.tgz:7087.got - 2010.04.16 14:54:00.
