data_PCOD8293515
_publ_section_title
;
Structure prediction by ZEFSAII (Michael W. Deem and Ramdas Pophale) SiO2 
 PCOD8293515
Probable space group: I B A M
;
_chemical_formula_sum "Si O2"
_cell_formula_units_Z 116
_cell_length_a 31.957626
_cell_length_b 21.411997
_cell_length_c 9.060341
_cell_angle_alpha 90.000000
_cell_angle_beta 90.000000
_cell_angle_gamma 90.000000
_cell_volume 6199.779262
_symmetry_space_group_name_H-M "I B A M"
_symmetry_group_IT_number 72
_symmetry_cell_setting 'orthorhombic'
loop_
_space_group_symop_operation_xyz
x,y,z
-x,-y,z
x,-y,1/2-z
-x,y,1/2-z
-x,-y,-z
x,y,-z
-x,y,1/2+z
x,-y,1/2+z
1/2+x,1/2+y,1/2+z
1/2-x,1/2-y,1/2+z
1/2+x,1/2-y,-z
1/2-x,1/2+y,-z
1/2-x,1/2-y,1/2-z
1/2+x,1/2+y,1/2-z
1/2-x,1/2+y,z
1/2+x,1/2-y,z
loop_
_atom_site_type_symbol
_atom_site_label
_atom_site_fract_x
_atom_site_fract_y
_atom_site_fract_z
Si Si1 0.192571 0.702384 0.167302
Si Si2 0.578161 0.561891 0.327913
Si Si3 0.957583 0.807532 0.173362
Si Si4 0.395634 0.196618 0.325579
Si Si5 0.960774 0.620477 0.665081
Si Si6 0.675286 0.437984 0.827115
Si Si7 0.769501 0.839287 0.333208
Si Si8 0.000000 0.500000 0.750000
O O1 0.149554 0.703035 0.255206
O O2 0.212350 0.770326 0.164449
O O3 0.224447 0.657031 0.253624
O O4 0.185652 0.678011 0.000000
O O5 0.559789 0.500000 0.250000
O O6 0.570843 0.553057 0.500000
O O7 0.554909 0.623581 0.268199
O O8 0.626704 0.570461 0.289638
O O9 0.921166 0.759026 0.215324
O O10 0.000000 0.785652 0.250000
O O11 0.964766 0.808642 0.000000
O O12 0.391545 0.186738 0.500000
O O13 0.418815 0.136439 0.255392
O O14 0.957552 0.647644 0.500000
O O15 0.000000 0.652941 0.750000
O O16 0.969220 0.545408 0.655791
O O17 0.693053 0.500000 0.750000
O O18 0.698356 0.379069 0.760868
O O19 0.683924 0.442006 0.000000
O O20 0.764891 0.864972 0.500000
#
# Coordination Sequence:
#
# PCOD8293515 Si02
#       8
#    16  16  16  16  16  16  16   4
#     4  10  21  36  56  82 111 144 181 223 272 327
#     4   9  19  35  53  75 104 140 184 228 271 319
#     4  10  22  37  52  75 107 143 181 224 274 325
#     4  11  22  36  56  81 112 146 182 227 278 328
#     4  10  20  35  57  83 111 142 181 223 269 322
#     4  10  19  33  55  80 108 142 181 226 273 323
#     4  10  20  35  56  82 111 143 181 222 270 328
#     4   8  22  36  62  84 114 144 184 224 266 320
#
# _framework density 18.710343999999999
#
# number of rings (size 3 to 8) (size 9 to 14) (size 15 to 20)
#    0.414    1.655    0.000    3.517    0.000    6.345 
#    0.000    1.379    1.517    0.000    0.000    0.000 
#    0.000    0.000    0.000    0.000    0.000    0.000 
#
# Total GULP energy -719131.280472 kJ/mol
# GULP energy per Si atom -12398.815181 kJ/mol
# Density = 1.866776 g / cm^3
# Si number density = 18.710344 Si / 1000 Ang^3
#
#
#
# Elastic Constant Matrix: (Units=GPa)
#
#
# Indices 1 2 3 4 5 6 
#
# 1 90.7333 16.9807 54.1505 0.0000 0.0000 0.0000
# 2 16.9807 59.8827 24.6177 0.0000 0.0000 0.0000
# 3 54.1505 24.6177 115.2389 0.0000 0.0000 0.0000
# 4 0.0000 0.0000 0.0000 27.0570 0.0000 0.0000
# 5 0.0000 0.0000 0.0000 0.0000 30.4088 0.0000
# 6 0.0000 0.0000 0.0000 0.0000 0.0000 25.6964
#
#
#
# Elastic Compliance Matrix: (Units=1/GPa)
#
#
# Indices 1 2 3 4 5 6 
#
# 1 0.015444 -0.001530 -0.006930 0.000000 0.000000 0.000000
# 2 -0.001530 0.018459 -0.003224 0.000000 0.000000 0.000000
# 3 -0.006930 -0.003224 0.012623 0.000000 0.000000 0.000000
# 4 0.000000 0.000000 0.000000 0.036959 0.000000 0.000000
# 5 0.000000 0.000000 0.000000 0.000000 0.032885 0.000000
# 6 0.000000 0.000000 0.000000 0.000000 0.000000 0.038916
#
#
# Mechanical properties :
#
#
# Convention : Reuss Voigt Hill
#
# Bulk Modulus (GPa) = 43.18506 50.81696 47.00101
# Shear Modulus (GPa) = 26.82794 27.97284 27.40039
#
# Velocity S-wave (km/s) = 3.79074 3.87078 3.83097
# Velocity P-wave (km/s) = 6.50312 6.86994 6.68904
#
# Compressibility (1/GPa) = 0.02315616
#
# Stress axis : x y z
#
# Youngs Moduli (GPa) = 64.75178 54.17500 79.22211
#
# Poissons Ratio (x) = 0.08291 0.54901
# Poissons Ratio (y) = 0.09909 0.25542
# Poissons Ratio (z) = 0.44873 0.17466
#
# Static dielectric constant tensor:
#      x y z
#    x 3.387150 0.000000 0.000000 
#    y 0.000000 3.413770 0.000000 
#    z 0.000000 0.000000 3.557810 
# 
# 
# High freq. dielectric constant tensor:
#      x y z
#    x 1.720230 0.000000 0.000000 
#    y 0.000000 1.715400 0.000000 
#    z 0.000000 0.000000 1.737200 
# 
# From -- ./inp_files/9345.got.cif
#   From: 2010.03.12/outbox.cif.g09.slc.cpg/sg72_5_cif.got.tgz:9345.got - 2010.04.16 14:54:00.
