data_PCOD8293187
_publ_section_title
;
Structure prediction by ZEFSAII (Michael W. Deem and Ramdas Pophale) SiO2 
 PCOD8293187
Probable space group: I B A M
;
_chemical_formula_sum "Si O2"
_cell_formula_units_Z 116
_cell_length_a 25.522160
_cell_length_b 22.636781
_cell_length_c 9.866260
_cell_angle_alpha 90.000000
_cell_angle_beta 90.000000
_cell_angle_gamma 90.000000
_cell_volume 5700.128579
_symmetry_space_group_name_H-M "I B A M"
_symmetry_group_IT_number 72
_symmetry_cell_setting 'orthorhombic'
loop_
_space_group_symop_operation_xyz
x,y,z
-x,-y,z
x,-y,1/2-z
-x,y,1/2-z
-x,-y,-z
x,y,-z
-x,y,1/2+z
x,-y,1/2+z
1/2+x,1/2+y,1/2+z
1/2-x,1/2-y,1/2+z
1/2+x,1/2-y,-z
1/2-x,1/2+y,-z
1/2-x,1/2-y,1/2-z
1/2+x,1/2+y,1/2-z
1/2-x,1/2+y,z
1/2+x,1/2-y,z
loop_
_atom_site_type_symbol
_atom_site_label
_atom_site_fract_x
_atom_site_fract_y
_atom_site_fract_z
Si Si1 0.410238 0.196070 0.647666
Si Si2 0.807719 0.726944 0.714698
Si Si3 0.575974 0.096206 0.649508
Si Si4 0.451460 0.675967 0.156840
Si Si5 0.780780 0.052715 0.841128
Si Si6 0.693935 0.095413 0.647539
Si Si7 0.500000 0.000000 0.250000
Si Si8 0.861205 0.155855 0.147439
O O1 0.416440 0.167787 0.500000
O O2 0.348062 0.210974 0.663307
O O3 0.436191 0.149438 0.748927
O O4 0.445641 0.253958 0.660870
O O5 0.750000 0.750000 0.750000
O O6 0.801539 0.666470 0.632346
O O7 0.836715 0.778793 0.633122
O O8 0.570903 0.123576 0.500000
O O9 0.634951 0.074093 0.675415
O O10 0.536707 0.041362 0.659186
O O11 0.500000 0.656309 0.250000
O O12 0.400985 0.647113 0.228631
O O13 0.456637 0.653740 0.000000
O O14 0.725246 0.068386 0.773261
O O15 0.815577 0.110074 0.823104
O O16 0.805602 0.000000 0.750000
O O17 0.774189 0.035577 0.000000
O O18 0.713103 0.070899 0.500000
O O19 0.887671 0.142973 0.000000
#
# Coordination Sequence:
#
# PCOD8293187 Si02
#       8
#    16  16  16  16  16  16   4  16
#     4   9  21  37  57  86 119 155 195 243 297 363
#     4  10  18  34  57  93 126 161 197 242 302 369
#     4  10  24  43  60  81 109 149 202 259 318 370
#     4  10  21  37  60  91 122 158 196 238 295 356
#     4  11  24  41  61  88 121 164 206 246 298 356
#     4  10  21  38  61  89 119 157 201 254 312 372
#     4  12  26  44  64  86 106 152 220 282 330 372
#     4  10  21  38  60  90 125 161 202 248 299 362
#
# _framework density 20.350418000000001
#
# number of rings (size 3 to 8) (size 9 to 14) (size 15 to 20)
#    0.000    1.931    1.379    1.448    1.931    9.379 
#    0.000    0.000    0.000    0.414    0.000    2.897 
#    0.000    0.000    0.000    0.000    0.000    0.000 
#
# Total GULP energy -718646.451823 kJ/mol
# GULP energy per Si atom -12390.456066 kJ/mol
# Density = 2.030410 g / cm^3
# Si number density = 20.350418 Si / 1000 Ang^3
#
#
#
# Elastic Constant Matrix: (Units=GPa)
#
#
# Indices 1 2 3 4 5 6 
#
# 1 96.2366 24.3894 47.9187 0.0000 0.0000 0.0000
# 2 24.3894 75.3689 30.6944 0.0000 0.0000 0.0000
# 3 47.9187 30.6944 165.0275 0.0000 0.0000 0.0000
# 4 0.0000 0.0000 0.0000 21.5144 0.0000 0.0000
# 5 0.0000 0.0000 0.0000 0.0000 21.0955 0.0000
# 6 0.0000 0.0000 0.0000 0.0000 0.0000 31.7884
#
#
#
# Elastic Compliance Matrix: (Units=1/GPa)
#
#
# Indices 1 2 3 4 5 6 
#
# 1 0.012677 -0.002816 -0.003157 0.000000 0.000000 0.000000
# 2 -0.002816 0.014981 -0.001969 0.000000 0.000000 0.000000
# 3 -0.003157 -0.001969 0.007342 0.000000 0.000000 0.000000
# 4 0.000000 0.000000 0.000000 0.046480 0.000000 0.000000
# 5 0.000000 0.000000 0.000000 0.000000 0.047403 0.000000
# 6 0.000000 0.000000 0.000000 0.000000 0.000000 0.031458
#
#
# Mechanical properties :
#
#
# Convention : Reuss Voigt Hill
#
# Bulk Modulus (GPa) = 52.31185 60.29311 56.30248
# Shear Modulus (GPa) = 27.38242 30.45503 28.91872
#
# Velocity S-wave (km/s) = 3.67215 3.87270 3.77376
# Velocity P-wave (km/s) = 6.61369 7.04903 6.83483
#
# Compressibility (1/GPa) = 0.01911613
#
# Stress axis : x y z
#
# Youngs Moduli (GPa) = 78.88392 66.75026 136.19391
#
# Poissons Ratio (x) = 0.18800 0.42998
# Poissons Ratio (y) = 0.22218 0.26811
# Poissons Ratio (z) = 0.24904 0.13141
#
# Static dielectric constant tensor:
#      x y z
#    x 3.653370 0.000000 0.000000 
#    y 0.000000 3.596930 0.000000 
#    z 0.000000 0.000000 3.854360 
# 
# 
# High freq. dielectric constant tensor:
#      x y z
#    x 1.789700 0.000000 0.000000 
#    y 0.000000 1.777480 0.000000 
#    z 0.000000 0.000000 1.804420 
# 
# From -- ./inp_files/8429.got.cif
#   From: 2010.03.12/outbox.cif.g09.slc.cpg/sg72_5_cif.got.tgz:8429.got - 2010.04.16 14:54:00.
