data_PCOD8293727
_publ_section_title
;
Structure prediction by ZEFSAII (Michael W. Deem and Ramdas Pophale) SiO2 
 PCOD8293727
Probable space group: I B A M
;
_chemical_formula_sum "Si O2"
_cell_formula_units_Z 112
_cell_length_a 11.806338
_cell_length_b 14.293353
_cell_length_c 31.621582
_cell_angle_alpha 90.000000
_cell_angle_beta 90.000000
_cell_angle_gamma 90.000000
_cell_volume 5336.210160
_symmetry_space_group_name_H-M "I B A M"
_symmetry_group_IT_number 72
_symmetry_cell_setting 'orthorhombic'
loop_
_space_group_symop_operation_xyz
x,y,z
-x,-y,z
x,-y,1/2-z
-x,y,1/2-z
-x,-y,-z
x,y,-z
-x,y,1/2+z
x,-y,1/2+z
1/2+x,1/2+y,1/2+z
1/2-x,1/2-y,1/2+z
1/2+x,1/2-y,-z
1/2-x,1/2+y,-z
1/2-x,1/2-y,1/2-z
1/2+x,1/2+y,1/2-z
1/2-x,1/2+y,z
1/2+x,1/2-y,z
loop_
_atom_site_type_symbol
_atom_site_label
_atom_site_fract_x
_atom_site_fract_y
_atom_site_fract_z
Si Si1 0.049136 0.098053 0.679478
Si Si2 0.875006 0.540678 0.450434
Si Si3 0.273895 0.313551 0.598249
Si Si4 0.764477 0.858797 0.547181
Si Si5 0.485684 0.600519 0.415856
Si Si6 0.837676 0.777570 0.808560
Si Si7 0.232553 0.394592 0.236459
O O1 0.076788 0.096159 0.629750
O O2 0.160304 0.107779 0.706300
O O3 0.964310 0.182943 0.689154
O O4 0.000000 0.000000 0.694765
O O5 0.875093 0.571635 0.500000
O O6 0.834937 0.628080 0.420416
O O7 0.781429 0.461559 0.441599
O O8 0.000000 0.500000 0.438048
O O9 0.294787 0.214396 0.577079
O O10 0.389437 0.362756 0.586994
O O11 0.266991 0.291194 0.647966
O O12 0.730759 0.832016 0.500000
O O13 0.900134 0.846181 0.553124
O O14 0.500000 0.500000 0.436410
O O15 0.853876 0.670076 0.791441
O O16 0.759036 0.839693 0.778809
O O17 0.190810 0.500000 0.250000
#
# Coordination Sequence:
#
# PCOD8293727 Si02
#       7
#    16  16  16  16  16  16  16
#     4  10  19  36  65  91 118 162 207 255 313 383
#     4  10  23  43  64  88 125 175 223 265 329 402
#     4  11  23  41  63  91 131 167 210 273 323 382
#     4  11  24  39  62  91 123 167 217 270 323 389
#     4  10  21  39  62  94 125 159 210 268 325 379
#     4  10  23  36  60  96 123 160 212 258 312 378
#     4  11  21  37  63  92 125 166 209 256 309 376
#
# _framework density 20.988679000000001
#
# number of rings (size 3 to 8) (size 9 to 14) (size 15 to 20)
#    0.000    1.571    2.857    1.714    2.000    2.571 
#    0.000    0.000    0.000    6.000    0.000    0.000 
#    0.000    0.000    0.000    0.000    0.000    0.000 
#
# Total GULP energy -693781.084193 kJ/mol
# GULP energy per Si atom -12388.947932 kJ/mol
# Density = 2.094091 g / cm^3
# Si number density = 20.988679 Si / 1000 Ang^3
#
#
#
# Elastic Constant Matrix: (Units=GPa)
#
#
# Indices 1 2 3 4 5 6 
#
# 1 53.0878 18.8406 40.6068 0.0000 0.0000 0.0000
# 2 18.8406 156.6596 150.6423 0.0000 0.0000 0.0000
# 3 40.6068 150.6423 388.3267 0.0000 0.0000 0.0000
# 4 0.0000 0.0000 0.0000 90.8908 0.0000 0.0000
# 5 0.0000 0.0000 0.0000 0.0000 29.3193 0.0000
# 6 0.0000 0.0000 0.0000 0.0000 0.0000 5.2216
#
#
#
# Elastic Compliance Matrix: (Units=1/GPa)
#
#
# Indices 1 2 3 4 5 6 
#
# 1 0.020515 -0.000645 -0.001895 0.000000 0.000000 0.000000
# 2 -0.000645 0.010201 -0.003890 0.000000 0.000000 0.000000
# 3 -0.001895 -0.003890 0.004282 0.000000 0.000000 0.000000
# 4 0.000000 0.000000 0.000000 0.011002 0.000000 0.000000
# 5 0.000000 0.000000 0.000000 0.000000 0.034107 0.000000
# 6 0.000000 0.000000 0.000000 0.000000 0.000000 0.191513
#
#
# Mechanical properties :
#
#
# Convention : Reuss Voigt Hill
#
# Bulk Modulus (GPa) = 45.16941 113.13928 79.15434
# Shear Modulus (GPa) = 17.13147 50.95197 34.04172
#
# Velocity S-wave (km/s) = 2.86006 4.93241 4.03166
# Velocity P-wave (km/s) = 5.69861 9.29839 7.71149
#
# Compressibility (1/GPa) = 0.02213888
#
# Stress axis : x y z
#
# Youngs Moduli (GPa) = 48.74450 98.02615 233.51840
#
# Poissons Ratio (x) = 0.06323 0.44252
# Poissons Ratio (y) = 0.03144 0.90837
# Poissons Ratio (z) = 0.09237 0.38131
#
# Static dielectric constant tensor:
#      x y z
#    x 3.912630 0.000000 0.000000 
#    y 0.000000 3.640180 0.000000 
#    z 0.000000 0.000000 4.236390 
# 
# 
# High freq. dielectric constant tensor:
#      x y z
#    x 1.804750 0.000000 0.000000 
#    y 0.000000 1.830780 0.000000 
#    z 0.000000 0.000000 1.831680 
# 
# From -- ./inp_files/51489.got.cif
#   From: 2010.03.12/outbox.cif.g09.slc.cpg/sg72_26_cif.got.tgz:51489.got - 2010.04.16 14:54:00.
