data_PCOD8293706
_publ_section_title
;
Structure prediction by ZEFSAII (Michael W. Deem and Ramdas Pophale) SiO2 
 PCOD8293706
Probable space group: I B A M
;
_chemical_formula_sum "Si O2"
_cell_formula_units_Z 72
_cell_length_a 26.019685
_cell_length_b 8.684105
_cell_length_c 17.450405
_cell_angle_alpha 90.000000
_cell_angle_beta 90.000000
_cell_angle_gamma 90.000000
_cell_volume 3943.052970
_symmetry_space_group_name_H-M "I B A M"
_symmetry_group_IT_number 72
_symmetry_cell_setting 'orthorhombic'
loop_
_space_group_symop_operation_xyz
x,y,z
-x,-y,z
x,-y,1/2-z
-x,y,1/2-z
-x,-y,-z
x,y,-z
-x,y,1/2+z
x,-y,1/2+z
1/2+x,1/2+y,1/2+z
1/2-x,1/2-y,1/2+z
1/2+x,1/2-y,-z
1/2-x,1/2+y,-z
1/2-x,1/2-y,1/2-z
1/2+x,1/2+y,1/2-z
1/2-x,1/2+y,z
1/2+x,1/2-y,z
loop_
_atom_site_type_symbol
_atom_site_label
_atom_site_fract_x
_atom_site_fract_y
_atom_site_fract_z
Si Si1 0.095500 0.832291 0.589952
Si Si2 0.404918 0.382148 0.815539
Si Si3 0.322985 0.260417 0.298574
Si Si4 0.748721 0.000000 0.750000
Si Si5 0.996964 0.673465 0.659733
O O1 0.096713 0.809689 0.500000
O O2 0.140223 0.731131 0.628953
O O3 0.040742 0.778063 0.622354
O O4 0.108905 0.008356 0.612837
O O5 0.427906 0.500000 0.750000
O O6 0.356546 0.290539 0.779087
O O7 0.442970 0.258140 0.853617
O O8 0.288238 0.110507 0.297231
O O9 0.284998 0.406200 0.308897
O O10 0.000000 0.500000 0.624612
O O11 0.000000 0.662461 0.750000
#
# Coordination Sequence:
#
# PCOD8293706 Si02
#       5
#    16  16  16   8  16
#     4  11  23  38  57  85 123 157 183 232 295 350
#     4  10  19  36  58  84 113 152 191 231 274 343
#     4  10  20  37  62  89 112 144 196 247 276 342
#     4  10  20  36  66  88 104 142 202 248 284 316
#     4  11  22  34  59  87 112 154 196 236 276 336
#
# _framework density 18.259962999999999
#
# number of rings (size 3 to 8) (size 9 to 14) (size 15 to 20)
#    0.000    1.556    7.778    0.667    3.111    2.222 
#    0.000    1.111    0.000    0.000    0.000    0.000 
#    0.000    0.000    0.000    0.000    0.000    0.000 
#
# Total GULP energy -445976.346988 kJ/mol
# GULP energy per Si atom -12388.231861 kJ/mol
# Density = 1.821840 g / cm^3
# Si number density = 18.259963 Si / 1000 Ang^3
#
#
#
# Elastic Constant Matrix: (Units=GPa)
#
#
# Indices 1 2 3 4 5 6 
#
# 1 129.6809 44.3525 41.6168 0.0000 0.0000 0.0000
# 2 44.3525 79.0128 17.5871 0.0000 0.0000 0.0000
# 3 41.6168 17.5871 83.4863 0.0000 0.0000 0.0000
# 4 0.0000 0.0000 0.0000 10.7606 0.0000 0.0000
# 5 0.0000 0.0000 0.0000 0.0000 14.9900 0.0000
# 6 0.0000 0.0000 0.0000 0.0000 0.0000 230.5617
#
#
#
# Elastic Compliance Matrix: (Units=1/GPa)
#
#
# Indices 1 2 3 4 5 6 
#
# 1 0.010855 -0.005130 -0.004331 0.000000 0.000000 0.000000
# 2 -0.005130 0.015703 -0.000751 0.000000 0.000000 0.000000
# 3 -0.004331 -0.000751 0.014295 0.000000 0.000000 0.000000
# 4 0.000000 0.000000 0.000000 0.092932 0.000000 0.000000
# 5 0.000000 0.000000 0.000000 0.000000 0.066711 0.000000
# 6 0.000000 0.000000 0.000000 0.000000 0.000000 0.004337
#
#
# Mechanical properties :
#
#
# Convention : Reuss Voigt Hill
#
# Bulk Modulus (GPa) = 48.94566 55.47698 52.21132
# Shear Modulus (GPa) = 21.54563 63.83737 42.69150
#
# Velocity S-wave (km/s) = 3.43875 5.91914 4.84052
# Velocity P-wave (km/s) = 6.52915 8.78423 7.73926
#
# Compressibility (1/GPa) = 0.02043082
#
# Stress axis : x y z
#
# Youngs Moduli (GPa) = 92.12004 63.68327 69.95459
#
# Poissons Ratio (x) = 0.32667 0.30295
# Poissons Ratio (y) = 0.47253 0.05253
# Poissons Ratio (z) = 0.39894 0.04782
#
# Static dielectric constant tensor:
#      x y z
#    x 3.323140 0.000000 0.000000 
#    y 0.000000 3.790210 0.000000 
#    z 0.000000 0.000000 2.856070 
# 
# 
# High freq. dielectric constant tensor:
#      x y z
#    x 1.718420 0.000000 0.000000 
#    y 0.000000 1.717680 0.000000 
#    z 0.000000 0.000000 1.656020 
# 
# From -- ./inp_files/33714.got.cif
#   From: 2010.03.12/outbox.cif.g09.slc.cpg/sg72_17_cif.got.tgz:33714.got - 2010.04.16 14:54:00.
