data_PCOD8293733
_publ_section_title
;
Structure prediction by ZEFSAII (Michael W. Deem and Ramdas Pophale) SiO2 
 PCOD8293733
Probable space group: I B A M
;
_chemical_formula_sum "Si O2"
_cell_formula_units_Z 88
_cell_length_a 14.660835
_cell_length_b 19.739827
_cell_length_c 14.979067
_cell_angle_alpha 90.000000
_cell_angle_beta 90.000000
_cell_angle_gamma 90.000000
_cell_volume 4334.977139
_symmetry_space_group_name_H-M "I B A M"
_symmetry_group_IT_number 72
_symmetry_cell_setting 'orthorhombic'
loop_
_space_group_symop_operation_xyz
x,y,z
-x,-y,z
x,-y,1/2-z
-x,y,1/2-z
-x,-y,-z
x,y,-z
-x,y,1/2+z
x,-y,1/2+z
1/2+x,1/2+y,1/2+z
1/2-x,1/2-y,1/2+z
1/2+x,1/2-y,-z
1/2-x,1/2+y,-z
1/2-x,1/2-y,1/2-z
1/2+x,1/2+y,1/2-z
1/2-x,1/2+y,z
1/2+x,1/2-y,z
loop_
_atom_site_type_symbol
_atom_site_label
_atom_site_fract_x
_atom_site_fract_y
_atom_site_fract_z
Si Si1 0.916103 0.962114 0.900831
Si Si2 0.458061 0.663972 0.000000
Si Si3 0.593122 0.866288 0.857808
Si Si4 0.112064 0.615651 0.342706
Si Si5 0.326777 0.791142 0.000000
Si Si6 0.878183 0.255158 0.000000
Si Si7 0.217009 0.510950 0.898057
O O1 0.818002 0.976613 0.855676
O O2 0.935957 0.881222 0.911319
O O3 0.910301 0.995169 0.000000
O O4 0.000000 0.000000 0.849210
O O5 0.398261 0.730788 0.000000
O O6 0.563899 0.685722 0.000000
O O7 0.492438 0.898089 0.870177
O O8 0.616016 0.850563 0.754807
O O9 0.597267 0.796242 0.910842
O O10 0.665012 0.918034 0.898728
O O11 0.161159 0.665014 0.411387
O O12 0.164512 0.543986 0.338248
O O13 0.227070 0.761206 0.000000
O O14 0.221551 0.484839 0.000000
#
# Coordination Sequence:
#
# PCOD8293733 Si02
#       7
#    16   8  16  16   8   8  16
#     4   8  18  34  60  91 122 151 212 257 308 361
#     4  10  19  37  58  92 122 163 203 257 301 374
#     4  11  23  43  59  95 128 167 202 262 313 383
#     4  11  24  39  64  92 130 160 211 256 318 376
#     4  12  24  39  63  95 123 167 212 256 310 384
#     4  12  24  38  67  87 131 172 215 252 320 370
#     4  11  20  35  65  94 122 164 204 262 321 369
#
# _framework density 20.299992
#
# number of rings (size 3 to 8) (size 9 to 14) (size 15 to 20)
#    0.545    0.909    3.636    2.182    2.545    2.909 
#    0.000    0.000    0.000    2.182    0.000    0.000 
#    0.000    0.000    0.000    0.000    0.000    0.000 
#
# Total GULP energy -545514.535568 kJ/mol
# GULP energy per Si atom -12398.057627 kJ/mol
# Density = 2.025379 g / cm^3
# Si number density = 20.299992 Si / 1000 Ang^3
#
#
#
# Elastic Constant Matrix: (Units=GPa)
#
#
# Indices 1 2 3 4 5 6 
#
# 1 88.2745 15.3693 14.9723 0.0000 0.0000 0.0000
# 2 15.3693 81.8724 19.9766 0.0001 0.0001 0.0000
# 3 14.9723 19.9766 82.5636 0.0003 0.0001 0.0000
# 4 0.0000 0.0001 0.0003 3.9088 0.0000 0.0000
# 5 0.0000 0.0001 0.0001 0.0000 -2.5368 0.0000
# 6 0.0000 0.0000 0.0000 0.0000 0.0000 42.6963
#
#
#
# Elastic Compliance Matrix: (Units=1/GPa)
#
#
# Indices 1 2 3 4 5 6 
#
# 1 0.011938 -0.001820 -0.001724 0.000000 0.000000 0.000000
# 2 -0.001820 0.013258 -0.002878 0.000000 0.000000 0.000000
# 3 -0.001724 -0.002878 0.013121 -0.000001 0.000001 0.000000
# 4 0.000000 0.000000 -0.000001 0.255836 0.000002 0.000000
# 5 0.000000 0.000000 0.000001 0.000002 -0.394190 0.000000
# 6 0.000000 0.000000 0.000000 0.000000 0.000000 0.023421
#
#
# Mechanical properties :
#
#
# Convention : Reuss Voigt Hill
#
# Bulk Modulus (GPa) = 39.25907 39.26075 39.25991
# Shear Modulus (GPa) = -90.44701 22.30647 -34.07027
#
# Velocity S-wave (km/s) = -6.68221 3.31847 -4.10120
# Velocity P-wave (km/s) = 6.33675 5.83655 1.74487
#
# Compressibility (1/GPa) = 0.02547182
#
# Stress axis : x y z
#
# Youngs Moduli (GPa) = 83.76830 75.42621 76.21452
#
# Poissons Ratio (x) = 0.13729 0.13142
# Poissons Ratio (y) = 0.15248 0.21933
# Poissons Ratio (z) = 0.14445 0.21706
#
# Static dielectric constant tensor:
#      x y z
#    x 3.983170 0.000000 0.000000 
#    y 0.000000 3.523900 0.000000 
#    z 0.000000 0.000000 3.731590 
# 
# 
# High freq. dielectric constant tensor:
#      x y z
#    x 1.813830 0.000000 0.000000 
#    y 0.000000 1.782890 0.000000 
#    z 0.000000 0.000000 1.768460 
# 
# From -- ./inp_files/21735.got.cif
#   From: 2010.03.12/outbox.cif.g09.slc.cpg/sg72_11_cif.got.tgz:21735.got - 2010.04.16 14:54:00.
