data_PCOD8293253
_publ_section_title
;
Structure prediction by ZEFSAII (Michael W. Deem and Ramdas Pophale) SiO2 
 PCOD8293253
Probable space group: I B A M
;
_chemical_formula_sum "Si O2"
_cell_formula_units_Z 80
_cell_length_a 29.523225
_cell_length_b 22.511528
_cell_length_c 8.915092
_cell_angle_alpha 90.000000
_cell_angle_beta 90.000000
_cell_angle_gamma 90.000000
_cell_volume 5925.085203
_symmetry_space_group_name_H-M "I B A M"
_symmetry_group_IT_number 72
_symmetry_cell_setting 'orthorhombic'
loop_
_space_group_symop_operation_xyz
x,y,z
-x,-y,z
x,-y,1/2-z
-x,y,1/2-z
-x,-y,-z
x,y,-z
-x,y,1/2+z
x,-y,1/2+z
1/2+x,1/2+y,1/2+z
1/2-x,1/2-y,1/2+z
1/2+x,1/2-y,-z
1/2-x,1/2+y,-z
1/2-x,1/2-y,1/2-z
1/2+x,1/2+y,1/2-z
1/2-x,1/2+y,z
1/2+x,1/2-y,z
loop_
_atom_site_type_symbol
_atom_site_label
_atom_site_fract_x
_atom_site_fract_y
_atom_site_fract_z
Si Si1 0.181671 0.742095 0.665497
Si Si2 0.229173 0.163333 0.333900
Si Si3 0.780107 0.562661 0.322345
Si Si4 0.137271 0.373995 0.824174
Si Si5 0.545841 0.062696 0.176312
O O1 0.168587 0.765029 0.500000
O O2 0.185955 0.799734 0.771431
O O3 0.228655 0.707161 0.658872
O O4 0.144027 0.695000 0.724721
O O5 0.217066 0.139866 0.500000
O O6 0.240754 0.108259 0.226597
O O7 0.767962 0.500000 0.250000
O O8 0.780761 0.557220 0.500000
O O9 0.829500 0.583284 0.267453
O O10 0.085739 0.391044 0.788926
O O11 0.149378 0.381513 0.000000
O O12 0.500000 0.088402 0.250000
O O13 0.558635 0.000000 0.250000
O O14 0.538587 0.053408 0.000000
#
# Coordination Sequence:
#
# PCOD8293253 Si02
#       5
#    16  16  16  16  16
#     4   8  14  25  39  54  71  91 116 147 182 217
#     4   9  16  26  38  53  73  94 118 147 179 216
#     4  11  20  28  39  54  73  97 124 154 187 220
#     4   9  18  30  42  56  73  93 121 156 190 224
#     4  10  19  30  42  55  72  95 122 154 191 229
#
# _framework density 13.501915
#
# number of rings (size 3 to 8) (size 9 to 14) (size 15 to 20)
#    0.000    2.600    0.000    5.400    0.000    8.000 
#    0.000    0.000    0.000    0.000    0.000    0.000 
#    0.000    0.000    0.000    0.000    0.000    1.000 
#
# Total GULP energy -495827.053963 kJ/mol
# GULP energy per Si atom -12395.676349 kJ/mol
# Density = 1.347118 g / cm^3
# Si number density = 13.501915 Si / 1000 Ang^3
#
#
#
# Elastic Constant Matrix: (Units=GPa)
#
#
# Indices 1 2 3 4 5 6 
#
# 1 66.3888 50.0367 33.8997 0.0000 0.0000 0.0000
# 2 50.0367 77.2973 45.6096 0.0000 0.0000 0.0000
# 3 33.8997 45.6096 95.2182 0.0000 0.0000 0.0000
# 4 0.0000 0.0000 0.0000 21.8379 0.0000 0.0000
# 5 0.0000 0.0000 0.0000 0.0000 15.1676 0.0000
# 6 0.0000 0.0000 0.0000 0.0000 0.0000 24.2840
#
#
#
# Elastic Compliance Matrix: (Units=1/GPa)
#
#
# Indices 1 2 3 4 5 6 
#
# 1 0.029657 -0.018077 -0.001900 0.000000 0.000000 0.000000
# 2 -0.018077 0.029053 -0.007480 0.000000 0.000000 0.000000
# 3 -0.001900 -0.007480 0.014762 0.000000 0.000000 0.000000
# 4 0.000000 0.000000 0.000000 0.045792 0.000000 0.000000
# 5 0.000000 0.000000 0.000000 0.000000 0.065930 0.000000
# 6 0.000000 0.000000 0.000000 0.000000 0.000000 0.041179
#
#
# Mechanical properties :
#
#
# Convention : Reuss Voigt Hill
#
# Bulk Modulus (GPa) = 53.88730 55.33294 54.61012
# Shear Modulus (GPa) = 17.39291 19.54847 18.47069
#
# Velocity S-wave (km/s) = 3.59302 3.80916 3.70267
# Velocity P-wave (km/s) = 7.56376 7.77283 7.66901
#
# Compressibility (1/GPa) = 0.01855725
#
# Stress axis : x y z
#
# Youngs Moduli (GPa) = 33.71838 34.42012 67.74303
#
# Poissons Ratio (x) = 0.62222 0.12869
# Poissons Ratio (y) = 0.60953 0.50675
# Poissons Ratio (z) = 0.06406 0.25748
#
# Static dielectric constant tensor:
#      x y z
#    x 2.516090 0.000000 0.000000 
#    y 0.000000 2.732750 0.000000 
#    z 0.000000 0.000000 2.885730 
# 
# 
# High freq. dielectric constant tensor:
#      x y z
#    x 1.468620 0.000000 0.000000 
#    y 0.000000 1.499020 0.000000 
#    z 0.000000 0.000000 1.530000 
# 
# From -- ./inp_files/6239.got.cif
#   From: 2010.03.12/outbox.cif.g09.slc.cpg/sg72_4_cif.got.tgz:6239.got - 2010.04.16 14:54:00.
