data_PCOD8293774
_publ_section_title
;
Structure prediction by ZEFSAII (Michael W. Deem and Ramdas Pophale) SiO2 
 PCOD8293774
Probable space group: I B A M
;
_chemical_formula_sum "Si O2"
_cell_formula_units_Z 112
_cell_length_a 22.813682
_cell_length_b 13.074305
_cell_length_c 17.448200
_cell_angle_alpha 90.000000
_cell_angle_beta 90.000000
_cell_angle_gamma 90.000000
_cell_volume 5204.327598
_symmetry_space_group_name_H-M "I B A M"
_symmetry_group_IT_number 72
_symmetry_cell_setting 'orthorhombic'
loop_
_space_group_symop_operation_xyz
x,y,z
-x,-y,z
x,-y,1/2-z
-x,y,1/2-z
-x,-y,-z
x,y,-z
-x,y,1/2+z
x,-y,1/2+z
1/2+x,1/2+y,1/2+z
1/2-x,1/2-y,1/2+z
1/2+x,1/2-y,-z
1/2-x,1/2+y,-z
1/2-x,1/2-y,1/2-z
1/2+x,1/2+y,1/2-z
1/2-x,1/2+y,z
1/2+x,1/2-y,z
loop_
_atom_site_type_symbol
_atom_site_label
_atom_site_fract_x
_atom_site_fract_y
_atom_site_fract_z
Si Si1 0.268873 0.673433 0.588399
Si Si2 0.432879 0.603144 0.411708
Si Si3 0.363845 0.779301 0.334044
Si Si4 0.477811 0.113037 0.834507
Si Si5 0.164760 0.230739 0.165497
Si Si6 0.660850 0.492138 0.162045
Si Si7 0.956008 0.213266 0.586548
O O1 0.270573 0.644759 0.500000
O O2 0.309720 0.773893 0.605431
O O3 0.201865 0.692244 0.613127
O O4 0.292851 0.577705 0.636761
O O5 0.417011 0.630042 0.500000
O O6 0.404942 0.682256 0.351218
O O7 0.400133 0.497209 0.388448
O O8 0.503715 0.609747 0.401932
O O9 0.405917 0.879804 0.337476
O O10 0.332054 0.768983 0.252263
O O11 0.500000 0.145133 0.750000
O O12 0.502164 0.189252 0.898856
O O13 0.500000 0.000000 0.855021
O O14 0.191300 0.117868 0.151027
O O15 0.096667 0.223666 0.144824
O O16 0.642503 0.500000 0.250000
O O17 0.932246 0.217074 0.500000
#
# Coordination Sequence:
#
# PCOD8293774 Si02
#       7
#    16  16  16  16  16  16  16
#     4  11  25  44  64  91 132 173 217 273 328 381
#     4   9  19  37  62  92 130 164 199 253 323 391
#     4  10  19  38  65  90 122 167 213 262 310 382
#     4  10  20  38  63  94 127 165 210 258 320 379
#     4  12  23  41  66  94 126 169 219 269 318 383
#     4  11  22  40  66  95 121 165 219 268 320 384
#     4  10  22  39  61  92 132 169 203 261 328 382
#
# _framework density 21.520551999999999
#
# number of rings (size 3 to 8) (size 9 to 14) (size 15 to 20)
#    0.000    1.571    4.286    2.571    0.000    3.714 
#    2.571    2.143    0.000    0.000    0.000    0.000 
#    0.000    0.000    0.000    0.000    0.000    0.000 
#
# Total GULP energy -693946.429416 kJ/mol
# GULP energy per Si atom -12391.900525 kJ/mol
# Density = 2.147157 g / cm^3
# Si number density = 21.520552 Si / 1000 Ang^3
#
#
#
# Elastic Constant Matrix: (Units=GPa)
#
#
# Indices 1 2 3 4 5 6 
#
# 1 102.7654 30.0151 27.5222 0.0000 0.0000 0.0000
# 2 30.0151 66.0089 13.0081 0.0000 0.0000 0.0000
# 3 27.5222 13.0081 103.2347 0.0000 0.0000 0.0000
# 4 0.0000 0.0000 0.0000 24.6063 0.0000 0.0000
# 5 0.0000 0.0000 0.0000 0.0000 31.6625 0.0000
# 6 0.0000 0.0000 0.0000 0.0000 0.0000 27.1197
#
#
#
# Elastic Compliance Matrix: (Units=1/GPa)
#
#
# Indices 1 2 3 4 5 6 
#
# 1 0.011837 -0.004882 -0.002541 0.000000 0.000000 0.000000
# 2 -0.004882 0.017549 -0.000910 0.000000 0.000000 0.000000
# 3 -0.002541 -0.000910 0.010479 0.000000 0.000000 0.000000
# 4 0.000000 0.000000 0.000000 0.040640 0.000000 0.000000
# 5 0.000000 0.000000 0.000000 0.000000 0.031583 0.000000
# 6 0.000000 0.000000 0.000000 0.000000 0.000000 0.036874
#
#
# Mechanical properties :
#
#
# Convention : Reuss Voigt Hill
#
# Bulk Modulus (GPa) = 43.10346 45.89998 44.50172
# Shear Modulus (GPa) = 28.84192 30.10861 29.47526
#
# Velocity S-wave (km/s) = 3.66485 3.74446 3.70487
# Velocity P-wave (km/s) = 6.16284 6.33004 6.24700
#
# Compressibility (1/GPa) = 0.02319999
#
# Stress axis : x y z
#
# Youngs Moduli (GPa) = 84.47950 56.98461 95.43240
#
# Poissons Ratio (x) = 0.27819 0.24246
# Poissons Ratio (y) = 0.41242 0.08682
# Poissons Ratio (z) = 0.21463 0.05184
#
# Static dielectric constant tensor:
#      x y z
#    x 4.044200 0.000000 0.000000 
#    y 0.000000 3.864300 0.000000 
#    z 0.000000 0.000000 3.777140 
# 
# 
# High freq. dielectric constant tensor:
#      x y z
#    x 1.848750 0.000000 0.000000 
#    y 0.000000 1.820580 0.000000 
#    z 0.000000 0.000000 1.848150 
# 
# From -- ./inp_files/25202.got.cif
#   From: 2010.03.12/outbox.cif.g09.slc.cpg/sg72_13_cif.got.tgz:25202.got - 2010.04.16 14:54:00.
