data_PCOD8293242
_publ_section_title
;
Structure prediction by ZEFSAII (Michael W. Deem and Ramdas Pophale) SiO2 
 PCOD8293242
Probable space group: I B A M
;
_chemical_formula_sum "Si O2"
_cell_formula_units_Z 64
_cell_length_a 13.670056
_cell_length_b 34.317565
_cell_length_c 8.893092
_cell_angle_alpha 90.000000
_cell_angle_beta 90.000000
_cell_angle_gamma 90.000000
_cell_volume 4171.954313
_symmetry_space_group_name_H-M "I B A M"
_symmetry_group_IT_number 72
_symmetry_cell_setting 'orthorhombic'
loop_
_space_group_symop_operation_xyz
x,y,z
-x,-y,z
x,-y,1/2-z
-x,y,1/2-z
-x,-y,-z
x,y,-z
-x,y,1/2+z
x,-y,1/2+z
1/2+x,1/2+y,1/2+z
1/2-x,1/2-y,1/2+z
1/2+x,1/2-y,-z
1/2-x,1/2+y,-z
1/2-x,1/2-y,1/2-z
1/2+x,1/2+y,1/2-z
1/2-x,1/2+y,z
1/2+x,1/2-y,z
loop_
_atom_site_type_symbol
_atom_site_label
_atom_site_fract_x
_atom_site_fract_y
_atom_site_fract_z
Si Si1 0.604460 0.732034 0.176122
Si Si2 0.779565 0.309239 0.176147
Si Si3 0.605781 0.122697 0.824642
Si Si4 0.895188 0.463633 0.326501
O O1 0.500000 0.726614 0.250000
O O2 0.676372 0.700355 0.247925
O O3 0.642482 0.775393 0.211620
O O4 0.597375 0.724138 0.000000
O O5 0.817638 0.349004 0.246824
O O6 0.763030 0.314618 0.000000
O O7 0.500000 0.127333 0.750000
O O8 0.651409 0.079194 0.802599
O O9 0.594280 0.132995 0.000000
O O10 0.835495 0.500000 0.250000
O O11 0.906909 0.473443 0.500000
O O12 0.000000 0.461897 0.250000
#
# Coordination Sequence:
#
# PCOD8293242 Si02
#       4
#    16  16  16  16
#     4  10  20  33  48  65  87 114 145 181 219 259
#     4  10  20  32  47  66  87 114 147 181 217 257
#     4  10  19  29  42  62  88 117 148 182 218 256
#     4   9  16  25  38  56  80 111 144 176 211 252
#
# _framework density 15.340532
#
# number of rings (size 3 to 8) (size 9 to 14) (size 15 to 20)
#    0.000    2.250    0.000    4.500    0.000    8.000 
#    0.000    0.000    0.000    0.000    0.000    0.000 
#    0.000    1.000    0.000   10.500    0.000    5.750 
#
# Total GULP energy -396668.190598 kJ/mol
# GULP energy per Si atom -12395.880956 kJ/mol
# Density = 1.530562 g / cm^3
# Si number density = 15.340532 Si / 1000 Ang^3
#
#
#
# Elastic Constant Matrix: (Units=GPa)
#
#
# Indices 1 2 3 4 5 6 
#
# 1 91.0456 52.2757 52.5774 0.0004 0.0000 0.0001
# 2 52.2757 123.5316 67.0636 -0.0015 0.0000 0.0000
# 3 52.5774 67.0636 114.4549 -0.0058 0.0010 0.0007
# 4 0.0004 -0.0015 -0.0058 29.6901 -0.0002 -0.0006
# 5 0.0000 0.0000 0.0010 -0.0002 25.5362 -0.0004
# 6 0.0001 0.0000 0.0007 -0.0006 -0.0004 18.4674
#
#
#
# Elastic Compliance Matrix: (Units=1/GPa)
#
#
# Indices 1 2 3 4 5 6 
#
# 1 0.016281 -0.004149 -0.005048 -0.000001 0.000000 0.000000
# 2 -0.004149 0.012929 -0.005669 0.000000 0.000000 0.000000
# 3 -0.005048 -0.005669 0.014378 0.000003 -0.000001 -0.000001
# 4 -0.000001 0.000000 0.000003 0.033681 0.000000 0.000001
# 5 0.000000 0.000000 -0.000001 0.000000 0.039160 0.000001
# 6 0.000000 0.000000 -0.000001 0.000001 0.000001 0.054149
#
#
# Mechanical properties :
#
#
# Convention : Reuss Voigt Hill
#
# Bulk Modulus (GPa) = 72.17850 74.76285 73.47067
# Shear Modulus (GPa) = 24.39861 25.21309 24.80585
#
# Velocity S-wave (km/s) = 3.99239 4.05848 4.02557
# Velocity P-wave (km/s) = 8.27075 8.41445 8.34291
#
# Compressibility (1/GPa) = 0.01385454
#
# Stress axis : x y z
#
# Youngs Moduli (GPa) = 61.42146 77.34625 69.55173
#
# Poissons Ratio (x) = 0.32094 0.35108
# Poissons Ratio (y) = 0.25486 0.39432
# Poissons Ratio (z) = 0.31004 0.43851
#
# Static dielectric constant tensor:
#      x y z
#    x 2.578940 0.000010 0.000010 
#    y 0.000010 3.663990 -0.000010 
#    z 0.000010 -0.000010 3.155490 
# 
# 
# High freq. dielectric constant tensor:
#      x y z
#    x 1.537640 0.000000 0.000000 
#    y 0.000000 1.595790 0.000000 
#    z 0.000000 0.000000 1.614050 
# 
# From -- ./inp_files/2619.got.cif
#   From: 2010.03.12/outbox.cif.g09.slc.cpg/sg72_2_cif.got.tgz:2619.got - 2010.04.16 14:54:00.
