data_PCOD8293397
_publ_section_title
;
Structure prediction by ZEFSAII (Michael W. Deem and Ramdas Pophale) SiO2 
 PCOD8293397
Probable space group: I B A M
;
_chemical_formula_sum "Si O2"
_cell_formula_units_Z 88
_cell_length_a 13.479054
_cell_length_b 15.595337
_cell_length_c 20.383485
_cell_angle_alpha 90.000000
_cell_angle_beta 90.000000
_cell_angle_gamma 90.000000
_cell_volume 4284.820323
_symmetry_space_group_name_H-M "I B A M"
_symmetry_group_IT_number 72
_symmetry_cell_setting 'orthorhombic'
loop_
_space_group_symop_operation_xyz
x,y,z
-x,-y,z
x,-y,1/2-z
-x,y,1/2-z
-x,-y,-z
x,y,-z
-x,y,1/2+z
x,-y,1/2+z
1/2+x,1/2+y,1/2+z
1/2-x,1/2-y,1/2+z
1/2+x,1/2-y,-z
1/2-x,1/2+y,-z
1/2-x,1/2-y,1/2-z
1/2+x,1/2+y,1/2-z
1/2-x,1/2+y,z
1/2+x,1/2-y,z
loop_
_atom_site_type_symbol
_atom_site_label
_atom_site_fract_x
_atom_site_fract_y
_atom_site_fract_z
Si Si1 0.046488 0.086144 0.612710
Si Si2 0.358884 0.671548 0.074208
Si Si3 0.739131 0.511302 0.925576
Si Si4 0.500000 0.363238 0.250000
Si Si5 0.838778 0.264034 0.699040
Si Si6 0.891334 0.542026 0.186284
O O1 0.048364 0.080469 0.692140
O O2 0.979192 0.164420 0.585127
O O3 0.160739 0.088619 0.588717
O O4 0.000000 0.000000 0.582587
O O5 0.310502 0.579830 0.089932
O O6 0.309390 0.741346 0.123386
O O7 0.337603 0.701959 0.000000
O O8 0.833923 0.521285 0.879872
O O9 0.776693 0.517232 0.000000
O O10 0.582190 0.306232 0.216955
O O11 0.750000 0.250000 0.750000
O O12 0.890611 0.356569 0.700588
O O13 0.838559 0.500000 0.250000
O O14 0.000000 0.500000 0.179020
#
# Coordination Sequence:
#
# PCOD8293397 Si02
#       6
#    16  16  16   8  16  16
#     4   9  17  30  53  84 115 143 180 230 295 363
#     4   9  19  35  56  84 115 144 180 236 300 353
#     4  10  20  36  59  84 113 149 189 238 295 357
#     4  10  19  32  51  80 112 146 190 246 299 344
#     4  11  22  37  59  83 112 151 199 247 292 350
#     4  11  24  41  59  80 112 155 200 243 292 352
#
# _framework density 20.537617000000001
#
# number of rings (size 3 to 8) (size 9 to 14) (size 15 to 20)
#    0.000    2.000    0.000    4.091    0.000    6.182 
#    0.000    0.000    0.000    5.455    0.000    0.000 
#    0.000    0.000    0.000    0.000    0.000    0.000 
#
# Total GULP energy -545308.251412 kJ/mol
# GULP energy per Si atom -12393.369350 kJ/mol
# Density = 2.049087 g / cm^3
# Si number density = 20.537617 Si / 1000 Ang^3
#
#
#
# Elastic Constant Matrix: (Units=GPa)
#
#
# Indices 1 2 3 4 5 6 
#
# 1 95.3896 30.8131 54.9782 0.0000 0.0000 0.0000
# 2 30.8131 80.0401 38.8197 0.0000 0.0000 0.0000
# 3 54.9782 38.8197 153.7361 0.0000 0.0000 0.0000
# 4 0.0000 0.0000 0.0000 12.0688 0.0000 0.0000
# 5 0.0000 0.0000 0.0000 0.0000 34.6004 0.0000
# 6 0.0000 0.0000 0.0000 0.0000 0.0000 19.6270
#
#
#
# Elastic Compliance Matrix: (Units=1/GPa)
#
#
# Indices 1 2 3 4 5 6 
#
# 1 0.013957 -0.003364 -0.004142 0.000000 0.000000 0.000000
# 2 -0.003364 0.015048 -0.002597 0.000000 0.000000 0.000000
# 3 -0.004142 -0.002597 0.008642 0.000000 0.000000 0.000000
# 4 0.000000 0.000000 0.000000 0.082859 0.000000 0.000000
# 5 0.000000 0.000000 0.000000 0.000000 0.028901 0.000000
# 6 0.000000 0.000000 0.000000 0.000000 0.000000 0.050950
#
#
# Mechanical properties :
#
#
# Convention : Reuss Voigt Hill
#
# Bulk Modulus (GPa) = 57.33481 64.26531 60.80006
# Shear Modulus (GPa) = 22.08708 26.89621 24.49164
#
# Velocity S-wave (km/s) = 3.28296 3.62278 3.45704
# Velocity P-wave (km/s) = 6.50753 6.98991 6.75303
#
# Compressibility (1/GPa) = 0.01744141
#
# Stress axis : x y z
#
# Youngs Moduli (GPa) = 71.64755 66.45261 115.72063
#
# Poissons Ratio (x) = 0.22357 0.47929
# Poissons Ratio (y) = 0.24105 0.30049
# Poissons Ratio (z) = 0.29675 0.17256
#
# Static dielectric constant tensor:
#      x y z
#    x 3.544760 0.000000 0.000000 
#    y 0.000000 3.644560 0.000000 
#    z 0.000000 0.000000 4.198610 
# 
# 
# High freq. dielectric constant tensor:
#      x y z
#    x 1.786820 0.000000 0.000000 
#    y 0.000000 1.785850 0.000000 
#    z 0.000000 0.000000 1.822230 
# 
# From -- ./inp_files/37914.got.cif
#   From: 2010.03.12/outbox.cif.g09.slc.cpg/sg72_19_cif.got.tgz:37914.got - 2010.04.16 14:54:00.
