data_PCOD8293536
_publ_section_title
;
Structure prediction by ZEFSAII (Michael W. Deem and Ramdas Pophale) SiO2 
 PCOD8293536
Probable space group: I B A M
;
_chemical_formula_sum "Si O2"
_cell_formula_units_Z 96
_cell_length_a 11.892049
_cell_length_b 23.573057
_cell_length_c 16.011909
_cell_angle_alpha 90.000000
_cell_angle_beta 90.000000
_cell_angle_gamma 90.000000
_cell_volume 4488.649656
_symmetry_space_group_name_H-M "I B A M"
_symmetry_group_IT_number 72
_symmetry_cell_setting 'orthorhombic'
loop_
_space_group_symop_operation_xyz
x,y,z
-x,-y,z
x,-y,1/2-z
-x,y,1/2-z
-x,-y,-z
x,y,-z
-x,y,1/2+z
x,-y,1/2+z
1/2+x,1/2+y,1/2+z
1/2-x,1/2-y,1/2+z
1/2+x,1/2-y,-z
1/2-x,1/2+y,-z
1/2-x,1/2-y,1/2-z
1/2+x,1/2+y,1/2-z
1/2-x,1/2+y,z
1/2+x,1/2-y,z
loop_
_atom_site_type_symbol
_atom_site_label
_atom_site_fract_x
_atom_site_fract_y
_atom_site_fract_z
Si Si1 0.258153 0.581780 0.400198
Si Si2 0.357334 0.272503 0.401728
Si Si3 0.805699 0.044116 0.599384
Si Si4 0.438044 0.157225 0.338047
Si Si5 0.329573 0.146948 0.093884
Si Si6 0.995831 0.879135 0.597678
O O1 0.239222 0.585498 0.500000
O O2 0.277763 0.518117 0.366012
O O3 0.149443 0.606684 0.353459
O O4 0.368189 0.616539 0.369443
O O5 0.354567 0.255984 0.500000
O O6 0.374687 0.216784 0.346345
O O7 0.239520 0.299611 0.368544
O O8 0.456840 0.316939 0.381236
O O9 0.808423 0.038873 0.500000
O O10 0.707788 0.086636 0.633156
O O11 0.924057 0.070301 0.633204
O O12 0.500000 0.149882 0.250000
O O13 0.537479 0.155395 0.405781
O O14 0.283735 0.144514 0.000000
O O15 0.992638 0.889138 0.500000
#
# Coordination Sequence:
#
# PCOD8293536 Si02
#       6
#    16  16  16  16  16  16
#     4  10  19  33  57  87 115 145 191 238 286 350
#     4   9  19  37  60  82 107 144 191 242 294 343
#     4   8  15  31  58  89 114 138 175 237 298 341
#     4  12  26  38  50  79 117 161 197 232 279 344
#     4   9  19  38  61  81 107 143 187 239 295 349
#     4   8  15  30  57  91 115 136 175 238 301 342
#
# _framework density 21.387277000000001
#
# number of rings (size 3 to 8) (size 9 to 14) (size 15 to 20)
#    0.000    2.667    0.000    4.000    2.333    3.333 
#    0.000    4.167    0.000    0.000    0.000    2.333 
#    0.000    0.000    0.000    0.000    0.000    2.667 
#
# Total GULP energy -594797.028817 kJ/mol
# GULP energy per Si atom -12391.604767 kJ/mol
# Density = 2.133860 g / cm^3
# Si number density = 21.387277 Si / 1000 Ang^3
#
#
#
# Elastic Constant Matrix: (Units=GPa)
#
#
# Indices 1 2 3 4 5 6 
#
# 1 146.9192 52.0247 16.9727 0.0000 0.0000 0.0000
# 2 52.0247 107.3780 27.1959 -0.0001 0.0000 0.0000
# 3 16.9727 27.1959 35.3578 -0.0002 0.0000 0.0000
# 4 0.0000 -0.0001 -0.0002 3.4418 0.0000 0.0000
# 5 0.0000 0.0000 0.0000 0.0000 17.1183 0.0000
# 6 0.0000 0.0000 0.0000 0.0000 0.0000 28.3704
#
#
#
# Elastic Compliance Matrix: (Units=1/GPa)
#
#
# Indices 1 2 3 4 5 6 
#
# 1 0.008250 -0.003719 -0.001100 0.000000 0.000000 0.000000
# 2 -0.003719 0.013242 -0.008400 0.000000 0.000000 0.000000
# 3 -0.001100 -0.008400 0.035272 0.000002 0.000000 0.000000
# 4 0.000000 0.000000 0.000002 0.290544 0.000001 0.000000
# 5 0.000000 0.000000 0.000000 0.000001 0.058417 0.000000
# 6 0.000000 0.000000 0.000000 0.000000 0.000000 0.035248
#
#
# Mechanical properties :
#
#
# Convention : Reuss Voigt Hill
#
# Bulk Modulus (GPa) = 32.97513 53.56019 43.26766
# Shear Modulus (GPa) = 10.47076 22.68356 16.57716
#
# Velocity S-wave (km/s) = 2.21504 3.26023 2.78707
# Velocity P-wave (km/s) = 4.68972 6.26654 5.53457
#
# Compressibility (1/GPa) = 0.03032588
#
# Stress axis : x y z
#
# Youngs Moduli (GPa) = 121.20703 75.51635 28.35141
#
# Poissons Ratio (x) = 0.28082 0.03119
# Poissons Ratio (y) = 0.45073 0.23816
# Poissons Ratio (z) = 0.13334 0.63436
#
# Static dielectric constant tensor:
#      x y z
#    x 4.230090 0.000000 0.000000 
#    y 0.000000 3.967180 0.000000 
#    z 0.000000 0.000000 3.291630 
# 
# 
# High freq. dielectric constant tensor:
#      x y z
#    x 1.846490 0.000000 0.000000 
#    y 0.000000 1.844990 0.000000 
#    z 0.000000 0.000000 1.787100 
# 
# From -- ./inp_files/29429.got.cif
#   From: 2010.03.12/outbox.cif.g09.slc.cpg/sg72_15_cif.got.tgz:29429.got - 2010.04.16 14:54:00.
