data_PCOD8293704
_publ_section_title
;
Structure prediction by ZEFSAII (Michael W. Deem and Ramdas Pophale) SiO2 
 PCOD8293704
Probable space group: I B A M
;
_chemical_formula_sum "Si O2"
_cell_formula_units_Z 128
_cell_length_a 10.750433
_cell_length_b 24.341112
_cell_length_c 24.861004
_cell_angle_alpha 90.000000
_cell_angle_beta 90.000000
_cell_angle_gamma 90.000000
_cell_volume 6505.565218
_symmetry_space_group_name_H-M "I B A M"
_symmetry_group_IT_number 72
_symmetry_cell_setting 'orthorhombic'
loop_
_space_group_symop_operation_xyz
x,y,z
-x,-y,z
x,-y,1/2-z
-x,y,1/2-z
-x,-y,-z
x,y,-z
-x,y,1/2+z
x,-y,1/2+z
1/2+x,1/2+y,1/2+z
1/2-x,1/2-y,1/2+z
1/2+x,1/2-y,-z
1/2-x,1/2+y,-z
1/2-x,1/2-y,1/2-z
1/2+x,1/2+y,1/2-z
1/2-x,1/2+y,z
1/2+x,1/2-y,z
loop_
_atom_site_type_symbol
_atom_site_label
_atom_site_fract_x
_atom_site_fract_y
_atom_site_fract_z
Si Si1 0.604376 0.371792 0.154911
Si Si2 0.186424 0.529233 0.436499
Si Si3 0.160271 0.100501 0.636514
Si Si4 0.564161 0.920193 0.937846
Si Si5 0.769118 0.222932 0.869061
Si Si6 0.234148 0.676499 0.937896
Si Si7 0.850931 0.061943 0.749837
Si Si8 0.479669 0.257399 0.310056
O O1 0.487652 0.406689 0.134967
O O2 0.667408 0.351892 0.100659
O O3 0.693218 0.407361 0.194800
O O4 0.555242 0.321291 0.190984
O O5 0.212059 0.535347 0.500000
O O6 0.302082 0.552159 0.403654
O O7 0.164924 0.465790 0.418323
O O8 0.071687 0.566972 0.414335
O O9 0.205768 0.159981 0.615664
O O10 0.207436 0.091701 0.697892
O O11 0.605722 0.857281 0.927105
O O12 0.548928 0.933098 0.000000
O O13 0.771245 0.258955 0.923982
O O14 0.635335 0.225910 0.839023
O O15 0.884318 0.249997 0.836709
O O16 0.274627 0.670076 0.000000
O O17 0.000000 0.064562 0.750000
O O18 0.800945 0.000000 0.750000
O O19 0.500000 0.234735 0.250000
#
# Coordination Sequence:
#
# PCOD8293704 Si02
#       8
#    16  16  16  16  16  16  16  16
#     4   9  19  35  54  80 112 144 182 225 279 333
#     4   9  18  33  56  81 106 140 185 237 283 329
#     4  10  20  34  56  84 115 144 182 235 285 330
#     4   8  17  35  55  75 101 143 191 229 272 335
#     4  10  22  35  55  85 113 147 191 234 280 336
#     4  10  21  37  57  79 111 154 189 227 279 345
#     4   9  18  33  54  80 110 148 187 222 276 347
#     4  10  19  36  58  79 110 147 186 231 278 332
#
# _framework density 19.675462
#
# number of rings (size 3 to 8) (size 9 to 14) (size 15 to 20)
#    0.000    2.625    0.000    3.000    3.500    2.000 
#    0.000    5.000    0.000    2.250    0.000    0.000 
#    0.000    0.000    0.000    0.000    0.000    0.000 
#
# Total GULP energy -792965.593783 kJ/mol
# GULP energy per Si atom -12390.087403 kJ/mol
# Density = 1.963068 g / cm^3
# Si number density = 19.675462 Si / 1000 Ang^3
#
#
#
# Elastic Constant Matrix: (Units=GPa)
#
#
# Indices 1 2 3 4 5 6 
#
# 1 46.9342 1.0710 17.0171 0.0000 0.0000 0.0000
# 2 1.0710 87.1746 37.5072 0.0000 0.0000 0.0000
# 3 17.0171 37.5072 104.2575 0.0000 0.0000 0.0000
# 4 0.0000 0.0000 0.0000 28.1384 0.0000 0.0000
# 5 0.0000 0.0000 0.0000 0.0000 23.8332 0.0000
# 6 0.0000 0.0000 0.0000 0.0000 0.0000 22.6820
#
#
#
# Elastic Compliance Matrix: (Units=1/GPa)
#
#
# Indices 1 2 3 4 5 6 
#
# 1 0.022826 0.001565 -0.004289 0.000000 0.000000 0.000000
# 2 0.001565 0.013679 -0.005177 0.000000 0.000000 0.000000
# 3 -0.004289 -0.005177 0.012154 0.000000 0.000000 0.000000
# 4 0.000000 0.000000 0.000000 0.035539 0.000000 0.000000
# 5 0.000000 0.000000 0.000000 0.000000 0.041958 0.000000
# 6 0.000000 0.000000 0.000000 0.000000 0.000000 0.044088
#
#
# Mechanical properties :
#
#
# Convention : Reuss Voigt Hill
#
# Bulk Modulus (GPa) = 30.43399 38.83965 34.63682
# Shear Modulus (GPa) = 25.38111 27.11547 26.24829
#
# Velocity S-wave (km/s) = 3.59554 3.71635 3.65644
# Velocity P-wave (km/s) = 5.72178 6.18046 5.95554
#
# Compressibility (1/GPa) = 0.03285800
#
# Stress axis : x y z
#
# Youngs Moduli (GPa) = 43.81041 73.10343 82.27799
#
# Poissons Ratio (x) = -0.11439 0.35285
# Poissons Ratio (y) = -0.06855 0.42592
# Poissons Ratio (z) = 0.18788 0.37843
#
# Static dielectric constant tensor:
#      x y z
#    x 3.476660 0.000000 0.000000 
#    y 0.000000 3.628700 0.000000 
#    z 0.000000 0.000000 3.465430 
# 
# 
# High freq. dielectric constant tensor:
#      x y z
#    x 1.743580 0.000000 0.000000 
#    y 0.000000 1.769130 0.000000 
#    z 0.000000 0.000000 1.756180 
# 
# From -- ./inp_files/43713.got.cif
#   From: 2010.03.12/outbox.cif.g09.slc.cpg/sg72_22_cif.got.tgz:43713.got - 2010.04.16 14:54:00.
