data_PCOD8294044
_publ_section_title
;
Structure prediction by ZEFSAII (Michael W. Deem and Ramdas Pophale) SiO2 
 PCOD8294044
Probable space group: I B A M
;
_chemical_formula_sum "Si O2"
_cell_formula_units_Z 112
_cell_length_a 17.039860
_cell_length_b 13.845168
_cell_length_c 23.472295
_cell_angle_alpha 90.000000
_cell_angle_beta 90.000000
_cell_angle_gamma 90.000000
_cell_volume 5537.577367
_symmetry_space_group_name_H-M "I B A M"
_symmetry_group_IT_number 72
_symmetry_cell_setting 'orthorhombic'
loop_
_space_group_symop_operation_xyz
x,y,z
-x,-y,z
x,-y,1/2-z
-x,y,1/2-z
-x,-y,-z
x,y,-z
-x,y,1/2+z
x,-y,1/2+z
1/2+x,1/2+y,1/2+z
1/2-x,1/2-y,1/2+z
1/2+x,1/2-y,-z
1/2-x,1/2+y,-z
1/2-x,1/2-y,1/2-z
1/2+x,1/2+y,1/2-z
1/2-x,1/2+y,z
1/2+x,1/2-y,z
loop_
_atom_site_type_symbol
_atom_site_label
_atom_site_fract_x
_atom_site_fract_y
_atom_site_fract_z
Si Si1 0.785806 0.645330 0.065789
Si Si2 0.205038 0.747597 0.160744
Si Si3 0.454939 0.724497 0.390449
Si Si4 0.938338 0.079553 0.334712
Si Si5 0.042946 0.406748 0.065777
Si Si6 0.128989 0.960402 0.063457
Si Si7 0.790511 0.894700 0.239404
O O1 0.758492 0.735639 0.104664
O O2 0.721293 0.560651 0.071495
O O3 0.868837 0.606583 0.090144
O O4 0.792208 0.680937 0.000000
O O5 0.115126 0.727503 0.145291
O O6 0.209376 0.842140 0.200131
O O7 0.234882 0.654505 0.193488
O O8 0.519861 0.681047 0.347846
O O9 0.493186 0.809118 0.427354
O O10 0.420641 0.638320 0.429358
O O11 0.878933 0.099163 0.283669
O O12 0.895541 0.041664 0.391835
O O13 0.000000 0.000000 0.313197
O O14 0.000000 0.500000 0.094723
O O15 0.052894 0.430188 0.000000
O O16 0.112165 0.000201 0.000000
O O17 0.755153 0.000000 0.250000
#
# Coordination Sequence:
#
# PCOD8294044 Si02
#       7
#    16  16  16  16  16  16  16
#     4   9  18  37  59  80 113 150 188 235 284 339
#     4  10  23  39  59  86 111 149 194 232 281 339
#     4  10  20  35  55  82 115 147 187 236 284 336
#     4  10  21  35  57  88 116 146 185 236 296 346
#     4  10  21  35  53  78 111 153 191 226 273 333
#     4   9  18  33  56  86 117 148 185 234 292 347
#     4  11  22  39  60  82 115 151 190 235 280 336
#
# _framework density 20.225451
#
# number of rings (size 3 to 8) (size 9 to 14) (size 15 to 20)
#    0.000    2.143    0.000    3.857    0.000    8.000 
#    0.000    0.714    0.000    6.000    0.000    5.000 
#    0.000    0.000    0.000    0.000    0.000    0.000 
#
# Total GULP energy -694418.563629 kJ/mol
# GULP energy per Si atom -12400.331493 kJ/mol
# Density = 2.017942 g / cm^3
# Si number density = 20.225451 Si / 1000 Ang^3
#
#
#
# Elastic Constant Matrix: (Units=GPa)
#
#
# Indices 1 2 3 4 5 6 
#
# 1 130.7387 52.5589 40.6240 0.0000 0.0000 0.0000
# 2 52.5589 86.0033 23.7573 0.0000 0.0000 0.0000
# 3 40.6240 23.7573 81.3078 0.0000 0.0000 0.0000
# 4 0.0000 0.0000 0.0000 8.2966 0.0000 0.0000
# 5 0.0000 0.0000 0.0000 0.0000 22.7877 0.0000
# 6 0.0000 0.0000 0.0000 0.0000 0.0000 17.0987
#
#
#
# Elastic Compliance Matrix: (Units=1/GPa)
#
#
# Indices 1 2 3 4 5 6 
#
# 1 0.011173 -0.005750 -0.003902 0.000000 0.000000 0.000000
# 2 -0.005750 0.015608 -0.001687 0.000000 0.000000 0.000000
# 3 -0.003902 -0.001687 0.014742 0.000000 0.000000 0.000000
# 4 0.000000 0.000000 0.000000 0.120532 0.000000 0.000000
# 5 0.000000 0.000000 0.000000 0.000000 0.043883 0.000000
# 6 0.000000 0.000000 0.000000 0.000000 0.000000 0.058484
#
#
# Mechanical properties :
#
#
# Convention : Reuss Voigt Hill
#
# Bulk Modulus (GPa) = 53.07110 59.10336 56.08723
# Shear Modulus (GPa) = 17.04264 21.71058 19.37661
#
# Velocity S-wave (km/s) = 2.90596 3.27988 3.09857
# Velocity P-wave (km/s) = 6.12831 6.60524 6.37124
#
# Compressibility (1/GPa) = 0.01884265
#
# Stress axis : x y z
#
# Youngs Moduli (GPa) = 89.50114 64.07106 67.83485
#
# Poissons Ratio (x) = 0.36842 0.26471
# Poissons Ratio (y) = 0.51465 0.11447
# Poissons Ratio (z) = 0.34926 0.10811
#
# Static dielectric constant tensor:
#      x y z
#    x 3.961640 0.000000 0.000000 
#    y 0.000000 3.496830 0.000000 
#    z 0.000000 0.000000 3.664850 
# 
# 
# High freq. dielectric constant tensor:
#      x y z
#    x 1.802710 0.000000 0.000000 
#    y 0.000000 1.770320 0.000000 
#    z 0.000000 0.000000 1.785820 
# 
# From -- ./inp_files/44363.got.cif
#   From: 2010.03.12/outbox.cif.g09.slc.cpg/sg72_23_cif.got.tgz:44363.got - 2010.04.16 14:54:00.
