data_PCOD8294878
_publ_section_title
;
Structure prediction by ZEFSAII (Michael W. Deem and Ramdas Pophale) SiO2 
 PCOD8294878
Probable space group: I B A M
;
_chemical_formula_sum "Si O2"
_cell_formula_units_Z 56
_cell_length_a 26.835048
_cell_length_b 10.200376
_cell_length_c 9.444875
_cell_angle_alpha 90.000000
_cell_angle_beta 90.000000
_cell_angle_gamma 90.000000
_cell_volume 2585.322773
_symmetry_space_group_name_H-M "I B A M"
_symmetry_group_IT_number 72
_symmetry_cell_setting 'orthorhombic'
loop_
_space_group_symop_operation_xyz
x,y,z
-x,-y,z
x,-y,1/2-z
-x,y,1/2-z
-x,-y,-z
x,y,-z
-x,y,1/2+z
x,-y,1/2+z
1/2+x,1/2+y,1/2+z
1/2-x,1/2-y,1/2+z
1/2+x,1/2-y,-z
1/2-x,1/2+y,-z
1/2-x,1/2-y,1/2-z
1/2+x,1/2+y,1/2-z
1/2-x,1/2+y,z
1/2+x,1/2-y,z
loop_
_atom_site_type_symbol
_atom_site_label
_atom_site_fract_x
_atom_site_fract_y
_atom_site_fract_z
Si Si1 0.208669 0.562920 0.000000
Si Si2 0.546825 0.863649 0.168730
Si Si3 0.694177 0.708036 0.500000
Si Si4 0.345572 0.214467 0.787763
Si Si5 0.803571 0.086336 0.000000
O O1 0.173818 0.580225 0.862507
O O2 0.245416 0.693525 0.000000
O O3 0.241919 0.430240 0.000000
O O4 0.500000 0.795555 0.250000
O O5 0.595096 0.773999 0.194073
O O6 0.556053 0.000000 0.250000
O O7 0.536692 0.882685 0.000000
O O8 0.672388 0.792059 0.628241
O O9 0.672656 0.559476 0.500000
O O10 0.321665 0.343430 0.858191
#
# Coordination Sequence:
#
# PCOD8294878 Si02
#       5
#     8  16   8  16   8
#     4   9  21  40  60  91 131 181 215 269 307 391
#     4  11  24  44  71  98 128 163 213 280 334 390
#     4  10  22  36  65  92 133 178 217 264 312 389
#     4  11  21  44  62  98 131 174 218 266 327 387
#     4   9  21  40  63  86 135 178 215 258 322 377
#
# _framework density 21.660739
#
# number of rings (size 3 to 8) (size 9 to 14) (size 15 to 20)
#    0.857    0.857    2.857    3.429    4.000    0.000 
#   15.429    0.000    0.000    5.143    0.000    0.000 
#    0.000    0.000    0.000    0.000    0.000    0.000 
#
# Total GULP energy -347084.149584 kJ/mol
# GULP energy per Si atom -12395.862485 kJ/mol
# Density = 2.161144 g / cm^3
# Si number density = 21.660739 Si / 1000 Ang^3
#
#
#
# Elastic Constant Matrix: (Units=GPa)
#
#
# Indices 1 2 3 4 5 6 
#
# 1 180.8349 30.5155 64.3967 0.0000 0.0000 0.0000
# 2 30.5155 34.1251 10.9051 0.0000 0.0000 0.0000
# 3 64.3967 10.9051 194.8538 0.0000 0.0000 0.0000
# 4 0.0000 0.0000 0.0000 12.8698 0.0000 0.0000
# 5 0.0000 0.0000 0.0000 0.0000 56.9075 0.0000
# 6 0.0000 0.0000 0.0000 0.0000 0.0000 26.7519
#
#
#
# Elastic Compliance Matrix: (Units=1/GPa)
#
#
# Indices 1 2 3 4 5 6 
#
# 1 0.007249 -0.005821 -0.002070 0.000000 0.000000 0.000000
# 2 -0.005821 0.034512 -0.000008 0.000000 0.000000 0.000000
# 3 -0.002070 -0.000008 0.005817 0.000000 0.000000 0.000000
# 4 0.000000 0.000000 0.000000 0.077701 0.000000 0.000000
# 5 0.000000 0.000000 0.000000 0.000000 0.017572 0.000000
# 6 0.000000 0.000000 0.000000 0.000000 0.000000 0.037381
#
#
# Mechanical properties :
#
#
# Convention : Reuss Voigt Hill
#
# Bulk Modulus (GPa) = 31.46619 69.04981 50.25800
# Shear Modulus (GPa) = 24.19866 39.57226 31.88546
#
# Velocity S-wave (km/s) = 3.34603 4.27888 3.84088
# Velocity P-wave (km/s) = 5.43013 7.50725 6.55153
#
# Compressibility (1/GPa) = 0.03178015
#
# Stress axis : x y z
#
# Youngs Moduli (GPa) = 137.94340 28.97566 171.92166
#
# Poissons Ratio (x) = 0.16867 0.35588
# Poissons Ratio (y) = 0.80297 0.00132
# Poissons Ratio (z) = 0.28555 0.00022
#
# Static dielectric constant tensor:
#      x y z
#    x 4.156080 0.000000 0.000000 
#    y 0.000000 3.604590 0.000000 
#    z 0.000000 0.000000 4.019980 
# 
# 
# High freq. dielectric constant tensor:
#      x y z
#    x 1.848050 0.000000 0.000000 
#    y 0.000000 1.836260 0.000000 
#    z 0.000000 0.000000 1.867220 
# 
# From -- ./inp_files/7702.got.cif
#   From: 2010.03.12/outbox.cif.g09.slc.cpg/sg72_4_cif.got.tgz:7702.got - 2010.04.16 14:54:00.
