data_PCOD8294923
_publ_section_title
;
Structure prediction by ZEFSAII (Michael W. Deem and Ramdas Pophale) SiO2 
 PCOD8294923
Probable space group: I B A M
;
_chemical_formula_sum "Si O2"
_cell_formula_units_Z 80
_cell_length_a 14.709033
_cell_length_b 10.603506
_cell_length_c 25.581232
_cell_angle_alpha 90.000000
_cell_angle_beta 90.000000
_cell_angle_gamma 90.000000
_cell_volume 3989.836189
_symmetry_space_group_name_H-M "I B A M"
_symmetry_group_IT_number 72
_symmetry_cell_setting 'orthorhombic'
loop_
_space_group_symop_operation_xyz
x,y,z
-x,-y,z
x,-y,1/2-z
-x,y,1/2-z
-x,-y,-z
x,y,-z
-x,y,1/2+z
x,-y,1/2+z
1/2+x,1/2+y,1/2+z
1/2-x,1/2-y,1/2+z
1/2+x,1/2-y,-z
1/2-x,1/2+y,-z
1/2-x,1/2-y,1/2-z
1/2+x,1/2+y,1/2-z
1/2-x,1/2+y,z
1/2+x,1/2-y,z
loop_
_atom_site_type_symbol
_atom_site_label
_atom_site_fract_x
_atom_site_fract_y
_atom_site_fract_z
Si Si1 0.106011 0.013457 0.648307
Si Si2 0.501205 0.856801 0.059184
Si Si3 0.747495 0.878137 0.282562
Si Si4 0.831977 0.813172 0.559463
Si Si5 0.341910 0.758205 0.124636
O O1 0.157808 0.879997 0.650127
O O2 0.151711 0.099171 0.693431
O O3 0.121873 0.073082 0.591268
O O4 0.000000 0.000000 0.661035
O O5 0.603971 0.808855 0.063316
O O6 0.439251 0.777013 0.098184
O O7 0.500000 0.000000 0.077979
O O8 0.464121 0.843740 0.000000
O O9 0.750000 0.750000 0.250000
O O10 0.675979 0.860447 0.329904
O O11 0.714723 0.000000 0.250000
O O12 0.821408 0.860463 0.500000
O O13 0.734838 0.770802 0.580684
#
# Coordination Sequence:
#
# PCOD8294923 Si02
#       5
#    16  16  16  16  16
#     4  11  23  42  68  95 127 170 218 274 327 390
#     4  10  22  39  60  91 132 172 214 262 318 388
#     4  11  24  45  69  95 125 166 215 272 333 388
#     4  10  23  38  61  95 131 172 215 258 316 387
#     4  11  23  41  66  92 129 170 214 269 327 386
#
# _framework density 20.050948000000002
#
# number of rings (size 3 to 8) (size 9 to 14) (size 15 to 20)
#    0.000    1.400    4.000    0.600    5.600    2.400 
#    0.000    0.000    0.000    0.000    0.000    0.000 
#    0.000    0.000    0.000    0.000    0.000    0.000 
#
# Total GULP energy -496154.194791 kJ/mol
# GULP energy per Si atom -12403.854870 kJ/mol
# Density = 2.000531 g / cm^3
# Si number density = 20.050948 Si / 1000 Ang^3
#
#
#
# Elastic Constant Matrix: (Units=GPa)
#
#
# Indices 1 2 3 4 5 6 
#
# 1 83.1987 26.0368 47.0034 0.0000 0.0000 0.0000
# 2 26.0368 123.6132 54.8238 0.0000 0.0000 0.0000
# 3 47.0034 54.8238 118.2731 0.0000 0.0000 0.0000
# 4 0.0000 0.0000 0.0000 40.0803 0.0000 0.0000
# 5 0.0000 0.0000 0.0000 0.0000 22.9893 0.0000
# 6 0.0000 0.0000 0.0000 0.0000 0.0000 32.9885
#
#
#
# Elastic Compliance Matrix: (Units=1/GPa)
#
#
# Indices 1 2 3 4 5 6 
#
# 1 0.015544 -0.000673 -0.005866 0.000000 0.000000 0.000000
# 2 -0.000673 0.010212 -0.004466 0.000000 0.000000 0.000000
# 3 -0.005866 -0.004466 0.012856 0.000000 0.000000 0.000000
# 4 0.000000 0.000000 0.000000 0.024950 0.000000 0.000000
# 5 0.000000 0.000000 0.000000 0.000000 0.043498 0.000000
# 6 0.000000 0.000000 0.000000 0.000000 0.000000 0.030314
#
#
# Mechanical properties :
#
#
# Convention : Reuss Voigt Hill
#
# Bulk Modulus (GPa) = 60.22907 64.53478 62.38192
# Shear Modulus (GPa) = 30.31811 32.35969 31.33890
#
# Velocity S-wave (km/s) = 3.89273 4.02166 3.95772
# Velocity P-wave (km/s) = 7.09279 7.33623 7.21554
#
# Compressibility (1/GPa) = 0.01660328
#
# Stress axis : x y z
#
# Youngs Moduli (GPa) = 64.33498 97.92065 77.78212
#
# Poissons Ratio (x) = 0.06586 0.45623
# Poissons Ratio (y) = 0.04327 0.34741
# Poissons Ratio (z) = 0.37736 0.43736
#
# Static dielectric constant tensor:
#      x y z
#    x 3.491420 0.000000 0.000000 
#    y 0.000000 3.708780 0.000000 
#    z 0.000000 0.000000 3.791910 
# 
# 
# High freq. dielectric constant tensor:
#      x y z
#    x 1.776290 0.000000 0.000000 
#    y 0.000000 1.788010 0.000000 
#    z 0.000000 0.000000 1.792080 
# 
# From -- ./inp_files/43108.got.cif
#   From: 2010.03.12/outbox.cif.g09.slc.cpg/sg72_22_cif.got.tgz:43108.got - 2010.04.16 14:54:00.
