data_PCOD8294687
_publ_section_title
;
Structure prediction by ZEFSAII (Michael W. Deem and Ramdas Pophale) SiO2 
 PCOD8294687
Probable space group: I B A M
;
_chemical_formula_sum "Si O2"
_cell_formula_units_Z 116
_cell_length_a 26.399935
_cell_length_b 24.077437
_cell_length_c 8.815023
_cell_angle_alpha 90.000000
_cell_angle_beta 90.000000
_cell_angle_gamma 90.000000
_cell_volume 5603.205653
_symmetry_space_group_name_H-M "I B A M"
_symmetry_group_IT_number 72
_symmetry_cell_setting 'orthorhombic'
loop_
_space_group_symop_operation_xyz
x,y,z
-x,-y,z
x,-y,1/2-z
-x,y,1/2-z
-x,-y,-z
x,y,-z
-x,y,1/2+z
x,-y,1/2+z
1/2+x,1/2+y,1/2+z
1/2-x,1/2-y,1/2+z
1/2+x,1/2-y,-z
1/2-x,1/2+y,-z
1/2-x,1/2-y,1/2-z
1/2+x,1/2+y,1/2-z
1/2-x,1/2+y,z
1/2+x,1/2-y,z
loop_
_atom_site_type_symbol
_atom_site_label
_atom_site_fract_x
_atom_site_fract_y
_atom_site_fract_z
Si Si1 0.401113 0.699554 0.179908
Si Si2 0.695911 0.257827 0.327611
Si Si3 0.948983 0.693597 0.324766
Si Si4 0.280097 0.941278 0.823674
Si Si5 0.080167 0.909745 0.829955
Si Si6 0.850472 0.636804 0.666765
Si Si7 0.183831 0.058261 0.820417
Si Si8 0.500000 0.500000 0.250000
O O1 0.342538 0.699255 0.241427
O O2 0.430987 0.753793 0.227755
O O3 0.434156 0.647678 0.246450
O O4 0.398578 0.693565 0.000000
O O5 0.703287 0.279111 0.500000
O O6 0.750000 0.250000 0.250000
O O7 0.669143 0.199114 0.322883
O O8 0.955539 0.711844 0.500000
O O9 0.910759 0.641787 0.309984
O O10 0.000000 0.671332 0.250000
O O11 0.328077 0.901388 0.798361
O O12 0.232176 0.907536 0.744257
O O13 0.294434 0.000000 0.750000
O O14 0.268938 0.948984 0.000000
O O15 0.128544 0.930101 0.738634
O O16 0.036561 0.957322 0.839859
O O17 0.096416 0.895958 0.000000
O O18 0.837689 0.611855 0.500000
O O19 0.201149 0.000000 0.750000
O O20 0.182055 0.059336 0.000000
#
# Coordination Sequence:
#
# PCOD8294687 Si02
#       8
#    16  16  16  16  16  16  16   4
#     4  11  24  41  62  89 122 161 207 256 314 378
#     4  10  21  38  60  89 127 164 204 253 312 378
#     4  10  21  40  65  92 124 160 203 252 305 364
#     4  11  22  37  61  91 125 165 206 250 301 362
#     4  12  26  45  66  88 118 155 207 264 324 384
#     4   9  20  38  59  87 124 162 202 250 303 364
#     4  11  22  39  61  85 116 153 199 248 304 366
#     4  12  30  48  72  90 122 160 214 280 342 388
#
# _framework density 20.702435000000001
#
# number of rings (size 3 to 8) (size 9 to 14) (size 15 to 20)
#    0.000    1.379    0.690    6.828    2.897    4.966 
#    0.000    0.000    0.000    0.414    0.000    2.897 
#    0.000    0.000    0.000    0.000    0.000    0.000 
#
# Total GULP energy -718759.191460 kJ/mol
# GULP energy per Si atom -12392.399853 kJ/mol
# Density = 2.065532 g / cm^3
# Si number density = 20.702435 Si / 1000 Ang^3
#
#
#
# Elastic Constant Matrix: (Units=GPa)
#
#
# Indices 1 2 3 4 5 6 
#
# 1 124.0479 29.4845 57.9833 0.0000 0.0000 0.0000
# 2 29.4845 53.2707 35.2685 0.0000 0.0000 0.0000
# 3 57.9833 35.2685 194.4024 0.0000 0.0000 0.0000
# 4 0.0000 0.0000 0.0000 28.1759 0.0000 0.0000
# 5 0.0000 0.0000 0.0000 0.0000 29.3841 0.0000
# 6 0.0000 0.0000 0.0000 0.0000 0.0000 23.9144
#
#
#
# Elastic Compliance Matrix: (Units=1/GPa)
#
#
# Indices 1 2 3 4 5 6 
#
# 1 0.010093 -0.004084 -0.002269 0.000000 0.000000 0.000000
# 2 -0.004084 0.022987 -0.002952 0.000000 0.000000 0.000000
# 3 -0.002269 -0.002952 0.006356 0.000000 0.000000 0.000000
# 4 0.000000 0.000000 0.000000 0.035491 0.000000 0.000000
# 5 0.000000 0.000000 0.000000 0.000000 0.034032 0.000000
# 6 0.000000 0.000000 0.000000 0.000000 0.000000 0.041816
#
#
# Mechanical properties :
#
#
# Convention : Reuss Voigt Hill
#
# Bulk Modulus (GPa) = 48.01839 68.57707 58.29773
# Shear Modulus (GPa) = 28.35621 32.89383 30.62502
#
# Velocity S-wave (km/s) = 3.70497 3.99041 3.85033
# Velocity P-wave (km/s) = 6.44572 7.37755 6.92732
#
# Compressibility (1/GPa) = 0.02082535
#
# Stress axis : x y z
#
# Youngs Moduli (GPa) = 99.07996 43.50301 157.31993
#
# Poissons Ratio (x) = 0.17765 0.35703
# Poissons Ratio (y) = 0.40461 0.46445
# Poissons Ratio (z) = 0.22486 0.12843
#
# Static dielectric constant tensor:
#      x y z
#    x 4.528120 0.000000 0.000000 
#    y 0.000000 3.661450 0.000000 
#    z 0.000000 0.000000 4.018510 
# 
# 
# High freq. dielectric constant tensor:
#      x y z
#    x 1.817550 0.000000 0.000000 
#    y 0.000000 1.789840 0.000000 
#    z 0.000000 0.000000 1.821270 
# 
# From -- ./inp_files/8419.got.cif
#   From: 2010.03.12/outbox.cif.g09.slc.cpg/sg72_5_cif.got.tgz:8419.got - 2010.04.16 14:54:00.
