data_PCOD8294511
_publ_section_title
;
Structure prediction by ZEFSAII (Michael W. Deem and Ramdas Pophale) SiO2 
 PCOD8294511
Probable space group: I B A M
;
_chemical_formula_sum "Si O2"
_cell_formula_units_Z 112
_cell_length_a 15.297222
_cell_length_b 14.792986
_cell_length_c 25.287577
_cell_angle_alpha 90.000000
_cell_angle_beta 90.000000
_cell_angle_gamma 90.000000
_cell_volume 5722.366029
_symmetry_space_group_name_H-M "I B A M"
_symmetry_group_IT_number 72
_symmetry_cell_setting 'orthorhombic'
loop_
_space_group_symop_operation_xyz
x,y,z
-x,-y,z
x,-y,1/2-z
-x,y,1/2-z
-x,-y,-z
x,y,-z
-x,y,1/2+z
x,-y,1/2+z
1/2+x,1/2+y,1/2+z
1/2-x,1/2-y,1/2+z
1/2+x,1/2-y,-z
1/2-x,1/2+y,-z
1/2-x,1/2-y,1/2-z
1/2+x,1/2+y,1/2-z
1/2-x,1/2+y,z
1/2+x,1/2-y,z
loop_
_atom_site_type_symbol
_atom_site_label
_atom_site_fract_x
_atom_site_fract_y
_atom_site_fract_z
Si Si1 0.399519 0.400493 0.244447
Si Si2 0.570015 0.425831 0.939080
Si Si3 0.805127 0.857207 0.358639
Si Si4 0.429466 0.927692 0.437452
Si Si5 0.751862 0.447420 0.879367
Si Si6 0.221060 0.206760 0.194423
Si Si7 0.435506 0.275664 0.939382
O O1 0.354939 0.500000 0.250000
O O2 0.500000 0.413628 0.250000
O O3 0.374463 0.354073 0.189263
O O4 0.373535 0.336032 0.293778
O O5 0.500000 0.500000 0.916758
O O6 0.659954 0.421967 0.906994
O O7 0.526952 0.327460 0.932969
O O8 0.591161 0.449667 0.000000
O O9 0.726401 0.785506 0.349033
O O10 0.856971 0.829891 0.411115
O O11 0.756904 0.951672 0.358762
O O12 0.433579 0.932994 0.500000
O O13 0.331153 0.949967 0.420369
O O14 0.451143 0.825758 0.417548
O O15 0.500000 0.000000 0.413828
O O16 0.774986 0.378476 0.831042
O O17 0.250000 0.250000 0.250000
O O18 0.405009 0.272764 0.000000
#
# Coordination Sequence:
#
# PCOD8294511 Si02
#       7
#    16  16  16  16  16  16  16
#     4  10  21  37  62  91 121 157 203 259 316 377
#     4  10  21  35  57  95 135 160 196 261 322 377
#     4  11  22  38  62  91 125 164 204 260 318 376
#     4  10  23  44  63  87 128 174 220 262 303 377
#     4  12  22  37  66  93 120 171 216 259 319 385
#     4  10  23  40  55  86 124 159 204 265 318 372
#     4  10  21  39  60  89 131 168 204 257 318 378
#
# _framework density 19.572323000000001
#
# number of rings (size 3 to 8) (size 9 to 14) (size 15 to 20)
#    0.000    1.571    4.286    0.429    2.000    1.714 
#    0.000    0.000    0.000    0.000    0.000    3.000 
#    0.000    0.000    0.000    0.000    0.000    0.000 
#
# Total GULP energy -693811.801717 kJ/mol
# GULP energy per Si atom -12389.496459 kJ/mol
# Density = 1.952778 g / cm^3
# Si number density = 19.572323 Si / 1000 Ang^3
#
#
#
# Elastic Constant Matrix: (Units=GPa)
#
#
# Indices 1 2 3 4 5 6 
#
# 1 96.2899 51.8979 27.7522 0.0000 0.0000 0.0000
# 2 51.8979 160.7114 37.5659 0.0000 0.0000 0.0000
# 3 27.7522 37.5659 52.1052 0.0000 0.0000 0.0000
# 4 0.0000 0.0000 0.0000 27.7546 0.0000 0.0000
# 5 0.0000 0.0000 0.0000 0.0000 23.7588 0.0000
# 6 0.0000 0.0000 0.0000 0.0000 0.0000 14.1976
#
#
#
# Elastic Compliance Matrix: (Units=1/GPa)
#
#
# Indices 1 2 3 4 5 6 
#
# 1 0.013532 -0.003229 -0.004879 0.000000 0.000000 0.000000
# 2 -0.003229 0.008254 -0.004231 0.000000 0.000000 0.000000
# 3 -0.004879 -0.004231 0.024841 0.000000 0.000000 0.000000
# 4 0.000000 0.000000 0.000000 0.036030 0.000000 0.000000
# 5 0.000000 0.000000 0.000000 0.000000 0.042090 0.000000
# 6 0.000000 0.000000 0.000000 0.000000 0.000000 0.070434
#
#
# Mechanical properties :
#
#
# Convention : Reuss Voigt Hill
#
# Bulk Modulus (GPa) = 45.56155 60.39316 52.97736
# Shear Modulus (GPa) = 22.00932 25.93491 23.97211
#
# Velocity S-wave (km/s) = 3.35701 3.64411 3.50351
# Velocity P-wave (km/s) = 6.19315 6.97348 6.59487
#
# Compressibility (1/GPa) = 0.02194833
#
# Stress axis : x y z
#
# Youngs Moduli (GPa) = 73.89829 121.15117 40.25596
#
# Poissons Ratio (x) = 0.39124 0.19642
# Poissons Ratio (y) = 0.23864 0.17032
# Poissons Ratio (z) = 0.36056 0.51258
#
# Static dielectric constant tensor:
#      x y z
#    x 3.393570 0.000000 0.000000 
#    y 0.000000 4.177360 0.000000 
#    z 0.000000 0.000000 3.674090 
# 
# 
# High freq. dielectric constant tensor:
#      x y z
#    x 1.737240 0.000000 0.000000 
#    y 0.000000 1.784920 0.000000 
#    z 0.000000 0.000000 1.760370 
# 
# From -- ./inp_files/44350.got.cif
#   From: 2010.03.12/outbox.cif.g09.slc.cpg/sg72_23_cif.got.tgz:44350.got - 2010.04.16 14:54:00.
