data_PCOD8294829
_publ_section_title
;
Structure prediction by ZEFSAII (Michael W. Deem and Ramdas Pophale) SiO2 
 PCOD8294829
Probable space group: I B A M
;
_chemical_formula_sum "Si O2"
_cell_formula_units_Z 88
_cell_length_a 16.087023
_cell_length_b 17.716043
_cell_length_c 14.754167
_cell_angle_alpha 90.000000
_cell_angle_beta 90.000000
_cell_angle_gamma 90.000000
_cell_volume 4204.913859
_symmetry_space_group_name_H-M "I B A M"
_symmetry_group_IT_number 72
_symmetry_cell_setting 'orthorhombic'
loop_
_space_group_symop_operation_xyz
x,y,z
-x,-y,z
x,-y,1/2-z
-x,y,1/2-z
-x,-y,-z
x,y,-z
-x,y,1/2+z
x,-y,1/2+z
1/2+x,1/2+y,1/2+z
1/2-x,1/2-y,1/2+z
1/2+x,1/2-y,-z
1/2-x,1/2+y,-z
1/2-x,1/2-y,1/2-z
1/2+x,1/2+y,1/2-z
1/2-x,1/2+y,z
1/2+x,1/2-y,z
loop_
_atom_site_type_symbol
_atom_site_label
_atom_site_fract_x
_atom_site_fract_y
_atom_site_fract_z
Si Si1 0.000000 0.160733 0.250000
Si Si2 0.825663 0.088334 0.247649
Si Si3 0.748773 0.805972 0.603058
Si Si4 0.536511 0.077603 0.607335
Si Si5 0.939689 0.724355 0.105795
Si Si6 0.708795 0.856991 0.104742
O O1 0.078064 0.106641 0.265880
O O2 0.013527 0.210902 0.160939
O O3 0.774375 0.124435 0.165013
O O4 0.791594 0.120570 0.342009
O O5 0.811142 0.000000 0.250000
O O6 0.750541 0.835620 0.500000
O O7 0.657314 0.776732 0.629451
O O8 0.808648 0.733106 0.616975
O O9 0.540988 0.070832 0.500000
O O10 0.474912 0.143692 0.637120
O O11 0.629371 0.096844 0.642698
O O12 0.500000 0.000000 0.649553
O O13 0.956848 0.739853 0.000000
O O14 0.726746 0.875035 0.000000
#
# Coordination Sequence:
#
# PCOD8294829 Si02
#       6
#     8  16  16  16  16  16
#     4  12  25  44  67  86 128 174 230 278 319 378
#     4  12  27  42  63  95 132 173 220 273 335 393
#     4  10  22  43  69  95 126 170 221 272 328 392
#     4   9  19  35  59  92 129 160 195 252 322 388
#     4  10  22  40  65  96 127 168 220 269 321 390
#     4  10  21  41  66  92 129 171 213 265 327 396
#
# _framework density 20.927896
#
# number of rings (size 3 to 8) (size 9 to 14) (size 15 to 20)
#    0.000    1.636    1.818    1.909    5.091    2.909 
#    0.000    0.455    0.000    3.273    0.000    0.000 
#    0.000    0.000    0.000    0.000    0.000    0.000 
#
# Total GULP energy -545713.675911 kJ/mol
# GULP energy per Si atom -12402.583543 kJ/mol
# Density = 2.088026 g / cm^3
# Si number density = 20.927896 Si / 1000 Ang^3
#
#
#
# Elastic Constant Matrix: (Units=GPa)
#
#
# Indices 1 2 3 4 5 6 
#
# 1 114.3127 52.9040 54.2081 0.0000 0.0000 0.0000
# 2 52.9040 134.6821 55.9370 0.0000 0.0000 0.0000
# 3 54.2081 55.9370 90.7063 0.0000 0.0000 0.0000
# 4 0.0000 0.0000 0.0000 21.7977 0.0000 0.0000
# 5 0.0000 0.0000 0.0000 0.0000 22.5568 0.0000
# 6 0.0000 0.0000 0.0000 0.0000 0.0000 23.6879
#
#
#
# Elastic Compliance Matrix: (Units=1/GPa)
#
#
# Indices 1 2 3 4 5 6 
#
# 1 0.012799 -0.002488 -0.006115 0.000000 0.000000 0.000000
# 2 -0.002488 0.010465 -0.004967 0.000000 0.000000 0.000000
# 3 -0.006115 -0.004967 0.017742 0.000000 0.000000 0.000000
# 4 0.000000 0.000000 0.000000 0.045876 0.000000 0.000000
# 5 0.000000 0.000000 0.000000 0.000000 0.044332 0.000000
# 6 0.000000 0.000000 0.000000 0.000000 0.000000 0.042216
#
#
# Mechanical properties :
#
#
# Convention : Reuss Voigt Hill
#
# Bulk Modulus (GPa) = 72.11352 73.97770 73.04561
# Shear Modulus (GPa) = 24.36750 25.38528 24.87639
#
# Velocity S-wave (km/s) = 3.41597 3.48658 3.45145
# Velocity P-wave (km/s) = 7.07752 7.18567 7.13180
#
# Compressibility (1/GPa) = 0.01386702
#
# Stress axis : x y z
#
# Youngs Moduli (GPa) = 78.13101 95.55678 56.36412
#
# Poissons Ratio (x) = 0.23774 0.34465
# Poissons Ratio (y) = 0.19439 0.27994
# Poissons Ratio (z) = 0.47775 0.47460
#
# Static dielectric constant tensor:
#      x y z
#    x 3.913680 0.000000 0.000000 
#    y 0.000000 3.845680 0.000000 
#    z 0.000000 0.000000 3.682630 
# 
# 
# High freq. dielectric constant tensor:
#      x y z
#    x 1.826790 0.000000 0.000000 
#    y 0.000000 1.815930 0.000000 
#    z 0.000000 0.000000 1.817040 
# 
# From -- ./inp_files/23202.got.cif
#   From: 2010.03.12/outbox.cif.g09.slc.cpg/sg72_12_cif.got.tgz:23202.got - 2010.04.16 14:54:00.
