data_PCOD8294365
_publ_section_title
;
Structure prediction by ZEFSAII (Michael W. Deem and Ramdas Pophale) SiO2 
 PCOD8294365
Probable space group: I B A M
;
_chemical_formula_sum "Si O2"
_cell_formula_units_Z 80
_cell_length_a 8.605094
_cell_length_b 28.967831
_cell_length_c 15.472589
_cell_angle_alpha 90.000000
_cell_angle_beta 90.000000
_cell_angle_gamma 90.000000
_cell_volume 3856.866320
_symmetry_space_group_name_H-M "I B A M"
_symmetry_group_IT_number 72
_symmetry_cell_setting 'orthorhombic'
loop_
_space_group_symop_operation_xyz
x,y,z
-x,-y,z
x,-y,1/2-z
-x,y,1/2-z
-x,-y,-z
x,y,-z
-x,y,1/2+z
x,-y,1/2+z
1/2+x,1/2+y,1/2+z
1/2-x,1/2-y,1/2+z
1/2+x,1/2-y,-z
1/2-x,1/2+y,-z
1/2-x,1/2-y,1/2-z
1/2+x,1/2+y,1/2-z
1/2-x,1/2+y,z
1/2+x,1/2-y,z
loop_
_atom_site_type_symbol
_atom_site_label
_atom_site_fract_x
_atom_site_fract_y
_atom_site_fract_z
Si Si1 0.901261 0.205534 0.837883
Si Si2 0.338863 0.116342 0.152527
Si Si3 0.696604 0.885005 0.345538
Si Si4 0.193532 0.449416 0.000000
Si Si5 0.716047 0.288256 0.903552
Si Si6 0.824734 0.552019 0.500000
O O1 0.807213 0.158843 0.855795
O O2 0.779833 0.247511 0.842701
O O3 0.000000 0.204491 0.750000
O O4 0.029360 0.214263 0.912057
O O5 0.303019 0.095583 0.247500
O O6 0.518771 0.127948 0.132956
O O7 0.252229 0.164565 0.145724
O O8 0.269959 0.079625 0.084920
O O9 0.754258 0.923740 0.413445
O O10 0.257377 0.501878 0.000000
O O11 0.008920 0.452360 0.000000
O O12 0.787467 0.286633 0.000000
#
# Coordination Sequence:
#
# PCOD8294365 Si02
#       6
#    16  16  16   8  16   8
#     4  12  25  41  60  88 127 167 207 255 305 371
#     4  10  20  38  62  89 124 158 206 253 313 367
#     4  10  22  37  60  92 123 163 201 257 310 373
#     4   9  20  36  62  93 124 153 204 259 316 373
#     4  12  25  39  59  90 120 168 206 253 302 371
#     4   9  18  38  62  93 122 155 200 265 316 365
#
# _framework density 20.742228999999998
#
# number of rings (size 3 to 8) (size 9 to 14) (size 15 to 20)
#    0.000    1.400    3.000    2.400    5.600    0.800 
#    0.000    4.000    0.000    2.400    0.000    0.000 
#    0.000    0.000    0.000    0.000    0.000    0.000 
#
# Total GULP energy -495904.301378 kJ/mol
# GULP energy per Si atom -12397.607534 kJ/mol
# Density = 2.069502 g / cm^3
# Si number density = 20.742229 Si / 1000 Ang^3
#
#
#
# Elastic Constant Matrix: (Units=GPa)
#
#
# Indices 1 2 3 4 5 6 
#
# 1 75.2492 49.4524 30.8039 0.0000 0.0000 0.0000
# 2 49.4524 179.2020 77.0291 0.0001 0.0000 0.0000
# 3 30.8039 77.0291 147.5117 0.0000 -0.0002 -0.0001
# 4 0.0000 0.0001 0.0000 21.4183 -0.0001 0.0000
# 5 0.0000 0.0000 -0.0002 -0.0001 22.5777 -0.0001
# 6 0.0000 0.0000 -0.0001 0.0000 -0.0001 25.5438
#
#
#
# Elastic Compliance Matrix: (Units=1/GPa)
#
#
# Indices 1 2 3 4 5 6 
#
# 1 0.016446 -0.003948 -0.001372 0.000000 0.000000 0.000000
# 2 -0.003948 0.008143 -0.003428 0.000000 0.000000 0.000000
# 3 -0.001372 -0.003428 0.008856 0.000000 0.000000 0.000000
# 4 0.000000 0.000000 0.000000 0.046689 0.000000 0.000000
# 5 0.000000 0.000000 0.000000 0.000000 0.044291 0.000000
# 6 0.000000 0.000000 0.000000 0.000000 0.000000 0.039148
#
#
# Mechanical properties :
#
#
# Convention : Reuss Voigt Hill
#
# Bulk Modulus (GPa) = 62.70603 79.61488 71.16045
# Shear Modulus (GPa) = 26.82589 30.21979 28.52284
#
# Velocity S-wave (km/s) = 3.60015 3.82110 3.71227
# Velocity P-wave (km/s) = 6.89769 7.61145 7.26334
#
# Compressibility (1/GPa) = 0.01594743
#
# Stress axis : x y z
#
# Youngs Moduli (GPa) = 60.80568 122.79964 112.92147
#
# Poissons Ratio (x) = 0.48487 0.15498
# Poissons Ratio (y) = 0.24009 0.38708
# Poissons Ratio (z) = 0.08345 0.42094
#
# Static dielectric constant tensor:
#      x y z
#    x 3.773490 0.000000 0.000000 
#    y 0.000000 3.741390 0.000000 
#    z 0.000000 0.000000 3.951870 
# 
# 
# High freq. dielectric constant tensor:
#      x y z
#    x 1.794000 0.000000 0.000000 
#    y 0.000000 1.798520 0.000000 
#    z 0.000000 0.000000 1.830540 
# 
# From -- ./inp_files/28207.got.cif
#   From: 2010.03.12/outbox.cif.g09.slc.cpg/sg72_15_cif.got.tgz:28207.got - 2010.04.16 14:54:00.
