data_PCOD8294276
_publ_section_title
;
Structure prediction by ZEFSAII (Michael W. Deem and Ramdas Pophale) SiO2 
 PCOD8294276
Probable space group: I B A M
;
_chemical_formula_sum "Si O2"
_cell_formula_units_Z 112
_cell_length_a 23.015804
_cell_length_b 17.521697
_cell_length_c 14.033006
_cell_angle_alpha 90.000000
_cell_angle_beta 90.000000
_cell_angle_gamma 90.000000
_cell_volume 5659.173740
_symmetry_space_group_name_H-M "I B A M"
_symmetry_group_IT_number 72
_symmetry_cell_setting 'orthorhombic'
loop_
_space_group_symop_operation_xyz
x,y,z
-x,-y,z
x,-y,1/2-z
-x,y,1/2-z
-x,-y,-z
x,y,-z
-x,y,1/2+z
x,-y,1/2+z
1/2+x,1/2+y,1/2+z
1/2-x,1/2-y,1/2+z
1/2+x,1/2-y,-z
1/2-x,1/2+y,-z
1/2-x,1/2-y,1/2-z
1/2+x,1/2+y,1/2-z
1/2-x,1/2+y,z
1/2+x,1/2-y,z
loop_
_atom_site_type_symbol
_atom_site_label
_atom_site_fract_x
_atom_site_fract_y
_atom_site_fract_z
Si Si1 0.361487 0.290729 0.603792
Si Si2 0.439584 0.718161 0.284726
Si Si3 0.667359 0.537973 0.395289
Si Si4 0.348086 0.800570 0.391876
Si Si5 0.445457 0.444877 0.887003
Si Si6 0.220738 0.577573 0.774067
Si Si7 0.747015 0.189217 0.107486
O O1 0.382257 0.257387 0.500000
O O2 0.402022 0.271121 0.690315
O O3 0.361387 0.380401 0.593218
O O4 0.297838 0.257741 0.629017
O O5 0.500000 0.751884 0.250000
O O6 0.412862 0.776493 0.361828
O O7 0.448609 0.633479 0.327433
O O8 0.687713 0.509028 0.500000
O O9 0.616006 0.482844 0.356644
O O10 0.722218 0.545517 0.327072
O O11 0.347828 0.828068 0.500000
O O12 0.322073 0.870628 0.333984
O O13 0.310471 0.724201 0.376123
O O14 0.500000 0.500000 0.859656
O O15 0.447355 0.427187 0.000000
O O16 0.185294 0.500000 0.750000
O O17 0.240310 0.618651 0.677405
O O18 0.739910 0.158429 0.000000
#
# Coordination Sequence:
#
# PCOD8294276 Si02
#       7
#    16  16  16  16  16  16  16
#     4  10  20  37  60  82 117 163 208 260 313 375
#     4  12  25  39  63  91 122 172 222 263 314 384
#     4  10  21  35  55  86 124 168 211 253 311 373
#     4  11  23  42  65  93 129 165 212 271 324 386
#     4  10  23  41  57  85 132 176 218 263 309 373
#     4  12  24  37  62  93 127 162 206 266 327 388
#     4  10  21  39  61  88 124 165 209 258 323 389
#
# _framework density 19.790875
#
# number of rings (size 3 to 8) (size 9 to 14) (size 15 to 20)
#    0.000    1.286    2.857    3.000    4.000    4.857 
#    0.000    0.000    0.000    0.857    0.000    1.000 
#    0.000    0.000    0.000    0.000    0.000    0.000 
#
# Total GULP energy -694128.001118 kJ/mol
# GULP energy per Si atom -12395.142877 kJ/mol
# Density = 1.974583 g / cm^3
# Si number density = 19.790875 Si / 1000 Ang^3
#
#
#
# Elastic Constant Matrix: (Units=GPa)
#
#
# Indices 1 2 3 4 5 6 
#
# 1 104.6347 43.0593 41.3510 0.0000 0.0000 0.0000
# 2 43.0593 90.1428 49.0640 0.0000 0.0000 0.0000
# 3 41.3510 49.0640 107.5816 0.0000 0.0000 0.0000
# 4 0.0000 0.0000 0.0000 11.2876 0.0000 0.0000
# 5 0.0000 0.0000 0.0000 0.0000 43.3558 0.0000
# 6 0.0000 0.0000 0.0000 0.0000 0.0000 -30.7394
#
#
#
# Elastic Compliance Matrix: (Units=1/GPa)
#
#
# Indices 1 2 3 4 5 6 
#
# 1 0.012485 -0.004459 -0.002765 0.000000 0.000000 0.000000
# 2 -0.004459 0.016349 -0.005742 0.000000 0.000000 0.000000
# 3 -0.002765 -0.005742 0.012977 0.000000 0.000000 0.000000
# 4 0.000000 0.000000 0.000000 0.088593 0.000000 0.000000
# 5 0.000000 0.000000 0.000000 0.000000 0.023065 0.000000
# 6 0.000000 0.000000 0.000000 0.000000 0.000000 -0.032532
#
#
# Mechanical properties :
#
#
# Convention : Reuss Voigt Hill
#
# Bulk Modulus (GPa) = 62.97998 63.25641 63.11820
# Shear Modulus (GPa) = 32.85980 16.03979 24.44980
#
# Velocity S-wave (km/s) = 4.07916 2.84995 3.51865
# Velocity P-wave (km/s) = 7.35377 6.54687 6.96202
#
# Compressibility (1/GPa) = 0.01587806
#
# Stress axis : x y z
#
# Youngs Moduli (GPa) = 80.09819 61.16671 77.05898
#
# Poissons Ratio (x) = 0.27271 0.21310
# Poissons Ratio (y) = 0.35712 0.44250
# Poissons Ratio (z) = 0.22150 0.35124
#
# Static dielectric constant tensor:
#      x y z
#    x 3.742670 0.000000 0.000000 
#    y 0.000000 3.612190 0.000000 
#    z 0.000000 0.000000 4.060660 
# 
# 
# High freq. dielectric constant tensor:
#      x y z
#    x 1.750110 0.000000 0.000000 
#    y 0.000000 1.750240 0.000000 
#    z 0.000000 0.000000 1.803060 
# 
# From -- ./inp_files/25220.got.cif
#   From: 2010.03.12/outbox.cif.g09.slc.cpg/sg72_13_cif.got.tgz:25220.got - 2010.04.16 14:54:00.
