data_PCOD8294889
_publ_section_title
;
Structure prediction by ZEFSAII (Michael W. Deem and Ramdas Pophale) SiO2 
 PCOD8294889
Probable space group: I B A M
;
_chemical_formula_sum "Si O2"
_cell_formula_units_Z 52
_cell_length_a 9.677307
_cell_length_b 21.684553
_cell_length_c 12.324014
_cell_angle_alpha 90.000000
_cell_angle_beta 90.000000
_cell_angle_gamma 90.000000
_cell_volume 2586.170633
_symmetry_space_group_name_H-M "I B A M"
_symmetry_group_IT_number 72
_symmetry_cell_setting 'orthorhombic'
loop_
_space_group_symop_operation_xyz
x,y,z
-x,-y,z
x,-y,1/2-z
-x,y,1/2-z
-x,-y,-z
x,y,-z
-x,y,1/2+z
x,-y,1/2+z
1/2+x,1/2+y,1/2+z
1/2-x,1/2-y,1/2+z
1/2+x,1/2-y,-z
1/2-x,1/2+y,-z
1/2-x,1/2-y,1/2-z
1/2+x,1/2+y,1/2-z
1/2-x,1/2+y,z
1/2+x,1/2-y,z
loop_
_atom_site_type_symbol
_atom_site_label
_atom_site_fract_x
_atom_site_fract_y
_atom_site_fract_z
Si Si1 0.332945 0.900847 0.121594
Si Si2 0.986233 0.311315 0.500000
Si Si3 0.500000 0.000000 0.750000
Si Si4 0.791519 0.801915 0.000000
Si Si5 0.338907 0.312601 0.734017
O O1 0.461952 0.853122 0.107858
O O2 0.209944 0.868241 0.188738
O O3 0.394796 0.960874 0.177477
O O4 0.275867 0.917319 0.000000
O O5 0.133102 0.279861 0.500000
O O6 0.868822 0.261541 0.500000
O O7 0.822925 0.838828 0.110523
O O8 0.500000 0.296881 0.750000
O O9 0.250000 0.250000 0.750000
#
# Coordination Sequence:
#
# PCOD8294889 Si02
#       5
#    16   8   4   8  16
#     4  10  24  42  66  98 134 170 235 280 333 391
#     4  10  22  37  64  97 143 160 222 277 330 418
#     4  12  22  44  74  94 128 190 238 286 322 396
#     4  12  22  36  62  99 138 179 210 258 352 417
#     4  12  25  40  68 100 145 177 216 278 345 416
#
# _framework density 20.106947000000002
#
# number of rings (size 3 to 8) (size 9 to 14) (size 15 to 20)
#    0.923    0.000    3.077    4.154    4.308    0.000 
#    2.769    0.769    0.000    1.846    0.000    0.000 
#    0.000    0.000    0.000    0.000    0.000    0.000 
#
# Total GULP energy -322111.398115 kJ/mol
# GULP energy per Si atom -12388.899927 kJ/mol
# Density = 2.006118 g / cm^3
# Si number density = 20.106947 Si / 1000 Ang^3
#
#
#
# Elastic Constant Matrix: (Units=GPa)
#
#
# Indices 1 2 3 4 5 6 
#
# 1 161.3727 58.1864 54.6575 -0.0002 0.0000 0.0000
# 2 58.1864 93.9089 56.0981 -0.0017 0.0000 -0.0001
# 3 54.6575 56.0981 182.7630 -0.0036 0.0001 -0.0001
# 4 -0.0002 -0.0017 -0.0036 430.3125 0.0005 0.0003
# 5 0.0000 0.0000 0.0001 0.0005 26.1964 0.0000
# 6 0.0000 -0.0001 -0.0001 0.0003 0.0000 28.4425
#
#
#
# Elastic Compliance Matrix: (Units=1/GPa)
#
#
# Indices 1 2 3 4 5 6 
#
# 1 0.008152 -0.004402 -0.001087 0.000000 0.000000 0.000000
# 2 -0.004402 0.015416 -0.003416 0.000000 0.000000 0.000000
# 3 -0.001087 -0.003416 0.006845 0.000000 0.000000 0.000000
# 4 0.000000 0.000000 0.000000 0.002324 0.000000 0.000000
# 5 0.000000 0.000000 0.000000 0.000000 0.038173 0.000000
# 6 0.000000 0.000000 0.000000 0.000000 0.000000 0.035159
#
#
# Mechanical properties :
#
#
# Convention : Reuss Voigt Hill
#
# Bulk Modulus (GPa) = 79.33380 86.21431 82.77405
# Shear Modulus (GPa) = 39.03829 114.93045 76.98437
#
# Velocity S-wave (km/s) = 4.41106 7.56860 6.19440
# Velocity P-wave (km/s) = 8.09227 10.92470 9.61338
#
# Compressibility (1/GPa) = 0.01260497
#
# Stress axis : x y z
#
# Youngs Moduli (GPa) = 122.66721 64.86622 146.09221
#
# Poissons Ratio (x) = 0.28553 0.15878
# Poissons Ratio (y) = 0.53996 0.49898
# Poissons Ratio (z) = 0.13332 0.22155
#
# Static dielectric constant tensor:
#      x y z
#    x 3.554870 0.000000 0.000000 
#    y 0.000000 3.331040 0.000000 
#    z 0.000000 0.000000 0.746900 
# 
# 
# High freq. dielectric constant tensor:
#      x y z
#    x 1.778730 0.000000 0.000000 
#    y 0.000000 1.746880 0.000000 
#    z 0.000000 0.000000 1.814250 
# 
# From -- ./inp_files/18355.got.cif
#   From: 2010.03.12/outbox.cif.g09.slc.cpg/sg72_10_cif.got.tgz:18355.got - 2010.04.16 14:54:00.
