data_PCOD8294079
_publ_section_title
;
Structure prediction by ZEFSAII (Michael W. Deem and Ramdas Pophale) SiO2 
 PCOD8294079
Probable space group: I B A M
;
_chemical_formula_sum "Si O2"
_cell_formula_units_Z 96
_cell_length_a 29.304685
_cell_length_b 9.752088
_cell_length_c 16.154709
_cell_angle_alpha 90.000000
_cell_angle_beta 90.000000
_cell_angle_gamma 90.000000
_cell_volume 4616.722898
_symmetry_space_group_name_H-M "I B A M"
_symmetry_group_IT_number 72
_symmetry_cell_setting 'orthorhombic'
loop_
_space_group_symop_operation_xyz
x,y,z
-x,-y,z
x,-y,1/2-z
-x,y,1/2-z
-x,-y,-z
x,y,-z
-x,y,1/2+z
x,-y,1/2+z
1/2+x,1/2+y,1/2+z
1/2-x,1/2-y,1/2+z
1/2+x,1/2-y,-z
1/2-x,1/2+y,-z
1/2-x,1/2-y,1/2-z
1/2+x,1/2+y,1/2-z
1/2-x,1/2+y,z
1/2+x,1/2-y,z
loop_
_atom_site_type_symbol
_atom_site_label
_atom_site_fract_x
_atom_site_fract_y
_atom_site_fract_z
Si Si1 0.714781 0.827812 0.653095
Si Si2 0.793175 0.366694 0.848106
Si Si3 0.109588 0.416995 0.402288
Si Si4 0.380918 0.769143 0.097943
Si Si5 0.016444 0.650137 0.840882
Si Si6 0.966574 0.887771 0.907237
O O1 0.757791 0.744630 0.615840
O O2 0.713072 0.851689 0.750574
O O3 0.670514 0.738392 0.626875
O O4 0.717395 0.981181 0.615410
O O5 0.844585 0.335634 0.876781
O O6 0.101243 0.404652 0.500000
O O7 0.108751 0.575370 0.371948
O O8 0.070858 0.339818 0.349772
O O9 0.417165 0.654807 0.133964
O O10 0.384686 0.763246 0.000000
O O11 0.000000 0.500000 0.863702
O O12 0.000000 0.696751 0.750000
O O13 0.994663 0.747284 0.909650
O O14 0.957672 0.942018 0.000000
O O15 0.000000 0.000000 0.861030
#
# Coordination Sequence:
#
# PCOD8294079 Si02
#       6
#    16  16  16  16  16  16
#     4   9  18  34  56  79 112 144 186 232 284 338
#     4   9  19  34  56  80 109 148 184 230 286 338
#     4  10  20  35  57  85 112 145 192 242 285 337
#     4   9  18  33  57  81 108 150 189 229 283 341
#     4  11  23  35  59  86 112 146 191 239 290 343
#     4  10  21  38  57  79 115 155 188 229 289 350
#
# _framework density 20.793972
#
# number of rings (size 3 to 8) (size 9 to 14) (size 15 to 20)
#    0.000    2.333    1.667    0.500    2.333    3.000 
#    3.000    0.000    0.000    0.000    0.000    0.000 
#    0.000    0.000    0.000    0.000    0.000    0.000 
#
# Total GULP energy -594638.708357 kJ/mol
# GULP energy per Si atom -12388.306424 kJ/mol
# Density = 2.074664 g / cm^3
# Si number density = 20.793972 Si / 1000 Ang^3
#
#
#
# Elastic Constant Matrix: (Units=GPa)
#
#
# Indices 1 2 3 4 5 6 
#
# 1 204.2437 66.3962 22.4566 0.0000 0.0000 0.0000
# 2 66.3962 74.4120 12.3323 0.0000 0.0000 0.0000
# 3 22.4566 12.3323 25.2219 0.0000 0.0000 0.0000
# 4 0.0000 0.0000 0.0000 16.8319 0.0000 0.0000
# 5 0.0000 0.0000 0.0000 0.0000 21.4815 0.0000
# 6 0.0000 0.0000 0.0000 0.0000 0.0000 44.8110
#
#
#
# Elastic Compliance Matrix: (Units=1/GPa)
#
#
# Indices 1 2 3 4 5 6 
#
# 1 0.007177 -0.005816 -0.003546 0.000000 0.000000 0.000000
# 2 -0.005816 0.019337 -0.004277 0.000000 0.000000 0.000000
# 3 -0.003546 -0.004277 0.044897 0.000000 0.000000 0.000000
# 4 0.000000 0.000000 0.000000 0.059411 0.000000 0.000000
# 5 0.000000 0.000000 0.000000 0.000000 0.046552 0.000000
# 6 0.000000 0.000000 0.000000 0.000000 0.000000 0.022316
#
#
# Mechanical properties :
#
#
# Convention : Reuss Voigt Hill
#
# Bulk Modulus (GPa) = 22.65886 56.24977 39.45431
# Shear Modulus (GPa) = 20.68877 30.13768 25.41322
#
# Velocity S-wave (km/s) = 3.15769 3.81116 3.49971
# Velocity P-wave (km/s) = 4.92089 6.81735 5.94523
#
# Compressibility (1/GPa) = 0.04413284
#
# Stress axis : x y z
#
# Youngs Moduli (GPa) = 139.34077 51.71477 22.27343
#
# Poissons Ratio (x) = 0.30077 0.07898
# Poissons Ratio (y) = 0.81039 0.09525
# Poissons Ratio (z) = 0.49412 0.22116
#
# Static dielectric constant tensor:
#      x y z
#    x 4.133070 0.000000 0.000000 
#    y 0.000000 3.859600 0.000000 
#    z 0.000000 0.000000 3.387210 
# 
# 
# High freq. dielectric constant tensor:
#      x y z
#    x 1.829670 0.000000 0.000000 
#    y 0.000000 1.789110 0.000000 
#    z 0.000000 0.000000 1.786460 
# 
# From -- ./inp_files/33884.got.cif
#   From: 2010.03.12/outbox.cif.g09.slc.cpg/sg72_17_cif.got.tgz:33884.got - 2010.04.16 14:54:00.
