data_PCOD8294974
_publ_section_title
;
Structure prediction by ZEFSAII (Michael W. Deem and Ramdas Pophale) SiO2 
 PCOD8294974
Probable space group: I B A M
;
_chemical_formula_sum "Si O2"
_cell_formula_units_Z 68
_cell_length_a 8.930490
_cell_length_b 29.389575
_cell_length_c 13.572036
_cell_angle_alpha 90.000000
_cell_angle_beta 90.000000
_cell_angle_gamma 90.000000
_cell_volume 3562.161433
_symmetry_space_group_name_H-M "I B A M"
_symmetry_group_IT_number 72
_symmetry_cell_setting 'orthorhombic'
loop_
_space_group_symop_operation_xyz
x,y,z
-x,-y,z
x,-y,1/2-z
-x,y,1/2-z
-x,-y,-z
x,y,-z
-x,y,1/2+z
x,-y,1/2+z
1/2+x,1/2+y,1/2+z
1/2-x,1/2-y,1/2+z
1/2+x,1/2-y,-z
1/2-x,1/2+y,-z
1/2-x,1/2-y,1/2-z
1/2+x,1/2+y,1/2-z
1/2-x,1/2+y,z
1/2+x,1/2-y,z
loop_
_atom_site_type_symbol
_atom_site_label
_atom_site_fract_x
_atom_site_fract_y
_atom_site_fract_z
Si Si1 0.884975 0.338769 0.677372
Si Si2 0.280699 0.780300 0.000000
Si Si3 0.053834 0.809955 0.500000
Si Si4 0.366891 0.629431 0.184210
Si Si5 0.407797 0.922822 0.386886
Si Si6 0.000000 0.500000 0.250000
O O1 0.859860 0.304634 0.590161
O O2 0.729874 0.344527 0.734114
O O3 0.000000 0.313378 0.750000
O O4 0.962612 0.387034 0.645687
O O5 0.103721 0.784538 0.000000
O O6 0.313312 0.726774 0.000000
O O7 0.063483 0.838594 0.600212
O O8 0.500000 0.606608 0.250000
O O9 0.261086 0.594799 0.126119
O O10 0.436356 0.935543 0.500000
O O11 0.403709 0.968096 0.321404
#
# Coordination Sequence:
#
# PCOD8294974 Si02
#       6
#    16   8   8  16  16   4
#     4  10  22  40  66  87 125 176 208 262 328 382
#     4  12  26  42  60  96 127 169 230 275 311 391
#     4  12  28  38  64  92 131 169 227 276 316 389
#     4  11  22  43  63  91 127 176 214 259 336 378
#     4  11  22  40  71  96 131 169 213 264 322 393
#     4  12  22  40  66 114 124 164 216 264 316 398
#
# _framework density 19.089534
#
# number of rings (size 3 to 8) (size 9 to 14) (size 15 to 20)
#    0.000    0.941    8.235    0.353    6.588    1.882 
#    0.000    0.588    0.000    1.412    0.000    0.000 
#    0.000    0.000    0.000    0.000    0.000    0.000 
#
# Total GULP energy -421318.238502 kJ/mol
# GULP energy per Si atom -12391.712897 kJ/mol
# Density = 1.904609 g / cm^3
# Si number density = 19.089534 Si / 1000 Ang^3
#
#
#
# Elastic Constant Matrix: (Units=GPa)
#
#
# Indices 1 2 3 4 5 6 
#
# 1 103.2321 17.1602 36.9380 -0.0002 0.0001 0.0000
# 2 17.1602 71.0268 33.0089 -0.0003 0.0003 0.0001
# 3 36.9380 33.0089 143.6810 -0.0010 0.0008 0.0001
# 4 -0.0002 -0.0003 -0.0010 30.7708 0.0005 0.0001
# 5 0.0001 0.0003 0.0008 0.0005 48.5951 -0.0002
# 6 0.0000 0.0001 0.0001 0.0001 -0.0002 10.6607
#
#
#
# Elastic Compliance Matrix: (Units=1/GPa)
#
#
# Indices 1 2 3 4 5 6 
#
# 1 0.010805 -0.001477 -0.002438 0.000000 0.000000 0.000000
# 2 -0.001477 0.015964 -0.003288 0.000000 0.000000 0.000000
# 3 -0.002438 -0.003288 0.008342 0.000000 0.000000 0.000000
# 4 0.000000 0.000000 0.000000 0.032498 0.000000 0.000000
# 5 0.000000 0.000000 0.000000 0.000000 0.020578 0.000000
# 6 0.000000 0.000000 0.000000 0.000000 0.000000 0.093803
#
#
# Mechanical properties :
#
#
# Convention : Reuss Voigt Hill
#
# Bulk Modulus (GPa) = 48.29935 54.68379 51.49157
# Shear Modulus (GPa) = 24.59437 33.39418 28.99428
#
# Velocity S-wave (km/s) = 3.59328 4.18705 3.90148
# Velocity P-wave (km/s) = 6.52472 7.21688 6.87951
#
# Compressibility (1/GPa) = 0.02070421
#
# Stress axis : x y z
#
# Youngs Moduli (GPa) = 92.55006 62.64071 119.87457
#
# Poissons Ratio (x) = 0.09254 0.29230
# Poissons Ratio (y) = 0.13672 0.39412
# Poissons Ratio (z) = 0.22567 0.20595
#
# Static dielectric constant tensor:
#      x y z
#    x 3.618380 0.000000 0.000000 
#    y 0.000000 3.272420 0.000000 
#    z 0.000000 0.000000 3.868770 
# 
# 
# High freq. dielectric constant tensor:
#      x y z
#    x 1.749510 0.000000 0.000000 
#    y 0.000000 1.709780 0.000000 
#    z 0.000000 0.000000 1.777140 
# 
# From -- ./inp_files/18829.got.cif
#   From: 2010.03.12/outbox.cif.g09.slc.cpg/sg72_10_cif.got.tgz:18829.got - 2010.04.16 14:54:00.
