data_PCOD8294853
_publ_section_title
;
Structure prediction by ZEFSAII (Michael W. Deem and Ramdas Pophale) SiO2 
 PCOD8294853
Probable space group: I B A M
;
_chemical_formula_sum "Si O2"
_cell_formula_units_Z 112
_cell_length_a 10.937269
_cell_length_b 31.326359
_cell_length_c 14.398446
_cell_angle_alpha 90.000000
_cell_angle_beta 90.000000
_cell_angle_gamma 90.000000
_cell_volume 4933.264900
_symmetry_space_group_name_H-M "I B A M"
_symmetry_group_IT_number 72
_symmetry_cell_setting 'orthorhombic'
loop_
_space_group_symop_operation_xyz
x,y,z
-x,-y,z
x,-y,1/2-z
-x,y,1/2-z
-x,-y,-z
x,y,-z
-x,y,1/2+z
x,-y,1/2+z
1/2+x,1/2+y,1/2+z
1/2-x,1/2-y,1/2+z
1/2+x,1/2-y,-z
1/2-x,1/2+y,-z
1/2-x,1/2-y,1/2-z
1/2+x,1/2+y,1/2-z
1/2-x,1/2+y,z
1/2+x,1/2-y,z
loop_
_atom_site_type_symbol
_atom_site_label
_atom_site_fract_x
_atom_site_fract_y
_atom_site_fract_z
Si Si1 0.207580 0.898542 0.392975
Si Si2 0.362908 0.493654 0.358119
Si Si3 0.865751 0.636143 0.231576
Si Si4 0.170572 0.716371 0.389777
Si Si5 0.953010 0.137227 0.889717
Si Si6 0.064349 0.767928 0.108284
Si Si7 0.761996 0.421866 0.396950
O O1 0.233041 0.885910 0.500000
O O2 0.202603 0.949632 0.384084
O O3 0.306680 0.873857 0.331395
O O4 0.079107 0.882084 0.354906
O O5 0.500000 0.500000 0.401290
O O6 0.372121 0.500000 0.250000
O O7 0.271300 0.528669 0.399541
O O8 0.803703 0.673084 0.167950
O O9 0.871681 0.591587 0.172111
O O10 0.000000 0.652927 0.250000
O O11 0.161897 0.705241 0.500000
O O12 0.293133 0.746516 0.373639
O O13 0.045852 0.738623 0.350430
O O14 0.945825 0.184812 0.849194
O O15 0.848590 0.105804 0.850995
O O16 0.943104 0.136718 0.000000
O O17 0.035629 0.769419 0.000000
O O18 0.797070 0.407077 0.500000
#
# Coordination Sequence:
#
# PCOD8294853 Si02
#       7
#    16  16  16  16  16  16  16
#     4  11  24  42  65  98 137 175 224 287 345 404
#     4  11  21  36  66 106 141 171 214 276 354 422
#     4  12  27  45  64  92 133 183 237 277 331 402
#     4  10  21  42  72 103 137 177 226 287 352 418
#     4   9  18  35  64  98 131 169 212 267 341 413
#     4   9  18  36  66 100 133 174 221 274 341 412
#     4  11  21  39  69  98 131 173 217 271 341 415
#
# _framework density 22.703016000000002
#
# number of rings (size 3 to 8) (size 9 to 14) (size 15 to 20)
#    0.000    1.571    4.286    0.857    0.000    3.429 
#    0.000    7.143    0.000    1.714    0.000    1.000 
#    0.000    0.000    0.000    0.000    0.000    0.000 
#
# Total GULP energy -693931.115535 kJ/mol
# GULP energy per Si atom -12391.627063 kJ/mol
# Density = 2.265134 g / cm^3
# Si number density = 22.703016 Si / 1000 Ang^3
#
#
#
# Elastic Constant Matrix: (Units=GPa)
#
#
# Indices 1 2 3 4 5 6 
#
# 1 107.4489 46.4054 30.2345 -0.0001 0.0001 0.0000
# 2 46.4054 111.1968 16.2933 0.0002 0.0000 -0.0001
# 3 30.2345 16.2933 79.2033 0.0002 0.0000 0.0001
# 4 -0.0001 0.0002 0.0002 18.4824 0.0000 0.0000
# 5 0.0001 0.0000 0.0000 0.0000 19.6502 0.0000
# 6 0.0000 -0.0001 0.0001 0.0000 0.0000 32.8291
#
#
#
# Elastic Compliance Matrix: (Units=1/GPa)
#
#
# Indices 1 2 3 4 5 6 
#
# 1 0.012356 -0.004604 -0.003770 0.000000 0.000000 0.000000
# 2 -0.004604 0.010988 -0.000503 0.000000 0.000000 0.000000
# 3 -0.003770 -0.000503 0.014168 0.000000 0.000000 0.000000
# 4 0.000000 0.000000 0.000000 0.054106 0.000000 0.000000
# 5 0.000000 0.000000 0.000000 0.000000 0.050890 0.000000
# 6 0.000000 0.000000 0.000000 0.000000 0.000000 0.030461
#
#
# Mechanical properties :
#
#
# Convention : Reuss Voigt Hill
#
# Bulk Modulus (GPa) = 50.60941 53.74615 52.17778
# Shear Modulus (GPa) = 25.34107 27.85338 26.59722
#
# Velocity S-wave (km/s) = 3.34458 3.50645 3.42647
# Velocity P-wave (km/s) = 6.10371 6.33392 6.21988
#
# Compressibility (1/GPa) = 0.01975917
#
# Stress axis : x y z
#
# Youngs Moduli (GPa) = 80.93317 91.00699 70.58089
#
# Poissons Ratio (x) = 0.41901 0.26606
# Poissons Ratio (y) = 0.37262 0.03549
# Poissons Ratio (z) = 0.30508 0.04577
#
# Static dielectric constant tensor:
#      x y z
#    x 4.156010 0.000000 0.000000 
#    y 0.000000 4.088570 0.000000 
#    z 0.000000 0.000000 3.959050 
# 
# 
# High freq. dielectric constant tensor:
#      x y z
#    x 1.878780 0.000000 0.000000 
#    y 0.000000 1.888890 0.000000 
#    z 0.000000 0.000000 1.899150 
# 
# From -- ./inp_files/20689.got.cif
#   From: 2010.03.12/outbox.cif.g09.slc.cpg/sg72_11_cif.got.tgz:20689.got - 2010.04.16 14:54:00.
