data_PCOD8294903
_publ_section_title
;
Structure prediction by ZEFSAII (Michael W. Deem and Ramdas Pophale) SiO2 
 PCOD8294903
Probable space group: I B A M
;
_chemical_formula_sum "Si O2"
_cell_formula_units_Z 72
_cell_length_a 14.161530
_cell_length_b 15.564016
_cell_length_c 16.640862
_cell_angle_alpha 90.000000
_cell_angle_beta 90.000000
_cell_angle_gamma 90.000000
_cell_volume 3667.817045
_symmetry_space_group_name_H-M "I B A M"
_symmetry_group_IT_number 72
_symmetry_cell_setting 'orthorhombic'
loop_
_space_group_symop_operation_xyz
x,y,z
-x,-y,z
x,-y,1/2-z
-x,y,1/2-z
-x,-y,-z
x,y,-z
-x,y,1/2+z
x,-y,1/2+z
1/2+x,1/2+y,1/2+z
1/2-x,1/2-y,1/2+z
1/2+x,1/2-y,-z
1/2-x,1/2+y,-z
1/2-x,1/2-y,1/2-z
1/2+x,1/2+y,1/2-z
1/2-x,1/2+y,z
1/2+x,1/2-y,z
loop_
_atom_site_type_symbol
_atom_site_label
_atom_site_fract_x
_atom_site_fract_y
_atom_site_fract_z
Si Si1 0.815603 0.172319 0.500000
Si Si2 0.115048 0.715925 0.000000
Si Si3 0.553388 0.909980 0.500000
Si Si4 0.000000 0.221471 0.250000
Si Si5 0.643537 0.190536 0.867482
Si Si6 0.647252 0.650304 0.134424
Si Si7 0.108966 0.983747 0.000000
O O1 0.704329 0.153864 0.500000
O O2 0.847991 0.225105 0.422322
O O3 0.853873 0.078576 0.500000
O O4 0.116703 0.771929 0.920997
O O5 0.019843 0.666073 0.000000
O O6 0.615033 0.894313 0.580371
O O7 0.500000 0.000000 0.500000
O O8 0.934388 0.287145 0.300767
O O9 0.930399 0.154656 0.204728
O O10 0.746503 0.165228 0.830897
O O11 0.642478 0.563582 0.081549
O O12 0.000000 0.000000 0.000000
#
# Coordination Sequence:
#
# PCOD8294903 Si02
#       7
#     8   8   8   8  16  16   8
#     4   9  20  37  61  86 115 149 195 246 295 340
#     4   9  18  37  59  84 110 149 194 240 299 342
#     4  11  21  36  66  88 112 144 200 250 296 337
#     4  12  20  38  64  80 122 168 196 224 297 367
#     4  10  22  40  61  88 119 155 196 243 296 351
#     4  10  22  38  59  87 119 154 197 243 286 349
#     4  11  21  36  62  90 117 148 199 251 291 335
#
# _framework density 19.630206000000001
#
# number of rings (size 3 to 8) (size 9 to 14) (size 15 to 20)
#    0.000    1.778    2.222    4.000    6.222    0.000 
#    0.000    5.556    0.000    5.333    0.000    0.000 
#    0.000    0.000    0.000    0.000    0.000    0.000 
#
# Total GULP energy -446121.293246 kJ/mol
# GULP energy per Si atom -12392.258146 kJ/mol
# Density = 1.958553 g / cm^3
# Si number density = 19.630206 Si / 1000 Ang^3
#
#
#
# Elastic Constant Matrix: (Units=GPa)
#
#
# Indices 1 2 3 4 5 6 
#
# 1 152.4264 43.5743 52.2603 0.0000 0.0000 0.0000
# 2 43.5743 100.0238 20.4522 0.0000 0.0000 0.0000
# 3 52.2603 20.4522 86.5926 0.0000 0.0000 0.0000
# 4 0.0000 0.0000 0.0000 16.7687 0.0000 0.0000
# 5 0.0000 0.0000 0.0000 0.0000 42.1460 0.0000
# 6 0.0000 0.0000 0.0000 0.0000 0.0000 32.4787
#
#
#
# Elastic Compliance Matrix: (Units=1/GPa)
#
#
# Indices 1 2 3 4 5 6 
#
# 1 0.009038 -0.002965 -0.004754 0.000000 0.000000 0.000000
# 2 -0.002965 0.011478 -0.000921 0.000000 0.000000 0.000000
# 3 -0.004754 -0.000921 0.014635 0.000000 0.000000 0.000000
# 4 0.000000 0.000000 0.000000 0.059635 0.000000 0.000000
# 5 0.000000 0.000000 0.000000 0.000000 0.023727 0.000000
# 6 0.000000 0.000000 0.000000 0.000000 0.000000 0.030789
#
#
# Mechanical properties :
#
#
# Convention : Reuss Voigt Hill
#
# Bulk Modulus (GPa) = 55.96167 63.51291 59.73729
# Shear Modulus (GPa) = 28.97857 33.12908 31.05383
#
# Velocity S-wave (km/s) = 3.84633 4.11257 3.98168
# Velocity P-wave (km/s) = 6.94950 7.41457 7.18580
#
# Compressibility (1/GPa) = 0.01786937
#
# Stress axis : x y z
#
# Youngs Moduli (GPa) = 110.64000 87.12467 68.32781
#
# Poissons Ratio (x) = 0.25835 0.32486
# Poissons Ratio (y) = 0.32808 0.06295
# Poissons Ratio (z) = 0.52603 0.08027
#
# Static dielectric constant tensor:
#      x y z
#    x 3.919180 0.000000 0.000000 
#    y 0.000000 3.393570 0.000000 
#    z 0.000000 0.000000 3.498860 
# 
# 
# High freq. dielectric constant tensor:
#      x y z
#    x 1.799820 0.000000 0.000000 
#    y 0.000000 1.742320 0.000000 
#    z 0.000000 0.000000 1.749560 
# 
# From -- ./inp_files/30344.got.cif
#   From: 2010.03.12/outbox.cif.g09.slc.cpg/sg72_16_cif.got.tgz:30344.got - 2010.04.16 14:54:00.
