data_PCOD8294397
_publ_section_title
;
Structure prediction by ZEFSAII (Michael W. Deem and Ramdas Pophale) SiO2 
 PCOD8294397
Probable space group: I B A M
;
_chemical_formula_sum "Si O2"
_cell_formula_units_Z 64
_cell_length_a 8.358412
_cell_length_b 26.768934
_cell_length_c 13.410762
_cell_angle_alpha 90.000000
_cell_angle_beta 90.000000
_cell_angle_gamma 90.000000
_cell_volume 3000.601393
_symmetry_space_group_name_H-M "I B A M"
_symmetry_group_IT_number 72
_symmetry_cell_setting 'orthorhombic'
loop_
_space_group_symop_operation_xyz
x,y,z
-x,-y,z
x,-y,1/2-z
-x,y,1/2-z
-x,-y,-z
x,y,-z
-x,y,1/2+z
x,-y,1/2+z
1/2+x,1/2+y,1/2+z
1/2-x,1/2-y,1/2+z
1/2+x,1/2-y,-z
1/2-x,1/2+y,-z
1/2-x,1/2-y,1/2-z
1/2+x,1/2+y,1/2-z
1/2-x,1/2+y,z
1/2+x,1/2-y,z
loop_
_atom_site_type_symbol
_atom_site_label
_atom_site_fract_x
_atom_site_fract_y
_atom_site_fract_z
Si Si1 0.316636 0.576553 0.221977
Si Si2 0.265261 0.313712 0.692898
Si Si3 0.905732 0.226203 0.884851
Si Si4 0.317172 0.985925 0.887594
O O1 0.500000 0.585276 0.250000
O O2 0.245318 0.627223 0.174708
O O3 0.219967 0.562472 0.321617
O O4 0.297397 0.532186 0.142035
O O5 0.111133 0.284634 0.648787
O O6 0.414055 0.291469 0.630971
O O7 0.287924 0.305096 0.811883
O O8 0.855786 0.218224 0.000000
O O9 0.500000 0.000000 0.869719
O O10 0.280195 0.971011 0.000000
#
# Coordination Sequence:
#
# PCOD8294397 Si02
#       4
#    16  16  16  16
#     4  11  21  40  64  94 125 162 200 259 312 361
#     4  10  22  40  59  91 124 160 208 253 303 366
#     4  10  20  39  60  83 122 163 204 254 300 355
#     4  10  23  43  64  92 124 160 206 254 310 378
#
# _framework density 21.329058
#
# number of rings (size 3 to 8) (size 9 to 14) (size 15 to 20)
#    0.000    1.750    2.500    3.750    0.000    5.000 
#   18.000    0.000    0.000    0.000    0.000    0.000 
#    0.000    0.000    0.000    0.000    0.000    0.000 
#
# Total GULP energy -396752.722000 kJ/mol
# GULP energy per Si atom -12398.522562 kJ/mol
# Density = 2.128051 g / cm^3
# Si number density = 21.329058 Si / 1000 Ang^3
#
#
#
# Elastic Constant Matrix: (Units=GPa)
#
#
# Indices 1 2 3 4 5 6 
#
# 1 43.8769 37.7228 29.2707 0.0002 0.0000 0.0000
# 2 37.7228 132.0468 10.0048 0.0003 0.0000 0.0000
# 3 29.2707 10.0048 143.2936 0.0016 -0.0002 -0.0001
# 4 0.0002 0.0003 0.0016 13.4366 -0.0001 -0.0001
# 5 0.0000 0.0000 -0.0002 -0.0001 26.8250 0.0001
# 6 0.0000 0.0000 -0.0001 -0.0001 0.0001 29.9786
#
#
#
# Elastic Compliance Matrix: (Units=1/GPa)
#
#
# Indices 1 2 3 4 5 6 
#
# 1 0.035453 -0.009630 -0.006570 0.000000 0.000000 0.000000
# 2 -0.009630 0.010229 0.001253 0.000000 0.000000 0.000000
# 3 -0.006570 0.001253 0.008233 -0.000001 0.000000 0.000000
# 4 0.000000 0.000000 -0.000001 0.074424 0.000000 0.000000
# 5 0.000000 0.000000 0.000000 0.000000 0.037279 0.000000
# 6 0.000000 0.000000 0.000000 0.000000 0.000000 0.033357
#
#
# Mechanical properties :
#
#
# Convention : Reuss Voigt Hill
#
# Bulk Modulus (GPa) = 41.62914 52.57934 47.10424
# Shear Modulus (GPa) = 21.10798 30.19596 25.65197
#
# Velocity S-wave (km/s) = 3.14926 3.76669 3.47173
# Velocity P-wave (km/s) = 5.72571 6.60471 6.18086
#
# Compressibility (1/GPa) = 0.02402163
#
# Stress axis : x y z
#
# Youngs Moduli (GPa) = 28.20598 97.75786 121.45953
#
# Poissons Ratio (x) = 0.94146 0.79795
# Poissons Ratio (y) = 0.27164 -0.15219
# Poissons Ratio (z) = 0.18531 -0.12249
#
# Static dielectric constant tensor:
#      x y z
#    x 3.813550 0.000000 0.000000 
#    y 0.000000 3.922340 0.000000 
#    z 0.000000 0.000000 3.907900 
# 
# 
# High freq. dielectric constant tensor:
#      x y z
#    x 1.829320 0.000000 0.000000 
#    y 0.000000 1.830170 0.000000 
#    z 0.000000 0.000000 1.835960 
# 
# From -- ./inp_files/18979.got.cif
#   From: 2010.03.12/outbox.cif.g09.slc.cpg/sg72_10_cif.got.tgz:18979.got - 2010.04.16 14:54:00.
