data_PCOD8294896
_publ_section_title
;
Structure prediction by ZEFSAII (Michael W. Deem and Ramdas Pophale) SiO2 
 PCOD8294896
Probable space group: I B A M
;
_chemical_formula_sum "Si O2"
_cell_formula_units_Z 72
_cell_length_a 15.277512
_cell_length_b 17.491065
_cell_length_c 14.139556
_cell_angle_alpha 90.000000
_cell_angle_beta 90.000000
_cell_angle_gamma 90.000000
_cell_volume 3778.371524
_symmetry_space_group_name_H-M "I B A M"
_symmetry_group_IT_number 72
_symmetry_cell_setting 'orthorhombic'
loop_
_space_group_symop_operation_xyz
x,y,z
-x,-y,z
x,-y,1/2-z
-x,y,1/2-z
-x,-y,-z
x,y,-z
-x,y,1/2+z
x,-y,1/2+z
1/2+x,1/2+y,1/2+z
1/2-x,1/2-y,1/2+z
1/2+x,1/2-y,-z
1/2-x,1/2+y,-z
1/2-x,1/2-y,1/2-z
1/2+x,1/2+y,1/2-z
1/2-x,1/2+y,z
1/2+x,1/2-y,z
loop_
_atom_site_type_symbol
_atom_site_label
_atom_site_fract_x
_atom_site_fract_y
_atom_site_fract_z
Si Si1 0.082846 0.159486 0.816717
Si Si2 0.917438 0.665074 0.183753
Si Si3 0.073308 0.937901 0.500000
Si Si4 0.768046 0.541026 0.500000
Si Si5 0.072640 0.433976 0.000000
Si Si6 0.238010 0.414766 0.290738
O O1 0.100964 0.247371 0.842355
O O2 0.168340 0.122931 0.768008
O O3 0.000000 0.149548 0.750000
O O4 0.060517 0.115657 0.911192
O O5 0.940138 0.617906 0.090863
O O6 0.833015 0.634091 0.236533
O O7 0.000000 0.655500 0.250000
O O8 0.166004 0.982774 0.500000
O O9 0.000000 0.000000 0.500000
O O10 0.829138 0.466945 0.500000
O O11 0.784771 0.588923 0.403375
O O12 0.000000 0.500000 0.000000
O O13 0.237661 0.500000 0.250000
#
# Coordination Sequence:
#
# PCOD8294896 Si02
#       6
#    16  16   8   8   8  16
#     4  10  24  41  62  91 124 163 201 253 313 366
#     4  11  24  41  61  90 126 162 203 252 311 368
#     4  10  23  39  63  91 124 156 206 255 300 361
#     4  10  22  38  56  96 116 154 201 253 304 348
#     4  12  23  37  63  89 122 162 206 251 300 357
#     4  11  22  39  65  89 122 158 208 253 304 370
#
# _framework density 19.05583
#
# number of rings (size 3 to 8) (size 9 to 14) (size 15 to 20)
#    0.000    1.333    2.222    2.667    6.222    0.000 
#    0.000    1.111    0.000    2.667    0.000    0.000 
#    0.000    0.000    0.000    0.000    0.000    0.000 
#
# Total GULP energy -446457.383670 kJ/mol
# GULP energy per Si atom -12401.593991 kJ/mol
# Density = 1.901246 g / cm^3
# Si number density = 19.055830 Si / 1000 Ang^3
#
#
#
# Elastic Constant Matrix: (Units=GPa)
#
#
# Indices 1 2 3 4 5 6 
#
# 1 124.6684 94.5025 57.0603 0.0000 0.0000 0.0000
# 2 94.5025 158.6444 76.1649 0.0000 0.0000 0.0000
# 3 57.0603 76.1649 128.3577 0.0000 0.0000 0.0000
# 4 0.0000 0.0000 0.0000 27.7048 0.0000 0.0000
# 5 0.0000 0.0000 0.0000 0.0000 17.6720 0.0000
# 6 0.0000 0.0000 0.0000 0.0000 0.0000 34.5954
#
#
#
# Elastic Compliance Matrix: (Units=1/GPa)
#
#
# Indices 1 2 3 4 5 6 
#
# 1 0.014951 -0.007992 -0.001904 0.000000 0.000000 0.000000
# 2 -0.007992 0.013087 -0.004213 0.000000 0.000000 0.000000
# 3 -0.001904 -0.004213 0.011137 0.000000 0.000000 0.000000
# 4 0.000000 0.000000 0.000000 0.036095 0.000000 0.000000
# 5 0.000000 0.000000 0.000000 0.000000 0.056587 0.000000
# 6 0.000000 0.000000 0.000000 0.000000 0.000000 0.028906
#
#
# Mechanical properties :
#
#
# Convention : Reuss Voigt Hill
#
# Bulk Modulus (GPa) = 91.26430 96.34733 93.80581
# Shear Modulus (GPa) = 25.95640 28.25729 27.10685
#
# Velocity S-wave (km/s) = 3.69470 3.85498 3.77569
# Velocity P-wave (km/s) = 8.13623 8.39552 8.26689
#
# Compressibility (1/GPa) = 0.01095719
#
# Stress axis : x y z
#
# Youngs Moduli (GPa) = 66.88571 76.41435 89.79252
#
# Poissons Ratio (x) = 0.61070 0.17097
# Poissons Ratio (y) = 0.53455 0.37826
# Poissons Ratio (z) = 0.12735 0.32190
#
# Static dielectric constant tensor:
#      x y z
#    x 3.686730 0.000000 0.000000 
#    y 0.000000 3.689370 0.000000 
#    z 0.000000 0.000000 3.739190 
# 
# 
# High freq. dielectric constant tensor:
#      x y z
#    x 1.758440 0.000000 0.000000 
#    y 0.000000 1.743650 0.000000 
#    z 0.000000 0.000000 1.756140 
# 
# From -- ./inp_files/21510.got.cif
#   From: 2010.03.12/outbox.cif.g09.slc.cpg/sg72_11_cif.got.tgz:21510.got - 2010.04.16 14:54:00.
