data_PCOD8294225
_publ_section_title
;
Structure prediction by ZEFSAII (Michael W. Deem and Ramdas Pophale) SiO2 
 PCOD8294225
Probable space group: I B A M
;
_chemical_formula_sum "Si O2"
_cell_formula_units_Z 80
_cell_length_a 26.688260
_cell_length_b 8.797169
_cell_length_c 16.374575
_cell_angle_alpha 90.000000
_cell_angle_beta 90.000000
_cell_angle_gamma 90.000000
_cell_volume 3844.441280
_symmetry_space_group_name_H-M "I B A M"
_symmetry_group_IT_number 72
_symmetry_cell_setting 'orthorhombic'
loop_
_space_group_symop_operation_xyz
x,y,z
-x,-y,z
x,-y,1/2-z
-x,y,1/2-z
-x,-y,-z
x,y,-z
-x,y,1/2+z
x,-y,1/2+z
1/2+x,1/2+y,1/2+z
1/2-x,1/2-y,1/2+z
1/2+x,1/2-y,-z
1/2-x,1/2+y,-z
1/2-x,1/2-y,1/2-z
1/2+x,1/2+y,1/2-z
1/2-x,1/2+y,z
1/2+x,1/2-y,z
loop_
_atom_site_type_symbol
_atom_site_label
_atom_site_fract_x
_atom_site_fract_y
_atom_site_fract_z
Si Si1 0.619576 0.000000 0.250000
Si Si2 0.083782 0.132609 0.500000
Si Si3 0.133980 0.000000 0.250000
Si Si4 0.465156 0.669719 0.000000
Si Si5 0.595911 0.249504 0.863314
Si Si6 0.657438 0.752552 0.134527
Si Si7 0.774693 0.368154 0.000000
Si Si8 0.177226 0.701568 0.500000
O O1 0.585432 0.119891 0.202895
O O2 0.652193 0.090810 0.316411
O O3 0.107923 0.210596 0.580025
O O4 0.022951 0.131013 0.500000
O O5 0.084544 0.948927 0.500000
O O6 0.100005 0.091006 0.184909
O O7 0.168464 0.117329 0.301021
O O8 0.454510 0.760209 0.917078
O O9 0.644803 0.210836 0.917607
O O10 0.705269 0.775198 0.078069
O O11 0.791674 0.543226 0.000000
O O12 0.714752 0.347025 0.000000
#
# Coordination Sequence:
#
# PCOD8294225 Si02
#       8
#     8   8   8   8  16  16   8   8
#     4  10  20  40  62  78 124 154 186 240 298 340
#     4  10  20  37  61  89 116 154 200 238 278 343
#     4  10  20  36  62  88 112 160 194 232 290 348
#     4  10  20  37  61  89 116 154 200 238 278 343
#     4  10  21  40  61  85 118 155 192 238 292 337
#     4  10  21  40  61  85 118 155 192 238 292 337
#     4  11  24  40  62  86 115 154 196 236 285 348
#     4  11  24  40  62  86 115 154 196 236 285 348
#
# _framework density 20.809266000000001
#
# number of rings (size 3 to 8) (size 9 to 14) (size 15 to 20)
#    0.000    1.800    4.000    0.000    2.800    0.000 
#    0.000   14.000    0.000    0.000    0.000    0.000 
#    0.000    0.000    0.000    0.000    0.000    0.000 
#
# Total GULP energy -495560.886066 kJ/mol
# GULP energy per Si atom -12389.022152 kJ/mol
# Density = 2.076190 g / cm^3
# Si number density = 20.809266 Si / 1000 Ang^3
#
#
#
# Elastic Constant Matrix: (Units=GPa)
#
#
# Indices 1 2 3 4 5 6 
#
# 1 53.7784 11.6893 19.0869 0.0000 0.0000 0.0000
# 2 11.6893 84.5909 26.4209 0.0000 0.0000 0.0000
# 3 19.0869 26.4209 115.2739 0.0000 0.0000 0.0000
# 4 0.0000 0.0000 0.0000 36.9505 0.0000 0.0000
# 5 0.0000 0.0000 0.0000 0.0000 2.1008 0.0000
# 6 0.0000 0.0000 0.0000 0.0000 0.0000 13.6920
#
#
#
# Elastic Compliance Matrix: (Units=1/GPa)
#
#
# Indices 1 2 3 4 5 6 
#
# 1 0.020025 -0.001865 -0.002888 0.000000 0.000000 0.000000
# 2 -0.001865 0.012907 -0.002649 0.000000 0.000000 0.000000
# 3 -0.002888 -0.002649 0.009760 0.000000 0.000000 0.000000
# 4 0.000000 0.000000 0.000000 0.027063 0.000000 0.000000
# 5 0.000000 0.000000 0.000000 0.000000 0.476003 0.000000
# 6 0.000000 0.000000 0.000000 0.000000 0.000000 0.073035
#
#
# Mechanical properties :
#
#
# Convention : Reuss Voigt Hill
#
# Bulk Modulus (GPa) = 35.85902 40.89306 38.37604
# Shear Modulus (GPa) = 7.77731 23.64508 15.71120
#
# Velocity S-wave (km/s) = 1.93534 3.37453 2.75072
# Velocity P-wave (km/s) = 4.71844 5.90570 5.34514
#
# Compressibility (1/GPa) = 0.02788698
#
# Stress axis : x y z
#
# Youngs Moduli (GPa) = 49.93677 77.47826 102.45396
#
# Poissons Ratio (x) = 0.14451 0.29592
# Poissons Ratio (y) = 0.09314 0.27145
# Poissons Ratio (z) = 0.14423 0.20527
#
# Static dielectric constant tensor:
#      x y z
#    x 3.206160 0.000000 0.000000 
#    y 0.000000 4.038410 0.000000 
#    z 0.000000 0.000000 4.181110 
# 
# 
# High freq. dielectric constant tensor:
#      x y z
#    x 1.764670 0.000000 0.000000 
#    y 0.000000 1.829640 0.000000 
#    z 0.000000 0.000000 1.842960 
# 
# From -- ./inp_files/28258.got.cif
#   From: 2010.03.12/outbox.cif.g09.slc.cpg/sg72_15_cif.got.tgz:28258.got - 2010.04.16 14:54:00.
