data_PCOD8294778
_publ_section_title
;
Structure prediction by ZEFSAII (Michael W. Deem and Ramdas Pophale) SiO2 
 PCOD8294778
Probable space group: I B A M
;
_chemical_formula_sum "Si O2"
_cell_formula_units_Z 88
_cell_length_a 18.922293
_cell_length_b 8.933572
_cell_length_c 22.429972
_cell_angle_alpha 90.000000
_cell_angle_beta 90.000000
_cell_angle_gamma 90.000000
_cell_volume 3791.644716
_symmetry_space_group_name_H-M "I B A M"
_symmetry_group_IT_number 72
_symmetry_cell_setting 'orthorhombic'
loop_
_space_group_symop_operation_xyz
x,y,z
-x,-y,z
x,-y,1/2-z
-x,y,1/2-z
-x,-y,-z
x,y,-z
-x,y,1/2+z
x,-y,1/2+z
1/2+x,1/2+y,1/2+z
1/2-x,1/2-y,1/2+z
1/2+x,1/2-y,-z
1/2-x,1/2+y,-z
1/2-x,1/2-y,1/2-z
1/2+x,1/2+y,1/2-z
1/2-x,1/2+y,z
1/2+x,1/2-y,z
loop_
_atom_site_type_symbol
_atom_site_label
_atom_site_fract_x
_atom_site_fract_y
_atom_site_fract_z
Si Si1 0.877707 0.201115 0.606912
Si Si2 0.288224 0.527946 0.318410
Si Si3 0.500000 0.500000 0.112606
Si Si4 0.621176 0.033146 0.182942
Si Si5 0.160075 0.730376 0.000000
Si Si6 0.809020 0.622185 0.000000
Si Si7 0.107128 0.766429 0.128494
O O1 0.818497 0.095433 0.636131
O O2 0.908758 0.308643 0.659320
O O3 0.844617 0.308087 0.557894
O O4 0.941928 0.102964 0.577820
O O5 0.309845 0.500000 0.250000
O O6 0.205136 0.535841 0.326459
O O7 0.319977 0.689370 0.337742
O O8 0.452844 0.383707 0.151063
O O9 0.585964 0.901359 0.144739
O O10 0.598651 0.000000 0.250000
O O11 0.183183 0.556783 0.000000
O O12 0.113271 0.773559 0.056978
O O13 0.226865 0.840082 0.000000
#
# Coordination Sequence:
#
# PCOD8294778 Si02
#       7
#    16  16   8  16   8   8  16
#     4  11  24  43  65  96 134 174 221 264 322 392
#     4  10  21  39  67 101 135 171 212 268 336 398
#     4  10  28  47  65  86 128 182 227 261 318 384
#     4  11  21  39  67  98 130 167 216 279 337 385
#     4  12  26  42  71 107 137 163 206 271 336 389
#     4  12  26  42  71 107 137 163 206 271 336 389
#     4  11  24  43  65  96 134 174 221 264 322 392
#
# _framework density 23.208926000000002
#
# number of rings (size 3 to 8) (size 9 to 14) (size 15 to 20)
#    0.000    1.091    1.818    4.364    5.091    5.091 
#    0.000   18.182    0.000    0.000    0.000    0.000 
#    0.000    0.000    0.000    0.000    0.000    0.000 
#
# Total GULP energy -545389.980025 kJ/mol
# GULP energy per Si atom -12395.226819 kJ/mol
# Density = 2.315610 g / cm^3
# Si number density = 23.208926 Si / 1000 Ang^3
#
#
#
# Elastic Constant Matrix: (Units=GPa)
#
#
# Indices 1 2 3 4 5 6 
#
# 1 72.7502 27.9548 20.0931 0.0000 0.0000 0.0000
# 2 27.9548 123.3701 17.7720 0.0000 0.0000 0.0000
# 3 20.0931 17.7720 115.9469 0.0000 0.0000 0.0000
# 4 0.0000 0.0000 0.0000 32.5755 0.0000 0.0000
# 5 0.0000 0.0000 0.0000 0.0000 -53.4037 0.0000
# 6 0.0000 0.0000 0.0000 0.0000 0.0000 34.3275
#
#
#
# Elastic Compliance Matrix: (Units=1/GPa)
#
#
# Indices 1 2 3 4 5 6 
#
# 1 0.015591 -0.003215 -0.002209 0.000000 0.000000 0.000000
# 2 -0.003215 0.008951 -0.000815 0.000000 0.000000 0.000000
# 3 -0.002209 -0.000815 0.009132 0.000000 0.000000 0.000000
# 4 0.000000 0.000000 0.000000 0.030698 0.000000 0.000000
# 5 0.000000 0.000000 0.000000 0.000000 -0.018725 0.000000
# 6 0.000000 0.000000 0.000000 0.000000 0.000000 0.029131
#
#
# Mechanical properties :
#
#
# Convention : Reuss Voigt Hill
#
# Bulk Modulus (GPa) = 47.17535 49.30078 48.23806
# Shear Modulus (GPa) = 53.00988 19.11633 36.06311
#
# Velocity S-wave (km/s) = 4.78434 2.87307 3.94616
# Velocity P-wave (km/s) = 7.13375 5.68281 6.44921
#
# Compressibility (1/GPa) = 0.02119751
#
# Stress axis : x y z
#
# Youngs Moduli (GPa) = 64.13934 111.71314 109.50032
#
# Poissons Ratio (x) = 0.35911 0.24190
# Poissons Ratio (y) = 0.20618 0.08924
# Poissons Ratio (z) = 0.14169 0.09104
#
# Static dielectric constant tensor:
#      x y z
#    x 4.086260 0.000000 0.000000 
#    y 0.000000 4.593760 0.000000 
#    z 0.000000 0.000000 4.163670 
# 
# 
# High freq. dielectric constant tensor:
#      x y z
#    x 1.905150 0.000000 0.000000 
#    y 0.000000 1.947000 0.000000 
#    z 0.000000 0.000000 1.902310 
# 
# From -- ./inp_files/45259.got.cif
#   From: 2010.03.12/outbox.cif.g09.slc.cpg/sg72_23_cif.got.tgz:45259.got - 2010.04.16 14:54:00.
