data_PCOD8294823
_publ_section_title
;
Structure prediction by ZEFSAII (Michael W. Deem and Ramdas Pophale) SiO2 
 PCOD8294823
Probable space group: I B A M
;
_chemical_formula_sum "Si O2"
_cell_formula_units_Z 52
_cell_length_a 21.884248
_cell_length_b 7.299876
_cell_length_c 17.701160
_cell_angle_alpha 90.000000
_cell_angle_beta 90.000000
_cell_angle_gamma 90.000000
_cell_volume 2827.800965
_symmetry_space_group_name_H-M "I B A M"
_symmetry_group_IT_number 72
_symmetry_cell_setting 'orthorhombic'
loop_
_space_group_symop_operation_xyz
x,y,z
-x,-y,z
x,-y,1/2-z
-x,y,1/2-z
-x,-y,-z
x,y,-z
-x,y,1/2+z
x,-y,1/2+z
1/2+x,1/2+y,1/2+z
1/2-x,1/2-y,1/2+z
1/2+x,1/2-y,-z
1/2-x,1/2+y,-z
1/2-x,1/2-y,1/2-z
1/2+x,1/2+y,1/2-z
1/2-x,1/2+y,z
1/2+x,1/2-y,z
loop_
_atom_site_type_symbol
_atom_site_label
_atom_site_fract_x
_atom_site_fract_y
_atom_site_fract_z
Si Si1 0.116692 0.607038 0.179110
Si Si2 0.500000 0.000000 0.750000
Si Si3 0.194849 0.040097 0.334106
Si Si4 0.183066 0.671430 0.411700
O O1 0.148414 0.500000 0.250000
O O2 0.141845 0.809570 0.168433
O O3 0.132386 0.483769 0.105875
O O4 0.043625 0.622250 0.195221
O O5 0.250365 0.105995 0.385457
O O6 0.219378 0.000000 0.250000
O O7 0.164898 0.858766 0.369614
O O8 0.184743 0.708622 0.500000
#
# Coordination Sequence:
#
# PCOD8294823 Si02
#       4
#    16   4  16  16
#     4  10  21  41  64  85 117 158 204 251 291 350
#     4   8  20  44  64  88 104 162 222 246 278 348
#     4  12  21  36  60  90 124 159 197 247 299 365
#     4  12  24  35  56  95 130 155 189 243 312 368
#
# _framework density 18.388846999999998
#
# number of rings (size 3 to 8) (size 9 to 14) (size 15 to 20)
#    0.923    0.000    6.154    2.769    0.000    1.231 
#    0.000    7.692    0.000    1.846    0.000    0.000 
#    0.000    0.000    0.000    0.000    0.000    0.000 
#
# Total GULP energy -322311.069615 kJ/mol
# GULP energy per Si atom -12396.579601 kJ/mol
# Density = 1.834699 g / cm^3
# Si number density = 18.388847 Si / 1000 Ang^3
#
#
#
# Elastic Constant Matrix: (Units=GPa)
#
#
# Indices 1 2 3 4 5 6 
#
# 1 116.6798 40.5295 18.6058 0.0000 0.0000 0.0000
# 2 40.5295 120.9867 28.6962 0.0000 0.0000 0.0000
# 3 18.6058 28.6962 115.4568 0.0000 0.0000 0.0000
# 4 0.0000 0.0000 0.0000 26.5410 0.0000 0.0000
# 5 0.0000 0.0000 0.0000 0.0000 8.7749 0.0000
# 6 0.0000 0.0000 0.0000 0.0000 0.0000 11.6902
#
#
#
# Elastic Compliance Matrix: (Units=1/GPa)
#
#
# Indices 1 2 3 4 5 6 
#
# 1 0.009770 -0.003081 -0.000809 0.000000 0.000000 0.000000
# 2 -0.003081 0.009755 -0.001928 0.000000 0.000000 0.000000
# 3 -0.000809 -0.001928 0.009271 0.000000 0.000000 0.000000
# 4 0.000000 0.000000 0.000000 0.037678 0.000000 0.000000
# 5 0.000000 0.000000 0.000000 0.000000 0.113961 0.000000
# 6 0.000000 0.000000 0.000000 0.000000 0.000000 0.085542
#
#
# Mechanical properties :
#
#
# Convention : Reuss Voigt Hill
#
# Bulk Modulus (GPa) = 58.27509 58.75402 58.51456
# Shear Modulus (GPa) = 17.64725 27.08737 22.36731
#
# Velocity S-wave (km/s) = 3.10122 3.84217 3.49141
# Velocity P-wave (km/s) = 6.67702 7.19050 6.93851
#
# Compressibility (1/GPa) = 0.01715999
#
# Stress axis : x y z
#
# Youngs Moduli (GPa) = 102.35851 102.51421 107.86616
#
# Poissons Ratio (x) = 0.31584 0.08722
# Poissons Ratio (y) = 0.31536 0.20797
# Poissons Ratio (z) = 0.08277 0.19765
#
# Static dielectric constant tensor:
#      x y z
#    x 3.043100 0.000000 0.000000 
#    y 0.000000 3.589270 0.000000 
#    z 0.000000 0.000000 3.381750 
# 
# 
# High freq. dielectric constant tensor:
#      x y z
#    x 1.680560 0.000000 0.000000 
#    y 0.000000 1.723700 0.000000 
#    z 0.000000 0.000000 1.709970 
# 
# From -- ./inp_files/33604.got.cif
#   From: 2010.03.12/outbox.cif.g09.slc.cpg/sg72_17_cif.got.tgz:33604.got - 2010.04.16 14:54:00.
