data_PCOD8294888
_publ_section_title
;
Structure prediction by ZEFSAII (Michael W. Deem and Ramdas Pophale) SiO2 
 PCOD8294888
Probable space group: I B A M
;
_chemical_formula_sum "Si O2"
_cell_formula_units_Z 88
_cell_length_a 25.949326
_cell_length_b 12.096694
_cell_length_c 15.027445
_cell_angle_alpha 90.000000
_cell_angle_beta 90.000000
_cell_angle_gamma 90.000000
_cell_volume 4717.130856
_symmetry_space_group_name_H-M "I B A M"
_symmetry_group_IT_number 72
_symmetry_cell_setting 'orthorhombic'
loop_
_space_group_symop_operation_xyz
x,y,z
-x,-y,z
x,-y,1/2-z
-x,y,1/2-z
-x,-y,-z
x,y,-z
-x,y,1/2+z
x,-y,1/2+z
1/2+x,1/2+y,1/2+z
1/2-x,1/2-y,1/2+z
1/2+x,1/2-y,-z
1/2-x,1/2+y,-z
1/2-x,1/2-y,1/2-z
1/2+x,1/2+y,1/2-z
1/2-x,1/2+y,z
1/2+x,1/2-y,z
loop_
_atom_site_type_symbol
_atom_site_label
_atom_site_fract_x
_atom_site_fract_y
_atom_site_fract_z
Si Si1 0.609369 0.213512 0.149482
Si Si2 0.890631 0.286488 0.850518
Si Si3 0.858064 0.122331 0.000000
Si Si4 1.000000 0.626150 0.605416
Si Si5 0.641937 0.622331 0.500000
Si Si6 0.240772 1.000000 0.000000
Si Si7 0.174096 0.500000 0.145768
O O1 0.623984 0.245777 0.250000
O O2 0.549085 0.188664 0.144052
O O3 0.624005 0.315743 0.088191
O O4 0.640819 0.106123 0.117980
O O5 0.875995 0.184257 0.911809
O O6 0.950915 0.311337 0.855947
O O7 0.859180 0.393877 0.882020
O O8 0.883848 1.000000 0.000000
O O9 0.795674 0.109367 0.000000
O O10 0.999999 0.632187 0.500000
O O11 0.000000 0.500000 0.639409
O O12 0.704326 0.609366 0.500000
O O13 0.273776 1.000000 0.910245
O O14 0.188083 0.500000 0.250000
#
# Coordination Sequence:
#
# PCOD8294888 Si02
#       7
#    16  16   8  16   8   8  16
#     4  11  22  39  64  94 128 156 193 248 308 368
#     4  11  22  39  64  94 128 156 193 248 308 368
#     4  10  25  44  58  82 119 172 214 252 285 346
#     4  11  21  35  65 101 129 156 185 236 316 383
#     4  10  25  44  58  82 119 172 214 252 285 346
#     4  10  24  42  62  78 124 166 210 258 296 340
#     4  10  22  37  63  99 123 148 197 254 316 374
#
# _framework density 18.655408000000001
#
# number of rings (size 3 to 8) (size 9 to 14) (size 15 to 20)
#    0.545    0.909    3.636    1.636    0.000    5.818 
#    0.000    5.455    0.000    2.182    0.000    0.000 
#    0.000    0.000    0.000    0.000    0.000    0.000 
#
# Total GULP energy -545700.863464 kJ/mol
# GULP energy per Si atom -12402.292351 kJ/mol
# Density = 1.861295 g / cm^3
# Si number density = 18.655408 Si / 1000 Ang^3
#
#
#
# Elastic Constant Matrix: (Units=GPa)
#
#
# Indices 1 2 3 4 5 6 
#
# 1 137.8087 60.8136 43.2373 0.0000 0.0000 0.0000
# 2 60.8136 150.3379 71.2166 0.0000 0.0000 0.0000
# 3 43.2373 71.2166 110.9078 0.0000 0.0000 0.0000
# 4 0.0000 0.0000 0.0000 17.7579 0.0000 0.0000
# 5 0.0000 0.0000 0.0000 0.0000 58.9986 0.0000
# 6 0.0000 0.0000 0.0000 0.0000 0.0000 -41.5269
#
#
#
# Elastic Compliance Matrix: (Units=1/GPa)
#
#
# Indices 1 2 3 4 5 6 
#
# 1 0.009049 -0.002859 -0.001692 0.000000 0.000000 0.000000
# 2 -0.002859 0.010463 -0.005604 0.000000 0.000000 0.000000
# 3 -0.001692 -0.005604 0.013274 0.000000 0.000000 0.000000
# 4 0.000000 0.000000 0.000000 0.056313 0.000000 0.000000
# 5 0.000000 0.000000 0.000000 0.000000 0.016950 0.000000
# 6 0.000000 0.000000 0.000000 0.000000 0.000000 -0.024081
#
#
# Mechanical properties :
#
#
# Convention : Reuss Voigt Hill
#
# Bulk Modulus (GPa) = 80.14915 83.28771 81.71843
# Shear Modulus (GPa) = 46.97652 21.96506 34.47079
#
# Velocity S-wave (km/s) = 5.02353 3.43506 4.30323
# Velocity P-wave (km/s) = 8.75808 7.77658 8.28188
#
# Compressibility (1/GPa) = 0.01247674
#
# Stress axis : x y z
#
# Youngs Moduli (GPa) = 110.51097 95.57728 75.33264
#
# Poissons Ratio (x) = 0.27325 0.12746
# Poissons Ratio (y) = 0.31594 0.42215
# Poissons Ratio (z) = 0.18698 0.53560
#
# Static dielectric constant tensor:
#      x y z
#    x 3.394030 0.000000 0.000000 
#    y 0.000000 3.322630 0.000000 
#    z 0.000000 0.000000 3.457420 
# 
# 
# High freq. dielectric constant tensor:
#      x y z
#    x 1.726170 0.000000 0.000000 
#    y 0.000000 1.711580 0.000000 
#    z 0.000000 0.000000 1.741040 
# 
# From -- ./inp_files/25855.got.cif
#   From: 2010.03.12/outbox.cif.g09.slc.cpg/sg72_13_cif.got.tgz:25855.got - 2010.04.16 14:54:00.
