data_PCOD8294864
_publ_section_title
;
Structure prediction by ZEFSAII (Michael W. Deem and Ramdas Pophale) SiO2 
 PCOD8294864
Probable space group: I B A M
;
_chemical_formula_sum "Si O2"
_cell_formula_units_Z 116
_cell_length_a 9.285684
_cell_length_b 23.281351
_cell_length_c 26.395803
_cell_angle_alpha 90.000000
_cell_angle_beta 90.000000
_cell_angle_gamma 90.000000
_cell_volume 5706.330967
_symmetry_space_group_name_H-M "I B A M"
_symmetry_group_IT_number 72
_symmetry_cell_setting 'orthorhombic'
loop_
_space_group_symop_operation_xyz
x,y,z
-x,-y,z
x,-y,1/2-z
-x,y,1/2-z
-x,-y,-z
x,y,-z
-x,y,1/2+z
x,-y,1/2+z
1/2+x,1/2+y,1/2+z
1/2-x,1/2-y,1/2+z
1/2+x,1/2-y,-z
1/2-x,1/2+y,-z
1/2-x,1/2-y,1/2-z
1/2+x,1/2+y,1/2-z
1/2-x,1/2+y,z
1/2+x,1/2-y,z
loop_
_atom_site_type_symbol
_atom_site_label
_atom_site_fract_x
_atom_site_fract_y
_atom_site_fract_z
Si Si1 0.767786 0.377117 0.813404
Si Si2 0.610429 0.720209 0.942134
Si Si3 0.967163 0.720491 0.693506
Si Si4 0.970305 0.157614 0.152117
Si Si5 0.234266 0.078198 0.702452
Si Si6 0.500000 0.500000 0.750000
Si Si7 0.015825 0.437407 0.870728
Si Si8 0.081450 0.682460 0.594773
O O1 0.817029 0.310867 0.820965
O O2 0.604924 0.381811 0.832872
O O3 0.781166 0.393288 0.754847
O O4 0.863216 0.419537 0.847066
O O5 0.519523 0.677042 0.906425
O O6 0.779725 0.709967 0.932207
O O7 0.559896 0.785369 0.928854
O O8 0.574785 0.705608 0.000000
O O9 0.956500 0.788367 0.689705
O O10 0.000000 0.701082 0.750000
O O11 0.088756 0.695571 0.655237
O O12 0.823948 0.123301 0.161003
O O13 0.373081 0.050998 0.675610
O O14 0.104563 0.034442 0.712618
O O15 0.066327 0.387236 0.910538
O O16 0.000000 0.500000 0.898203
#
# Coordination Sequence:
#
# PCOD8294864 Si02
#       8
#    16  16  16  16  16   4  16  16
#     4  11  22  38  58  87 137 179 220 257 313 387
#     4  11  24  44  70  97 127 166 218 285 349 402
#     4  10  22  33  58  90 134 177 206 248 326 400
#     4  11  24  37  58  93 128 166 217 269 333 392
#     4  12  22  40  57  91 132 179 225 266 310 383
#     4  12  24  36  62  88 134 184 238 268 310 372
#     4  11  24  40  63  93 135 183 221 263 313 386
#     4  10  23  42  64  99 131 167 221 269 335 399
#
# _framework density 20.328299000000001
#
# number of rings (size 3 to 8) (size 9 to 14) (size 15 to 20)
#    0.000    1.103    2.759    4.138   11.586    1.655 
#    0.000    0.000    0.000    1.655    0.000    3.379 
#    0.000    0.000    0.000    0.000    0.000    0.000 
#
# Total GULP energy -718907.804945 kJ/mol
# GULP energy per Si atom -12394.962154 kJ/mol
# Density = 2.028203 g / cm^3
# Si number density = 20.328299 Si / 1000 Ang^3
#
#
#
# Elastic Constant Matrix: (Units=GPa)
#
#
# Indices 1 2 3 4 5 6 
#
# 1 84.3176 39.6983 -0.5809 0.0000 0.0000 0.0000
# 2 39.6983 122.5081 16.0937 0.0000 0.0000 0.0000
# 3 -0.5809 16.0937 87.8624 0.0000 0.0000 0.0000
# 4 0.0000 0.0000 0.0000 13.3148 0.0000 0.0000
# 5 0.0000 0.0000 0.0000 0.0000 22.1954 0.0000
# 6 0.0000 0.0000 0.0000 0.0000 0.0000 21.7941
#
#
#
# Elastic Compliance Matrix: (Units=1/GPa)
#
#
# Indices 1 2 3 4 5 6 
#
# 1 0.014072 -0.004685 0.000951 0.000000 0.000000 0.000000
# 2 -0.004685 0.009924 -0.001849 0.000000 0.000000 0.000000
# 3 0.000951 -0.001849 0.011726 0.000000 0.000000 0.000000
# 4 0.000000 0.000000 0.000000 0.075104 0.000000 0.000000
# 5 0.000000 0.000000 0.000000 0.000000 0.045054 0.000000
# 6 0.000000 0.000000 0.000000 0.000000 0.000000 0.045884
#
#
# Mechanical properties :
#
#
# Convention : Reuss Voigt Hill
#
# Bulk Modulus (GPa) = 40.72106 45.01223 42.86665
# Shear Modulus (GPa) = 22.61258 27.42600 25.01929
#
# Velocity S-wave (km/s) = 3.33884 3.67707 3.51203
# Velocity P-wave (km/s) = 5.91092 6.34180 6.13015
#
# Compressibility (1/GPa) = 0.02455732
#
# Stress axis : x y z
#
# Youngs Moduli (GPa) = 71.06174 100.76841 85.27802
#
# Poissons Ratio (x) = 0.47210 -0.08112
# Poissons Ratio (y) = 0.33293 0.15765
# Poissons Ratio (z) = -0.06759 0.18629
#
# Static dielectric constant tensor:
#      x y z
#    x 3.786690 0.000000 0.000000 
#    y 0.000000 3.841280 0.000000 
#    z 0.000000 0.000000 3.428530 
# 
# 
# High freq. dielectric constant tensor:
#      x y z
#    x 1.808620 0.000000 0.000000 
#    y 0.000000 1.792300 0.000000 
#    z 0.000000 0.000000 1.754590 
# 
# From -- ./inp_files/47596.got.cif
#   From: 2010.03.12/outbox.cif.g09.slc.cpg/sg72_24_cif.got.tgz:47596.got - 2010.04.16 14:54:00.
