data_PCOD8294083
_publ_section_title
;
Structure prediction by ZEFSAII (Michael W. Deem and Ramdas Pophale) SiO2 
 PCOD8294083
Probable space group: I B A M
;
_chemical_formula_sum "Si O2"
_cell_formula_units_Z 104
_cell_length_a 18.872056
_cell_length_b 14.148209
_cell_length_c 20.482115
_cell_angle_alpha 90.000000
_cell_angle_beta 90.000000
_cell_angle_gamma 90.000000
_cell_volume 5468.843349
_symmetry_space_group_name_H-M "I B A M"
_symmetry_group_IT_number 72
_symmetry_cell_setting 'orthorhombic'
loop_
_space_group_symop_operation_xyz
x,y,z
-x,-y,z
x,-y,1/2-z
-x,y,1/2-z
-x,-y,-z
x,y,-z
-x,y,1/2+z
x,-y,1/2+z
1/2+x,1/2+y,1/2+z
1/2-x,1/2-y,1/2+z
1/2+x,1/2-y,-z
1/2-x,1/2+y,-z
1/2-x,1/2-y,1/2-z
1/2+x,1/2+y,1/2-z
1/2-x,1/2+y,z
1/2+x,1/2-y,z
loop_
_atom_site_type_symbol
_atom_site_label
_atom_site_fract_x
_atom_site_fract_y
_atom_site_fract_z
Si Si1 0.375170 0.000000 0.250000
Si Si2 0.937571 0.931533 0.861644
Si Si3 0.843353 0.807063 0.772691
Si Si4 0.837988 0.919132 0.574013
Si Si5 0.728605 0.131961 0.179812
Si Si6 0.467443 0.282992 0.072665
Si Si7 0.941771 0.320519 0.198257
O O1 0.330409 0.054254 0.304702
O O2 0.424126 0.069684 0.207505
O O3 0.903885 0.873724 0.802024
O O4 0.971570 0.859886 0.913737
O O5 0.874824 0.988363 0.896177
O O6 0.000000 0.000000 0.834502
O O7 0.783239 0.872042 0.740516
O O8 0.808507 0.735631 0.825835
O O9 0.873860 0.744904 0.712776
O O10 0.815968 0.941817 0.500000
O O11 0.766192 0.893757 0.612159
O O12 0.890897 0.831182 0.577289
O O13 0.470101 0.197703 0.124936
O O14 0.479883 0.241774 0.000000
O O15 0.000000 0.287547 0.250000
#
# Coordination Sequence:
#
# PCOD8294083 Si02
#       7
#     8  16  16  16  16  16  16
#     4  10  23  36  60  80 111 146 188 240 288 314
#     4  10  20  35  57  87 118 145 186 239 296 335
#     4  10  20  35  58  85 112 147 189 239 286 336
#     4  10  20  36  55  81 118 155 185 224 283 349
#     4  10  20  37  55  80 115 149 188 232 278 338
#     4  10  20  36  58  86 120 150 181 232 297 349
#     4  11  20  38  60  86 109 145 195 239 283 340
#
# _framework density 19.016819000000002
#
# number of rings (size 3 to 8) (size 9 to 14) (size 15 to 20)
#    0.000    1.846    3.077    1.615    0.000    1.846 
#    2.769    2.308    0.000    1.846    0.000    0.000 
#    0.000    0.000    0.000    0.000    0.000    0.000 
#
# Total GULP energy -644822.691575 kJ/mol
# GULP energy per Si atom -12400.436376 kJ/mol
# Density = 1.897354 g / cm^3
# Si number density = 19.016819 Si / 1000 Ang^3
#
#
#
# Elastic Constant Matrix: (Units=GPa)
#
#
# Indices 1 2 3 4 5 6 
#
# 1 70.0148 36.7009 39.0233 0.0000 0.0000 0.0000
# 2 36.7009 99.7693 61.1306 0.0000 0.0000 0.0000
# 3 39.0233 61.1306 121.8324 0.0000 0.0000 0.0000
# 4 0.0000 0.0000 0.0000 14.4461 0.0000 0.0000
# 5 0.0000 0.0000 0.0000 0.0000 22.6769 0.0000
# 6 0.0000 0.0000 0.0000 0.0000 0.0000 35.3579
#
#
#
# Elastic Compliance Matrix: (Units=1/GPa)
#
#
# Indices 1 2 3 4 5 6 
#
# 1 0.018771 -0.004651 -0.003679 0.000000 0.000000 0.000000
# 2 -0.004651 0.015625 -0.006350 0.000000 0.000000 0.000000
# 3 -0.003679 -0.006350 0.012573 0.000000 0.000000 0.000000
# 4 0.000000 0.000000 0.000000 0.069223 0.000000 0.000000
# 5 0.000000 0.000000 0.000000 0.000000 0.044098 0.000000
# 6 0.000000 0.000000 0.000000 0.000000 0.000000 0.028282
#
#
# Mechanical properties :
#
#
# Convention : Reuss Voigt Hill
#
# Bulk Modulus (GPa) = 56.79038 62.81403 59.80221
# Shear Modulus (GPa) = 22.34129 24.81363 23.57746
#
# Velocity S-wave (km/s) = 3.43128 3.61616 3.52493
# Velocity P-wave (km/s) = 6.75473 7.10900 6.93413
#
# Compressibility (1/GPa) = 0.01760862
#
# Stress axis : x y z
#
# Youngs Moduli (GPa) = 53.27338 64.00016 79.53806
#
# Poissons Ratio (x) = 0.29767 0.29260
# Poissons Ratio (y) = 0.24778 0.50509
# Poissons Ratio (z) = 0.19598 0.40642
#
# Static dielectric constant tensor:
#      x y z
#    x 3.571530 0.000000 0.000000 
#    y 0.000000 3.448240 0.000000 
#    z 0.000000 0.000000 3.325910 
# 
# 
# High freq. dielectric constant tensor:
#      x y z
#    x 1.743770 0.000000 0.000000 
#    y 0.000000 1.732500 0.000000 
#    z 0.000000 0.000000 1.716890 
# 
# From -- ./inp_files/39066.got.cif
#   From: 2010.03.12/outbox.cif.g09.slc.cpg/sg72_20_cif.got.tgz:39066.got - 2010.04.16 14:54:00.
