data_PCOD8294163
_publ_section_title
;
Structure prediction by ZEFSAII (Michael W. Deem and Ramdas Pophale) SiO2 
 PCOD8294163
Probable space group: I B A M
;
_chemical_formula_sum "Si O2"
_cell_formula_units_Z 80
_cell_length_a 22.626759
_cell_length_b 9.740124
_cell_length_c 20.129841
_cell_angle_alpha 90.000000
_cell_angle_beta 90.000000
_cell_angle_gamma 90.000000
_cell_volume 4436.364093
_symmetry_space_group_name_H-M "I B A M"
_symmetry_group_IT_number 72
_symmetry_cell_setting 'orthorhombic'
loop_
_space_group_symop_operation_xyz
x,y,z
-x,-y,z
x,-y,1/2-z
-x,y,1/2-z
-x,-y,-z
x,y,-z
-x,y,1/2+z
x,-y,1/2+z
1/2+x,1/2+y,1/2+z
1/2-x,1/2-y,1/2+z
1/2+x,1/2-y,-z
1/2-x,1/2+y,-z
1/2-x,1/2-y,1/2-z
1/2+x,1/2+y,1/2-z
1/2-x,1/2+y,z
1/2+x,1/2-y,z
loop_
_atom_site_type_symbol
_atom_site_label
_atom_site_fract_x
_atom_site_fract_y
_atom_site_fract_z
Si Si1 0.561339 0.921152 0.073529
Si Si2 0.749855 0.751323 0.355756
Si Si3 0.335907 0.348829 0.745671
Si Si4 0.190046 0.500749 0.925774
Si Si5 0.439833 0.153182 0.779353
O O1 0.618857 0.019988 0.080818
O O2 0.559971 0.828864 0.140167
O O3 0.500000 0.000000 0.074255
O O4 0.566057 0.845394 0.000000
O O5 0.694332 0.670941 0.325504
O O6 0.785755 0.835952 0.301222
O O7 0.793117 0.638540 0.386651
O O8 0.724115 0.863247 0.405970
O O9 0.364189 0.500000 0.750000
O O10 0.385839 0.236354 0.750895
O O11 0.209742 0.530931 0.000000
O O12 0.500000 0.216962 0.750000
O O13 0.432773 0.000000 0.750000
#
# Coordination Sequence:
#
# PCOD8294163 Si02
#       5
#    16  16  16  16  16
#     4  10  20  36  57  87 119 149 190 243 296 341
#     4  11  22  37  56  87 117 150 197 240 293 351
#     4  11  23  37  57  83 119 156 188 246 299 347
#     4  11  22  38  61  86 118 156 194 238 292 359
#     4  11  21  36  62  91 113 149 203 253 288 345
#
# _framework density 18.032785000000001
#
# number of rings (size 3 to 8) (size 9 to 14) (size 15 to 20)
#    0.000    1.200    6.000    1.800    0.000    0.400 
#    0.000    0.000    0.000    0.000    0.000    1.400 
#    0.000    0.800    0.000    0.000    0.000    0.000 
#
# Total GULP energy -495629.368903 kJ/mol
# GULP energy per Si atom -12390.734223 kJ/mol
# Density = 1.799174 g / cm^3
# Si number density = 18.032785 Si / 1000 Ang^3
#
#
#
# Elastic Constant Matrix: (Units=GPa)
#
#
# Indices 1 2 3 4 5 6 
#
# 1 113.7529 28.6965 30.1635 0.0000 0.0000 0.0000
# 2 28.6965 64.7157 24.2665 0.0000 0.0000 0.0000
# 3 30.1635 24.2665 110.9670 0.0000 0.0000 0.0000
# 4 0.0000 0.0000 0.0000 20.5826 0.0000 0.0000
# 5 0.0000 0.0000 0.0000 0.0000 27.1673 0.0000
# 6 0.0000 0.0000 0.0000 0.0000 0.0000 18.1419
#
#
#
# Elastic Compliance Matrix: (Units=1/GPa)
#
#
# Indices 1 2 3 4 5 6 
#
# 1 0.010274 -0.003822 -0.001957 0.000000 0.000000 0.000000
# 2 -0.003822 0.018254 -0.002953 0.000000 0.000000 0.000000
# 3 -0.001957 -0.002953 0.010189 0.000000 0.000000 0.000000
# 4 0.000000 0.000000 0.000000 0.048585 0.000000 0.000000
# 5 0.000000 0.000000 0.000000 0.000000 0.036809 0.000000
# 6 0.000000 0.000000 0.000000 0.000000 0.000000 0.055121
#
#
# Mechanical properties :
#
#
# Convention : Reuss Voigt Hill
#
# Bulk Modulus (GPa) = 47.05014 50.63207 48.84111
# Shear Modulus (GPa) = 24.53618 26.93231 25.73424
#
# Velocity S-wave (km/s) = 3.69269 3.86880 3.78177
# Velocity P-wave (km/s) = 6.65803 6.93510 6.79798
#
# Compressibility (1/GPa) = 0.02125392
#
# Stress axis : x y z
#
# Youngs Moduli (GPa) = 97.33243 54.78181 98.14126
#
# Poissons Ratio (x) = 0.20937 0.19206
# Poissons Ratio (y) = 0.37200 0.28981
# Poissons Ratio (z) = 0.19047 0.16177
#
# Static dielectric constant tensor:
#      x y z
#    x 3.522900 0.000000 0.000000 
#    y 0.000000 3.009950 0.000000 
#    z 0.000000 0.000000 3.867540 
# 
# 
# High freq. dielectric constant tensor:
#      x y z
#    x 1.715340 0.000000 0.000000 
#    y 0.000000 1.660200 0.000000 
#    z 0.000000 0.000000 1.717030 
# 
# From -- ./inp_files/33797.got.cif
#   From: 2010.03.12/outbox.cif.g09.slc.cpg/sg72_17_cif.got.tgz:33797.got - 2010.04.16 14:54:00.
