data_PCOD8294804
_publ_section_title
;
Structure prediction by ZEFSAII (Michael W. Deem and Ramdas Pophale) SiO2 
 PCOD8294804
Probable space group: I B A M
;
_chemical_formula_sum "Si O2"
_cell_formula_units_Z 112
_cell_length_a 10.238108
_cell_length_b 32.862765
_cell_length_c 15.231560
_cell_angle_alpha 90.000000
_cell_angle_beta 90.000000
_cell_angle_gamma 90.000000
_cell_volume 5124.697008
_symmetry_space_group_name_H-M "I B A M"
_symmetry_group_IT_number 72
_symmetry_cell_setting 'orthorhombic'
loop_
_space_group_symop_operation_xyz
x,y,z
-x,-y,z
x,-y,1/2-z
-x,y,1/2-z
-x,-y,-z
x,y,-z
-x,y,1/2+z
x,-y,1/2+z
1/2+x,1/2+y,1/2+z
1/2-x,1/2-y,1/2+z
1/2+x,1/2-y,-z
1/2-x,1/2+y,-z
1/2-x,1/2-y,1/2-z
1/2+x,1/2+y,1/2-z
1/2-x,1/2+y,z
1/2+x,1/2-y,z
loop_
_atom_site_type_symbol
_atom_site_label
_atom_site_fract_x
_atom_site_fract_y
_atom_site_fract_z
Si Si1 0.139567 0.417497 0.224729
Si Si2 0.723358 0.146164 0.900140
Si Si3 0.051687 0.210261 0.902117
Si Si4 0.765726 0.073963 0.596867
Si Si5 0.995532 0.877273 0.150369
Si Si6 0.850091 0.487806 0.400826
Si Si7 0.278613 0.263238 0.847599
O O1 0.124264 0.377870 0.163068
O O2 0.208127 0.404328 0.316177
O O3 0.203391 0.454112 0.167752
O O4 0.000000 0.434509 0.250000
O O5 0.729858 0.191659 0.865658
O O6 0.862207 0.123808 0.892225
O O7 0.672904 0.145038 0.000000
O O8 0.067581 0.168200 0.848937
O O9 0.190663 0.233157 0.906477
O O10 0.934808 0.239191 0.864794
O O11 0.008739 0.197922 0.000000
O O12 0.703835 0.085327 0.500000
O O13 0.914781 0.089546 0.594357
O O14 0.747539 0.025865 0.610902
O O15 0.000000 0.892789 0.250000
O O16 0.840700 0.470299 0.500000
O O17 0.000000 0.500000 0.381109
O O18 0.250000 0.250000 0.750000
#
# Coordination Sequence:
#
# PCOD8294804 Si02
#       7
#    16  16  16  16  16  16  16
#     4  12  24  39  66  96 132 173 220 264 329 396
#     4  11  24  44  66  92 133 177 218 268 333 397
#     4  11  22  40  66  94 130 170 218 272 331 394
#     4  11  23  39  64  96 127 163 220 274 323 391
#     4  11  21  42  66  94 123 173 216 268 329 391
#     4  10  21  40  65  94 130 171 214 269 331 391
#     4  11  23  41  65  94 129 172 222 272 331 394
#
# _framework density 21.854949999999999
#
# number of rings (size 3 to 8) (size 9 to 14) (size 15 to 20)
#    0.000    1.000    2.857    6.429    0.000    1.714 
#    0.000    0.714    0.000    2.571    0.000    0.000 
#    0.000    0.000    0.000    0.000    0.000    0.000 
#
# Total GULP energy -694062.656079 kJ/mol
# GULP energy per Si atom -12393.976001 kJ/mol
# Density = 2.180521 g / cm^3
# Si number density = 21.854950 Si / 1000 Ang^3
#
#
#
# Elastic Constant Matrix: (Units=GPa)
#
#
# Indices 1 2 3 4 5 6 
#
# 1 68.5489 35.8396 12.2835 0.0008 0.0001 0.0000
# 2 35.8396 88.1268 37.3714 0.0004 0.0000 0.0000
# 3 12.2835 37.3714 178.4018 0.0038 -0.0001 0.0000
# 4 0.0008 0.0004 0.0038 21.6525 0.0000 0.0000
# 5 0.0001 0.0000 -0.0001 0.0000 30.1659 0.0002
# 6 0.0000 0.0000 0.0000 0.0000 0.0002 38.7834
#
#
#
# Elastic Compliance Matrix: (Units=1/GPa)
#
#
# Indices 1 2 3 4 5 6 
#
# 1 0.018546 -0.007683 0.000333 -0.000001 0.000000 0.000000
# 2 -0.007683 0.015637 -0.002747 0.000000 0.000000 0.000000
# 3 0.000333 -0.002747 0.006158 -0.000001 0.000000 0.000000
# 4 -0.000001 0.000000 -0.000001 0.046184 0.000000 0.000000
# 5 0.000000 0.000000 0.000000 0.000000 0.033150 0.000000
# 6 0.000000 0.000000 0.000000 0.000000 0.000000 0.025784
#
#
# Mechanical properties :
#
#
# Convention : Reuss Voigt Hill
#
# Bulk Modulus (GPa) = 49.63860 56.22962 52.93411
# Shear Modulus (GPa) = 29.00776 34.75922 31.88349
#
# Velocity S-wave (km/s) = 3.64715 3.99237 3.82366
# Velocity P-wave (km/s) = 6.36377 6.85831 6.61567
#
# Compressibility (1/GPa) = 0.02014561
#
# Stress axis : x y z
#
# Youngs Moduli (GPa) = 53.92133 63.95260 162.39656
#
# Poissons Ratio (x) = 0.49136 -0.05400
# Poissons Ratio (y) = 0.41429 0.44603
# Poissons Ratio (z) = -0.01793 0.17565
#
# Static dielectric constant tensor:
#      x y z
#    x 4.116890 0.000000 0.000000 
#    y 0.000000 3.888160 0.000000 
#    z 0.000000 0.000000 4.512080 
# 
# 
# High freq. dielectric constant tensor:
#      x y z
#    x 1.833110 0.000000 0.000000 
#    y 0.000000 1.848120 0.000000 
#    z 0.000000 0.000000 1.889020 
# 
# From -- ./inp_files/20708.got.cif
#   From: 2010.03.12/outbox.cif.g09.slc.cpg/sg72_11_cif.got.tgz:20708.got - 2010.04.16 14:54:00.
