data_PCOD8294808
_publ_section_title
;
Structure prediction by ZEFSAII (Michael W. Deem and Ramdas Pophale) SiO2 
 PCOD8294808
Probable space group: I B A M
;
_chemical_formula_sum "Si O2"
_cell_formula_units_Z 116
_cell_length_a 12.591918
_cell_length_b 24.748562
_cell_length_c 18.298966
_cell_angle_alpha 90.000000
_cell_angle_beta 90.000000
_cell_angle_gamma 90.000000
_cell_volume 5702.540871
_symmetry_space_group_name_H-M "I B A M"
_symmetry_group_IT_number 72
_symmetry_cell_setting 'orthorhombic'
loop_
_space_group_symop_operation_xyz
x,y,z
-x,-y,z
x,-y,1/2-z
-x,y,1/2-z
-x,-y,-z
x,y,-z
-x,y,1/2+z
x,-y,1/2+z
1/2+x,1/2+y,1/2+z
1/2-x,1/2-y,1/2+z
1/2+x,1/2-y,-z
1/2-x,1/2+y,-z
1/2-x,1/2-y,1/2-z
1/2+x,1/2+y,1/2-z
1/2-x,1/2+y,z
1/2+x,1/2-y,z
loop_
_atom_site_type_symbol
_atom_site_label
_atom_site_fract_x
_atom_site_fract_y
_atom_site_fract_z
Si Si1 0.972876 0.388845 0.917268
Si Si2 0.365332 0.781776 0.417400
Si Si3 0.341604 0.584455 0.699796
Si Si4 0.696265 0.054485 0.085008
Si Si5 0.041409 0.191653 0.677798
Si Si6 0.843863 0.848266 0.915021
Si Si7 0.000000 0.000000 0.250000
Si Si8 0.779131 0.438476 0.155231
O O1 0.965101 0.323625 0.910440
O O2 0.894105 0.412794 0.857463
O O3 0.088242 0.412642 0.901611
O O4 0.936556 0.405377 0.000000
O O5 0.357713 0.760272 0.500000
O O6 0.380598 0.730928 0.365364
O O7 0.255652 0.810331 0.394511
O O8 0.289212 0.590853 0.619437
O O9 0.394807 0.641912 0.714383
O O10 0.429143 0.537106 0.697205
O O11 0.252938 0.569079 0.760317
O O12 0.705482 0.000110 0.131948
O O13 0.715374 0.042926 0.000000
O O14 0.000000 0.223175 0.750000
O O15 0.948212 0.171494 0.625588
O O16 0.812834 0.909415 0.892502
O O17 0.869760 0.846722 0.000000
#
# Coordination Sequence:
#
# PCOD8294808 Si02
#       8
#    16  16  16  16  16  16   4  16
#     4   9  20  40  65  95 132 167 208 264 324 384
#     4   9  21  42  65  91 128 171 216 272 330 379
#     4  12  25  41  64  88 128 168 209 263 323 373
#     4  11  23  39  64  99 130 165 213 268 321 386
#     4  12  24  41  62  94 126 169 217 266 320 379
#     4  10  21  40  66  92 122 170 221 263 319 394
#     4  12  20  48  62  74 120 176 198 252 326 366
#     4  11  19  40  64  94 127 171 209 259 320 391
#
# _framework density 20.341808
#
# number of rings (size 3 to 8) (size 9 to 14) (size 15 to 20)
#    0.000    1.379    3.448    2.897    0.000    4.414 
#    4.966    4.483    0.000    0.000    0.000    0.000 
#    0.000    0.000    0.000    0.000    0.000    0.000 
#
# Total GULP energy -719014.232393 kJ/mol
# GULP energy per Si atom -12396.797110 kJ/mol
# Density = 2.029551 g / cm^3
# Si number density = 20.341808 Si / 1000 Ang^3
#
#
#
# Elastic Constant Matrix: (Units=GPa)
#
#
# Indices 1 2 3 4 5 6 
#
# 1 84.5508 23.9110 46.4219 0.0000 0.0000 0.0000
# 2 23.9110 78.4483 34.0798 -0.0001 0.0000 0.0000
# 3 46.4219 34.0798 96.5527 -0.0001 0.0000 0.0000
# 4 0.0000 -0.0001 -0.0001 35.3634 0.0000 0.0000
# 5 0.0000 0.0000 0.0000 0.0000 35.0588 0.0000
# 6 0.0000 0.0000 0.0000 0.0000 0.0000 22.6833
#
#
#
# Elastic Compliance Matrix: (Units=1/GPa)
#
#
# Indices 1 2 3 4 5 6 
#
# 1 0.016292 -0.001846 -0.007182 0.000000 0.000000 0.000000
# 2 -0.001846 0.015265 -0.004500 0.000000 0.000000 0.000000
# 3 -0.007182 -0.004500 0.015398 0.000000 0.000000 0.000000
# 4 0.000000 0.000000 0.000000 0.028278 0.000000 0.000000
# 5 0.000000 0.000000 0.000000 0.000000 0.028524 0.000000
# 6 0.000000 0.000000 0.000000 0.000000 0.000000 0.044085
#
#
# Mechanical properties :
#
#
# Convention : Reuss Voigt Hill
#
# Bulk Modulus (GPa) = 50.25254 52.04189 51.14721
# Shear Modulus (GPa) = 27.54338 28.96370 28.25354
#
# Velocity S-wave (km/s) = 3.68370 3.77749 3.73089
# Velocity P-wave (km/s) = 6.54604 6.68320 6.61497
#
# Compressibility (1/GPa) = 0.01989949
#
# Stress axis : x y z
#
# Youngs Moduli (GPa) = 61.37873 65.50920 64.94162
#
# Poissons Ratio (x) = 0.12093 0.46639
# Poissons Ratio (y) = 0.11331 0.29227
# Poissons Ratio (z) = 0.44080 0.29482
#
# Static dielectric constant tensor:
#      x y z
#    x 3.738130 0.000000 0.000000 
#    y 0.000000 3.736920 0.000000 
#    z 0.000000 0.000000 3.805930 
# 
# 
# High freq. dielectric constant tensor:
#      x y z
#    x 1.793910 0.000000 0.000000 
#    y 0.000000 1.793190 0.000000 
#    z 0.000000 0.000000 1.799250 
# 
# From -- ./inp_files/29719.got.cif
#   From: 2010.03.12/outbox.cif.g09.slc.cpg/sg72_15_cif.got.tgz:29719.got - 2010.04.16 14:54:00.
