data_PCOD8294615
_publ_section_title
;
Structure prediction by ZEFSAII (Michael W. Deem and Ramdas Pophale) SiO2 
 PCOD8294615
Probable space group: I B A M
;
_chemical_formula_sum "Si O2"
_cell_formula_units_Z 96
_cell_length_a 17.616612
_cell_length_b 19.591275
_cell_length_c 14.156279
_cell_angle_alpha 90.000000
_cell_angle_beta 90.000000
_cell_angle_gamma 90.000000
_cell_volume 4885.783330
_symmetry_space_group_name_H-M "I B A M"
_symmetry_group_IT_number 72
_symmetry_cell_setting 'orthorhombic'
loop_
_space_group_symop_operation_xyz
x,y,z
-x,-y,z
x,-y,1/2-z
-x,y,1/2-z
-x,-y,-z
x,y,-z
-x,y,1/2+z
x,-y,1/2+z
1/2+x,1/2+y,1/2+z
1/2-x,1/2-y,1/2+z
1/2+x,1/2-y,-z
1/2-x,1/2+y,-z
1/2-x,1/2-y,1/2-z
1/2+x,1/2+y,1/2-z
1/2-x,1/2+y,z
1/2+x,1/2-y,z
loop_
_atom_site_type_symbol
_atom_site_label
_atom_site_fract_x
_atom_site_fract_y
_atom_site_fract_z
Si Si1 0.366469 0.984087 0.500000
Si Si2 0.883476 0.057665 0.500000
Si Si3 0.075702 0.072966 0.794371
Si Si4 0.243861 0.356977 0.500000
Si Si5 0.176015 0.691110 0.815230
Si Si6 0.690448 0.660485 0.812799
Si Si7 0.222254 0.925224 0.000000
Si Si8 0.579130 0.941777 0.193119
O O1 0.306187 0.924187 0.500000
O O2 0.423218 0.975440 0.411175
O O3 0.312226 0.052473 0.500000
O O4 0.935478 0.063222 0.593187
O O5 0.831716 0.124586 0.500000
O O6 0.832702 0.990063 0.500000
O O7 0.149326 0.116586 0.768012
O O8 0.000000 0.106970 0.750000
O O9 0.089311 0.000000 0.750000
O O10 0.227932 0.313274 0.592440
O O11 0.225387 0.679544 0.721578
O O12 0.142952 0.768275 0.821085
O O13 0.110621 0.634468 0.812108
O O14 0.700158 0.619764 0.909586
O O15 0.500000 0.936639 0.250000
O O16 0.628572 0.000000 0.250000
#
# Coordination Sequence:
#
# PCOD8294615 Si02
#       8
#     8   8  16   8  16  16   8  16
#     4   9  20  35  57  90 115 153 202 251 308 356
#     4  11  20  38  63  88 118 159 199 257 309 356
#     4  11  24  39  60  87 123 164 204 254 306 374
#     4   9  17  34  60  84 114 152 195 250 307 359
#     4  10  21  37  60  88 122 157 203 258 304 374
#     4  11  22  37  58  89 121 161 206 254 312 363
#     4  11  21  35  63  91 122 157 208 263 302 369
#     4  10  21  37  60  87 119 160 200 251 309 369
#
# _framework density 19.648845000000001
#
# number of rings (size 3 to 8) (size 9 to 14) (size 15 to 20)
#    0.000    1.667    3.333    1.500    0.000    4.667 
#    0.000    0.833    0.000    2.000    0.000    0.000 
#    0.000    0.000    0.000    0.000    0.000    0.000 
#
# Total GULP energy -594651.936247 kJ/mol
# GULP energy per Si atom -12388.582005 kJ/mol
# Density = 1.960412 g / cm^3
# Si number density = 19.648845 Si / 1000 Ang^3
#
#
#
# Elastic Constant Matrix: (Units=GPa)
#
#
# Indices 1 2 3 4 5 6 
#
# 1 71.7651 31.2369 42.0637 0.0000 0.0000 0.0000
# 2 31.2369 106.5258 48.3788 0.0000 0.0000 0.0000
# 3 42.0637 48.3788 174.4430 0.0000 0.0000 0.0000
# 4 0.0000 0.0000 0.0000 6.4583 0.0000 0.0000
# 5 0.0000 0.0000 0.0000 0.0000 30.9908 0.0000
# 6 0.0000 0.0000 0.0000 0.0000 0.0000 21.4727
#
#
#
# Elastic Compliance Matrix: (Units=1/GPa)
#
#
# Indices 1 2 3 4 5 6 
#
# 1 0.017389 -0.003655 -0.003179 0.000000 0.000000 0.000000
# 2 -0.003655 0.011508 -0.002310 0.000000 0.000000 0.000000
# 3 -0.003179 -0.002310 0.007140 0.000000 0.000000 0.000000
# 4 0.000000 0.000000 0.000000 0.154838 0.000000 0.000000
# 5 0.000000 0.000000 0.000000 0.000000 0.032268 0.000000
# 6 0.000000 0.000000 0.000000 0.000000 0.000000 0.046571
#
#
# Mechanical properties :
#
#
# Convention : Reuss Voigt Hill
#
# Bulk Modulus (GPa) = 56.34537 66.23253 61.28895
# Shear Modulus (GPa) = 17.01147 27.18800 22.09974
#
# Velocity S-wave (km/s) = 2.94560 3.72384 3.35734
# Velocity P-wave (km/s) = 6.34879 7.22984 6.80359
#
# Compressibility (1/GPa) = 0.01774769
#
# Stress axis : x y z
#
# Youngs Moduli (GPa) = 57.50840 86.89299 140.05825
#
# Poissons Ratio (x) = 0.31760 0.44529
# Poissons Ratio (y) = 0.21020 0.32358
# Poissons Ratio (z) = 0.18284 0.20075
#
# Static dielectric constant tensor:
#      x y z
#    x 3.366530 0.000000 0.000000 
#    y 0.000000 3.897410 0.000000 
#    z 0.000000 0.000000 4.093730 
# 
# 
# High freq. dielectric constant tensor:
#      x y z
#    x 1.735500 0.000000 0.000000 
#    y 0.000000 1.771250 0.000000 
#    z 0.000000 0.000000 1.786370 
# 
# From -- ./inp_files/14819.got.cif
#   From: 2010.03.12/outbox.cif.g09.slc.cpg/sg72_8_cif.got.tgz:14819.got - 2010.04.16 14:54:00.
