data_PCOD8294914
_publ_section_title
;
Structure prediction by ZEFSAII (Michael W. Deem and Ramdas Pophale) SiO2 
 PCOD8294914
Probable space group: I B A M
;
_chemical_formula_sum "Si O2"
_cell_formula_units_Z 80
_cell_length_a 25.806778
_cell_length_b 10.849109
_cell_length_c 14.179026
_cell_angle_alpha 90.000000
_cell_angle_beta 90.000000
_cell_angle_gamma 90.000000
_cell_volume 3969.851462
_symmetry_space_group_name_H-M "I B A M"
_symmetry_group_IT_number 72
_symmetry_cell_setting 'orthorhombic'
loop_
_space_group_symop_operation_xyz
x,y,z
-x,-y,z
x,-y,1/2-z
-x,y,1/2-z
-x,-y,-z
x,y,-z
-x,y,1/2+z
x,-y,1/2+z
1/2+x,1/2+y,1/2+z
1/2-x,1/2-y,1/2+z
1/2+x,1/2-y,-z
1/2-x,1/2+y,-z
1/2-x,1/2-y,1/2-z
1/2+x,1/2+y,1/2-z
1/2-x,1/2+y,z
1/2+x,1/2-y,z
loop_
_atom_site_type_symbol
_atom_site_label
_atom_site_fract_x
_atom_site_fract_y
_atom_site_fract_z
Si Si1 0.066390 0.382459 0.000000
Si Si2 0.942028 0.984839 0.889996
Si Si3 0.451125 0.833723 0.500000
Si Si4 0.620344 0.294602 0.351755
Si Si5 0.123429 0.238420 0.143202
Si Si6 0.795058 0.855119 0.000000
Si Si7 0.794288 0.850760 0.500000
O O1 0.050935 0.521591 0.000000
O O2 0.104140 0.360840 0.909945
O O3 0.012816 0.299707 0.000000
O O4 0.926738 0.846258 0.869826
O O5 0.905621 0.074222 0.828774
O O6 0.934920 0.022941 0.000000
O O7 0.000000 0.000000 0.855279
O O8 0.422271 0.785516 0.406894
O O9 0.635508 0.231190 0.252246
O O10 0.673058 0.318644 0.407541
O O11 0.171800 0.169728 0.094216
O O12 0.751318 0.749788 0.000000
O O13 0.777358 0.001795 0.000000
#
# Coordination Sequence:
#
# PCOD8294914 Si02
#       7
#     8  16   8  16  16   8   8
#     4  10  22  39  57  85 130 174 206 242 295 368
#     4  11  19  33  61  96 129 159 192 241 307 370
#     4  10  22  39  57  85 130 174 206 242 295 368
#     4  11  22  39  63  90 121 157 204 256 309 371
#     4  11  22  39  63  90 121 157 204 256 309 371
#     4  11  24  44  65  89 122 164 211 271 332 384
#     4  11  24  44  65  89 122 164 211 271 332 384
#
# _framework density 20.151888
#
# number of rings (size 3 to 8) (size 9 to 14) (size 15 to 20)
#    0.000    1.200    6.000    1.800    0.000    8.800 
#    0.000    2.000    0.000    0.000    0.000    0.000 
#    0.000    0.000    0.000    0.000    0.000    0.000 
#
# Total GULP energy -495729.977096 kJ/mol
# GULP energy per Si atom -12393.249427 kJ/mol
# Density = 2.010602 g / cm^3
# Si number density = 20.151888 Si / 1000 Ang^3
#
#
#
# Elastic Constant Matrix: (Units=GPa)
#
#
# Indices 1 2 3 4 5 6 
#
# 1 97.8717 43.2569 39.4595 0.0000 0.0000 0.0000
# 2 43.2569 83.4240 26.4714 0.0000 0.0000 0.0000
# 3 39.4595 26.4714 152.7983 0.0000 0.0000 0.0000
# 4 0.0000 0.0000 0.0000 11.6692 0.0000 0.0000
# 5 0.0000 0.0000 0.0000 0.0000 -5.4957 0.0000
# 6 0.0000 0.0000 0.0000 0.0000 0.0000 31.9214
#
#
#
# Elastic Compliance Matrix: (Units=1/GPa)
#
#
# Indices 1 2 3 4 5 6 
#
# 1 0.014113 -0.006520 -0.002515 0.000000 0.000000 0.000000
# 2 -0.006520 0.015696 -0.001036 0.000000 0.000000 0.000000
# 3 -0.002515 -0.001036 0.007374 0.000000 0.000000 0.000000
# 4 0.000000 0.000000 0.000000 0.085696 0.000000 0.000000
# 5 0.000000 0.000000 0.000000 0.000000 -0.181961 0.000000
# 6 0.000000 0.000000 0.000000 0.000000 0.000000 0.031327
#
#
# Mechanical properties :
#
#
# Convention : Reuss Voigt Hill
#
# Bulk Modulus (GPa) = 58.67932 61.38552 60.03242
# Shear Modulus (GPa) = -2585.69954 22.61274 -1281.54340
#
# Velocity S-wave (km/s) = -35.85932 3.35343 -25.24525
# Velocity P-wave (km/s) = 41.05289 6.74697 28.63405
#
# Compressibility (1/GPa) = 0.01704178
#
# Stress axis : x y z
#
# Youngs Moduli (GPa) = 70.85613 63.70968 135.62079
#
# Poissons Ratio (x) = 0.41538 0.34110
# Poissons Ratio (y) = 0.46197 0.14044
# Poissons Ratio (z) = 0.17821 0.06597
#
# Static dielectric constant tensor:
#      x y z
#    x 3.677760 0.000000 0.000000 
#    y 0.000000 3.645000 0.000000 
#    z 0.000000 0.000000 3.850780 
# 
# 
# High freq. dielectric constant tensor:
#      x y z
#    x 1.779840 0.000000 0.000000 
#    y 0.000000 1.781800 0.000000 
#    z 0.000000 0.000000 1.787700 
# 
# From -- ./inp_files/24972.got.cif
#   From: 2010.03.12/outbox.cif.g09.slc.cpg/sg72_13_cif.got.tgz:24972.got - 2010.04.16 14:54:00.
