data_PCOD8294934
_publ_section_title
;
Structure prediction by ZEFSAII (Michael W. Deem and Ramdas Pophale) SiO2 
 PCOD8294934
Probable space group: I B A M
;
_chemical_formula_sum "Si O2"
_cell_formula_units_Z 52
_cell_length_a 10.116429
_cell_length_b 9.903069
_cell_length_c 24.513566
_cell_angle_alpha 90.000000
_cell_angle_beta 90.000000
_cell_angle_gamma 90.000000
_cell_volume 2455.859605
_symmetry_space_group_name_H-M "I B A M"
_symmetry_group_IT_number 72
_symmetry_cell_setting 'orthorhombic'
loop_
_space_group_symop_operation_xyz
x,y,z
-x,-y,z
x,-y,1/2-z
-x,y,1/2-z
-x,-y,-z
x,y,-z
-x,y,1/2+z
x,-y,1/2+z
1/2+x,1/2+y,1/2+z
1/2-x,1/2-y,1/2+z
1/2+x,1/2-y,-z
1/2-x,1/2+y,-z
1/2-x,1/2-y,1/2-z
1/2+x,1/2+y,1/2-z
1/2-x,1/2+y,z
1/2+x,1/2-y,z
loop_
_atom_site_type_symbol
_atom_site_label
_atom_site_fract_x
_atom_site_fract_y
_atom_site_fract_z
Si Si1 0.748731 0.952234 0.305967
Si Si2 0.744921 0.714267 0.377013
Si Si3 0.991663 0.843039 0.562929
Si Si4 0.500000 0.500000 0.250000
O O1 0.690552 0.813067 0.329088
O O2 0.674456 0.000000 0.250000
O O3 0.735633 0.065950 0.352371
O O4 0.902501 0.916771 0.290311
O O5 0.881053 0.769650 0.401247
O O6 0.635328 0.718038 0.424223
O O7 0.957950 0.817826 0.500000
O O8 0.000000 0.000000 0.577724
#
# Coordination Sequence:
#
# PCOD8294934 Si02
#       4
#    16  16  16   4
#     4  10  22  39  65 100 136 175 221 275 324 408
#     4  12  22  46  70 104 130 186 224 280 344 400
#     4  11  25  46  71  99 138 181 228 284 346 404
#     4   8  20  40  64  92 138 188 208 264 332 404
#
# _framework density 21.173846999999999
#
# number of rings (size 3 to 8) (size 9 to 14) (size 15 to 20)
#    0.923    0.308    3.077    3.692    0.000    1.231 
#    0.000    3.077    0.000    0.000    0.000    0.000 
#    0.000    0.000    0.000    0.000    0.000    0.000 
#
# Total GULP energy -322186.813694 kJ/mol
# GULP energy per Si atom -12391.800527 kJ/mol
# Density = 2.112565 g / cm^3
# Si number density = 21.173847 Si / 1000 Ang^3
#
#
#
# Elastic Constant Matrix: (Units=GPa)
#
#
# Indices 1 2 3 4 5 6 
#
# 1 82.4447 21.2451 28.2425 0.0000 0.0000 0.0000
# 2 21.2451 70.0659 14.9654 0.0000 0.0000 0.0000
# 3 28.2425 14.9654 82.9536 0.0000 0.0000 0.0000
# 4 0.0000 0.0000 0.0000 27.6201 0.0000 0.0000
# 5 0.0000 0.0000 0.0000 0.0000 27.1645 0.0000
# 6 0.0000 0.0000 0.0000 0.0000 0.0000 23.0102
#
#
#
# Elastic Compliance Matrix: (Units=1/GPa)
#
#
# Indices 1 2 3 4 5 6 
#
# 1 0.014502 -0.003477 -0.004310 0.000000 0.000000 0.000000
# 2 -0.003477 0.015678 -0.001645 0.000000 0.000000 0.000000
# 3 -0.004310 -0.001645 0.013819 0.000000 0.000000 0.000000
# 4 0.000000 0.000000 0.000000 0.036205 0.000000 0.000000
# 5 0.000000 0.000000 0.000000 0.000000 0.036813 0.000000
# 6 0.000000 0.000000 0.000000 0.000000 0.000000 0.043459
#
#
# Mechanical properties :
#
#
# Convention : Reuss Voigt Hill
#
# Bulk Modulus (GPa) = 39.78397 40.48559 40.13478
# Shear Modulus (GPa) = 26.63584 26.95971 26.79778
#
# Velocity S-wave (km/s) = 3.55062 3.57214 3.56140
# Velocity P-wave (km/s) = 5.96986 6.01462 5.99228
#
# Compressibility (1/GPa) = 0.02513575
#
# Stress axis : x y z
#
# Youngs Moduli (GPa) = 68.95745 63.78471 72.36383
#
# Poissons Ratio (x) = 0.22175 0.31189
# Poissons Ratio (y) = 0.23974 0.11902
# Poissons Ratio (z) = 0.29721 0.10491
#
# Static dielectric constant tensor:
#      x y z
#    x 3.584850 0.000000 0.000000 
#    y 0.000000 3.683440 0.000000 
#    z 0.000000 0.000000 3.940020 
# 
# 
# High freq. dielectric constant tensor:
#      x y z
#    x 1.813830 0.000000 0.000000 
#    y 0.000000 1.819840 0.000000 
#    z 0.000000 0.000000 1.848900 
# 
# From -- ./inp_files/46828.got.cif
#   From: 2010.03.12/outbox.cif.g09.slc.cpg/sg72_24_cif.got.tgz:46828.got - 2010.04.16 14:54:00.
