data_PCOD8294809
_publ_section_title
;
Structure prediction by ZEFSAII (Michael W. Deem and Ramdas Pophale) SiO2 
 PCOD8294809
Probable space group: I B A M
;
_chemical_formula_sum "Si O2"
_cell_formula_units_Z 96
_cell_length_a 18.132474
_cell_length_b 14.680450
_cell_length_c 14.681829
_cell_angle_alpha 90.000000
_cell_angle_beta 90.000000
_cell_angle_gamma 90.000000
_cell_volume 3908.198315
_symmetry_space_group_name_H-M "I B A M"
_symmetry_group_IT_number 72
_symmetry_cell_setting 'orthorhombic'
loop_
_space_group_symop_operation_xyz
x,y,z
-x,-y,z
x,-y,1/2-z
-x,y,1/2-z
-x,-y,-z
x,y,-z
-x,y,1/2+z
x,-y,1/2+z
1/2+x,1/2+y,1/2+z
1/2-x,1/2-y,1/2+z
1/2+x,1/2-y,-z
1/2-x,1/2+y,-z
1/2-x,1/2-y,1/2-z
1/2+x,1/2+y,1/2-z
1/2-x,1/2+y,z
1/2+x,1/2-y,z
loop_
_atom_site_type_symbol
_atom_site_label
_atom_site_fract_x
_atom_site_fract_y
_atom_site_fract_z
Si Si1 0.839377 0.397008 0.852809
Si Si2 0.112199 0.902536 0.269245
Si Si3 0.484236 0.363093 0.894928
Si Si4 0.293431 0.712233 0.097590
Si Si5 0.998941 0.345698 0.602096
Si Si6 0.658033 0.903241 0.351303
O O1 0.792018 0.319705 0.904116
O O2 0.924764 0.369985 0.850456
O O3 0.826382 0.497757 0.897051
O O4 0.811109 0.401970 0.750111
O O5 0.087588 0.862940 0.170721
O O6 0.167946 0.831524 0.314687
O O7 0.046130 0.923035 0.342270
O O8 0.150728 0.000000 0.250000
O O9 0.516347 0.261760 0.896521
O O10 0.468626 0.396379 0.000000
O O11 0.299655 0.821978 0.097003
O O12 0.328021 0.680329 0.000000
O O13 0.002074 0.383281 0.500000
O O14 0.930477 0.391428 0.652547
#
# Coordination Sequence:
#
# PCOD8294809 Si02
#       6
#    16  16  16  16  16  16
#     4  11  26  44  71 105 142 185 240 301 359 438
#     4  11  24  40  69  98 140 187 242 301 354 434
#     4  10  21  40  67 104 140 184 240 298 363 424
#     4  12  26  47  73 103 147 193 239 298 372 446
#     4  11  22  40  68 104 141 177 233 296 353 425
#     4  11  24  45  74 101 139 191 236 295 369 434
#
# _framework density 24.563748
#
# number of rings (size 3 to 8) (size 9 to 14) (size 15 to 20)
#    0.000    1.000    1.667    5.000    4.667    6.667 
#    0.000    0.000    0.000    0.000    0.000    0.000 
#    0.000    0.000    0.000    0.000    0.000    0.000 
#
# Total GULP energy -594925.013134 kJ/mol
# GULP energy per Si atom -12394.271107 kJ/mol
# Density = 2.450784 g / cm^3
# Si number density = 24.563748 Si / 1000 Ang^3
#
#
#
# Elastic Constant Matrix: (Units=GPa)
#
#
# Indices 1 2 3 4 5 6 
#
# 1 100.2232 52.4818 18.5706 0.0000 0.0000 0.0000
# 2 52.4818 119.9331 15.9765 0.0000 0.0000 0.0000
# 3 18.5706 15.9765 151.0295 0.0000 0.0000 0.0000
# 4 0.0000 0.0000 0.0000 -6.2761 0.0000 0.0000
# 5 0.0000 0.0000 0.0000 0.0000 25.6991 0.0000
# 6 0.0000 0.0000 0.0000 0.0000 0.0000 21.9969
#
#
#
# Elastic Compliance Matrix: (Units=1/GPa)
#
#
# Indices 1 2 3 4 5 6 
#
# 1 0.013096 -0.005595 -0.001018 0.000000 0.000000 0.000000
# 2 -0.005595 0.010848 -0.000460 0.000000 0.000000 0.000000
# 3 -0.001018 -0.000460 0.006795 0.000000 0.000000 0.000000
# 4 0.000000 0.000000 0.000000 -0.159335 0.000000 0.000000
# 5 0.000000 0.000000 0.000000 0.000000 0.038912 0.000000
# 6 0.000000 0.000000 0.000000 0.000000 0.000000 0.045461
#
#
# Mechanical properties :
#
#
# Convention : Reuss Voigt Hill
#
# Bulk Modulus (GPa) = 60.26743 60.58261 60.42502
# Shear Modulus (GPa) = -203.69510 27.22779 -88.23365
#
# Velocity S-wave (km/s) = -9.11620 3.33296 -5.99985
# Velocity P-wave (km/s) = 9.28539 6.28716 4.83167
#
# Compressibility (1/GPa) = 0.01659271
#
# Stress axis : x y z
#
# Youngs Moduli (GPa) = 76.35709 92.18621 147.16576
#
# Poissons Ratio (x) = 0.51580 0.14988
# Poissons Ratio (y) = 0.42723 0.06763
# Poissons Ratio (z) = 0.07777 0.04236
#
# Static dielectric constant tensor:
#      x y z
#    x 4.105390 0.000000 0.000000 
#    y 0.000000 4.534230 0.000000 
#    z 0.000000 0.000000 4.565940 
# 
# 
# High freq. dielectric constant tensor:
#      x y z
#    x 1.956430 0.000000 0.000000 
#    y 0.000000 1.981250 0.000000 
#    z 0.000000 0.000000 1.984000 
# 
# From -- ./inp_files/24111.got.cif
#   From: 2010.03.12/outbox.cif.g09.slc.cpg/sg72_13_cif.got.tgz:24111.got - 2010.04.16 14:54:00.
