data_PCOD8294334
_publ_section_title
;
Structure prediction by ZEFSAII (Michael W. Deem and Ramdas Pophale) SiO2 
 PCOD8294334
Probable space group: I B A M
;
_chemical_formula_sum "Si O2"
_cell_formula_units_Z 104
_cell_length_a 25.820995
_cell_length_b 8.752803
_cell_length_c 22.894330
_cell_angle_alpha 90.000000
_cell_angle_beta 90.000000
_cell_angle_gamma 90.000000
_cell_volume 5174.257835
_symmetry_space_group_name_H-M "I B A M"
_symmetry_group_IT_number 72
_symmetry_cell_setting 'orthorhombic'
loop_
_space_group_symop_operation_xyz
x,y,z
-x,-y,z
x,-y,1/2-z
-x,y,1/2-z
-x,-y,-z
x,y,-z
-x,y,1/2+z
x,-y,1/2+z
1/2+x,1/2+y,1/2+z
1/2-x,1/2-y,1/2+z
1/2+x,1/2-y,-z
1/2-x,1/2+y,-z
1/2-x,1/2-y,1/2-z
1/2+x,1/2+y,1/2-z
1/2-x,1/2+y,z
1/2+x,1/2-y,z
loop_
_atom_site_type_symbol
_atom_site_label
_atom_site_fract_x
_atom_site_fract_y
_atom_site_fract_z
Si Si1 0.064529 0.327470 0.148054
Si Si2 0.315956 0.120609 0.840651
Si Si3 0.274199 0.432052 0.814206
Si Si4 0.885269 0.975639 0.180459
Si Si5 0.531412 0.646912 0.891998
Si Si6 0.104331 0.500000 0.250000
Si Si7 0.101728 0.400479 0.433867
O O1 0.106208 0.191766 0.153548
O O2 0.065114 0.403589 0.211190
O O3 0.078521 0.448262 0.097248
O O4 0.007886 0.260557 0.139636
O O5 0.276768 0.249791 0.817535
O O6 0.359350 0.102984 0.790949
O O7 0.345332 0.150967 0.901659
O O8 0.277787 0.976255 0.849726
O O9 0.267654 0.500000 0.750000
O O10 0.328095 0.486506 0.843203
O O11 0.887447 0.000000 0.250000
O O12 0.928337 0.090501 0.156243
O O13 0.500000 0.500000 0.920060
O O14 0.562213 0.755287 0.937128
O O15 0.114765 0.446638 0.500000
#
# Coordination Sequence:
#
# PCOD8294334 Si02
#       7
#    16  16  16  16  16   8  16
#     4  10  23  37  65  93 127 169 210 253 324 383
#     4  11  23  38  63  95 124 170 204 255 321 376
#     4  11  21  35  66  94 130 162 199 254 313 384
#     4  10  21  39  61  95 137 167 201 253 315 390
#     4  10  22  43  63  94 122 170 214 260 321 380
#     4  10  20  38  57  96 136 158 207 248 318 386
#     4  11  25  47  64  87 127 165 218 278 312 370
#
# _framework density 20.099502000000001
#
# number of rings (size 3 to 8) (size 9 to 14) (size 15 to 20)
#    0.000    1.538    2.308    2.769    6.462    4.308 
#    2.769    3.077    0.000    0.000    0.000    0.000 
#    0.000    0.000    0.000    0.000    0.000    0.000 
#
# Total GULP energy -644361.289731 kJ/mol
# GULP energy per Si atom -12391.563264 kJ/mol
# Density = 2.005375 g / cm^3
# Si number density = 20.099502 Si / 1000 Ang^3
#
#
#
# Elastic Constant Matrix: (Units=GPa)
#
#
# Indices 1 2 3 4 5 6 
#
# 1 98.7035 39.0960 38.9924 0.0000 0.0000 0.0000
# 2 39.0960 114.3082 44.3024 0.0000 0.0000 0.0000
# 3 38.9924 44.3024 110.2710 0.0000 0.0000 0.0000
# 4 0.0000 0.0000 0.0000 15.9157 0.0000 0.0000
# 5 0.0000 0.0000 0.0000 0.0000 5.7536 0.0000
# 6 0.0000 0.0000 0.0000 0.0000 0.0000 38.3284
#
#
#
# Elastic Compliance Matrix: (Units=1/GPa)
#
#
# Indices 1 2 3 4 5 6 
#
# 1 0.012622 -0.003064 -0.003232 0.000000 0.000000 0.000000
# 2 -0.003064 0.011106 -0.003378 0.000000 0.000000 0.000000
# 3 -0.003232 -0.003378 0.011569 0.000000 0.000000 0.000000
# 4 0.000000 0.000000 0.000000 0.062831 0.000000 0.000000
# 5 0.000000 0.000000 0.000000 0.000000 0.173803 0.000000
# 6 0.000000 0.000000 0.000000 0.000000 0.000000 0.026090
#
#
# Mechanical properties :
#
#
# Convention : Reuss Voigt Hill
#
# Bulk Modulus (GPa) = 62.70770 63.11826 62.91298
# Shear Modulus (GPa) = 15.49495 25.39233 20.44364
#
# Velocity S-wave (km/s) = 2.77954 3.55819 3.19269
# Velocity P-wave (km/s) = 6.44729 6.95356 6.70521
#
# Compressibility (1/GPa) = 0.01594700
#
# Stress axis : x y z
#
# Youngs Moduli (GPa) = 79.22718 90.04416 86.44035
#
# Poissons Ratio (x) = 0.27593 0.27938
# Poissons Ratio (y) = 0.24278 0.29202
# Poissons Ratio (z) = 0.25607 0.30419
#
# Static dielectric constant tensor:
#      x y z
#    x 3.915010 0.000000 0.000000 
#    y 0.000000 4.243860 0.000000 
#    z 0.000000 0.000000 3.245460 
# 
# 
# High freq. dielectric constant tensor:
#      x y z
#    x 1.799770 0.000000 0.000000 
#    y 0.000000 1.805710 0.000000 
#    z 0.000000 0.000000 1.736510 
# 
# From -- ./inp_files/45948.got.cif
#   From: 2010.03.12/outbox.cif.g09.slc.cpg/sg72_23_cif.got.tgz:45948.got - 2010.04.16 14:54:00.
