data_PCOD8294265
_publ_section_title
;
Structure prediction by ZEFSAII (Michael W. Deem and Ramdas Pophale) SiO2 
 PCOD8294265
Probable space group: I B A M
;
_chemical_formula_sum "Si O2"
_cell_formula_units_Z 96
_cell_length_a 27.948994
_cell_length_b 9.515980
_cell_length_c 18.413271
_cell_angle_alpha 90.000000
_cell_angle_beta 90.000000
_cell_angle_gamma 90.000000
_cell_volume 4897.231632
_symmetry_space_group_name_H-M "I B A M"
_symmetry_group_IT_number 72
_symmetry_cell_setting 'orthorhombic'
loop_
_space_group_symop_operation_xyz
x,y,z
-x,-y,z
x,-y,1/2-z
-x,y,1/2-z
-x,-y,-z
x,y,-z
-x,y,1/2+z
x,-y,1/2+z
1/2+x,1/2+y,1/2+z
1/2-x,1/2-y,1/2+z
1/2+x,1/2-y,-z
1/2-x,1/2+y,-z
1/2-x,1/2-y,1/2-z
1/2+x,1/2+y,1/2-z
1/2-x,1/2+y,z
1/2+x,1/2-y,z
loop_
_atom_site_type_symbol
_atom_site_label
_atom_site_fract_x
_atom_site_fract_y
_atom_site_fract_z
Si Si1 0.880525 0.755342 0.586247
Si Si2 0.971858 0.371237 0.676698
Si Si3 0.204240 0.275934 0.086714
Si Si4 0.985535 0.848654 0.414718
Si Si5 0.365873 0.030280 0.671886
Si Si6 0.295691 0.453991 0.085637
O O1 0.877551 0.731474 0.500000
O O2 0.932772 0.805180 0.611859
O O3 0.866982 0.609746 0.623858
O O4 0.844153 0.877528 0.611935
O O5 0.917679 0.410038 0.692683
O O6 0.000000 0.500000 0.639446
O O7 0.000000 0.329491 0.750000
O O8 0.973440 0.247460 0.619010
O O9 0.160043 0.348637 0.126534
O O10 0.251300 0.359967 0.112486
O O11 0.207707 0.114252 0.114671
O O12 0.196811 0.283147 0.000000
O O13 0.989576 0.838087 0.500000
O O14 0.000000 0.000000 0.385634
O O15 0.340608 0.000000 0.750000
O O16 0.294717 0.461084 0.000000
#
# Coordination Sequence:
#
# PCOD8294265 Si02
#       6
#    16  16  16  16  16  16
#     4  10  20  37  59  84 117 154 189 235 292 348
#     4  11  21  41  59  79 114 159 201 235 281 348
#     4  10  21  38  63  90 115 151 193 239 290 347
#     4  10  22  36  56  88 120 147 187 245 296 338
#     4  12  23  38  59  85 116 153 199 244 286 339
#     4   9  19  38  63  90 119 150 192 235 286 356
#
# _framework density 19.602913000000001
#
# number of rings (size 3 to 8) (size 9 to 14) (size 15 to 20)
#    0.000    1.667    3.333    1.500    2.333    4.667 
#    0.000    4.167    0.000    0.000    0.000    0.000 
#    0.000    0.000    0.000    0.000    0.000    0.000 
#
# Total GULP energy -595110.532658 kJ/mol
# GULP energy per Si atom -12398.136097 kJ/mol
# Density = 1.955830 g / cm^3
# Si number density = 19.602913 Si / 1000 Ang^3
#
#
#
# Elastic Constant Matrix: (Units=GPa)
#
#
# Indices 1 2 3 4 5 6 
#
# 1 87.3099 56.1784 30.0698 0.0000 0.0000 0.0000
# 2 56.1784 162.0723 36.4344 0.0000 0.0000 0.0000
# 3 30.0698 36.4344 31.7283 0.0000 0.0000 0.0000
# 4 0.0000 0.0000 0.0000 15.9553 0.0000 0.0000
# 5 0.0000 0.0000 0.0000 0.0000 23.1893 0.0000
# 6 0.0000 0.0000 0.0000 0.0000 0.0000 38.8995
#
#
#
# Elastic Compliance Matrix: (Units=1/GPa)
#
#
# Indices 1 2 3 4 5 6 
#
# 1 0.018210 -0.003279 -0.013493 0.000000 0.000000 0.000000
# 2 -0.003279 0.008908 -0.007121 0.000000 0.000000 0.000000
# 3 -0.013493 -0.007121 0.052483 0.000000 0.000000 0.000000
# 4 0.000000 0.000000 0.000000 0.062675 0.000000 0.000000
# 5 0.000000 0.000000 0.000000 0.000000 0.043123 0.000000
# 6 0.000000 0.000000 0.000000 0.000000 0.000000 0.025707
#
#
# Mechanical properties :
#
#
# Convention : Reuss Voigt Hill
#
# Bulk Modulus (GPa) = 31.43253 58.49730 44.96492
# Shear Modulus (GPa) = 18.55303 26.17069 22.36186
#
# Velocity S-wave (km/s) = 3.07977 3.65779 3.38115
# Velocity P-wave (km/s) = 5.35874 6.90978 6.18309
#
# Compressibility (1/GPa) = 0.03181418
#
# Stress axis : x y z
#
# Youngs Moduli (GPa) = 54.91407 112.26494 19.05378
#
# Poissons Ratio (x) = 0.36810 0.25710
# Poissons Ratio (y) = 0.18005 0.13569
# Poissons Ratio (z) = 0.74097 0.79947
#
# Static dielectric constant tensor:
#      x y z
#    x 3.715530 0.000000 0.000000 
#    y 0.000000 3.853850 0.000000 
#    z 0.000000 0.000000 3.303250 
# 
# 
# High freq. dielectric constant tensor:
#      x y z
#    x 1.767420 0.000000 0.000000 
#    y 0.000000 1.777860 0.000000 
#    z 0.000000 0.000000 1.741050 
# 
# From -- ./inp_files/36001.got.cif
#   From: 2010.03.12/outbox.cif.g09.slc.cpg/sg72_19_cif.got.tgz:36001.got - 2010.04.16 14:54:00.
