data_PCOD8294018
_publ_section_title
;
Structure prediction by ZEFSAII (Michael W. Deem and Ramdas Pophale) SiO2 
 PCOD8294018
Probable space group: I B A M
;
_chemical_formula_sum "Si O2"
_cell_formula_units_Z 80
_cell_length_a 7.796719
_cell_length_b 29.595238
_cell_length_c 15.882199
_cell_angle_alpha 90.000000
_cell_angle_beta 90.000000
_cell_angle_gamma 90.000000
_cell_volume 3664.749990
_symmetry_space_group_name_H-M "I B A M"
_symmetry_group_IT_number 72
_symmetry_cell_setting 'orthorhombic'
loop_
_space_group_symop_operation_xyz
x,y,z
-x,-y,z
x,-y,1/2-z
-x,y,1/2-z
-x,-y,-z
x,y,-z
-x,y,1/2+z
x,-y,1/2+z
1/2+x,1/2+y,1/2+z
1/2-x,1/2-y,1/2+z
1/2+x,1/2-y,-z
1/2-x,1/2+y,-z
1/2-x,1/2-y,1/2-z
1/2+x,1/2+y,1/2-z
1/2-x,1/2+y,z
1/2+x,1/2-y,z
loop_
_atom_site_type_symbol
_atom_site_label
_atom_site_fract_x
_atom_site_fract_y
_atom_site_fract_z
Si Si1 0.829060 0.113243 0.399973
Si Si2 0.108026 0.794760 0.334875
Si Si3 0.768078 0.788838 0.593401
Si Si4 0.980259 0.550522 0.600358
Si Si5 0.781715 0.112015 0.900246
O O1 0.814700 0.119685 0.500000
O O2 0.777952 0.160482 0.353605
O O3 0.696837 0.074364 0.369354
O O4 0.023618 0.100635 0.370597
O O5 0.219706 0.749056 0.337581
O O6 0.000000 0.799733 0.250000
O O7 0.974363 0.790364 0.412150
O O8 0.694892 0.778744 0.500000
O O9 0.713447 0.838336 0.627767
O O10 0.983912 0.549977 0.500000
O O11 0.000000 0.500000 0.636577
O O12 0.145983 0.576635 0.637364
O O13 0.779728 0.110272 0.000000
#
# Coordination Sequence:
#
# PCOD8294018 Si02
#       5
#    16  16  16  16  16
#     4   9  18  33  52  75 109 150 185 227 289 354
#     4  11  22  35  52  81 115 147 196 242 293 349
#     4  10  20  35  54  77 108 151 193 233 286 352
#     4   9  17  29  50  81 109 136 180 237 294 345
#     4   8  16  30  47  73 106 140 182 228 277 339
#
# _framework density 21.829592999999999
#
# number of rings (size 3 to 8) (size 9 to 14) (size 15 to 20)
#    0.000    2.600    0.000    3.600    2.800    0.800 
#    0.000    4.000    0.000    0.000    0.000   16.800 
#    0.000    0.000    0.000    0.000    0.000    0.200 
#
# Total GULP energy -495581.323300 kJ/mol
# GULP energy per Si atom -12389.533083 kJ/mol
# Density = 2.177991 g / cm^3
# Si number density = 21.829593 Si / 1000 Ang^3
#
#
#
# Elastic Constant Matrix: (Units=GPa)
#
#
# Indices 1 2 3 4 5 6 
#
# 1 122.7466 100.3157 13.3624 0.0000 0.0000 0.0000
# 2 100.3157 210.1426 24.1707 0.0000 0.0000 0.0000
# 3 13.3624 24.1707 42.8061 -0.0003 0.0001 0.0000
# 4 0.0000 0.0000 -0.0003 5.4230 0.0001 0.0000
# 5 0.0000 0.0000 0.0001 0.0001 14.9282 0.0000
# 6 0.0000 0.0000 0.0000 0.0000 0.0000 46.9176
#
#
#
# Elastic Compliance Matrix: (Units=1/GPa)
#
#
# Indices 1 2 3 4 5 6 
#
# 1 0.013373 -0.006314 -0.000609 0.000000 0.000000 0.000000
# 2 -0.006314 0.008070 -0.002586 0.000000 0.000000 0.000000
# 3 -0.000609 -0.002586 0.025012 0.000001 0.000000 0.000000
# 4 0.000000 0.000000 0.000001 0.184400 -0.000001 0.000000
# 5 0.000000 0.000000 0.000000 -0.000001 0.066987 0.000000
# 6 0.000000 0.000000 0.000000 0.000000 0.000000 0.021314
#
#
# Mechanical properties :
#
#
# Convention : Reuss Voigt Hill
#
# Bulk Modulus (GPa) = 36.44780 72.37699 54.41239
# Shear Modulus (GPa) = 14.39593 29.31019 21.85306
#
# Velocity S-wave (km/s) = 2.57080 3.66824 3.16741
# Velocity P-wave (km/s) = 5.05418 7.15323 6.19328
#
# Compressibility (1/GPa) = 0.02743650
#
# Stress axis : x y z
#
# Youngs Moduli (GPa) = 74.77574 123.91301 39.98152
#
# Poissons Ratio (x) = 0.78238 0.02437
# Poissons Ratio (y) = 0.47213 0.10339
# Poissons Ratio (z) = 0.04557 0.32043
#
# Static dielectric constant tensor:
#      x y z
#    x 4.177970 0.000000 0.000000 
#    y 0.000000 4.287460 0.000000 
#    z 0.000000 0.000000 3.409420 
# 
# 
# High freq. dielectric constant tensor:
#      x y z
#    x 1.851040 0.000000 0.000000 
#    y 0.000000 1.855640 0.000000 
#    z 0.000000 0.000000 1.822370 
# 
# From -- ./inp_files/28315.got.cif
#   From: 2010.03.12/outbox.cif.g09.slc.cpg/sg72_15_cif.got.tgz:28315.got - 2010.04.16 14:54:00.
