data_PCOD8294985
_publ_section_title
;
Structure prediction by ZEFSAII (Michael W. Deem and Ramdas Pophale) SiO2 
 PCOD8294985
Probable space group: I B A M
;
_chemical_formula_sum "Si O2"
_cell_formula_units_Z 68
_cell_length_a 19.893133
_cell_length_b 10.130285
_cell_length_c 18.048744
_cell_angle_alpha 90.000000
_cell_angle_beta 90.000000
_cell_angle_gamma 90.000000
_cell_volume 3637.238965
_symmetry_space_group_name_H-M "I B A M"
_symmetry_group_IT_number 72
_symmetry_cell_setting 'orthorhombic'
loop_
_space_group_symop_operation_xyz
x,y,z
-x,-y,z
x,-y,1/2-z
-x,y,1/2-z
-x,-y,-z
x,y,-z
-x,y,1/2+z
x,-y,1/2+z
1/2+x,1/2+y,1/2+z
1/2-x,1/2-y,1/2+z
1/2+x,1/2-y,-z
1/2-x,1/2+y,-z
1/2-x,1/2-y,1/2-z
1/2+x,1/2+y,1/2-z
1/2-x,1/2+y,z
1/2+x,1/2-y,z
loop_
_atom_site_type_symbol
_atom_site_label
_atom_site_fract_x
_atom_site_fract_y
_atom_site_fract_z
Si Si1 0.000000 0.500000 0.750000
Si Si2 0.556802 0.113225 0.000000
Si Si3 0.383283 0.970762 0.144693
Si Si4 0.241890 0.879090 0.202200
Si Si5 0.353598 0.744290 0.584118
Si Si6 0.467163 0.360460 0.000000
O O1 0.052562 0.573615 0.695277
O O2 0.606585 0.102847 0.068306
O O3 0.526192 0.256215 0.000000
O O4 0.500000 0.000000 0.000000
O O5 0.316363 0.920265 0.181389
O O6 0.374983 0.127522 0.131117
O O7 0.250000 0.750000 0.250000
O O8 0.198853 0.846620 0.128819
O O9 0.209168 0.000000 0.250000
O O10 0.326290 0.780500 0.500000
O O11 0.421468 0.658465 0.573635
O O12 0.500000 0.500000 0.000000
#
# Coordination Sequence:
#
# PCOD8294985 Si02
#       6
#     4   8  16  16  16   8
#     4  12  20  34  64 100 130 162 214 272 342 386
#     4  12  20  39  70  94 124 169 226 275 327 385
#     4  12  22  40  68  98 128 175 226 277 328 400
#     4  12  25  43  63  96 139 177 217 275 338 403
#     4  10  22  43  67  92 136 171 227 280 323 397
#     4  10  22  41  62 100 136 164 213 290 330 385
#
# _framework density 18.695499000000002
#
# number of rings (size 3 to 8) (size 9 to 14) (size 15 to 20)
#    0.706    0.000    8.235    0.000    1.647    1.882 
#    0.000    2.353    0.000    0.000    0.000    0.000 
#    0.000    0.000    0.000    0.000    0.000    0.000 
#
# Total GULP energy -421198.542064 kJ/mol
# GULP energy per Si atom -12388.192414 kJ/mol
# Density = 1.865295 g / cm^3
# Si number density = 18.695499 Si / 1000 Ang^3
#
#
#
# Elastic Constant Matrix: (Units=GPa)
#
#
# Indices 1 2 3 4 5 6 
#
# 1 117.2612 59.9157 54.9418 0.0000 0.0000 0.0000
# 2 59.9157 144.0455 49.8963 0.0000 0.0000 0.0000
# 3 54.9418 49.8963 131.9329 0.0000 0.0000 0.0000
# 4 0.0000 0.0000 0.0000 26.4026 0.0000 0.0000
# 5 0.0000 0.0000 0.0000 0.0000 66.7101 0.0000
# 6 0.0000 0.0000 0.0000 0.0000 0.0000 35.8385
#
#
#
# Elastic Compliance Matrix: (Units=1/GPa)
#
#
# Indices 1 2 3 4 5 6 
#
# 1 0.012174 -0.003806 -0.003630 0.000000 0.000000 0.000000
# 2 -0.003806 0.009179 -0.001886 0.000000 0.000000 0.000000
# 3 -0.003630 -0.001886 0.009805 0.000000 0.000000 0.000000
# 4 0.000000 0.000000 0.000000 0.037875 0.000000 0.000000
# 5 0.000000 0.000000 0.000000 0.000000 0.014990 0.000000
# 6 0.000000 0.000000 0.000000 0.000000 0.000000 0.027903
#
#
# Mechanical properties :
#
#
# Convention : Reuss Voigt Hill
#
# Bulk Modulus (GPa) = 79.92351 80.30526 80.11438
# Shear Modulus (GPa) = 37.10812 41.02260 39.06536
#
# Velocity S-wave (km/s) = 4.46002 4.68936 4.57613
# Velocity P-wave (km/s) = 8.32858 8.50692 8.41823
#
# Compressibility (1/GPa) = 0.01251196
#
# Stress axis : x y z
#
# Youngs Moduli (GPa) = 82.14484 108.94606 101.99175
#
# Poissons Ratio (x) = 0.41467 0.37024
# Poissons Ratio (y) = 0.31266 0.19239
# Poissons Ratio (z) = 0.29819 0.20551
#
# Static dielectric constant tensor:
#      x y z
#    x 3.162970 0.000000 0.000000 
#    y 0.000000 3.207290 0.000000 
#    z 0.000000 0.000000 3.899500 
# 
# 
# High freq. dielectric constant tensor:
#      x y z
#    x 1.728200 0.000000 0.000000 
#    y 0.000000 1.706210 0.000000 
#    z 0.000000 0.000000 1.745240 
# 
# From -- ./inp_files/32320.got.cif
#   From: 2010.03.12/outbox.cif.g09.slc.cpg/sg72_17_cif.got.tgz:32320.got - 2010.04.16 14:54:00.
