data_PCOD8294870
_publ_section_title
;
Structure prediction by ZEFSAII (Michael W. Deem and Ramdas Pophale) SiO2 
 PCOD8294870
Probable space group: I B A M
;
_chemical_formula_sum "Si O2"
_cell_formula_units_Z 96
_cell_length_a 22.075578
_cell_length_b 10.411974
_cell_length_c 21.861265
_cell_angle_alpha 90.000000
_cell_angle_beta 90.000000
_cell_angle_gamma 90.000000
_cell_volume 5024.819284
_symmetry_space_group_name_H-M "I B A M"
_symmetry_group_IT_number 72
_symmetry_cell_setting 'orthorhombic'
loop_
_space_group_symop_operation_xyz
x,y,z
-x,-y,z
x,-y,1/2-z
-x,y,1/2-z
-x,-y,-z
x,y,-z
-x,y,1/2+z
x,-y,1/2+z
1/2+x,1/2+y,1/2+z
1/2-x,1/2-y,1/2+z
1/2+x,1/2-y,-z
1/2-x,1/2+y,-z
1/2-x,1/2-y,1/2-z
1/2+x,1/2+y,1/2-z
1/2-x,1/2+y,z
1/2+x,1/2-y,z
loop_
_atom_site_type_symbol
_atom_site_label
_atom_site_fract_x
_atom_site_fract_y
_atom_site_fract_z
Si Si1 0.368607 0.255685 0.324158
Si Si2 0.993344 0.295556 0.500000
Si Si3 0.442570 0.827775 0.711893
Si Si4 0.752776 0.123935 0.291768
Si Si5 0.008993 0.150028 0.122485
Si Si6 0.400016 0.994113 0.500000
Si Si7 0.146099 0.478311 0.367091
O O1 0.388935 0.221690 0.255300
O O2 0.317470 0.366326 0.325388
O O3 0.422516 0.312331 0.363553
O O4 0.340853 0.127007 0.353648
O O5 0.041856 0.406383 0.500000
O O6 0.006404 0.205632 0.442960
O O7 0.925920 0.359194 0.500000
O O8 0.500000 0.882708 0.750000
O O9 0.463390 0.706487 0.672456
O O10 0.416544 0.940263 0.668051
O O11 0.750000 0.250000 0.250000
O O12 0.700176 0.113492 0.343130
O O13 0.748434 0.000000 0.250000
O O14 0.000000 0.000000 0.122775
O O15 0.359985 0.963491 0.559891
#
# Coordination Sequence:
#
# PCOD8294870 Si02
#       7
#    16   8  16  16  16   8  16
#     4  11  24  40  63  96 132 170 209 271 332 394
#     4  11  21  42  63  93 124 174 218 258 329 385
#     4  10  22  35  61  95 130 164 206 270 335 396
#     4  12  24  42  70  97 128 174 218 275 333 389
#     4  11  24  39  61  95 137 172 209 263 329 399
#     4  11  24  40  71  89 123 173 217 281 308 393
#     4  12  22  44  64  95 129 166 229 270 326 389
#
# _framework density 19.105163999999998
#
# number of rings (size 3 to 8) (size 9 to 14) (size 15 to 20)
#    0.000    0.833    6.667    0.750    2.333    7.000 
#    0.000    1.667    0.000    0.000    0.000    0.000 
#    0.000    0.000    0.000    0.000    0.000    0.000 
#
# Total GULP energy -595259.750364 kJ/mol
# GULP energy per Si atom -12401.244799 kJ/mol
# Density = 1.906168 g / cm^3
# Si number density = 19.105164 Si / 1000 Ang^3
#
#
#
# Elastic Constant Matrix: (Units=GPa)
#
#
# Indices 1 2 3 4 5 6 
#
# 1 92.2996 28.5394 51.1125 0.0000 0.0000 0.0000
# 2 28.5394 105.9358 42.1241 0.0000 0.0000 0.0000
# 3 51.1125 42.1241 143.8673 0.0000 0.0000 0.0000
# 4 0.0000 0.0000 0.0000 29.9430 0.0000 0.0000
# 5 0.0000 0.0000 0.0000 0.0000 55.6399 0.0000
# 6 0.0000 0.0000 0.0000 0.0000 0.0000 30.7698
#
#
#
# Elastic Compliance Matrix: (Units=1/GPa)
#
#
# Indices 1 2 3 4 5 6 
#
# 1 0.013856 -0.002009 -0.004334 0.000000 0.000000 0.000000
# 2 -0.002009 0.010975 -0.002500 0.000000 0.000000 0.000000
# 3 -0.004334 -0.002500 0.009223 0.000000 0.000000 0.000000
# 4 0.000000 0.000000 0.000000 0.033397 0.000000 0.000000
# 5 0.000000 0.000000 0.000000 0.000000 0.017973 0.000000
# 6 0.000000 0.000000 0.000000 0.000000 0.000000 0.032499
#
#
# Mechanical properties :
#
#
# Convention : Reuss Voigt Hill
#
# Bulk Modulus (GPa) = 61.09886 65.07277 63.08582
# Shear Modulus (GPa) = 35.44488 37.95900 36.70194
#
# Velocity S-wave (km/s) = 4.31194 4.46224 4.38773
# Velocity P-wave (km/s) = 7.53924 7.78993 7.66561
#
# Compressibility (1/GPa) = 0.01636692
#
# Stress axis : x y z
#
# Youngs Moduli (GPa) = 72.17215 91.11685 108.42940
#
# Poissons Ratio (x) = 0.18308 0.46996
# Poissons Ratio (y) = 0.14502 0.27103
# Poissons Ratio (z) = 0.31282 0.22775
#
# Static dielectric constant tensor:
#      x y z
#    x 3.715200 0.000000 0.000000 
#    y 0.000000 4.861450 0.000000 
#    z 0.000000 0.000000 3.477350 
# 
# 
# High freq. dielectric constant tensor:
#      x y z
#    x 1.740500 0.000000 0.000000 
#    y 0.000000 1.742860 0.000000 
#    z 0.000000 0.000000 1.742390 
# 
# From -- ./inp_files/39735.got.cif
#   From: 2010.03.12/outbox.cif.g09.slc.cpg/sg72_20_cif.got.tgz:39735.got - 2010.04.16 14:54:00.
