data_PCOD8294202
_publ_section_title
;
Structure prediction by ZEFSAII (Michael W. Deem and Ramdas Pophale) SiO2 
 PCOD8294202
Probable space group: I B A M
;
_chemical_formula_sum "Si O2"
_cell_formula_units_Z 88
_cell_length_a 20.656993
_cell_length_b 21.956352
_cell_length_c 9.410101
_cell_angle_alpha 90.000000
_cell_angle_beta 90.000000
_cell_angle_gamma 90.000000
_cell_volume 4267.972101
_symmetry_space_group_name_H-M "I B A M"
_symmetry_group_IT_number 72
_symmetry_cell_setting 'orthorhombic'
loop_
_space_group_symop_operation_xyz
x,y,z
-x,-y,z
x,-y,1/2-z
-x,y,1/2-z
-x,-y,-z
x,y,-z
-x,y,1/2+z
x,-y,1/2+z
1/2+x,1/2+y,1/2+z
1/2-x,1/2-y,1/2+z
1/2+x,1/2-y,-z
1/2-x,1/2+y,-z
1/2-x,1/2-y,1/2-z
1/2+x,1/2+y,1/2-z
1/2-x,1/2+y,z
1/2+x,1/2-y,z
loop_
_atom_site_type_symbol
_atom_site_label
_atom_site_fract_x
_atom_site_fract_y
_atom_site_fract_z
Si Si1 0.908728 0.554436 0.158712
Si Si2 0.885208 0.267610 0.158537
Si Si3 0.329504 0.438598 0.337642
Si Si4 0.933008 0.840370 0.833246
Si Si5 0.195868 0.381246 0.664269
Si Si6 0.000000 0.653716 0.750000
O O1 0.940681 0.500000 0.250000
O O2 0.842311 0.572040 0.236574
O O3 0.957540 0.611173 0.147028
O O4 0.892944 0.531822 0.000000
O O5 0.888287 0.214070 0.273920
O O6 0.825175 0.311767 0.199932
O O7 0.952626 0.304880 0.156187
O O8 0.875470 0.240634 0.000000
O O9 0.325209 0.500000 0.250000
O O10 0.325886 0.459079 0.500000
O O11 0.396396 0.403825 0.305807
O O12 0.271431 0.391512 0.302694
O O13 0.000000 0.842993 0.750000
O O14 0.945544 0.828957 0.000000
O O15 0.178670 0.394962 0.500000
#
# Coordination Sequence:
#
# PCOD8294202 Si02
#       6
#    16  16  16  16  16   8
#     4  11  22  34  51  79 115 157 203 249 295 347
#     4  10  20  36  60  88 120 156 196 243 296 355
#     4  10  23  43  65  90 121 158 200 249 304 362
#     4  11  24  41  63  91 123 158 199 249 304 362
#     4   9  20  39  61  87 120 156 196 244 296 355
#     4  10  21  34  54  78 113 152 202 244 292 346
#
# _framework density 20.618690999999998
#
# number of rings (size 3 to 8) (size 9 to 14) (size 15 to 20)
#    0.000    1.818    0.909    2.455    0.000   10.545 
#    0.000    1.818    0.000    0.000    0.000    0.000 
#    0.000    0.000    0.000    0.000    0.000    0.000 
#
# Total GULP energy -545592.873266 kJ/mol
# GULP energy per Si atom -12399.838029 kJ/mol
# Density = 2.057176 g / cm^3
# Si number density = 20.618691 Si / 1000 Ang^3
#
#
#
# Elastic Constant Matrix: (Units=GPa)
#
#
# Indices 1 2 3 4 5 6 
#
# 1 83.6244 59.3626 52.4743 0.0000 0.0000 0.0000
# 2 59.3626 104.1029 60.9613 0.0000 0.0000 0.0000
# 3 52.4743 60.9613 134.4335 0.0000 0.0000 0.0000
# 4 0.0000 0.0000 0.0000 30.4058 0.0000 0.0000
# 5 0.0000 0.0000 0.0000 0.0000 22.8110 0.0000
# 6 0.0000 0.0000 0.0000 0.0000 0.0000 21.8466
#
#
#
# Elastic Compliance Matrix: (Units=1/GPa)
#
#
# Indices 1 2 3 4 5 6 
#
# 1 0.021461 -0.009983 -0.003850 0.000000 0.000000 0.000000
# 2 -0.009983 0.017723 -0.004140 0.000000 0.000000 0.000000
# 3 -0.003850 -0.004140 0.010819 0.000000 0.000000 0.000000
# 4 0.000000 0.000000 0.000000 0.032888 0.000000 0.000000
# 5 0.000000 0.000000 0.000000 0.000000 0.043839 0.000000
# 6 0.000000 0.000000 0.000000 0.000000 0.000000 0.045774
#
#
# Mechanical properties :
#
#
# Convention : Reuss Voigt Hill
#
# Bulk Modulus (GPa) = 71.14212 74.19526 72.66869
# Shear Modulus (GPa) = 23.45935 24.97018 24.21477
#
# Velocity S-wave (km/s) = 3.37675 3.48378 3.43068
# Velocity P-wave (km/s) = 7.05562 7.22806 7.14236
#
# Compressibility (1/GPa) = 0.01405637
#
# Stress axis : x y z
#
# Youngs Moduli (GPa) = 46.59661 56.42423 92.43225
#
# Poissons Ratio (x) = 0.56329 0.35586
# Poissons Ratio (y) = 0.46518 0.38267
# Poissons Ratio (z) = 0.17939 0.23360
#
# Static dielectric constant tensor:
#      x y z
#    x 3.688470 0.000000 0.000000 
#    y 0.000000 3.698300 0.000000 
#    z 0.000000 0.000000 3.650330 
# 
# 
# High freq. dielectric constant tensor:
#      x y z
#    x 1.801260 0.000000 0.000000 
#    y 0.000000 1.800770 0.000000 
#    z 0.000000 0.000000 1.805330 
# 
# From -- ./inp_files/5797.got.cif
#   From: 2010.03.12/outbox.cif.g09.slc.cpg/sg72_3_cif.got.tgz:5797.got - 2010.04.16 14:54:00.
