data_PCOD8294036
_publ_section_title
;
Structure prediction by ZEFSAII (Michael W. Deem and Ramdas Pophale) SiO2 
 PCOD8294036
Probable space group: I B A M
;
_chemical_formula_sum "Si O2"
_cell_formula_units_Z 96
_cell_length_a 23.525217
_cell_length_b 25.186861
_cell_length_c 8.819425
_cell_angle_alpha 90.000000
_cell_angle_beta 90.000000
_cell_angle_gamma 90.000000
_cell_volume 5225.741886
_symmetry_space_group_name_H-M "I B A M"
_symmetry_group_IT_number 72
_symmetry_cell_setting 'orthorhombic'
loop_
_space_group_symop_operation_xyz
x,y,z
-x,-y,z
x,-y,1/2-z
-x,y,1/2-z
-x,-y,-z
x,y,-z
-x,y,1/2+z
x,-y,1/2+z
1/2+x,1/2+y,1/2+z
1/2-x,1/2-y,1/2+z
1/2+x,1/2-y,-z
1/2-x,1/2+y,-z
1/2-x,1/2-y,1/2-z
1/2+x,1/2+y,1/2-z
1/2-x,1/2+y,z
1/2+x,1/2-y,z
loop_
_atom_site_type_symbol
_atom_site_label
_atom_site_fract_x
_atom_site_fract_y
_atom_site_fract_z
Si Si1 0.940100 0.055414 0.678680
Si Si2 0.868373 0.843394 0.175084
Si Si3 0.372827 0.851985 0.320976
Si Si4 0.245818 0.693009 0.824421
Si Si5 0.060555 0.752565 0.177067
Si Si6 0.440575 0.943426 0.819857
O O1 0.948268 0.048325 0.500000
O O2 0.892633 0.098992 0.719015
O O3 0.000000 0.073570 0.750000
O O4 0.919447 0.000000 0.750000
O O5 0.801090 0.842903 0.209275
O O6 0.896947 0.798743 0.276043
O O7 0.881168 0.830310 0.000000
O O8 0.376118 0.863810 0.500000
O O9 0.309060 0.838872 0.265661
O O10 0.413655 0.803659 0.273194
O O11 0.391235 0.903066 0.226044
O O12 0.250000 0.750000 0.750000
O O13 0.237752 0.704743 0.000000
O O14 0.000000 0.761993 0.250000
O O15 0.052126 0.755292 0.000000
O O16 0.500000 0.922983 0.750000
O O17 0.424269 0.000000 0.750000
O O18 0.446234 0.947854 0.000000
#
# Coordination Sequence:
#
# PCOD8294036 Si02
#       6
#    16  16  16  16  16  16
#     4  10  20  35  55  80 107 142 180 223 275 326
#     4  10  21  36  56  81 111 145 183 227 278 331
#     4  10  21  37  56  82 114 148 188 231 276 330
#     4  10  20  37  58  81 112 150 188 230 275 328
#     4  11  22  34  52  80 112 146 182 227 280 332
#     4  11  22  38  61  86 114 149 187 232 284 340
#
# _framework density 18.370598000000001
#
# number of rings (size 3 to 8) (size 9 to 14) (size 15 to 20)
#    0.000    1.667    1.667    4.500    0.000    6.000 
#    0.000    0.833    0.000    2.000    0.000    0.000 
#    0.000    0.000    0.000    0.000    0.000    0.000 
#
# Total GULP energy -595362.369208 kJ/mol
# GULP energy per Si atom -12403.382692 kJ/mol
# Density = 1.832879 g / cm^3
# Si number density = 18.370598 Si / 1000 Ang^3
#
#
#
# Elastic Constant Matrix: (Units=GPa)
#
#
# Indices 1 2 3 4 5 6 
#
# 1 116.0326 64.2643 47.5790 0.0000 0.0000 0.0000
# 2 64.2643 118.8822 53.2383 0.0000 0.0000 0.0000
# 3 47.5790 53.2383 82.5036 0.0000 0.0000 0.0000
# 4 0.0000 0.0000 0.0000 32.0940 0.0000 0.0000
# 5 0.0000 0.0000 0.0000 0.0000 18.0212 0.0000
# 6 0.0000 0.0000 0.0000 0.0000 0.0000 125.6343
#
#
#
# Elastic Compliance Matrix: (Units=1/GPa)
#
#
# Indices 1 2 3 4 5 6 
#
# 1 0.013286 -0.005275 -0.004258 0.000000 0.000000 0.000000
# 2 -0.005275 0.013925 -0.005943 0.000000 0.000000 0.000000
# 3 -0.004258 -0.005943 0.018411 0.000000 0.000000 0.000000
# 4 0.000000 0.000000 0.000000 0.031158 0.000000 0.000000
# 5 0.000000 0.000000 0.000000 0.000000 0.055490 0.000000
# 6 0.000000 0.000000 0.000000 0.000000 0.000000 0.007960
#
#
# Mechanical properties :
#
#
# Convention : Reuss Voigt Hill
#
# Bulk Modulus (GPa) = 68.16971 71.95352 70.06161
# Shear Modulus (GPa) = 28.39737 45.30568 36.85153
#
# Velocity S-wave (km/s) = 3.93594 4.97148 4.48370
# Velocity P-wave (km/s) = 7.60553 8.49747 8.06384
#
# Compressibility (1/GPa) = 0.01466927
#
# Stress axis : x y z
#
# Youngs Moduli (GPa) = 75.26814 71.81387 54.31454
#
# Poissons Ratio (x) = 0.37883 0.23126
# Poissons Ratio (y) = 0.39705 0.32281
# Poissons Ratio (z) = 0.32048 0.42682
#
# Static dielectric constant tensor:
#      x y z
#    x 3.351090 0.000000 0.000000 
#    y 0.000000 3.414000 0.000000 
#    z 0.000000 0.000000 3.459030 
# 
# 
# High freq. dielectric constant tensor:
#      x y z
#    x 1.715730 0.000000 0.000000 
#    y 0.000000 1.712640 0.000000 
#    z 0.000000 0.000000 1.717510 
# 
# From -- ./inp_files/5996.got.cif
#   From: 2010.03.12/outbox.cif.g09.slc.cpg/sg72_3_cif.got.tgz:5996.got - 2010.04.16 14:54:00.
