data_PCOD8294191
_publ_section_title
;
Structure prediction by ZEFSAII (Michael W. Deem and Ramdas Pophale) SiO2 
 PCOD8294191
Probable space group: I B A M
;
_chemical_formula_sum "Si O2"
_cell_formula_units_Z 96
_cell_length_a 12.510727
_cell_length_b 22.376239
_cell_length_c 18.480066
_cell_angle_alpha 90.000000
_cell_angle_beta 90.000000
_cell_angle_gamma 90.000000
_cell_volume 5173.365438
_symmetry_space_group_name_H-M "I B A M"
_symmetry_group_IT_number 72
_symmetry_cell_setting 'orthorhombic'
loop_
_space_group_symop_operation_xyz
x,y,z
-x,-y,z
x,-y,1/2-z
-x,y,1/2-z
-x,-y,-z
x,y,-z
-x,y,1/2+z
x,-y,1/2+z
1/2+x,1/2+y,1/2+z
1/2-x,1/2-y,1/2+z
1/2+x,1/2-y,-z
1/2-x,1/2+y,-z
1/2-x,1/2-y,1/2-z
1/2+x,1/2+y,1/2-z
1/2-x,1/2+y,z
1/2+x,1/2-y,z
loop_
_atom_site_type_symbol
_atom_site_label
_atom_site_fract_x
_atom_site_fract_y
_atom_site_fract_z
Si Si1 0.096961 0.774072 0.203117
Si Si2 0.259631 0.162309 0.200052
Si Si3 0.120029 0.560392 0.720641
Si Si4 0.661563 0.581359 0.582989
Si Si5 0.063319 0.132979 0.417112
Si Si6 0.258022 0.046466 0.416917
O O1 0.154619 0.821085 0.255440
O O2 0.173732 0.720801 0.178199
O O3 0.055636 0.807985 0.131876
O O4 0.000000 0.746784 0.250000
O O5 0.327204 0.120005 0.251344
O O6 0.229926 0.129630 0.126388
O O7 0.176819 0.500000 0.750000
O O8 0.137235 0.557922 0.633288
O O9 0.000000 0.560545 0.750000
O O10 0.686425 0.595008 0.500000
O O11 0.535489 0.588473 0.599907
O O12 0.698678 0.515001 0.603607
O O13 0.057905 0.154628 0.500000
O O14 0.173230 0.098663 0.401776
O O15 0.297305 0.046601 0.500000
#
# Coordination Sequence:
#
# PCOD8294191 Si02
#       6
#    16  16  16  16  16  16
#     4  11  22  37  58  83 112 152 198 240 286 338
#     4  11  22  37  58  81 114 153 196 243 286 337
#     4  11  22  38  59  84 112 152 197 243 284 333
#     4  10  20  36  59  89 121 150 185 235 294 351
#     4  10  20  36  60  89 121 150 185 234 293 353
#     4  10  20  37  61  90 120 150 186 234 294 351
#
# _framework density 18.556584999999998
#
# number of rings (size 3 to 8) (size 9 to 14) (size 15 to 20)
#    0.000    1.500    5.000    1.000    0.000    2.667 
#    0.000    2.500    0.000    3.000    0.000    0.000 
#    0.000    0.000    0.000    0.000    0.000    0.000 
#
# Total GULP energy -595127.510404 kJ/mol
# GULP energy per Si atom -12398.489800 kJ/mol
# Density = 1.851435 g / cm^3
# Si number density = 18.556585 Si / 1000 Ang^3
#
#
#
# Elastic Constant Matrix: (Units=GPa)
#
#
# Indices 1 2 3 4 5 6 
#
# 1 83.3835 12.4999 54.1090 0.0000 0.0000 0.0000
# 2 12.4999 63.6085 36.0991 0.0000 0.0000 0.0000
# 3 54.1090 36.0991 114.0294 0.0000 0.0000 0.0000
# 4 0.0000 0.0000 0.0000 35.6772 0.0000 0.0000
# 5 0.0000 0.0000 0.0000 0.0000 31.3916 0.0000
# 6 0.0000 0.0000 0.0000 0.0000 0.0000 7.2990
#
#
#
# Elastic Compliance Matrix: (Units=1/GPa)
#
#
# Indices 1 2 3 4 5 6 
#
# 1 0.017453 0.001549 -0.008772 0.000000 0.000000 0.000000
# 2 0.001549 0.019302 -0.006845 0.000000 0.000000 0.000000
# 3 -0.008772 -0.006845 0.015099 0.000000 0.000000 0.000000
# 4 0.000000 0.000000 0.000000 0.028029 0.000000 0.000000
# 5 0.000000 0.000000 0.000000 0.000000 0.031856 0.000000
# 6 0.000000 0.000000 0.000000 0.000000 0.000000 0.137006
#
#
# Mechanical properties :
#
#
# Convention : Reuss Voigt Hill
#
# Bulk Modulus (GPa) = 42.16496 51.82639 46.99568
# Shear Modulus (GPa) = 17.55698 25.42779 21.49238
#
# Velocity S-wave (km/s) = 3.07926 3.70575 3.40694
# Velocity P-wave (km/s) = 5.95098 6.80438 6.39194
#
# Compressibility (1/GPa) = 0.02371638
#
# Stress axis : x y z
#
# Youngs Moduli (GPa) = 57.29698 51.80895 66.22878
#
# Poissons Ratio (x) = -0.08023 0.58096
# Poissons Ratio (y) = -0.08873 0.45335
# Poissons Ratio (z) = 0.50261 0.35465
#
# Static dielectric constant tensor:
#      x y z
#    x 3.504480 0.000000 0.000000 
#    y 0.000000 3.435080 0.000000 
#    z 0.000000 0.000000 3.440740 
# 
# 
# High freq. dielectric constant tensor:
#      x y z
#    x 1.713560 0.000000 0.000000 
#    y 0.000000 1.723190 0.000000 
#    z 0.000000 0.000000 1.723450 
# 
# From -- ./inp_files/29437.got.cif
#   From: 2010.03.12/outbox.cif.g09.slc.cpg/sg72_15_cif.got.tgz:29437.got - 2010.04.16 14:54:00.
