data_PCOD8294989
_publ_section_title
;
Structure prediction by ZEFSAII (Michael W. Deem and Ramdas Pophale) SiO2 
 PCOD8294989
Probable space group: I B A M
;
_chemical_formula_sum "Si O2"
_cell_formula_units_Z 64
_cell_length_a 10.792224
_cell_length_b 10.850766
_cell_length_c 28.291117
_cell_angle_alpha 90.000000
_cell_angle_beta 90.000000
_cell_angle_gamma 90.000000
_cell_volume 3313.000058
_symmetry_space_group_name_H-M "I B A M"
_symmetry_group_IT_number 72
_symmetry_cell_setting 'orthorhombic'
loop_
_space_group_symop_operation_xyz
x,y,z
-x,-y,z
x,-y,1/2-z
-x,y,1/2-z
-x,-y,-z
x,y,-z
-x,y,1/2+z
x,-y,1/2+z
1/2+x,1/2+y,1/2+z
1/2-x,1/2-y,1/2+z
1/2+x,1/2-y,-z
1/2-x,1/2+y,-z
1/2-x,1/2-y,1/2-z
1/2+x,1/2+y,1/2-z
1/2-x,1/2+y,z
1/2+x,1/2-y,z
loop_
_atom_site_type_symbol
_atom_site_label
_atom_site_fract_x
_atom_site_fract_y
_atom_site_fract_z
Si Si1 0.799398 0.532536 0.000000
Si Si2 0.460207 0.803034 0.500000
Si Si3 0.500000 0.795491 0.750000
Si Si4 0.097693 0.101455 0.677864
Si Si5 0.101713 0.894422 0.926286
Si Si6 0.706563 0.000000 0.250000
O O1 0.722565 0.556079 0.952669
O O2 0.841332 0.391515 0.000000
O O3 0.913791 0.623675 0.000000
O O4 0.455673 0.722638 0.452666
O O5 0.522178 0.708350 0.794971
O O6 0.622625 0.878438 0.751986
O O7 0.143788 0.148587 0.626577
O O8 0.207282 0.031104 0.705491
O O9 0.000000 0.000000 0.664964
O O10 0.000000 0.000000 0.926756
#
# Coordination Sequence:
#
# PCOD8294989 Si02
#       6
#     8   8   8  16  16   8
#     4  10  22  41  63  89 124 160 203 254 302 365
#     4  10  22  41  63  89 124 160 203 254 302 365
#     4  11  23  40  64  90 123 165 208 254 308 367
#     4  11  22  41  62  90 126 160 207 258 306 366
#     4  10  24  38  63  91 121 162 205 248 309 361
#     4  11  23  40  64  90 123 165 208 254 308 367
#
# _framework density 19.317838999999999
#
# number of rings (size 3 to 8) (size 9 to 14) (size 15 to 20)
#    0.000    1.500    2.500    2.250    7.000    4.000 
#    0.000    5.000    0.000    0.000    0.000    0.000 
#    0.000    0.000    0.000    0.000    0.000    0.000 
#
# Total GULP energy -396510.754876 kJ/mol
# GULP energy per Si atom -12390.961090 kJ/mol
# Density = 1.927387 g / cm^3
# Si number density = 19.317839 Si / 1000 Ang^3
#
#
#
# Elastic Constant Matrix: (Units=GPa)
#
#
# Indices 1 2 3 4 5 6 
#
# 1 75.0853 33.1402 45.6170 0.0000 0.0000 0.0000
# 2 33.1402 112.4392 62.1794 0.0000 0.0000 0.0000
# 3 45.6170 62.1794 191.0468 0.0000 0.0000 0.0000
# 4 0.0000 0.0000 0.0000 23.1919 0.0000 0.0000
# 5 0.0000 0.0000 0.0000 0.0000 10.5840 0.0000
# 6 0.0000 0.0000 0.0000 0.0000 0.0000 37.2475
#
#
#
# Elastic Compliance Matrix: (Units=1/GPa)
#
#
# Indices 1 2 3 4 5 6 
#
# 1 0.016512 -0.003276 -0.002876 0.000000 0.000000 0.000000
# 2 -0.003276 0.011496 -0.002959 0.000000 0.000000 0.000000
# 3 -0.002876 -0.002959 0.006884 0.000000 0.000000 0.000000
# 4 0.000000 0.000000 0.000000 0.043119 0.000000 0.000000
# 5 0.000000 0.000000 0.000000 0.000000 0.094483 0.000000
# 6 0.000000 0.000000 0.000000 0.000000 0.000000 0.026847
#
#
# Mechanical properties :
#
#
# Convention : Reuss Voigt Hill
#
# Bulk Modulus (GPa) = 59.99361 73.38273 66.68817
# Shear Modulus (GPa) = 22.40954 30.04698 26.22826
#
# Velocity S-wave (km/s) = 3.40964 3.94814 3.68873
# Velocity P-wave (km/s) = 6.82820 7.67158 7.26215
#
# Compressibility (1/GPa) = 0.01666844
#
# Stress axis : x y z
#
# Youngs Moduli (GPa) = 60.56365 86.98878 145.25915
#
# Poissons Ratio (x) = 0.28497 0.41781
# Poissons Ratio (y) = 0.19841 0.42986
# Poissons Ratio (z) = 0.17420 0.25742
#
# Static dielectric constant tensor:
#      x y z
#    x 3.780480 0.000000 0.000000 
#    y 0.000000 3.788010 0.000000 
#    z 0.000000 0.000000 3.899170 
# 
# 
# High freq. dielectric constant tensor:
#      x y z
#    x 1.762060 0.000000 0.000000 
#    y 0.000000 1.765200 0.000000 
#    z 0.000000 0.000000 1.756000 
# 
# From -- ./inp_files/51160.got.cif
#   From: 2010.03.12/outbox.cif.g09.slc.cpg/sg72_26_cif.got.tgz:51160.got - 2010.04.16 14:54:00.
