data_PCOD8294706
_publ_section_title
;
Structure prediction by ZEFSAII (Michael W. Deem and Ramdas Pophale) SiO2 
 PCOD8294706
Probable space group: I B A M
;
_chemical_formula_sum "Si O2"
_cell_formula_units_Z 116
_cell_length_a 27.302828
_cell_length_b 11.202014
_cell_length_c 19.252871
_cell_angle_alpha 90.000000
_cell_angle_beta 90.000000
_cell_angle_gamma 90.000000
_cell_volume 5888.426320
_symmetry_space_group_name_H-M "I B A M"
_symmetry_group_IT_number 72
_symmetry_cell_setting 'orthorhombic'
loop_
_space_group_symop_operation_xyz
x,y,z
-x,-y,z
x,-y,1/2-z
-x,y,1/2-z
-x,-y,-z
x,y,-z
-x,y,1/2+z
x,-y,1/2+z
1/2+x,1/2+y,1/2+z
1/2-x,1/2-y,1/2+z
1/2+x,1/2-y,-z
1/2-x,1/2+y,-z
1/2-x,1/2-y,1/2-z
1/2+x,1/2+y,1/2-z
1/2-x,1/2+y,z
1/2+x,1/2-y,z
loop_
_atom_site_type_symbol
_atom_site_label
_atom_site_fract_x
_atom_site_fract_y
_atom_site_fract_z
Si Si1 0.323906 0.514623 0.825109
Si Si2 0.382421 0.822318 0.078183
Si Si3 0.054123 0.376644 0.280075
Si Si4 0.718355 0.298533 0.920378
Si Si5 0.404000 0.904093 0.421953
Si Si6 0.580157 0.667507 0.307118
Si Si7 0.675685 0.703380 0.079487
Si Si8 0.500000 0.500000 0.750000
O O1 0.297723 0.500000 0.750000
O O2 0.285861 0.583434 0.873929
O O3 0.372904 0.585397 0.807475
O O4 0.340925 0.395526 0.865168
O O5 0.326570 0.789161 0.097068
O O6 0.421723 0.747251 0.122977
O O7 0.386080 0.962279 0.090642
O O8 0.395018 0.786362 0.000000
O O9 0.077042 0.500000 0.250000
O O10 0.054358 0.376642 0.364362
O O11 0.085138 0.261854 0.256128
O O12 0.000000 0.361330 0.250000
O O13 0.768344 0.232473 0.902152
O O14 0.717952 0.340863 0.000000
O O15 0.425828 0.887427 0.500000
O O16 0.357184 0.820429 0.410267
O O17 0.532374 0.584072 0.300183
O O18 0.670719 0.656476 0.000000
#
# Coordination Sequence:
#
# PCOD8294706 Si02
#       8
#    16  16  16  16  16  16  16   4
#     4  11  22  37  58  86 129 164 200 258 311 362
#     4   9  19  38  62  88 122 159 204 257 309 360
#     4  11  22  40  66  91 116 156 207 249 305 381
#     4   9  20  37  60  85 118 167 213 249 296 366
#     4  10  21  38  62  93 124 157 202 261 309 351
#     4  11  22  40  62  90 117 161 207 248 308 375
#     4  10  22  38  62  91 123 165 212 253 299 361
#     4  12  24  40  68  84 116 160 212 256 288 384
#
# _framework density 19.699660999999999
#
# number of rings (size 3 to 8) (size 9 to 14) (size 15 to 20)
#    0.000    1.793    2.759    1.241    1.931    1.103 
#    0.000    3.103    0.000    0.000    0.000    0.000 
#    0.000    0.000    0.000    0.000    0.000    0.000 
#
# Total GULP energy -719058.052839 kJ/mol
# GULP energy per Si atom -12397.552635 kJ/mol
# Density = 1.965482 g / cm^3
# Si number density = 19.699661 Si / 1000 Ang^3
#
#
#
# Elastic Constant Matrix: (Units=GPa)
#
#
# Indices 1 2 3 4 5 6 
#
# 1 79.5391 41.3581 55.8526 0.0000 0.0000 0.0000
# 2 41.3581 137.2319 73.7204 0.0000 0.0000 0.0000
# 3 55.8526 73.7204 155.7209 0.0000 0.0000 0.0000
# 4 0.0000 0.0000 0.0000 33.9080 0.0000 0.0000
# 5 0.0000 0.0000 0.0000 0.0000 26.5639 0.0000
# 6 0.0000 0.0000 0.0000 0.0000 0.0000 24.6125
#
#
#
# Elastic Compliance Matrix: (Units=1/GPa)
#
#
# Indices 1 2 3 4 5 6 
#
# 1 0.017442 -0.002543 -0.005052 0.000000 0.000000 0.000000
# 2 -0.002543 0.010143 -0.003890 0.000000 0.000000 0.000000
# 3 -0.005052 -0.003890 0.010075 0.000000 0.000000 0.000000
# 4 0.000000 0.000000 0.000000 0.029492 0.000000 0.000000
# 5 0.000000 0.000000 0.000000 0.000000 0.037645 0.000000
# 6 0.000000 0.000000 0.000000 0.000000 0.000000 0.040630
#
#
# Mechanical properties :
#
#
# Convention : Reuss Voigt Hill
#
# Bulk Modulus (GPa) = 68.06880 79.37266 73.72073
# Shear Modulus (GPa) = 28.85285 30.45428 29.65356
#
# Velocity S-wave (km/s) = 3.83121 3.93610 3.88401
# Velocity P-wave (km/s) = 7.36201 7.81255 7.59062
#
# Compressibility (1/GPa) = 0.01469102
#
# Stress axis : x y z
#
# Youngs Moduli (GPa) = 57.33198 98.59247 99.25206
#
# Poissons Ratio (x) = 0.25067 0.50146
# Poissons Ratio (y) = 0.14577 0.38607
# Poissons Ratio (z) = 0.28966 0.38350
#
# Static dielectric constant tensor:
#      x y z
#    x 3.317540 0.000000 0.000000 
#    y 0.000000 3.865190 0.000000 
#    z 0.000000 0.000000 3.973890 
# 
# 
# High freq. dielectric constant tensor:
#      x y z
#    x 1.743290 0.000000 0.000000 
#    y 0.000000 1.782920 0.000000 
#    z 0.000000 0.000000 1.776830 
# 
# From -- ./inp_files/29705.got.cif
#   From: 2010.03.12/outbox.cif.g09.slc.cpg/sg72_15_cif.got.tgz:29705.got - 2010.04.16 14:54:00.
