data_PCOD8294212
_publ_section_title
;
Structure prediction by ZEFSAII (Michael W. Deem and Ramdas Pophale) SiO2 
 PCOD8294212
Probable space group: I B A M
;
_chemical_formula_sum "Si O2"
_cell_formula_units_Z 112
_cell_length_a 16.132514
_cell_length_b 15.358536
_cell_length_c 21.815259
_cell_angle_alpha 90.000000
_cell_angle_beta 90.000000
_cell_angle_gamma 90.000000
_cell_volume 5405.205925
_symmetry_space_group_name_H-M "I B A M"
_symmetry_group_IT_number 72
_symmetry_cell_setting 'orthorhombic'
loop_
_space_group_symop_operation_xyz
x,y,z
-x,-y,z
x,-y,1/2-z
-x,y,1/2-z
-x,-y,-z
x,y,-z
-x,y,1/2+z
x,-y,1/2+z
1/2+x,1/2+y,1/2+z
1/2-x,1/2-y,1/2+z
1/2+x,1/2-y,-z
1/2-x,1/2+y,-z
1/2-x,1/2-y,1/2-z
1/2+x,1/2+y,1/2-z
1/2-x,1/2+y,z
1/2+x,1/2-y,z
loop_
_atom_site_type_symbol
_atom_site_label
_atom_site_fract_x
_atom_site_fract_y
_atom_site_fract_z
Si Si1 0.563735 0.295201 0.195744
Si Si2 0.486869 0.752312 0.569164
Si Si3 0.932275 0.562188 0.068601
Si Si4 0.296520 0.256185 0.931072
Si Si5 0.279197 0.616557 0.153540
Si Si6 0.193780 0.332765 0.762397
Si Si7 0.743324 0.069159 0.123203
O O1 0.500000 0.321106 0.250000
O O2 0.520662 0.300224 0.128289
O O3 0.637128 0.366206 0.192542
O O4 0.603156 0.199651 0.213847
O O5 0.496435 0.708359 0.500000
O O6 0.538234 0.839726 0.568136
O O7 0.390577 0.771855 0.581911
O O8 0.850067 0.550790 0.105986
O O9 0.000000 0.500000 0.100311
O O10 0.914897 0.528239 0.000000
O O11 0.232253 0.198381 0.892238
O O12 0.287105 0.359756 0.919989
O O13 0.270533 0.236750 0.000000
O O14 0.197098 0.614060 0.197941
O O15 0.290117 0.523902 0.119577
O O16 0.250000 0.250000 0.750000
O O17 0.242789 0.393773 0.808842
#
# Coordination Sequence:
#
# PCOD8294212 Si02
#       7
#    16  16  16  16  16  16  16
#     4  11  22  39  68  93 126 175 222 271 333 393
#     4  10  21  39  62  89 126 171 212 271 334 392
#     4  10  20  36  60  94 131 163 205 264 331 395
#     4  11  23  41  68  97 130 174 224 269 327 402
#     4  11  24  41  65  95 132 171 215 281 327 397
#     4  10  20  41  64  89 122 170 210 269 324 384
#     4  12  22  40  68  91 132 171 224 265 332 388
#
# _framework density 20.720765
#
# number of rings (size 3 to 8) (size 9 to 14) (size 15 to 20)
#    0.000    1.286    4.286    2.571    2.000    4.000 
#    0.000    0.714    3.143    1.714    0.000    0.000 
#    0.000    0.000    0.000    0.000    0.000    0.000 
#
# Total GULP energy -693923.357899 kJ/mol
# GULP energy per Si atom -12391.488534 kJ/mol
# Density = 2.067360 g / cm^3
# Si number density = 20.720765 Si / 1000 Ang^3
#
#
#
# Elastic Constant Matrix: (Units=GPa)
#
#
# Indices 1 2 3 4 5 6 
#
# 1 86.5148 30.4311 53.8531 0.0000 0.0000 0.0000
# 2 30.4311 88.5479 23.7734 0.0000 0.0000 0.0000
# 3 53.8531 23.7734 120.7498 0.0000 0.0000 0.0000
# 4 0.0000 0.0000 0.0000 23.4992 0.0000 0.0000
# 5 0.0000 0.0000 0.0000 0.0000 46.3963 0.0000
# 6 0.0000 0.0000 0.0000 0.0000 0.0000 29.3559
#
#
#
# Elastic Compliance Matrix: (Units=1/GPa)
#
#
# Indices 1 2 3 4 5 6 
#
# 1 0.017298 -0.004090 -0.006910 0.000000 0.000000 0.000000
# 2 -0.004090 0.012891 -0.000714 0.000000 0.000000 0.000000
# 3 -0.006910 -0.000714 0.011504 0.000000 0.000000 0.000000
# 4 0.000000 0.000000 0.000000 0.042555 0.000000 0.000000
# 5 0.000000 0.000000 0.000000 0.000000 0.021553 0.000000
# 6 0.000000 0.000000 0.000000 0.000000 0.000000 0.034065
#
#
# Mechanical properties :
#
#
# Convention : Reuss Voigt Hill
#
# Bulk Modulus (GPa) = 54.74676 56.88088 55.81382
# Shear Modulus (GPa) = 29.51929 32.36728 30.94328
#
# Velocity S-wave (km/s) = 3.77851 3.95659 3.86858
# Velocity P-wave (km/s) = 6.74646 6.95583 6.85195
#
# Compressibility (1/GPa) = 0.01826592
#
# Stress axis : x y z
#
# Youngs Moduli (GPa) = 57.80891 77.57636 86.92785
#
# Poissons Ratio (x) = 0.31727 0.60064
# Poissons Ratio (y) = 0.23643 0.06206
# Poissons Ratio (z) = 0.39944 0.05538
#
# Static dielectric constant tensor:
#      x y z
#    x 3.806050 0.000000 0.000000 
#    y 0.000000 3.676720 0.000000 
#    z 0.000000 0.000000 4.195150 
# 
# 
# High freq. dielectric constant tensor:
#      x y z
#    x 1.803300 0.000000 0.000000 
#    y 0.000000 1.786320 0.000000 
#    z 0.000000 0.000000 1.826660 
# 
# From -- ./inp_files/44340.got.cif
#   From: 2010.03.12/outbox.cif.g09.slc.cpg/sg72_23_cif.got.tgz:44340.got - 2010.04.16 14:54:00.
