data_PCOD8294495
_publ_section_title
;
Structure prediction by ZEFSAII (Michael W. Deem and Ramdas Pophale) SiO2 
 PCOD8294495
Probable space group: I B A M
;
_chemical_formula_sum "Si O2"
_cell_formula_units_Z 96
_cell_length_a 28.708997
_cell_length_b 10.241296
_cell_length_c 18.489628
_cell_angle_alpha 90.000000
_cell_angle_beta 90.000000
_cell_angle_gamma 90.000000
_cell_volume 5436.271171
_symmetry_space_group_name_H-M "I B A M"
_symmetry_group_IT_number 72
_symmetry_cell_setting 'orthorhombic'
loop_
_space_group_symop_operation_xyz
x,y,z
-x,-y,z
x,-y,1/2-z
-x,y,1/2-z
-x,-y,-z
x,y,-z
-x,y,1/2+z
x,-y,1/2+z
1/2+x,1/2+y,1/2+z
1/2-x,1/2-y,1/2+z
1/2+x,1/2-y,-z
1/2-x,1/2+y,-z
1/2-x,1/2-y,1/2-z
1/2+x,1/2+y,1/2-z
1/2-x,1/2+y,z
1/2+x,1/2-y,z
loop_
_atom_site_type_symbol
_atom_site_label
_atom_site_fract_x
_atom_site_fract_y
_atom_site_fract_z
Si Si1 0.289550 0.049025 0.586356
Si Si2 0.715449 0.245947 0.415652
Si Si3 0.111535 0.266930 0.583894
Si Si4 0.620436 0.023583 0.169996
Si Si5 0.517763 0.636482 0.084214
Si Si6 0.478061 0.866214 0.172495
O O1 0.294415 0.054956 0.500000
O O2 0.251430 0.150001 0.618577
O O3 0.275911 0.902122 0.612083
O O4 0.339270 0.087001 0.620701
O O5 0.724760 0.249532 0.500000
O O6 0.662640 0.290376 0.397334
O O7 0.110090 0.312048 0.500000
O O8 0.100957 0.391263 0.633710
O O9 0.072884 0.156405 0.599802
O O10 0.641126 0.000000 0.250000
O O11 0.577615 0.122984 0.178429
O O12 0.500000 0.500000 0.118052
O O13 0.487688 0.751442 0.117402
O O14 0.506848 0.638937 0.000000
O O15 0.500000 0.832553 0.250000
O O16 0.500000 0.000000 0.142056
#
# Coordination Sequence:
#
# PCOD8294495 Si02
#       6
#    16  16  16  16  16  16
#     4   9  18  33  52  75 100 132 169 209 255 306
#     4   8  15  30  51  72  96 128 167 201 243 304
#     4   9  17  32  53  72 101 141 169 201 260 318
#     4  11  19  32  53  78 102 130 173 220 256 295
#     4  10  21  35  51  79 111 135 168 217 268 313
#     4  11  20  36  55  76 102 139 181 215 251 313
#
# _framework density 17.659161999999998
#
# number of rings (size 3 to 8) (size 9 to 14) (size 15 to 20)
#    0.000    2.333    3.333    1.500    0.000    2.000 
#    3.000    3.333    0.000    0.000    0.000    0.000 
#    0.000    0.000    0.000    0.000    0.000    0.000 
#
# Total GULP energy -595031.073851 kJ/mol
# GULP energy per Si atom -12396.480705 kJ/mol
# Density = 1.761897 g / cm^3
# Si number density = 17.659162 Si / 1000 Ang^3
#
#
#
# Elastic Constant Matrix: (Units=GPa)
#
#
# Indices 1 2 3 4 5 6 
#
# 1 138.4655 62.5816 36.5940 0.0000 0.0000 0.0000
# 2 62.5816 91.0771 33.4762 0.0000 0.0000 0.0000
# 3 36.5940 33.4762 49.5621 0.0000 0.0000 0.0000
# 4 0.0000 0.0000 0.0000 21.7486 0.0000 0.0000
# 5 0.0000 0.0000 0.0000 0.0000 24.4384 0.0000
# 6 0.0000 0.0000 0.0000 0.0000 0.0000 31.0343
#
#
#
# Elastic Compliance Matrix: (Units=1/GPa)
#
#
# Indices 1 2 3 4 5 6 
#
# 1 0.011049 -0.006111 -0.004031 0.000000 0.000000 0.000000
# 2 -0.006111 0.017985 -0.007636 0.000000 0.000000 0.000000
# 3 -0.004031 -0.007636 0.028311 0.000000 0.000000 0.000000
# 4 0.000000 0.000000 0.000000 0.045980 0.000000 0.000000
# 5 0.000000 0.000000 0.000000 0.000000 0.040919 0.000000
# 6 0.000000 0.000000 0.000000 0.000000 0.000000 0.032222
#
#
# Mechanical properties :
#
#
# Convention : Reuss Voigt Hill
#
# Bulk Modulus (GPa) = 45.89293 60.48981 53.19137
# Shear Modulus (GPa) = 22.80143 25.20780 24.00461
#
# Velocity S-wave (km/s) = 3.59722 3.78228 3.69091
# Velocity P-wave (km/s) = 6.58011 7.30771 6.95343
#
# Compressibility (1/GPa) = 0.02178985
#
# Stress axis : x y z
#
# Youngs Moduli (GPa) = 90.50589 55.60122 35.32253
#
# Poissons Ratio (x) = 0.33975 0.14237
# Poissons Ratio (y) = 0.55304 0.26973
# Poissons Ratio (z) = 0.36480 0.42458
#
# Static dielectric constant tensor:
#      x y z
#    x 3.476120 0.000000 0.000000 
#    y 0.000000 3.320140 0.000000 
#    z 0.000000 0.000000 3.106870 
# 
# 
# High freq. dielectric constant tensor:
#      x y z
#    x 1.692790 0.000000 0.000000 
#    y 0.000000 1.661770 0.000000 
#    z 0.000000 0.000000 1.664580 
# 
# From -- ./inp_files/33869.got.cif
#   From: 2010.03.12/outbox.cif.g09.slc.cpg/sg72_17_cif.got.tgz:33869.got - 2010.04.16 14:54:00.
