data_PCOD8294321
_publ_section_title
;
Structure prediction by ZEFSAII (Michael W. Deem and Ramdas Pophale) SiO2 
 PCOD8294321
Probable space group: I B A M
;
_chemical_formula_sum "Si O2"
_cell_formula_units_Z 92
_cell_length_a 8.763932
_cell_length_b 20.073398
_cell_length_c 22.682396
_cell_angle_alpha 90.000000
_cell_angle_beta 90.000000
_cell_angle_gamma 90.000000
_cell_volume 3990.330089
_symmetry_space_group_name_H-M "I B A M"
_symmetry_group_IT_number 72
_symmetry_cell_setting 'orthorhombic'
loop_
_space_group_symop_operation_xyz
x,y,z
-x,-y,z
x,-y,1/2-z
-x,y,1/2-z
-x,-y,-z
x,y,-z
-x,y,1/2+z
x,-y,1/2+z
1/2+x,1/2+y,1/2+z
1/2-x,1/2-y,1/2+z
1/2+x,1/2-y,-z
1/2-x,1/2+y,-z
1/2-x,1/2-y,1/2-z
1/2+x,1/2+y,1/2-z
1/2-x,1/2+y,z
1/2+x,1/2-y,z
loop_
_atom_site_type_symbol
_atom_site_label
_atom_site_fract_x
_atom_site_fract_y
_atom_site_fract_z
Si Si1 0.690031 0.651143 0.065175
Si Si2 0.500000 0.500000 0.655091
Si Si3 0.500000 0.000000 0.250000
Si Si4 0.819319 0.292666 0.120549
Si Si5 0.897296 0.277759 0.695643
Si Si6 0.640285 0.405019 0.066079
Si Si7 0.735830 0.912438 0.319001
O O1 0.714253 0.728144 0.080853
O O2 0.509374 0.640259 0.067994
O O3 0.772968 0.600528 0.110355
O O4 0.755864 0.637087 0.000000
O O5 0.374843 0.464634 0.613026
O O6 0.400176 0.551812 0.694863
O O7 0.599891 0.956791 0.294438
O O8 0.707703 0.285173 0.177746
O O9 0.783105 0.359250 0.084343
O O10 0.993656 0.298938 0.141248
O O11 0.783857 0.339738 0.711376
O O12 0.000000 0.255079 0.750000
O O13 0.666865 0.433847 0.000000
#
# Coordination Sequence:
#
# PCOD8294321 Si02
#       7
#    16   8   4  16  16  16  16
#     4   9  19  40  65  94 132 170 216 273 338 411
#     4  10  23  43  66  88 130 178 234 266 332 418
#     4  12  24  46  66  92 140 174 228 292 340 386
#     4  11  21  38  63  96 130 169 217 267 339 413
#     4  11  23  42  63  94 133 173 218 278 336 394
#     4  10  20  37  64  95 128 168 216 275 331 404
#     4  10  24  42  67  93 130 178 226 282 336 395
#
# _framework density 23.055736
#
# number of rings (size 3 to 8) (size 9 to 14) (size 15 to 20)
#    0.000    1.739    2.609    1.304    2.435    1.043 
#    0.000    3.043    0.000    0.000    0.000    0.000 
#    0.000    0.000    0.000    0.000    0.000    0.000 
#
# Total GULP energy -570160.675585 kJ/mol
# GULP energy per Si atom -12394.797295 kJ/mol
# Density = 2.300326 g / cm^3
# Si number density = 23.055736 Si / 1000 Ang^3
#
#
#
# Elastic Constant Matrix: (Units=GPa)
#
#
# Indices 1 2 3 4 5 6 
#
# 1 91.3306 23.2409 32.2000 0.0000 0.0000 0.0000
# 2 23.2409 54.1016 17.3841 0.0000 0.0000 0.0000
# 3 32.2000 17.3841 69.9291 0.0000 0.0000 0.0000
# 4 0.0000 0.0000 0.0000 13.7147 0.0000 0.0000
# 5 0.0000 0.0000 0.0000 0.0000 19.4567 0.0000
# 6 0.0000 0.0000 0.0000 0.0000 0.0000 43.4784
#
#
#
# Elastic Compliance Matrix: (Units=1/GPa)
#
#
# Indices 1 2 3 4 5 6 
#
# 1 0.013920 -0.004260 -0.005350 0.000000 0.000000 0.000000
# 2 -0.004260 0.021392 -0.003356 0.000000 0.000000 0.000000
# 3 -0.005350 -0.003356 0.017598 0.000000 0.000000 0.000000
# 4 0.000000 0.000000 0.000000 0.072914 0.000000 0.000000
# 5 0.000000 0.000000 0.000000 0.000000 0.051396 0.000000
# 6 0.000000 0.000000 0.000000 0.000000 0.000000 0.023000
#
#
# Mechanical properties :
#
#
# Convention : Reuss Voigt Hill
#
# Bulk Modulus (GPa) = 37.06985 40.11236 38.59111
# Shear Modulus (GPa) = 21.26329 24.83239 23.04784
#
# Velocity S-wave (km/s) = 3.04016 3.28542 3.16517
# Velocity P-wave (km/s) = 5.33261 5.64161 5.48928
#
# Compressibility (1/GPa) = 0.02697610
#
# Stress axis : x y z
#
# Youngs Moduli (GPa) = 71.84027 46.74568 56.82371
#
# Poissons Ratio (x) = 0.19916 0.30403
# Poissons Ratio (y) = 0.30607 0.19072
# Poissons Ratio (z) = 0.38438 0.15689
#
# Static dielectric constant tensor:
#      x y z
#    x 4.161940 0.000000 0.000000 
#    y 0.000000 4.084610 0.000000 
#    z 0.000000 0.000000 4.263430 
# 
# 
# High freq. dielectric constant tensor:
#      x y z
#    x 1.901530 0.000000 0.000000 
#    y 0.000000 1.902860 0.000000 
#    z 0.000000 0.000000 1.907070 
# 
# From -- ./inp_files/42317.got.cif
#   From: 2010.03.12/outbox.cif.g09.slc.cpg/sg72_22_cif.got.tgz:42317.got - 2010.04.16 14:54:00.
