data_PCOD8294466
_publ_section_title
;
Structure prediction by ZEFSAII (Michael W. Deem and Ramdas Pophale) SiO2 
 PCOD8294466
Probable space group: I B A M
;
_chemical_formula_sum "Si O2"
_cell_formula_units_Z 96
_cell_length_a 25.133480
_cell_length_b 13.859961
_cell_length_c 13.270097
_cell_angle_alpha 90.000000
_cell_angle_beta 90.000000
_cell_angle_gamma 90.000000
_cell_volume 4622.625718
_symmetry_space_group_name_H-M "I B A M"
_symmetry_group_IT_number 72
_symmetry_cell_setting 'orthorhombic'
loop_
_space_group_symop_operation_xyz
x,y,z
-x,-y,z
x,-y,1/2-z
-x,y,1/2-z
-x,-y,-z
x,y,-z
-x,y,1/2+z
x,-y,1/2+z
1/2+x,1/2+y,1/2+z
1/2-x,1/2-y,1/2+z
1/2+x,1/2-y,-z
1/2-x,1/2+y,-z
1/2-x,1/2-y,1/2-z
1/2+x,1/2+y,1/2-z
1/2-x,1/2+y,z
1/2+x,1/2-y,z
loop_
_atom_site_type_symbol
_atom_site_label
_atom_site_fract_x
_atom_site_fract_y
_atom_site_fract_z
Si Si1 0.225941 0.846627 0.879172
Si Si2 0.037585 0.590514 0.613308
Si Si3 0.911636 0.836188 0.211343
Si Si4 0.123459 0.500000 0.750000
Si Si5 0.987510 0.788062 0.614453
Si Si6 0.832478 0.000000 0.750000
Si Si7 0.327892 0.811053 0.751489
O O1 0.285030 0.825886 0.839750
O O2 0.189777 0.758482 0.839650
O O3 0.204157 0.947614 0.833614
O O4 0.224945 0.851265 0.000000
O O5 0.054159 0.615440 0.500000
O O6 0.090972 0.560909 0.669201
O O7 0.000000 0.500000 0.622964
O O8 0.003853 0.681369 0.655777
O O9 0.939193 0.832680 0.321945
O O10 0.870615 0.923090 0.195997
O O11 0.879790 0.736182 0.195270
O O12 0.958228 0.850002 0.128591
O O13 0.159641 0.584589 0.799308
O O14 0.968018 0.788018 0.500000
#
# Coordination Sequence:
#
# PCOD8294466 Si02
#       7
#    16  16  16   8  16   8  16
#     4  10  23  45  68  91 127 167 213 277 335 391
#     4  10  21  33  51  82 119 160 201 239 293 365
#     4  10  21  39  61  89 127 169 202 265 313 370
#     4  12  20  34  62  87 125 158 196 252 314 372
#     4  10  21  37  57  88 126 169 214 254 308 379
#     4  10  23  43  66  95 125 161 224 269 328 388
#     4  10  22  39  63  96 126 163 213 259 326 402
#
# _framework density 20.767417999999999
#
# number of rings (size 3 to 8) (size 9 to 14) (size 15 to 20)
#    0.000    1.833    1.667    1.750    2.333    6.667 
#    0.000   12.500    0.000    0.000    0.000    0.000 
#    0.000    0.000    0.000    0.000    0.000    0.000 
#
# Total GULP energy -594894.061205 kJ/mol
# GULP energy per Si atom -12393.626275 kJ/mol
# Density = 2.072015 g / cm^3
# Si number density = 20.767418 Si / 1000 Ang^3
#
#
#
# Elastic Constant Matrix: (Units=GPa)
#
#
# Indices 1 2 3 4 5 6 
#
# 1 101.5518 34.3740 36.4806 0.0000 0.0000 0.0000
# 2 34.3740 113.3195 39.0992 0.0000 0.0000 0.0000
# 3 36.4806 39.0992 116.2749 0.0000 0.0000 0.0000
# 4 0.0000 0.0000 0.0000 113.8212 0.0000 0.0000
# 5 0.0000 0.0000 0.0000 0.0000 14.5301 0.0000
# 6 0.0000 0.0000 0.0000 0.0000 0.0000 -99.0583
#
#
#
# Elastic Compliance Matrix: (Units=1/GPa)
#
#
# Indices 1 2 3 4 5 6 
#
# 1 0.011733 -0.002589 -0.002811 0.000000 0.000000 0.000000
# 2 -0.002589 0.010554 -0.002737 0.000000 0.000000 0.000000
# 3 -0.002811 -0.002737 0.010402 0.000000 0.000000 0.000000
# 4 0.000000 0.000000 0.000000 0.008786 0.000000 0.000000
# 5 0.000000 0.000000 0.000000 0.000000 0.068823 0.000000
# 6 0.000000 0.000000 0.000000 0.000000 0.000000 -0.010095
#
#
# Mechanical properties :
#
#
# Convention : Reuss Voigt Hill
#
# Bulk Modulus (GPa) = 60.91324 61.22820 61.07072
# Shear Modulus (GPa) = 41.00087 20.60477 30.80282
#
# Velocity S-wave (km/s) = 4.44812 3.15329 3.85545
# Velocity P-wave (km/s) = 7.46832 6.54251 7.02069
#
# Compressibility (1/GPa) = 0.01641679
#
# Stress axis : x y z
#
# Youngs Moduli (GPa) = 85.22747 94.74812 96.13229
#
# Poissons Ratio (x) = 0.24534 0.27018
# Poissons Ratio (y) = 0.22069 0.26308
# Poissons Ratio (z) = 0.23953 0.25929
#
# Static dielectric constant tensor:
#      x y z
#    x 2.800100 0.000000 0.000000 
#    y 0.000000 4.082640 0.000000 
#    z 0.000000 0.000000 3.539790 
# 
# 
# High freq. dielectric constant tensor:
#      x y z
#    x 1.827740 0.000000 0.000000 
#    y 0.000000 1.823950 0.000000 
#    z 0.000000 0.000000 1.785150 
# 
# From -- ./inp_files/25141.got.cif
#   From: 2010.03.12/outbox.cif.g09.slc.cpg/sg72_13_cif.got.tgz:25141.got - 2010.04.16 14:54:00.
