data_PCOD8294651
_publ_section_title
;
Structure prediction by ZEFSAII (Michael W. Deem and Ramdas Pophale) SiO2 
 PCOD8294651
Probable space group: I B A M
;
_chemical_formula_sum "Si O2"
_cell_formula_units_Z 64
_cell_length_a 5.272666
_cell_length_b 16.953367
_cell_length_c 26.441591
_cell_angle_alpha 90.000000
_cell_angle_beta 90.000000
_cell_angle_gamma 90.000000
_cell_volume 2363.599059
_symmetry_space_group_name_H-M "I B A M"
_symmetry_group_IT_number 72
_symmetry_cell_setting 'orthorhombic'
loop_
_space_group_symop_operation_xyz
x,y,z
-x,-y,z
x,-y,1/2-z
-x,y,1/2-z
-x,-y,-z
x,y,-z
-x,y,1/2+z
x,-y,1/2+z
1/2+x,1/2+y,1/2+z
1/2-x,1/2-y,1/2+z
1/2+x,1/2-y,-z
1/2-x,1/2+y,-z
1/2-x,1/2-y,1/2-z
1/2+x,1/2+y,1/2-z
1/2-x,1/2+y,z
1/2+x,1/2-y,z
loop_
_atom_site_type_symbol
_atom_site_label
_atom_site_fract_x
_atom_site_fract_y
_atom_site_fract_z
Si Si1 0.911808 0.217389 0.306403
Si Si2 0.246241 0.959977 0.316714
Si Si3 0.284384 0.295255 0.939656
Si Si4 0.250389 0.472769 0.073046
O O1 0.693114 0.274397 0.332961
O O2 0.780266 0.132450 0.306105
O O3 0.000000 0.245557 0.250000
O O4 0.500000 0.000000 0.292746
O O5 0.248826 0.974441 0.376450
O O6 0.000000 0.000000 0.291451
O O7 0.553940 0.260477 0.921579
O O8 0.251122 0.380490 0.914428
O O9 0.275571 0.306200 0.000000
O O10 0.500000 0.500000 0.041794
O O11 0.000000 0.500000 0.042125
#
# Coordination Sequence:
#
# PCOD8294651 Si02
#       4
#    16  16  16  16
#     4  10  21  39  62  87 116 152 194 241 293 350
#     4  10  21  39  58  86 122 155 197 243 297 358
#     4  10  21  38  60  86 117 155 200 249 299 353
#     4  10  21  38  57  85 120 155 198 244 298 358
#
# _framework density 27.077352000000001
#
# number of rings (size 3 to 8) (size 9 to 14) (size 15 to 20)
#    0.000    2.000    0.000    3.000    0.000    1.500 
#    0.000   31.250    0.000    0.000    0.000    0.000 
#    0.000    0.000    0.000    0.000    0.000    0.000 
#
# Total GULP energy -396473.927286 kJ/mol
# GULP energy per Si atom -12389.810228 kJ/mol
# Density = 2.701572 g / cm^3
# Si number density = 27.077352 Si / 1000 Ang^3
#
#
#
# Elastic Constant Matrix: (Units=GPa)
#
#
# Indices 1 2 3 4 5 6 
#
# 1 347.8918 112.6310 2.4803 0.0000 0.0000 0.0000
# 2 112.6310 201.5067 -3.0964 0.0000 0.0000 0.0000
# 3 2.4803 -3.0964 38.2566 0.0000 0.0000 0.0000
# 4 0.0000 0.0000 0.0000 63.6792 0.0000 0.0000
# 5 0.0000 0.0000 0.0000 0.0000 -10.4739 0.0000
# 6 0.0000 0.0000 0.0000 0.0000 0.0000 65.9539
#
#
#
# Elastic Compliance Matrix: (Units=1/GPa)
#
#
# Indices 1 2 3 4 5 6 
#
# 1 0.003515 -0.001971 -0.000387 0.000000 0.000000 0.000000
# 2 -0.001971 0.006074 0.000619 0.000000 0.000000 0.000000
# 3 -0.000387 0.000619 0.026215 0.000000 0.000000 0.000000
# 4 0.000000 0.000000 0.000000 0.015704 0.000000 0.000000
# 5 0.000000 0.000000 0.000000 0.000000 -0.095476 0.000000
# 6 0.000000 0.000000 0.000000 0.000000 0.000000 0.015162
#
#
# Mechanical properties :
#
#
# Convention : Reuss Voigt Hill
#
# Bulk Modulus (GPa) = 30.93502 90.18722 60.56112
# Shear Modulus (GPa) = -343.56279 55.54119 -144.01080
#
# Velocity S-wave (km/s) = -11.27641 4.53394 -7.30071
# Velocity P-wave (km/s) = 12.57353 7.79669 6.97515
#
# Compressibility (1/GPa) = 0.03232582
#
# Stress axis : x y z
#
# Youngs Moduli (GPa) = 284.47322 164.64442 38.14676
#
# Poissons Ratio (x) = 0.32448 0.01478
# Poissons Ratio (y) = 0.56064 -0.02363
# Poissons Ratio (z) = 0.11021 -0.10198
#
# Static dielectric constant tensor:
#      x y z
#    x 9.207120 0.000000 0.000000 
#    y 0.000000 4.440690 0.000000 
#    z 0.000000 0.000000 4.700480 
# 
# 
# High freq. dielectric constant tensor:
#      x y z
#    x 2.132240 0.000000 0.000000 
#    y 0.000000 2.074170 0.000000 
#    z 0.000000 0.000000 2.092860 
# 
# From -- ./inp_files/50151.got.cif
#   From: 2010.03.12/outbox.cif.g09.slc.cpg/sg72_26_cif.got.tgz:50151.got - 2010.04.16 14:54:00.
