data_PCOD8294117
_publ_section_title
;
Structure prediction by ZEFSAII (Michael W. Deem and Ramdas Pophale) SiO2 
 PCOD8294117
Probable space group: I B A M
;
_chemical_formula_sum "Si O2"
_cell_formula_units_Z 96
_cell_length_a 14.122441
_cell_length_b 18.179595
_cell_length_c 18.854748
_cell_angle_alpha 90.000000
_cell_angle_beta 90.000000
_cell_angle_gamma 90.000000
_cell_volume 4840.772862
_symmetry_space_group_name_H-M "I B A M"
_symmetry_group_IT_number 72
_symmetry_cell_setting 'orthorhombic'
loop_
_space_group_symop_operation_xyz
x,y,z
-x,-y,z
x,-y,1/2-z
-x,y,1/2-z
-x,-y,-z
x,y,-z
-x,y,1/2+z
x,-y,1/2+z
1/2+x,1/2+y,1/2+z
1/2-x,1/2-y,1/2+z
1/2+x,1/2-y,-z
1/2-x,1/2+y,-z
1/2-x,1/2-y,1/2-z
1/2+x,1/2+y,1/2-z
1/2-x,1/2+y,z
1/2+x,1/2-y,z
loop_
_atom_site_type_symbol
_atom_site_label
_atom_site_fract_x
_atom_site_fract_y
_atom_site_fract_z
Si Si1 0.752426 0.079278 0.784697
Si Si2 0.571589 0.834442 0.310861
Si Si3 0.760805 0.502297 0.578832
Si Si4 0.948672 0.576868 0.579194
Si Si5 0.909072 0.174530 0.297470
Si Si6 0.560244 0.431044 0.078289
O O1 0.646415 0.108915 0.777964
O O2 0.826218 0.134455 0.747453
O O3 0.764226 0.000000 0.750000
O O4 0.764264 0.066907 0.869924
O O5 0.500000 0.817035 0.250000
O O6 0.511339 0.865419 0.376836
O O7 0.623111 0.755631 0.325660
O O8 0.790314 0.472314 0.500000
O O9 0.843410 0.556903 0.609552
O O10 0.670065 0.552195 0.571897
O O11 0.939449 0.609975 0.500000
O O12 0.000000 0.500000 0.578567
O O13 0.948247 0.133749 0.366403
O O14 0.000000 0.180991 0.250000
O O15 0.500000 0.500000 0.107361
O O16 0.521230 0.408330 0.000000
#
# Coordination Sequence:
#
# PCOD8294117 Si02
#       6
#    16  16  16  16  16  16
#     4  12  22  37  64  89 116 165 206 251 312 377
#     4  11  25  39  57  91 127 160 200 254 313 376
#     4  10  20  35  60  95 122 150 206 262 302 361
#     4  10  20  37  62  89 121 161 206 254 304 373
#     4  11  25  41  58  88 127 163 203 259 315 375
#     4  10  21  39  64  90 118 158 208 256 301 363
#
# _framework density 19.831543
#
# number of rings (size 3 to 8) (size 9 to 14) (size 15 to 20)
#    0.000    1.333    3.333    2.500    0.000    0.667 
#    0.000    0.000    0.000    1.000    0.000    0.000 
#    0.000    0.000    0.000    0.000    0.000    0.000 
#
# Total GULP energy -594684.041987 kJ/mol
# GULP energy per Si atom -12389.250875 kJ/mol
# Density = 1.978641 g / cm^3
# Si number density = 19.831543 Si / 1000 Ang^3
#
#
#
# Elastic Constant Matrix: (Units=GPa)
#
#
# Indices 1 2 3 4 5 6 
#
# 1 93.0112 32.5527 21.0259 0.0000 0.0000 0.0000
# 2 32.5527 108.1490 56.2041 0.0000 0.0000 0.0000
# 3 21.0259 56.2041 105.9424 0.0000 0.0000 0.0000
# 4 0.0000 0.0000 0.0000 35.2929 0.0000 0.0000
# 5 0.0000 0.0000 0.0000 0.0000 32.1988 0.0000
# 6 0.0000 0.0000 0.0000 0.0000 0.0000 37.3125
#
#
#
# Elastic Compliance Matrix: (Units=1/GPa)
#
#
# Indices 1 2 3 4 5 6 
#
# 1 0.012049 -0.003292 -0.000645 0.000000 0.000000 0.000000
# 2 -0.003292 0.013665 -0.006596 0.000000 0.000000 0.000000
# 3 -0.000645 -0.006596 0.013067 0.000000 0.000000 0.000000
# 4 0.000000 0.000000 0.000000 0.028334 0.000000 0.000000
# 5 0.000000 0.000000 0.000000 0.000000 0.031057 0.000000
# 6 0.000000 0.000000 0.000000 0.000000 0.000000 0.026801
#
#
# Mechanical properties :
#
#
# Convention : Reuss Voigt Hill
#
# Bulk Modulus (GPa) = 56.44930 58.51868 57.48399
# Shear Modulus (GPa) = 32.90676 34.11550 33.51113
#
# Velocity S-wave (km/s) = 4.07789 4.15211 4.11516
# Velocity P-wave (km/s) = 7.12028 7.24973 7.18530
#
# Compressibility (1/GPa) = 0.01771501
#
# Stress axis : x y z
#
# Youngs Moduli (GPa) = 82.99290 73.17778 76.53082
#
# Poissons Ratio (x) = 0.24087 0.04937
# Poissons Ratio (y) = 0.27317 0.50483
# Poissons Ratio (z) = 0.05354 0.48271
#
# Static dielectric constant tensor:
#      x y z
#    x 3.737550 0.000000 0.000000 
#    y 0.000000 3.732460 0.000000 
#    z 0.000000 0.000000 4.595980 
# 
# 
# High freq. dielectric constant tensor:
#      x y z
#    x 1.785980 0.000000 0.000000 
#    y 0.000000 1.750830 0.000000 
#    z 0.000000 0.000000 1.784700 
# 
# From -- ./inp_files/38033.got.cif
#   From: 2010.03.12/outbox.cif.g09.slc.cpg/sg72_20_cif.got.tgz:38033.got - 2010.04.16 14:54:00.
