data_PCOD8294765
_publ_section_title
;
Structure prediction by ZEFSAII (Michael W. Deem and Ramdas Pophale) SiO2 
 PCOD8294765
Probable space group: I B A M
;
_chemical_formula_sum "Si O2"
_cell_formula_units_Z 64
_cell_length_a 35.011849
_cell_length_b 5.028984
_cell_length_c 16.546598
_cell_angle_alpha 90.000000
_cell_angle_beta 90.000000
_cell_angle_gamma 90.000000
_cell_volume 2913.426167
_symmetry_space_group_name_H-M "I B A M"
_symmetry_group_IT_number 72
_symmetry_cell_setting 'orthorhombic'
loop_
_space_group_symop_operation_xyz
x,y,z
-x,-y,z
x,-y,1/2-z
-x,y,1/2-z
-x,-y,-z
x,y,-z
-x,y,1/2+z
x,-y,1/2+z
1/2+x,1/2+y,1/2+z
1/2-x,1/2-y,1/2+z
1/2+x,1/2-y,-z
1/2-x,1/2+y,-z
1/2-x,1/2-y,1/2-z
1/2+x,1/2+y,1/2-z
1/2-x,1/2+y,z
1/2+x,1/2-y,z
loop_
_atom_site_type_symbol
_atom_site_label
_atom_site_fract_x
_atom_site_fract_y
_atom_site_fract_z
Si Si1 0.356850 0.110855 0.406579
Si Si2 0.525324 0.241484 0.591166
Si Si3 0.227402 0.257597 0.903782
Si Si4 0.104318 0.895908 0.839790
O O1 0.355282 0.024587 0.500000
O O2 0.315784 0.205032 0.373027
O O3 0.386584 0.354952 0.398137
O O4 0.367895 0.852006 0.355283
O O5 0.500000 0.500000 0.591212
O O6 0.539188 0.171349 0.500000
O O7 0.561605 0.289181 0.647466
O O8 0.500000 0.000000 0.626588
O O9 0.255493 0.484581 0.869828
O O10 0.227266 0.260115 0.000000
O O11 0.110039 0.000000 0.750000
#
# Coordination Sequence:
#
# PCOD8294765 Si02
#       4
#    16  16  16  16
#     4  11  22  39  65  91 121 165 212 257 308 371
#     4  10  21  39  64  90 116 150 195 245 295 355
#     4   9  17  31  55  88 118 148 200 264 311 352
#     4  12  25  41  61  91 130 165 203 254 312 372
#
# _framework density 21.967262000000002
#
# number of rings (size 3 to 8) (size 9 to 14) (size 15 to 20)
#    0.000    1.500    0.000    6.000    0.000    6.500 
#    0.000    1.250    0.000   15.000    0.000    0.000 
#    0.000    0.000    0.000    0.000    0.000    0.000 
#
# Total GULP energy -396913.451618 kJ/mol
# GULP energy per Si atom -12403.545363 kJ/mol
# Density = 2.191726 g / cm^3
# Si number density = 21.967262 Si / 1000 Ang^3
#
#
#
# Elastic Constant Matrix: (Units=GPa)
#
#
# Indices 1 2 3 4 5 6 
#
# 1 107.7274 27.7518 32.6908 0.0000 0.0000 0.0000
# 2 27.7518 127.9938 17.5393 0.0000 0.0000 0.0000
# 3 32.6908 17.5393 46.7322 0.0000 0.0000 0.0000
# 4 0.0000 0.0000 0.0000 29.7138 0.0000 0.0000
# 5 0.0000 0.0000 0.0000 0.0000 9.9015 0.0000
# 6 0.0000 0.0000 0.0000 0.0000 0.0000 51.8736
#
#
#
# Elastic Compliance Matrix: (Units=1/GPa)
#
#
# Indices 1 2 3 4 5 6 
#
# 1 0.012065 -0.001539 -0.007862 0.000000 0.000000 0.000000
# 2 -0.001539 0.008433 -0.002089 0.000000 0.000000 0.000000
# 3 -0.007862 -0.002089 0.027682 0.000000 0.000000 0.000000
# 4 0.000000 0.000000 0.000000 0.033654 0.000000 0.000000
# 5 0.000000 0.000000 0.000000 0.000000 0.100995 0.000000
# 6 0.000000 0.000000 0.000000 0.000000 0.000000 0.019278
#
#
# Mechanical properties :
#
#
# Convention : Reuss Voigt Hill
#
# Bulk Modulus (GPa) = 39.68113 48.71301 44.19707
# Shear Modulus (GPa) = 21.41453 31.92921 26.67187
#
# Velocity S-wave (km/s) = 3.12563 3.81660 3.48827
# Velocity P-wave (km/s) = 5.57934 6.45332 6.03218
#
# Compressibility (1/GPa) = 0.02520089
#
# Stress axis : x y z
#
# Youngs Moduli (GPa) = 82.88473 118.58635 36.12393
#
# Poissons Ratio (x) = 0.18245 0.28402
# Poissons Ratio (y) = 0.12752 0.07545
# Poissons Ratio (z) = 0.65167 0.24769
#
# Static dielectric constant tensor:
#      x y z
#    x 4.033500 0.000000 0.000000 
#    y 0.000000 4.215140 0.000000 
#    z 0.000000 0.000000 3.587190 
# 
# 
# High freq. dielectric constant tensor:
#      x y z
#    x 1.874910 0.000000 0.000000 
#    y 0.000000 1.885780 0.000000 
#    z 0.000000 0.000000 1.825520 
# 
# From -- ./inp_files/34108.got.cif
#   From: 2010.03.12/outbox.cif.g09.slc.cpg/sg72_18_cif.got.tgz:34108.got - 2010.04.16 14:54:00.
