data_PCOD8294797
_publ_section_title
;
Structure prediction by ZEFSAII (Michael W. Deem and Ramdas Pophale) SiO2 
 PCOD8294797
Probable space group: I B A M
;
_chemical_formula_sum "Si O2"
_cell_formula_units_Z 80
_cell_length_a 20.065375
_cell_length_b 9.478066
_cell_length_c 20.551096
_cell_angle_alpha 90.000000
_cell_angle_beta 90.000000
_cell_angle_gamma 90.000000
_cell_volume 3908.426931
_symmetry_space_group_name_H-M "I B A M"
_symmetry_group_IT_number 72
_symmetry_cell_setting 'orthorhombic'
loop_
_space_group_symop_operation_xyz
x,y,z
-x,-y,z
x,-y,1/2-z
-x,y,1/2-z
-x,-y,-z
x,y,-z
-x,y,1/2+z
x,-y,1/2+z
1/2+x,1/2+y,1/2+z
1/2-x,1/2-y,1/2+z
1/2+x,1/2-y,-z
1/2-x,1/2+y,-z
1/2-x,1/2-y,1/2-z
1/2+x,1/2+y,1/2-z
1/2-x,1/2+y,z
1/2+x,1/2-y,z
loop_
_atom_site_type_symbol
_atom_site_label
_atom_site_fract_x
_atom_site_fract_y
_atom_site_fract_z
Si Si1 0.940648 0.781497 0.791582
Si Si2 0.228044 0.562298 0.351146
Si Si3 0.453086 0.366008 0.571417
Si Si4 0.378056 0.000000 0.750000
Si Si5 0.302007 0.659224 0.072081
Si Si6 0.165227 0.000000 0.250000
O O1 0.963804 0.760732 0.867237
O O2 0.924913 0.634984 0.756617
O O3 0.000000 0.851456 0.750000
O O4 0.877705 0.886390 0.789658
O O5 0.167120 0.486569 0.314345
O O6 0.249399 0.461795 0.410020
O O7 0.202887 0.712347 0.377153
O O8 0.289564 0.585165 0.301567
O O9 0.500000 0.500000 0.582894
O O10 0.469896 0.297283 0.500000
O O11 0.375486 0.409849 0.572103
O O12 0.283767 0.714394 0.000000
#
# Coordination Sequence:
#
# PCOD8294797 Si02
#       6
#    16  16  16   8  16   8
#     4  12  23  39  64  92 119 162 215 267 309 376
#     4  11  21  39  60  89 130 163 203 255 316 376
#     4  10  21  40  63  90 124 165 212 267 316 365
#     4  11  23  40  58  88 129 163 198 258 332 367
#     4  11  22  38  63  92 127 166 210 253 310 383
#     4  11  21  36  62  92 121 159 210 258 310 365
#
# _framework density 20.468594
#
# number of rings (size 3 to 8) (size 9 to 14) (size 15 to 20)
#    0.000    1.000    4.000    3.600    0.000    3.200 
#    0.000    0.000    0.000    3.600    0.000    0.000 
#    0.000    0.000    0.000    0.000    0.000    0.000 
#
# Total GULP energy -495894.209314 kJ/mol
# GULP energy per Si atom -12397.355233 kJ/mol
# Density = 2.042201 g / cm^3
# Si number density = 20.468594 Si / 1000 Ang^3
#
#
#
# Elastic Constant Matrix: (Units=GPa)
#
#
# Indices 1 2 3 4 5 6 
#
# 1 99.1758 43.0383 54.7425 0.0000 0.0000 0.0000
# 2 43.0383 95.1834 39.2252 0.0000 0.0000 0.0000
# 3 54.7425 39.2252 155.3798 0.0000 0.0000 0.0000
# 4 0.0000 0.0000 0.0000 34.6917 0.0000 0.0000
# 5 0.0000 0.0000 0.0000 0.0000 28.7174 0.0000
# 6 0.0000 0.0000 0.0000 0.0000 0.0000 27.6292
#
#
#
# Elastic Compliance Matrix: (Units=1/GPa)
#
#
# Indices 1 2 3 4 5 6 
#
# 1 0.014311 -0.004903 -0.003804 0.000000 0.000000 0.000000
# 2 -0.004903 0.013406 -0.001657 0.000000 0.000000 0.000000
# 3 -0.003804 -0.001657 0.008194 0.000000 0.000000 0.000000
# 4 0.000000 0.000000 0.000000 0.028825 0.000000 0.000000
# 5 0.000000 0.000000 0.000000 0.000000 0.034822 0.000000
# 6 0.000000 0.000000 0.000000 0.000000 0.000000 0.036194
#
#
# Mechanical properties :
#
#
# Convention : Reuss Voigt Hill
#
# Bulk Modulus (GPa) = 65.86395 69.30567 67.58481
# Shear Modulus (GPa) = 30.95198 32.38985 31.67092
#
# Velocity S-wave (km/s) = 3.89288 3.98228 3.93783
# Velocity P-wave (km/s) = 7.24251 7.42144 7.33252
#
# Compressibility (1/GPa) = 0.01518281
#
# Stress axis : x y z
#
# Youngs Moduli (GPa) = 69.87850 74.59466 122.03553
#
# Poissons Ratio (x) = 0.36574 0.46423
# Poissons Ratio (y) = 0.34262 0.20219
# Poissons Ratio (z) = 0.26582 0.12359
#
# Static dielectric constant tensor:
#      x y z
#    x 3.836010 0.000000 0.000000 
#    y 0.000000 3.394710 0.000000 
#    z 0.000000 0.000000 4.146380 
# 
# 
# High freq. dielectric constant tensor:
#      x y z
#    x 1.807960 0.000000 0.000000 
#    y 0.000000 1.765160 0.000000 
#    z 0.000000 0.000000 1.824070 
# 
# From -- ./inp_files/35787.got.cif
#   From: 2010.03.12/outbox.cif.g09.slc.cpg/sg72_18_cif.got.tgz:35787.got - 2010.04.16 14:54:00.
