data_PCOD8294668
_publ_section_title
;
Structure prediction by ZEFSAII (Michael W. Deem and Ramdas Pophale) SiO2 
 PCOD8294668
Probable space group: I B A M
;
_chemical_formula_sum "Si O2"
_cell_formula_units_Z 80
_cell_length_a 13.986572
_cell_length_b 29.725276
_cell_length_c 9.981424
_cell_angle_alpha 90.000000
_cell_angle_beta 90.000000
_cell_angle_gamma 90.000000
_cell_volume 4149.824070
_symmetry_space_group_name_H-M "I B A M"
_symmetry_group_IT_number 72
_symmetry_cell_setting 'orthorhombic'
loop_
_space_group_symop_operation_xyz
x,y,z
-x,-y,z
x,-y,1/2-z
-x,y,1/2-z
-x,-y,-z
x,y,-z
-x,y,1/2+z
x,-y,1/2+z
1/2+x,1/2+y,1/2+z
1/2-x,1/2-y,1/2+z
1/2+x,1/2-y,-z
1/2-x,1/2+y,-z
1/2-x,1/2-y,1/2-z
1/2+x,1/2+y,1/2-z
1/2-x,1/2+y,z
1/2+x,1/2-y,z
loop_
_atom_site_type_symbol
_atom_site_label
_atom_site_fract_x
_atom_site_fract_y
_atom_site_fract_z
Si Si1 0.571752 0.160254 0.645962
Si Si2 0.907583 0.870219 0.157227
Si Si3 0.269193 0.290181 0.649325
Si Si4 0.797441 0.038378 0.346364
Si Si5 0.579628 0.943110 0.152031
O O1 0.500000 0.184380 0.750000
O O2 0.523858 0.164839 0.500000
O O3 0.674180 0.181512 0.646712
O O4 0.587877 0.109113 0.686750
O O5 0.853796 0.823709 0.195349
O O6 0.840164 0.912840 0.189988
O O7 0.000000 0.873533 0.250000
O O8 0.935788 0.870089 0.000000
O O9 0.291152 0.271272 0.500000
O O10 0.250000 0.250000 0.750000
O O11 0.821908 0.026237 0.500000
O O12 0.683912 0.036824 0.322280
O O13 0.842984 0.000000 0.250000
O O14 0.500000 0.965223 0.250000
O O15 0.545740 0.951579 0.000000
#
# Coordination Sequence:
#
# PCOD8294668 Si02
#       5
#    16  16  16  16  16
#     4   9  17  32  54  78 106 141 177 217 267 325
#     4  10  22  42  63  83 114 154 194 240 291 341
#     4  10  21  38  59  83 114 149 185 228 281 339
#     4  10  21  38  59  83 115 153 193 239 290 343
#     4   9  17  32  54  79 109 146 183 222 273 332
#
# _framework density 19.277925
#
# number of rings (size 3 to 8) (size 9 to 14) (size 15 to 20)
#    0.000    2.400    2.000    0.000    0.000    4.800 
#    0.000    8.000    0.000    0.000    0.000    0.000 
#    0.000    0.000    0.000    0.000    0.000    0.000 
#
# Total GULP energy -495779.870681 kJ/mol
# GULP energy per Si atom -12394.496767 kJ/mol
# Density = 1.923405 g / cm^3
# Si number density = 19.277925 Si / 1000 Ang^3
#
#
#
# Elastic Constant Matrix: (Units=GPa)
#
#
# Indices 1 2 3 4 5 6 
#
# 1 61.3027 34.6838 43.6223 0.0000 0.0001 -0.0002
# 2 34.6838 108.6790 71.0306 -0.0012 0.0001 -0.0001
# 3 43.6223 71.0306 110.3581 -0.0040 0.0014 -0.0008
# 4 0.0000 -0.0012 -0.0040 28.6461 0.0003 -0.0002
# 5 0.0001 0.0001 0.0014 0.0003 37.2080 -0.0001
# 6 -0.0002 -0.0001 -0.0008 -0.0002 -0.0001 1.6631
#
#
#
# Elastic Compliance Matrix: (Units=1/GPa)
#
#
# Indices 1 2 3 4 5 6 
#
# 1 0.023059 -0.002420 -0.007557 -0.000001 0.000000 -0.000001
# 2 -0.002420 0.016137 -0.009430 -0.000001 0.000000 -0.000004
# 3 -0.007557 -0.009430 0.018118 0.000002 -0.000001 0.000008
# 4 -0.000001 -0.000001 0.000002 0.034909 0.000000 0.000004
# 5 0.000000 0.000000 -0.000001 0.000000 0.026876 0.000002
# 6 -0.000001 -0.000004 0.000008 0.000004 0.000002 0.601273
#
#
# Mechanical properties :
#
#
# Convention : Reuss Voigt Hill
#
# Bulk Modulus (GPa) = 54.05325 64.33479 59.19402
# Shear Modulus (GPa) = 6.53294 22.23701 14.38497
#
# Velocity S-wave (km/s) = 1.84287 3.40000 2.73461
# Velocity P-wave (km/s) = 5.71210 6.98985 6.38303
#
# Compressibility (1/GPa) = 0.01850028
#
# Stress axis : x y z
#
# Youngs Moduli (GPa) = 43.36637 61.97039 55.19359
#
# Poissons Ratio (x) = 0.14995 0.41712
# Poissons Ratio (y) = 0.10494 0.52046
# Poissons Ratio (z) = 0.32774 0.58436
#
# Static dielectric constant tensor:
#      x y z
#    x 3.635010 -0.000010 0.000000 
#    y -0.000010 1.180060 -0.000010 
#    z 0.000000 -0.000010 3.723270 
# 
# 
# High freq. dielectric constant tensor:
#      x y z
#    x 1.743360 0.000000 0.000000 
#    y 0.000000 1.751490 0.000000 
#    z 0.000000 0.000000 1.752470 
# 
# From -- ./inp_files/11649.got.cif
#   From: 2010.03.12/outbox.cif.g09.slc.cpg/sg72_6_cif.got.tgz:11649.got - 2010.04.16 14:54:00.
