data_PCOD8294262
_publ_section_title
;
Structure prediction by ZEFSAII (Michael W. Deem and Ramdas Pophale) SiO2 
 PCOD8294262
Probable space group: I B A M
;
_chemical_formula_sum "Si O2"
_cell_formula_units_Z 80
_cell_length_a 25.587118
_cell_length_b 11.201240
_cell_length_c 13.883863
_cell_angle_alpha 90.000000
_cell_angle_beta 90.000000
_cell_angle_gamma 90.000000
_cell_volume 3979.218565
_symmetry_space_group_name_H-M "I B A M"
_symmetry_group_IT_number 72
_symmetry_cell_setting 'orthorhombic'
loop_
_space_group_symop_operation_xyz
x,y,z
-x,-y,z
x,-y,1/2-z
-x,y,1/2-z
-x,-y,-z
x,y,-z
-x,y,1/2+z
x,-y,1/2+z
1/2+x,1/2+y,1/2+z
1/2-x,1/2-y,1/2+z
1/2+x,1/2-y,-z
1/2-x,1/2+y,-z
1/2-x,1/2-y,1/2-z
1/2+x,1/2+y,1/2-z
1/2-x,1/2+y,z
1/2+x,1/2-y,z
loop_
_atom_site_type_symbol
_atom_site_label
_atom_site_fract_x
_atom_site_fract_y
_atom_site_fract_z
Si Si1 0.805998 0.308462 0.745293
Si Si2 0.089145 0.813836 0.713346
Si Si3 0.337622 0.010090 0.890201
Si Si4 0.558999 0.459269 0.608321
Si Si5 0.548237 0.083059 0.111702
O O1 0.750000 0.250000 0.750000
O O2 0.849750 0.213408 0.718153
O O3 0.804488 0.409741 0.664027
O O4 0.821396 0.361771 0.849197
O O5 0.067215 0.848657 0.818974
O O6 0.053596 0.704802 0.673250
O O7 0.091160 0.925099 0.640717
O O8 0.399566 0.994479 0.873403
O O9 0.321298 0.003085 0.000000
O O10 0.500000 0.500000 0.613746
O O11 0.575068 0.420003 0.500000
O O12 0.500000 0.000000 0.147393
O O13 0.540458 0.119253 0.000000
#
# Coordination Sequence:
#
# PCOD8294262 Si02
#       5
#    16  16  16  16  16
#     4  10  22  39  57  80 110 144 187 238 282 326
#     4  10  20  37  59  82 112 151 190 232 283 335
#     4   9  20  38  57  83 115 143 179 228 281 337
#     4  10  22  38  56  83 117 151 189 231 275 333
#     4   9  18  34  60  91 119 148 182 225 282 347
#
# _framework density 20.104448999999999
#
# number of rings (size 3 to 8) (size 9 to 14) (size 15 to 20)
#    0.000    2.400    0.000    1.800    0.000    8.800 
#    0.000   13.000    0.000    0.600    0.000    0.000 
#    0.000    0.000    0.000    0.000    0.000    0.000 
#
# Total GULP energy -495978.067616 kJ/mol
# GULP energy per Si atom -12399.451690 kJ/mol
# Density = 2.005869 g / cm^3
# Si number density = 20.104449 Si / 1000 Ang^3
#
#
#
# Elastic Constant Matrix: (Units=GPa)
#
#
# Indices 1 2 3 4 5 6 
#
# 1 124.9818 67.5321 48.8862 0.0000 0.0000 0.0000
# 2 67.5321 119.7994 64.3170 0.0000 0.0000 0.0000
# 3 48.8862 64.3170 147.2971 0.0000 0.0000 0.0000
# 4 0.0000 0.0000 0.0000 23.0980 0.0000 0.0000
# 5 0.0000 0.0000 0.0000 0.0000 23.5545 0.0000
# 6 0.0000 0.0000 0.0000 0.0000 0.0000 33.5375
#
#
#
# Elastic Compliance Matrix: (Units=1/GPa)
#
#
# Indices 1 2 3 4 5 6 
#
# 1 0.011696 -0.005890 -0.001310 0.000000 0.000000 0.000000
# 2 -0.005890 0.013869 -0.004101 0.000000 0.000000 0.000000
# 3 -0.001310 -0.004101 0.009015 0.000000 0.000000 0.000000
# 4 0.000000 0.000000 0.000000 0.043294 0.000000 0.000000
# 5 0.000000 0.000000 0.000000 0.000000 0.042455 0.000000
# 6 0.000000 0.000000 0.000000 0.000000 0.000000 0.029817
#
#
# Mechanical properties :
#
#
# Convention : Reuss Voigt Hill
#
# Bulk Modulus (GPa) = 83.48816 83.72767 83.60791
# Shear Modulus (GPa) = 28.29005 30.12754 29.20879
#
# Velocity S-wave (km/s) = 3.75527 3.87531 3.81576
# Velocity P-wave (km/s) = 7.77304 7.85880 7.81604
#
# Compressibility (1/GPa) = 0.01197775
#
# Stress axis : x y z
#
# Youngs Moduli (GPa) = 85.49871 72.10157 110.93170
#
# Poissons Ratio (x) = 0.42467 0.14532
# Poissons Ratio (y) = 0.50358 0.45496
# Poissons Ratio (z) = 0.11200 0.29570
#
# Static dielectric constant tensor:
#      x y z
#    x 3.433660 0.000000 0.000000 
#    y 0.000000 3.503970 0.000000 
#    z 0.000000 0.000000 3.991340 
# 
# 
# High freq. dielectric constant tensor:
#      x y z
#    x 1.770290 0.000000 0.000000 
#    y 0.000000 1.785130 0.000000 
#    z 0.000000 0.000000 1.797290 
# 
# From -- ./inp_files/24894.got.cif
#   From: 2010.03.12/outbox.cif.g09.slc.cpg/sg72_13_cif.got.tgz:24894.got - 2010.04.16 14:54:00.
