data_PCOD8294210
_publ_section_title
;
Structure prediction by ZEFSAII (Michael W. Deem and Ramdas Pophale) SiO2 
 PCOD8294210
Probable space group: I B A M
;
_chemical_formula_sum "Si O2"
_cell_formula_units_Z 112
_cell_length_a 22.285805
_cell_length_b 10.716608
_cell_length_c 24.241137
_cell_angle_alpha 90.000000
_cell_angle_beta 90.000000
_cell_angle_gamma 90.000000
_cell_volume 5789.467992
_symmetry_space_group_name_H-M "I B A M"
_symmetry_group_IT_number 72
_symmetry_cell_setting 'orthorhombic'
loop_
_space_group_symop_operation_xyz
x,y,z
-x,-y,z
x,-y,1/2-z
-x,y,1/2-z
-x,-y,-z
x,y,-z
-x,y,1/2+z
x,-y,1/2+z
1/2+x,1/2+y,1/2+z
1/2-x,1/2-y,1/2+z
1/2+x,1/2-y,-z
1/2-x,1/2+y,-z
1/2-x,1/2-y,1/2-z
1/2+x,1/2+y,1/2-z
1/2-x,1/2+y,z
1/2+x,1/2-y,z
loop_
_atom_site_type_symbol
_atom_site_label
_atom_site_fract_x
_atom_site_fract_y
_atom_site_fract_z
Si Si1 0.434188 0.015635 0.814302
Si Si2 0.772055 0.871372 0.715481
Si Si3 0.165421 0.139709 0.939158
Si Si4 0.870830 0.240029 0.141992
Si Si5 0.300079 0.096721 0.061753
Si Si6 0.436804 0.561139 0.563183
Si Si7 0.166038 0.623476 0.631046
O O1 0.404707 0.147923 0.828014
O O2 0.500000 0.000000 0.841570
O O3 0.439695 0.000000 0.750000
O O4 0.393961 0.901773 0.835086
O O5 0.750000 0.750000 0.750000
O O6 0.837041 0.844004 0.687920
O O7 0.723739 0.899439 0.668636
O O8 0.778032 0.000000 0.750000
O O9 0.229276 0.072289 0.934383
O O10 0.160633 0.237610 0.890420
O O11 0.114679 0.039567 0.929602
O O12 0.158704 0.201575 0.000000
O O13 0.819177 0.289393 0.100909
O O14 0.921714 0.169247 0.106754
O O15 0.332071 0.969207 0.079046
O O16 0.320339 0.131273 0.000000
O O17 0.500000 0.500000 0.579559
O O18 0.439081 0.612074 0.500000
#
# Coordination Sequence:
#
# PCOD8294210 Si02
#       7
#    16  16  16  16  16  16  16
#     4  10  23  43  62  85 113 158 209 259 306 357
#     4  12  25  40  63  93 129 166 210 267 325 382
#     4  10  21  35  59  90 123 161 197 246 305 374
#     4  11  22  40  64  90 120 164 202 255 317 378
#     4  10  20  36  60  93 122 151 194 248 313 381
#     4  10  23  41  61  88 126 166 207 249 305 375
#     4  11  21  37  62  86 122 156 197 251 309 371
#
# _framework density 19.345472000000001
#
# number of rings (size 3 to 8) (size 9 to 14) (size 15 to 20)
#    0.000    1.429    1.429    4.714    4.000    0.000 
#    0.000    0.000    0.000    2.571    0.000    0.000 
#    0.000    0.000    0.000    0.000    0.000    0.000 
#
# Total GULP energy -694406.148038 kJ/mol
# GULP energy per Si atom -12400.109786 kJ/mol
# Density = 1.930144 g / cm^3
# Si number density = 19.345472 Si / 1000 Ang^3
#
#
#
# Elastic Constant Matrix: (Units=GPa)
#
#
# Indices 1 2 3 4 5 6 
#
# 1 113.0577 22.2412 34.3450 0.0000 0.0000 0.0000
# 2 22.2412 72.4406 40.9833 0.0000 0.0000 0.0000
# 3 34.3450 40.9833 89.2251 0.0000 0.0000 0.0000
# 4 0.0000 0.0000 0.0000 29.4321 0.0000 0.0000
# 5 0.0000 0.0000 0.0000 0.0000 30.7307 0.0000
# 6 0.0000 0.0000 0.0000 0.0000 0.0000 32.8681
#
#
#
# Elastic Compliance Matrix: (Units=1/GPa)
#
#
# Indices 1 2 3 4 5 6 
#
# 1 0.010095 -0.001217 -0.003327 0.000000 0.000000 0.000000
# 2 -0.001217 0.018798 -0.008166 0.000000 0.000000 0.000000
# 3 -0.003327 -0.008166 0.016239 0.000000 0.000000 0.000000
# 4 0.000000 0.000000 0.000000 0.033976 0.000000 0.000000
# 5 0.000000 0.000000 0.000000 0.000000 0.032541 0.000000
# 6 0.000000 0.000000 0.000000 0.000000 0.000000 0.030425
#
#
# Mechanical properties :
#
#
# Convention : Reuss Voigt Hill
#
# Bulk Modulus (GPa) = 50.72982 52.20692 51.46837
# Shear Modulus (GPa) = 28.72502 30.41645 29.57074
#
# Velocity S-wave (km/s) = 3.85755 3.96950 3.91392
# Velocity P-wave (km/s) = 6.79124 6.93213 6.86205
#
# Compressibility (1/GPa) = 0.01971227
#
# Stress axis : x y z
#
# Youngs Moduli (GPa) = 99.05770 53.19720 61.58055
#
# Poissons Ratio (x) = 0.06476 0.20486
# Poissons Ratio (y) = 0.12059 0.50285
# Poissons Ratio (z) = 0.32953 0.43440
#
# Static dielectric constant tensor:
#      x y z
#    x 3.765260 0.000000 0.000000 
#    y 0.000000 3.519950 0.000000 
#    z 0.000000 0.000000 3.733100 
# 
# 
# High freq. dielectric constant tensor:
#      x y z
#    x 1.754930 0.000000 0.000000 
#    y 0.000000 1.749550 0.000000 
#    z 0.000000 0.000000 1.763180 
# 
# From -- ./inp_files/45427.got.cif
#   From: 2010.03.12/outbox.cif.g09.slc.cpg/sg72_23_cif.got.tgz:45427.got - 2010.04.16 14:54:00.
