data_PCOD8294746
_publ_section_title
;
Structure prediction by ZEFSAII (Michael W. Deem and Ramdas Pophale) SiO2 
 PCOD8294746
Probable space group: I B A M
;
_chemical_formula_sum "Si O2"
_cell_formula_units_Z 116
_cell_length_a 22.414474
_cell_length_b 27.764889
_cell_length_c 9.015161
_cell_angle_alpha 90.000000
_cell_angle_beta 90.000000
_cell_angle_gamma 90.000000
_cell_volume 5610.453670
_symmetry_space_group_name_H-M "I B A M"
_symmetry_group_IT_number 72
_symmetry_cell_setting 'orthorhombic'
loop_
_space_group_symop_operation_xyz
x,y,z
-x,-y,z
x,-y,1/2-z
-x,y,1/2-z
-x,-y,-z
x,y,-z
-x,y,1/2+z
x,-y,1/2+z
1/2+x,1/2+y,1/2+z
1/2-x,1/2-y,1/2+z
1/2+x,1/2-y,-z
1/2-x,1/2+y,-z
1/2-x,1/2-y,1/2-z
1/2+x,1/2+y,1/2-z
1/2-x,1/2+y,z
1/2+x,1/2-y,z
loop_
_atom_site_type_symbol
_atom_site_label
_atom_site_fract_x
_atom_site_fract_y
_atom_site_fract_z
Si Si1 0.629046 0.164674 0.326259
Si Si2 0.812715 0.887784 0.666708
Si Si3 0.760625 0.700285 0.832666
Si Si4 0.222353 0.452858 0.675329
Si Si5 0.559072 0.364392 0.325692
Si Si6 0.556754 0.256660 0.329261
Si Si7 0.600131 0.926384 0.668492
Si Si8 0.500000 0.000000 0.250000
O O1 0.633418 0.151425 0.500000
O O2 0.693759 0.164033 0.250661
O O3 0.609921 0.219679 0.299536
O O4 0.585584 0.125208 0.247205
O O5 0.801914 0.908557 0.500000
O O6 0.800736 0.830077 0.663288
O O7 0.769069 0.911401 0.785642
O O8 0.881850 0.895094 0.715111
O O9 0.750000 0.750000 0.750000
O O10 0.782744 0.711358 0.000000
O O11 0.250382 0.500000 0.750000
O O12 0.216264 0.457962 0.500000
O O13 0.156041 0.446492 0.740119
O O14 0.500000 0.387007 0.250000
O O15 0.548657 0.364797 0.500000
O O16 0.569922 0.309896 0.265694
O O17 0.500000 0.233477 0.250000
O O18 0.541121 0.260080 0.500000
O O19 0.619797 0.916873 0.500000
O O20 0.544069 0.963547 0.662280
#
# Coordination Sequence:
#
# PCOD8294746 Si02
#       8
#    16  16  16  16  16  16  16   4
#     4  11  23  39  58  85 121 161 209 263 321 380
#     4  10  21  39  62  89 124 165 207 254 315 378
#     4  11  22  36  58  87 124 167 210 261 319 380
#     4  12  25  43  69  96 125 160 204 258 317 381
#     4   9  18  35  59  87 123 164 205 250 299 360
#     4   9  19  35  54  80 116 161 207 252 301 363
#     4  12  26  45  67  91 121 160 210 265 327 386
#     4  12  30  48  72  94 126 164 220 276 338 404
#
# _framework density 20.675688999999998
#
# number of rings (size 3 to 8) (size 9 to 14) (size 15 to 20)
#    0.000    1.379    2.069    3.517    0.966    6.069 
#    0.000    2.759    0.000    0.414    0.000    2.897 
#    0.000    0.000    0.000    0.000    0.000    0.000 
#
# Total GULP energy -718814.078678 kJ/mol
# GULP energy per Si atom -12393.346184 kJ/mol
# Density = 2.062863 g / cm^3
# Si number density = 20.675689 Si / 1000 Ang^3
#
#
#
# Elastic Constant Matrix: (Units=GPa)
#
#
# Indices 1 2 3 4 5 6 
#
# 1 119.5399 31.7719 49.8717 0.0000 0.0000 0.0000
# 2 31.7719 72.4902 38.4954 0.0000 0.0000 0.0000
# 3 49.8717 38.4954 130.1779 0.0000 0.0000 0.0000
# 4 0.0000 0.0000 0.0000 24.7755 0.0000 0.0000
# 5 0.0000 0.0000 0.0000 0.0000 30.1604 0.0000
# 6 0.0000 0.0000 0.0000 0.0000 0.0000 28.3965
#
#
#
# Elastic Compliance Matrix: (Units=1/GPa)
#
#
# Indices 1 2 3 4 5 6 
#
# 1 0.010450 -0.002911 -0.003143 0.000000 0.000000 0.000000
# 2 -0.002911 0.017176 -0.003964 0.000000 0.000000 0.000000
# 3 -0.003143 -0.003964 0.010058 0.000000 0.000000 0.000000
# 4 0.000000 0.000000 0.000000 0.040362 0.000000 0.000000
# 5 0.000000 0.000000 0.000000 0.000000 0.033156 0.000000
# 6 0.000000 0.000000 0.000000 0.000000 0.000000 0.035216
#
#
# Mechanical properties :
#
#
# Convention : Reuss Voigt Hill
#
# Bulk Modulus (GPa) = 56.66201 62.49845 59.58023
# Shear Modulus (GPa) = 29.01296 30.13774 29.57535
#
# Velocity S-wave (km/s) = 3.75005 3.82205 3.78622
# Velocity P-wave (km/s) = 6.79817 7.05486 6.92770
#
# Compressibility (1/GPa) = 0.01764851
#
# Stress axis : x y z
#
# Youngs Moduli (GPa) = 95.69096 58.22094 99.42446
#
# Poissons Ratio (x) = 0.16951 0.31245
# Poissons Ratio (y) = 0.27860 0.39410
# Poissons Ratio (z) = 0.30072 0.23078
#
# Static dielectric constant tensor:
#      x y z
#    x 3.812440 0.000000 0.000000 
#    y 0.000000 3.921440 0.000000 
#    z 0.000000 0.000000 3.730630 
# 
# 
# High freq. dielectric constant tensor:
#      x y z
#    x 1.803640 0.000000 0.000000 
#    y 0.000000 1.799200 0.000000 
#    z 0.000000 0.000000 1.808510 
# 
# From -- ./inp_files/7278.got.cif
#   From: 2010.03.12/outbox.cif.g09.slc.cpg/sg72_4_cif.got.tgz:7278.got - 2010.04.16 14:54:00.
