data_PCOD8294840
_publ_section_title
;
Structure prediction by ZEFSAII (Michael W. Deem and Ramdas Pophale) SiO2 
 PCOD8294840
Probable space group: I B A M
;
_chemical_formula_sum "Si O2"
_cell_formula_units_Z 64
_cell_length_a 34.057379
_cell_length_b 5.129352
_cell_length_c 15.832863
_cell_angle_alpha 90.000000
_cell_angle_beta 90.000000
_cell_angle_gamma 90.000000
_cell_volume 2765.879017
_symmetry_space_group_name_H-M "I B A M"
_symmetry_group_IT_number 72
_symmetry_cell_setting 'orthorhombic'
loop_
_space_group_symop_operation_xyz
x,y,z
-x,-y,z
x,-y,1/2-z
-x,y,1/2-z
-x,-y,-z
x,y,-z
-x,y,1/2+z
x,-y,1/2+z
1/2+x,1/2+y,1/2+z
1/2-x,1/2-y,1/2+z
1/2+x,1/2-y,-z
1/2-x,1/2+y,-z
1/2-x,1/2-y,1/2-z
1/2+x,1/2+y,1/2-z
1/2-x,1/2+y,z
1/2+x,1/2-y,z
loop_
_atom_site_type_symbol
_atom_site_label
_atom_site_fract_x
_atom_site_fract_y
_atom_site_fract_z
Si Si1 0.607902 0.105823 0.157690
Si Si2 0.648826 0.623847 0.903355
Si Si3 0.525284 0.257554 0.904193
Si Si4 0.267471 0.738578 0.344605
O O1 0.634868 0.352730 0.136665
O O2 0.563487 0.208412 0.151765
O O3 0.617126 0.000000 0.250000
O O4 0.616246 0.855780 0.097708
O O5 0.685603 0.719979 0.847606
O O6 0.660814 0.572898 0.000000
O O7 0.500000 0.500000 0.867594
O O8 0.500000 0.000000 0.900639
O O9 0.538623 0.322822 0.000000
O O10 0.250000 0.750000 0.250000
O O11 0.247243 0.496504 0.392781
#
# Coordination Sequence:
#
# PCOD8294840 Si02
#       4
#    16  16  16  16
#     4  12  27  44  71 105 144 191 239 294 360 427
#     4  12  26  45  71 102 143 188 244 300 356 428
#     4  10  21  41  70 100 136 180 226 282 346 411
#     4  10  23  40  67  97 133 180 224 297 351 432
#
# _framework density 23.139116999999999
#
# number of rings (size 3 to 8) (size 9 to 14) (size 15 to 20)
#    0.000    1.000    0.000    6.000   10.500    3.500 
#    0.000    1.250    0.000    0.000    0.000    0.000 
#    0.000    0.000    0.000    0.000    0.000    0.000 
#
# Total GULP energy -396737.601684 kJ/mol
# GULP energy per Si atom -12398.050053 kJ/mol
# Density = 2.308645 g / cm^3
# Si number density = 23.139117 Si / 1000 Ang^3
#
#
#
# Elastic Constant Matrix: (Units=GPa)
#
#
# Indices 1 2 3 4 5 6 
#
# 1 125.1726 60.9541 56.1136 0.0000 0.0000 0.0000
# 2 60.9541 222.4462 40.8250 0.0000 0.0000 0.0000
# 3 56.1136 40.8250 90.2496 0.0000 0.0000 0.0000
# 4 0.0000 0.0000 0.0000 28.8255 0.0000 0.0000
# 5 0.0000 0.0000 0.0000 0.0000 38.7971 0.0000
# 6 0.0000 0.0000 0.0000 0.0000 0.0000 51.5755
#
#
#
# Elastic Compliance Matrix: (Units=1/GPa)
#
#
# Indices 1 2 3 4 5 6 
#
# 1 0.011893 -0.002074 -0.006457 0.000000 0.000000 0.000000
# 2 -0.002074 0.005264 -0.001092 0.000000 0.000000 0.000000
# 3 -0.006457 -0.001092 0.015589 0.000000 0.000000 0.000000
# 4 0.000000 0.000000 0.000000 0.034692 0.000000 0.000000
# 5 0.000000 0.000000 0.000000 0.000000 0.025775 0.000000
# 6 0.000000 0.000000 0.000000 0.000000 0.000000 0.019389
#
#
# Mechanical properties :
#
#
# Convention : Reuss Voigt Hill
#
# Bulk Modulus (GPa) = 74.06599 83.73930 78.90264
# Shear Modulus (GPa) = 36.67109 42.50466 39.58787
#
# Velocity S-wave (km/s) = 3.98529 4.29058 4.14075
# Velocity P-wave (km/s) = 7.29761 7.79830 7.55211
#
# Compressibility (1/GPa) = 0.01350147
#
# Stress axis : x y z
#
# Youngs Moduli (GPa) = 84.08037 189.96424 64.14896
#
# Poissons Ratio (x) = 0.39399 0.41419
# Poissons Ratio (y) = 0.17438 0.07003
# Poissons Ratio (z) = 0.54288 0.20739
#
# Static dielectric constant tensor:
#      x y z
#    x 3.996710 0.000000 0.000000 
#    y 0.000000 2.311340 0.000000 
#    z 0.000000 0.000000 3.944300 
# 
# 
# High freq. dielectric constant tensor:
#      x y z
#    x 1.917270 0.000000 0.000000 
#    y 0.000000 1.951850 0.000000 
#    z 0.000000 0.000000 1.889690 
# 
# From -- ./inp_files/34110.got.cif
#   From: 2010.03.12/outbox.cif.g09.slc.cpg/sg72_18_cif.got.tgz:34110.got - 2010.04.16 14:54:00.
