data_PCOD8294699
_publ_section_title
;
Structure prediction by ZEFSAII (Michael W. Deem and Ramdas Pophale) SiO2 
 PCOD8294699
Probable space group: I B A M
;
_chemical_formula_sum "Si O2"
_cell_formula_units_Z 64
_cell_length_a 4.977235
_cell_length_b 34.279275
_cell_length_c 17.144672
_cell_angle_alpha 90.000000
_cell_angle_beta 90.000000
_cell_angle_gamma 90.000000
_cell_volume 2925.155483
_symmetry_space_group_name_H-M "I B A M"
_symmetry_group_IT_number 72
_symmetry_cell_setting 'orthorhombic'
loop_
_space_group_symop_operation_xyz
x,y,z
-x,-y,z
x,-y,1/2-z
-x,y,1/2-z
-x,-y,-z
x,y,-z
-x,y,1/2+z
x,-y,1/2+z
1/2+x,1/2+y,1/2+z
1/2-x,1/2-y,1/2+z
1/2+x,1/2-y,-z
1/2-x,1/2+y,-z
1/2-x,1/2-y,1/2-z
1/2+x,1/2+y,1/2-z
1/2-x,1/2+y,z
1/2+x,1/2-y,z
loop_
_atom_site_type_symbol
_atom_site_label
_atom_site_fract_x
_atom_site_fract_y
_atom_site_fract_z
Si Si1 0.432715 0.104682 0.840008
Si Si2 0.008379 0.774609 0.159286
Si Si3 0.258537 0.473923 0.587057
Si Si4 0.441263 0.644275 0.409622
O O1 0.500000 0.106841 0.750000
O O2 0.308329 0.062592 0.859033
O O3 0.698970 0.114885 0.888881
O O4 0.204837 0.135862 0.858897
O O5 0.708631 0.760930 0.138105
O O6 0.000000 0.786145 0.250000
O O7 0.120227 0.810821 0.109238
O O8 0.500000 0.500000 0.623353
O O9 0.341770 0.459408 0.500000
O O10 0.000000 0.500000 0.581777
O O11 0.507550 0.638542 0.500000
#
# Coordination Sequence:
#
# PCOD8294699 Si02
#       4
#    16  16  16  16
#     4  12  25  43  66  95 131 171 218 268 323 387
#     4  10  21  38  61  90 126 167 211 263 325 388
#     4  10  21  39  64  92 124 161 201 251 312 375
#     4  12  25  42  66  95 130 171 218 271 326 387
#
# _framework density 21.879180000000002
#
# number of rings (size 3 to 8) (size 9 to 14) (size 15 to 20)
#    0.000    1.000    0.000    7.500    0.000    5.500 
#    0.000    1.250    0.000    0.000    0.000    0.000 
#    0.000    0.000    0.000    0.000    0.000    0.000 
#
# Total GULP energy -396892.170839 kJ/mol
# GULP energy per Si atom -12402.880339 kJ/mol
# Density = 2.182938 g / cm^3
# Si number density = 21.879180 Si / 1000 Ang^3
#
#
#
# Elastic Constant Matrix: (Units=GPa)
#
#
# Indices 1 2 3 4 5 6 
#
# 1 140.8676 39.0780 55.6153 0.0000 0.0000 0.0000
# 2 39.0780 110.2488 68.5255 0.0000 0.0000 0.0000
# 3 55.6153 68.5255 106.7810 0.0000 0.0000 0.0000
# 4 0.0000 0.0000 0.0000 41.8671 0.0000 0.0000
# 5 0.0000 0.0000 0.0000 0.0000 32.4454 0.0000
# 6 0.0000 0.0000 0.0000 0.0000 0.0000 43.4552
#
#
#
# Elastic Compliance Matrix: (Units=1/GPa)
#
#
# Indices 1 2 3 4 5 6 
#
# 1 0.008950 -0.000457 -0.004368 0.000000 0.000000 0.000000
# 2 -0.000457 0.015112 -0.009460 0.000000 0.000000 0.000000
# 3 -0.004368 -0.009460 0.017711 0.000000 0.000000 0.000000
# 4 0.000000 0.000000 0.000000 0.023885 0.000000 0.000000
# 5 0.000000 0.000000 0.000000 0.000000 0.030821 0.000000
# 6 0.000000 0.000000 0.000000 0.000000 0.000000 0.023012
#
#
# Mechanical properties :
#
#
# Convention : Reuss Voigt Hill
#
# Bulk Modulus (GPa) = 75.74285 76.03723 75.89004
# Shear Modulus (GPa) = 32.79471 36.53213 34.66342
#
# Velocity S-wave (km/s) = 3.87576 4.09066 3.98466
# Velocity P-wave (km/s) = 7.39747 7.55910 7.47872
#
# Compressibility (1/GPa) = 0.01320257
#
# Stress axis : x y z
#
# Youngs Moduli (GPa) = 111.72807 66.17072 56.46265
#
# Poissons Ratio (x) = 0.03027 0.24663
# Poissons Ratio (y) = 0.05111 0.53413
# Poissons Ratio (z) = 0.48803 0.62597
#
# Static dielectric constant tensor:
#      x y z
#    x 4.174170 0.000000 0.000000 
#    y 0.000000 3.820720 0.000000 
#    z 0.000000 0.000000 3.847830 
# 
# 
# High freq. dielectric constant tensor:
#      x y z
#    x 1.879210 0.000000 0.000000 
#    y 0.000000 1.868370 0.000000 
#    z 0.000000 0.000000 1.847950 
# 
# From -- ./inp_files/27006.got.cif
#   From: 2010.03.12/outbox.cif.g09.slc.cpg/sg72_14_cif.got.tgz:27006.got - 2010.04.16 14:54:00.
