data_PCOD8294502
_publ_section_title
;
Structure prediction by ZEFSAII (Michael W. Deem and Ramdas Pophale) SiO2 
 PCOD8294502
Probable space group: I B A M
;
_chemical_formula_sum "Si O2"
_cell_formula_units_Z 112
_cell_length_a 13.490936
_cell_length_b 23.903807
_cell_length_c 17.665018
_cell_angle_alpha 90.000000
_cell_angle_beta 90.000000
_cell_angle_gamma 90.000000
_cell_volume 5696.698567
_symmetry_space_group_name_H-M "I B A M"
_symmetry_group_IT_number 72
_symmetry_cell_setting 'orthorhombic'
loop_
_space_group_symop_operation_xyz
x,y,z
-x,-y,z
x,-y,1/2-z
-x,y,1/2-z
-x,-y,-z
x,y,-z
-x,y,1/2+z
x,-y,1/2+z
1/2+x,1/2+y,1/2+z
1/2-x,1/2-y,1/2+z
1/2+x,1/2-y,-z
1/2-x,1/2+y,-z
1/2-x,1/2-y,1/2-z
1/2+x,1/2+y,1/2-z
1/2-x,1/2+y,z
1/2+x,1/2-y,z
loop_
_atom_site_type_symbol
_atom_site_label
_atom_site_fract_x
_atom_site_fract_y
_atom_site_fract_z
Si Si1 0.242500 0.671787 0.321630
Si Si2 0.288409 0.942246 0.410906
Si Si3 0.009996 0.434664 0.333433
Si Si4 0.690066 0.930358 0.588209
Si Si5 0.641277 0.759734 0.913716
Si Si6 0.551554 0.752764 0.669345
Si Si7 0.202727 0.160445 0.851248
O O1 0.255060 0.612901 0.364165
O O2 0.325504 0.711351 0.356616
O O3 0.134760 0.699495 0.329194
O O4 0.264193 0.662572 0.234782
O O5 0.302636 0.936887 0.500000
O O6 0.385831 0.917601 0.369874
O O7 0.196211 0.904246 0.380590
O O8 0.273891 0.007278 0.388953
O O9 0.923557 0.417072 0.390719
O O10 0.000000 0.500000 0.321620
O O11 0.000000 0.405652 0.250000
O O12 0.705032 0.919257 0.500000
O O13 0.528077 0.773973 0.892075
O O14 0.712451 0.812809 0.904128
O O15 0.646700 0.739039 0.000000
O O16 0.500000 0.744629 0.750000
O O17 0.598992 0.693623 0.641061
#
# Coordination Sequence:
#
# PCOD8294502 Si02
#       7
#    16  16  16  16  16  16  16
#     4  11  22  37  62  87 118 154 194 243 296 358
#     4  10  21  36  53  81 120 156 197 248 295 350
#     4   9  17  30  48  72 107 150 194 231 280 346
#     4  10  21  35  53  81 118 157 197 243 297 356
#     4  11  23  39  60  89 120 151 192 245 299 354
#     4  11  21  41  62  87 117 154 197 246 302 350
#     4  11  22  38  63  86 117 158 197 245 296 359
#
# _framework density 19.660509999999999
#
# number of rings (size 3 to 8) (size 9 to 14) (size 15 to 20)
#    0.000    1.571    2.857    3.000    2.000    7.429 
#    0.000    0.000    0.000    0.857    0.000    3.000 
#    0.000    0.000    0.000    0.000    0.000    0.000 
#
# Total GULP energy -694313.156280 kJ/mol
# GULP energy per Si atom -12398.449219 kJ/mol
# Density = 1.961576 g / cm^3
# Si number density = 19.660510 Si / 1000 Ang^3
#
#
#
# Elastic Constant Matrix: (Units=GPa)
#
#
# Indices 1 2 3 4 5 6 
#
# 1 59.0002 16.2384 22.6312 0.0000 0.0000 0.0000
# 2 16.2384 81.2839 25.5086 0.0001 0.0001 0.0000
# 3 22.6312 25.5086 97.0561 0.0000 0.0001 0.0001
# 4 0.0000 0.0001 0.0000 32.8871 0.0001 0.0000
# 5 0.0000 0.0001 0.0001 0.0001 19.5165 0.0000
# 6 0.0000 0.0000 0.0001 0.0000 0.0000 16.7581
#
#
#
# Elastic Compliance Matrix: (Units=1/GPa)
#
#
# Indices 1 2 3 4 5 6 
#
# 1 0.019119 -0.002638 -0.003765 0.000000 0.000000 0.000000
# 2 -0.002638 0.013772 -0.003005 0.000000 0.000000 0.000000
# 3 -0.003765 -0.003005 0.011971 0.000000 0.000000 0.000000
# 4 0.000000 0.000000 0.000000 0.030407 0.000000 0.000000
# 5 0.000000 0.000000 0.000000 0.000000 0.051239 0.000000
# 6 0.000000 0.000000 0.000000 0.000000 0.000000 0.059673
#
#
# Mechanical properties :
#
#
# Convention : Reuss Voigt Hill
#
# Bulk Modulus (GPa) = 38.39114 40.67740 39.53427
# Shear Modulus (GPa) = 23.39962 25.36313 24.38137
#
# Velocity S-wave (km/s) = 3.45365 3.59563 3.52535
# Velocity P-wave (km/s) = 5.95592 6.16221 6.05995
#
# Compressibility (1/GPa) = 0.02604768
#
# Stress axis : x y z
#
# Youngs Moduli (GPa) = 52.30327 72.60856 83.53620
#
# Poissons Ratio (x) = 0.19154 0.31450
# Poissons Ratio (y) = 0.13798 0.25099
# Poissons Ratio (z) = 0.19691 0.21816
#
# Static dielectric constant tensor:
#      x y z
#    x 3.522620 0.000000 0.000000 
#    y 0.000000 3.734770 0.000000 
#    z 0.000000 0.000000 3.610460 
# 
# 
# High freq. dielectric constant tensor:
#      x y z
#    x 1.732800 0.000000 0.000000 
#    y 0.000000 1.767290 0.000000 
#    z 0.000000 0.000000 1.780170 
# 
# From -- ./inp_files/22076.got.cif
#   From: 2010.03.12/outbox.cif.g09.slc.cpg/sg72_12_cif.got.tgz:22076.got - 2010.04.16 14:54:00.
