data_PCOD8294895
_publ_section_title
;
Structure prediction by ZEFSAII (Michael W. Deem and Ramdas Pophale) SiO2 
 PCOD8294895
Probable space group: I B A M
;
_chemical_formula_sum "Si O2"
_cell_formula_units_Z 64
_cell_length_a 13.388632
_cell_length_b 14.683238
_cell_length_c 16.985708
_cell_angle_alpha 90.000000
_cell_angle_beta 90.000000
_cell_angle_gamma 90.000000
_cell_volume 3339.194350
_symmetry_space_group_name_H-M "I B A M"
_symmetry_group_IT_number 72
_symmetry_cell_setting 'orthorhombic'
loop_
_space_group_symop_operation_xyz
x,y,z
-x,-y,z
x,-y,1/2-z
-x,y,1/2-z
-x,-y,-z
x,y,-z
-x,y,1/2+z
x,-y,1/2+z
1/2+x,1/2+y,1/2+z
1/2-x,1/2-y,1/2+z
1/2+x,1/2-y,-z
1/2-x,1/2+y,-z
1/2-x,1/2-y,1/2-z
1/2+x,1/2+y,1/2-z
1/2-x,1/2+y,z
1/2+x,1/2-y,z
loop_
_atom_site_type_symbol
_atom_site_label
_atom_site_fract_x
_atom_site_fract_y
_atom_site_fract_z
Si Si1 0.114150 0.327088 0.771250
Si Si2 0.884640 0.996963 0.343572
Si Si3 0.221750 0.827387 0.345435
Si Si4 0.264164 0.858484 0.911545
O O1 0.143811 0.220163 0.783079
O O2 0.180316 0.364893 0.699437
O O3 0.143715 0.381692 0.851898
O O4 0.000000 0.341256 0.750000
O O5 0.832594 0.085562 0.383268
O O6 0.867614 0.000000 0.250000
O O7 0.836518 0.907286 0.381824
O O8 0.000000 0.000000 0.366712
O O9 0.254152 0.751429 0.409853
O O10 0.291437 0.888869 0.000000
#
# Coordination Sequence:
#
# PCOD8294895 Si02
#       4
#    16  16  16  16
#     4   9  18  36  62  80 111 164 206 238 298 373
#     4  11  21  35  64  94 120 160 210 249 296 366
#     4   9  20  36  59  86 119 159 200 251 296 366
#     4  10  22  38  56  89 127 156 198 256 306 358
#
# _framework density 19.1663
#
# number of rings (size 3 to 8) (size 9 to 14) (size 15 to 20)
#    1.500    0.750    2.500    0.000    7.000    1.500 
#    0.000    6.250    0.000    1.500    0.000    0.000 
#    0.000    0.000    0.000    0.000    0.000    0.000 
#
# Total GULP energy -396431.576112 kJ/mol
# GULP energy per Si atom -12388.486753 kJ/mol
# Density = 1.912268 g / cm^3
# Si number density = 19.166300 Si / 1000 Ang^3
#
#
#
# Elastic Constant Matrix: (Units=GPa)
#
#
# Indices 1 2 3 4 5 6 
#
# 1 170.3699 47.9991 56.9286 0.0000 0.0000 0.0000
# 2 47.9991 104.2040 12.8837 0.0000 0.0000 0.0000
# 3 56.9286 12.8837 91.6045 0.0000 0.0000 0.0000
# 4 0.0000 0.0000 0.0000 10.3277 0.0000 0.0000
# 5 0.0000 0.0000 0.0000 0.0000 10.4570 0.0000
# 6 0.0000 0.0000 0.0000 0.0000 0.0000 28.3131
#
#
#
# Elastic Compliance Matrix: (Units=1/GPa)
#
#
# Indices 1 2 3 4 5 6 
#
# 1 0.008377 -0.003272 -0.004746 0.000000 0.000000 0.000000
# 2 -0.003272 0.011044 0.000480 0.000000 0.000000 0.000000
# 3 -0.004746 0.000480 0.013798 0.000000 0.000000 0.000000
# 4 0.000000 0.000000 0.000000 0.096827 0.000000 0.000000
# 5 0.000000 0.000000 0.000000 0.000000 0.095630 0.000000
# 6 0.000000 0.000000 0.000000 0.000000 0.000000 0.035319
#
#
# Mechanical properties :
#
#
# Convention : Reuss Voigt Hill
#
# Bulk Modulus (GPa) = 55.11372 66.86681 60.99026
# Shear Modulus (GPa) = 17.72297 26.37736 22.05017
#
# Velocity S-wave (km/s) = 3.04418 3.71379 3.39553
# Velocity P-wave (km/s) = 6.41670 7.30432 6.87485
#
# Compressibility (1/GPa) = 0.01814430
#
# Stress axis : x y z
#
# Youngs Moduli (GPa) = 119.37066 90.54386 72.47214
#
# Poissons Ratio (x) = 0.29626 0.34395
# Poissons Ratio (y) = 0.39058 -0.03479
# Poissons Ratio (z) = 0.56653 -0.04347
#
# Static dielectric constant tensor:
#      x y z
#    x 3.254540 0.000000 0.000000 
#    y 0.000000 3.404790 0.000000 
#    z 0.000000 0.000000 3.171190 
# 
# 
# High freq. dielectric constant tensor:
#      x y z
#    x 1.728640 0.000000 0.000000 
#    y 0.000000 1.735320 0.000000 
#    z 0.000000 0.000000 1.715740 
# 
# From -- ./inp_files/28954.got.cif
#   From: 2010.03.12/outbox.cif.g09.slc.cpg/sg72_15_cif.got.tgz:28954.got - 2010.04.16 14:54:00.
