data_PCOD8294011
_publ_section_title
;
Structure prediction by ZEFSAII (Michael W. Deem and Ramdas Pophale) SiO2 
 PCOD8294011
Probable space group: I B A M
;
_chemical_formula_sum "Si O2"
_cell_formula_units_Z 116
_cell_length_a 26.851137
_cell_length_b 26.507212
_cell_length_c 8.770174
_cell_angle_alpha 90.000000
_cell_angle_beta 90.000000
_cell_angle_gamma 90.000000
_cell_volume 6242.160653
_symmetry_space_group_name_H-M "I B A M"
_symmetry_group_IT_number 72
_symmetry_cell_setting 'orthorhombic'
loop_
_space_group_symop_operation_xyz
x,y,z
-x,-y,z
x,-y,1/2-z
-x,y,1/2-z
-x,-y,-z
x,y,-z
-x,y,1/2+z
x,-y,1/2+z
1/2+x,1/2+y,1/2+z
1/2-x,1/2-y,1/2+z
1/2+x,1/2-y,-z
1/2-x,1/2+y,-z
1/2-x,1/2-y,1/2-z
1/2+x,1/2+y,1/2-z
1/2-x,1/2+y,z
1/2+x,1/2-y,z
loop_
_atom_site_type_symbol
_atom_site_label
_atom_site_fract_x
_atom_site_fract_y
_atom_site_fract_z
Si Si1 0.000000 0.000000 0.250000
Si Si2 0.133117 0.258540 0.317748
Si Si3 0.214253 0.551207 0.180487
Si Si4 0.213681 0.183866 0.674101
Si Si5 0.317969 0.425808 0.825614
Si Si6 0.583312 0.575099 0.330962
Si Si7 0.947401 0.185587 0.318780
Si Si8 0.681050 0.848599 0.682393
O O1 0.036583 0.036736 0.155898
O O2 0.128767 0.258655 0.500000
O O3 0.183177 0.230442 0.255879
O O4 0.087470 0.229042 0.246784
O O5 0.135827 0.315500 0.251514
O O6 0.191848 0.500000 0.250000
O O7 0.272556 0.553739 0.225305
O O8 0.180001 0.594829 0.253606
O O9 0.209016 0.552487 0.000000
O O10 0.224399 0.195761 0.500000
O O11 0.179309 0.134477 0.692066
O O12 0.267542 0.175442 0.749830
O O13 0.371386 0.447369 0.770330
O O14 0.308663 0.442397 0.000000
O O15 0.604573 0.583226 0.500000
O O16 0.566934 0.629220 0.262433
O O17 0.948469 0.188247 0.500000
O O18 0.000000 0.199703 0.250000
O O19 0.678581 0.850422 0.500000
#
# Coordination Sequence:
#
# PCOD8294011 Si02
#       8
#     4  16  16  16  16  16  16  16
#     4  12  26  44  56  74 102 136 188 254 304 348
#     4  11  20  34  55  82 110 145 181 224 280 337
#     4  11  22  38  57  80 110 148 187 226 271 324
#     4   8  16  30  50  76 106 140 175 215 269 325
#     4  10  20  36  56  77 103 138 180 230 280 335
#     4  11  24  40  57  76  99 134 182 238 298 349
#     4  11  23  40  59  80 104 140 184 233 290 349
#     4  10  20  35  53  81 115 148 184 225 268 327
#
# _framework density 18.583310000000001
#
# number of rings (size 3 to 8) (size 9 to 14) (size 15 to 20)
#    0.000    1.655    2.069    4.345    0.966    1.655 
#    0.000    1.379    0.000    0.000    0.000    0.000 
#    0.000    0.552    0.000    5.517    0.000    3.310 
#
# Total GULP energy -718948.783755 kJ/mol
# GULP energy per Si atom -12395.668685 kJ/mol
# Density = 1.854101 g / cm^3
# Si number density = 18.583310 Si / 1000 Ang^3
#
#
#
# Elastic Constant Matrix: (Units=GPa)
#
#
# Indices 1 2 3 4 5 6 
#
# 1 58.5869 51.5174 26.7808 0.0000 0.0000 0.0000
# 2 51.5174 127.5566 43.1320 0.0000 0.0000 0.0000
# 3 26.7808 43.1320 100.7052 0.0000 0.0000 0.0000
# 4 0.0000 0.0000 0.0000 27.3186 0.0000 0.0000
# 5 0.0000 0.0000 0.0000 0.0000 24.0923 0.0000
# 6 0.0000 0.0000 0.0000 0.0000 0.0000 28.7199
#
#
#
# Elastic Compliance Matrix: (Units=1/GPa)
#
#
# Indices 1 2 3 4 5 6 
#
# 1 0.027202 -0.009986 -0.002957 0.000000 0.000000 0.000000
# 2 -0.009986 0.012834 -0.002841 0.000000 0.000000 0.000000
# 3 -0.002957 -0.002841 0.011933 0.000000 0.000000 0.000000
# 4 0.000000 0.000000 0.000000 0.036605 0.000000 0.000000
# 5 0.000000 0.000000 0.000000 0.000000 0.041507 0.000000
# 6 0.000000 0.000000 0.000000 0.000000 0.000000 0.034819
#
#
# Mechanical properties :
#
#
# Convention : Reuss Voigt Hill
#
# Bulk Modulus (GPa) = 49.01890 58.85656 53.93773
# Shear Modulus (GPa) = 24.59818 27.05407 25.82612
#
# Velocity S-wave (km/s) = 3.64218 3.81967 3.73198
# Velocity P-wave (km/s) = 6.64247 7.15497 6.90348
#
# Compressibility (1/GPa) = 0.02040030
#
# Stress axis : x y z
#
# Youngs Moduli (GPa) = 36.76266 77.92071 83.80126
#
# Poissons Ratio (x) = 0.77814 0.24777
# Poissons Ratio (y) = 0.36713 0.23807
# Poissons Ratio (z) = 0.10869 0.22137
#
# Static dielectric constant tensor:
#      x y z
#    x 3.168380 0.000000 0.000000 
#    y 0.000000 3.551670 0.000000 
#    z 0.000000 0.000000 3.279950 
# 
# 
# High freq. dielectric constant tensor:
#      x y z
#    x 1.681150 0.000000 0.000000 
#    y 0.000000 1.723910 0.000000 
#    z 0.000000 0.000000 1.721730 
# 
# From -- ./inp_files/7286.got.cif
#   From: 2010.03.12/outbox.cif.g09.slc.cpg/sg72_4_cif.got.tgz:7286.got - 2010.04.16 14:54:00.
