data_PCOD8294107
_publ_section_title
;
Structure prediction by ZEFSAII (Michael W. Deem and Ramdas Pophale) SiO2 
 PCOD8294107
Probable space group: I B A M
;
_chemical_formula_sum "Si O2"
_cell_formula_units_Z 56
_cell_length_a 5.054523
_cell_length_b 15.047732
_cell_length_c 32.903183
_cell_angle_alpha 90.000000
_cell_angle_beta 90.000000
_cell_angle_gamma 90.000000
_cell_volume 2502.586733
_symmetry_space_group_name_H-M "I B A M"
_symmetry_group_IT_number 72
_symmetry_cell_setting 'orthorhombic'
loop_
_space_group_symop_operation_xyz
x,y,z
-x,-y,z
x,-y,1/2-z
-x,y,1/2-z
-x,-y,-z
x,y,-z
-x,y,1/2+z
x,-y,1/2+z
1/2+x,1/2+y,1/2+z
1/2-x,1/2-y,1/2+z
1/2+x,1/2-y,-z
1/2-x,1/2+y,-z
1/2-x,1/2-y,1/2-z
1/2+x,1/2+y,1/2-z
1/2-x,1/2+y,z
1/2+x,1/2-y,z
loop_
_atom_site_type_symbol
_atom_site_label
_atom_site_fract_x
_atom_site_fract_y
_atom_site_fract_z
Si Si1 0.743271 0.562039 0.000000
Si Si2 0.899483 0.806463 0.570128
Si Si3 0.989128 0.394776 0.295111
Si Si4 0.502702 0.604950 0.345063
O O1 0.500000 0.500000 0.000000
O O2 0.717468 0.620051 0.040310
O O3 0.000000 0.500000 0.000000
O O4 0.201879 0.776696 0.562663
O O5 0.902970 0.844772 0.615177
O O6 0.705762 0.365827 0.311293
O O7 0.000000 0.500000 0.291612
O O8 0.000000 0.352490 0.250000
O O9 0.216263 0.362584 0.326777
O O10 0.500000 0.500000 0.354356
#
# Coordination Sequence:
#
# PCOD8294107 Si02
#       4
#     8  16  16  16
#     4  12  26  46  72  98 124 160 212 264 312 374
#     4  12  25  43  65  93 131 167 203 251 319 384
#     4   9  17  31  55  87 119 155 207 268 316 356
#     4  10  20  35  59  88 120 161 211 260 309 371
#
# _framework density 22.376849
#
# number of rings (size 3 to 8) (size 9 to 14) (size 15 to 20)
#    0.000    1.429    0.000    6.000    0.000    6.857 
#    0.000    0.000    0.000   17.143    0.000    0.000 
#    0.000    0.000    0.000    0.000    0.000    0.000 
#
# Total GULP energy -347023.667694 kJ/mol
# GULP energy per Si atom -12393.702418 kJ/mol
# Density = 2.232592 g / cm^3
# Si number density = 22.376849 Si / 1000 Ang^3
#
#
#
# Elastic Constant Matrix: (Units=GPa)
#
#
# Indices 1 2 3 4 5 6 
#
# 1 141.6028 30.6127 33.7159 0.0000 0.0000 0.0000
# 2 30.6127 59.9170 42.4476 0.0000 0.0000 0.0000
# 3 33.7159 42.4476 141.9154 0.0000 0.0000 0.0000
# 4 0.0000 0.0000 0.0000 31.1140 0.0000 0.0000
# 5 0.0000 0.0000 0.0000 0.0000 39.7491 0.0000
# 6 0.0000 0.0000 0.0000 0.0000 0.0000 39.4911
#
#
#
# Elastic Compliance Matrix: (Units=1/GPa)
#
#
# Indices 1 2 3 4 5 6 
#
# 1 0.008021 -0.003487 -0.000863 0.000000 0.000000 0.000000
# 2 -0.003487 0.022693 -0.005959 0.000000 0.000000 0.000000
# 3 -0.000863 -0.005959 0.009034 0.000000 0.000000 0.000000
# 4 0.000000 0.000000 0.000000 0.032140 0.000000 0.000000
# 5 0.000000 0.000000 0.000000 0.000000 0.025158 0.000000
# 6 0.000000 0.000000 0.000000 0.000000 0.000000 0.025322
#
#
# Mechanical properties :
#
#
# Convention : Reuss Voigt Hill
#
# Bulk Modulus (GPa) = 52.27292 61.88750 57.08021
# Shear Modulus (GPa) = 33.47557 37.84810 35.66184
#
# Velocity S-wave (km/s) = 3.87200 4.11712 3.99644
# Velocity P-wave (km/s) = 6.58793 7.09351 6.84539
#
# Compressibility (1/GPa) = 0.01913036
#
# Stress axis : x y z
#
# Youngs Moduli (GPa) = 124.66848 44.06625 110.69508
#
# Poissons Ratio (x) = 0.15366 0.09549
# Poissons Ratio (y) = 0.43473 0.65965
# Poissons Ratio (z) = 0.10755 0.26260
#
# Static dielectric constant tensor:
#      x y z
#    x 4.613460 0.000000 0.000000 
#    y 0.000000 4.166480 0.000000 
#    z 0.000000 0.000000 4.174880 
# 
# 
# High freq. dielectric constant tensor:
#      x y z
#    x 1.898440 0.000000 0.000000 
#    y 0.000000 1.867290 0.000000 
#    z 0.000000 0.000000 1.895480 
# 
# From -- ./inp_files/50076.got.cif
#   From: 2010.03.12/outbox.cif.g09.slc.cpg/sg72_26_cif.got.tgz:50076.got - 2010.04.16 14:54:00.
