data_PCOD8294812
_publ_section_title
;
Structure prediction by ZEFSAII (Michael W. Deem and Ramdas Pophale) SiO2 
 PCOD8294812
Probable space group: I B A M
;
_chemical_formula_sum "Si O2"
_cell_formula_units_Z 88
_cell_length_a 10.010817
_cell_length_b 22.903282
_cell_length_c 18.957801
_cell_angle_alpha 90.000000
_cell_angle_beta 90.000000
_cell_angle_gamma 90.000000
_cell_volume 4346.655321
_symmetry_space_group_name_H-M "I B A M"
_symmetry_group_IT_number 72
_symmetry_cell_setting 'orthorhombic'
loop_
_space_group_symop_operation_xyz
x,y,z
-x,-y,z
x,-y,1/2-z
-x,y,1/2-z
-x,-y,-z
x,y,-z
-x,y,1/2+z
x,-y,1/2+z
1/2+x,1/2+y,1/2+z
1/2-x,1/2-y,1/2+z
1/2+x,1/2-y,-z
1/2-x,1/2+y,-z
1/2-x,1/2-y,1/2-z
1/2+x,1/2+y,1/2-z
1/2-x,1/2+y,z
1/2+x,1/2-y,z
loop_
_atom_site_type_symbol
_atom_site_label
_atom_site_fract_x
_atom_site_fract_y
_atom_site_fract_z
Si Si1 0.360141 0.643472 0.080653
Si Si2 0.881143 0.420333 0.370040
Si Si3 0.801830 0.273462 0.176370
Si Si4 0.656514 0.665096 0.921086
Si Si5 0.338638 0.044009 0.919160
Si Si6 0.500000 0.855073 0.250000
O O1 0.315069 0.694422 0.133526
O O2 0.517136 0.630883 0.089427
O O3 0.286526 0.583715 0.101162
O O4 0.324147 0.661451 0.000000
O O5 0.778221 0.379036 0.410417
O O6 0.830007 0.487075 0.369374
O O7 0.026047 0.418966 0.407411
O O8 0.893905 0.396459 0.290096
O O9 0.750000 0.250000 0.250000
O O10 0.849233 0.218791 0.131644
O O11 0.926679 0.316035 0.190895
O O12 0.666865 0.690435 0.000000
O O13 0.333491 0.022774 0.000000
#
# Coordination Sequence:
#
# PCOD8294812 Si02
#       6
#    16  16  16  16  16   8
#     4  10  23  42  64  95 130 167 210 265 323 378
#     4  11  22  41  63  95 126 165 215 257 317 378
#     4  12  23  43  62  90 130 170 214 260 320 375
#     4  11  24  41  66  97 129 167 211 262 321 384
#     4  10  21  40  67  94 126 164 210 268 319 375
#     4  12  24  41  62  94 124 177 212 264 312 382
#
# _framework density 20.245452
#
# number of rings (size 3 to 8) (size 9 to 14) (size 15 to 20)
#    0.000    1.091    3.636    3.818    0.000    2.182 
#    0.000    2.727    0.000    0.000    0.000    0.000 
#    0.000    0.000    0.000    0.000    0.000    0.000 
#
# Total GULP energy -545682.103467 kJ/mol
# GULP energy per Si atom -12401.865988 kJ/mol
# Density = 2.019937 g / cm^3
# Si number density = 20.245452 Si / 1000 Ang^3
#
#
#
# Elastic Constant Matrix: (Units=GPa)
#
#
# Indices 1 2 3 4 5 6 
#
# 1 110.5229 71.8358 57.1433 0.0000 0.0000 0.0000
# 2 71.8358 137.8055 73.7116 0.0000 0.0000 0.0000
# 3 57.1433 73.7116 114.3694 0.0001 0.0000 0.0000
# 4 0.0000 0.0000 0.0001 35.2382 0.0000 0.0000
# 5 0.0000 0.0000 0.0000 0.0000 28.9589 0.0000
# 6 0.0000 0.0000 0.0000 0.0000 0.0000 29.3502
#
#
#
# Elastic Compliance Matrix: (Units=1/GPa)
#
#
# Indices 1 2 3 4 5 6 
#
# 1 0.014620 -0.005668 -0.003652 0.000000 0.000000 0.000000
# 2 -0.005668 0.013272 -0.005722 0.000000 0.000000 0.000000
# 3 -0.003652 -0.005722 0.014256 0.000000 0.000000 0.000000
# 4 0.000000 0.000000 0.000000 0.028378 0.000000 0.000000
# 5 0.000000 0.000000 0.000000 0.000000 0.034532 0.000000
# 6 0.000000 0.000000 0.000000 0.000000 0.000000 0.034071
#
#
# Mechanical properties :
#
#
# Convention : Reuss Voigt Hill
#
# Bulk Modulus (GPa) = 82.88614 85.34213 84.11413
# Shear Modulus (GPa) = 28.86287 29.37659 29.11973
#
# Velocity S-wave (km/s) = 3.77987 3.81336 3.79665
# Velocity P-wave (km/s) = 7.75109 7.85074 7.80108
#
# Compressibility (1/GPa) = 0.01206474
#
# Stress axis : x y z
#
# Youngs Moduli (GPa) = 68.40054 75.34817 70.14650
#
# Poissons Ratio (x) = 0.42706 0.25615
# Poissons Ratio (y) = 0.38768 0.40137
# Poissons Ratio (z) = 0.24978 0.43113
#
# Static dielectric constant tensor:
#      x y z
#    x 3.731600 0.000000 0.000000 
#    y 0.000000 3.722030 0.000000 
#    z 0.000000 0.000000 3.575060 
# 
# 
# High freq. dielectric constant tensor:
#      x y z
#    x 1.791180 0.000000 0.000000 
#    y 0.000000 1.791990 0.000000 
#    z 0.000000 0.000000 1.795460 
# 
# From -- ./inp_files/35860.got.cif
#   From: 2010.03.12/outbox.cif.g09.slc.cpg/sg72_18_cif.got.tgz:35860.got - 2010.04.16 14:54:00.
