data_PCOD8294080
_publ_section_title
;
Structure prediction by ZEFSAII (Michael W. Deem and Ramdas Pophale) SiO2 
 PCOD8294080
Probable space group: I B A M
;
_chemical_formula_sum "Si O2"
_cell_formula_units_Z 116
_cell_length_a 30.092713
_cell_length_b 9.208760
_cell_length_c 20.464359
_cell_angle_alpha 90.000000
_cell_angle_beta 90.000000
_cell_angle_gamma 90.000000
_cell_volume 5671.013009
_symmetry_space_group_name_H-M "I B A M"
_symmetry_group_IT_number 72
_symmetry_cell_setting 'orthorhombic'
loop_
_space_group_symop_operation_xyz
x,y,z
-x,-y,z
x,-y,1/2-z
-x,y,1/2-z
-x,-y,-z
x,y,-z
-x,y,1/2+z
x,-y,1/2+z
1/2+x,1/2+y,1/2+z
1/2-x,1/2-y,1/2+z
1/2+x,1/2-y,-z
1/2-x,1/2+y,-z
1/2-x,1/2-y,1/2-z
1/2+x,1/2+y,1/2-z
1/2-x,1/2+y,z
1/2+x,1/2-y,z
loop_
_atom_site_type_symbol
_atom_site_label
_atom_site_fract_x
_atom_site_fract_y
_atom_site_fract_z
Si Si1 0.306516 0.005465 0.073310
Si Si2 0.043671 0.309184 0.359321
Si Si3 0.189655 0.012553 0.177714
Si Si4 0.748928 0.762357 0.371789
Si Si5 0.500000 0.000000 0.750000
Si Si6 0.901677 0.451993 0.576008
Si Si7 0.092448 0.966519 0.172781
Si Si8 0.043474 0.821629 0.421088
O O1 0.283129 0.148044 0.100138
O O2 0.353467 0.978464 0.110305
O O3 0.276545 0.859899 0.074765
O O4 0.316778 0.046241 0.000000
O O5 0.064308 0.419603 0.410996
O O6 0.029337 0.395954 0.295000
O O7 0.005150 0.227207 0.398627
O O8 0.082321 0.202888 0.335090
O O9 0.211926 0.169826 0.166857
O O10 0.141944 0.997101 0.141705
O O11 0.172394 0.000000 0.250000
O O12 0.224272 0.880408 0.169983
O O13 0.893901 0.436573 0.500000
O O14 0.921970 0.301878 0.601007
O O15 0.057391 0.043542 0.124027
O O16 0.085135 0.000000 0.250000
O O17 0.043825 0.854915 0.500000
#
# Coordination Sequence:
#
# PCOD8294080 Si02
#       8
#    16  16  16  16   4  16  16  16
#     4  10  20  35  57  85 117 152 191 241 299 360
#     4  12  23  40  62  87 120 160 209 255 308 371
#     4  10  21  39  60  85 119 155 200 248 299 361
#     4  10  20  36  59  85 116 154 197 241 297 359
#     4  12  24  40  64  88 120 164 214 254 320 376
#     4  10  21  38  61  87 119 156 202 253 303 361
#     4  11  25  41  61  91 127 162 203 255 313 371
#     4  11  23  42  65  91 125 165 207 257 315 369
#
# _framework density 20.454899000000001
#
# number of rings (size 3 to 8) (size 9 to 14) (size 15 to 20)
#    0.000    1.379    1.379    4.138    0.000    3.310 
#    0.000    3.448    3.034    0.000    0.000    0.000 
#    0.000    0.000    0.000    0.000    0.000    0.000 
#
# Total GULP energy -718611.958049 kJ/mol
# GULP energy per Si atom -12389.861346 kJ/mol
# Density = 2.040834 g / cm^3
# Si number density = 20.454899 Si / 1000 Ang^3
#
#
#
# Elastic Constant Matrix: (Units=GPa)
#
#
# Indices 1 2 3 4 5 6 
#
# 1 111.5873 30.8441 16.7097 0.0000 0.0000 0.0000
# 2 30.8441 110.7425 17.8726 0.0000 0.0000 0.0000
# 3 16.7097 17.8726 58.8171 0.0000 0.0000 0.0000
# 4 0.0000 0.0000 0.0000 22.4926 0.0000 0.0000
# 5 0.0000 0.0000 0.0000 0.0000 8.7813 0.0000
# 6 0.0000 0.0000 0.0000 0.0000 0.0000 -59.3729
#
#
#
# Elastic Compliance Matrix: (Units=1/GPa)
#
#
# Indices 1 2 3 4 5 6 
#
# 1 0.009947 -0.002434 -0.002086 0.000000 0.000000 0.000000
# 2 -0.002434 0.010091 -0.002375 0.000000 0.000000 0.000000
# 3 -0.002086 -0.002375 0.018316 0.000000 0.000000 0.000000
# 4 0.000000 0.000000 0.000000 0.044459 0.000000 0.000000
# 5 0.000000 0.000000 0.000000 0.000000 0.113879 0.000000
# 6 0.000000 0.000000 0.000000 0.000000 0.000000 -0.016843
#
#
# Mechanical properties :
#
#
# Convention : Reuss Voigt Hill
#
# Bulk Modulus (GPa) = 40.70970 45.77774 43.24372
# Shear Modulus (GPa) = 24.77366 8.76156 16.76761
#
# Velocity S-wave (km/s) = 3.48391 2.07187 2.86621
# Velocity P-wave (km/s) = 6.01073 5.30584 5.66925
#
# Compressibility (1/GPa) = 0.02456417
#
# Stress axis : x y z
#
# Youngs Moduli (GPa) = 100.53581 99.09750 54.59640
#
# Poissons Ratio (x) = 0.24117 0.11391
# Poissons Ratio (y) = 0.24467 0.12966
# Poissons Ratio (z) = 0.20975 0.23535
#
# Static dielectric constant tensor:
#      x y z
#    x 4.116600 0.000000 0.000000 
#    y 0.000000 4.035450 0.000000 
#    z 0.000000 0.000000 3.551790 
# 
# 
# High freq. dielectric constant tensor:
#      x y z
#    x 1.821380 0.000000 0.000000 
#    y 0.000000 1.814070 0.000000 
#    z 0.000000 0.000000 1.781400 
# 
# From -- ./inp_files/45988.got.cif
#   From: 2010.03.12/outbox.cif.g09.slc.cpg/sg72_23_cif.got.tgz:45988.got - 2010.04.16 14:54:00.
