data_PCOD8294922
_publ_section_title
;
Structure prediction by ZEFSAII (Michael W. Deem and Ramdas Pophale) SiO2 
 PCOD8294922
Probable space group: I B A M
;
_chemical_formula_sum "Si O2"
_cell_formula_units_Z 112
_cell_length_a 12.448306
_cell_length_b 24.769505
_cell_length_c 18.729969
_cell_angle_alpha 90.000000
_cell_angle_beta 90.000000
_cell_angle_gamma 90.000000
_cell_volume 5775.168256
_symmetry_space_group_name_H-M "I B A M"
_symmetry_group_IT_number 72
_symmetry_cell_setting 'orthorhombic'
loop_
_space_group_symop_operation_xyz
x,y,z
-x,-y,z
x,-y,1/2-z
-x,y,1/2-z
-x,-y,-z
x,y,-z
-x,y,1/2+z
x,-y,1/2+z
1/2+x,1/2+y,1/2+z
1/2-x,1/2-y,1/2+z
1/2+x,1/2-y,-z
1/2-x,1/2+y,-z
1/2-x,1/2-y,1/2-z
1/2+x,1/2+y,1/2-z
1/2-x,1/2+y,z
1/2+x,1/2-y,z
loop_
_atom_site_type_symbol
_atom_site_label
_atom_site_fract_x
_atom_site_fract_y
_atom_site_fract_z
Si Si1 0.269065 0.741314 0.832170
Si Si2 0.581207 0.278380 0.578600
Si Si3 0.591162 0.189828 0.078326
Si Si4 0.819850 0.508365 0.584452
Si Si5 0.606683 0.473262 0.172769
Si Si6 0.011939 0.578397 0.416245
Si Si7 0.447631 0.652931 0.824801
O O1 0.250000 0.750000 0.750000
O O2 0.157953 0.738712 0.875532
O O3 0.318534 0.796864 0.863778
O O4 0.341516 0.688162 0.842807
O O5 0.629930 0.292328 0.500000
O O6 0.476397 0.243170 0.567919
O O7 0.541877 0.333652 0.617501
O O8 0.521832 0.140031 0.108606
O O9 0.639621 0.173944 0.000000
O O10 0.797858 0.512222 0.500000
O O11 0.706658 0.512995 0.623268
O O12 0.879609 0.452926 0.607077
O O13 0.900190 0.554962 0.614395
O O14 0.500000 0.500000 0.138726
O O15 0.626890 0.500000 0.250000
O O16 0.587517 0.409132 0.176562
O O17 0.000303 0.570576 0.500000
O O18 0.500000 0.670530 0.750000
#
# Coordination Sequence:
#
# PCOD8294922 Si02
#       7
#    16  16  16  16  16  16  16
#     4  11  22  35  60  85 117 157 202 245 300 376
#     4  10  22  39  60  91 125 156 201 257 308 369
#     4   9  19  34  55  84 118 154 195 246 307 368
#     4   9  19  36  61  89 116 152 206 259 311 375
#     4  11  24  41  61  84 123 169 209 258 316 367
#     4   8  16  35  59  85 119 155 192 255 324 370
#     4  11  22  42  62  85 121 166 208 250 309 374
#
# _framework density 19.393374000000001
#
# number of rings (size 3 to 8) (size 9 to 14) (size 15 to 20)
#    0.000    2.143    2.857    1.286    2.000    3.714 
#    0.000    2.857    3.143    0.000    0.000    0.000 
#    0.000    0.000    0.000    0.000    0.000    0.000 
#
# Total GULP energy -693823.500740 kJ/mol
# GULP energy per Si atom -12389.705370 kJ/mol
# Density = 1.934923 g / cm^3
# Si number density = 19.393374 Si / 1000 Ang^3
#
#
#
# Elastic Constant Matrix: (Units=GPa)
#
#
# Indices 1 2 3 4 5 6 
#
# 1 121.0841 40.1394 53.4644 0.0000 0.0000 0.0000
# 2 40.1394 119.0872 38.4680 -0.0002 0.0000 0.0000
# 3 53.4644 38.4680 114.6423 -0.0003 0.0000 0.0000
# 4 0.0000 -0.0002 -0.0003 21.1908 0.0000 0.0000
# 5 0.0000 0.0000 0.0000 0.0000 37.1816 0.0000
# 6 0.0000 0.0000 0.0000 0.0000 0.0000 24.4514
#
#
#
# Elastic Compliance Matrix: (Units=1/GPa)
#
#
# Indices 1 2 3 4 5 6 
#
# 1 0.010928 -0.002285 -0.004330 0.000000 0.000000 0.000000
# 2 -0.002285 0.009896 -0.002255 0.000000 0.000000 0.000000
# 3 -0.004330 -0.002255 0.011499 0.000000 0.000000 0.000000
# 4 0.000000 0.000000 0.000000 0.047190 0.000000 0.000000
# 5 0.000000 0.000000 0.000000 0.000000 0.026895 0.000000
# 6 0.000000 0.000000 0.000000 0.000000 0.000000 0.040897
#
#
# Mechanical properties :
#
#
# Convention : Reuss Voigt Hill
#
# Bulk Modulus (GPa) = 68.57101 68.77301 68.67201
# Shear Modulus (GPa) = 29.42825 31.41423 30.42124
#
# Velocity S-wave (km/s) = 3.89966 4.02909 3.96490
# Velocity P-wave (km/s) = 7.46399 7.56200 7.51316
#
# Compressibility (1/GPa) = 0.01458342
#
# Stress axis : x y z
#
# Youngs Moduli (GPa) = 91.50923 101.05383 86.96709
#
# Poissons Ratio (x) = 0.23088 0.37654
# Poissons Ratio (y) = 0.20908 0.19611
# Poissons Ratio (z) = 0.39620 0.22787
#
# Static dielectric constant tensor:
#      x y z
#    x 3.668100 0.000000 0.000000 
#    y 0.000000 3.573980 0.000000 
#    z 0.000000 0.000000 3.620400 
# 
# 
# High freq. dielectric constant tensor:
#      x y z
#    x 1.760890 0.000000 0.000000 
#    y 0.000000 1.751500 0.000000 
#    z 0.000000 0.000000 1.741220 
# 
# From -- ./inp_files/37296.got.cif
#   From: 2010.03.12/outbox.cif.g09.slc.cpg/sg72_19_cif.got.tgz:37296.got - 2010.04.16 14:54:00.
