data_PCOD8294354
_publ_section_title
;
Structure prediction by ZEFSAII (Michael W. Deem and Ramdas Pophale) SiO2 
 PCOD8294354
Probable space group: I B A M
;
_chemical_formula_sum "Si O2"
_cell_formula_units_Z 96
_cell_length_a 18.436284
_cell_length_b 27.879473
_cell_length_c 9.425446
_cell_angle_alpha 90.000000
_cell_angle_beta 90.000000
_cell_angle_gamma 90.000000
_cell_volume 4844.621579
_symmetry_space_group_name_H-M "I B A M"
_symmetry_group_IT_number 72
_symmetry_cell_setting 'orthorhombic'
loop_
_space_group_symop_operation_xyz
x,y,z
-x,-y,z
x,-y,1/2-z
-x,y,1/2-z
-x,-y,-z
x,y,-z
-x,y,1/2+z
x,-y,1/2+z
1/2+x,1/2+y,1/2+z
1/2-x,1/2-y,1/2+z
1/2+x,1/2-y,-z
1/2-x,1/2+y,-z
1/2-x,1/2-y,1/2-z
1/2+x,1/2+y,1/2-z
1/2-x,1/2+y,z
1/2+x,1/2-y,z
loop_
_atom_site_type_symbol
_atom_site_label
_atom_site_fract_x
_atom_site_fract_y
_atom_site_fract_z
Si Si1 0.073044 0.223078 0.838927
Si Si2 0.733112 0.546119 0.665854
Si Si3 0.307649 0.651907 0.164282
Si Si4 0.320069 0.809122 0.168183
Si Si5 0.064780 0.644014 0.159664
Si Si6 0.601494 0.040316 0.654619
O O1 0.109542 0.170601 0.819832
O O2 0.135895 0.260790 0.794476
O O3 0.000000 0.227948 0.750000
O O4 0.049680 0.232431 0.000000
O O5 0.700452 0.500000 0.750000
O O6 0.720493 0.536850 0.500000
O O7 0.694475 0.596159 0.712414
O O8 0.817260 0.552640 0.706971
O O9 0.259646 0.687715 0.262859
O O10 0.281276 0.656976 0.000000
O O11 0.361944 0.850958 0.251623
O O12 0.315694 0.818443 0.000000
O O13 0.051421 0.587248 0.150527
O O14 0.000000 0.668779 0.250000
O O15 0.068171 0.666076 0.000000
O O16 0.606569 0.017097 0.500000
O O17 0.563870 0.000000 0.750000
#
# Coordination Sequence:
#
# PCOD8294354 Si02
#       6
#    16  16  16  16  16  16
#     4  10  23  40  59  84 116 151 187 230 282 335
#     4   9  17  32  54  81 110 142 179 224 280 331
#     4  10  20  38  61  85 115 150 186 230 281 331
#     4  11  22  36  56  85 112 145 190 232 275 325
#     4  11  22  36  51  72 104 145 187 230 281 330
#     4   9  18  32  49  69  97 136 178 224 279 329
#
# _framework density 19.815788999999999
#
# number of rings (size 3 to 8) (size 9 to 14) (size 15 to 20)
#    0.000    2.000    1.667    2.000    0.000    5.667 
#    0.000    1.667    0.000    0.500    0.000    3.500 
#    0.000    0.000    0.000    0.000    0.000    0.000 
#
# Total GULP energy -594858.976391 kJ/mol
# GULP energy per Si atom -12392.895341 kJ/mol
# Density = 1.977069 g / cm^3
# Si number density = 19.815789 Si / 1000 Ang^3
#
#
#
# Elastic Constant Matrix: (Units=GPa)
#
#
# Indices 1 2 3 4 5 6 
#
# 1 66.5659 38.9479 50.0208 0.0000 0.0000 0.0000
# 2 38.9479 97.8656 49.8772 0.0000 0.0000 0.0000
# 3 50.0208 49.8772 108.4024 -0.0002 0.0002 0.0000
# 4 0.0000 0.0000 -0.0002 27.1409 0.0000 0.0000
# 5 0.0000 0.0000 0.0002 0.0000 24.0489 0.0000
# 6 0.0000 0.0000 0.0000 0.0000 0.0000 14.9709
#
#
#
# Elastic Compliance Matrix: (Units=1/GPa)
#
#
# Indices 1 2 3 4 5 6 
#
# 1 0.024940 -0.005304 -0.009068 0.000000 0.000000 0.000000
# 2 -0.005304 0.014476 -0.004213 0.000000 0.000000 0.000000
# 3 -0.009068 -0.004213 0.015348 0.000000 0.000000 0.000000
# 4 0.000000 0.000000 0.000000 0.036845 0.000000 0.000000
# 5 0.000000 0.000000 0.000000 0.000000 0.041582 0.000000
# 6 0.000000 0.000000 0.000000 0.000000 0.000000 0.066796
#
#
# Mechanical properties :
#
#
# Convention : Reuss Voigt Hill
#
# Bulk Modulus (GPa) = 56.83812 61.16953 59.00382
# Shear Modulus (GPa) = 20.57431 22.16468 21.36949
#
# Velocity S-wave (km/s) = 3.22573 3.34808 3.28747
# Velocity P-wave (km/s) = 6.52834 6.77365 6.65213
#
# Compressibility (1/GPa) = 0.01759383
#
# Stress axis : x y z
#
# Youngs Moduli (GPa) = 40.09605 69.07876 65.15663
#
# Poissons Ratio (x) = 0.36640 0.59083
# Poissons Ratio (y) = 0.21267 0.27452
# Poissons Ratio (z) = 0.36358 0.29104
#
# Static dielectric constant tensor:
#      x y z
#    x 3.323310 0.000000 0.000000 
#    y 0.000000 3.694700 0.000000 
#    z 0.000000 0.000000 3.661640 
# 
# 
# High freq. dielectric constant tensor:
#      x y z
#    x 1.739670 0.000000 0.000000 
#    y 0.000000 1.771620 0.000000 
#    z 0.000000 0.000000 1.774800 
# 
# From -- ./inp_files/5961.got.cif
#   From: 2010.03.12/outbox.cif.g09.slc.cpg/sg72_3_cif.got.tgz:5961.got - 2010.04.16 14:54:00.
