data_PCOD8294805
_publ_section_title
;
Structure prediction by ZEFSAII (Michael W. Deem and Ramdas Pophale) SiO2 
 PCOD8294805
Probable space group: I B A M
;
_chemical_formula_sum "Si O2"
_cell_formula_units_Z 96
_cell_length_a 22.737691
_cell_length_b 12.825523
_cell_length_c 16.297780
_cell_angle_alpha 90.000000
_cell_angle_beta 90.000000
_cell_angle_gamma 90.000000
_cell_volume 4752.803893
_symmetry_space_group_name_H-M "I B A M"
_symmetry_group_IT_number 72
_symmetry_cell_setting 'orthorhombic'
loop_
_space_group_symop_operation_xyz
x,y,z
-x,-y,z
x,-y,1/2-z
-x,y,1/2-z
-x,-y,-z
x,y,-z
-x,y,1/2+z
x,-y,1/2+z
1/2+x,1/2+y,1/2+z
1/2-x,1/2-y,1/2+z
1/2+x,1/2-y,-z
1/2-x,1/2+y,-z
1/2-x,1/2-y,1/2-z
1/2+x,1/2+y,1/2-z
1/2-x,1/2+y,z
1/2+x,1/2-y,z
loop_
_atom_site_type_symbol
_atom_site_label
_atom_site_fract_x
_atom_site_fract_y
_atom_site_fract_z
Si Si1 0.588521 0.767455 0.095874
Si Si2 0.855175 0.649928 0.090463
Si Si3 0.470420 0.202914 0.671751
Si Si4 0.825308 0.554299 0.339297
Si Si5 0.784815 0.816447 0.815273
Si Si6 0.595987 0.382270 0.741922
O O1 0.518754 0.792858 0.099305
O O2 0.625671 0.857741 0.142057
O O3 0.597496 0.660867 0.147956
O O4 0.607034 0.754344 0.000000
O O5 0.913438 0.639526 0.145347
O O6 0.826640 0.535944 0.092795
O O7 0.808985 0.737231 0.117017
O O8 0.875302 0.679626 0.000000
O O9 0.500000 0.145496 0.750000
O O10 0.448801 0.317154 0.701293
O O11 0.833762 0.500000 0.250000
O O12 0.760758 0.601821 0.352863
O O13 0.750000 0.750000 0.750000
O O14 0.837898 0.879231 0.775343
O O15 0.573321 0.500000 0.750000
#
# Coordination Sequence:
#
# PCOD8294805 Si02
#       6
#    16  16  16  16  16  16
#     4  11  23  39  62  95 129 159 202 270 321 360
#     4  11  24  40  61  94 129 160 205 267 320 367
#     4   9  20  41  63  89 124 168 213 251 312 382
#     4  12  22  39  66  90 121 168 214 251 310 385
#     4  11  21  41  63  86 120 166 210 251 305 378
#     4  10  21  40  66  89 117 167 214 252 301 384
#
# _framework density 20.198604
#
# number of rings (size 3 to 8) (size 9 to 14) (size 15 to 20)
#    0.000    1.333    3.333    3.500    0.000    5.000 
#    0.000   10.000    0.000    0.000    0.000    0.000 
#    0.000    0.000    0.000    0.000    0.000    0.000 
#
# Total GULP energy -594945.827865 kJ/mol
# GULP energy per Si atom -12394.704747 kJ/mol
# Density = 2.015263 g / cm^3
# Si number density = 20.198604 Si / 1000 Ang^3
#
#
#
# Elastic Constant Matrix: (Units=GPa)
#
#
# Indices 1 2 3 4 5 6 
#
# 1 140.9476 44.7421 45.5915 0.0000 0.0000 0.0000
# 2 44.7421 100.8345 49.6821 0.0000 0.0000 0.0000
# 3 45.5915 49.6821 116.8740 0.0000 0.0000 0.0000
# 4 0.0000 0.0000 0.0000 26.1407 0.0000 0.0000
# 5 0.0000 0.0000 0.0000 0.0000 24.1024 0.0000
# 6 0.0000 0.0000 0.0000 0.0000 0.0000 17.1270
#
#
#
# Elastic Compliance Matrix: (Units=1/GPa)
#
#
# Indices 1 2 3 4 5 6 
#
# 1 0.008689 -0.002764 -0.002214 0.000000 0.000000 0.000000
# 2 -0.002764 0.013424 -0.004628 0.000000 0.000000 0.000000
# 3 -0.002214 -0.004628 0.011387 0.000000 0.000000 0.000000
# 4 0.000000 0.000000 0.000000 0.038254 0.000000 0.000000
# 5 0.000000 0.000000 0.000000 0.000000 0.041490 0.000000
# 6 0.000000 0.000000 0.000000 0.000000 0.000000 0.058387
#
#
# Mechanical properties :
#
#
# Convention : Reuss Voigt Hill
#
# Bulk Modulus (GPa) = 69.99530 70.96527 70.48029
# Shear Modulus (GPa) = 25.56144 28.05005 26.80575
#
# Velocity S-wave (km/s) = 3.56125 3.73059 3.64690
# Velocity P-wave (km/s) = 7.18601 7.33256 7.25966
#
# Compressibility (1/GPa) = 0.01428667
#
# Stress axis : x y z
#
# Youngs Moduli (GPa) = 115.09390 74.49270 87.81655
#
# Poissons Ratio (x) = 0.20592 0.19445
# Poissons Ratio (y) = 0.31815 0.40643
# Poissons Ratio (z) = 0.25485 0.34476
#
# Static dielectric constant tensor:
#      x y z
#    x 6.225370 0.000000 0.000000 
#    y 0.000000 3.955460 0.000000 
#    z 0.000000 0.000000 3.616740 
# 
# 
# High freq. dielectric constant tensor:
#      x y z
#    x 1.810240 0.000000 0.000000 
#    y 0.000000 1.781320 0.000000 
#    z 0.000000 0.000000 1.774410 
# 
# From -- ./inp_files/33292.got.cif
#   From: 2010.03.12/outbox.cif.g09.slc.cpg/sg72_17_cif.got.tgz:33292.got - 2010.04.16 14:54:00.
