data_PCOD8294045
_publ_section_title
;
Structure prediction by ZEFSAII (Michael W. Deem and Ramdas Pophale) SiO2 
 PCOD8294045
Probable space group: I B A M
;
_chemical_formula_sum "Si O2"
_cell_formula_units_Z 48
_cell_length_a 9.186431
_cell_length_b 31.200160
_cell_length_c 8.697529
_cell_angle_alpha 90.000000
_cell_angle_beta 90.000000
_cell_angle_gamma 90.000000
_cell_volume 2492.869385
_symmetry_space_group_name_H-M "I B A M"
_symmetry_group_IT_number 72
_symmetry_cell_setting 'orthorhombic'
loop_
_space_group_symop_operation_xyz
x,y,z
-x,-y,z
x,-y,1/2-z
-x,y,1/2-z
-x,-y,-z
x,y,-z
-x,y,1/2+z
x,-y,1/2+z
1/2+x,1/2+y,1/2+z
1/2-x,1/2-y,1/2+z
1/2+x,1/2-y,-z
1/2-x,1/2+y,-z
1/2-x,1/2-y,1/2-z
1/2+x,1/2+y,1/2-z
1/2-x,1/2+y,z
1/2+x,1/2-y,z
loop_
_atom_site_type_symbol
_atom_site_label
_atom_site_fract_x
_atom_site_fract_y
_atom_site_fract_z
Si Si1 0.342064 0.540843 0.677182
Si Si2 0.340396 0.788898 0.682351
Si Si3 0.339605 0.635673 0.319593
O O1 0.253951 0.500000 0.750000
O O2 0.500000 0.542250 0.750000
O O3 0.357474 0.531154 0.500000
O O4 0.272844 0.587776 0.706401
O O5 0.500000 0.786179 0.750000
O O6 0.346207 0.785381 0.500000
O O7 0.250000 0.750000 0.750000
O O8 0.269129 0.833474 0.731241
O O9 0.500000 0.640635 0.250000
O O10 0.347001 0.647072 0.500000
#
# Coordination Sequence:
#
# PCOD8294045 Si02
#       3
#    16  16  16
#     4   9  16  26  45  73 108 144 182 225 269 316
#     4  12  25  42  62  84 111 144 181 225 274 329
#     4  10  20  35  55  83 115 149 187 229 275 325
#
# _framework density 19.254919000000001
#
# number of rings (size 3 to 8) (size 9 to 14) (size 15 to 20)
#    0.000    1.667    0.000    7.000    0.000    4.000 
#    0.000    0.000    0.000    1.000    0.000    7.000 
#    0.000    0.000    0.000    0.000    0.000    0.000 
#
# Total GULP energy -297444.853127 kJ/mol
# GULP energy per Si atom -12393.535547 kJ/mol
# Density = 1.921109 g / cm^3
# Si number density = 19.254919 Si / 1000 Ang^3
#
#
#
# Elastic Constant Matrix: (Units=GPa)
#
#
# Indices 1 2 3 4 5 6 
#
# 1 99.9784 66.1397 56.5638 -0.0004 -0.0001 -0.0003
# 2 66.1397 177.0660 91.6736 -0.0041 0.0002 -0.0003
# 3 56.5638 91.6736 183.7361 -0.0016 0.0013 -0.0023
# 4 -0.0004 -0.0041 -0.0016 33.8956 0.0015 0.0002
# 5 -0.0001 0.0002 0.0013 0.0015 28.5964 0.0008
# 6 -0.0003 -0.0003 -0.0023 0.0002 0.0008 34.1602
#
#
#
# Elastic Compliance Matrix: (Units=1/GPa)
#
#
# Indices 1 2 3 4 5 6 
#
# 1 0.013963 -0.004032 -0.002287 0.000000 0.000000 0.000000
# 2 -0.004032 0.008779 -0.003139 0.000001 0.000000 0.000000
# 3 -0.002287 -0.003139 0.007713 0.000000 0.000000 0.000000
# 4 0.000000 0.000001 0.000000 0.029502 -0.000002 0.000000
# 5 0.000000 0.000000 0.000000 -0.000002 0.034969 -0.000001
# 6 0.000000 0.000000 0.000000 0.000000 -0.000001 0.029274
#
#
# Mechanical properties :
#
#
# Convention : Reuss Voigt Hill
#
# Bulk Modulus (GPa) = 86.65892 98.83721 92.74806
# Shear Modulus (GPa) = 34.02243 35.75733 34.88988
#
# Velocity S-wave (km/s) = 4.20807 4.31402 4.26138
# Velocity P-wave (km/s) = 8.28941 8.73251 8.51384
#
# Compressibility (1/GPa) = 0.01153949
#
# Stress axis : x y z
#
# Youngs Moduli (GPa) = 71.61710 113.91273 129.65447
#
# Poissons Ratio (x) = 0.45925 0.29653
# Poissons Ratio (y) = 0.28873 0.40697
# Poissons Ratio (z) = 0.16379 0.35756
#
# Static dielectric constant tensor:
#      x y z
#    x 3.058820 0.000010 0.000010 
#    y 0.000010 4.878050 -0.000010 
#    z 0.000010 -0.000010 3.811900 
# 
# 
# High freq. dielectric constant tensor:
#      x y z
#    x 1.697730 0.000000 0.000000 
#    y 0.000000 1.784250 0.000000 
#    z 0.000000 0.000000 1.773920 
# 
# From -- ./inp_files/1634.got.cif
#   From: 2010.03.12/outbox.cif.g09.slc.cpg/sg72_1_cif.got.tgz:1634.got - 2010.04.16 14:54:00.
