data_PCOD8294666
_publ_section_title
;
Structure prediction by ZEFSAII (Michael W. Deem and Ramdas Pophale) SiO2 
 PCOD8294666
Probable space group: I B A M
;
_chemical_formula_sum "Si O2"
_cell_formula_units_Z 88
_cell_length_a 17.823723
_cell_length_b 25.795093
_cell_length_c 9.407796
_cell_angle_alpha 90.000000
_cell_angle_beta 90.000000
_cell_angle_gamma 90.000000
_cell_volume 4325.371493
_symmetry_space_group_name_H-M "I B A M"
_symmetry_group_IT_number 72
_symmetry_cell_setting 'orthorhombic'
loop_
_space_group_symop_operation_xyz
x,y,z
-x,-y,z
x,-y,1/2-z
-x,y,1/2-z
-x,-y,-z
x,y,-z
-x,y,1/2+z
x,-y,1/2+z
1/2+x,1/2+y,1/2+z
1/2-x,1/2-y,1/2+z
1/2+x,1/2-y,-z
1/2-x,1/2+y,-z
1/2-x,1/2-y,1/2-z
1/2+x,1/2+y,1/2-z
1/2-x,1/2+y,z
1/2+x,1/2-y,z
loop_
_atom_site_type_symbol
_atom_site_label
_atom_site_fract_x
_atom_site_fract_y
_atom_site_fract_z
Si Si1 0.808348 0.000000 0.250000
Si Si2 0.710103 0.908133 0.658579
Si Si3 0.068687 0.926180 0.659513
Si Si4 0.071512 0.741849 0.837662
Si Si5 0.075224 0.624202 0.832361
Si Si6 0.849430 0.843366 0.336567
O O1 0.756321 0.038296 0.158951
O O2 0.862058 0.033823 0.351341
O O3 0.677244 0.900378 0.500000
O O4 0.642943 0.910580 0.772148
O O5 0.764370 0.859960 0.699458
O O6 0.041665 0.913838 0.500000
O O7 0.092798 0.873076 0.735528
O O8 0.000000 0.950261 0.750000
O O9 0.096052 0.683766 0.795655
O O10 0.140164 0.781693 0.810387
O O11 0.000000 0.760671 0.750000
O O12 0.045551 0.742534 0.000000
O O13 0.000000 0.607732 0.750000
O O14 0.065721 0.613836 0.000000
O O15 0.867445 0.858309 0.500000
#
# Coordination Sequence:
#
# PCOD8294666 Si02
#       6
#     8  16  16  16  16  16
#     4  10  23  40  59  78 106 144 186 228 275 328
#     4  10  21  38  59  82 110 142 178 226 280 329
#     4  11  22  35  54  81 113 150 191 230 267 313
#     4   9  18  33  53  79 112 150 188 223 262 312
#     4  10  21  38  60  84 110 141 179 223 272 329
#     4   9  19  35  54  80 116 153 186 222 265 314
#
# _framework density 20.345072999999999
#
# number of rings (size 3 to 8) (size 9 to 14) (size 15 to 20)
#    0.000    2.182    0.000    2.455    0.000   10.182 
#    0.000    0.455    0.000    2.182    0.000    0.000 
#    0.000    0.000    0.000    0.000    0.000    0.000 
#
# Total GULP energy -545538.721421 kJ/mol
# GULP energy per Si atom -12398.607305 kJ/mol
# Density = 2.029877 g / cm^3
# Si number density = 20.345073 Si / 1000 Ang^3
#
#
#
# Elastic Constant Matrix: (Units=GPa)
#
#
# Indices 1 2 3 4 5 6 
#
# 1 116.7044 37.3085 60.5704 0.0000 0.0000 0.0000
# 2 37.3085 52.8629 20.2752 0.0000 0.0000 0.0000
# 3 60.5704 20.2752 121.2412 0.0000 0.0000 0.0000
# 4 0.0000 0.0000 0.0000 16.4799 0.0000 0.0000
# 5 0.0000 0.0000 0.0000 0.0000 33.5237 0.0000
# 6 0.0000 0.0000 0.0000 0.0000 0.0000 23.5318
#
#
#
# Elastic Compliance Matrix: (Units=1/GPa)
#
#
# Indices 1 2 3 4 5 6 
#
# 1 0.013984 -0.007682 -0.005701 0.000000 0.000000 0.000000
# 2 -0.007682 0.024434 -0.000248 0.000000 0.000000 0.000000
# 3 -0.005701 -0.000248 0.011138 0.000000 0.000000 0.000000
# 4 0.000000 0.000000 0.000000 0.060680 0.000000 0.000000
# 5 0.000000 0.000000 0.000000 0.000000 0.029830 0.000000
# 6 0.000000 0.000000 0.000000 0.000000 0.000000 0.042496
#
#
# Mechanical properties :
#
#
# Convention : Reuss Voigt Hill
#
# Bulk Modulus (GPa) = 44.85950 58.56852 51.71401
# Shear Modulus (GPa) = 23.01447 26.21737 24.61592
#
# Velocity S-wave (km/s) = 3.36699 3.59365 3.48216
# Velocity P-wave (km/s) = 6.10022 6.78743 6.45298
#
# Compressibility (1/GPa) = 0.02229182
#
# Stress axis : x y z
#
# Youngs Moduli (GPa) = 71.51246 40.92673 89.78446
#
# Poissons Ratio (x) = 0.31441 0.51189
# Poissons Ratio (y) = 0.54938 0.02228
# Poissons Ratio (z) = 0.40771 0.01015
#
# Static dielectric constant tensor:
#      x y z
#    x 3.535040 0.000000 0.000000 
#    y 0.000000 3.600090 0.000000 
#    z 0.000000 0.000000 3.587770 
# 
# 
# High freq. dielectric constant tensor:
#      x y z
#    x 1.781870 0.000000 0.000000 
#    y 0.000000 1.784470 0.000000 
#    z 0.000000 0.000000 1.795240 
# 
# From -- ./inp_files/5148.got.cif
#   From: 2010.03.12/outbox.cif.g09.slc.cpg/sg72_3_cif.got.tgz:5148.got - 2010.04.16 14:54:00.
