data_PCOD8294102
_publ_section_title
;
Structure prediction by ZEFSAII (Michael W. Deem and Ramdas Pophale) SiO2 
 PCOD8294102
Probable space group: I B A M
;
_chemical_formula_sum "Si O2"
_cell_formula_units_Z 64
_cell_length_a 10.152501
_cell_length_b 16.564648
_cell_length_c 17.961994
_cell_angle_alpha 90.000000
_cell_angle_beta 90.000000
_cell_angle_gamma 90.000000
_cell_volume 3020.715329
_symmetry_space_group_name_H-M "I B A M"
_symmetry_group_IT_number 72
_symmetry_cell_setting 'orthorhombic'
loop_
_space_group_symop_operation_xyz
x,y,z
-x,-y,z
x,-y,1/2-z
-x,y,1/2-z
-x,-y,-z
x,y,-z
-x,y,1/2+z
x,-y,1/2+z
1/2+x,1/2+y,1/2+z
1/2-x,1/2-y,1/2+z
1/2+x,1/2-y,-z
1/2-x,1/2+y,-z
1/2-x,1/2-y,1/2-z
1/2+x,1/2+y,1/2-z
1/2-x,1/2+y,z
1/2+x,1/2-y,z
loop_
_atom_site_type_symbol
_atom_site_label
_atom_site_fract_x
_atom_site_fract_y
_atom_site_fract_z
Si Si1 0.488133 0.218721 0.332214
Si Si2 0.653576 0.501893 0.916152
Si Si3 0.765147 0.164630 0.356154
Si Si4 0.190147 0.581716 0.290355
O O1 0.500000 0.257014 0.250000
O O2 0.628290 0.211745 0.374622
O O3 0.385521 0.275358 0.376189
O O4 0.436716 0.126393 0.324192
O O5 0.500000 0.500000 0.898641
O O6 0.719163 0.414019 0.906972
O O7 0.711131 0.565777 0.858172
O O8 0.681688 0.531684 0.000000
O O9 0.763390 0.140274 0.268640
O O10 0.144172 0.500000 0.250000
#
# Coordination Sequence:
#
# PCOD8294102 Si02
#       4
#    16  16  16  16
#     4  10  20  35  58  93 121 149 186 245 291 343
#     4  10  23  40  58  83 118 155 198 243 291 344
#     4  10  22  36  61  90 119 150 195 235 291 348
#     4   9  19  35  59  87 118 151 196 242 291 339
#
# _framework density 21.187033
#
# number of rings (size 3 to 8) (size 9 to 14) (size 15 to 20)
#    0.000    2.250    0.000    3.000    7.000   15.000 
#    0.000    5.000    0.000    0.000    0.000    0.000 
#    0.000    0.000    0.000    0.000    0.000    0.000 
#
# Total GULP energy -396743.335508 kJ/mol
# GULP energy per Si atom -12398.229235 kJ/mol
# Density = 2.113881 g / cm^3
# Si number density = 21.187033 Si / 1000 Ang^3
#
#
#
# Elastic Constant Matrix: (Units=GPa)
#
#
# Indices 1 2 3 4 5 6 
#
# 1 131.3116 39.3411 28.5168 0.0000 0.0000 0.0000
# 2 39.3411 77.6227 8.5331 0.0000 0.0000 0.0000
# 3 28.5168 8.5331 65.5910 0.0000 0.0000 0.0000
# 4 0.0000 0.0000 0.0000 11.3601 0.0000 0.0000
# 5 0.0000 0.0000 0.0000 0.0000 14.2514 0.0000
# 6 0.0000 0.0000 0.0000 0.0000 0.0000 45.4256
#
#
#
# Elastic Compliance Matrix: (Units=1/GPa)
#
#
# Indices 1 2 3 4 5 6 
#
# 1 0.009773 -0.004551 -0.003657 0.000000 0.000000 0.000000
# 2 -0.004551 0.015189 0.000003 0.000000 0.000000 0.000000
# 3 -0.003657 0.000003 0.016836 0.000000 0.000000 0.000000
# 4 0.000000 0.000000 0.000000 0.088027 0.000000 0.000000
# 5 0.000000 0.000000 0.000000 0.000000 0.070169 0.000000
# 6 0.000000 0.000000 0.000000 0.000000 0.000000 0.022014
#
#
# Mechanical properties :
#
#
# Convention : Reuss Voigt Hill
#
# Bulk Modulus (GPa) = 39.39041 47.47860 43.43451
# Shear Modulus (GPa) = 20.25263 27.41638 23.83451
#
# Velocity S-wave (km/s) = 3.09511 3.60115 3.35768
# Velocity P-wave (km/s) = 5.60402 6.30468 5.96465
#
# Compressibility (1/GPa) = 0.02538689
#
# Stress axis : x y z
#
# Youngs Moduli (GPa) = 102.32039 65.83610 59.39807
#
# Poissons Ratio (x) = 0.29964 0.21722
# Poissons Ratio (y) = 0.46569 -0.00016
# Poissons Ratio (z) = 0.37418 -0.00018
#
# Static dielectric constant tensor:
#      x y z
#    x 3.940310 0.000000 0.000000 
#    y 0.000000 3.768650 0.000000 
#    z 0.000000 0.000000 3.439840 
# 
# 
# High freq. dielectric constant tensor:
#      x y z
#    x 1.840200 0.000000 0.000000 
#    y 0.000000 1.834540 0.000000 
#    z 0.000000 0.000000 1.782800 
# 
# From -- ./inp_files/19733.got.cif
#   From: 2010.03.12/outbox.cif.g09.slc.cpg/sg72_10_cif.got.tgz:19733.got - 2010.04.16 14:54:00.
