data_PCOD8294464
_publ_section_title
;
Structure prediction by ZEFSAII (Michael W. Deem and Ramdas Pophale) SiO2 
 PCOD8294464
Probable space group: I B A M
;
_chemical_formula_sum "Si O2"
_cell_formula_units_Z 112
_cell_length_a 11.589889
_cell_length_b 27.460546
_cell_length_c 21.051929
_cell_angle_alpha 90.000000
_cell_angle_beta 90.000000
_cell_angle_gamma 90.000000
_cell_volume 6700.085447
_symmetry_space_group_name_H-M "I B A M"
_symmetry_group_IT_number 72
_symmetry_cell_setting 'orthorhombic'
loop_
_space_group_symop_operation_xyz
x,y,z
-x,-y,z
x,-y,1/2-z
-x,y,1/2-z
-x,-y,-z
x,y,-z
-x,y,1/2+z
x,-y,1/2+z
1/2+x,1/2+y,1/2+z
1/2-x,1/2-y,1/2+z
1/2+x,1/2-y,-z
1/2-x,1/2+y,-z
1/2-x,1/2-y,1/2-z
1/2+x,1/2+y,1/2-z
1/2-x,1/2+y,z
1/2+x,1/2-y,z
loop_
_atom_site_type_symbol
_atom_site_label
_atom_site_fract_x
_atom_site_fract_y
_atom_site_fract_z
Si Si1 0.005983 0.945817 0.146985
Si Si2 0.249325 0.693594 0.359236
Si Si3 0.689273 0.446258 0.251814
Si Si4 0.910462 0.268714 0.191996
Si Si5 0.060848 0.751020 0.573169
Si Si6 0.869152 0.636767 0.246118
Si Si7 0.961170 0.147420 0.927857
O O1 0.907110 0.941696 0.198726
O O2 0.130190 0.937089 0.179968
O O3 0.985957 0.903454 0.096074
O O4 0.000000 0.000000 0.115668
O O5 0.314472 0.726485 0.306468
O O6 0.186166 0.729370 0.409503
O O7 0.157175 0.659284 0.323547
O O8 0.341711 0.659916 0.393656
O O9 0.745179 0.500000 0.250000
O O10 0.788081 0.407878 0.237362
O O11 0.850034 0.320864 0.201855
O O12 0.000000 0.258939 0.250000
O O13 0.968262 0.270806 0.122343
O O14 0.030049 0.737041 0.500000
O O15 0.056516 0.809839 0.581286
O O16 0.000000 0.617790 0.250000
O O17 0.927780 0.139863 0.000000
#
# Coordination Sequence:
#
# PCOD8294464 Si02
#       7
#    16  16  16  16  16  16  16
#     4   9  18  35  56  80 106 133 171 219 276 328
#     4  11  20  34  52  72 108 143 178 216 265 320
#     4   9  19  34  54  78 105 135 166 216 282 328
#     4  10  21  33  50  79 104 135 181 225 264 310
#     4  10  21  36  50  73 111 145 179 218 260 319
#     4  11  20  32  51  79 105 132 178 223 259 314
#     4  10  21  34  52  79 104 140 183 217 268 320
#
# _framework density 16.716204999999999
#
# number of rings (size 3 to 8) (size 9 to 14) (size 15 to 20)
#    0.000    2.000    4.286    1.714    2.000    2.286 
#    0.000    0.000    0.000    0.000    0.000    0.000 
#    0.000    3.714    0.000    0.000    0.000    0.000 
#
# Total GULP energy -694097.279383 kJ/mol
# GULP energy per Si atom -12394.594275 kJ/mol
# Density = 1.667816 g / cm^3
# Si number density = 16.716205 Si / 1000 Ang^3
#
#
#
# Elastic Constant Matrix: (Units=GPa)
#
#
# Indices 1 2 3 4 5 6 
#
# 1 66.9574 44.2671 21.2572 0.0000 0.0000 0.0000
# 2 44.2671 128.3217 48.7182 0.0000 0.0000 0.0000
# 3 21.2572 48.7182 86.1269 0.0000 0.0000 0.0000
# 4 0.0000 0.0000 0.0000 24.1181 0.0000 0.0000
# 5 0.0000 0.0000 0.0000 0.0000 16.8387 0.0000
# 6 0.0000 0.0000 0.0000 0.0000 0.0000 29.9503
#
#
#
# Elastic Compliance Matrix: (Units=1/GPa)
#
#
# Indices 1 2 3 4 5 6 
#
# 1 0.019458 -0.006226 -0.001281 0.000000 0.000000 0.000000
# 2 -0.006226 0.011916 -0.005204 0.000000 0.000000 0.000000
# 3 -0.001281 -0.005204 0.014870 0.000000 0.000000 0.000000
# 4 0.000000 0.000000 0.000000 0.041463 0.000000 0.000000
# 5 0.000000 0.000000 0.000000 0.000000 0.059387 0.000000
# 6 0.000000 0.000000 0.000000 0.000000 0.000000 0.033389
#
#
# Mechanical properties :
#
#
# Convention : Reuss Voigt Hill
#
# Bulk Modulus (GPa) = 48.02301 56.65457 52.33879
# Shear Modulus (GPa) = 23.49125 25.32565 24.40845
#
# Velocity S-wave (km/s) = 3.75280 3.89657 3.82536
# Velocity P-wave (km/s) = 6.89701 7.36274 7.13368
#
# Compressibility (1/GPa) = 0.02082335
#
# Stress axis : x y z
#
# Youngs Moduli (GPa) = 51.39361 83.91759 67.24742
#
# Poissons Ratio (x) = 0.52248 0.08611
# Poissons Ratio (y) = 0.31998 0.34995
# Poissons Ratio (z) = 0.06581 0.43670
#
# Static dielectric constant tensor:
#      x y z
#    x 3.099240 0.000000 0.000000 
#    y 0.000000 3.278360 0.000000 
#    z 0.000000 0.000000 3.091080 
# 
# 
# High freq. dielectric constant tensor:
#      x y z
#    x 1.635890 0.000000 0.000000 
#    y 0.000000 1.643820 0.000000 
#    z 0.000000 0.000000 1.633420 
# 
# From -- ./inp_files/43627.got.cif
#   From: 2010.03.12/outbox.cif.g09.slc.cpg/sg72_22_cif.got.tgz:43627.got - 2010.04.16 14:54:00.
