data_PCOD8294534
_publ_section_title
;
Structure prediction by ZEFSAII (Michael W. Deem and Ramdas Pophale) SiO2 
 PCOD8294534
Probable space group: I B A M
;
_chemical_formula_sum "Si O2"
_cell_formula_units_Z 104
_cell_length_a 20.255653
_cell_length_b 13.814308
_cell_length_c 19.366884
_cell_angle_alpha 90.000000
_cell_angle_beta 90.000000
_cell_angle_gamma 90.000000
_cell_volume 5419.199441
_symmetry_space_group_name_H-M "I B A M"
_symmetry_group_IT_number 72
_symmetry_cell_setting 'orthorhombic'
loop_
_space_group_symop_operation_xyz
x,y,z
-x,-y,z
x,-y,1/2-z
-x,y,1/2-z
-x,-y,-z
x,y,-z
-x,y,1/2+z
x,-y,1/2+z
1/2+x,1/2+y,1/2+z
1/2-x,1/2-y,1/2+z
1/2+x,1/2-y,-z
1/2-x,1/2+y,-z
1/2-x,1/2-y,1/2-z
1/2+x,1/2+y,1/2-z
1/2-x,1/2+y,z
1/2+x,1/2-y,z
loop_
_atom_site_type_symbol
_atom_site_label
_atom_site_fract_x
_atom_site_fract_y
_atom_site_fract_z
Si Si1 0.265483 0.958549 0.633859
Si Si2 0.634988 0.000000 0.750000
Si Si3 0.434494 0.811590 0.211411
Si Si4 0.234872 0.840949 0.919317
Si Si5 0.863908 0.312284 0.077539
Si Si6 0.000824 0.614775 0.580569
Si Si7 0.198645 0.220214 0.809095
O O1 0.317550 0.007663 0.684601
O O2 0.306707 0.892726 0.581247
O O3 0.211235 0.892239 0.672501
O O4 0.228367 0.044536 0.593724
O O5 0.589152 0.093942 0.746752
O O6 0.500000 0.772119 0.250000
O O7 0.444698 0.837752 0.130351
O O8 0.376751 0.731035 0.216702
O O9 0.165973 0.789561 0.895116
O O10 0.292888 0.791256 0.874954
O O11 0.248743 0.820614 0.000000
O O12 0.931915 0.344560 0.113062
O O13 0.886214 0.299786 0.000000
O O14 0.015236 0.641132 0.500000
O O15 0.000000 0.500000 0.589765
O O16 0.250000 0.250000 0.750000
#
# Coordination Sequence:
#
# PCOD8294534 Si02
#       7
#    16   8  16  16  16  16  16
#     4  11  19  35  58  82 116 155 202 246 298 356
#     4  12  21  36  56  88 115 160 198 240 307 368
#     4  12  23  36  58  89 122 158 202 243 302 367
#     4  10  21  36  60  89 119 159 205 253 305 362
#     4   9  19  34  54  83 118 153 191 239 304 365
#     4  10  21  36  56  86 121 157 191 243 310 368
#     4  11  23  39  60  88 123 165 201 254 306 363
#
# _framework density 19.191026999999998
#
# number of rings (size 3 to 8) (size 9 to 14) (size 15 to 20)
#    0.000    1.385    3.077    3.462    2.154    1.231 
#    0.000    0.000    0.000    0.923    0.000    3.231 
#    0.000    0.000    0.000    0.000    0.000    0.000 
#
# Total GULP energy -644537.697800 kJ/mol
# GULP energy per Si atom -12394.955727 kJ/mol
# Density = 1.914735 g / cm^3
# Si number density = 19.191027 Si / 1000 Ang^3
#
#
#
# Elastic Constant Matrix: (Units=GPa)
#
#
# Indices 1 2 3 4 5 6 
#
# 1 122.3377 42.2946 34.3057 0.0000 0.0000 0.0000
# 2 42.2946 93.3546 21.1382 0.0000 0.0000 0.0000
# 3 34.3057 21.1382 82.3462 0.0000 0.0000 0.0000
# 4 0.0000 0.0000 0.0000 24.9905 0.0000 0.0000
# 5 0.0000 0.0000 0.0000 0.0000 24.5343 0.0000
# 6 0.0000 0.0000 0.0000 0.0000 0.0000 34.0104
#
#
#
# Elastic Compliance Matrix: (Units=1/GPa)
#
#
# Indices 1 2 3 4 5 6 
#
# 1 0.010494 -0.003997 -0.003346 0.000000 0.000000 0.000000
# 2 -0.003997 0.012895 -0.001645 0.000000 0.000000 0.000000
# 3 -0.003346 -0.001645 0.013960 0.000000 0.000000 0.000000
# 4 0.000000 0.000000 0.000000 0.040015 0.000000 0.000000
# 5 0.000000 0.000000 0.000000 0.000000 0.040759 0.000000
# 6 0.000000 0.000000 0.000000 0.000000 0.000000 0.029403
#
#
# Mechanical properties :
#
#
# Convention : Reuss Voigt Hill
#
# Bulk Modulus (GPa) = 51.61635 54.83506 53.22570
# Shear Modulus (GPa) = 29.07654 30.06038 29.56846
#
# Velocity S-wave (km/s) = 3.89667 3.96204 3.92949
# Velocity P-wave (km/s) = 6.87021 7.04029 6.95577
#
# Compressibility (1/GPa) = 0.01937371
#
# Stress axis : x y z
#
# Youngs Moduli (GPa) = 95.29142 77.54888 71.63296
#
# Poissons Ratio (x) = 0.30995 0.23968
# Poissons Ratio (y) = 0.38086 0.11784
# Poissons Ratio (z) = 0.31884 0.12757
#
# Static dielectric constant tensor:
#      x y z
#    x 3.621160 0.000000 0.000000 
#    y 0.000000 3.620170 0.000000 
#    z 0.000000 0.000000 3.670160 
# 
# 
# High freq. dielectric constant tensor:
#      x y z
#    x 1.733280 0.000000 0.000000 
#    y 0.000000 1.720900 0.000000 
#    z 0.000000 0.000000 1.763470 
# 
# From -- ./inp_files/39055.got.cif
#   From: 2010.03.12/outbox.cif.g09.slc.cpg/sg72_20_cif.got.tgz:39055.got - 2010.04.16 14:54:00.
