data_PCOD8294507
_publ_section_title
;
Structure prediction by ZEFSAII (Michael W. Deem and Ramdas Pophale) SiO2 
 PCOD8294507
Probable space group: I B A M
;
_chemical_formula_sum "Si O2"
_cell_formula_units_Z 96
_cell_length_a 23.840267
_cell_length_b 24.054376
_cell_length_c 8.792932
_cell_angle_alpha 90.000000
_cell_angle_beta 90.000000
_cell_angle_gamma 90.000000
_cell_volume 5042.418933
_symmetry_space_group_name_H-M "I B A M"
_symmetry_group_IT_number 72
_symmetry_cell_setting 'orthorhombic'
loop_
_space_group_symop_operation_xyz
x,y,z
-x,-y,z
x,-y,1/2-z
-x,y,1/2-z
-x,-y,-z
x,y,-z
-x,y,1/2+z
x,-y,1/2+z
1/2+x,1/2+y,1/2+z
1/2-x,1/2-y,1/2+z
1/2+x,1/2-y,-z
1/2-x,1/2+y,-z
1/2-x,1/2-y,1/2-z
1/2+x,1/2+y,1/2-z
1/2-x,1/2+y,z
1/2+x,1/2-y,z
loop_
_atom_site_type_symbol
_atom_site_label
_atom_site_fract_x
_atom_site_fract_y
_atom_site_fract_z
Si Si1 0.939504 0.124938 0.321281
Si Si2 0.730325 0.649205 0.321269
Si Si3 0.365594 0.729937 0.825546
Si Si4 0.155228 0.942194 0.179175
Si Si5 0.357633 0.156647 0.821310
Si Si6 0.560419 0.940992 0.817766
O O1 0.942499 0.114985 0.500000
O O2 0.910260 0.183087 0.280543
O O3 0.904655 0.074820 0.248351
O O4 0.000000 0.125243 0.250000
O O5 0.725651 0.634204 0.500000
O O6 0.697092 0.706891 0.289613
O O7 0.703153 0.601102 0.222376
O O8 0.793872 0.652977 0.262050
O O9 0.381901 0.784273 0.730557
O O10 0.370800 0.746856 0.000000
O O11 0.174449 0.000000 0.250000
O O12 0.149665 0.947067 0.000000
O O13 0.395441 0.105644 0.760764
O O14 0.358492 0.154991 0.000000
O O15 0.500000 0.924804 0.750000
O O16 0.580572 0.000000 0.750000
O O17 0.556692 0.944820 0.000000
#
# Coordination Sequence:
#
# PCOD8294507 Si02
#       6
#    16  16  16  16  16  16
#     4  10  21  38  57  81 111 145 185 230 274 321
#     4   9  19  37  55  78 112 145 179 225 271 317
#     4   9  19  34  54  79 111 145 178 219 268 317
#     4  11  22  37  57  81 109 145 184 226 274 326
#     4  10  21  35  56  83 110 140 180 223 267 322
#     4  10  21  38  57  78 104 138 174 218 269 318
#
# _framework density 19.038481999999998
#
# number of rings (size 3 to 8) (size 9 to 14) (size 15 to 20)
#    0.000    2.167    0.000    4.500    0.000    7.000 
#    0.000    6.667    0.000    0.000    0.000    0.000 
#    0.000    0.000    0.000    0.000    0.000    0.000 
#
# Total GULP energy -595248.332441 kJ/mol
# GULP energy per Si atom -12401.006926 kJ/mol
# Density = 1.899515 g / cm^3
# Si number density = 19.038482 Si / 1000 Ang^3
#
#
#
# Elastic Constant Matrix: (Units=GPa)
#
#
# Indices 1 2 3 4 5 6 
#
# 1 26.6088 18.1616 3.6287 0.0000 0.0000 0.0000
# 2 18.1616 108.6513 28.0505 0.0000 0.0000 0.0000
# 3 3.6287 28.0505 64.2852 0.0000 0.0000 0.0000
# 4 0.0000 0.0000 0.0000 35.1995 0.0000 0.0000
# 5 0.0000 0.0000 0.0000 0.0000 27.7009 0.0000
# 6 0.0000 0.0000 0.0000 0.0000 0.0000 22.7631
#
#
#
# Elastic Compliance Matrix: (Units=1/GPa)
#
#
# Indices 1 2 3 4 5 6 
#
# 1 0.042457 -0.007301 0.000789 0.000000 0.000000 0.000000
# 2 -0.007301 0.011628 -0.004662 0.000000 0.000000 0.000000
# 3 0.000789 -0.004662 0.017545 0.000000 0.000000 0.000000
# 4 0.000000 0.000000 0.000000 0.028410 0.000000 0.000000
# 5 0.000000 0.000000 0.000000 0.000000 0.036100 0.000000
# 6 0.000000 0.000000 0.000000 0.000000 0.000000 0.043931
#
#
# Mechanical properties :
#
#
# Convention : Reuss Voigt Hill
#
# Bulk Modulus (GPa) = 20.29079 33.24744 26.76911
# Shear Modulus (GPa) = 22.84734 27.11299 24.98017
#
# Velocity S-wave (km/s) = 3.46795 3.77784 3.62621
# Velocity P-wave (km/s) = 5.16880 6.04406 5.62348
#
# Compressibility (1/GPa) = 0.04928345
#
# Stress axis : x y z
#
# Youngs Moduli (GPa) = 23.55330 86.00265 56.99579
#
# Poissons Ratio (x) = 0.62787 -0.04497
# Poissons Ratio (y) = 0.17195 0.26569
# Poissons Ratio (z) = -0.01858 0.40090
#
# Static dielectric constant tensor:
#      x y z
#    x 3.632920 0.000000 0.000000 
#    y 0.000000 3.643190 0.000000 
#    z 0.000000 0.000000 3.422490 
# 
# 
# High freq. dielectric constant tensor:
#      x y z
#    x 1.740340 0.000000 0.000000 
#    y 0.000000 1.744430 0.000000 
#    z 0.000000 0.000000 1.741690 
# 
# From -- ./inp_files/6948.got.cif
#   From: 2010.03.12/outbox.cif.g09.slc.cpg/sg72_4_cif.got.tgz:6948.got - 2010.04.16 14:54:00.
