data_PCOD8294043
_publ_section_title
;
Structure prediction by ZEFSAII (Michael W. Deem and Ramdas Pophale) SiO2 
 PCOD8294043
Probable space group: I B A M
;
_chemical_formula_sum "Si O2"
_cell_formula_units_Z 112
_cell_length_a 11.903493
_cell_length_b 27.871007
_cell_length_c 18.474778
_cell_angle_alpha 90.000000
_cell_angle_beta 90.000000
_cell_angle_gamma 90.000000
_cell_volume 6129.235520
_symmetry_space_group_name_H-M "I B A M"
_symmetry_group_IT_number 72
_symmetry_cell_setting 'orthorhombic'
loop_
_space_group_symop_operation_xyz
x,y,z
-x,-y,z
x,-y,1/2-z
-x,y,1/2-z
-x,-y,-z
x,y,-z
-x,y,1/2+z
x,-y,1/2+z
1/2+x,1/2+y,1/2+z
1/2-x,1/2-y,1/2+z
1/2+x,1/2-y,-z
1/2-x,1/2+y,-z
1/2-x,1/2-y,1/2-z
1/2+x,1/2+y,1/2-z
1/2-x,1/2+y,z
1/2+x,1/2-y,z
loop_
_atom_site_type_symbol
_atom_site_label
_atom_site_fract_x
_atom_site_fract_y
_atom_site_fract_z
Si Si1 0.868861 0.665276 0.583926
Si Si2 0.296261 0.584086 0.083373
Si Si3 0.621843 0.181502 0.083757
Si Si4 0.668529 0.620122 0.915372
Si Si5 0.121093 0.985086 0.084882
Si Si6 0.966780 0.145135 0.327429
Si Si7 0.704563 0.729823 0.674727
O O1 0.852756 0.679722 0.500000
O O2 0.820391 0.611670 0.598485
O O3 0.805653 0.704259 0.632403
O O4 0.998488 0.663775 0.606789
O O5 0.288075 0.527303 0.102379
O O6 0.394920 0.605985 0.130731
O O7 0.333136 0.590451 0.000000
O O8 0.706232 0.138146 0.101381
O O9 0.656124 0.227560 0.127944
O O10 0.625423 0.195978 0.000000
O O11 0.661462 0.565918 0.883228
O O12 0.579625 0.654445 0.874198
O O13 0.640934 0.623248 0.000000
O O14 0.109104 0.977577 0.000000
O O15 0.000000 0.000000 0.117507
O O16 0.899169 0.194015 0.313752
O O17 0.000000 0.123342 0.250000
O O18 0.750000 0.750000 0.750000
#
# Coordination Sequence:
#
# PCOD8294043 Si02
#       7
#    16  16  16  16  16  16  16
#     4   9  20  38  56  78 107 141 185 226 268 322
#     4   9  17  34  57  79 106 145 180 214 265 328
#     4  10  22  37  55  78 108 143 182 228 271 316
#     4  10  20  35  55  82 113 142 177 220 270 325
#     4   9  15  28  54  84 110 139 175 216 267 323
#     4  11  22  34  52  79 110 137 177 225 273 320
#     4  11  24  38  56  76 104 145 185 229 272 329
#
# _framework density 18.273078000000002
#
# number of rings (size 3 to 8) (size 9 to 14) (size 15 to 20)
#    0.000    2.143    1.429    1.714    4.000    1.714 
#    0.000    2.143    0.000    4.286    0.000    0.000 
#    0.000    4.571    0.000    0.000    0.000    0.000 
#
# Total GULP energy -694265.327826 kJ/mol
# GULP energy per Si atom -12397.595140 kJ/mol
# Density = 1.823149 g / cm^3
# Si number density = 18.273078 Si / 1000 Ang^3
#
#
#
# Elastic Constant Matrix: (Units=GPa)
#
#
# Indices 1 2 3 4 5 6 
#
# 1 149.8526 68.2727 56.8172 0.0000 0.0000 0.0000
# 2 68.2727 116.8491 44.0855 0.0001 0.0000 0.0000
# 3 56.8172 44.0855 66.8732 0.0002 -0.0001 0.0000
# 4 0.0000 0.0001 0.0002 10.5105 0.0000 0.0000
# 5 0.0000 0.0000 -0.0001 0.0000 17.6238 0.0000
# 6 0.0000 0.0000 0.0000 0.0000 0.0000 19.8554
#
#
#
# Elastic Compliance Matrix: (Units=1/GPa)
#
#
# Indices 1 2 3 4 5 6 
#
# 1 0.011018 -0.003868 -0.006811 0.000000 0.000000 0.000000
# 2 -0.003868 0.012749 -0.005119 0.000000 0.000000 0.000000
# 3 -0.006811 -0.005119 0.024115 0.000000 0.000000 0.000000
# 4 0.000000 0.000000 0.000000 0.095143 0.000000 0.000000
# 5 0.000000 0.000000 0.000000 0.000000 0.056741 0.000000
# 6 0.000000 0.000000 0.000000 0.000000 0.000000 0.050364
#
#
# Mechanical properties :
#
#
# Convention : Reuss Voigt Hill
#
# Bulk Modulus (GPa) = 61.39933 74.65841 68.02887
# Shear Modulus (GPa) = 17.41220 20.55790 18.98505
#
# Velocity S-wave (km/s) = 3.09024 3.35780 3.22679
# Velocity P-wave (km/s) = 6.81225 7.48190 7.15491
#
# Compressibility (1/GPa) = 0.01628682
#
# Stress axis : x y z
#
# Youngs Moduli (GPa) = 90.76139 78.43729 41.46780
#
# Poissons Ratio (x) = 0.30337 0.28245
# Poissons Ratio (y) = 0.35104 0.21225
# Poissons Ratio (z) = 0.61821 0.40148
#
# Static dielectric constant tensor:
#      x y z
#    x 3.528440 0.000000 0.000000 
#    y 0.000000 3.696910 0.000000 
#    z 0.000000 0.000000 3.252910 
# 
# 
# High freq. dielectric constant tensor:
#      x y z
#    x 1.704660 0.000000 0.000000 
#    y 0.000000 1.710170 0.000000 
#    z 0.000000 0.000000 1.694650 
# 
# From -- ./inp_files/20684.got.cif
#   From: 2010.03.12/outbox.cif.g09.slc.cpg/sg72_11_cif.got.tgz:20684.got - 2010.04.16 14:54:00.
