data_PCOD8294051
_publ_section_title
;
Structure prediction by ZEFSAII (Michael W. Deem and Ramdas Pophale) SiO2 
 PCOD8294051
Probable space group: I B A M
;
_chemical_formula_sum "Si O2"
_cell_formula_units_Z 84
_cell_length_a 23.858365
_cell_length_b 24.054896
_cell_length_c 8.729839
_cell_angle_alpha 90.000000
_cell_angle_beta 90.000000
_cell_angle_gamma 90.000000
_cell_volume 5010.146168
_symmetry_space_group_name_H-M "I B A M"
_symmetry_group_IT_number 72
_symmetry_cell_setting 'orthorhombic'
loop_
_space_group_symop_operation_xyz
x,y,z
-x,-y,z
x,-y,1/2-z
-x,y,1/2-z
-x,-y,-z
x,y,-z
-x,y,1/2+z
x,-y,1/2+z
1/2+x,1/2+y,1/2+z
1/2-x,1/2-y,1/2+z
1/2+x,1/2-y,-z
1/2-x,1/2+y,-z
1/2-x,1/2-y,1/2-z
1/2+x,1/2+y,1/2-z
1/2-x,1/2+y,z
1/2+x,1/2-y,z
loop_
_atom_site_type_symbol
_atom_site_label
_atom_site_fract_x
_atom_site_fract_y
_atom_site_fract_z
Si Si1 0.443131 0.298318 0.681030
Si Si2 0.500000 0.500000 0.750000
Si Si3 0.743964 0.836229 0.677735
Si Si4 0.204089 0.057324 0.818622
Si Si5 0.911356 0.913707 0.670389
Si Si6 0.161714 0.745803 0.177161
O O1 0.500000 0.272562 0.750000
O O2 0.447172 0.304475 0.500000
O O3 0.435467 0.358788 0.753436
O O4 0.393790 0.256260 0.725006
O O5 0.540234 0.539921 0.849130
O O6 0.729706 0.842920 0.500000
O O7 0.755996 0.895220 0.752836
O O8 0.798121 0.798201 0.704561
O O9 0.690423 0.810158 0.762050
O O10 0.139514 0.064351 0.772022
O O11 0.227328 0.000000 0.750000
O O12 0.207947 0.056722 0.000000
O O13 0.888913 0.899359 0.500000
O O14 0.146353 0.738383 0.000000
#
# Coordination Sequence:
#
# PCOD8294051 Si02
#       6
#    16   4  16  16  16  16
#     4  12  24  37  54  75 104 138 177 222 269 316
#     4  12  26  36  56  66  98 136 190 228 274 304
#     4  10  20  35  56  79 106 136 174 219 270 324
#     4  12  24  37  54  75 104 138 177 222 269 316
#     4  12  24  37  51  70  97 133 181 228 270 313
#     4  10  20  35  56  79 106 136 174 219 270 324
#
# _framework density 16.765979000000002
#
# number of rings (size 3 to 8) (size 9 to 14) (size 15 to 20)
#    0.000    0.762    3.810    5.429    0.000    3.048 
#    0.000    0.000    0.000    0.000    0.000    0.000 
#    0.000    0.762    0.000    7.619    0.000    4.571 
#
# Total GULP energy -520969.145850 kJ/mol
# GULP energy per Si atom -12404.027282 kJ/mol
# Density = 1.672782 g / cm^3
# Si number density = 16.765979 Si / 1000 Ang^3
#
#
#
# Elastic Constant Matrix: (Units=GPa)
#
#
# Indices 1 2 3 4 5 6 
#
# 1 63.9835 45.7510 7.8681 0.0000 0.0000 0.0000
# 2 45.7510 97.5766 29.2463 0.0000 0.0000 0.0000
# 3 7.8681 29.2463 76.5892 0.0000 0.0000 0.0000
# 4 0.0000 0.0000 0.0000 24.7919 0.0000 0.0000
# 5 0.0000 0.0000 0.0000 0.0000 25.7126 0.0000
# 6 0.0000 0.0000 0.0000 0.0000 0.0000 33.1491
#
#
#
# Elastic Compliance Matrix: (Units=1/GPa)
#
#
# Indices 1 2 3 4 5 6 
#
# 1 0.023793 -0.011771 0.002050 0.000000 0.000000 0.000000
# 2 -0.011771 0.017396 -0.005434 0.000000 0.000000 0.000000
# 3 0.002050 -0.005434 0.014921 0.000000 0.000000 0.000000
# 4 0.000000 0.000000 0.000000 0.040336 0.000000 0.000000
# 5 0.000000 0.000000 0.000000 0.000000 0.038891 0.000000
# 6 0.000000 0.000000 0.000000 0.000000 0.000000 0.030167
#
#
# Mechanical properties :
#
#
# Convention : Reuss Voigt Hill
#
# Bulk Modulus (GPa) = 38.75585 44.87557 41.81571
# Shear Modulus (GPa) = 24.46034 27.08297 25.77166
#
# Velocity S-wave (km/s) = 3.82373 4.02351 3.92489
# Velocity P-wave (km/s) = 6.53150 6.95764 6.74794
#
# Compressibility (1/GPa) = 0.02580256
#
# Stress axis : x y z
#
# Youngs Moduli (GPa) = 42.02849 57.48493 67.02017
#
# Poissons Ratio (x) = 0.67663 -0.13742
# Poissons Ratio (y) = 0.49470 0.36416
# Poissons Ratio (z) = -0.08617 0.31235
#
# Static dielectric constant tensor:
#      x y z
#    x 3.094420 0.000000 0.000000 
#    y 0.000000 3.123370 0.000000 
#    z 0.000000 0.000000 3.267760 
# 
# 
# High freq. dielectric constant tensor:
#      x y z
#    x 1.625680 0.000000 0.000000 
#    y 0.000000 1.628210 0.000000 
#    z 0.000000 0.000000 1.668990 
# 
# From -- ./inp_files/6815.got.cif
#   From: 2010.03.12/outbox.cif.g09.slc.cpg/sg72_4_cif.got.tgz:6815.got - 2010.04.16 14:54:00.
