data_PCOD8294088
_publ_section_title
;
Structure prediction by ZEFSAII (Michael W. Deem and Ramdas Pophale) SiO2 
 PCOD8294088
Probable space group: I B A M
;
_chemical_formula_sum "Si O2"
_cell_formula_units_Z 112
_cell_length_a 28.023714
_cell_length_b 13.141258
_cell_length_c 14.859624
_cell_angle_alpha 90.000000
_cell_angle_beta 90.000000
_cell_angle_gamma 90.000000
_cell_volume 5472.307009
_symmetry_space_group_name_H-M "I B A M"
_symmetry_group_IT_number 72
_symmetry_cell_setting 'orthorhombic'
loop_
_space_group_symop_operation_xyz
x,y,z
-x,-y,z
x,-y,1/2-z
-x,y,1/2-z
-x,-y,-z
x,y,-z
-x,y,1/2+z
x,-y,1/2+z
1/2+x,1/2+y,1/2+z
1/2-x,1/2-y,1/2+z
1/2+x,1/2-y,-z
1/2-x,1/2+y,-z
1/2-x,1/2-y,1/2-z
1/2+x,1/2+y,1/2-z
1/2-x,1/2+y,z
1/2+x,1/2-y,z
loop_
_atom_site_type_symbol
_atom_site_label
_atom_site_fract_x
_atom_site_fract_y
_atom_site_fract_z
Si Si1 0.610191 0.722294 0.893626
Si Si2 0.072272 0.758928 0.393043
Si Si3 0.782818 0.307076 0.680367
Si Si4 0.803581 0.915992 0.605818
Si Si5 0.163510 0.127165 0.897401
Si Si6 0.485374 0.390869 0.894335
Si Si7 0.382732 0.118196 0.743524
O O1 0.659309 0.669848 0.859808
O O2 0.568100 0.642652 0.869715
O O3 0.603620 0.825739 0.837129
O O4 0.610344 0.749247 0.000000
O O5 0.075275 0.736009 0.500000
O O6 0.111498 0.842084 0.360479
O O7 0.083907 0.656577 0.338425
O O8 0.021474 0.802784 0.361229
O O9 0.750000 0.250000 0.750000
O O10 0.750736 0.389906 0.629354
O O11 0.800608 0.221502 0.611206
O O12 0.826745 0.366007 0.724866
O O13 0.808964 0.922888 0.500000
O O14 0.816523 0.025395 0.651180
O O15 0.157272 0.098268 0.000000
O O16 0.500000 0.500000 0.850594
O O17 0.492001 0.401095 0.000000
O O18 0.394255 0.000000 0.750000
#
# Coordination Sequence:
#
# PCOD8294088 Si02
#       7
#    16  16  16  16  16  16  16
#     4  10  21  39  60  89 123 153 193 242 294 353
#     4   9  19  39  62  88 122 154 191 241 294 355
#     4  11  22  36  54  79 112 146 193 242 286 344
#     4  10  20  35  58  84 114 151 188 235 295 354
#     4   9  19  35  55  81 112 146 185 230 288 351
#     4   9  17  34  65  97 125 156 190 237 299 358
#     4  11  25  42  59  84 115 157 207 248 293 344
#
# _framework density 20.466688999999999
#
# number of rings (size 3 to 8) (size 9 to 14) (size 15 to 20)
#    0.000    2.143    1.429    1.286    2.000    5.143 
#    0.000    4.286    0.000    2.571    0.000    0.000 
#    0.000    0.000    0.000    0.000    0.000    0.000 
#
# Total GULP energy -694240.871990 kJ/mol
# GULP energy per Si atom -12397.158428 kJ/mol
# Density = 2.042011 g / cm^3
# Si number density = 20.466689 Si / 1000 Ang^3
#
#
#
# Elastic Constant Matrix: (Units=GPa)
#
#
# Indices 1 2 3 4 5 6 
#
# 1 107.6214 38.6503 25.0184 0.0000 0.0000 0.0000
# 2 38.6503 146.4589 41.9070 0.0000 0.0000 0.0000
# 3 25.0184 41.9070 46.8760 0.0000 0.0000 0.0000
# 4 0.0000 0.0000 0.0000 24.3100 0.0000 0.0000
# 5 0.0000 0.0000 0.0000 0.0000 24.0640 0.0000
# 6 0.0000 0.0000 0.0000 0.0000 0.0000 24.6831
#
#
#
# Elastic Compliance Matrix: (Units=1/GPa)
#
#
# Indices 1 2 3 4 5 6 
#
# 1 0.010889 -0.001627 -0.004357 0.000000 0.000000 0.000000
# 2 -0.001627 0.009418 -0.007551 0.000000 0.000000 0.000000
# 3 -0.004357 -0.007551 0.030409 0.000000 0.000000 0.000000
# 4 0.000000 0.000000 0.000000 0.041135 0.000000 0.000000
# 5 0.000000 0.000000 0.000000 0.000000 0.041556 0.000000
# 6 0.000000 0.000000 0.000000 0.000000 0.000000 0.040513
#
#
# Mechanical properties :
#
#
# Convention : Reuss Voigt Hill
#
# Bulk Modulus (GPa) = 42.29157 56.90087 49.59622
# Shear Modulus (GPa) = 23.93799 27.63682 25.78740
#
# Velocity S-wave (km/s) = 3.42366 3.67867 3.55346
# Velocity P-wave (km/s) = 6.02803 6.77536 6.41259
#
# Compressibility (1/GPa) = 0.02364538
#
# Stress axis : x y z
#
# Youngs Moduli (GPa) = 91.83586 106.18139 32.88482
#
# Poissons Ratio (x) = 0.17274 0.14329
# Poissons Ratio (y) = 0.14940 0.24832
# Poissons Ratio (z) = 0.40015 0.80180
#
# Static dielectric constant tensor:
#      x y z
#    x 4.529220 0.000000 0.000000 
#    y 0.000000 3.198020 0.000000 
#    z 0.000000 0.000000 3.624600 
# 
# 
# High freq. dielectric constant tensor:
#      x y z
#    x 1.805730 0.000000 0.000000 
#    y 0.000000 1.788660 0.000000 
#    z 0.000000 0.000000 1.793590 
# 
# From -- ./inp_files/26361.got.cif
#   From: 2010.03.12/outbox.cif.g09.slc.cpg/sg72_14_cif.got.tgz:26361.got - 2010.04.16 14:54:00.
