data_PCOD8294850
_publ_section_title
;
Structure prediction by ZEFSAII (Michael W. Deem and Ramdas Pophale) SiO2 
 PCOD8294850
Probable space group: I B A M
;
_chemical_formula_sum "Si O2"
_cell_formula_units_Z 72
_cell_length_a 8.946108
_cell_length_b 25.778499
_cell_length_c 14.058452
_cell_angle_alpha 90.000000
_cell_angle_beta 90.000000
_cell_angle_gamma 90.000000
_cell_volume 3242.121345
_symmetry_space_group_name_H-M "I B A M"
_symmetry_group_IT_number 72
_symmetry_cell_setting 'orthorhombic'
loop_
_space_group_symop_operation_xyz
x,y,z
-x,-y,z
x,-y,1/2-z
-x,y,1/2-z
-x,-y,-z
x,y,-z
-x,y,1/2+z
x,-y,1/2+z
1/2+x,1/2+y,1/2+z
1/2-x,1/2-y,1/2+z
1/2+x,1/2-y,-z
1/2-x,1/2+y,-z
1/2-x,1/2-y,1/2-z
1/2+x,1/2+y,1/2-z
1/2-x,1/2+y,z
1/2+x,1/2-y,z
loop_
_atom_site_type_symbol
_atom_site_label
_atom_site_fract_x
_atom_site_fract_y
_atom_site_fract_z
Si Si1 0.488173 0.634802 0.000000
Si Si2 0.146606 0.662398 0.000000
Si Si3 0.438097 0.446541 0.647375
Si Si4 0.140899 0.394489 0.310637
Si Si5 0.337527 0.796727 0.794740
Si Si6 0.770229 0.222028 0.000000
O O1 0.322552 0.655289 0.000000
O O2 0.514412 0.600057 0.907884
O O3 0.596463 0.682113 0.000000
O O4 0.077249 0.635622 0.904973
O O5 0.135947 0.724643 0.000000
O O6 0.500000 0.500000 0.600194
O O7 0.500000 0.443638 0.750000
O O8 0.255934 0.439765 0.654664
O O9 0.226643 0.352432 0.242323
O O10 0.000000 0.417759 0.250000
O O11 0.500000 0.793679 0.750000
O O12 0.250000 0.750000 0.750000
O O13 0.334776 0.789285 0.908824
#
# Coordination Sequence:
#
# PCOD8294850 Si02
#       6
#     8   8  16  16  16   8
#     4  10  23  38  68  98 130 170 230 282 334 405
#     4  10  22  39  61  94 137 185 220 269 334 411
#     4  10  21  42  68  96 127 166 223 287 344 399
#     4  10  22  41  62  96 136 175 221 278 339 408
#     4  11  25  38  60  92 135 182 231 268 322 404
#     4  12  24  39  63  94 138 189 226 274 343 391
#
# _framework density 22.207681999999998
#
# number of rings (size 3 to 8) (size 9 to 14) (size 15 to 20)
#    0.000    1.556    2.222    1.667    3.111    4.444 
#    0.000    3.333    0.000    1.333    0.000   26.444 
#    0.000    0.000    0.000    0.000    0.000    0.000 
#
# Total GULP energy -445989.366887 kJ/mol
# GULP energy per Si atom -12388.593525 kJ/mol
# Density = 2.215714 g / cm^3
# Si number density = 22.207682 Si / 1000 Ang^3
#
#
#
# Elastic Constant Matrix: (Units=GPa)
#
#
# Indices 1 2 3 4 5 6 
#
# 1 66.6537 51.7507 17.9761 -0.0004 -0.0004 0.0000
# 2 51.7507 127.6492 23.6047 -0.0001 -0.0006 -0.0001
# 3 17.9761 23.6047 149.3146 -0.0023 -0.0070 -0.0003
# 4 -0.0004 -0.0001 -0.0023 132.0651 -0.0018 -0.0002
# 5 -0.0004 -0.0006 -0.0070 -0.0018 244.8144 -0.0003
# 6 0.0000 -0.0001 -0.0003 -0.0002 -0.0003 37.4464
#
#
#
# Elastic Compliance Matrix: (Units=1/GPa)
#
#
# Indices 1 2 3 4 5 6 
#
# 1 0.022131 -0.008735 -0.001283 0.000000 0.000000 0.000000
# 2 -0.008735 0.011517 -0.000769 0.000000 0.000000 0.000000
# 3 -0.001283 -0.000769 0.006973 0.000000 0.000000 0.000000
# 4 0.000000 0.000000 0.000000 0.007572 0.000000 0.000000
# 5 0.000000 0.000000 0.000000 0.000000 0.004085 0.000000
# 6 0.000000 0.000000 0.000000 0.000000 0.000000 0.026705
#
#
# Mechanical properties :
#
#
# Convention : Reuss Voigt Hill
#
# Bulk Modulus (GPa) = 52.50246 58.92007 55.71126
# Shear Modulus (GPa) = 46.76957 99.55091 73.16024
#
# Velocity S-wave (km/s) = 4.59411 6.70258 5.74588
# Velocity P-wave (km/s) = 7.19958 9.29991 8.31632
#
# Compressibility (1/GPa) = 0.01904673
#
# Stress axis : x y z
#
# Youngs Moduli (GPa) = 45.18575 86.82504 143.40238
#
# Poissons Ratio (x) = 0.75840 0.18406
# Poissons Ratio (y) = 0.39469 0.11030
# Poissons Ratio (z) = 0.05800 0.06678
#
# Static dielectric constant tensor:
#      x y z
#    x 5.142860 -0.000010 0.000000 
#    y -0.000010 4.491450 0.000000 
#    z 0.000000 0.000000 4.412480 
# 
# 
# High freq. dielectric constant tensor:
#      x y z
#    x 1.861210 0.000000 0.000000 
#    y 0.000000 1.863840 0.000000 
#    z 0.000000 0.000000 1.898530 
# 
# From -- ./inp_files/18928.got.cif
#   From: 2010.03.12/outbox.cif.g09.slc.cpg/sg72_10_cif.got.tgz:18928.got - 2010.04.16 14:54:00.
