data_PCOD8294884
_publ_section_title
;
Structure prediction by ZEFSAII (Michael W. Deem and Ramdas Pophale) SiO2 
 PCOD8294884
Probable space group: I B A M
;
_chemical_formula_sum "Si O2"
_cell_formula_units_Z 72
_cell_length_a 11.073226
_cell_length_b 21.748032
_cell_length_c 14.716346
_cell_angle_alpha 90.000000
_cell_angle_beta 90.000000
_cell_angle_gamma 90.000000
_cell_volume 3544.003297
_symmetry_space_group_name_H-M "I B A M"
_symmetry_group_IT_number 72
_symmetry_cell_setting 'orthorhombic'
loop_
_space_group_symop_operation_xyz
x,y,z
-x,-y,z
x,-y,1/2-z
-x,y,1/2-z
-x,-y,-z
x,y,-z
-x,y,1/2+z
x,-y,1/2+z
1/2+x,1/2+y,1/2+z
1/2-x,1/2-y,1/2+z
1/2+x,1/2-y,-z
1/2-x,1/2+y,-z
1/2-x,1/2-y,1/2-z
1/2+x,1/2+y,1/2-z
1/2-x,1/2+y,z
1/2+x,1/2-y,z
loop_
_atom_site_type_symbol
_atom_site_label
_atom_site_fract_x
_atom_site_fract_y
_atom_site_fract_z
Si Si1 0.883774 0.368872 0.894503
Si Si2 0.851669 0.231357 0.896010
Si Si3 0.500000 0.341500 0.250000
Si Si4 0.161168 0.367824 0.897112
Si Si5 0.213142 0.930403 0.739008
O O1 0.828742 0.302217 0.869636
O O2 0.817152 0.421500 0.836810
O O3 0.023363 0.365355 0.865507
O O4 0.868208 0.385378 0.000000
O O5 0.721088 0.199482 0.884924
O O6 0.952384 0.200560 0.832158
O O7 0.899819 0.226730 0.000000
O O8 0.603835 0.385962 0.210972
O O9 0.234612 0.415818 0.837850
O O10 0.172109 0.391020 0.000000
O O11 0.168247 0.000000 0.750000
#
# Coordination Sequence:
#
# PCOD8294884 Si02
#       5
#    16  16   8  16  16
#     4  10  22  37  60  90 118 152 194 244 301 357
#     4   9  20  37  59  89 122 152 189 244 304 359
#     4  10  23  38  64  86 117 156 198 246 300 346
#     4   9  20  38  57  83 118 153 193 245 299 348
#     4  11  24  40  58  84 119 161 205 241 283 349
#
# _framework density 20.316006999999999
#
# number of rings (size 3 to 8) (size 9 to 14) (size 15 to 20)
#    0.000    2.222    0.000    1.000    6.222    5.333 
#    0.000    2.222    0.000    6.667    0.000    0.000 
#    0.000    0.000    0.000    0.000    0.000    0.000 
#
# Total GULP energy -446440.179984 kJ/mol
# GULP energy per Si atom -12401.116111 kJ/mol
# Density = 2.026977 g / cm^3
# Si number density = 20.316007 Si / 1000 Ang^3
#
#
#
# Elastic Constant Matrix: (Units=GPa)
#
#
# Indices 1 2 3 4 5 6 
#
# 1 84.1867 6.8881 31.2259 0.0003 0.0000 -0.0001
# 2 6.8881 79.3820 24.2266 0.0011 -0.0001 -0.0004
# 3 31.2259 24.2266 71.4756 0.0010 -0.0001 -0.0005
# 4 0.0003 0.0011 0.0010 25.6271 -0.0001 -0.0003
# 5 0.0000 -0.0001 -0.0001 -0.0001 33.2047 0.0000
# 6 -0.0001 -0.0004 -0.0005 -0.0003 0.0000 18.0830
#
#
#
# Elastic Compliance Matrix: (Units=1/GPa)
#
#
# Indices 1 2 3 4 5 6 
#
# 1 0.014214 0.000738 -0.006460 0.000000 0.000000 0.000000
# 2 0.000738 0.014089 -0.005098 0.000000 0.000000 0.000000
# 3 -0.006460 -0.005098 0.018541 0.000000 0.000000 0.000000
# 4 0.000000 0.000000 0.000000 0.039021 0.000000 0.000001
# 5 0.000000 0.000000 0.000000 0.000000 0.030116 0.000000
# 6 0.000000 0.000000 0.000000 0.000001 0.000000 0.055301
#
#
# Mechanical properties :
#
#
# Convention : Reuss Voigt Hill
#
# Bulk Modulus (GPa) = 39.67542 39.96951 39.82246
# Shear Modulus (GPa) = 24.83571 26.89655 25.86613
#
# Velocity S-wave (km/s) = 3.50018 3.64250 3.57205
# Velocity P-wave (km/s) = 5.99220 6.11613 6.05448
#
# Compressibility (1/GPa) = 0.02520452
#
# Stress axis : x y z
#
# Youngs Moduli (GPa) = 70.35295 70.97675 53.93473
#
# Poissons Ratio (x) = -0.05239 0.34842
# Poissons Ratio (y) = -0.05193 0.27496
# Poissons Ratio (z) = 0.45448 0.36184
#
# Static dielectric constant tensor:
#      x y z
#    x 3.722730 0.000000 0.000000 
#    y 0.000000 3.490100 0.000000 
#    z 0.000000 0.000000 3.728830 
# 
# 
# High freq. dielectric constant tensor:
#      x y z
#    x 1.796030 0.000000 0.000000 
#    y 0.000000 1.779580 0.000000 
#    z 0.000000 0.000000 1.801720 
# 
# From -- ./inp_files/20107.got.cif
#   From: 2010.03.12/outbox.cif.g09.slc.cpg/sg72_11_cif.got.tgz:20107.got - 2010.04.16 14:54:00.
