data_PCOD8294251
_publ_section_title
;
Structure prediction by ZEFSAII (Michael W. Deem and Ramdas Pophale) SiO2 
 PCOD8294251
Probable space group: I B A M
;
_chemical_formula_sum "Si O2"
_cell_formula_units_Z 96
_cell_length_a 19.359950
_cell_length_b 10.606367
_cell_length_c 23.755318
_cell_angle_alpha 90.000000
_cell_angle_beta 90.000000
_cell_angle_gamma 90.000000
_cell_volume 4877.886943
_symmetry_space_group_name_H-M "I B A M"
_symmetry_group_IT_number 72
_symmetry_cell_setting 'orthorhombic'
loop_
_space_group_symop_operation_xyz
x,y,z
-x,-y,z
x,-y,1/2-z
-x,y,1/2-z
-x,-y,-z
x,y,-z
-x,y,1/2+z
x,-y,1/2+z
1/2+x,1/2+y,1/2+z
1/2-x,1/2-y,1/2+z
1/2+x,1/2-y,-z
1/2-x,1/2+y,-z
1/2-x,1/2-y,1/2-z
1/2+x,1/2+y,1/2-z
1/2-x,1/2+y,z
1/2+x,1/2-y,z
loop_
_atom_site_type_symbol
_atom_site_label
_atom_site_fract_x
_atom_site_fract_y
_atom_site_fract_z
Si Si1 0.411898 0.861689 0.000000
Si Si2 0.684924 0.511306 0.316876
Si Si3 0.500000 0.000000 0.089117
Si Si4 0.423799 0.452256 0.899716
Si Si5 0.649332 0.584333 0.500000
Si Si6 0.234317 0.748634 0.815439
Si Si7 0.386393 0.822214 0.388294
Si Si8 0.686778 0.084738 0.500000
O O1 0.459996 0.894544 0.946975
O O2 0.340611 0.941175 0.000000
O O3 0.390454 0.716841 0.000000
O O4 0.681751 0.500000 0.250000
O O5 0.607438 0.494676 0.339560
O O6 0.711314 0.646938 0.340554
O O7 0.735171 0.394132 0.338401
O O8 0.557420 0.929539 0.126554
O O9 0.500000 0.500000 0.909446
O O10 0.428344 0.302846 0.903078
O O11 0.371547 0.505468 0.945720
O O12 0.731362 0.597407 0.500000
O O13 0.250000 0.750000 0.750000
O O14 0.159424 0.692764 0.831937
O O15 0.340977 0.849927 0.443473
#
# Coordination Sequence:
#
# PCOD8294251 Si02
#       8
#     8  16   8  16   8  16  16   8
#     4   9  20  35  55  77 113 162 195 238 285 349
#     4   9  19  38  60  84 111 147 194 243 292 344
#     4   9  18  38  56  78 113 160 204 226 290 346
#     4  11  23  36  54  84 116 155 189 230 289 346
#     4  12  23  35  55  82 120 151 194 231 291 341
#     4   9  18  36  60  87 113 146 194 245 302 343
#     4  10  20  37  57  82 120 154 193 244 285 348
#     4  10  22  36  55  82 117 151 199 244 292 334
#
# _framework density 19.680653
#
# number of rings (size 3 to 8) (size 9 to 14) (size 15 to 20)
#    0.000    2.167    0.000    3.250    2.333    0.333 
#   12.000    0.000    0.000    0.000    0.000    0.000 
#    0.000    0.000    0.000    0.000    0.000    0.000 
#
# Total GULP energy -594683.964032 kJ/mol
# GULP energy per Si atom -12389.249251 kJ/mol
# Density = 1.963586 g / cm^3
# Si number density = 19.680653 Si / 1000 Ang^3
#
#
#
# Elastic Constant Matrix: (Units=GPa)
#
#
# Indices 1 2 3 4 5 6 
#
# 1 122.7486 36.7554 42.2808 0.0000 0.0000 0.0000
# 2 36.7554 86.8267 33.3880 0.0000 0.0000 0.0000
# 3 42.2808 33.3880 62.8591 0.0000 0.0000 0.0000
# 4 0.0000 0.0000 0.0000 18.1665 0.0000 0.0000
# 5 0.0000 0.0000 0.0000 0.0000 21.7577 0.0000
# 6 0.0000 0.0000 0.0000 0.0000 0.0000 36.2731
#
#
#
# Elastic Compliance Matrix: (Units=1/GPa)
#
#
# Indices 1 2 3 4 5 6 
#
# 1 0.010947 -0.002265 -0.006160 0.000000 0.000000 0.000000
# 2 -0.002265 0.014942 -0.006413 0.000000 0.000000 0.000000
# 3 -0.006160 -0.006413 0.023458 0.000000 0.000000 0.000000
# 4 0.000000 0.000000 0.000000 0.055046 0.000000 0.000000
# 5 0.000000 0.000000 0.000000 0.000000 0.045961 0.000000
# 6 0.000000 0.000000 0.000000 0.000000 0.000000 0.027569
#
#
# Mechanical properties :
#
#
# Convention : Reuss Voigt Hill
#
# Bulk Modulus (GPa) = 50.83651 55.25363 53.04507
# Shear Modulus (GPa) = 23.34746 25.90681 24.62713
#
# Velocity S-wave (km/s) = 3.44803 3.63210 3.54126
# Velocity P-wave (km/s) = 6.46055 6.76207 6.61303
#
# Compressibility (1/GPa) = 0.01967090
#
# Stress axis : x y z
#
# Youngs Moduli (GPa) = 91.35068 66.92488 42.62908
#
# Poissons Ratio (x) = 0.15160 0.26259
# Poissons Ratio (y) = 0.20694 0.27338
# Poissons Ratio (z) = 0.56271 0.42918
#
# Static dielectric constant tensor:
#      x y z
#    x 3.557030 0.000000 0.000000 
#    y 0.000000 4.135000 0.000000 
#    z 0.000000 0.000000 3.362100 
# 
# 
# High freq. dielectric constant tensor:
#      x y z
#    x 1.761890 0.000000 0.000000 
#    y 0.000000 1.788140 0.000000 
#    z 0.000000 0.000000 1.746860 
# 
# From -- ./inp_files/44861.got.cif
#   From: 2010.03.12/outbox.cif.g09.slc.cpg/sg72_23_cif.got.tgz:44861.got - 2010.04.16 14:54:00.
