data_PCOD8294441
_publ_section_title
;
Structure prediction by ZEFSAII (Michael W. Deem and Ramdas Pophale) SiO2 
 PCOD8294441
Probable space group: I B A M
;
_chemical_formula_sum "Si O2"
_cell_formula_units_Z 72
_cell_length_a 23.445392
_cell_length_b 5.089462
_cell_length_c 29.965187
_cell_angle_alpha 90.000000
_cell_angle_beta 90.000000
_cell_angle_gamma 90.000000
_cell_volume 3575.578908
_symmetry_space_group_name_H-M "I B A M"
_symmetry_group_IT_number 72
_symmetry_cell_setting 'orthorhombic'
loop_
_space_group_symop_operation_xyz
x,y,z
-x,-y,z
x,-y,1/2-z
-x,y,1/2-z
-x,-y,-z
x,y,-z
-x,y,1/2+z
x,-y,1/2+z
1/2+x,1/2+y,1/2+z
1/2-x,1/2-y,1/2+z
1/2+x,1/2-y,-z
1/2-x,1/2+y,-z
1/2-x,1/2-y,1/2-z
1/2+x,1/2+y,1/2-z
1/2-x,1/2+y,z
1/2+x,1/2-y,z
loop_
_atom_site_type_symbol
_atom_site_label
_atom_site_fract_x
_atom_site_fract_y
_atom_site_fract_z
Si Si1 0.563023 0.749829 0.230154
Si Si2 0.540194 0.744857 0.500000
Si Si3 0.286093 0.015612 0.301304
Si Si4 0.604201 0.106392 0.640796
Si Si5 0.934652 0.089684 0.593341
O O1 0.597135 0.500000 0.250000
O O2 0.500000 0.743369 0.250000
O O3 0.561384 0.760110 0.176834
O O4 0.596425 0.000000 0.250000
O O5 0.500000 0.500000 0.500000
O O6 0.578684 0.717335 0.455440
O O7 0.500000 0.000000 0.500000
O O8 0.235092 0.810067 0.310827
O O9 0.335102 0.938451 0.336362
O O10 0.306902 0.000000 0.250000
O O11 0.605017 0.330201 0.601796
O O12 0.578907 0.825763 0.627103
O O13 0.000000 0.000000 0.597541
#
# Coordination Sequence:
#
# PCOD8294441 Si02
#       5
#    16   8  16  16  16
#     4  10  22  34  47  71 116 158 186 221 284 342
#     4  10  20  42  58  84 120 164 198 234 290 350
#     4  10  22  41  62  82 113 158 209 258 296 339
#     4  12  23  37  60  90 115 155 205 248 293 353
#     4  11  24  37  60  89 124 156 194 241 292 371
#
# _framework density 20.136600000000001
#
# number of rings (size 3 to 8) (size 9 to 14) (size 15 to 20)
#    0.000    1.333    0.000    6.667    9.333    2.667 
#    0.000    0.000    0.000    0.000    0.000   15.556 
#    0.000    0.000    0.000    0.000    0.000    0.000 
#
# Total GULP energy -446042.655779 kJ/mol
# GULP energy per Si atom -12390.073772 kJ/mol
# Density = 2.009077 g / cm^3
# Si number density = 20.136600 Si / 1000 Ang^3
#
#
#
# Elastic Constant Matrix: (Units=GPa)
#
#
# Indices 1 2 3 4 5 6 
#
# 1 71.9739 22.1842 44.5231 0.0000 0.0000 0.0000
# 2 22.1842 169.6481 42.0823 0.0000 0.0000 0.0000
# 3 44.5231 42.0823 106.6196 0.0000 0.0000 0.0000
# 4 0.0000 0.0000 0.0000 41.2486 0.0000 0.0000
# 5 0.0000 0.0000 0.0000 0.0000 20.2543 0.0000
# 6 0.0000 0.0000 0.0000 0.0000 0.0000 20.8998
#
#
#
# Elastic Compliance Matrix: (Units=1/GPa)
#
#
# Indices 1 2 3 4 5 6 
#
# 1 0.018782 -0.000566 -0.007620 0.000000 0.000000 0.000000
# 2 -0.000566 0.006551 -0.002349 0.000000 0.000000 0.000000
# 3 -0.007620 -0.002349 0.013488 0.000000 0.000000 0.000000
# 4 0.000000 0.000000 0.000000 0.024243 0.000000 0.000000
# 5 0.000000 0.000000 0.000000 0.000000 0.049372 0.000000
# 6 0.000000 0.000000 0.000000 0.000000 0.000000 0.047847
#
#
# Mechanical properties :
#
#
# Convention : Reuss Voigt Hill
#
# Bulk Modulus (GPa) = 56.33357 62.86897 59.60127
# Shear Modulus (GPa) = 26.69914 32.44401 29.57157
#
# Velocity S-wave (km/s) = 3.64524 4.01833 3.83632
# Velocity P-wave (km/s) = 6.76413 7.26762 7.02039
#
# Compressibility (1/GPa) = 0.01775141
#
# Stress axis : x y z
#
# Youngs Moduli (GPa) = 53.24259 152.64017 74.13783
#
# Poissons Ratio (x) = 0.08638 0.56491
# Poissons Ratio (y) = 0.03013 0.17418
# Poissons Ratio (z) = 0.40570 0.35862
#
# Static dielectric constant tensor:
#      x y z
#    x 3.054080 0.000000 0.000000 
#    y 0.000000 3.828000 0.000000 
#    z 0.000000 0.000000 5.148720 
# 
# 
# High freq. dielectric constant tensor:
#      x y z
#    x 1.744110 0.000000 0.000000 
#    y 0.000000 1.825970 0.000000 
#    z 0.000000 0.000000 1.776290 
# 
# From -- ./inp_files/52312.got.cif
#   From: 2010.03.12/outbox.cif.g09.slc.cpg/sg72_27_cif.got.tgz:52312.got - 2010.04.16 14:54:00.
