data_PCOD8294693
_publ_section_title
;
Structure prediction by ZEFSAII (Michael W. Deem and Ramdas Pophale) SiO2 
 PCOD8294693
Probable space group: I B A M
;
_chemical_formula_sum "Si O2"
_cell_formula_units_Z 96
_cell_length_a 14.345872
_cell_length_b 19.869674
_cell_length_c 16.188302
_cell_angle_alpha 90.000000
_cell_angle_beta 90.000000
_cell_angle_gamma 90.000000
_cell_volume 4614.439869
_symmetry_space_group_name_H-M "I B A M"
_symmetry_group_IT_number 72
_symmetry_cell_setting 'orthorhombic'
loop_
_space_group_symop_operation_xyz
x,y,z
-x,-y,z
x,-y,1/2-z
-x,y,1/2-z
-x,-y,-z
x,y,-z
-x,y,1/2+z
x,-y,1/2+z
1/2+x,1/2+y,1/2+z
1/2-x,1/2-y,1/2+z
1/2+x,1/2-y,-z
1/2-x,1/2+y,-z
1/2-x,1/2-y,1/2-z
1/2+x,1/2+y,1/2-z
1/2-x,1/2+y,z
1/2+x,1/2-y,z
loop_
_atom_site_type_symbol
_atom_site_label
_atom_site_fract_x
_atom_site_fract_y
_atom_site_fract_z
Si Si1 0.795529 0.561653 0.097059
Si Si2 0.327185 0.088343 0.095088
Si Si3 0.654135 0.331226 0.406546
Si Si4 0.234055 0.784024 0.661975
Si Si5 0.464365 0.726485 0.096108
Si Si6 0.481805 0.125136 0.654769
O O1 0.777472 0.482927 0.113128
O O2 0.706074 0.603404 0.131996
O O3 0.885753 0.585230 0.146996
O O4 0.811521 0.576687 0.000000
O O5 0.284677 0.144231 0.155902
O O6 0.436520 0.079943 0.115098
O O7 0.311729 0.109586 0.000000
O O8 0.631127 0.348283 0.500000
O O9 0.723612 0.267355 0.404582
O O10 0.554354 0.312885 0.365270
O O11 0.250000 0.750000 0.750000
O O12 0.125153 0.797014 0.647347
O O13 0.479892 0.805707 0.104602
O O14 0.449912 0.709245 0.000000
O O15 0.500000 0.141015 0.750000
#
# Coordination Sequence:
#
# PCOD8294693 Si02
#       6
#    16  16  16  16  16  16
#     4  10  22  40  61  87 124 168 212 259 318 385
#     4  11  23  40  61  88 124 167 213 259 315 387
#     4  10  21  38  61  87 119 162 209 255 308 373
#     4  12  24  39  61  93 123 161 205 264 320 376
#     4  11  22  38  64  91 123 164 213 262 311 379
#     4  12  23  36  58  94 128 161 204 264 325 385
#
# _framework density 20.804257
#
# number of rings (size 3 to 8) (size 9 to 14) (size 15 to 20)
#    0.000    1.000    3.333    4.500    0.000    2.667 
#    0.000    0.833    0.000    4.000    0.000    2.333 
#    0.000    0.000    0.000    0.000    0.000    0.000 
#
# Total GULP energy -595239.181149 kJ/mol
# GULP energy per Si atom -12400.816274 kJ/mol
# Density = 2.075691 g / cm^3
# Si number density = 20.804257 Si / 1000 Ang^3
#
#
#
# Elastic Constant Matrix: (Units=GPa)
#
#
# Indices 1 2 3 4 5 6 
#
# 1 153.2923 67.7079 37.8980 0.0001 0.0000 0.0000
# 2 67.7079 134.8890 34.7292 0.0001 0.0000 0.0000
# 3 37.8980 34.7292 67.7710 0.0001 0.0000 0.0000
# 4 0.0001 0.0001 0.0001 11.8980 0.0000 0.0000
# 5 0.0000 0.0000 0.0000 0.0000 24.0671 0.0000
# 6 0.0000 0.0000 0.0000 0.0000 0.0000 35.3712
#
#
#
# Elastic Compliance Matrix: (Units=1/GPa)
#
#
# Indices 1 2 3 4 5 6 
#
# 1 0.008914 -0.003676 -0.003101 0.000000 0.000000 0.000000
# 2 -0.003676 0.010056 -0.003098 0.000000 0.000000 0.000000
# 3 -0.003101 -0.003098 0.018077 0.000000 0.000000 0.000000
# 4 0.000000 0.000000 0.000000 0.084048 0.000000 0.000000
# 5 0.000000 0.000000 0.000000 0.000000 0.041551 0.000000
# 6 0.000000 0.000000 0.000000 0.000000 0.000000 0.028272
#
#
# Mechanical properties :
#
#
# Convention : Reuss Voigt Hill
#
# Bulk Modulus (GPa) = 57.81033 70.73582 64.27308
# Shear Modulus (GPa) = 23.10198 28.64174 25.87186
#
# Velocity S-wave (km/s) = 3.33595 3.71445 3.53028
# Velocity P-wave (km/s) = 6.53346 7.24366 6.89771
#
# Compressibility (1/GPa) = 0.01729795
#
# Stress axis : x y z
#
# Youngs Moduli (GPa) = 112.18654 99.44138 55.31881
#
# Poissons Ratio (x) = 0.36554 0.17154
# Poissons Ratio (y) = 0.41239 0.17136
# Poissons Ratio (z) = 0.34788 0.30804
#
# Static dielectric constant tensor:
#      x y z
#    x 4.053860 0.000000 0.000000 
#    y 0.000000 3.782350 0.000000 
#    z 0.000000 0.000000 3.621030 
# 
# 
# High freq. dielectric constant tensor:
#      x y z
#    x 1.816650 0.000000 0.000000 
#    y 0.000000 1.803320 0.000000 
#    z 0.000000 0.000000 1.807460 
# 
# From -- ./inp_files/21773.got.cif
#   From: 2010.03.12/outbox.cif.g09.slc.cpg/sg72_11_cif.got.tgz:21773.got - 2010.04.16 14:54:00.
