data_PCOD8294033
_publ_section_title
;
Structure prediction by ZEFSAII (Michael W. Deem and Ramdas Pophale) SiO2 
 PCOD8294033
Probable space group: I B A M
;
_chemical_formula_sum "Si O2"
_cell_formula_units_Z 112
_cell_length_a 14.217403
_cell_length_b 26.465205
_cell_length_c 15.351916
_cell_angle_alpha 90.000000
_cell_angle_beta 90.000000
_cell_angle_gamma 90.000000
_cell_volume 5776.411471
_symmetry_space_group_name_H-M "I B A M"
_symmetry_group_IT_number 72
_symmetry_cell_setting 'orthorhombic'
loop_
_space_group_symop_operation_xyz
x,y,z
-x,-y,z
x,-y,1/2-z
-x,y,1/2-z
-x,-y,-z
x,y,-z
-x,y,1/2+z
x,-y,1/2+z
1/2+x,1/2+y,1/2+z
1/2-x,1/2-y,1/2+z
1/2+x,1/2-y,-z
1/2-x,1/2+y,-z
1/2-x,1/2-y,1/2-z
1/2+x,1/2+y,1/2-z
1/2-x,1/2+y,z
1/2+x,1/2-y,z
loop_
_atom_site_type_symbol
_atom_site_label
_atom_site_fract_x
_atom_site_fract_y
_atom_site_fract_z
Si Si1 0.075164 0.187899 0.599662
Si Si2 0.332766 0.206347 0.900819
Si Si3 0.894170 0.898179 0.736358
Si Si4 0.903338 0.520318 0.597905
Si Si5 0.865609 0.164906 0.401861
Si Si6 0.721830 0.953952 0.688571
Si Si7 0.102905 0.615217 0.788529
O O1 0.096778 0.171695 0.500000
O O2 0.129992 0.238567 0.624345
O O3 0.112389 0.145745 0.665052
O O4 0.962939 0.195133 0.613773
O O5 0.219453 0.204718 0.892226
O O6 0.378226 0.169161 0.830894
O O7 0.363554 0.192869 0.000000
O O8 0.853960 0.879562 0.830136
O O9 0.833876 0.945129 0.697479
O O10 0.000000 0.917880 0.750000
O O11 0.925081 0.534531 0.500000
O O12 0.820038 0.476954 0.599009
O O13 0.875120 0.573299 0.639582
O O14 0.000000 0.500000 0.642299
O O15 0.864580 0.141058 0.500000
O O16 0.674341 0.899537 0.710181
O O17 0.686805 0.000000 0.750000
O O18 0.000000 0.614995 0.750000
#
# Coordination Sequence:
#
# PCOD8294033 Si02
#       7
#    16  16  16  16  16  16  16
#     4   9  20  37  56  79 113 150 186 232 283 339
#     4  10  20  36  57  81 108 144 189 233 276 332
#     4  10  20  37  59  82 108 149 190 230 291 342
#     4  10  20  35  55  78 112 154 186 225 285 350
#     4   9  18  35  56  79 107 142 185 228 276 336
#     4  10  21  36  55  81 109 142 182 232 280 334
#     4  11  20  34  54  81 112 142 182 230 278 331
#
# _framework density 19.389201
#
# number of rings (size 3 to 8) (size 9 to 14) (size 15 to 20)
#    0.000    2.143    2.857    0.429    0.000    3.143 
#    2.571    0.000    0.000    0.000    0.000    6.000 
#    0.000    0.000    0.000    0.000    0.000    0.000 
#
# Total GULP energy -693928.318265 kJ/mol
# GULP energy per Si atom -12391.577112 kJ/mol
# Density = 1.934507 g / cm^3
# Si number density = 19.389201 Si / 1000 Ang^3
#
#
#
# Elastic Constant Matrix: (Units=GPa)
#
#
# Indices 1 2 3 4 5 6 
#
# 1 106.1894 33.0450 25.5570 0.0000 0.0000 0.0000
# 2 33.0450 53.8993 24.2038 0.0000 0.0000 0.0000
# 3 25.5570 24.2038 69.6322 0.0001 0.0000 0.0000
# 4 0.0000 0.0000 0.0001 20.1935 0.0000 0.0000
# 5 0.0000 0.0000 0.0000 0.0000 21.7830 0.0000
# 6 0.0000 0.0000 0.0000 0.0000 0.0000 34.2959
#
#
#
# Elastic Compliance Matrix: (Units=1/GPa)
#
#
# Indices 1 2 3 4 5 6 
#
# 1 0.011908 -0.006326 -0.002172 0.000000 0.000000 0.000000
# 2 -0.006326 0.025345 -0.006488 0.000000 0.000000 0.000000
# 3 -0.002172 -0.006488 0.017414 0.000000 0.000000 0.000000
# 4 0.000000 0.000000 0.000000 0.049521 0.000000 0.000000
# 5 0.000000 0.000000 0.000000 0.000000 0.045907 0.000000
# 6 0.000000 0.000000 0.000000 0.000000 0.000000 0.029158
#
#
# Mechanical properties :
#
#
# Convention : Reuss Voigt Hill
#
# Bulk Modulus (GPa) = 40.49319 43.92584 42.20951
# Shear Modulus (GPa) = 22.99318 25.04881 24.02100
#
# Velocity S-wave (km/s) = 3.44739 3.59819 3.52360
# Velocity P-wave (km/s) = 6.06430 6.32192 6.19445
#
# Compressibility (1/GPa) = 0.02469551
#
# Stress axis : x y z
#
# Youngs Moduli (GPa) = 83.97505 39.45593 57.42642
#
# Poissons Ratio (x) = 0.24958 0.12473
# Poissons Ratio (y) = 0.53118 0.37259
# Poissons Ratio (z) = 0.18239 0.25599
#
# Static dielectric constant tensor:
#      x y z
#    x 3.701100 0.000000 0.000000 
#    y 0.000000 3.244820 0.000000 
#    z 0.000000 0.000000 3.649880 
# 
# 
# High freq. dielectric constant tensor:
#      x y z
#    x 1.764190 0.000000 0.000000 
#    y 0.000000 1.726580 0.000000 
#    z 0.000000 0.000000 1.754510 
# 
# From -- ./inp_files/22318.got.cif
#   From: 2010.03.12/outbox.cif.g09.slc.cpg/sg72_12_cif.got.tgz:22318.got - 2010.04.16 14:54:00.
