data_PCOD8294513
_publ_section_title
;
Structure prediction by ZEFSAII (Michael W. Deem and Ramdas Pophale) SiO2 
 PCOD8294513
Probable space group: I B A M
;
_chemical_formula_sum "Si O2"
_cell_formula_units_Z 48
_cell_length_a 11.432284
_cell_length_b 20.028872
_cell_length_c 8.971200
_cell_angle_alpha 90.000000
_cell_angle_beta 90.000000
_cell_angle_gamma 90.000000
_cell_volume 2054.187274
_symmetry_space_group_name_H-M "I B A M"
_symmetry_group_IT_number 72
_symmetry_cell_setting 'orthorhombic'
loop_
_space_group_symop_operation_xyz
x,y,z
-x,-y,z
x,-y,1/2-z
-x,y,1/2-z
-x,-y,-z
x,y,-z
-x,y,1/2+z
x,-y,1/2+z
1/2+x,1/2+y,1/2+z
1/2-x,1/2-y,1/2+z
1/2+x,1/2-y,-z
1/2-x,1/2+y,-z
1/2-x,1/2-y,1/2-z
1/2+x,1/2+y,1/2-z
1/2-x,1/2+y,z
1/2+x,1/2-y,z
loop_
_atom_site_type_symbol
_atom_site_label
_atom_site_fract_x
_atom_site_fract_y
_atom_site_fract_z
Si Si1 0.500000 0.592268 0.250000
Si Si2 0.657716 0.857630 0.000000
Si Si3 0.841659 0.968470 0.000000
Si Si4 0.159855 0.261617 0.000000
Si Si5 0.500000 0.804757 0.250000
Si Si6 0.841579 0.876841 0.500000
O O1 0.581090 0.546126 0.354524
O O2 0.581340 0.639470 0.146986
O O3 0.754680 0.800246 0.000000
O O4 0.579181 0.852498 0.852595
O O5 0.720705 0.928505 0.000000
O O6 0.805107 0.045641 0.000000
O O7 0.079908 0.257265 0.852878
O O8 0.227259 0.331902 0.000000
#
# Coordination Sequence:
#
# PCOD8294513 Si02
#       6
#     8   8   8   8   8   8
#     4  10  21  35  59  92 121 145 189 240 289 345
#     4  11  24  41  62  85 116 153 190 236 288 339
#     4  11  21  37  58  87 119 153 190 236 288 339
#     4  11  24  41  62  85 116 153 190 236 288 339
#     4  10  24  43  58  88 118 145 200 240 272 345
#     4  11  21  37  58  87 119 153 190 236 288 339
#
# _framework density 23.366907000000001
#
# number of rings (size 3 to 8) (size 9 to 14) (size 15 to 20)
#    0.000    1.333    0.000    7.000    0.000    8.000 
#    0.000    5.000    0.000    0.000    0.000    0.000 
#    0.000    0.000    0.000    0.000    0.000    0.000 
#
# Total GULP energy -297703.396556 kJ/mol
# GULP energy per Si atom -12404.308190 kJ/mol
# Density = 2.331372 g / cm^3
# Si number density = 23.366907 Si / 1000 Ang^3
#
#
#
# Elastic Constant Matrix: (Units=GPa)
#
#
# Indices 1 2 3 4 5 6 
#
# 1 153.7192 61.9606 77.5772 0.0001 0.0000 0.0000
# 2 61.9606 75.5877 33.9126 0.0002 0.0002 0.0000
# 3 77.5772 33.9126 188.9659 -0.0001 0.0004 0.0001
# 4 0.0001 0.0002 -0.0001 26.2299 0.0005 0.0001
# 5 0.0000 0.0002 0.0004 0.0005 63.3207 0.0001
# 6 0.0000 0.0000 0.0001 0.0001 0.0001 25.8732
#
#
#
# Elastic Compliance Matrix: (Units=1/GPa)
#
#
# Indices 1 2 3 4 5 6 
#
# 1 0.011278 -0.007795 -0.003231 0.000000 0.000000 0.000000
# 2 -0.007795 0.019776 -0.000349 0.000000 0.000000 0.000000
# 3 -0.003231 -0.000349 0.006681 0.000000 0.000000 0.000000
# 4 0.000000 0.000000 0.000000 0.038124 0.000000 0.000000
# 5 0.000000 0.000000 0.000000 0.000000 0.015793 0.000000
# 6 0.000000 0.000000 0.000000 0.000000 0.000000 0.038650
#
#
# Mechanical properties :
#
#
# Convention : Reuss Voigt Hill
#
# Bulk Modulus (GPa) = 66.73420 85.01929 75.87674
# Shear Modulus (GPa) = 31.63609 39.40626 35.52117
#
# Velocity S-wave (km/s) = 3.68351 4.11105 3.90314
# Velocity P-wave (km/s) = 6.83464 7.68100 7.27015
#
# Compressibility (1/GPa) = 0.01498482
#
# Stress axis : x y z
#
# Youngs Moduli (GPa) = 88.66782 50.56625 149.67706
#
# Poissons Ratio (x) = 0.39417 0.48362
# Poissons Ratio (y) = 0.69118 0.05222
# Poissons Ratio (z) = 0.28649 0.01764
#
# Static dielectric constant tensor:
#      x y z
#    x 4.467010 0.000000 0.000000 
#    y 0.000000 3.803580 0.000000 
#    z 0.000000 0.000000 4.802290 
# 
# 
# High freq. dielectric constant tensor:
#      x y z
#    x 1.926790 0.000000 0.000000 
#    y 0.000000 1.904800 0.000000 
#    z 0.000000 0.000000 1.957140 
# 
# From -- ./inp_files/2236.got.cif
#   From: 2010.03.12/outbox.cif.g09.slc.cpg/sg72_2_cif.got.tgz:2236.got - 2010.04.16 14:54:00.
