data_PCOD8294792
_publ_section_title
;
Structure prediction by ZEFSAII (Michael W. Deem and Ramdas Pophale) SiO2 
 PCOD8294792
Probable space group: I B A M
;
_chemical_formula_sum "Si O2"
_cell_formula_units_Z 96
_cell_length_a 21.921657
_cell_length_b 22.095674
_cell_length_c 9.294846
_cell_angle_alpha 90.000000
_cell_angle_beta 90.000000
_cell_angle_gamma 90.000000
_cell_volume 4502.179753
_symmetry_space_group_name_H-M "I B A M"
_symmetry_group_IT_number 72
_symmetry_cell_setting 'orthorhombic'
loop_
_space_group_symop_operation_xyz
x,y,z
-x,-y,z
x,-y,1/2-z
-x,y,1/2-z
-x,-y,-z
x,y,-z
-x,y,1/2+z
x,-y,1/2+z
1/2+x,1/2+y,1/2+z
1/2-x,1/2-y,1/2+z
1/2+x,1/2-y,-z
1/2-x,1/2+y,-z
1/2-x,1/2-y,1/2-z
1/2+x,1/2+y,1/2-z
1/2-x,1/2+y,z
1/2+x,1/2-y,z
loop_
_atom_site_type_symbol
_atom_site_label
_atom_site_fract_x
_atom_site_fract_y
_atom_site_fract_z
Si Si1 0.253374 0.670670 0.341631
Si Si2 0.163590 0.945276 0.162547
Si Si3 0.919000 0.444355 0.000000
Si Si4 0.063122 0.876349 0.326373
Si Si5 0.061554 0.415861 0.000000
Si Si6 0.125512 0.772068 0.835489
Si Si7 0.875988 0.641219 0.732655
O O1 0.229626 0.689081 0.500000
O O2 0.289151 0.608313 0.347898
O O3 0.302258 0.721969 0.286368
O O4 0.195163 0.657013 0.245025
O O5 0.106978 0.927679 0.264045
O O6 0.195414 0.000000 0.250000
O O7 0.143260 0.963699 0.000000
O O8 0.884057 0.417488 0.135291
O O9 0.910793 0.516517 0.000000
O O10 0.988909 0.422290 0.000000
O O11 0.058969 0.878200 0.500000
O O12 0.085528 0.810260 0.275316
O O13 0.000000 0.890047 0.250000
O O14 0.085349 0.375575 0.870802
O O15 0.098700 0.704025 0.832571
O O16 0.120324 0.797480 0.000000
#
# Coordination Sequence:
#
# PCOD8294792 Si02
#       7
#    16  16   8  16   8  16  16
#     4   9  20  40  63  93 131 166 205 264 319 377
#     4  10  21  40  62  91 130 169 214 265 316 371
#     4  11  26  46  61  94 124 172 213 280 324 375
#     4  11  23  40  63  92 127 170 213 261 319 373
#     4  11  26  44  67  86 132 166 219 268 332 383
#     4  10  22  42  63  94 134 164 208 268 323 379
#     4  12  22  43  68  95 121 170 214 254 320 404
#
# _framework density 21.323004000000001
#
# number of rings (size 3 to 8) (size 9 to 14) (size 15 to 20)
#    0.000    1.500    1.667    4.500    1.167    4.333 
#    7.500    1.667    0.000    0.000    0.000    0.000 
#    0.000    0.000    0.000    0.000    0.000    0.000 
#
# Total GULP energy -594825.802723 kJ/mol
# GULP energy per Si atom -12392.204223 kJ/mol
# Density = 2.127447 g / cm^3
# Si number density = 21.323004 Si / 1000 Ang^3
#
#
#
# Elastic Constant Matrix: (Units=GPa)
#
#
# Indices 1 2 3 4 5 6 
#
# 1 58.2410 13.9879 22.1077 0.0000 0.0000 0.0000
# 2 13.9879 90.4250 23.9738 0.0000 0.0000 0.0000
# 3 22.1077 23.9738 141.9980 0.0000 0.0000 0.0000
# 4 0.0000 0.0000 0.0000 39.8942 0.0000 0.0000
# 5 0.0000 0.0000 0.0000 0.0000 57.9529 0.0000
# 6 0.0000 0.0000 0.0000 0.0000 0.0000 6.8369
#
#
#
# Elastic Compliance Matrix: (Units=1/GPa)
#
#
# Indices 1 2 3 4 5 6 
#
# 1 0.018663 -0.002216 -0.002532 0.000000 0.000000 0.000000
# 2 -0.002216 0.011840 -0.001654 0.000000 0.000000 0.000000
# 3 -0.002532 -0.001654 0.007716 0.000000 0.000000 0.000000
# 4 0.000000 0.000000 0.000000 0.025066 0.000000 0.000000
# 5 0.000000 0.000000 0.000000 0.000000 0.017255 0.000000
# 6 0.000000 0.000000 0.000000 0.000000 0.000000 0.146266
#
#
# Mechanical properties :
#
#
# Convention : Reuss Voigt Hill
#
# Bulk Modulus (GPa) = 39.34491 45.64477 42.49484
# Shear Modulus (GPa) = 20.15464 36.30976 28.23220
#
# Velocity S-wave (km/s) = 3.07776 4.13103 3.64266
# Velocity P-wave (km/s) = 5.57871 6.64881 6.13713
#
# Compressibility (1/GPa) = 0.02541625
#
# Stress axis : x y z
#
# Youngs Moduli (GPa) = 53.58139 84.45819 129.60513
#
# Poissons Ratio (x) = 0.18715 0.32810
# Poissons Ratio (y) = 0.11873 0.21437
# Poissons Ratio (z) = 0.13565 0.13970
#
# Static dielectric constant tensor:
#      x y z
#    x 3.815950 0.000000 0.000000 
#    y 0.000000 3.988860 0.000000 
#    z 0.000000 0.000000 3.826150 
# 
# 
# High freq. dielectric constant tensor:
#      x y z
#    x 1.828380 0.000000 0.000000 
#    y 0.000000 1.850300 0.000000 
#    z 0.000000 0.000000 1.843050 
# 
# From -- ./inp_files/7007.got.cif
#   From: 2010.03.12/outbox.cif.g09.slc.cpg/sg72_4_cif.got.tgz:7007.got - 2010.04.16 14:54:00.
