data_PCOD8294474
_publ_section_title
;
Structure prediction by ZEFSAII (Michael W. Deem and Ramdas Pophale) SiO2 
 PCOD8294474
Probable space group: I B A M
;
_chemical_formula_sum "Si O2"
_cell_formula_units_Z 80
_cell_length_a 14.341603
_cell_length_b 24.923305
_cell_length_c 12.817257
_cell_angle_alpha 90.000000
_cell_angle_beta 90.000000
_cell_angle_gamma 90.000000
_cell_volume 4581.402210
_symmetry_space_group_name_H-M "I B A M"
_symmetry_group_IT_number 72
_symmetry_cell_setting 'orthorhombic'
loop_
_space_group_symop_operation_xyz
x,y,z
-x,-y,z
x,-y,1/2-z
-x,y,1/2-z
-x,-y,-z
x,y,-z
-x,y,1/2+z
x,-y,1/2+z
1/2+x,1/2+y,1/2+z
1/2-x,1/2-y,1/2+z
1/2+x,1/2-y,-z
1/2-x,1/2+y,-z
1/2-x,1/2-y,1/2-z
1/2+x,1/2+y,1/2-z
1/2-x,1/2+y,z
1/2+x,1/2-y,z
loop_
_atom_site_type_symbol
_atom_site_label
_atom_site_fract_x
_atom_site_fract_y
_atom_site_fract_z
Si Si1 0.945115 0.870110 0.124287
Si Si2 0.746353 0.304166 0.621035
Si Si3 0.607287 0.481832 0.884775
Si Si4 0.645028 0.406055 0.624254
Si Si5 0.604047 0.260889 0.223439
O O1 0.886963 0.922361 0.168689
O O2 0.895576 0.815672 0.157364
O O3 0.052367 0.874047 0.167042
O O4 0.947168 0.873574 0.000000
O O5 0.731901 0.294389 0.500000
O O6 0.732589 0.367504 0.649246
O O7 0.666454 0.267742 0.673646
O O8 0.849468 0.286338 0.655103
O O9 0.500000 0.500000 0.889416
O O10 0.657869 0.532997 0.827598
O O11 0.649662 0.475120 0.000000
O O12 0.631588 0.414173 0.500000
O O13 0.500000 0.241866 0.250000
#
# Coordination Sequence:
#
# PCOD8294474 Si02
#       5
#    16  16  16  16  16
#     4   9  15  26  45  68  98 131 160 191 233 285
#     4  10  21  34  48  66  93 131 168 206 248 293
#     4   7  11  20  39  65  92 127 161 184 219 280
#     4   8  13  25  44  65  94 131 163 192 230 282
#     4  11  21  32  48  70  96 127 167 208 247 294
#
# _framework density 17.461903
#
# number of rings (size 3 to 8) (size 9 to 14) (size 15 to 20)
#    0.000    3.000    2.000    3.000    0.000    0.800 
#    0.000    1.000    0.000    0.000    0.000    0.000 
#    0.000   12.800    0.000   53.200    0.000    0.000 
#
# Total GULP energy -495567.983913 kJ/mol
# GULP energy per Si atom -12389.199598 kJ/mol
# Density = 1.742216 g / cm^3
# Si number density = 17.461903 Si / 1000 Ang^3
#
#
#
# Elastic Constant Matrix: (Units=GPa)
#
#
# Indices 1 2 3 4 5 6 
#
# 1 80.7761 64.5449 20.7670 0.0000 0.0000 0.0000
# 2 64.5449 153.8930 33.6306 0.0000 0.0000 0.0000
# 3 20.7670 33.6306 26.8622 0.0001 -0.0001 0.0000
# 4 0.0000 0.0000 0.0001 19.2683 0.0000 0.0000
# 5 0.0000 0.0000 -0.0001 0.0000 17.4160 0.0000
# 6 0.0000 0.0000 0.0000 0.0000 0.0000 32.7923
#
#
#
# Elastic Compliance Matrix: (Units=1/GPa)
#
#
# Indices 1 2 3 4 5 6 
#
# 1 0.019444 -0.006704 -0.006638 0.000000 0.000000 0.000000
# 2 -0.006704 0.011257 -0.008910 0.000000 0.000000 0.000000
# 3 -0.006638 -0.008910 0.053515 0.000000 0.000000 0.000000
# 4 0.000000 0.000000 0.000000 0.051899 0.000000 0.000000
# 5 0.000000 0.000000 0.000000 0.000000 0.057419 0.000000
# 6 0.000000 0.000000 0.000000 0.000000 0.000000 0.030495
#
#
# Mechanical properties :
#
#
# Convention : Reuss Voigt Hill
#
# Bulk Modulus (GPa) = 25.18298 55.49070 40.33684
# Shear Modulus (GPa) = 17.74496 23.40124 20.57310
#
# Velocity S-wave (km/s) = 3.19126 3.66475 3.43617
# Velocity P-wave (km/s) = 5.29451 7.05368 6.23643
#
# Compressibility (1/GPa) = 0.03970936
#
# Stress axis : x y z
#
# Youngs Moduli (GPa) = 51.43067 88.83282 18.68647
#
# Poissons Ratio (x) = 0.59556 0.12405
# Poissons Ratio (y) = 0.34480 0.16651
# Poissons Ratio (z) = 0.34141 0.79154
#
# Static dielectric constant tensor:
#      x y z
#    x 2.847620 0.000000 0.000000 
#    y 0.000000 3.673120 0.000000 
#    z 0.000000 0.000000 3.478010 
# 
# 
# High freq. dielectric constant tensor:
#      x y z
#    x 1.592880 0.000000 0.000000 
#    y 0.000000 1.682760 0.000000 
#    z 0.000000 0.000000 1.709080 
# 
# From -- ./inp_files/20430.got.cif
#   From: 2010.03.12/outbox.cif.g09.slc.cpg/sg72_11_cif.got.tgz:20430.got - 2010.04.16 14:54:00.
