data_PCOD8294207
_publ_section_title
;
Structure prediction by ZEFSAII (Michael W. Deem and Ramdas Pophale) SiO2 
 PCOD8294207
Probable space group: I B A M
;
_chemical_formula_sum "Si O2"
_cell_formula_units_Z 116
_cell_length_a 19.265305
_cell_length_b 16.414033
_cell_length_c 18.560351
_cell_angle_alpha 90.000000
_cell_angle_beta 90.000000
_cell_angle_gamma 90.000000
_cell_volume 5869.179287
_symmetry_space_group_name_H-M "I B A M"
_symmetry_group_IT_number 72
_symmetry_cell_setting 'orthorhombic'
loop_
_space_group_symop_operation_xyz
x,y,z
-x,-y,z
x,-y,1/2-z
-x,y,1/2-z
-x,-y,-z
x,y,-z
-x,y,1/2+z
x,-y,1/2+z
1/2+x,1/2+y,1/2+z
1/2-x,1/2-y,1/2+z
1/2+x,1/2-y,-z
1/2-x,1/2+y,-z
1/2-x,1/2-y,1/2-z
1/2+x,1/2+y,1/2-z
1/2-x,1/2+y,z
1/2+x,1/2-y,z
loop_
_atom_site_type_symbol
_atom_site_label
_atom_site_fract_x
_atom_site_fract_y
_atom_site_fract_z
Si Si1 0.550686 0.073264 0.916635
Si Si2 0.979762 0.757195 0.918135
Si Si3 0.131185 0.170722 0.419669
Si Si4 0.686161 0.959027 0.324930
Si Si5 0.789272 0.819742 0.711768
Si Si6 0.309264 0.506912 0.082707
Si Si7 0.000000 0.000000 0.250000
Si Si8 0.102431 0.879244 0.672732
O O1 0.513346 0.160464 0.902004
O O2 0.618812 0.065818 0.869091
O O3 0.500000 0.000000 0.894015
O O4 0.572135 0.065213 0.000000
O O5 0.051725 0.805024 0.909157
O O6 0.928664 0.795556 0.858878
O O7 0.952238 0.769660 0.000000
O O8 0.156410 0.194208 0.500000
O O9 0.176032 0.218614 0.360323
O O10 0.145635 0.075130 0.403858
O O11 0.728491 0.879165 0.308997
O O12 0.663601 0.000000 0.250000
O O13 0.737619 0.014563 0.372587
O O14 0.750000 0.750000 0.750000
O O15 0.848174 0.861609 0.759881
O O16 0.356355 0.581730 0.106600
O O17 0.288936 0.516436 0.000000
O O18 0.044733 0.057641 0.198582
#
# Coordination Sequence:
#
# PCOD8294207 Si02
#       8
#    16  16  16  16  16  16   4  16
#     4  10  23  43  66  88 116 159 211 269 325 371
#     4  10  21  39  62  91 125 162 210 264 312 368
#     4   9  20  38  60  85 121 163 203 250 306 375
#     4  11  21  40  60  86 118 158 202 251 307 370
#     4  11  23  38  58  87 123 162 201 250 307 364
#     4  10  20  36  60  90 123 161 202 247 305 370
#     4  12  24  36  62  92 130 176 204 244 316 372
#     4  12  21  37  58  94 126 168 202 252 303 376
#
# _framework density 19.764263
#
# number of rings (size 3 to 8) (size 9 to 14) (size 15 to 20)
#    0.000    1.517    1.379    4.966    0.000    1.931 
#    0.000    6.897    0.000    0.000    0.000    0.000 
#    0.000    0.000    0.000    0.000    0.000    0.000 
#
# Total GULP energy -719076.107973 kJ/mol
# GULP energy per Si atom -12397.863931 kJ/mol
# Density = 1.971928 g / cm^3
# Si number density = 19.764263 Si / 1000 Ang^3
#
#
#
# Elastic Constant Matrix: (Units=GPa)
#
#
# Indices 1 2 3 4 5 6 
#
# 1 99.9277 46.9523 66.3535 0.0000 0.0000 0.0000
# 2 46.9523 86.9961 50.8187 0.0000 0.0000 0.0000
# 3 66.3535 50.8187 124.9503 0.0000 0.0000 0.0000
# 4 0.0000 0.0000 0.0000 29.8960 0.0000 0.0000
# 5 0.0000 0.0000 0.0000 0.0000 47.3593 0.0000
# 6 0.0000 0.0000 0.0000 0.0000 0.0000 27.6575
#
#
#
# Elastic Compliance Matrix: (Units=1/GPa)
#
#
# Indices 1 2 3 4 5 6 
#
# 1 0.017041 -0.005130 -0.006963 0.000000 0.000000 0.000000
# 2 -0.005130 0.016621 -0.004036 0.000000 0.000000 0.000000
# 3 -0.006963 -0.004036 0.013342 0.000000 0.000000 0.000000
# 4 0.000000 0.000000 0.000000 0.033449 0.000000 0.000000
# 5 0.000000 0.000000 0.000000 0.000000 0.021115 0.000000
# 6 0.000000 0.000000 0.000000 0.000000 0.000000 0.036157
#
#
# Mechanical properties :
#
#
# Convention : Reuss Voigt Hill
#
# Bulk Modulus (GPa) = 67.81089 71.12478 69.46783
# Shear Modulus (GPa) = 28.58803 30.83253 29.71028
#
# Velocity S-wave (km/s) = 3.80735 3.95399 3.88136
# Velocity P-wave (km/s) = 7.32886 7.54387 7.43714
#
# Compressibility (1/GPa) = 0.01474689
#
# Stress axis : x y z
#
# Youngs Moduli (GPa) = 58.68148 60.16558 74.94934
#
# Poissons Ratio (x) = 0.30863 0.52189
# Poissons Ratio (y) = 0.30101 0.30248
# Poissons Ratio (z) = 0.40861 0.24282
#
# Static dielectric constant tensor:
#      x y z
#    x 3.581310 0.000000 0.000000 
#    y 0.000000 3.440830 0.000000 
#    z 0.000000 0.000000 3.784470 
# 
# 
# High freq. dielectric constant tensor:
#      x y z
#    x 1.769680 0.000000 0.000000 
#    y 0.000000 1.762190 0.000000 
#    z 0.000000 0.000000 1.789630 
# 
# From -- ./inp_files/31721.got.cif
#   From: 2010.03.12/outbox.cif.g09.slc.cpg/sg72_16_cif.got.tgz:31721.got - 2010.04.16 14:54:00.
