data_PCOD8294721
_publ_section_title
;
Structure prediction by ZEFSAII (Michael W. Deem and Ramdas Pophale) SiO2 
 PCOD8294721
Probable space group: I B A M
;
_chemical_formula_sum "Si O2"
_cell_formula_units_Z 80
_cell_length_a 23.893930
_cell_length_b 12.575102
_cell_length_c 14.251777
_cell_angle_alpha 90.000000
_cell_angle_beta 90.000000
_cell_angle_gamma 90.000000
_cell_volume 4282.211581
_symmetry_space_group_name_H-M "I B A M"
_symmetry_group_IT_number 72
_symmetry_cell_setting 'orthorhombic'
loop_
_space_group_symop_operation_xyz
x,y,z
-x,-y,z
x,-y,1/2-z
-x,y,1/2-z
-x,-y,-z
x,y,-z
-x,y,1/2+z
x,-y,1/2+z
1/2+x,1/2+y,1/2+z
1/2-x,1/2-y,1/2+z
1/2+x,1/2-y,-z
1/2-x,1/2+y,-z
1/2-x,1/2-y,1/2-z
1/2+x,1/2+y,1/2-z
1/2-x,1/2+y,z
1/2+x,1/2-y,z
loop_
_atom_site_type_symbol
_atom_site_label
_atom_site_fract_x
_atom_site_fract_y
_atom_site_fract_z
Si Si1 0.329004 0.005771 0.642205
Si Si2 0.500000 0.753785 0.750000
Si Si3 0.048490 0.415106 0.893039
Si Si4 0.637644 0.392116 0.500000
Si Si5 0.239171 0.368581 0.000000
Si Si6 0.054559 0.938604 0.841386
Si Si7 0.188892 0.676726 0.000000
O O1 0.394555 0.025353 0.631603
O O2 0.295339 0.101629 0.593074
O O3 0.310694 0.000000 0.750000
O O4 0.314222 0.894338 0.593031
O O5 0.539458 0.821157 0.680963
O O6 0.460463 0.682411 0.684319
O O7 0.000000 0.500000 0.879895
O O8 0.049705 0.370977 0.000000
O O9 0.701749 0.433741 0.500000
O O10 0.606152 0.439048 0.410896
O O11 0.637865 0.262490 0.500000
O O12 0.252172 0.242011 0.000000
O O13 0.075866 0.000000 0.750000
O O14 0.000000 0.000000 0.883070
#
# Coordination Sequence:
#
# PCOD8294721 Si02
#       7
#    16   8  16   8   8  16   8
#     4  11  22  42  64  87 126 159 201 256 308 364
#     4  10  22  36  56  94 122 156 204 240 304 378
#     4  11  23  35  59  92 126 158 195 247 309 366
#     4  10  21  38  68  78 122 165 202 243 315 343
#     4   9  23  41  56  92 114 162 211 248 300 364
#     4   9  21  40  59  91 126 157 206 245 295 366
#     4   9  23  41  58  91 117 157 202 255 299 363
#
# _framework density 18.681934999999999
#
# number of rings (size 3 to 8) (size 9 to 14) (size 15 to 20)
#    0.600    1.600    2.000    1.800    7.000    1.600 
#    1.800    8.000    0.000    0.000    0.000    0.000 
#    0.000    0.000    0.000    0.000    0.000    0.000 
#
# Total GULP energy -495877.319762 kJ/mol
# GULP energy per Si atom -12396.932994 kJ/mol
# Density = 1.863941 g / cm^3
# Si number density = 18.681935 Si / 1000 Ang^3
#
#
#
# Elastic Constant Matrix: (Units=GPa)
#
#
# Indices 1 2 3 4 5 6 
#
# 1 109.2798 42.3211 54.3175 0.0000 0.0000 0.0000
# 2 42.3211 108.4643 49.9263 0.0000 0.0000 0.0000
# 3 54.3175 49.9263 135.2050 0.0000 0.0000 0.0000
# 4 0.0000 0.0000 0.0000 14.9524 0.0000 0.0000
# 5 0.0000 0.0000 0.0000 0.0000 48.9600 0.0000
# 6 0.0000 0.0000 0.0000 0.0000 0.0000 21.9734
#
#
#
# Elastic Compliance Matrix: (Units=1/GPa)
#
#
# Indices 1 2 3 4 5 6 
#
# 1 0.012202 -0.003018 -0.003788 0.000000 0.000000 0.000000
# 2 -0.003018 0.011854 -0.003165 0.000000 0.000000 0.000000
# 3 -0.003788 -0.003165 0.010087 0.000000 0.000000 0.000000
# 4 0.000000 0.000000 0.000000 0.066879 0.000000 0.000000
# 5 0.000000 0.000000 0.000000 0.000000 0.020425 0.000000
# 6 0.000000 0.000000 0.000000 0.000000 0.000000 0.045509
#
#
# Mechanical properties :
#
#
# Convention : Reuss Voigt Hill
#
# Bulk Modulus (GPa) = 70.41268 71.78655 71.09962
# Shear Modulus (GPa) = 26.09189 30.93612 28.51401
#
# Velocity S-wave (km/s) = 3.74122 4.07374 3.91101
# Velocity P-wave (km/s) = 7.51228 7.78692 7.65083
#
# Compressibility (1/GPa) = 0.01420199
#
# Stress axis : x y z
#
# Youngs Moduli (GPa) = 81.95255 84.36085 99.14141
#
# Poissons Ratio (x) = 0.25456 0.37553
# Poissons Ratio (y) = 0.24730 0.31377
# Poissons Ratio (z) = 0.31042 0.26700
#
# Static dielectric constant tensor:
#      x y z
#    x 3.372220 0.000000 0.000000 
#    y 0.000000 3.380780 0.000000 
#    z 0.000000 0.000000 3.562620 
# 
# 
# High freq. dielectric constant tensor:
#      x y z
#    x 1.719810 0.000000 0.000000 
#    y 0.000000 1.720580 0.000000 
#    z 0.000000 0.000000 1.734010 
# 
# From -- ./inp_files/24969.got.cif
#   From: 2010.03.12/outbox.cif.g09.slc.cpg/sg72_13_cif.got.tgz:24969.got - 2010.04.16 14:54:00.
