data_PCOD8294389
_publ_section_title
;
Structure prediction by ZEFSAII (Michael W. Deem and Ramdas Pophale) SiO2 
 PCOD8294389
Probable space group: I B A M
;
_chemical_formula_sum "Si O2"
_cell_formula_units_Z 112
_cell_length_a 11.189155
_cell_length_b 16.567154
_cell_length_c 27.484241
_cell_angle_alpha 90.000000
_cell_angle_beta 90.000000
_cell_angle_gamma 90.000000
_cell_volume 5094.821201
_symmetry_space_group_name_H-M "I B A M"
_symmetry_group_IT_number 72
_symmetry_cell_setting 'orthorhombic'
loop_
_space_group_symop_operation_xyz
x,y,z
-x,-y,z
x,-y,1/2-z
-x,y,1/2-z
-x,-y,-z
x,y,-z
-x,y,1/2+z
x,-y,1/2+z
1/2+x,1/2+y,1/2+z
1/2-x,1/2-y,1/2+z
1/2+x,1/2-y,-z
1/2-x,1/2+y,-z
1/2-x,1/2-y,1/2-z
1/2+x,1/2+y,1/2-z
1/2-x,1/2+y,z
1/2+x,1/2-y,z
loop_
_atom_site_type_symbol
_atom_site_label
_atom_site_fract_x
_atom_site_fract_y
_atom_site_fract_z
Si Si1 0.155637 0.098531 0.352805
Si Si2 0.637289 0.511658 0.947655
Si Si3 0.794443 0.539112 0.299270
Si Si4 0.164151 0.720660 0.631849
Si Si5 0.567338 0.352003 0.201146
Si Si6 0.242820 0.347003 0.557638
Si Si7 0.033458 0.590039 0.882339
O O1 0.210143 0.188315 0.345898
O O2 0.022136 0.092832 0.331066
O O3 0.156247 0.084540 0.410724
O O4 0.241221 0.032425 0.330456
O O5 0.500000 0.500000 0.956868
O O6 0.688157 0.427920 0.926820
O O7 0.698075 0.532854 0.000000
O O8 0.848550 0.500000 0.250000
O O9 0.687925 0.600513 0.285709
O O10 0.897793 0.583802 0.330195
O O11 0.097292 0.771258 0.672632
O O12 0.189520 0.772888 0.583550
O O13 0.087246 0.640939 0.621357
O O14 0.500000 0.326587 0.250000
O O15 0.241075 0.330878 0.500000
O O16 0.110006 0.360407 0.578115
O O17 0.000000 0.500000 0.900956
#
# Coordination Sequence:
#
# PCOD8294389 Si02
#       7
#    16  16  16  16  16  16  16
#     4  12  23  42  68  97 134 181 228 293 352 419
#     4  10  20  38  67  98 127 167 225 285 344 417
#     4  12  24  45  72 104 134 182 245 297 355 436
#     4  12  26  45  67  99 149 186 229 295 359 432
#     4  12  26  42  71 100 135 183 236 295 364 421
#     4  11  24  44  70 102 139 185 239 291 357 434
#     4  12  25  49  72 103 148 194 237 301 362 435
#
# _framework density 21.983107
#
# number of rings (size 3 to 8) (size 9 to 14) (size 15 to 20)
#    0.000    0.429    5.714    3.000    0.000    3.429 
#    0.000    1.429    0.000    0.000    0.000    0.000 
#    0.000    0.000    0.000    0.000    0.000    0.000 
#
# Total GULP energy -694419.826133 kJ/mol
# GULP energy per Si atom -12400.354038 kJ/mol
# Density = 2.193307 g / cm^3
# Si number density = 21.983107 Si / 1000 Ang^3
#
#
#
# Elastic Constant Matrix: (Units=GPa)
#
#
# Indices 1 2 3 4 5 6 
#
# 1 79.7207 31.0796 30.4349 0.0000 0.0000 0.0000
# 2 31.0796 100.9963 47.0791 0.0000 0.0000 0.0000
# 3 30.4349 47.0791 124.7784 0.0000 0.0000 0.0000
# 4 0.0000 0.0000 0.0000 21.5444 0.0000 0.0000
# 5 0.0000 0.0000 0.0000 0.0000 21.2048 0.0000
# 6 0.0000 0.0000 0.0000 0.0000 0.0000 41.5057
#
#
#
# Elastic Compliance Matrix: (Units=1/GPa)
#
#
# Indices 1 2 3 4 5 6 
#
# 1 0.014775 -0.003479 -0.002291 0.000000 0.000000 0.000000
# 2 -0.003479 0.012833 -0.003994 0.000000 0.000000 0.000000
# 3 -0.002291 -0.003994 0.010080 0.000000 0.000000 0.000000
# 4 0.000000 0.000000 0.000000 0.046416 0.000000 0.000000
# 5 0.000000 0.000000 0.000000 0.000000 0.047159 0.000000
# 6 0.000000 0.000000 0.000000 0.000000 0.000000 0.024093
#
#
# Mechanical properties :
#
#
# Convention : Reuss Voigt Hill
#
# Bulk Modulus (GPa) = 55.06268 58.07585 56.56927
# Shear Modulus (GPa) = 27.63402 29.97777 28.80590
#
# Velocity S-wave (km/s) = 3.54935 3.69680 3.62382
# Velocity P-wave (km/s) = 6.47296 6.68562 6.58015
#
# Compressibility (1/GPa) = 0.01816112
#
# Stress axis : x y z
#
# Youngs Moduli (GPa) = 67.68346 77.92155 99.20769
#
# Poissons Ratio (x) = 0.27105 0.22731
# Poissons Ratio (y) = 0.23544 0.39620
# Poissons Ratio (z) = 0.15508 0.31119
#
# Static dielectric constant tensor:
#      x y z
#    x 3.552380 0.000000 0.000000 
#    y 0.000000 3.945280 0.000000 
#    z 0.000000 0.000000 4.400850 
# 
# 
# High freq. dielectric constant tensor:
#      x y z
#    x 1.872850 0.000000 0.000000 
#    y 0.000000 1.862940 0.000000 
#    z 0.000000 0.000000 1.868670 
# 
# From -- ./inp_files/51461.got.cif
#   From: 2010.03.12/outbox.cif.g09.slc.cpg/sg72_26_cif.got.tgz:51461.got - 2010.04.16 14:54:00.
