data_PCOD8294925
_publ_section_title
;
Structure prediction by ZEFSAII (Michael W. Deem and Ramdas Pophale) SiO2 
 PCOD8294925
Probable space group: I B A M
;
_chemical_formula_sum "Si O2"
_cell_formula_units_Z 80
_cell_length_a 15.362802
_cell_length_b 10.300438
_cell_length_c 26.023721
_cell_angle_alpha 90.000000
_cell_angle_beta 90.000000
_cell_angle_gamma 90.000000
_cell_volume 4118.087023
_symmetry_space_group_name_H-M "I B A M"
_symmetry_group_IT_number 72
_symmetry_cell_setting 'orthorhombic'
loop_
_space_group_symop_operation_xyz
x,y,z
-x,-y,z
x,-y,1/2-z
-x,y,1/2-z
-x,-y,-z
x,y,-z
-x,y,1/2+z
x,-y,1/2+z
1/2+x,1/2+y,1/2+z
1/2-x,1/2-y,1/2+z
1/2+x,1/2-y,-z
1/2-x,1/2+y,-z
1/2-x,1/2-y,1/2-z
1/2+x,1/2+y,1/2-z
1/2-x,1/2+y,z
1/2+x,1/2-y,z
loop_
_atom_site_type_symbol
_atom_site_label
_atom_site_fract_x
_atom_site_fract_y
_atom_site_fract_z
Si Si1 0.593898 0.221285 0.374971
Si Si2 0.398816 0.248626 0.377194
Si Si3 0.237227 0.821204 0.060029
Si Si4 0.669714 0.480428 0.645497
Si Si5 0.848810 0.485523 0.691413
O O1 0.496441 0.226490 0.397657
O O2 0.664026 0.215629 0.421794
O O3 0.613416 0.351324 0.340890
O O4 0.600938 0.095130 0.340185
O O5 0.333319 0.227336 0.424630
O O6 0.391839 0.395156 0.356513
O O7 0.376201 0.155147 0.329608
O O8 0.216629 0.956282 0.089801
O O9 0.231631 0.846136 0.000000
O O10 0.744689 0.503401 0.687650
O O11 0.878171 0.500000 0.750000
#
# Coordination Sequence:
#
# PCOD8294925 Si02
#       5
#    16  16  16  16  16
#     4  10  22  39  60  93 123 158 206 255 302 366
#     4  11  21  39  63  90 124 159 206 254 302 364
#     4   9  21  39  62  89 123 159 197 248 312 361
#     4   9  20  40  60  90 117 160 202 257 297 360
#     4  11  22  41  64  87 124 169 204 250 317 373
#
# _framework density 19.426496
#
# number of rings (size 3 to 8) (size 9 to 14) (size 15 to 20)
#    1.200    0.800    2.000    1.200    0.000    6.400 
#    0.000    1.000    0.000    7.200    0.000    0.000 
#    0.000    0.000    0.000    0.000    0.000    0.000 
#
# Total GULP energy -495764.275898 kJ/mol
# GULP energy per Si atom -12394.106897 kJ/mol
# Density = 1.938228 g / cm^3
# Si number density = 19.426496 Si / 1000 Ang^3
#
#
#
# Elastic Constant Matrix: (Units=GPa)
#
#
# Indices 1 2 3 4 5 6 
#
# 1 148.9632 13.2774 23.0838 0.0000 0.0000 0.0000
# 2 13.2774 105.6752 18.3483 0.0000 0.0000 0.0000
# 3 23.0838 18.3483 78.6509 0.0000 0.0000 0.0000
# 4 0.0000 0.0000 0.0000 15.7038 0.0000 0.0000
# 5 0.0000 0.0000 0.0000 0.0000 6.7388 0.0000
# 6 0.0000 0.0000 0.0000 0.0000 0.0000 27.5858
#
#
#
# Elastic Compliance Matrix: (Units=1/GPa)
#
#
# Indices 1 2 3 4 5 6 
#
# 1 0.007063 -0.000550 -0.001945 0.000000 0.000000 0.000000
# 2 -0.000550 0.009905 -0.002149 0.000000 0.000000 0.000000
# 3 -0.001945 -0.002149 0.013787 0.000000 0.000000 0.000000
# 4 0.000000 0.000000 0.000000 0.063679 0.000000 0.000000
# 5 0.000000 0.000000 0.000000 0.000000 0.148394 0.000000
# 6 0.000000 0.000000 0.000000 0.000000 0.000000 0.036251
#
#
# Mechanical properties :
#
#
# Convention : Reuss Voigt Hill
#
# Bulk Modulus (GPa) = 46.58258 49.18980 47.88619
# Shear Modulus (GPa) = 16.91920 28.57767 22.74843
#
# Velocity S-wave (km/s) = 2.95436 3.83961 3.42570
# Velocity P-wave (km/s) = 5.97232 6.71065 6.35222
#
# Compressibility (1/GPa) = 0.02146725
#
# Stress axis : x y z
#
# Youngs Moduli (GPa) = 141.57380 100.95667 72.53392
#
# Poissons Ratio (x) = 0.05551 0.14107
# Poissons Ratio (y) = 0.07784 0.15590
# Poissons Ratio (z) = 0.27534 0.21700
#
# Static dielectric constant tensor:
#      x y z
#    x 3.599920 0.000000 0.000000 
#    y 0.000000 3.535600 0.000000 
#    z 0.000000 0.000000 3.065180 
# 
# 
# High freq. dielectric constant tensor:
#      x y z
#    x 1.764920 0.000000 0.000000 
#    y 0.000000 1.764700 0.000000 
#    z 0.000000 0.000000 1.711840 
# 
# From -- ./inp_files/48542.got.cif
#   From: 2010.03.12/outbox.cif.g09.slc.cpg/sg72_25_cif.got.tgz:48542.got - 2010.04.16 14:54:00.
