data_PCOD8294540
_publ_section_title
;
Structure prediction by ZEFSAII (Michael W. Deem and Ramdas Pophale) SiO2 
 PCOD8294540
Probable space group: I B A M
;
_chemical_formula_sum "Si O2"
_cell_formula_units_Z 68
_cell_length_a 13.451108
_cell_length_b 12.674681
_cell_length_c 21.505355
_cell_angle_alpha 90.000000
_cell_angle_beta 90.000000
_cell_angle_gamma 90.000000
_cell_volume 3666.415780
_symmetry_space_group_name_H-M "I B A M"
_symmetry_group_IT_number 72
_symmetry_cell_setting 'orthorhombic'
loop_
_space_group_symop_operation_xyz
x,y,z
-x,-y,z
x,-y,1/2-z
-x,y,1/2-z
-x,-y,-z
x,y,-z
-x,y,1/2+z
x,-y,1/2+z
1/2+x,1/2+y,1/2+z
1/2-x,1/2-y,1/2+z
1/2+x,1/2-y,-z
1/2-x,1/2+y,-z
1/2-x,1/2-y,1/2-z
1/2+x,1/2+y,1/2-z
1/2-x,1/2+y,z
1/2+x,1/2-y,z
loop_
_atom_site_type_symbol
_atom_site_label
_atom_site_fract_x
_atom_site_fract_y
_atom_site_fract_z
Si Si1 0.000000 0.000000 0.750000
Si Si2 0.091568 0.901488 0.132157
Si Si3 0.600518 0.374399 0.072858
Si Si4 0.753645 0.247566 0.344799
Si Si5 0.618548 0.874891 0.751805
O O1 0.070364 0.929298 0.794754
O O2 0.192671 0.840478 0.123783
O O3 0.000772 0.831590 0.104880
O O4 0.106378 0.003230 0.089761
O O5 0.695152 0.315844 0.100287
O O6 0.597993 0.355528 0.000000
O O7 0.674458 0.169493 0.312350
O O8 0.836643 0.304357 0.303259
O O9 0.500000 0.855498 0.750000
O O10 0.642284 0.000000 0.750000
#
# Coordination Sequence:
#
# PCOD8294540 Si02
#       5
#     4  16  16  16  16
#     4   8  20  32  58  84 120 136 188 238 296 332
#     4  10  21  36  58  84 112 150 183 240 289 329
#     4  10  22  39  55  81 113 149 193 233 277 332
#     4  11  22  33  60  81 109 144 195 219 282 333
#     4  10  22  36  52  80 118 144 172 226 284 338
#
# _framework density 18.546724000000001
#
# number of rings (size 3 to 8) (size 9 to 14) (size 15 to 20)
#    0.000    2.118    0.000    4.235   16.471    1.882 
#    0.000    0.000    0.000    0.000    0.000    9.882 
#    0.000    0.000    0.000    0.000    0.000    0.000 
#
# Total GULP energy -421344.992843 kJ/mol
# GULP energy per Si atom -12392.499789 kJ/mol
# Density = 1.850451 g / cm^3
# Si number density = 18.546724 Si / 1000 Ang^3
#
#
#
# Elastic Constant Matrix: (Units=GPa)
#
#
# Indices 1 2 3 4 5 6 
#
# 1 141.3952 52.7103 62.0059 0.0000 0.0000 0.0000
# 2 52.7103 65.8152 29.2355 0.0000 0.0000 0.0000
# 3 62.0059 29.2355 132.8959 0.0000 0.0000 0.0000
# 4 0.0000 0.0000 0.0000 9.4494 0.0000 0.0000
# 5 0.0000 0.0000 0.0000 0.0000 11.0691 0.0000
# 6 0.0000 0.0000 0.0000 0.0000 0.0000 42.8082
#
#
#
# Elastic Compliance Matrix: (Units=1/GPa)
#
#
# Indices 1 2 3 4 5 6 
#
# 1 0.011526 -0.007583 -0.003710 0.000000 0.000000 0.000000
# 2 -0.007583 0.021829 -0.001264 0.000000 0.000000 0.000000
# 3 -0.003710 -0.001264 0.009534 0.000000 0.000000 0.000000
# 4 0.000000 0.000000 0.000000 0.105827 0.000000 0.000000
# 5 0.000000 0.000000 0.000000 0.000000 0.090341 0.000000
# 6 0.000000 0.000000 0.000000 0.000000 0.000000 0.023360
#
#
# Mechanical properties :
#
#
# Convention : Reuss Voigt Hill
#
# Bulk Modulus (GPa) = 56.25896 69.77887 63.01891
# Shear Modulus (GPa) = 17.03841 25.74232 21.39036
#
# Velocity S-wave (km/s) = 3.03425 3.72959 3.39975
# Velocity P-wave (km/s) = 6.53262 7.50009 7.03301
#
# Compressibility (1/GPa) = 0.01777495
#
# Stress axis : x y z
#
# Youngs Moduli (GPa) = 86.76002 45.81107 104.89314
#
# Poissons Ratio (x) = 0.34740 0.38911
# Poissons Ratio (y) = 0.65792 0.13258
# Poissons Ratio (z) = 0.32184 0.05790
#
# Static dielectric constant tensor:
#      x y z
#    x 3.796150 0.000000 0.000000 
#    y 0.000000 3.455030 0.000000 
#    z 0.000000 0.000000 3.242620 
# 
# 
# High freq. dielectric constant tensor:
#      x y z
#    x 1.736640 0.000000 0.000000 
#    y 0.000000 1.717850 0.000000 
#    z 0.000000 0.000000 1.703440 
# 
# From -- ./inp_files/36669.got.cif
#   From: 2010.03.12/outbox.cif.g09.slc.cpg/sg72_19_cif.got.tgz:36669.got - 2010.04.16 14:54:00.
