data_PCOD8294255
_publ_section_title
;
Structure prediction by ZEFSAII (Michael W. Deem and Ramdas Pophale) SiO2 
 PCOD8294255
Probable space group: I B A M
;
_chemical_formula_sum "Si O2"
_cell_formula_units_Z 112
_cell_length_a 14.099793
_cell_length_b 28.241614
_cell_length_c 13.515469
_cell_angle_alpha 90.000000
_cell_angle_beta 90.000000
_cell_angle_gamma 90.000000
_cell_volume 5381.872074
_symmetry_space_group_name_H-M "I B A M"
_symmetry_group_IT_number 72
_symmetry_cell_setting 'orthorhombic'
loop_
_space_group_symop_operation_xyz
x,y,z
-x,-y,z
x,-y,1/2-z
-x,y,1/2-z
-x,-y,-z
x,y,-z
-x,y,1/2+z
x,-y,1/2+z
1/2+x,1/2+y,1/2+z
1/2-x,1/2-y,1/2+z
1/2+x,1/2-y,-z
1/2-x,1/2+y,-z
1/2-x,1/2-y,1/2-z
1/2+x,1/2+y,1/2-z
1/2-x,1/2+y,z
1/2+x,1/2-y,z
loop_
_atom_site_type_symbol
_atom_site_label
_atom_site_fract_x
_atom_site_fract_y
_atom_site_fract_z
Si Si1 0.280950 0.311385 0.616632
Si Si2 0.942772 0.115341 0.385445
Si Si3 0.694226 0.445226 0.773088
Si Si4 0.440474 0.127886 0.390248
Si Si5 0.642172 0.885106 0.811367
Si Si6 0.343674 0.627326 0.616443
Si Si7 0.700362 0.206484 0.113550
O O1 0.256062 0.313271 0.500000
O O2 0.376498 0.340215 0.637826
O O3 0.195191 0.334391 0.679839
O O4 0.296768 0.258793 0.660881
O O5 0.946418 0.101825 0.500000
O O6 0.903233 0.068685 0.329240
O O7 0.047150 0.130570 0.348706
O O8 0.698363 0.500000 0.750000
O O9 0.784354 0.427336 0.840646
O O10 0.701905 0.418322 0.668403
O O11 0.407431 0.110285 0.500000
O O12 0.391271 0.100710 0.299665
O O13 0.553119 0.120255 0.384523
O O14 0.404382 0.182407 0.375619
O O15 0.331972 0.620541 0.500000
O O16 0.284863 0.672865 0.655726
O O17 0.724437 0.214740 0.000000
#
# Coordination Sequence:
#
# PCOD8294255 Si02
#       7
#    16  16  16  16  16  16  16
#     4   9  18  34  56  87 121 154 193 234 275 334
#     4   9  20  37  56  83 120 153 188 231 281 338
#     4  11  23  40  61  84 110 145 189 242 295 351
#     4  10  20  37  58  81 113 150 190 236 287 344
#     4  10  21  37  59  83 111 150 192 237 295 338
#     4  10  20  37  59  84 118 155 189 235 288 340
#     4   9  18  33  58  85 117 156 192 232 279 333
#
# _framework density 20.810603
#
# number of rings (size 3 to 8) (size 9 to 14) (size 15 to 20)
#    0.000    2.286    1.429    0.857    0.000    4.000 
#    0.000    7.143    0.000    0.857    0.000    0.000 
#    0.000    0.000    0.000    0.000    0.000    0.000 
#
# Total GULP energy -693847.123021 kJ/mol
# GULP energy per Si atom -12390.127197 kJ/mol
# Density = 2.076324 g / cm^3
# Si number density = 20.810603 Si / 1000 Ang^3
#
#
#
# Elastic Constant Matrix: (Units=GPa)
#
#
# Indices 1 2 3 4 5 6 
#
# 1 150.7802 60.3529 30.1048 0.0000 0.0000 0.0000
# 2 60.3529 153.0742 16.2456 -0.0005 -0.0001 0.0000
# 3 30.1048 16.2456 47.1845 -0.0022 0.0001 0.0000
# 4 0.0000 -0.0005 -0.0022 25.0989 0.0000 0.0000
# 5 0.0000 -0.0001 0.0001 0.0000 31.3917 0.0000
# 6 0.0000 0.0000 0.0000 0.0000 0.0000 12.5928
#
#
#
# Elastic Compliance Matrix: (Units=1/GPa)
#
#
# Indices 1 2 3 4 5 6 
#
# 1 0.008724 -0.002957 -0.004548 0.000000 0.000000 0.000000
# 2 -0.002957 0.007783 -0.000793 0.000000 0.000000 0.000000
# 3 -0.004548 -0.000793 0.024368 0.000002 0.000000 0.000000
# 4 0.000000 0.000000 0.000002 0.039842 0.000000 0.000000
# 5 0.000000 0.000000 0.000000 0.000000 0.031856 0.000000
# 6 0.000000 0.000000 0.000000 0.000000 0.000000 0.079410
#
#
# Mechanical properties :
#
#
# Convention : Reuss Voigt Hill
#
# Bulk Modulus (GPa) = 41.18788 62.71618 51.95203
# Shear Modulus (GPa) = 23.07639 30.10572 26.59106
#
# Velocity S-wave (km/s) = 3.33359 3.80762 3.57846
# Velocity P-wave (km/s) = 5.88658 7.03794 6.48785
#
# Compressibility (1/GPa) = 0.02427898
#
# Stress axis : x y z
#
# Youngs Moduli (GPa) = 114.62953 128.48922 41.03722
#
# Poissons Ratio (x) = 0.37993 0.18663
# Poissons Ratio (y) = 0.33894 0.03254
# Poissons Ratio (z) = 0.52133 0.10190
#
# Static dielectric constant tensor:
#      x y z
#    x 4.086270 0.000000 0.000000 
#    y 0.000000 3.486610 0.000000 
#    z 0.000000 0.000000 3.927800 
# 
# 
# High freq. dielectric constant tensor:
#      x y z
#    x 1.823940 0.000000 0.000000 
#    y 0.000000 1.769690 0.000000 
#    z 0.000000 0.000000 1.833520 
# 
# From -- ./inp_files/22322.got.cif
#   From: 2010.03.12/outbox.cif.g09.slc.cpg/sg72_12_cif.got.tgz:22322.got - 2010.04.16 14:54:00.
