data_PCOD8294309
_publ_section_title
;
Structure prediction by ZEFSAII (Michael W. Deem and Ramdas Pophale) SiO2 
 PCOD8294309
Probable space group: I B A M
;
_chemical_formula_sum "Si O2"
_cell_formula_units_Z 128
_cell_length_a 20.201447
_cell_length_b 11.113127
_cell_length_c 28.663673
_cell_angle_alpha 90.000000
_cell_angle_beta 90.000000
_cell_angle_gamma 90.000000
_cell_volume 6435.030306
_symmetry_space_group_name_H-M "I B A M"
_symmetry_group_IT_number 72
_symmetry_cell_setting 'orthorhombic'
loop_
_space_group_symop_operation_xyz
x,y,z
-x,-y,z
x,-y,1/2-z
-x,y,1/2-z
-x,-y,-z
x,y,-z
-x,y,1/2+z
x,-y,1/2+z
1/2+x,1/2+y,1/2+z
1/2-x,1/2-y,1/2+z
1/2+x,1/2-y,-z
1/2-x,1/2+y,-z
1/2-x,1/2-y,1/2-z
1/2+x,1/2+y,1/2-z
1/2-x,1/2+y,z
1/2+x,1/2-y,z
loop_
_atom_site_type_symbol
_atom_site_label
_atom_site_fract_x
_atom_site_fract_y
_atom_site_fract_z
Si Si1 0.802342 0.433640 0.388522
Si Si2 0.074656 0.733007 0.201121
Si Si3 0.865179 0.753398 0.947233
Si Si4 0.866150 0.512695 0.200209
Si Si5 0.716710 0.847728 0.948203
Si Si6 0.574428 0.551812 0.385753
Si Si7 0.928424 0.771416 0.194412
Si Si8 0.165117 0.827661 0.122123
O O1 0.864211 0.358390 0.410711
O O2 0.822422 0.519162 0.344841
O O3 0.775414 0.517726 0.429410
O O4 0.742477 0.352773 0.368976
O O5 0.076556 0.587774 0.206723
O O6 0.078427 0.801896 0.250817
O O7 0.134789 0.779209 0.170130
O O8 0.004521 0.760464 0.177801
O O9 0.789299 0.792825 0.948106
O O10 0.916021 0.854538 0.928362
O O11 0.887779 0.718726 0.000000
O O12 0.826691 0.500000 0.250000
O O13 0.890928 0.645857 0.186915
O O14 0.662761 0.772323 0.918553
O O15 0.687388 0.852761 0.000000
O O16 0.500000 0.500000 0.383772
O O17 0.597826 0.619403 0.337779
O O18 0.624960 0.443798 0.394695
#
# Coordination Sequence:
#
# PCOD8294309 Si02
#       8
#    16  16  16  16  16  16  16  16
#     4  11  20  38  63  86 120 153 195 248 302 356
#     4  10  20  39  61  88 117 155 201 248 286 348
#     4  10  22  39  60  87 115 153 202 246 298 360
#     4  10  20  37  62  90 116 151 196 247 299 349
#     4  10  21  39  64  87 112 151 200 255 300 349
#     4  12  23  39  60  85 125 163 198 242 297 357
#     4  10  21  38  62  87 115 156 205 242 293 352
#     4  11  23  37  57  90 120 157 198 242 298 355
#
# _framework density 19.891127000000001
#
# number of rings (size 3 to 8) (size 9 to 14) (size 15 to 20)
#    0.000    1.500    5.000    0.750    0.000    3.250 
#    2.250    1.250    0.000    0.000    0.000    3.500 
#    0.000    0.000    0.000    0.000    0.000    0.000 
#
# Total GULP energy -793128.478326 kJ/mol
# GULP energy per Si atom -12392.632474 kJ/mol
# Density = 1.984585 g / cm^3
# Si number density = 19.891127 Si / 1000 Ang^3
#
#
#
# Elastic Constant Matrix: (Units=GPa)
#
#
# Indices 1 2 3 4 5 6 
#
# 1 50.3198 16.4563 37.7822 0.0000 0.0000 0.0000
# 2 16.4563 72.3782 40.2717 0.0000 0.0000 0.0000
# 3 37.7822 40.2717 150.5937 0.0000 0.0000 0.0000
# 4 0.0000 0.0000 0.0000 31.2613 0.0000 0.0000
# 5 0.0000 0.0000 0.0000 0.0000 24.9738 0.0000
# 6 0.0000 0.0000 0.0000 0.0000 0.0000 30.3915
#
#
#
# Elastic Compliance Matrix: (Units=1/GPa)
#
#
# Indices 1 2 3 4 5 6 
#
# 1 0.024884 -0.002566 -0.005557 0.000000 0.000000 0.000000
# 2 -0.002566 0.016496 -0.003768 0.000000 0.000000 0.000000
# 3 -0.005557 -0.003768 0.009042 0.000000 0.000000 0.000000
# 4 0.000000 0.000000 0.000000 0.031988 0.000000 0.000000
# 5 0.000000 0.000000 0.000000 0.000000 0.040042 0.000000
# 6 0.000000 0.000000 0.000000 0.000000 0.000000 0.032904
#
#
# Mechanical properties :
#
#
# Convention : Reuss Voigt Hill
#
# Bulk Modulus (GPa) = 37.53539 51.36802 44.45171
# Shear Modulus (GPa) = 26.59311 29.24408 27.91860
#
# Velocity S-wave (km/s) = 3.66038 3.83849 3.75049
# Velocity P-wave (km/s) = 6.06431 6.74729 6.41490
#
# Compressibility (1/GPa) = 0.02664152
#
# Stress axis : x y z
#
# Youngs Moduli (GPa) = 40.18569 60.62067 110.59353
#
# Poissons Ratio (x) = 0.15555 0.61458
# Poissons Ratio (y) = 0.10311 0.41667
# Poissons Ratio (z) = 0.22331 0.22840
#
# Static dielectric constant tensor:
#      x y z
#    x 3.312110 0.000000 0.000000 
#    y 0.000000 3.723410 0.000000 
#    z 0.000000 0.000000 3.870790 
# 
# 
# High freq. dielectric constant tensor:
#      x y z
#    x 1.742760 0.000000 0.000000 
#    y 0.000000 1.783920 0.000000 
#    z 0.000000 0.000000 1.787150 
# 
# From -- ./inp_files/49794.got.cif
#   From: 2010.03.12/outbox.cif.g09.slc.cpg/sg72_25_cif.got.tgz:49794.got - 2010.04.16 14:54:00.
