data_PCOD8294944
_publ_section_title
;
Structure prediction by ZEFSAII (Michael W. Deem and Ramdas Pophale) SiO2 
 PCOD8294944
Probable space group: I B A M
;
_chemical_formula_sum "Si O2"
_cell_formula_units_Z 64
_cell_length_a 14.271386
_cell_length_b 12.250310
_cell_length_c 17.997709
_cell_angle_alpha 90.000000
_cell_angle_beta 90.000000
_cell_angle_gamma 90.000000
_cell_volume 3146.519714
_symmetry_space_group_name_H-M "I B A M"
_symmetry_group_IT_number 72
_symmetry_cell_setting 'orthorhombic'
loop_
_space_group_symop_operation_xyz
x,y,z
-x,-y,z
x,-y,1/2-z
-x,y,1/2-z
-x,-y,-z
x,y,-z
-x,y,1/2+z
x,-y,1/2+z
1/2+x,1/2+y,1/2+z
1/2-x,1/2-y,1/2+z
1/2+x,1/2-y,-z
1/2-x,1/2+y,-z
1/2-x,1/2-y,1/2-z
1/2+x,1/2+y,1/2-z
1/2-x,1/2+y,z
1/2+x,1/2-y,z
loop_
_atom_site_type_symbol
_atom_site_label
_atom_site_fract_x
_atom_site_fract_y
_atom_site_fract_z
Si Si1 0.102525 0.466351 0.913472
Si Si2 0.071073 0.100382 0.581168
Si Si3 0.216816 0.973619 0.664101
Si Si4 0.894495 0.784666 0.913068
O O1 0.179665 0.535925 0.869807
O O2 0.127786 0.340564 0.897900
O O3 0.000000 0.500000 0.883471
O O4 0.109599 0.495318 0.000000
O O5 0.114822 0.121443 0.500000
O O6 0.158525 0.077697 0.633986
O O7 0.005928 0.202134 0.605666
O O8 0.000000 0.000000 0.579976
O O9 0.224060 0.000000 0.750000
O O10 0.166511 0.859936 0.642242
O O11 0.876448 0.817477 0.000000
#
# Coordination Sequence:
#
# PCOD8294944 Si02
#       4
#    16  16  16  16
#     4  10  22  40  60  82 110 149 199 245 283 332
#     4   8  15  31  54  78 104 137 183 232 272 321
#     4  11  22  35  55  86 119 150 185 228 286 352
#     4   9  19  37  61  86 112 147 192 241 287 330
#
# _framework density 20.339932000000001
#
# number of rings (size 3 to 8) (size 9 to 14) (size 15 to 20)
#    0.000    2.500    0.000    3.750    0.000    8.000 
#    0.000    7.500    0.000    0.000    0.000    0.000 
#    0.000    0.000    0.000    0.000    0.000    0.000 
#
# Total GULP energy -396597.789675 kJ/mol
# GULP energy per Si atom -12393.680927 kJ/mol
# Density = 2.029364 g / cm^3
# Si number density = 20.339932 Si / 1000 Ang^3
#
#
#
# Elastic Constant Matrix: (Units=GPa)
#
#
# Indices 1 2 3 4 5 6 
#
# 1 145.5920 26.7068 68.6734 0.0000 0.0000 0.0000
# 2 26.7068 55.8969 31.1181 0.0000 0.0000 0.0000
# 3 68.6734 31.1181 103.9881 0.0000 0.0000 0.0000
# 4 0.0000 0.0000 0.0000 11.3574 0.0000 0.0000
# 5 0.0000 0.0000 0.0000 0.0000 7.9751 0.0000
# 6 0.0000 0.0000 0.0000 0.0000 0.0000 24.1024
#
#
#
# Elastic Compliance Matrix: (Units=1/GPa)
#
#
# Indices 1 2 3 4 5 6 
#
# 1 0.010058 -0.001329 -0.006244 0.000000 0.000000 0.000000
# 2 -0.001329 0.021642 -0.005598 0.000000 0.000000 0.000000
# 3 -0.006244 -0.005598 0.015416 0.000000 0.000000 0.000000
# 4 0.000000 0.000000 0.000000 0.088049 0.000000 0.000000
# 5 0.000000 0.000000 0.000000 0.000000 0.125391 0.000000
# 6 0.000000 0.000000 0.000000 0.000000 0.000000 0.041490
#
#
# Mechanical properties :
#
#
# Convention : Reuss Voigt Hill
#
# Bulk Modulus (GPa) = 48.14372 62.05263 55.09818
# Shear Modulus (GPa) = 14.91151 20.61889 17.76520
#
# Velocity S-wave (km/s) = 2.71055 3.18734 2.95857
# Velocity P-wave (km/s) = 5.78939 6.64226 6.23043
#
# Compressibility (1/GPa) = 0.02077114
#
# Stress axis : x y z
#
# Youngs Moduli (GPa) = 99.42667 46.20683 64.86977
#
# Poissons Ratio (x) = 0.06142 0.40507
# Poissons Ratio (y) = 0.13216 0.36317
# Poissons Ratio (z) = 0.62085 0.25869
#
# Static dielectric constant tensor:
#      x y z
#    x 3.911600 0.000000 0.000000 
#    y 0.000000 3.672650 0.000000 
#    z 0.000000 0.000000 3.413650 
# 
# 
# High freq. dielectric constant tensor:
#      x y z
#    x 1.801860 0.000000 0.000000 
#    y 0.000000 1.780220 0.000000 
#    z 0.000000 0.000000 1.768020 
# 
# From -- ./inp_files/21218.got.cif
#   From: 2010.03.12/outbox.cif.g09.slc.cpg/sg72_11_cif.got.tgz:21218.got - 2010.04.16 14:54:00.
