data_PCOD8294724
_publ_section_title
;
Structure prediction by ZEFSAII (Michael W. Deem and Ramdas Pophale) SiO2 
 PCOD8294724
Probable space group: I B A M
;
_chemical_formula_sum "Si O2"
_cell_formula_units_Z 96
_cell_length_a 13.231088
_cell_length_b 21.928495
_cell_length_c 16.769692
_cell_angle_alpha 90.000000
_cell_angle_beta 90.000000
_cell_angle_gamma 90.000000
_cell_volume 4865.522333
_symmetry_space_group_name_H-M "I B A M"
_symmetry_group_IT_number 72
_symmetry_cell_setting 'orthorhombic'
loop_
_space_group_symop_operation_xyz
x,y,z
-x,-y,z
x,-y,1/2-z
-x,y,1/2-z
-x,-y,-z
x,y,-z
-x,y,1/2+z
x,-y,1/2+z
1/2+x,1/2+y,1/2+z
1/2-x,1/2-y,1/2+z
1/2+x,1/2-y,-z
1/2-x,1/2+y,-z
1/2-x,1/2-y,1/2-z
1/2+x,1/2+y,1/2-z
1/2-x,1/2+y,z
1/2+x,1/2-y,z
loop_
_atom_site_type_symbol
_atom_site_label
_atom_site_fract_x
_atom_site_fract_y
_atom_site_fract_z
Si Si1 0.721275 0.054060 0.687251
Si Si2 0.406832 0.851504 0.595754
Si Si3 0.213562 0.950116 0.091677
Si Si4 0.706382 0.264079 0.664527
Si Si5 0.391158 0.617178 0.713731
Si Si6 0.635473 0.152415 0.092568
O O1 0.628362 0.092378 0.651536
O O2 0.804569 0.100615 0.721639
O O3 0.690762 0.000000 0.750000
O O4 0.765144 0.020625 0.608726
O O5 0.397763 0.864252 0.500000
O O6 0.342190 0.792093 0.617700
O O7 0.521841 0.841754 0.625480
O O8 0.114144 0.930513 0.140616
O O9 0.306201 0.907540 0.125812
O O10 0.192423 0.938118 0.000000
O O11 0.750000 0.250000 0.750000
O O12 0.621488 0.315554 0.677102
O O13 0.800959 0.287358 0.612530
O O14 0.500000 0.610096 0.750000
O O15 0.626367 0.143874 0.000000
#
# Coordination Sequence:
#
# PCOD8294724 Si02
#       6
#    16  16  16  16  16  16
#     4  10  21  39  58  89 122 158 200 248 298 347
#     4  11  23  39  63  91 122 156 199 250 299 356
#     4   9  19  39  63  84 118 158 198 244 298 356
#     4  11  22  38  60  86 119 157 196 243 298 356
#     4  10  22  40  60  85 120 157 198 248 300 353
#     4   9  21  40  60  88 121 155 193 243 301 358
#
# _framework density 19.730665999999999
#
# number of rings (size 3 to 8) (size 9 to 14) (size 15 to 20)
#    0.000    2.000    1.667    1.000    2.333    4.333 
#    0.000    9.167    0.000    0.000    0.000    0.000 
#    0.000    0.000    0.000    0.000    0.000    0.000 
#
# Total GULP energy -594858.228884 kJ/mol
# GULP energy per Si atom -12392.879768 kJ/mol
# Density = 1.968576 g / cm^3
# Si number density = 19.730666 Si / 1000 Ang^3
#
#
#
# Elastic Constant Matrix: (Units=GPa)
#
#
# Indices 1 2 3 4 5 6 
#
# 1 128.5403 45.3564 56.5732 0.0000 0.0000 0.0000
# 2 45.3564 102.4672 30.0662 0.0001 0.0000 0.0000
# 3 56.5732 30.0662 66.0756 0.0002 0.0000 0.0000
# 4 0.0000 0.0001 0.0002 32.2678 0.0000 0.0000
# 5 0.0000 0.0000 0.0000 0.0000 32.9487 0.0000
# 6 0.0000 0.0000 0.0000 0.0000 0.0000 12.4692
#
#
#
# Elastic Compliance Matrix: (Units=1/GPa)
#
#
# Indices 1 2 3 4 5 6 
#
# 1 0.013198 -0.002916 -0.009973 0.000000 0.000000 0.000000
# 2 -0.002916 0.011907 -0.002922 0.000000 0.000000 0.000000
# 3 -0.009973 -0.002922 0.025003 0.000000 0.000000 0.000000
# 4 0.000000 0.000000 0.000000 0.030991 0.000000 0.000000
# 5 0.000000 0.000000 0.000000 0.000000 0.030350 0.000000
# 6 0.000000 0.000000 0.000000 0.000000 0.000000 0.080198
#
#
# Mechanical properties :
#
#
# Convention : Reuss Voigt Hill
#
# Bulk Modulus (GPa) = 54.09360 62.34164 58.21762
# Shear Modulus (GPa) = 21.79320 26.54296 24.16808
#
# Velocity S-wave (km/s) = 3.32706 3.67176 3.50365
# Velocity P-wave (km/s) = 6.49882 7.04562 6.77773
#
# Compressibility (1/GPa) = 0.01848647
#
# Stress axis : x y z
#
# Youngs Moduli (GPa) = 75.76993 83.98350 39.99588
#
# Poissons Ratio (x) = 0.24486 0.39889
# Poissons Ratio (y) = 0.22091 0.11686
# Poissons Ratio (z) = 0.75567 0.24538
#
# Static dielectric constant tensor:
#      x y z
#    x 3.637770 0.000000 0.000000 
#    y 0.000000 3.930770 0.000000 
#    z 0.000000 0.000000 4.762400 
# 
# 
# High freq. dielectric constant tensor:
#      x y z
#    x 1.754050 0.000000 0.000000 
#    y 0.000000 1.776770 0.000000 
#    z 0.000000 0.000000 1.780140 
# 
# From -- ./inp_files/29441.got.cif
#   From: 2010.03.12/outbox.cif.g09.slc.cpg/sg72_15_cif.got.tgz:29441.got - 2010.04.16 14:54:00.
