data_PCOD8294302
_publ_section_title
;
Structure prediction by ZEFSAII (Michael W. Deem and Ramdas Pophale) SiO2 
 PCOD8294302
Probable space group: I B A M
;
_chemical_formula_sum "Si O2"
_cell_formula_units_Z 56
_cell_length_a 21.047253
_cell_length_b 7.822527
_cell_length_c 14.341278
_cell_angle_alpha 90.000000
_cell_angle_beta 90.000000
_cell_angle_gamma 90.000000
_cell_volume 2361.186801
_symmetry_space_group_name_H-M "I B A M"
_symmetry_group_IT_number 72
_symmetry_cell_setting 'orthorhombic'
loop_
_space_group_symop_operation_xyz
x,y,z
-x,-y,z
x,-y,1/2-z
-x,y,1/2-z
-x,-y,-z
x,y,-z
-x,y,1/2+z
x,-y,1/2+z
1/2+x,1/2+y,1/2+z
1/2-x,1/2-y,1/2+z
1/2+x,1/2-y,-z
1/2-x,1/2+y,-z
1/2-x,1/2-y,1/2-z
1/2+x,1/2+y,1/2-z
1/2-x,1/2+y,z
1/2+x,1/2-y,z
loop_
_atom_site_type_symbol
_atom_site_label
_atom_site_fract_x
_atom_site_fract_y
_atom_site_fract_z
Si Si1 0.690814 0.170424 0.696705
Si Si2 0.167406 0.444928 0.500000
Si Si3 0.107012 0.215225 0.000000
Si Si4 0.967857 0.261646 0.000000
Si Si5 0.414138 0.446915 0.845548
O O1 0.750000 0.250000 0.750000
O O2 0.706560 0.117770 0.589884
O O3 0.639429 0.318145 0.691234
O O4 0.665678 0.000000 0.750000
O O5 0.164257 0.650245 0.500000
O O6 0.093556 0.382246 0.500000
O O7 0.115462 0.100620 0.092777
O O8 0.040361 0.329219 0.000000
O O9 0.967000 0.145793 0.907448
O O10 0.448483 0.500000 0.750000
#
# Coordination Sequence:
#
# PCOD8294302 Si02
#       5
#    16   8   8   8  16
#     4  11  24  43  65  91 123 167 221 272 329 394
#     4  10  23  42  63  93 133 168 211 274 326 378
#     4  11  21  39  66  94 128 170 211 260 325 393
#     4   9  21  37  61  95 127 168 214 254 315 391
#     4  10  20  37  61  92 127 163 208 263 316 386
#
# _framework density 23.716887
#
# number of rings (size 3 to 8) (size 9 to 14) (size 15 to 20)
#    0.000    1.714    0.000    5.571    0.000    3.429 
#    0.000    8.571    0.000    5.143    0.000    0.000 
#    0.000    0.000    0.000    0.000    0.000    0.000 
#
# Total GULP energy -346917.265650 kJ/mol
# GULP energy per Si atom -12389.902345 kJ/mol
# Density = 2.366291 g / cm^3
# Si number density = 23.716887 Si / 1000 Ang^3
#
#
#
# Elastic Constant Matrix: (Units=GPa)
#
#
# Indices 1 2 3 4 5 6 
#
# 1 91.8440 45.5277 38.8888 0.0000 0.0000 0.0000
# 2 45.5277 97.1831 51.4985 0.0000 0.0000 0.0000
# 3 38.8888 51.4985 231.4742 0.0000 0.0000 0.0000
# 4 0.0000 0.0000 0.0000 45.7352 0.0000 0.0000
# 5 0.0000 0.0000 0.0000 0.0000 -145.1402 0.0000
# 6 0.0000 0.0000 0.0000 0.0000 0.0000 35.0655
#
#
#
# Elastic Compliance Matrix: (Units=1/GPa)
#
#
# Indices 1 2 3 4 5 6 
#
# 1 0.014399 -0.006194 -0.001041 0.000000 0.000000 0.000000
# 2 -0.006194 0.014330 -0.002147 0.000000 0.000000 0.000000
# 3 -0.001041 -0.002147 0.004973 0.000000 0.000000 0.000000
# 4 0.000000 0.000000 0.000000 0.021865 0.000000 0.000000
# 5 0.000000 0.000000 0.000000 0.000000 -0.006890 0.000000
# 6 0.000000 0.000000 0.000000 0.000000 0.000000 0.028518
#
#
# Mechanical properties :
#
#
# Convention : Reuss Voigt Hill
#
# Bulk Modulus (GPa) = 66.94975 76.92567 71.93771
# Shear Modulus (GPa) = 49.53508 6.10452 27.81980
#
# Velocity S-wave (km/s) = 4.57508 1.60608 3.42862
# Velocity P-wave (km/s) = 7.49656 5.99539 6.78761
#
# Compressibility (1/GPa) = 0.01493658
#
# Stress axis : x y z
#
# Youngs Moduli (GPa) = 69.44803 69.78605 201.09376
#
# Poissons Ratio (x) = 0.43225 0.20936
# Poissons Ratio (y) = 0.43016 0.43183
# Poissons Ratio (z) = 0.07230 0.14986
#
# Static dielectric constant tensor:
#      x y z
#    x 3.878650 0.000000 0.000000 
#    y 0.000000 4.558470 0.000000 
#    z 0.000000 0.000000 4.759420 
# 
# 
# High freq. dielectric constant tensor:
#      x y z
#    x 1.918760 0.000000 0.000000 
#    y 0.000000 1.949760 0.000000 
#    z 0.000000 0.000000 1.963610 
# 
# From -- ./inp_files/18595.got.cif
#   From: 2010.03.12/outbox.cif.g09.slc.cpg/sg72_10_cif.got.tgz:18595.got - 2010.04.16 14:54:00.
