data_PCOD8294383
_publ_section_title
;
Structure prediction by ZEFSAII (Michael W. Deem and Ramdas Pophale) SiO2 
 PCOD8294383
Probable space group: I B A M
;
_chemical_formula_sum "Si O2"
_cell_formula_units_Z 104
_cell_length_a 7.708354
_cell_length_b 20.218318
_cell_length_c 28.504906
_cell_angle_alpha 90.000000
_cell_angle_beta 90.000000
_cell_angle_gamma 90.000000
_cell_volume 4442.488244
_symmetry_space_group_name_H-M "I B A M"
_symmetry_group_IT_number 72
_symmetry_cell_setting 'orthorhombic'
loop_
_space_group_symop_operation_xyz
x,y,z
-x,-y,z
x,-y,1/2-z
-x,y,1/2-z
-x,-y,-z
x,y,-z
-x,y,1/2+z
x,-y,1/2+z
1/2+x,1/2+y,1/2+z
1/2-x,1/2-y,1/2+z
1/2+x,1/2-y,-z
1/2-x,1/2+y,-z
1/2-x,1/2-y,1/2-z
1/2+x,1/2+y,1/2-z
1/2-x,1/2+y,z
1/2+x,1/2-y,z
loop_
_atom_site_type_symbol
_atom_site_label
_atom_site_fract_x
_atom_site_fract_y
_atom_site_fract_z
Si Si1 0.510637 0.207892 0.852752
Si Si2 0.000000 0.668556 0.750000
Si Si3 0.750729 0.952777 0.125071
Si Si4 0.362635 0.913036 0.899241
Si Si5 0.192024 0.928935 0.267764
Si Si6 0.197933 0.275674 0.500000
Si Si7 0.165045 0.176367 0.903621
Si Si8 0.155994 0.644004 0.500000
O O1 0.510097 0.214653 0.796302
O O2 0.661467 0.156759 0.871066
O O3 0.330814 0.178514 0.869724
O O4 0.522073 0.279765 0.877036
O O5 0.827846 0.624453 0.751050
O O6 0.550736 0.940765 0.112848
O O7 0.804377 0.932948 0.176839
O O8 0.872722 0.903071 0.093482
O O9 0.781297 0.031485 0.115841
O O10 0.341529 0.902324 0.954780
O O11 0.000000 0.910083 0.250000
O O12 0.253828 0.000000 0.250000
O O13 0.308315 0.296034 0.455021
O O14 0.011894 0.308816 0.500000
O O15 0.181320 0.195253 0.500000
#
# Coordination Sequence:
#
# PCOD8294383 Si02
#       8
#    16   8  16  16  16   8  16   8
#     4  11  23  40  64  99 132 183 236 287 363 430
#     4  12  23  44  70  96 142 195 236 304 366 420
#     4  10  21  40  65  95 139 171 232 303 350 415
#     4  10  20  38  65 105 133 178 241 294 362 437
#     4  11  24  41  68 103 137 190 246 289 360 442
#     4  12  20  39  66  97 138 179 225 285 354 432
#     4  11  22  41  62  98 134 176 231 291 352 431
#     4  12  22  38  71 104 137 183 241 295 365 450
#
# _framework density 23.410304
#
# number of rings (size 3 to 8) (size 9 to 14) (size 15 to 20)
#    0.000    1.077    7.692    1.154    2.154    3.692 
#    1.385    0.000    0.000    0.000    0.000    2.154 
#    0.000    0.000    0.000    0.000    0.000    0.000 
#
# Total GULP energy -644376.112103 kJ/mol
# GULP energy per Si atom -12391.848310 kJ/mol
# Density = 2.335702 g / cm^3
# Si number density = 23.410304 Si / 1000 Ang^3
#
#
#
# Elastic Constant Matrix: (Units=GPa)
#
#
# Indices 1 2 3 4 5 6 
#
# 1 37.9817 24.1112 16.9307 0.0000 0.0000 0.0000
# 2 24.1112 72.2411 10.3282 0.0000 0.0000 0.0000
# 3 16.9307 10.3282 169.1236 0.0000 0.0000 0.0000
# 4 0.0000 0.0000 0.0000 26.1174 0.0000 0.0000
# 5 0.0000 0.0000 0.0000 0.0000 149.6505 0.0000
# 6 0.0000 0.0000 0.0000 0.0000 0.0000 26.8628
#
#
#
# Elastic Compliance Matrix: (Units=1/GPa)
#
#
# Indices 1 2 3 4 5 6 
#
# 1 0.034662 -0.011170 -0.002788 0.000000 0.000000 0.000000
# 2 -0.011170 0.017564 0.000046 0.000000 0.000000 0.000000
# 3 -0.002788 0.000046 0.006189 0.000000 0.000000 0.000000
# 4 0.000000 0.000000 0.000000 0.038289 0.000000 0.000000
# 5 0.000000 0.000000 0.000000 0.000000 0.006682 0.000000
# 6 0.000000 0.000000 0.000000 0.000000 0.000000 0.037226
#
#
# Mechanical properties :
#
#
# Convention : Reuss Voigt Hill
#
# Bulk Modulus (GPa) = 32.68985 42.45406 37.57196
# Shear Modulus (GPa) = 27.99013 55.72457 41.85735
#
# Velocity S-wave (km/s) = 3.46154 4.88417 4.23305
# Velocity P-wave (km/s) = 5.47454 7.06972 6.32264
#
# Compressibility (1/GPa) = 0.03059054
#
# Stress axis : x y z
#
# Youngs Moduli (GPa) = 28.84991 56.93395 161.57351
#
# Poissons Ratio (x) = 0.63597 0.45044
# Poissons Ratio (y) = 0.32226 -0.00737
# Poissons Ratio (z) = 0.08043 -0.00260
#
# Static dielectric constant tensor:
#      x y z
#    x 4.043550 0.000000 0.000000 
#    y 0.000000 6.038660 0.000000 
#    z 0.000000 0.000000 4.287780 
# 
# 
# High freq. dielectric constant tensor:
#      x y z
#    x 1.900580 0.000000 0.000000 
#    y 0.000000 1.940770 0.000000 
#    z 0.000000 0.000000 1.933210 
# 
# From -- ./inp_files/47458.got.cif
#   From: 2010.03.12/outbox.cif.g09.slc.cpg/sg72_24_cif.got.tgz:47458.got - 2010.04.16 14:54:00.
