data_PCOD8294880
_publ_section_title
;
Structure prediction by ZEFSAII (Michael W. Deem and Ramdas Pophale) SiO2 
 PCOD8294880
Probable space group: I B A M
;
_chemical_formula_sum "Si O2"
_cell_formula_units_Z 112
_cell_length_a 17.427575
_cell_length_b 12.375509
_cell_length_c 27.382258
_cell_angle_alpha 90.000000
_cell_angle_beta 90.000000
_cell_angle_gamma 90.000000
_cell_volume 5905.671541
_symmetry_space_group_name_H-M "I B A M"
_symmetry_group_IT_number 72
_symmetry_cell_setting 'orthorhombic'
loop_
_space_group_symop_operation_xyz
x,y,z
-x,-y,z
x,-y,1/2-z
-x,y,1/2-z
-x,-y,-z
x,y,-z
-x,y,1/2+z
x,-y,1/2+z
1/2+x,1/2+y,1/2+z
1/2-x,1/2-y,1/2+z
1/2+x,1/2-y,-z
1/2-x,1/2+y,-z
1/2-x,1/2-y,1/2-z
1/2+x,1/2+y,1/2-z
1/2-x,1/2+y,z
1/2+x,1/2-y,z
loop_
_atom_site_type_symbol
_atom_site_label
_atom_site_fract_x
_atom_site_fract_y
_atom_site_fract_z
Si Si1 0.410142 0.521665 0.602856
Si Si2 0.334767 0.993624 0.304777
Si Si3 0.887724 0.809027 0.946267
Si Si4 0.538680 0.889308 0.133455
Si Si5 0.933528 0.765865 0.553469
Si Si6 0.339971 0.444694 0.698214
Si Si7 0.883590 0.283201 0.655498
O O1 0.500000 0.500000 0.607353
O O2 0.370439 0.432927 0.567978
O O3 0.389410 0.636318 0.579575
O O4 0.376053 0.520826 0.657137
O O5 0.393515 0.910536 0.328927
O O6 0.251247 0.941598 0.308036
O O7 0.364361 0.000000 0.250000
O O8 0.334650 0.114232 0.327103
O O9 0.857156 0.736542 0.901037
O O10 0.977926 0.794673 0.951180
O O11 0.850483 0.782407 0.000000
O O12 0.578022 0.841107 0.085265
O O13 0.475112 0.808897 0.156936
O O14 0.500000 0.000000 0.116639
O O15 0.897689 0.745700 0.500000
O O16 0.362970 0.500000 0.750000
O O17 0.369833 0.320965 0.690512
#
# Coordination Sequence:
#
# PCOD8294880 Si02
#       7
#    16  16  16  16  16  16  16
#     4   9  17  30  49  77 109 139 174 212 258 319
#     4  10  22  38  57  77 103 145 185 216 264 325
#     4   8  14  28  51  76 104 137 173 213 257 311
#     4   9  19  35  54  78 105 139 186 229 261 304
#     4   9  16  27  49  79 106 135 171 216 268 313
#     4  10  22  37  55  81 110 142 178 219 270 320
#     4   9  19  36  55  80 108 137 181 225 263 308
#
# _framework density 18.96482
#
# number of rings (size 3 to 8) (size 9 to 14) (size 15 to 20)
#    0.000    2.857    0.000    1.286    0.000    9.429 
#    0.000    6.429    0.000   12.000    0.000    0.000 
#    0.000    0.000    0.000    0.000    0.000    0.000 
#
# Total GULP energy -694023.239631 kJ/mol
# GULP energy per Si atom -12393.272136 kJ/mol
# Density = 1.892166 g / cm^3
# Si number density = 18.964820 Si / 1000 Ang^3
#
#
#
# Elastic Constant Matrix: (Units=GPa)
#
#
# Indices 1 2 3 4 5 6 
#
# 1 46.3470 40.9655 45.6287 0.0000 0.0000 0.0000
# 2 40.9655 122.8722 82.2037 0.0000 0.0000 0.0000
# 3 45.6287 82.2037 176.5763 0.0000 0.0000 0.0000
# 4 0.0000 0.0000 0.0000 26.9928 0.0000 0.0000
# 5 0.0000 0.0000 0.0000 0.0000 1.2513 0.0000
# 6 0.0000 0.0000 0.0000 0.0000 0.0000 20.1065
#
#
#
# Elastic Compliance Matrix: (Units=1/GPa)
#
#
# Indices 1 2 3 4 5 6 
#
# 1 0.033380 -0.007782 -0.005003 0.000000 0.000000 0.000000
# 2 -0.007782 0.013634 -0.004336 0.000000 0.000000 0.000000
# 3 -0.005003 -0.004336 0.008975 0.000000 0.000000 0.000000
# 4 0.000000 0.000000 0.000000 0.037047 0.000000 0.000000
# 5 0.000000 0.000000 0.000000 0.000000 0.799174 0.000000
# 6 0.000000 0.000000 0.000000 0.000000 0.000000 0.049735
#
#
# Mechanical properties :
#
#
# Convention : Reuss Voigt Hill
#
# Bulk Modulus (GPa) = 45.98394 75.93236 60.95815
# Shear Modulus (GPa) = 5.08422 21.46996 13.27709
#
# Velocity S-wave (km/s) = 1.63911 3.36831 2.64879
# Velocity P-wave (km/s) = 5.28033 7.43322 6.44727
#
# Compressibility (1/GPa) = 0.02174672
#
# Stress axis : x y z
#
# Youngs Moduli (GPa) = 29.95813 73.34551 111.42301
#
# Poissons Ratio (x) = 0.57076 0.55743
# Poissons Ratio (y) = 0.23313 0.48317
# Poissons Ratio (z) = 0.14988 0.31805
#
# Static dielectric constant tensor:
#      x y z
#    x 3.125990 0.000000 0.000000 
#    y 0.000000 3.559410 0.000000 
#    z 0.000000 0.000000 3.934130 
# 
# 
# High freq. dielectric constant tensor:
#      x y z
#    x 1.698500 0.000000 0.000000 
#    y 0.000000 1.740030 0.000000 
#    z 0.000000 0.000000 1.747530 
# 
# From -- ./inp_files/45396.got.cif
#   From: 2010.03.12/outbox.cif.g09.slc.cpg/sg72_23_cif.got.tgz:45396.got - 2010.04.16 14:54:00.
