data_PCOD8294113
_publ_section_title
;
Structure prediction by ZEFSAII (Michael W. Deem and Ramdas Pophale) SiO2 
 PCOD8294113
Probable space group: I B A M
;
_chemical_formula_sum "Si O2"
_cell_formula_units_Z 112
_cell_length_a 15.110652
_cell_length_b 13.894565
_cell_length_c 26.002254
_cell_angle_alpha 90.000000
_cell_angle_beta 90.000000
_cell_angle_gamma 90.000000
_cell_volume 5459.327587
_symmetry_space_group_name_H-M "I B A M"
_symmetry_group_IT_number 72
_symmetry_cell_setting 'orthorhombic'
loop_
_space_group_symop_operation_xyz
x,y,z
-x,-y,z
x,-y,1/2-z
-x,y,1/2-z
-x,-y,-z
x,y,-z
-x,y,1/2+z
x,-y,1/2+z
1/2+x,1/2+y,1/2+z
1/2-x,1/2-y,1/2+z
1/2+x,1/2-y,-z
1/2-x,1/2+y,-z
1/2-x,1/2-y,1/2-z
1/2+x,1/2+y,1/2-z
1/2-x,1/2+y,z
1/2+x,1/2-y,z
loop_
_atom_site_type_symbol
_atom_site_label
_atom_site_fract_x
_atom_site_fract_y
_atom_site_fract_z
Si Si1 0.838090 0.346128 0.654617
Si Si2 0.641632 0.487990 0.000000
Si Si3 0.845106 0.049156 0.385392
Si Si4 0.360553 0.345299 0.846110
Si Si5 0.025751 0.774905 0.395780
Si Si6 0.519566 0.655285 0.000000
Si Si7 0.696927 0.955452 0.803352
Si Si8 0.104113 0.275026 0.741715
O O1 0.739062 0.330061 0.632100
O O2 0.911494 0.317206 0.612632
O O3 0.856344 0.456522 0.670096
O O4 0.848509 0.275583 0.703350
O O5 0.690940 0.464413 0.945179
O O6 0.614745 0.601270 0.000000
O O7 0.553653 0.426167 0.000000
O O8 0.920781 0.128416 0.382817
O O9 0.768892 0.079441 0.345299
O O10 0.890290 0.951083 0.364174
O O11 0.434995 0.268629 0.863400
O O12 0.360605 0.324475 0.784568
O O13 0.991001 0.772380 0.453278
O O14 0.631130 0.868011 0.792280
O O15 0.738143 0.000000 0.750000
O O16 0.000000 0.275097 0.750000
#
# Coordination Sequence:
#
# PCOD8294113 Si02
#       8
#    16   8  16  16  16   8  16  16
#     4  10  22  38  57  83 119 151 199 246 292 351
#     4   9  16  32  57  85 114 158 197 231 283 371
#     4  10  20  35  60  88 123 156 190 245 309 360
#     4  11  21  35  56  86 118 152 193 242 298 355
#     4  11  20  37  58  86 117 155 191 241 304 357
#     4   9  18  32  57  85 115 150 193 237 283 361
#     4   9  21  39  59  85 116 158 203 255 292 347
#     4  11  21  39  60  83 113 160 205 241 289 354
#
# _framework density 20.515346999999998
#
# number of rings (size 3 to 8) (size 9 to 14) (size 15 to 20)
#    0.000    1.857    2.857    1.714    0.000    4.857 
#    0.000    3.571    0.000    1.714    0.000    1.000 
#    0.000    0.000    0.000    0.000    0.000    0.000 
#
# Total GULP energy -693749.247227 kJ/mol
# GULP energy per Si atom -12388.379415 kJ/mol
# Density = 2.046865 g / cm^3
# Si number density = 20.515347 Si / 1000 Ang^3
#
#
#
# Elastic Constant Matrix: (Units=GPa)
#
#
# Indices 1 2 3 4 5 6 
#
# 1 81.9987 18.7363 9.0767 0.0000 0.0000 0.0000
# 2 18.7363 56.8391 22.6882 0.0000 0.0000 0.0000
# 3 9.0767 22.6882 79.5046 0.0000 0.0000 0.0000
# 4 0.0000 0.0000 0.0000 21.0588 0.0000 0.0000
# 5 0.0000 0.0000 0.0000 0.0000 24.9536 0.0000
# 6 0.0000 0.0000 0.0000 0.0000 0.0000 25.4140
#
#
#
# Elastic Compliance Matrix: (Units=1/GPa)
#
#
# Indices 1 2 3 4 5 6 
#
# 1 0.013195 -0.004230 -0.000299 0.000000 0.000000 0.000000
# 2 -0.004230 0.021211 -0.005570 0.000000 0.000000 0.000000
# 3 -0.000299 -0.005570 0.014202 0.000000 0.000000 0.000000
# 4 0.000000 0.000000 0.000000 0.047486 0.000000 0.000000
# 5 0.000000 0.000000 0.000000 0.000000 0.040074 0.000000
# 6 0.000000 0.000000 0.000000 0.000000 0.000000 0.039348
#
#
# Mechanical properties :
#
#
# Convention : Reuss Voigt Hill
#
# Bulk Modulus (GPa) = 35.20022 35.48274 35.34148
# Shear Modulus (GPa) = 24.36821 25.47470 24.92146
#
# Velocity S-wave (km/s) = 3.45019 3.52765 3.48914
# Velocity P-wave (km/s) = 5.75039 5.82458 5.78760
#
# Compressibility (1/GPa) = 0.02840891
#
# Stress axis : x y z
#
# Youngs Moduli (GPa) = 75.78623 47.14463 70.41466
#
# Poissons Ratio (x) = 0.19943 0.02107
# Poissons Ratio (y) = 0.32058 0.39222
# Poissons Ratio (z) = 0.02268 0.26260
#
# Static dielectric constant tensor:
#      x y z
#    x 3.622940 0.000000 0.000000 
#    y 0.000000 3.647650 0.000000 
#    z 0.000000 0.000000 4.302280 
# 
# 
# High freq. dielectric constant tensor:
#      x y z
#    x 1.784970 0.000000 0.000000 
#    y 0.000000 1.788520 0.000000 
#    z 0.000000 0.000000 1.801900 
# 
# From -- ./inp_files/48758.got.cif
#   From: 2010.03.12/outbox.cif.g09.slc.cpg/sg72_25_cif.got.tgz:48758.got - 2010.04.16 14:54:00.
