data_PCOD8294429
_publ_section_title
;
Structure prediction by ZEFSAII (Michael W. Deem and Ramdas Pophale) SiO2 
 PCOD8294429
Probable space group: I B A M
;
_chemical_formula_sum "Si O2"
_cell_formula_units_Z 96
_cell_length_a 11.635969
_cell_length_b 21.031640
_cell_length_c 19.527628
_cell_angle_alpha 90.000000
_cell_angle_beta 90.000000
_cell_angle_gamma 90.000000
_cell_volume 4778.869687
_symmetry_space_group_name_H-M "I B A M"
_symmetry_group_IT_number 72
_symmetry_cell_setting 'orthorhombic'
loop_
_space_group_symop_operation_xyz
x,y,z
-x,-y,z
x,-y,1/2-z
-x,y,1/2-z
-x,-y,-z
x,y,-z
-x,y,1/2+z
x,-y,1/2+z
1/2+x,1/2+y,1/2+z
1/2-x,1/2-y,1/2+z
1/2+x,1/2-y,-z
1/2-x,1/2+y,-z
1/2-x,1/2-y,1/2-z
1/2+x,1/2+y,1/2-z
1/2-x,1/2+y,z
1/2+x,1/2-y,z
loop_
_atom_site_type_symbol
_atom_site_label
_atom_site_fract_x
_atom_site_fract_y
_atom_site_fract_z
Si Si1 0.624392 0.798265 0.868613
Si Si2 0.680424 0.652132 0.877647
Si Si3 0.193829 0.407055 0.000000
Si Si4 0.681889 0.649146 0.725125
Si Si5 0.543518 0.570202 0.374280
Si Si6 0.792316 0.045440 0.500000
Si Si7 0.500000 0.245687 0.750000
Si Si8 0.435465 0.123423 0.000000
O O1 0.667497 0.727666 0.886187
O O2 0.720899 0.840146 0.831161
O O3 0.517006 0.796980 0.816824
O O4 0.576250 0.831504 0.935124
O O5 0.775627 0.631549 0.931784
O O6 0.724895 0.630787 0.801630
O O7 0.558727 0.618315 0.894412
O O8 0.271360 0.470282 0.000000
O O9 0.055733 0.415232 0.000000
O O10 0.599990 0.594027 0.696331
O O11 0.613594 0.714163 0.736302
O O12 0.500000 0.500000 0.359921
O O13 0.636970 0.568906 0.434535
O O14 0.665521 0.073025 0.500000
#
# Coordination Sequence:
#
# PCOD8294429 Si02
#       8
#    16  16   8  16  16   8   8   8
#     4  11  24  42  64 100 132 173 207 266 322 390
#     4  11  23  42  67 103 130 167 212 262 332 389
#     4  12  27  45  64  90 128 176 224 264 315 390
#     4  11  22  40  66  99 137 165 206 270 327 391
#     4  12  22  42  71  96 129 164 219 270 326 383
#     4  12  25  49  64  90 126 181 211 277 328 373
#     4  10  20  40  65  94 137 170 204 256 336 388
#     4  12  28  43  67  91 126 175 228 262 311 389
#
# _framework density 20.088432000000001
#
# number of rings (size 3 to 8) (size 9 to 14) (size 15 to 20)
#    0.000    0.667    6.667    3.500    4.667    1.333 
#    3.000    0.000    0.000    0.000    0.000    0.000 
#    0.000    0.000    0.000    0.000    0.000    0.000 
#
# Total GULP energy -595142.771537 kJ/mol
# GULP energy per Si atom -12398.807740 kJ/mol
# Density = 2.004271 g / cm^3
# Si number density = 20.088432 Si / 1000 Ang^3
#
#
#
# Elastic Constant Matrix: (Units=GPa)
#
#
# Indices 1 2 3 4 5 6 
#
# 1 94.7754 25.4059 53.1293 0.0000 0.0000 0.0000
# 2 25.4059 65.2652 33.2227 0.0000 0.0000 0.0000
# 3 53.1293 33.2227 144.1679 0.0000 0.0000 0.0000
# 4 0.0000 0.0000 0.0000 12.0433 0.0000 0.0000
# 5 0.0000 0.0000 0.0000 0.0000 51.6313 0.0000
# 6 0.0000 0.0000 0.0000 0.0000 0.0000 20.5348
#
#
#
# Elastic Compliance Matrix: (Units=1/GPa)
#
#
# Indices 1 2 3 4 5 6 
#
# 1 0.013853 -0.003165 -0.004376 0.000000 0.000000 0.000000
# 2 -0.003165 0.018081 -0.003000 0.000000 0.000000 0.000000
# 3 -0.004376 -0.003000 0.009240 0.000000 0.000000 0.000000
# 4 0.000000 0.000000 0.000000 0.083033 0.000000 0.000000
# 5 0.000000 0.000000 0.000000 0.000000 0.019368 0.000000
# 6 0.000000 0.000000 0.000000 0.000000 0.000000 0.048698
#
#
# Mechanical properties :
#
#
# Convention : Reuss Voigt Hill
#
# Bulk Modulus (GPa) = 49.77045 58.63603 54.20324
# Shear Modulus (GPa) = 22.72176 29.67191 26.19684
#
# Velocity S-wave (km/s) = 3.36681 3.84743 3.61512
# Velocity P-wave (km/s) = 6.32008 6.99923 6.66831
#
# Compressibility (1/GPa) = 0.02009224
#
# Stress axis : x y z
#
# Youngs Moduli (GPa) = 72.18865 55.30517 108.22151
#
# Poissons Ratio (x) = 0.17504 0.47354
# Poissons Ratio (y) = 0.22848 0.32471
# Poissons Ratio (z) = 0.31587 0.16594
#
# Static dielectric constant tensor:
#      x y z
#    x 3.759940 0.000000 0.000000 
#    y 0.000000 3.584340 0.000000 
#    z 0.000000 0.000000 4.158510 
# 
# 
# High freq. dielectric constant tensor:
#      x y z
#    x 1.783360 0.000000 0.000000 
#    y 0.000000 1.774630 0.000000 
#    z 0.000000 0.000000 1.804880 
# 
# From -- ./inp_files/37180.got.cif
#   From: 2010.03.12/outbox.cif.g09.slc.cpg/sg72_19_cif.got.tgz:37180.got - 2010.04.16 14:54:00.
