data_PCOD8294211
_publ_section_title
;
Structure prediction by ZEFSAII (Michael W. Deem and Ramdas Pophale) SiO2 
 PCOD8294211
Probable space group: I B A M
;
_chemical_formula_sum "Si O2"
_cell_formula_units_Z 112
_cell_length_a 11.614622
_cell_length_b 23.138505
_cell_length_c 21.489618
_cell_angle_alpha 90.000000
_cell_angle_beta 90.000000
_cell_angle_gamma 90.000000
_cell_volume 5775.227158
_symmetry_space_group_name_H-M "I B A M"
_symmetry_group_IT_number 72
_symmetry_cell_setting 'orthorhombic'
loop_
_space_group_symop_operation_xyz
x,y,z
-x,-y,z
x,-y,1/2-z
-x,y,1/2-z
-x,-y,-z
x,y,-z
-x,y,1/2+z
x,-y,1/2+z
1/2+x,1/2+y,1/2+z
1/2-x,1/2-y,1/2+z
1/2+x,1/2-y,-z
1/2-x,1/2+y,-z
1/2-x,1/2-y,1/2-z
1/2+x,1/2+y,1/2-z
1/2-x,1/2+y,z
1/2+x,1/2-y,z
loop_
_atom_site_type_symbol
_atom_site_label
_atom_site_fract_x
_atom_site_fract_y
_atom_site_fract_z
Si Si1 0.424859 0.161033 0.570726
Si Si2 0.838327 0.785059 0.928110
Si Si3 0.255066 0.416781 0.124922
Si Si4 0.698778 0.536622 0.569864
Si Si5 0.636041 0.931939 0.750779
Si Si6 0.836617 0.632176 0.624197
Si Si7 0.488225 0.384757 0.928607
O O1 0.468904 0.167356 0.500000
O O2 0.366070 0.220344 0.593618
O O3 0.331597 0.110021 0.574266
O O4 0.530046 0.146339 0.615897
O O5 0.736851 0.809047 0.883820
O O6 0.953431 0.822698 0.919450
O O7 0.796938 0.786916 0.000000
O O8 0.266270 0.485252 0.115453
O O9 0.201257 0.403647 0.192257
O O10 0.379906 0.387578 0.117478
O O11 0.691725 0.512352 0.500000
O O12 0.795318 0.586578 0.571941
O O13 0.576290 0.563954 0.589630
O O14 0.500000 0.920899 0.750000
O O15 0.687936 0.898556 0.809953
O O16 0.662964 0.000000 0.750000
O O17 0.447660 0.392703 0.000000
#
# Coordination Sequence:
#
# PCOD8294211 Si02
#       7
#    16  16  16  16  16  16  16
#     4  11  23  36  60  96 123 154 202 257 307 370
#     4   9  21  40  63  90 125 162 195 251 319 369
#     4  12  22  36  60  90 120 160 205 250 304 371
#     4  10  20  36  60  93 127 156 191 253 324 381
#     4  11  23  43  61  82 119 169 203 254 309 358
#     4  11  21  41  64  85 121 166 209 248 310 373
#     4   9  19  37  61  89 125 160 191 245 319 379
#
# _framework density 19.393176
#
# number of rings (size 3 to 8) (size 9 to 14) (size 15 to 20)
#    0.000    1.571    2.857    3.857    2.000    1.714 
#    0.000    5.000    3.143    0.000    0.000    0.000 
#    0.000    0.000    0.000    0.000    0.000    0.000 
#
# Total GULP energy -694483.150968 kJ/mol
# GULP energy per Si atom -12401.484839 kJ/mol
# Density = 1.934904 g / cm^3
# Si number density = 19.393176 Si / 1000 Ang^3
#
#
#
# Elastic Constant Matrix: (Units=GPa)
#
#
# Indices 1 2 3 4 5 6 
#
# 1 124.5925 49.1998 46.6680 0.0000 0.0000 0.0000
# 2 49.1998 61.2526 34.6051 0.0000 0.0000 0.0000
# 3 46.6680 34.6051 89.1055 0.0000 0.0000 0.0000
# 4 0.0000 0.0000 0.0000 25.4756 0.0000 0.0000
# 5 0.0000 0.0000 0.0000 0.0000 31.4630 0.0000
# 6 0.0000 0.0000 0.0000 0.0000 0.0000 28.5569
#
#
#
# Elastic Compliance Matrix: (Units=1/GPa)
#
#
# Indices 1 2 3 4 5 6 
#
# 1 0.012507 -0.008129 -0.003394 0.000000 0.000000 0.000000
# 2 -0.008129 0.026198 -0.005917 0.000000 0.000000 0.000000
# 3 -0.003394 -0.005917 0.015298 0.000000 0.000000 0.000000
# 4 0.000000 0.000000 0.000000 0.039253 0.000000 0.000000
# 5 0.000000 0.000000 0.000000 0.000000 0.031783 0.000000
# 6 0.000000 0.000000 0.000000 0.000000 0.000000 0.035018
#
#
# Mechanical properties :
#
#
# Convention : Reuss Voigt Hill
#
# Bulk Modulus (GPa) = 52.28919 59.54403 55.91661
# Shear Modulus (GPa) = 24.83714 26.73093 25.78403
#
# Velocity S-wave (km/s) = 3.58259 3.71667 3.65024
# Velocity P-wave (km/s) = 6.64338 7.01344 6.83092
#
# Compressibility (1/GPa) = 0.01912441
#
# Stress axis : x y z
#
# Youngs Moduli (GPa) = 79.95328 38.17075 65.36853
#
# Poissons Ratio (x) = 0.31029 0.22183
# Poissons Ratio (y) = 0.64994 0.38678
# Poissons Ratio (z) = 0.27133 0.22585
#
# Static dielectric constant tensor:
#      x y z
#    x 3.486310 0.000000 0.000000 
#    y 0.000000 3.548270 0.000000 
#    z 0.000000 0.000000 3.322310 
# 
# 
# High freq. dielectric constant tensor:
#      x y z
#    x 1.758560 0.000000 0.000000 
#    y 0.000000 1.759540 0.000000 
#    z 0.000000 0.000000 1.729810 
# 
# From -- ./inp_files/37321.got.cif
#   From: 2010.03.12/outbox.cif.g09.slc.cpg/sg72_19_cif.got.tgz:37321.got - 2010.04.16 14:54:00.
