data_PCOD8294472
_publ_section_title
;
Structure prediction by ZEFSAII (Michael W. Deem and Ramdas Pophale) SiO2 
 PCOD8294472
Probable space group: I B A M
;
_chemical_formula_sum "Si O2"
_cell_formula_units_Z 104
_cell_length_a 9.388540
_cell_length_b 25.883353
_cell_length_c 20.481746
_cell_angle_alpha 90.000000
_cell_angle_beta 90.000000
_cell_angle_gamma 90.000000
_cell_volume 4977.205499
_symmetry_space_group_name_H-M "I B A M"
_symmetry_group_IT_number 72
_symmetry_cell_setting 'orthorhombic'
loop_
_space_group_symop_operation_xyz
x,y,z
-x,-y,z
x,-y,1/2-z
-x,y,1/2-z
-x,-y,-z
x,y,-z
-x,y,1/2+z
x,-y,1/2+z
1/2+x,1/2+y,1/2+z
1/2-x,1/2-y,1/2+z
1/2+x,1/2-y,-z
1/2-x,1/2+y,-z
1/2-x,1/2-y,1/2-z
1/2+x,1/2+y,1/2-z
1/2-x,1/2+y,z
1/2+x,1/2-y,z
loop_
_atom_site_type_symbol
_atom_site_label
_atom_site_fract_x
_atom_site_fract_y
_atom_site_fract_z
Si Si1 0.044182 0.053649 0.675420
Si Si2 0.694179 0.378080 0.138460
Si Si3 0.366958 0.390970 0.500000
Si Si4 0.441425 0.948632 0.634491
Si Si5 0.704444 0.397828 0.500000
Si Si6 0.172640 0.195714 0.251967
Si Si7 0.710336 0.882702 0.359991
Si Si8 0.317346 0.015728 0.000000
O O1 0.209681 0.064303 0.662238
O O2 0.000000 0.052789 0.750000
O O3 0.967571 0.102281 0.642810
O O4 0.000000 0.000000 0.641211
O O5 0.792969 0.426275 0.161975
O O6 0.723327 0.330078 0.184723
O O7 0.707805 0.362444 0.062246
O O8 0.535703 0.392142 0.500000
O O9 0.326947 0.451337 0.500000
O O10 0.545325 0.898991 0.643785
O O11 0.416434 0.967575 0.560494
O O12 0.500000 0.000000 0.672506
O O13 0.758781 0.368206 0.564673
O O14 0.766826 0.456172 0.500000
O O15 0.250000 0.250000 0.250000
O O16 0.237186 0.163896 0.313257
O O17 0.000000 0.199935 0.250000
#
# Coordination Sequence:
#
# PCOD8294472 Si02
#       8
#    16  16   8  16   8  16  16   8
#     4  11  21  37  60  90 134 176 208 264 319 371
#     4  11  22  43  63  94 134 169 220 276 316 399
#     4  10  21  33  65  98 128 177 229 265 317 385
#     4  11  22  36  58  96 143 184 216 248 313 386
#     4  12  20  34  67  94 140 176 227 259 317 391
#     4  12  27  51  74  93 120 163 224 292 355 399
#     4  12  23  40  64  96 132 173 221 268 318 396
#     4  10  21  36  53  93 150 193 209 255 300 390
#
# _framework density 20.89526
#
# number of rings (size 3 to 8) (size 9 to 14) (size 15 to 20)
#    0.000    0.769    6.154    1.846    4.308    0.000 
#    0.000    1.538    0.000    0.000    0.000    0.000 
#    0.000    0.000    0.000    0.000    0.000    0.000 
#
# Total GULP energy -644192.182791 kJ/mol
# GULP energy per Si atom -12388.311208 kJ/mol
# Density = 2.084770 g / cm^3
# Si number density = 20.895260 Si / 1000 Ang^3
#
#
#
# Elastic Constant Matrix: (Units=GPa)
#
#
# Indices 1 2 3 4 5 6 
#
# 1 85.9747 32.0420 22.1922 0.0000 0.0000 0.0000
# 2 32.0420 121.9655 58.7520 0.0000 0.0000 0.0000
# 3 22.1922 58.7520 135.4439 0.0000 0.0000 0.0000
# 4 0.0000 0.0000 0.0000 16.1027 0.0000 0.0000
# 5 0.0000 0.0000 0.0000 0.0000 19.2629 0.0000
# 6 0.0000 0.0000 0.0000 0.0000 0.0000 30.3454
#
#
#
# Elastic Compliance Matrix: (Units=1/GPa)
#
#
# Indices 1 2 3 4 5 6 
#
# 1 0.012965 -0.003012 -0.000818 0.000000 0.000000 0.000000
# 2 -0.003012 0.011065 -0.004306 0.000000 0.000000 0.000000
# 3 -0.000818 -0.004306 0.009385 0.000000 0.000000 0.000000
# 4 0.000000 0.000000 0.000000 0.062101 0.000000 0.000000
# 5 0.000000 0.000000 0.000000 0.000000 0.051913 0.000000
# 6 0.000000 0.000000 0.000000 0.000000 0.000000 0.032954
#
#
# Mechanical properties :
#
#
# Convention : Reuss Voigt Hill
#
# Bulk Modulus (GPa) = 58.33348 63.26185 60.79767
# Shear Modulus (GPa) = 24.70731 28.50205 26.60468
#
# Velocity S-wave (km/s) = 3.44239 3.69730 3.57212
# Velocity P-wave (km/s) = 6.61647 6.96909 6.79507
#
# Compressibility (1/GPa) = 0.01714281
#
# Stress axis : x y z
#
# Youngs Moduli (GPa) = 77.13062 90.37804 106.55375
#
# Poissons Ratio (x) = 0.27224 0.08713
# Poissons Ratio (y) = 0.23233 0.45882
# Poissons Ratio (z) = 0.06307 0.38917
#
# Static dielectric constant tensor:
#      x y z
#    x 4.059990 0.000000 0.000000 
#    y 0.000000 3.571060 0.000000 
#    z 0.000000 0.000000 3.835660 
# 
# 
# High freq. dielectric constant tensor:
#      x y z
#    x 1.840040 0.000000 0.000000 
#    y 0.000000 1.770430 0.000000 
#    z 0.000000 0.000000 1.826970 
# 
# From -- ./inp_files/36299.got.cif
#   From: 2010.03.12/outbox.cif.g09.slc.cpg/sg72_19_cif.got.tgz:36299.got - 2010.04.16 14:54:00.
