data_PCOD8294539
_publ_section_title
;
Structure prediction by ZEFSAII (Michael W. Deem and Ramdas Pophale) SiO2 
 PCOD8294539
Probable space group: I B A M
;
_chemical_formula_sum "Si O2"
_cell_formula_units_Z 80
_cell_length_a 11.243876
_cell_length_b 12.419947
_cell_length_c 30.558977
_cell_angle_alpha 90.000000
_cell_angle_beta 90.000000
_cell_angle_gamma 90.000000
_cell_volume 4267.510532
_symmetry_space_group_name_H-M "I B A M"
_symmetry_group_IT_number 72
_symmetry_cell_setting 'orthorhombic'
loop_
_space_group_symop_operation_xyz
x,y,z
-x,-y,z
x,-y,1/2-z
-x,y,1/2-z
-x,-y,-z
x,y,-z
-x,y,1/2+z
x,-y,1/2+z
1/2+x,1/2+y,1/2+z
1/2-x,1/2-y,1/2+z
1/2+x,1/2-y,-z
1/2-x,1/2+y,-z
1/2-x,1/2-y,1/2-z
1/2+x,1/2+y,1/2-z
1/2-x,1/2+y,z
1/2+x,1/2-y,z
loop_
_atom_site_type_symbol
_atom_site_label
_atom_site_fract_x
_atom_site_fract_y
_atom_site_fract_z
Si Si1 0.862850 0.172912 0.751552
Si Si2 0.633421 0.500231 0.822675
Si Si3 0.319619 0.477816 0.417286
Si Si4 0.030480 0.163508 0.551656
Si Si5 0.574811 0.097338 0.449394
O O1 0.750000 0.250000 0.750000
O O2 0.845477 0.097796 0.709831
O O3 0.000000 0.221557 0.750000
O O4 0.844358 0.110429 0.796899
O O5 0.500000 0.500000 0.841033
O O6 0.715184 0.491160 0.865886
O O7 0.423840 0.390967 0.422220
O O8 0.351113 0.594177 0.437941
O O9 0.211875 0.428118 0.443766
O O10 0.005737 0.160645 0.500000
O O11 0.044991 0.284861 0.570373
O O12 0.541513 0.103491 0.500000
O O13 0.500000 0.000000 0.426907
#
# Coordination Sequence:
#
# PCOD8294539 Si02
#       5
#    16  16  16  16  16
#     4   9  19  37  60  83 112 152 189 228 295 356
#     4   9  18  37  57  81 113 148 185 231 288 353
#     4  11  20  37  59  85 112 148 199 247 286 351
#     4  10  21  36  58  81 109 155 202 236 292 349
#     4  10  23  39  55  81 120 158 194 247 302 343
#
# _framework density 18.746293000000001
#
# number of rings (size 3 to 8) (size 9 to 14) (size 15 to 20)
#    0.000    2.200    2.000    3.600    2.800    1.600 
#    0.000    2.000    0.000    0.000    0.000    0.000 
#    0.000    0.000    0.000    0.000    0.000    0.000 
#
# Total GULP energy -495690.259881 kJ/mol
# GULP energy per Si atom -12392.256497 kJ/mol
# Density = 1.870363 g / cm^3
# Si number density = 18.746293 Si / 1000 Ang^3
#
#
#
# Elastic Constant Matrix: (Units=GPa)
#
#
# Indices 1 2 3 4 5 6 
#
# 1 92.8895 66.2295 13.4112 0.0000 0.0000 0.0000
# 2 66.2295 158.1794 26.5332 0.0000 0.0000 0.0000
# 3 13.4112 26.5332 74.9693 0.0000 0.0000 0.0000
# 4 0.0000 0.0000 0.0000 10.5419 0.0000 0.0000
# 5 0.0000 0.0000 0.0000 0.0000 13.6513 0.0000
# 6 0.0000 0.0000 0.0000 0.0000 0.0000 30.3769
#
#
#
# Elastic Compliance Matrix: (Units=1/GPa)
#
#
# Indices 1 2 3 4 5 6 
#
# 1 0.015365 -0.006349 -0.000502 0.000000 0.000000 0.000000
# 2 -0.006349 0.009345 -0.002171 0.000000 0.000000 0.000000
# 3 -0.000502 -0.002171 0.014197 0.000000 0.000000 0.000000
# 4 0.000000 0.000000 0.000000 0.094860 0.000000 0.000000
# 5 0.000000 0.000000 0.000000 0.000000 0.073253 0.000000
# 6 0.000000 0.000000 0.000000 0.000000 0.000000 0.032920
#
#
# Mechanical properties :
#
#
# Convention : Reuss Voigt Hill
#
# Bulk Modulus (GPa) = 47.93354 59.82066 53.87710
# Shear Modulus (GPa) = 18.87243 25.57163 22.22203
#
# Velocity S-wave (km/s) = 3.17634 3.69737 3.44671
# Velocity P-wave (km/s) = 6.25118 7.08571 6.68149
#
# Compressibility (1/GPa) = 0.02086222
#
# Stress axis : x y z
#
# Youngs Moduli (GPa) = 65.08422 107.01462 70.43723
#
# Poissons Ratio (x) = 0.67944 0.03533
# Poissons Ratio (y) = 0.41322 0.15295
# Poissons Ratio (z) = 0.03264 0.23238
#
# Static dielectric constant tensor:
#      x y z
#    x 3.198440 0.000000 0.000000 
#    y 0.000000 3.779540 0.000000 
#    z 0.000000 0.000000 3.357260 
# 
# 
# High freq. dielectric constant tensor:
#      x y z
#    x 1.713390 0.000000 0.000000 
#    y 0.000000 1.727810 0.000000 
#    z 0.000000 0.000000 1.725190 
# 
# From -- ./inp_files/51228.got.cif
#   From: 2010.03.12/outbox.cif.g09.slc.cpg/sg72_26_cif.got.tgz:51228.got - 2010.04.16 14:54:00.
