data_PCOD8294764
_publ_section_title
;
Structure prediction by ZEFSAII (Michael W. Deem and Ramdas Pophale) SiO2 
 PCOD8294764
Probable space group: I B A M
;
_chemical_formula_sum "Si O2"
_cell_formula_units_Z 80
_cell_length_a 26.483376
_cell_length_b 8.648051
_cell_length_c 16.403101
_cell_angle_alpha 90.000000
_cell_angle_beta 90.000000
_cell_angle_gamma 90.000000
_cell_volume 3756.795436
_symmetry_space_group_name_H-M "I B A M"
_symmetry_group_IT_number 72
_symmetry_cell_setting 'orthorhombic'
loop_
_space_group_symop_operation_xyz
x,y,z
-x,-y,z
x,-y,1/2-z
-x,y,1/2-z
-x,-y,-z
x,y,-z
-x,y,1/2+z
x,-y,1/2+z
1/2+x,1/2+y,1/2+z
1/2-x,1/2-y,1/2+z
1/2+x,1/2-y,-z
1/2-x,1/2+y,-z
1/2-x,1/2-y,1/2-z
1/2+x,1/2+y,1/2-z
1/2-x,1/2+y,z
1/2+x,1/2-y,z
loop_
_atom_site_type_symbol
_atom_site_label
_atom_site_fract_x
_atom_site_fract_y
_atom_site_fract_z
Si Si1 0.047471 0.394715 0.905634
Si Si2 0.277726 0.736498 0.592537
Si Si3 0.305241 0.573276 0.164393
Si Si4 0.914971 0.842444 0.785508
Si Si5 0.630100 0.902891 0.172962
O O1 0.046694 0.242276 0.847937
O O2 0.097749 0.491981 0.888069
O O3 0.000000 0.500000 0.882106
O O4 0.045843 0.343676 0.000000
O O5 0.266014 0.778443 0.500000
O O6 0.293470 0.557477 0.597446
O O7 0.227517 0.774106 0.645024
O O8 0.322548 0.844450 0.623273
O O9 0.289027 0.500000 0.250000
O O10 0.363728 0.620624 0.164681
O O11 0.903614 0.738111 0.706431
O O12 0.939506 0.000000 0.750000
O O13 0.649869 0.000000 0.250000
#
# Coordination Sequence:
#
# PCOD8294764 Si02
#       5
#    16  16  16  16  16
#     4  10  23  43  68  98 132 166 205 262 333 394
#     4  12  24  37  57  90 126 167 218 267 320 377
#     4  11  23  40  60  84 126 172 215 266 315 381
#     4  10  21  42  67  93 125 167 219 264 318 377
#     4  10  21  39  64  89 124 170 214 262 316 384
#
# _framework density 21.294744999999999
#
# number of rings (size 3 to 8) (size 9 to 14) (size 15 to 20)
#    0.000    1.400    4.000    2.400    5.600    5.200 
#    0.000    2.000    0.000    2.400    0.000    0.000 
#    0.000    0.000    0.000    0.000    0.000    0.000 
#
# Total GULP energy -496081.781821 kJ/mol
# GULP energy per Si atom -12402.044546 kJ/mol
# Density = 2.124628 g / cm^3
# Si number density = 21.294745 Si / 1000 Ang^3
#
#
#
# Elastic Constant Matrix: (Units=GPa)
#
#
# Indices 1 2 3 4 5 6 
#
# 1 72.0239 25.9177 33.0104 0.0000 0.0000 0.0000
# 2 25.9177 121.7085 40.3236 0.0000 0.0000 0.0000
# 3 33.0104 40.3236 112.8523 0.0000 0.0000 0.0000
# 4 0.0000 0.0000 0.0000 38.4759 0.0000 0.0000
# 5 0.0000 0.0000 0.0000 0.0000 28.5878 0.0000
# 6 0.0000 0.0000 0.0000 0.0000 0.0000 36.2027
#
#
#
# Elastic Compliance Matrix: (Units=1/GPa)
#
#
# Indices 1 2 3 4 5 6 
#
# 1 0.016526 -0.002175 -0.004057 0.000000 0.000000 0.000000
# 2 -0.002175 0.009606 -0.002796 0.000000 0.000000 0.000000
# 3 -0.004057 -0.002796 0.011047 0.000000 0.000000 0.000000
# 4 0.000000 0.000000 0.000000 0.025990 0.000000 0.000000
# 5 0.000000 0.000000 0.000000 0.000000 0.034980 0.000000
# 6 0.000000 0.000000 0.000000 0.000000 0.000000 0.027622
#
#
# Mechanical properties :
#
#
# Convention : Reuss Voigt Hill
#
# Bulk Modulus (GPa) = 52.29327 56.12090 54.20709
# Shear Modulus (GPa) = 33.28844 34.47550 33.88197
#
# Velocity S-wave (km/s) = 3.95805 4.02800 3.99318
# Velocity P-wave (km/s) = 6.74525 6.93142 6.83897
#
# Compressibility (1/GPa) = 0.01912292
#
# Stress axis : x y z
#
# Youngs Moduli (GPa) = 60.50927 104.10247 90.52321
#
# Poissons Ratio (x) = 0.22644 0.36725
# Poissons Ratio (y) = 0.13162 0.25311
# Poissons Ratio (z) = 0.24548 0.29108
#
# Static dielectric constant tensor:
#      x y z
#    x 3.647200 0.000000 0.000000 
#    y 0.000000 4.207820 0.000000 
#    z 0.000000 0.000000 3.753610 
# 
# 
# High freq. dielectric constant tensor:
#      x y z
#    x 1.821960 0.000000 0.000000 
#    y 0.000000 1.846930 0.000000 
#    z 0.000000 0.000000 1.830670 
# 
# From -- ./inp_files/28115.got.cif
#   From: 2010.03.12/outbox.cif.g09.slc.cpg/sg72_15_cif.got.tgz:28115.got - 2010.04.16 14:54:00.
