data_PCOD8294012
_publ_section_title
;
Structure prediction by ZEFSAII (Michael W. Deem and Ramdas Pophale) SiO2 
 PCOD8294012
Probable space group: I B A M
;
_chemical_formula_sum "Si O2"
_cell_formula_units_Z 96
_cell_length_a 20.188872
_cell_length_b 14.228698
_cell_length_c 17.272557
_cell_angle_alpha 90.000000
_cell_angle_beta 90.000000
_cell_angle_gamma 90.000000
_cell_volume 4961.738260
_symmetry_space_group_name_H-M "I B A M"
_symmetry_group_IT_number 72
_symmetry_cell_setting 'orthorhombic'
loop_
_space_group_symop_operation_xyz
x,y,z
-x,-y,z
x,-y,1/2-z
-x,y,1/2-z
-x,-y,-z
x,y,-z
-x,y,1/2+z
x,-y,1/2+z
1/2+x,1/2+y,1/2+z
1/2-x,1/2-y,1/2+z
1/2+x,1/2-y,-z
1/2-x,1/2+y,-z
1/2-x,1/2-y,1/2-z
1/2+x,1/2+y,1/2-z
1/2-x,1/2+y,z
1/2+x,1/2-y,z
loop_
_atom_site_type_symbol
_atom_site_label
_atom_site_fract_x
_atom_site_fract_y
_atom_site_fract_z
Si Si1 0.759459 0.525672 0.590001
Si Si2 0.505223 0.107837 0.588071
Si Si3 0.147285 0.833321 0.586537
Si Si4 0.435274 0.236848 0.703261
Si Si5 0.738862 0.316561 0.588417
Si Si6 0.859174 0.328250 0.846973
O O1 0.783568 0.531087 0.500000
O O2 0.686426 0.569669 0.597290
O O3 0.754759 0.419777 0.622371
O O4 0.810001 0.583327 0.644095
O O5 0.483000 0.121812 0.500000
O O6 0.451821 0.157850 0.641094
O O7 0.577890 0.151288 0.599103
O O8 0.500000 0.000000 0.612834
O O9 0.115579 0.830214 0.500000
O O10 0.092709 0.825717 0.654559
O O11 0.196309 0.745817 0.597788
O O12 0.500000 0.271725 0.750000
O O13 0.381502 0.187747 0.758779
O O14 0.717579 0.327835 0.500000
O O15 0.676406 0.268865 0.629940
#
# Coordination Sequence:
#
# PCOD8294012 Si02
#       6
#    16  16  16  16  16  16
#     4   9  18  33  56  84 108 141 185 227 270 321
#     4  10  21  36  57  80 104 146 189 221 266 321
#     4   9  18  35  56  78 106 140 183 227 266 322
#     4  10  22  36  51  75 112 145 177 222 276 325
#     4   9  18  33  56  82 107 142 179 221 272 321
#     4  10  20  35  53  81 118 141 171 225 279 328
#
# _framework density 19.348058999999999
#
# number of rings (size 3 to 8) (size 9 to 14) (size 15 to 20)
#    0.000    2.500    0.000    3.000    2.333    5.667 
#    0.000    2.500    0.000    7.000    0.000   15.167 
#    0.000    0.000    0.000    0.000    0.000    0.000 
#
# Total GULP energy -595114.142544 kJ/mol
# GULP energy per Si atom -12398.211303 kJ/mol
# Density = 1.930402 g / cm^3
# Si number density = 19.348059 Si / 1000 Ang^3
#
#
#
# Elastic Constant Matrix: (Units=GPa)
#
#
# Indices 1 2 3 4 5 6 
#
# 1 71.4496 26.9343 36.6949 0.0000 0.0000 0.0000
# 2 26.9343 99.0225 14.9806 0.0000 0.0000 0.0000
# 3 36.6949 14.9806 68.9551 0.0000 0.0000 0.0000
# 4 0.0000 0.0000 0.0000 5.0415 0.0000 0.0000
# 5 0.0000 0.0000 0.0000 0.0000 36.5042 0.0000
# 6 0.0000 0.0000 0.0000 0.0000 0.0000 20.1978
#
#
#
# Elastic Compliance Matrix: (Units=1/GPa)
#
#
# Indices 1 2 3 4 5 6 
#
# 1 0.020761 -0.004111 -0.010155 0.000000 0.000000 0.000000
# 2 -0.004111 0.011256 -0.000258 0.000000 0.000000 0.000000
# 3 -0.010155 -0.000258 0.019962 0.000000 0.000000 0.000000
# 4 0.000000 0.000000 0.000000 0.198353 0.000000 0.000000
# 5 0.000000 0.000000 0.000000 0.000000 0.027394 0.000000
# 6 0.000000 0.000000 0.000000 0.000000 0.000000 0.049510
#
#
# Mechanical properties :
#
#
# Convention : Reuss Voigt Hill
#
# Bulk Modulus (GPa) = 43.60725 44.07186 43.83956
# Shear Modulus (GPa) = 13.73903 23.06987 18.40445
#
# Velocity S-wave (km/s) = 2.66766 3.45680 3.08755
# Velocity P-wave (km/s) = 5.66355 6.22580 5.95132
#
# Compressibility (1/GPa) = 0.02293197
#
# Stress axis : x y z
#
# Youngs Moduli (GPa) = 48.16759 88.84284 50.09462
#
# Poissons Ratio (x) = 0.36521 0.50871
# Poissons Ratio (y) = 0.19800 0.01292
# Poissons Ratio (z) = 0.48914 0.02291
#
# Static dielectric constant tensor:
#      x y z
#    x 3.467550 0.000000 0.000000 
#    y 0.000000 3.497840 0.000000 
#    z 0.000000 0.000000 3.570180 
# 
# 
# High freq. dielectric constant tensor:
#      x y z
#    x 1.744590 0.000000 0.000000 
#    y 0.000000 1.739500 0.000000 
#    z 0.000000 0.000000 1.755090 
# 
# From -- ./inp_files/24130.got.cif
#   From: 2010.03.12/outbox.cif.g09.slc.cpg/sg72_13_cif.got.tgz:24130.got - 2010.04.16 14:54:00.
