data_PCOD8294504
_publ_section_title
;
Structure prediction by ZEFSAII (Michael W. Deem and Ramdas Pophale) SiO2 
 PCOD8294504
Probable space group: I B A M
;
_chemical_formula_sum "Si O2"
_cell_formula_units_Z 96
_cell_length_a 11.957122
_cell_length_b 23.426664
_cell_length_c 15.241972
_cell_angle_alpha 90.000000
_cell_angle_beta 90.000000
_cell_angle_gamma 90.000000
_cell_volume 4269.512295
_symmetry_space_group_name_H-M "I B A M"
_symmetry_group_IT_number 72
_symmetry_cell_setting 'orthorhombic'
loop_
_space_group_symop_operation_xyz
x,y,z
-x,-y,z
x,-y,1/2-z
-x,y,1/2-z
-x,-y,-z
x,y,-z
-x,y,1/2+z
x,-y,1/2+z
1/2+x,1/2+y,1/2+z
1/2-x,1/2-y,1/2+z
1/2+x,1/2-y,-z
1/2-x,1/2+y,-z
1/2-x,1/2-y,1/2-z
1/2+x,1/2+y,1/2-z
1/2-x,1/2+y,z
1/2+x,1/2-y,z
loop_
_atom_site_type_symbol
_atom_site_label
_atom_site_fract_x
_atom_site_fract_y
_atom_site_fract_z
Si Si1 0.317605 0.578489 0.901116
Si Si2 0.117911 0.346081 0.360655
Si Si3 0.532190 0.639734 0.102216
Si Si4 0.628420 0.140147 0.154427
Si Si5 0.697851 0.728710 0.841161
Si Si6 0.213625 0.045724 0.399044
O O1 0.194543 0.604834 0.899845
O O2 0.408932 0.622383 0.859493
O O3 0.309198 0.516384 0.854688
O O4 0.359856 0.568608 0.000000
O O5 0.118191 0.346093 0.256210
O O6 0.164830 0.285218 0.395778
O O7 0.991291 0.356562 0.393708
O O8 0.584173 0.690082 0.163139
O O9 0.602643 0.582217 0.113062
O O10 0.529230 0.659843 0.000000
O O11 0.709796 0.188400 0.110752
O O12 0.680913 0.077173 0.145724
O O13 0.750000 0.750000 0.750000
O O14 0.246581 0.037201 0.500000
#
# Coordination Sequence:
#
# PCOD8294504 Si02
#       6
#    16  16  16  16  16  16
#     4  10  21  35  55  86 115 145 188 237 294 348
#     4  10  21  35  55  79 114 150 187 238 282 344
#     4   9  18  35  59  84 111 148 189 234 290 343
#     4   9  20  38  54  80 108 149 197 229 290 346
#     4   9  19  36  57  80 110 147 189 236 282 345
#     4   9  18  36  59  80 110 148 189 240 290 346
#
# _framework density 22.485004
#
# number of rings (size 3 to 8) (size 9 to 14) (size 15 to 20)
#    0.000    2.667    0.000    0.500    2.333    4.667 
#    3.000    5.833    0.000    6.000    0.000    0.000 
#    0.000    0.000    0.000    0.000    0.000    0.333 
#
# Total GULP energy -594782.884016 kJ/mol
# GULP energy per Si atom -12391.310084 kJ/mol
# Density = 2.243383 g / cm^3
# Si number density = 22.485004 Si / 1000 Ang^3
#
#
#
# Elastic Constant Matrix: (Units=GPa)
#
#
# Indices 1 2 3 4 5 6 
#
# 1 158.6846 62.1249 15.3157 0.0000 0.0000 0.0000
# 2 62.1249 149.5537 18.3685 0.0000 0.0000 0.0000
# 3 15.3157 18.3685 24.0483 0.0004 0.0000 0.0000
# 4 0.0000 0.0000 0.0004 22.1944 0.0000 0.0000
# 5 0.0000 0.0000 0.0000 0.0000 25.2344 0.0000
# 6 0.0000 0.0000 0.0000 0.0000 0.0000 38.1575
#
#
#
# Elastic Compliance Matrix: (Units=1/GPa)
#
#
# Indices 1 2 3 4 5 6 
#
# 1 0.007682 -0.002859 -0.002709 0.000000 0.000000 0.000000
# 2 -0.002859 0.008442 -0.004628 0.000000 0.000000 0.000000
# 3 -0.002709 -0.004628 0.046843 -0.000001 0.000000 0.000000
# 4 0.000000 0.000000 -0.000001 0.045056 0.000000 0.000000
# 5 0.000000 0.000000 0.000000 0.000000 0.039628 0.000000
# 6 0.000000 0.000000 0.000000 0.000000 0.000000 0.026207
#
#
# Mechanical properties :
#
#
# Convention : Reuss Voigt Hill
#
# Bulk Modulus (GPa) = 23.48703 58.21163 40.84933
# Shear Modulus (GPa) = 23.98723 32.88242 28.43482
#
# Velocity S-wave (km/s) = 3.26975 3.82830 3.56000
# Velocity P-wave (km/s) = 4.97226 6.74437 5.92494
#
# Compressibility (1/GPa) = 0.04257669
#
# Stress axis : x y z
#
# Youngs Moduli (GPa) = 130.16744 118.44945 21.34769
#
# Poissons Ratio (x) = 0.33859 0.05784
# Poissons Ratio (y) = 0.37209 0.09880
# Poissons Ratio (z) = 0.35266 0.54818
#
# Static dielectric constant tensor:
#      x y z
#    x 4.389380 0.000000 0.000000 
#    y 0.000000 4.340120 0.000000 
#    z 0.000000 0.000000 3.579280 
# 
# 
# High freq. dielectric constant tensor:
#      x y z
#    x 1.893430 0.000000 0.000000 
#    y 0.000000 1.895240 0.000000 
#    z 0.000000 0.000000 1.842390 
# 
# From -- ./inp_files/33265.got.cif
#   From: 2010.03.12/outbox.cif.g09.slc.cpg/sg72_17_cif.got.tgz:33265.got - 2010.04.16 14:54:00.
