data_PCOD8294562
_publ_section_title
;
Structure prediction by ZEFSAII (Michael W. Deem and Ramdas Pophale) SiO2 
 PCOD8294562
Probable space group: I B A M
;
_chemical_formula_sum "Si O2"
_cell_formula_units_Z 68
_cell_length_a 20.152514
_cell_length_b 20.299183
_cell_length_c 9.329200
_cell_angle_alpha 90.000000
_cell_angle_beta 90.000000
_cell_angle_gamma 90.000000
_cell_volume 3816.385121
_symmetry_space_group_name_H-M "I B A M"
_symmetry_group_IT_number 72
_symmetry_cell_setting 'orthorhombic'
loop_
_space_group_symop_operation_xyz
x,y,z
-x,-y,z
x,-y,1/2-z
-x,y,1/2-z
-x,-y,-z
x,y,-z
-x,y,1/2+z
x,-y,1/2+z
1/2+x,1/2+y,1/2+z
1/2-x,1/2-y,1/2+z
1/2+x,1/2-y,-z
1/2-x,1/2+y,-z
1/2-x,1/2-y,1/2-z
1/2+x,1/2+y,1/2-z
1/2-x,1/2+y,z
1/2+x,1/2-y,z
loop_
_atom_site_type_symbol
_atom_site_label
_atom_site_fract_x
_atom_site_fract_y
_atom_site_fract_z
Si Si1 0.064068 0.256808 0.833223
Si Si2 0.296926 0.299541 0.666460
Si Si3 0.894606 0.598156 0.160040
Si Si4 0.500000 0.000000 0.250000
Si Si5 0.766406 0.563076 0.668762
O O1 0.126731 0.211693 0.790281
O O2 0.079037 0.331518 0.786283
O O3 0.000000 0.229852 0.750000
O O4 0.047897 0.252165 0.000000
O O5 0.285484 0.284341 0.500000
O O6 0.250000 0.250000 0.750000
O O7 0.279557 0.374617 0.704494
O O8 0.840333 0.574495 0.273254
O O9 0.954572 0.546387 0.151213
O O10 0.863705 0.604547 0.000000
O O11 0.735108 0.500000 0.750000
O O12 0.770894 0.548783 0.500000
#
# Coordination Sequence:
#
# PCOD8294562 Si02
#       5
#    16  16  16   4  16
#     4  10  21  37  55  80 112 146 186 231 278 329
#     4  10  21  37  58  84 112 146 189 237 281 334
#     4  11  22  34  51  76 111 150 186 222 264 321
#     4  12  22  32  48  78 118 152 186 212 266 328
#     4  11  23  37  56  81 111 145 186 232 281 331
#
# _framework density 17.817907000000002
#
# number of rings (size 3 to 8) (size 9 to 14) (size 15 to 20)
#    0.000    1.412    4.706    1.059    0.000    3.765 
#    0.000    0.000    0.000    0.706    0.000    4.941 
#    0.000    0.000    0.000    0.000    0.000    0.000 
#
# Total GULP energy -421681.024047 kJ/mol
# GULP energy per Si atom -12402.383060 kJ/mol
# Density = 1.777735 g / cm^3
# Si number density = 17.817907 Si / 1000 Ang^3
#
#
#
# Elastic Constant Matrix: (Units=GPa)
#
#
# Indices 1 2 3 4 5 6 
#
# 1 121.1743 84.5998 49.9361 0.0000 0.0000 0.0000
# 2 84.5998 127.5901 58.2059 0.0000 0.0000 0.0000
# 3 49.9361 58.2059 82.8590 0.0000 0.0000 0.0000
# 4 0.0000 0.0000 0.0000 26.8210 0.0000 0.0000
# 5 0.0000 0.0000 0.0000 0.0000 25.7813 0.0000
# 6 0.0000 0.0000 0.0000 0.0000 0.0000 36.6278
#
#
#
# Elastic Compliance Matrix: (Units=1/GPa)
#
#
# Indices 1 2 3 4 5 6 
#
# 1 0.015925 -0.009096 -0.003208 0.000000 0.000000 0.000000
# 2 -0.009096 0.016729 -0.006270 0.000000 0.000000 0.000000
# 3 -0.003208 -0.006270 0.018406 0.000000 0.000000 0.000000
# 4 0.000000 0.000000 0.000000 0.037284 0.000000 0.000000
# 5 0.000000 0.000000 0.000000 0.000000 0.038788 0.000000
# 6 0.000000 0.000000 0.000000 0.000000 0.000000 0.027302
#
#
# Mechanical properties :
#
#
# Convention : Reuss Voigt Hill
#
# Bulk Modulus (GPa) = 71.87429 79.67857 75.77643
# Shear Modulus (GPa) = 25.48181 27.10479 26.29330
#
# Velocity S-wave (km/s) = 3.78580 3.90450 3.84561
# Velocity P-wave (km/s) = 7.71593 8.07107 7.89550
#
# Compressibility (1/GPa) = 0.01391318
#
# Stress axis : x y z
#
# Youngs Moduli (GPa) = 62.79495 59.77695 54.32902
#
# Poissons Ratio (x) = 0.54371 0.17428
# Poissons Ratio (y) = 0.57116 0.34064
# Poissons Ratio (z) = 0.20144 0.37479
#
# Static dielectric constant tensor:
#      x y z
#    x 3.250170 0.000000 0.000000 
#    y 0.000000 3.550850 0.000000 
#    z 0.000000 0.000000 3.268160 
# 
# 
# High freq. dielectric constant tensor:
#      x y z
#    x 1.675300 0.000000 0.000000 
#    y 0.000000 1.688880 0.000000 
#    z 0.000000 0.000000 1.692620 
# 
# From -- ./inp_files/4395.got.cif
#   From: 2010.03.12/outbox.cif.g09.slc.cpg/sg72_3_cif.got.tgz:4395.got - 2010.04.16 14:54:00.
