data_PCOD8294908
_publ_section_title
;
Structure prediction by ZEFSAII (Michael W. Deem and Ramdas Pophale) SiO2 
 PCOD8294908
Probable space group: I B A M
;
_chemical_formula_sum "Si O2"
_cell_formula_units_Z 88
_cell_length_a 30.040069
_cell_length_b 8.444288
_cell_length_c 17.328783
_cell_angle_alpha 90.000000
_cell_angle_beta 90.000000
_cell_angle_gamma 90.000000
_cell_volume 4395.740296
_symmetry_space_group_name_H-M "I B A M"
_symmetry_group_IT_number 72
_symmetry_cell_setting 'orthorhombic'
loop_
_space_group_symop_operation_xyz
x,y,z
-x,-y,z
x,-y,1/2-z
-x,y,1/2-z
-x,-y,-z
x,y,-z
-x,y,1/2+z
x,-y,1/2+z
1/2+x,1/2+y,1/2+z
1/2-x,1/2-y,1/2+z
1/2+x,1/2-y,-z
1/2-x,1/2+y,-z
1/2-x,1/2-y,1/2-z
1/2+x,1/2+y,1/2-z
1/2-x,1/2+y,z
1/2+x,1/2-y,z
loop_
_atom_site_type_symbol
_atom_site_label
_atom_site_fract_x
_atom_site_fract_y
_atom_site_fract_z
Si Si1 0.744602 0.500000 0.250000
Si Si2 0.233866 0.108088 0.000000
Si Si3 0.680106 0.723965 0.000000
Si Si4 0.387025 0.901583 0.822242
Si Si5 0.096046 0.300875 0.415501
Si Si6 0.551973 0.326296 0.733950
Si Si7 0.703216 0.234225 0.845461
O O1 0.712880 0.361332 0.220685
O O2 0.774103 0.433135 0.321266
O O3 0.220148 0.210147 0.927019
O O4 0.211274 0.933916 0.000000
O O5 0.288259 0.118135 0.000000
O O6 0.647169 0.731932 0.075485
O O7 0.428653 0.800286 0.793374
O O8 0.349502 0.784122 0.852918
O O9 0.367298 0.000000 0.750000
O O10 0.402226 0.015908 0.890843
O O11 0.072681 0.292007 0.500000
O O12 0.066096 0.206647 0.354460
O O13 0.570988 0.500000 0.750000
O O14 0.500000 0.318516 0.750000
#
# Coordination Sequence:
#
# PCOD8294908 Si02
#       7
#     8   8   8  16  16  16  16
#     4  10  24  40  58  84 130 164 228 268 328 384
#     4  12  26  38  64  89 130 184 233 275 323 390
#     4  10  26  42  62  95 137 181 226 278 334 368
#     4  10  22  38  63  91 127 170 214 266 332 392
#     4   9  23  43  67  94 138 171 217 275 332 395
#     4  10  23  45  73 101 129 167 215 275 342 417
#     4  11  24  39  59  91 123 176 218 279 322 384
#
# _framework density 20.019380999999999
#
# number of rings (size 3 to 8) (size 9 to 14) (size 15 to 20)
#    0.545    1.273    0.909    1.091   10.182    6.182 
#    0.000    4.545    0.000    0.000    0.000    0.000 
#    0.000    0.000    0.000    0.000    0.000    0.000 
#
# Total GULP energy -545353.177594 kJ/mol
# GULP energy per Si atom -12394.390400 kJ/mol
# Density = 1.997382 g / cm^3
# Si number density = 20.019381 Si / 1000 Ang^3
#
#
#
# Elastic Constant Matrix: (Units=GPa)
#
#
# Indices 1 2 3 4 5 6 
#
# 1 94.4009 45.5770 55.4639 0.0000 0.0000 0.0000
# 2 45.5770 116.4714 53.0047 0.0000 0.0000 0.0000
# 3 55.4639 53.0047 128.0664 0.0000 0.0000 0.0000
# 4 0.0000 0.0000 0.0000 26.1351 0.0000 0.0000
# 5 0.0000 0.0000 0.0000 0.0000 23.2224 0.0000
# 6 0.0000 0.0000 0.0000 0.0000 0.0000 29.7734
#
#
#
# Elastic Compliance Matrix: (Units=1/GPa)
#
#
# Indices 1 2 3 4 5 6 
#
# 1 0.015392 -0.003683 -0.005142 0.000000 0.000000 0.000000
# 2 -0.003683 0.011460 -0.003148 0.000000 0.000000 0.000000
# 3 -0.005142 -0.003148 0.011338 0.000000 0.000000 0.000000
# 4 0.000000 0.000000 0.000000 0.038263 0.000000 0.000000
# 5 0.000000 0.000000 0.000000 0.000000 0.043062 0.000000
# 6 0.000000 0.000000 0.000000 0.000000 0.000000 0.033587
#
#
# Mechanical properties :
#
#
# Convention : Reuss Voigt Hill
#
# Bulk Modulus (GPa) = 70.20297 71.89222 71.04759
# Shear Modulus (GPa) = 27.50341 28.15240 27.82790
#
# Velocity S-wave (km/s) = 3.71055 3.75408 3.73238
# Velocity P-wave (km/s) = 7.31446 7.40136 7.35803
#
# Compressibility (1/GPa) = 0.01424441
#
# Stress axis : x y z
#
# Youngs Moduli (GPa) = 64.96708 87.26276 88.19813
#
# Poissons Ratio (x) = 0.32142 0.45350
# Poissons Ratio (y) = 0.23929 0.27763
# Poissons Ratio (z) = 0.33405 0.27468
#
# Static dielectric constant tensor:
#      x y z
#    x 3.441560 0.000000 0.000000 
#    y 0.000000 3.837880 0.000000 
#    z 0.000000 0.000000 3.628900 
# 
# 
# High freq. dielectric constant tensor:
#      x y z
#    x 1.767380 0.000000 0.000000 
#    y 0.000000 1.789120 0.000000 
#    z 0.000000 0.000000 1.782770 
# 
# From -- ./inp_files/34248.got.cif
#   From: 2010.03.12/outbox.cif.g09.slc.cpg/sg72_18_cif.got.tgz:34248.got - 2010.04.16 14:54:00.
