data_PCOD8294763
_publ_section_title
;
Structure prediction by ZEFSAII (Michael W. Deem and Ramdas Pophale) SiO2 
 PCOD8294763
Probable space group: I B A M
;
_chemical_formula_sum "Si O2"
_cell_formula_units_Z 112
_cell_length_a 19.658129
_cell_length_b 11.537510
_cell_length_c 24.327508
_cell_angle_alpha 90.000000
_cell_angle_beta 90.000000
_cell_angle_gamma 90.000000
_cell_volume 5517.621372
_symmetry_space_group_name_H-M "I B A M"
_symmetry_group_IT_number 72
_symmetry_cell_setting 'orthorhombic'
loop_
_space_group_symop_operation_xyz
x,y,z
-x,-y,z
x,-y,1/2-z
-x,y,1/2-z
-x,-y,-z
x,y,-z
-x,y,1/2+z
x,-y,1/2+z
1/2+x,1/2+y,1/2+z
1/2-x,1/2-y,1/2+z
1/2+x,1/2-y,-z
1/2-x,1/2+y,-z
1/2-x,1/2-y,1/2-z
1/2+x,1/2+y,1/2-z
1/2-x,1/2+y,z
1/2+x,1/2-y,z
loop_
_atom_site_type_symbol
_atom_site_label
_atom_site_fract_x
_atom_site_fract_y
_atom_site_fract_z
Si Si1 0.929081 0.533479 0.061573
Si Si2 0.844178 0.141970 0.863963
Si Si3 0.615135 0.766508 0.638381
Si Si4 0.686228 0.889747 0.904550
Si Si5 0.989438 0.130765 0.185385
Si Si6 0.330535 0.567605 0.937979
Si Si7 0.289017 0.060022 0.308560
O O1 0.894427 0.637842 0.092564
O O2 0.881430 0.420154 0.061479
O O3 0.000000 0.500000 0.090554
O O4 0.943168 0.576602 0.000000
O O5 0.811691 0.254489 0.891540
O O6 0.913810 0.170877 0.831697
O O7 0.789746 0.090600 0.820681
O O8 0.857778 0.054172 0.914418
O O9 0.543622 0.721360 0.661461
O O10 0.651570 0.662456 0.607454
O O11 0.663648 0.823529 0.685727
O O12 0.749091 0.929945 0.942074
O O13 0.683980 0.961277 0.848474
O O14 0.000000 0.132539 0.250000
O O15 0.000000 0.000000 0.162769
O O16 0.360091 0.586639 0.000000
O O17 0.295143 0.000000 0.250000
#
# Coordination Sequence:
#
# PCOD8294763 Si02
#       7
#    16  16  16  16  16  16  16
#     4  10  21  39  64  88 121 168 210 260 324 385
#     4  11  23  43  63  97 131 168 220 270 318 393
#     4  11  22  45  62  95 130 165 215 269 324 386
#     4  10  22  40  62  95 128 162 217 273 313 389
#     4  11  25  41  65  92 131 175 212 265 333 395
#     4  11  23  40  64  95 129 169 210 267 331 379
#     4  10  24  40  67  96 127 169 217 269 326 383
#
# _framework density 20.298601999999999
#
# number of rings (size 3 to 8) (size 9 to 14) (size 15 to 20)
#    0.000    1.429    2.857    1.714    4.000    1.714 
#    0.000    2.143    0.000    0.000    0.000    0.000 
#    0.000    0.000    0.000    0.000    0.000    0.000 
#
# Total GULP energy -694324.937623 kJ/mol
# GULP energy per Si atom -12398.659600 kJ/mol
# Density = 2.025240 g / cm^3
# Si number density = 20.298602 Si / 1000 Ang^3
#
#
#
# Elastic Constant Matrix: (Units=GPa)
#
#
# Indices 1 2 3 4 5 6 
#
# 1 123.4071 24.0145 36.6848 0.0000 0.0000 0.0000
# 2 24.0145 110.0042 40.1339 0.0000 0.0000 0.0000
# 3 36.6848 40.1339 95.4052 0.0000 0.0000 0.0000
# 4 0.0000 0.0000 0.0000 20.8165 0.0000 0.0000
# 5 0.0000 0.0000 0.0000 0.0000 21.0483 0.0000
# 6 0.0000 0.0000 0.0000 0.0000 0.0000 36.0335
#
#
#
# Elastic Compliance Matrix: (Units=1/GPa)
#
#
# Indices 1 2 3 4 5 6 
#
# 1 0.009216 -0.000849 -0.003186 0.000000 0.000000 0.000000
# 2 -0.000849 0.010817 -0.004224 0.000000 0.000000 0.000000
# 3 -0.003186 -0.004224 0.013484 0.000000 0.000000 0.000000
# 4 0.000000 0.000000 0.000000 0.048039 0.000000 0.000000
# 5 0.000000 0.000000 0.000000 0.000000 0.047510 0.000000
# 6 0.000000 0.000000 0.000000 0.000000 0.000000 0.027752
#
#
# Mechanical properties :
#
#
# Convention : Reuss Voigt Hill
#
# Bulk Modulus (GPa) = 58.83231 58.94255 58.88743
# Shear Modulus (GPa) = 27.93276 30.77856 29.35566
#
# Velocity S-wave (km/s) = 3.71360 3.89818 3.80701
# Velocity P-wave (km/s) = 6.88724 7.02580 6.95687
#
# Compressibility (1/GPa) = 0.01699746
#
# Stress axis : x y z
#
# Youngs Moduli (GPa) = 108.51022 92.44727 74.16424
#
# Poissons Ratio (x) = 0.07852 0.23631
# Poissons Ratio (y) = 0.09216 0.31325
# Poissons Ratio (z) = 0.34575 0.39048
#
# Static dielectric constant tensor:
#      x y z
#    x 3.892430 0.000000 0.000000 
#    y 0.000000 3.863290 0.000000 
#    z 0.000000 0.000000 3.567400 
# 
# 
# High freq. dielectric constant tensor:
#      x y z
#    x 1.801240 0.000000 0.000000 
#    y 0.000000 1.800560 0.000000 
#    z 0.000000 0.000000 1.784560 
# 
# From -- ./inp_files/43510.got.cif
#   From: 2010.03.12/outbox.cif.g09.slc.cpg/sg72_22_cif.got.tgz:43510.got - 2010.04.16 14:54:00.
