data_PCOD8294629
_publ_section_title
;
Structure prediction by ZEFSAII (Michael W. Deem and Ramdas Pophale) SiO2 
 PCOD8294629
Probable space group: I B A M
;
_chemical_formula_sum "Si O2"
_cell_formula_units_Z 104
_cell_length_a 27.371734
_cell_length_b 9.196143
_cell_length_c 21.409902
_cell_angle_alpha 90.000000
_cell_angle_beta 90.000000
_cell_angle_gamma 90.000000
_cell_volume 5389.180208
_symmetry_space_group_name_H-M "I B A M"
_symmetry_group_IT_number 72
_symmetry_cell_setting 'orthorhombic'
loop_
_space_group_symop_operation_xyz
x,y,z
-x,-y,z
x,-y,1/2-z
-x,y,1/2-z
-x,-y,-z
x,y,-z
-x,y,1/2+z
x,-y,1/2+z
1/2+x,1/2+y,1/2+z
1/2-x,1/2-y,1/2+z
1/2+x,1/2-y,-z
1/2-x,1/2+y,-z
1/2-x,1/2-y,1/2-z
1/2+x,1/2+y,1/2-z
1/2-x,1/2+y,z
1/2+x,1/2-y,z
loop_
_atom_site_type_symbol
_atom_site_label
_atom_site_fract_x
_atom_site_fract_y
_atom_site_fract_z
Si Si1 0.950891 0.422666 0.642623
Si Si2 0.196317 0.626031 0.169268
Si Si3 0.794208 0.955016 0.316953
Si Si4 0.536407 0.374423 0.928797
Si Si5 0.878300 0.625838 0.571044
Si Si6 0.634379 0.543818 0.070367
Si Si7 0.384460 0.000000 0.750000
O O1 0.966031 0.269014 0.613116
O O2 0.922873 0.528073 0.594728
O O3 0.917271 0.402349 0.703649
O O4 0.000000 0.500000 0.664498
O O5 0.216767 0.785948 0.177946
O O6 0.240197 0.518979 0.181888
O O7 0.174422 0.590360 0.101147
O O8 0.150031 0.614064 0.215171
O O9 0.818640 0.000000 0.250000
O O10 0.826700 0.003436 0.376473
O O11 0.500000 0.500000 0.902933
O O12 0.591715 0.427662 0.925891
O O13 0.521122 0.335558 0.000000
O O14 0.871867 0.585606 0.500000
O O15 0.888854 0.797036 0.583333
O O16 0.657798 0.540861 0.000000
#
# Coordination Sequence:
#
# PCOD8294629 Si02
#       7
#    16  16  16  16  16  16   8
#     4  11  22  36  60  84 114 153 193 236 294 344
#     4  10  22  37  56  83 110 151 188 238 290 335
#     4  11  22  35  60  84 112 149 197 235 286 345
#     4  10  21  37  61  90 120 152 191 240 293 350
#     4   9  19  37  58  82 115 151 193 235 285 348
#     4   9  20  38  57  84 120 153 188 241 293 339
#     4  10  23  40  58  76 116 150 195 240 286 344
#
# _framework density 19.297924999999999
#
# number of rings (size 3 to 8) (size 9 to 14) (size 15 to 20)
#    0.000    2.000    0.769    2.077    2.154    4.308 
#    0.000    0.000    0.000    0.000    0.000    0.000 
#    0.000    0.000    0.000    0.000    0.000    0.000 
#
# Total GULP energy -644612.072090 kJ/mol
# GULP energy per Si atom -12396.386002 kJ/mol
# Density = 1.925400 g / cm^3
# Si number density = 19.297925 Si / 1000 Ang^3
#
#
#
# Elastic Constant Matrix: (Units=GPa)
#
#
# Indices 1 2 3 4 5 6 
#
# 1 107.5565 52.5508 60.7074 0.0000 0.0000 0.0000
# 2 52.5508 88.9360 38.0315 0.0000 0.0000 0.0000
# 3 60.7074 38.0315 127.1525 0.0000 0.0000 0.0000
# 4 0.0000 0.0000 0.0000 22.8569 0.0000 0.0000
# 5 0.0000 0.0000 0.0000 0.0000 13.9108 0.0000
# 6 0.0000 0.0000 0.0000 0.0000 0.0000 29.1023
#
#
#
# Elastic Compliance Matrix: (Units=1/GPa)
#
#
# Indices 1 2 3 4 5 6 
#
# 1 0.015792 -0.007003 -0.005445 0.000000 0.000000 0.000000
# 2 -0.007003 0.015998 -0.001442 0.000000 0.000000 0.000000
# 3 -0.005445 -0.001442 0.010896 0.000000 0.000000 0.000000
# 4 0.000000 0.000000 0.000000 0.043750 0.000000 0.000000
# 5 0.000000 0.000000 0.000000 0.000000 0.071886 0.000000
# 6 0.000000 0.000000 0.000000 0.000000 0.000000 0.034362
#
#
# Mechanical properties :
#
#
# Convention : Reuss Voigt Hill
#
# Bulk Modulus (GPa) = 67.08437 69.58048 68.33243
# Shear Modulus (GPa) = 22.17947 24.66436 23.42192
#
# Velocity S-wave (km/s) = 3.39384 3.57891 3.48760
# Velocity P-wave (km/s) = 7.08488 7.29468 7.19054
#
# Compressibility (1/GPa) = 0.01490660
#
# Stress axis : x y z
#
# Youngs Moduli (GPa) = 63.32132 62.50594 91.78018
#
# Poissons Ratio (x) = 0.43773 0.49977
# Poissons Ratio (y) = 0.44344 0.13232
# Poissons Ratio (z) = 0.34481 0.09011
#
# Static dielectric constant tensor:
#      x y z
#    x 3.505800 0.000000 0.000000 
#    y 0.000000 3.442090 0.000000 
#    z 0.000000 0.000000 3.915010 
# 
# 
# High freq. dielectric constant tensor:
#      x y z
#    x 1.750670 0.000000 0.000000 
#    y 0.000000 1.747380 0.000000 
#    z 0.000000 0.000000 1.759260 
# 
# From -- ./inp_files/40758.got.cif
#   From: 2010.03.12/outbox.cif.g09.slc.cpg/sg72_21_cif.got.tgz:40758.got - 2010.04.16 14:54:00.
