data_PCOD8294215
_publ_section_title
;
Structure prediction by ZEFSAII (Michael W. Deem and Ramdas Pophale) SiO2 
 PCOD8294215
Probable space group: I B A M
;
_chemical_formula_sum "Si O2"
_cell_formula_units_Z 96
_cell_length_a 12.047105
_cell_length_b 23.542760
_cell_length_c 16.749326
_cell_angle_alpha 90.000000
_cell_angle_beta 90.000000
_cell_angle_gamma 90.000000
_cell_volume 4750.479042
_symmetry_space_group_name_H-M "I B A M"
_symmetry_group_IT_number 72
_symmetry_cell_setting 'orthorhombic'
loop_
_space_group_symop_operation_xyz
x,y,z
-x,-y,z
x,-y,1/2-z
-x,y,1/2-z
-x,-y,-z
x,y,-z
-x,y,1/2+z
x,-y,1/2+z
1/2+x,1/2+y,1/2+z
1/2-x,1/2-y,1/2+z
1/2+x,1/2-y,-z
1/2-x,1/2+y,-z
1/2-x,1/2-y,1/2-z
1/2+x,1/2+y,1/2-z
1/2-x,1/2+y,z
1/2+x,1/2-y,z
loop_
_atom_site_type_symbol
_atom_site_label
_atom_site_fract_x
_atom_site_fract_y
_atom_site_fract_z
Si Si1 0.290861 0.075820 0.330927
Si Si2 0.833092 0.719635 0.405325
Si Si3 0.888732 0.845558 0.595343
Si Si4 0.995275 0.624081 0.408142
Si Si5 0.705216 0.052742 0.355432
Si Si6 0.863161 0.144215 0.407635
O O1 0.179754 0.106907 0.358547
O O2 0.396588 0.112662 0.356102
O O3 0.295669 0.069096 0.236828
O O4 0.290235 0.014160 0.371786
O O5 0.827221 0.714924 0.500000
O O6 0.842678 0.784269 0.377409
O O7 0.940724 0.683295 0.378011
O O8 0.720989 0.690992 0.369155
O O9 0.879363 0.854154 0.500000
O O10 0.014035 0.851070 0.628870
O O11 0.032599 0.628011 0.500000
O O12 0.906324 0.573886 0.398032
O O13 0.813632 0.081314 0.394797
O O14 0.875866 0.157786 0.500000
#
# Coordination Sequence:
#
# PCOD8294215 Si02
#       6
#    16  16  16  16  16  16
#     4  11  23  36  57  84 115 153 190 235 284 340
#     4   8  17  34  57  83 113 147 183 231 290 339
#     4  10  21  35  57  88 114 146 193 238 278 335
#     4  10  20  36  61  88 113 146 188 238 289 337
#     4  10  22  40  56  78 116 156 191 231 287 341
#     4   9  19  37  59  79 110 151 189 235 286 336
#
# _framework density 20.208487000000002
#
# number of rings (size 3 to 8) (size 9 to 14) (size 15 to 20)
#    0.000    2.333    0.000    3.000    2.333    6.000 
#    0.000    6.667    7.333    0.000    0.000    0.000 
#    0.000    0.000    0.000    0.000    0.000    0.000 
#
# Total GULP energy -595180.917170 kJ/mol
# GULP energy per Si atom -12399.602441 kJ/mol
# Density = 2.016249 g / cm^3
# Si number density = 20.208487 Si / 1000 Ang^3
#
#
#
# Elastic Constant Matrix: (Units=GPa)
#
#
# Indices 1 2 3 4 5 6 
#
# 1 135.0567 41.5981 21.5603 0.0000 0.0000 0.0000
# 2 41.5981 70.6520 8.9406 0.0000 0.0000 0.0000
# 3 21.5603 8.9406 27.3242 0.0000 0.0001 0.0000
# 4 0.0000 0.0000 0.0000 21.4926 0.0000 0.0000
# 5 0.0000 0.0000 0.0001 0.0000 28.6829 0.0000
# 6 0.0000 0.0000 0.0000 0.0000 0.0000 22.1716
#
#
#
# Elastic Compliance Matrix: (Units=1/GPa)
#
#
# Indices 1 2 3 4 5 6 
#
# 1 0.009958 -0.005079 -0.006195 0.000000 0.000000 0.000000
# 2 -0.005079 0.017356 -0.001671 0.000000 0.000000 0.000000
# 3 -0.006195 -0.001671 0.042033 0.000000 0.000000 0.000000
# 4 0.000000 0.000000 0.000000 0.046528 0.000000 0.000000
# 5 0.000000 0.000000 0.000000 0.000000 0.034864 0.000000
# 6 0.000000 0.000000 0.000000 0.000000 0.000000 0.045103
#
#
# Mechanical properties :
#
#
# Convention : Reuss Voigt Hill
#
# Bulk Modulus (GPa) = 23.01224 41.91453 32.46339
# Shear Modulus (GPa) = 21.16703 25.19835 23.18269
#
# Velocity S-wave (km/s) = 3.23992 3.53501 3.39067
# Velocity P-wave (km/s) = 5.04066 6.11946 5.60607
#
# Compressibility (1/GPa) = 0.04345514
#
# Stress axis : x y z
#
# Youngs Moduli (GPa) = 100.42592 57.61809 23.79094
#
# Poissons Ratio (x) = 0.29263 0.14739
# Poissons Ratio (y) = 0.51004 0.03976
# Poissons Ratio (z) = 0.62216 0.09630
#
# Static dielectric constant tensor:
#      x y z
#    x 3.842670 0.000000 0.000000 
#    y 0.000000 3.843200 0.000000 
#    z 0.000000 0.000000 3.405270 
# 
# 
# High freq. dielectric constant tensor:
#      x y z
#    x 1.796300 0.000000 0.000000 
#    y 0.000000 1.792490 0.000000 
#    z 0.000000 0.000000 1.764900 
# 
# From -- ./inp_files/29475.got.cif
#   From: 2010.03.12/outbox.cif.g09.slc.cpg/sg72_15_cif.got.tgz:29475.got - 2010.04.16 14:54:00.
