data_PCOD8294596
_publ_section_title
;
Structure prediction by ZEFSAII (Michael W. Deem and Ramdas Pophale) SiO2 
 PCOD8294596
Probable space group: I B A M
;
_chemical_formula_sum "Si O2"
_cell_formula_units_Z 80
_cell_length_a 9.049812
_cell_length_b 27.374286
_cell_length_c 14.029468
_cell_angle_alpha 90.000000
_cell_angle_beta 90.000000
_cell_angle_gamma 90.000000
_cell_volume 3475.550158
_symmetry_space_group_name_H-M "I B A M"
_symmetry_group_IT_number 72
_symmetry_cell_setting 'orthorhombic'
loop_
_space_group_symop_operation_xyz
x,y,z
-x,-y,z
x,-y,1/2-z
-x,y,1/2-z
-x,-y,-z
x,y,-z
-x,y,1/2+z
x,-y,1/2+z
1/2+x,1/2+y,1/2+z
1/2-x,1/2-y,1/2+z
1/2+x,1/2-y,-z
1/2-x,1/2+y,-z
1/2-x,1/2-y,1/2-z
1/2+x,1/2+y,1/2-z
1/2-x,1/2+y,z
1/2+x,1/2-y,z
loop_
_atom_site_type_symbol
_atom_site_label
_atom_site_fract_x
_atom_site_fract_y
_atom_site_fract_z
Si Si1 0.590204 0.312636 0.385392
Si Si2 0.273405 0.276982 0.389588
Si Si3 0.936442 0.451463 0.646016
Si Si4 0.163546 0.622085 0.895619
Si Si5 0.845318 0.913350 0.280549
O O1 0.592187 0.317593 0.500000
O O2 0.430159 0.294517 0.347209
O O3 0.710047 0.273344 0.345267
O O4 0.624102 0.364017 0.337778
O O5 0.296206 0.265818 0.500000
O O6 0.152470 0.320143 0.372756
O O7 0.756875 0.448282 0.651919
O O8 0.000000 0.500000 0.591588
O O9 0.000000 0.453867 0.750000
O O10 0.999594 0.401755 0.598787
O O11 0.261196 0.594853 0.818209
O O12 0.239795 0.616127 0.000000
O O13 0.000000 0.938758 0.250000
#
# Coordination Sequence:
#
# PCOD8294596 Si02
#       5
#    16  16  16  16  16
#     4  10  21  37  58  90 130 173 216 259 313 374
#     4   9  19  35  56  85 126 171 213 256 305 361
#     4   9  21  42  64  88 120 159 211 262 320 392
#     4  10  21  40  62  87 127 169 212 263 313 376
#     4  11  22  39  64  96 126 164 210 262 326 377
#
# _framework density 23.017938999999998
#
# number of rings (size 3 to 8) (size 9 to 14) (size 15 to 20)
#    0.000    2.200    2.000    0.000    2.800    2.000 
#    0.000    8.000    0.000    1.200    0.000    0.000 
#    0.000    0.000    0.000    0.000    0.000    0.000 
#
# Total GULP energy -495548.721881 kJ/mol
# GULP energy per Si atom -12388.718047 kJ/mol
# Density = 2.296555 g / cm^3
# Si number density = 23.017939 Si / 1000 Ang^3
#
#
#
# Elastic Constant Matrix: (Units=GPa)
#
#
# Indices 1 2 3 4 5 6 
#
# 1 171.5514 75.3196 17.7084 0.0005 0.0001 0.0000
# 2 75.3196 110.8290 11.3215 0.0007 0.0000 0.0000
# 3 17.7084 11.3215 46.2601 0.0041 0.0011 -0.0001
# 4 0.0005 0.0007 0.0041 -73.1561 -0.0007 0.0000
# 5 0.0001 0.0000 0.0011 -0.0007 20.2074 -0.0001
# 6 0.0000 0.0000 -0.0001 0.0000 -0.0001 38.2041
#
#
#
# Elastic Compliance Matrix: (Units=1/GPa)
#
#
# Indices 1 2 3 4 5 6 
#
# 1 0.008464 -0.005560 -0.001879 0.000000 0.000000 0.000000
# 2 -0.005560 0.012907 -0.001030 0.000000 0.000000 0.000000
# 3 -0.001879 -0.001030 0.022588 0.000001 -0.000001 0.000000
# 4 0.000000 0.000000 0.000001 -0.013669 0.000000 0.000000
# 5 0.000000 0.000000 -0.000001 0.000000 0.049487 0.000000
# 6 0.000000 0.000000 0.000000 0.000000 0.000000 0.026175
#
#
# Mechanical properties :
#
#
# Convention : Reuss Voigt Hill
#
# Bulk Modulus (GPa) = 37.00992 59.70439 48.35715
# Shear Modulus (GPa) = 37.90764 12.00381 24.95572
#
# Velocity S-wave (km/s) = 4.06257 2.28611 3.29627
# Velocity P-wave (km/s) = 6.17411 5.74133 5.96165
#
# Compressibility (1/GPa) = 0.02701978
#
# Stress axis : x y z
#
# Youngs Moduli (GPa) = 118.14069 77.47690 44.27041
#
# Poissons Ratio (x) = 0.43081 0.08320
# Poissons Ratio (y) = 0.65692 0.04561
# Poissons Ratio (z) = 0.22203 0.07982
#
# Static dielectric constant tensor:
#      x y z
#    x 4.725650 0.000000 0.000000 
#    y 0.000000 5.519140 0.000000 
#    z 0.000000 0.000000 4.174710 
# 
# 
# High freq. dielectric constant tensor:
#      x y z
#    x 1.898630 0.000000 0.000000 
#    y 0.000000 1.897780 0.000000 
#    z 0.000000 0.000000 1.907920 
# 
# From -- ./inp_files/28143.got.cif
#   From: 2010.03.12/outbox.cif.g09.slc.cpg/sg72_15_cif.got.tgz:28143.got - 2010.04.16 14:54:00.
