data_PCOD8294413
_publ_section_title
;
Structure prediction by ZEFSAII (Michael W. Deem and Ramdas Pophale) SiO2 
 PCOD8294413
Probable space group: I B A M
;
_chemical_formula_sum "Si O2"
_cell_formula_units_Z 112
_cell_length_a 12.282597
_cell_length_b 30.956930
_cell_length_c 13.974350
_cell_angle_alpha 90.000000
_cell_angle_beta 90.000000
_cell_angle_gamma 90.000000
_cell_volume 5313.488000
_symmetry_space_group_name_H-M "I B A M"
_symmetry_group_IT_number 72
_symmetry_cell_setting 'orthorhombic'
loop_
_space_group_symop_operation_xyz
x,y,z
-x,-y,z
x,-y,1/2-z
-x,y,1/2-z
-x,-y,-z
x,y,-z
-x,y,1/2+z
x,-y,1/2+z
1/2+x,1/2+y,1/2+z
1/2-x,1/2-y,1/2+z
1/2+x,1/2-y,-z
1/2-x,1/2+y,-z
1/2-x,1/2-y,1/2-z
1/2+x,1/2+y,1/2-z
1/2-x,1/2+y,z
1/2+x,1/2-y,z
loop_
_atom_site_type_symbol
_atom_site_label
_atom_site_fract_x
_atom_site_fract_y
_atom_site_fract_z
Si Si1 0.126067 0.312013 0.109046
Si Si2 0.875841 0.081975 0.237649
Si Si3 0.652779 0.319750 0.710893
Si Si4 0.048344 0.217630 0.890814
Si Si5 0.202326 0.436243 0.611323
Si Si6 0.976087 0.598417 0.887890
Si Si7 0.788001 0.463886 0.389044
O O1 0.225713 0.308072 0.181657
O O2 0.054697 0.269212 0.118882
O O3 0.051685 0.352474 0.139299
O O4 0.168425 0.318393 0.000000
O O5 0.871692 0.129992 0.195050
O O6 0.810639 0.080985 0.337536
O O7 0.823389 0.048381 0.163718
O O8 0.000000 0.067201 0.250000
O O9 0.573260 0.293903 0.640464
O O10 0.634887 0.306133 0.821570
O O11 0.071369 0.202909 0.000000
O O12 0.219372 0.426494 0.500000
O O13 0.183227 0.486708 0.631505
O O14 0.095612 0.412032 0.654151
O O15 0.884671 0.565921 0.846353
O O16 0.981842 0.589966 0.000000
O O17 0.769051 0.454642 0.500000
#
# Coordination Sequence:
#
# PCOD8294413 Si02
#       7
#    16  16  16  16  16  16  16
#     4  10  20  39  67  97 129 166 209 257 317 389
#     4  12  25  43  62  91 125 171 224 265 312 379
#     4  11  22  43  62  91 127 168 214 268 322 381
#     4  10  22  40  63  92 125 167 217 267 323 380
#     4  10  23  42  64  96 132 163 206 268 327 380
#     4   9  18  38  67  98 129 161 203 255 320 391
#     4  10  21  40  68  95 126 169 210 260 323 387
#
# _framework density 21.078434000000001
#
# number of rings (size 3 to 8) (size 9 to 14) (size 15 to 20)
#    0.000    1.714    2.857    1.714    0.000    5.143 
#    7.714    2.857    0.000    0.000    0.000    0.000 
#    0.000    0.000    0.000    0.000    0.000    0.000 
#
# Total GULP energy -694592.835261 kJ/mol
# GULP energy per Si atom -12403.443487 kJ/mol
# Density = 2.103046 g / cm^3
# Si number density = 21.078434 Si / 1000 Ang^3
#
#
#
# Elastic Constant Matrix: (Units=GPa)
#
#
# Indices 1 2 3 4 5 6 
#
# 1 167.7113 54.9990 64.6998 -0.0002 -0.0002 0.0000
# 2 54.9990 98.4789 44.8114 -0.0001 -0.0004 0.0001
# 3 64.6998 44.8114 99.8418 -0.0033 0.0013 0.0010
# 4 -0.0002 -0.0001 -0.0033 28.6722 0.0002 0.0004
# 5 -0.0002 -0.0004 0.0013 0.0002 25.3241 -0.0005
# 6 0.0000 0.0001 0.0010 0.0004 -0.0005 38.5069
#
#
#
# Elastic Compliance Matrix: (Units=1/GPa)
#
#
# Indices 1 2 3 4 5 6 
#
# 1 0.008534 -0.002827 -0.004261 0.000000 0.000000 0.000000
# 2 -0.002827 0.013697 -0.004316 0.000000 0.000000 0.000000
# 3 -0.004261 -0.004316 0.014714 0.000002 -0.000001 0.000000
# 4 0.000000 0.000000 0.000002 0.034877 0.000000 0.000000
# 5 0.000000 0.000000 -0.000001 0.000000 0.039488 0.000001
# 6 0.000000 0.000000 0.000000 0.000000 0.000001 0.025969
#
#
# Mechanical properties :
#
#
# Convention : Reuss Voigt Hill
#
# Bulk Modulus (GPa) = 70.73489 77.22804 73.98147
# Shear Modulus (GPa) = 30.33999 31.93543 31.13771
#
# Velocity S-wave (km/s) = 3.79804 3.89662 3.84765
# Velocity P-wave (km/s) = 7.27078 7.54737 7.41037
#
# Compressibility (1/GPa) = 0.01413729
#
# Stress axis : x y z
#
# Youngs Moduli (GPa) = 117.18466 73.00862 67.96186
#
# Poissons Ratio (x) = 0.20639 0.28960
# Poissons Ratio (y) = 0.33127 0.29330
# Poissons Ratio (z) = 0.49934 0.31508
#
# Static dielectric constant tensor:
#      x y z
#    x 3.787940 0.000000 0.000000 
#    y 0.000000 3.867890 0.000000 
#    z 0.000000 0.000000 3.890510 
# 
# 
# High freq. dielectric constant tensor:
#      x y z
#    x 1.819260 0.000000 0.000000 
#    y 0.000000 1.834760 0.000000 
#    z 0.000000 0.000000 1.832950 
# 
# From -- ./inp_files/20751.got.cif
#   From: 2010.03.12/outbox.cif.g09.slc.cpg/sg72_11_cif.got.tgz:20751.got - 2010.04.16 14:54:00.
