data_PCOD8294056
_publ_section_title
;
Structure prediction by ZEFSAII (Michael W. Deem and Ramdas Pophale) SiO2 
 PCOD8294056
Probable space group: I B A M
;
_chemical_formula_sum "Si O2"
_cell_formula_units_Z 116
_cell_length_a 30.730521
_cell_length_b 21.924696
_cell_length_c 9.113088
_cell_angle_alpha 90.000000
_cell_angle_beta 90.000000
_cell_angle_gamma 90.000000
_cell_volume 6140.009847
_symmetry_space_group_name_H-M "I B A M"
_symmetry_group_IT_number 72
_symmetry_cell_setting 'orthorhombic'
loop_
_space_group_symop_operation_xyz
x,y,z
-x,-y,z
x,-y,1/2-z
-x,y,1/2-z
-x,-y,-z
x,y,-z
-x,y,1/2+z
x,-y,1/2+z
1/2+x,1/2+y,1/2+z
1/2-x,1/2-y,1/2+z
1/2+x,1/2-y,-z
1/2-x,1/2+y,-z
1/2-x,1/2-y,1/2-z
1/2+x,1/2+y,1/2-z
1/2-x,1/2+y,z
1/2+x,1/2-y,z
loop_
_atom_site_type_symbol
_atom_site_label
_atom_site_fract_x
_atom_site_fract_y
_atom_site_fract_z
Si Si1 0.843582 0.559717 0.826938
Si Si2 0.956403 0.724348 0.327902
Si Si3 0.000000 0.500000 0.250000
Si Si4 0.391035 0.328204 0.169739
Si Si5 0.070642 0.590615 0.836487
Si Si6 0.718579 0.830650 0.328775
Si Si7 0.544455 0.438033 0.672885
Si Si8 0.804105 0.194220 0.328150
O O1 0.823145 0.500000 0.750000
O O2 0.893105 0.567234 0.775154
O O3 0.815406 0.617907 0.779129
O O4 0.843732 0.549895 0.000000
O O5 0.964777 0.729136 0.500000
O O6 0.917272 0.768356 0.278902
O O7 0.945432 0.655898 0.277496
O O8 0.000000 0.747130 0.250000
O O9 0.030524 0.543632 0.152601
O O10 0.419250 0.387745 0.201133
O O11 0.347718 0.334571 0.264341
O O12 0.378005 0.322826 0.000000
O O13 0.090530 0.597188 0.000000
O O14 0.729377 0.834795 0.500000
O O15 0.763183 0.840861 0.241542
O O16 0.697511 0.765765 0.287424
O O17 0.560738 0.500000 0.750000
O O18 0.500000 0.416075 0.750000
O O19 0.536286 0.448474 0.500000
O O20 0.802916 0.182920 0.500000
#
# Coordination Sequence:
#
# PCOD8294056 Si02
#       8
#    16  16   4  16  16  16  16  16
#     4  11  23  38  58  82 110 144 184 227 274 326
#     4  10  21  36  53  78 110 148 189 231 277 324
#     4  12  22  36  56  78 110 152 196 232 278 316
#     4  10  21  36  55  81 115 147 179 223 278 330
#     4  11  23  37  55  79 110 150 194 235 278 323
#     4   9  20  39  59  82 112 143 175 220 277 332
#     4  10  20  35  56  81 109 147 186 224 269 323
#     4  10  20  35  60  88 109 138 180 223 271 327
#
# _framework density 18.892477
#
# number of rings (size 3 to 8) (size 9 to 14) (size 15 to 20)
#    0.000    1.793    1.379    3.103    0.000    4.414 
#    0.000    0.690    0.000    0.000    0.000    0.000 
#    0.000    0.000    0.000    0.000    0.000    0.000 
#
# Total GULP energy -719402.795255 kJ/mol
# GULP energy per Si atom -12403.496470 kJ/mol
# Density = 1.884948 g / cm^3
# Si number density = 18.892477 Si / 1000 Ang^3
#
#
#
# Elastic Constant Matrix: (Units=GPa)
#
#
# Indices 1 2 3 4 5 6 
#
# 1 130.5070 62.4731 54.5402 0.0000 0.0000 0.0000
# 2 62.4731 100.1125 39.9829 0.0000 0.0000 0.0000
# 3 54.5402 39.9829 79.8576 0.0000 0.0000 0.0000
# 4 0.0000 0.0000 0.0000 28.5645 0.0000 0.0000
# 5 0.0000 0.0000 0.0000 0.0000 34.1265 0.0000
# 6 0.0000 0.0000 0.0000 0.0000 0.0000 24.7254
#
#
#
# Elastic Compliance Matrix: (Units=1/GPa)
#
#
# Indices 1 2 3 4 5 6 
#
# 1 0.012851 -0.005642 -0.005952 0.000000 0.000000 0.000000
# 2 -0.005642 0.014963 -0.003638 0.000000 0.000000 0.000000
# 3 -0.005952 -0.003638 0.018409 0.000000 0.000000 0.000000
# 4 0.000000 0.000000 0.000000 0.035009 0.000000 0.000000
# 5 0.000000 0.000000 0.000000 0.000000 0.029303 0.000000
# 6 0.000000 0.000000 0.000000 0.000000 0.000000 0.040444
#
#
# Mechanical properties :
#
#
# Convention : Reuss Voigt Hill
#
# Bulk Modulus (GPa) = 63.45950 69.38549 66.42249
# Shear Modulus (GPa) = 26.78189 27.71534 27.24861
#
# Velocity S-wave (km/s) = 3.76918 3.83430 3.80188
# Velocity P-wave (km/s) = 7.25293 7.51058 7.38288
#
# Compressibility (1/GPa) = 0.01575808
#
# Stress axis : x y z
#
# Youngs Moduli (GPa) = 77.81776 66.83335 54.32269
#
# Poissons Ratio (x) = 0.37708 0.32331
# Poissons Ratio (y) = 0.43906 0.19763
# Poissons Ratio (z) = 0.46314 0.24314
#
# Static dielectric constant tensor:
#      x y z
#    x 3.362370 0.000000 0.000000 
#    y 0.000000 3.641770 0.000000 
#    z 0.000000 0.000000 3.395250 
# 
# 
# High freq. dielectric constant tensor:
#      x y z
#    x 1.729770 0.000000 0.000000 
#    y 0.000000 1.737820 0.000000 
#    z 0.000000 0.000000 1.736610 
# 
# From -- ./inp_files/7561.got.cif
#   From: 2010.03.12/outbox.cif.g09.slc.cpg/sg72_4_cif.got.tgz:7561.got - 2010.04.16 14:54:00.
