data_PCOD8294186
_publ_section_title
;
Structure prediction by ZEFSAII (Michael W. Deem and Ramdas Pophale) SiO2 
 PCOD8294186
Probable space group: I B A M
;
_chemical_formula_sum "Si O2"
_cell_formula_units_Z 96
_cell_length_a 8.291971
_cell_length_b 28.074082
_cell_length_c 20.588771
_cell_angle_alpha 90.000000
_cell_angle_beta 90.000000
_cell_angle_gamma 90.000000
_cell_volume 4792.849167
_symmetry_space_group_name_H-M "I B A M"
_symmetry_group_IT_number 72
_symmetry_cell_setting 'orthorhombic'
loop_
_space_group_symop_operation_xyz
x,y,z
-x,-y,z
x,-y,1/2-z
-x,y,1/2-z
-x,-y,-z
x,y,-z
-x,y,1/2+z
x,-y,1/2+z
1/2+x,1/2+y,1/2+z
1/2-x,1/2-y,1/2+z
1/2+x,1/2-y,-z
1/2-x,1/2+y,-z
1/2-x,1/2-y,1/2-z
1/2+x,1/2+y,1/2-z
1/2-x,1/2+y,z
1/2+x,1/2-y,z
loop_
_atom_site_type_symbol
_atom_site_label
_atom_site_fract_x
_atom_site_fract_y
_atom_site_fract_z
Si Si1 0.395927 0.705575 0.685113
Si Si2 0.742164 0.825429 0.500000
Si Si3 0.717508 0.708451 0.630346
Si Si4 0.893404 0.373740 0.192756
Si Si5 0.603477 0.771711 0.000000
Si Si6 0.678326 0.444767 0.265678
Si Si7 0.285925 0.120306 0.631799
O O1 0.500000 0.709084 0.750000
O O2 0.522854 0.710120 0.624409
O O3 0.271135 0.748274 0.676419
O O4 0.291246 0.657424 0.683650
O O5 0.579331 0.792550 0.500000
O O6 0.886197 0.786356 0.500000
O O7 0.760440 0.861586 0.560299
O O8 0.753985 0.660508 0.668967
O O9 0.802236 0.707691 0.561410
O O10 0.811209 0.421751 0.218385
O O11 0.000000 0.350071 0.250000
O O12 0.019743 0.383145 0.134112
O O13 0.692145 0.500000 0.250000
O O14 0.500000 0.425981 0.250000
O O15 0.716000 0.430622 0.341834
#
# Coordination Sequence:
#
# PCOD8294186 Si02
#       7
#    16   8  16  16   8  16  16
#     4  12  23  36  55  84 124 162 209 264 315 369
#     4  12  24  42  58  87 135 175 233 251 302 368
#     4  12  22  36  55  81 121 168 213 254 307 369
#     4  10  20  36  59  88 121 158 207 257 317 374
#     4  12  24  40  58  81 124 186 219 255 291 370
#     4  10  22  43  70  97 123 155 203 269 340 395
#     4  11  22  38  61  91 125 168 210 261 311 380
#
# _framework density 20.029838999999999
#
# number of rings (size 3 to 8) (size 9 to 14) (size 15 to 20)
#    0.000    0.833    3.333    6.500    0.000    3.000 
#    0.000    0.000    0.000    5.000    0.000    0.000 
#    0.000    0.000    0.000    0.000    0.000    0.000 
#
# Total GULP energy -594830.585810 kJ/mol
# GULP energy per Si atom -12392.303871 kJ/mol
# Density = 1.998425 g / cm^3
# Si number density = 20.029839 Si / 1000 Ang^3
#
#
#
# Elastic Constant Matrix: (Units=GPa)
#
#
# Indices 1 2 3 4 5 6 
#
# 1 99.0004 36.0065 12.9188 0.0000 0.0000 0.0000
# 2 36.0065 95.5355 45.3958 0.0000 0.0000 0.0000
# 3 12.9188 45.3958 98.0854 -0.0001 0.0000 0.0000
# 4 0.0000 0.0000 -0.0001 12.5316 0.0000 0.0000
# 5 0.0000 0.0000 0.0000 0.0000 25.8031 0.0000
# 6 0.0000 0.0000 0.0000 0.0000 0.0000 32.2120
#
#
#
# Elastic Compliance Matrix: (Units=1/GPa)
#
#
# Indices 1 2 3 4 5 6 
#
# 1 0.011737 -0.004729 0.000643 0.000000 0.000000 0.000000
# 2 -0.004729 0.015324 -0.006469 0.000000 0.000000 0.000000
# 3 0.000643 -0.006469 0.013105 0.000000 0.000000 0.000000
# 4 0.000000 0.000000 0.000000 0.079798 0.000000 0.000000
# 5 0.000000 0.000000 0.000000 0.000000 0.038755 0.000000
# 6 0.000000 0.000000 0.000000 0.000000 0.000000 0.031044
#
#
# Mechanical properties :
#
#
# Convention : Reuss Voigt Hill
#
# Bulk Modulus (GPa) = 52.48130 53.47372 52.97751
# Shear Modulus (GPa) = 23.01760 27.32936 25.17348
#
# Velocity S-wave (km/s) = 3.39361 3.69783 3.54898
# Velocity P-wave (km/s) = 6.45088 6.70723 6.58031
#
# Compressibility (1/GPa) = 0.01905440
#
# Stress axis : x y z
#
# Youngs Moduli (GPa) = 85.20034 65.25866 76.30910
#
# Poissons Ratio (x) = 0.30861 -0.04905
# Poissons Ratio (y) = 0.40292 0.49366
# Poissons Ratio (z) = -0.05477 0.42217
#
# Static dielectric constant tensor:
#      x y z
#    x 4.202390 0.000000 0.000000 
#    y 0.000000 3.344420 0.000000 
#    z 0.000000 0.000000 3.875610 
# 
# 
# High freq. dielectric constant tensor:
#      x y z
#    x 1.810430 0.000000 0.000000 
#    y 0.000000 1.749350 0.000000 
#    z 0.000000 0.000000 1.776610 
# 
# From -- ./inp_files/42582.got.cif
#   From: 2010.03.12/outbox.cif.g09.slc.cpg/sg72_22_cif.got.tgz:42582.got - 2010.04.16 14:54:00.
