data_PCOD8294769
_publ_section_title
;
Structure prediction by ZEFSAII (Michael W. Deem and Ramdas Pophale) SiO2 
 PCOD8294769
Probable space group: I B A M
;
_chemical_formula_sum "Si O2"
_cell_formula_units_Z 112
_cell_length_a 14.169929
_cell_length_b 21.789361
_cell_length_c 16.347808
_cell_angle_alpha 90.000000
_cell_angle_beta 90.000000
_cell_angle_gamma 90.000000
_cell_volume 5047.446180
_symmetry_space_group_name_H-M "I B A M"
_symmetry_group_IT_number 72
_symmetry_cell_setting 'orthorhombic'
loop_
_space_group_symop_operation_xyz
x,y,z
-x,-y,z
x,-y,1/2-z
-x,y,1/2-z
-x,-y,-z
x,y,-z
-x,y,1/2+z
x,-y,1/2+z
1/2+x,1/2+y,1/2+z
1/2-x,1/2-y,1/2+z
1/2+x,1/2-y,-z
1/2-x,1/2+y,-z
1/2-x,1/2-y,1/2-z
1/2+x,1/2+y,1/2-z
1/2-x,1/2+y,z
1/2+x,1/2-y,z
loop_
_atom_site_type_symbol
_atom_site_label
_atom_site_fract_x
_atom_site_fract_y
_atom_site_fract_z
Si Si1 0.797319 0.264087 0.335823
Si Si2 0.951380 0.603951 0.663078
Si Si3 0.116313 0.275906 0.590524
Si Si4 0.713373 0.978662 0.904315
Si Si5 0.854680 0.388281 0.591584
Si Si6 0.455796 0.685359 0.093924
Si Si7 0.576103 0.452230 0.903442
O O1 0.750000 0.250000 0.250000
O O2 0.724964 0.243117 0.405608
O O3 0.824778 0.335691 0.344320
O O4 0.889606 0.223150 0.345478
O O5 0.909853 0.672822 0.657593
O O6 0.866750 0.556316 0.647422
O O7 0.000000 0.591571 0.750000
O O8 0.034231 0.595964 0.596767
O O9 0.095805 0.302843 0.500000
O O10 0.059290 0.213286 0.605482
O O11 0.817106 0.960989 0.870389
O O12 0.704899 0.051109 0.889225
O O13 0.701132 0.961511 0.000000
O O14 0.833988 0.364542 0.500000
O O15 0.459589 0.614996 0.121623
O O16 0.420823 0.691305 0.000000
O O17 0.500000 0.500000 0.865224
O O18 0.579291 0.462060 0.000000
#
# Coordination Sequence:
#
# PCOD8294769 Si02
#       7
#    16  16  16  16  16  16  16
#     4  12  25  41  63  96 133 177 219 281 346 408
#     4  12  24  41  64  98 134 177 218 280 349 414
#     4  11  23  39  67  95 126 172 224 276 337 410
#     4  10  22  39  65  96 132 179 225 279 337 406
#     4  11  23  41  64  93 130 172 225 276 332 406
#     4  10  21  39  64  95 129 170 220 275 332 398
#     4   9  19  37  63  96 130 163 216 277 330 389
#
# _framework density 22.189439
#
# number of rings (size 3 to 8) (size 9 to 14) (size 15 to 20)
#    0.000    1.286    1.429    4.714    2.000    3.429 
#    0.000    0.000    0.000    0.000    0.000    0.000 
#    0.000    0.000    0.000    0.000    0.000    0.571 
#
# Total GULP energy -694516.560296 kJ/mol
# GULP energy per Si atom -12402.081434 kJ/mol
# Density = 2.213894 g / cm^3
# Si number density = 22.189439 Si / 1000 Ang^3
#
#
#
# Elastic Constant Matrix: (Units=GPa)
#
#
# Indices 1 2 3 4 5 6 
#
# 1 108.8668 43.9779 30.8949 0.0000 0.0000 0.0000
# 2 43.9779 144.5469 47.2359 -0.0001 0.0000 0.0000
# 3 30.8949 47.2359 69.3860 -0.0001 0.0000 -0.0001
# 4 0.0000 -0.0001 -0.0001 16.6359 0.0000 -0.0001
# 5 0.0000 0.0000 0.0000 0.0000 28.4822 0.0000
# 6 0.0000 0.0000 -0.0001 -0.0001 0.0000 35.5019
#
#
#
# Elastic Compliance Matrix: (Units=1/GPa)
#
#
# Indices 1 2 3 4 5 6 
#
# 1 0.011059 -0.002258 -0.003387 0.000000 0.000000 0.000000
# 2 -0.002258 0.009359 -0.005366 0.000000 0.000000 0.000000
# 3 -0.003387 -0.005366 0.019573 0.000000 0.000000 0.000000
# 4 0.000000 0.000000 0.000000 0.060111 0.000000 0.000000
# 5 0.000000 0.000000 0.000000 0.000000 0.035110 0.000000
# 6 0.000000 0.000000 0.000000 0.000000 0.000000 0.028168
#
#
# Mechanical properties :
#
#
# Convention : Reuss Voigt Hill
#
# Bulk Modulus (GPa) = 55.65029 63.00189 59.32609
# Shear Modulus (GPa) = 26.12479 29.50341 27.81410
#
# Velocity S-wave (km/s) = 3.43498 3.65034 3.54430
# Velocity P-wave (km/s) = 6.39267 6.79861 6.59876
#
# Compressibility (1/GPa) = 0.01796936
#
# Stress axis : x y z
#
# Youngs Moduli (GPa) = 90.42594 106.85450 51.09062
#
# Poissons Ratio (x) = 0.24125 0.17305
# Poissons Ratio (y) = 0.20416 0.27414
# Poissons Ratio (z) = 0.30628 0.57335
#
# Static dielectric constant tensor:
#      x y z
#    x 4.247070 0.000000 0.000000 
#    y 0.000000 3.989700 0.000000 
#    z 0.000000 0.000000 3.707620 
# 
# 
# High freq. dielectric constant tensor:
#      x y z
#    x 1.885160 0.000000 0.000000 
#    y 0.000000 1.879920 0.000000 
#    z 0.000000 0.000000 1.850060 
# 
# From -- ./inp_files/22098.got.cif
#   From: 2010.03.12/outbox.cif.g09.slc.cpg/sg72_12_cif.got.tgz:22098.got - 2010.04.16 14:54:00.
