data_PCOD8294602
_publ_section_title
;
Structure prediction by ZEFSAII (Michael W. Deem and Ramdas Pophale) SiO2 
 PCOD8294602
Probable space group: I B A M
;
_chemical_formula_sum "Si O2"
_cell_formula_units_Z 88
_cell_length_a 12.623943
_cell_length_b 12.861217
_cell_length_c 26.183591
_cell_angle_alpha 90.000000
_cell_angle_beta 90.000000
_cell_angle_gamma 90.000000
_cell_volume 4251.148729
_symmetry_space_group_name_H-M "I B A M"
_symmetry_group_IT_number 72
_symmetry_cell_setting 'orthorhombic'
loop_
_space_group_symop_operation_xyz
x,y,z
-x,-y,z
x,-y,1/2-z
-x,y,1/2-z
-x,-y,-z
x,y,-z
-x,y,1/2+z
x,-y,1/2+z
1/2+x,1/2+y,1/2+z
1/2-x,1/2-y,1/2+z
1/2+x,1/2-y,-z
1/2-x,1/2+y,-z
1/2-x,1/2-y,1/2-z
1/2+x,1/2+y,1/2-z
1/2-x,1/2+y,z
1/2+x,1/2-y,z
loop_
_atom_site_type_symbol
_atom_site_label
_atom_site_fract_x
_atom_site_fract_y
_atom_site_fract_z
Si Si1 0.557131 0.286408 0.394490
Si Si2 0.165504 0.388627 0.329958
Si Si3 0.132736 0.239656 0.832432
Si Si4 0.537586 0.821929 0.000000
Si Si5 0.758097 0.583298 0.107934
Si Si6 0.339891 0.974977 0.000000
Si Si7 0.500000 0.856889 0.750000
O O1 0.599088 0.179437 0.369623
O O2 0.451624 0.327035 0.365534
O O3 0.536833 0.257476 0.452985
O O4 0.636892 0.381858 0.387146
O O5 0.267669 0.324446 0.310490
O O6 0.213652 0.489844 0.354968
O O7 0.082799 0.423134 0.284955
O O8 0.166308 0.324204 0.874546
O O9 0.075472 0.284108 0.783100
O O10 0.440103 0.900124 0.000000
O O11 0.637437 0.900852 0.000000
O O12 0.772555 0.551151 0.049657
#
# Coordination Sequence:
#
# PCOD8294602 Si02
#       7
#    16  16  16   8  16   8   8
#     4  10  21  37  59  85 124 168 203 250 312 366
#     4  10  22  39  61  89 120 154 206 254 312 374
#     4  10  22  40  60  88 121 158 203 253 308 377
#     4  11  19  34  60  89 122 166 210 257 308 362
#     4  11  22  38  60  89 125 165 200 257 307 362
#     4  11  21  34  62  91 126 160 210 263 304 356
#     4  10  22  39  66  89 118 158 196 261 314 369
#
# _framework density 20.700289000000001
#
# number of rings (size 3 to 8) (size 9 to 14) (size 15 to 20)
#    0.000    1.636    3.636    1.091    0.000    5.091 
#    0.000    0.909    0.000   12.000    0.000    0.000 
#    0.000    0.000    0.000    0.000    0.000    0.000 
#
# Total GULP energy -545376.095753 kJ/mol
# GULP energy per Si atom -12394.911267 kJ/mol
# Density = 2.065317 g / cm^3
# Si number density = 20.700289 Si / 1000 Ang^3
#
#
#
# Elastic Constant Matrix: (Units=GPa)
#
#
# Indices 1 2 3 4 5 6 
#
# 1 101.4903 35.0470 47.0380 0.0000 0.0000 0.0000
# 2 35.0470 67.9781 32.7673 0.0000 0.0000 0.0000
# 3 47.0380 32.7673 125.6366 0.0000 0.0000 0.0000
# 4 0.0000 0.0000 0.0000 6.7400 0.0000 0.0000
# 5 0.0000 0.0000 0.0000 0.0000 32.5504 0.0000
# 6 0.0000 0.0000 0.0000 0.0000 0.0000 9.6716
#
#
#
# Elastic Compliance Matrix: (Units=1/GPa)
#
#
# Indices 1 2 3 4 5 6 
#
# 1 0.013307 -0.005100 -0.003652 0.000000 0.000000 0.000000
# 2 -0.005100 0.018781 -0.002989 0.000000 0.000000 0.000000
# 3 -0.003652 -0.002989 0.010106 0.000000 0.000000 0.000000
# 4 0.000000 0.000000 0.000000 0.148368 0.000000 0.000000
# 5 0.000000 0.000000 0.000000 0.000000 0.030722 0.000000
# 6 0.000000 0.000000 0.000000 0.000000 0.000000 0.103396
#
#
# Mechanical properties :
#
#
# Convention : Reuss Voigt Hill
#
# Bulk Modulus (GPa) = 53.44097 58.31218 55.87658
# Shear Modulus (GPa) = 14.10842 21.80924 17.95883
#
# Velocity S-wave (km/s) = 2.61350 3.24940 2.94864
# Velocity P-wave (km/s) = 5.91437 6.50454 6.21646
#
# Compressibility (1/GPa) = 0.01871223
#
# Stress axis : x y z
#
# Youngs Moduli (GPa) = 75.14868 53.24591 98.94915
#
# Poissons Ratio (x) = 0.27157 0.36135
# Poissons Ratio (y) = 0.38328 0.29573
# Poissons Ratio (z) = 0.27443 0.15914
#
# Static dielectric constant tensor:
#      x y z
#    x 4.137980 0.000000 0.000000 
#    y 0.000000 3.575370 0.000000 
#    z 0.000000 0.000000 3.652450 
# 
# 
# High freq. dielectric constant tensor:
#      x y z
#    x 1.822890 0.000000 0.000000 
#    y 0.000000 1.788590 0.000000 
#    z 0.000000 0.000000 1.821430 
# 
# From -- ./inp_files/48609.got.cif
#   From: 2010.03.12/outbox.cif.g09.slc.cpg/sg72_25_cif.got.tgz:48609.got - 2010.04.16 14:54:00.
