data_PCOD8294103
_publ_section_title
;
Structure prediction by ZEFSAII (Michael W. Deem and Ramdas Pophale) SiO2 
 PCOD8294103
Probable space group: I B A M
;
_chemical_formula_sum "Si O2"
_cell_formula_units_Z 80
_cell_length_a 20.116883
_cell_length_b 9.731797
_cell_length_c 22.759584
_cell_angle_alpha 90.000000
_cell_angle_beta 90.000000
_cell_angle_gamma 90.000000
_cell_volume 4455.721635
_symmetry_space_group_name_H-M "I B A M"
_symmetry_group_IT_number 72
_symmetry_cell_setting 'orthorhombic'
loop_
_space_group_symop_operation_xyz
x,y,z
-x,-y,z
x,-y,1/2-z
-x,y,1/2-z
-x,-y,-z
x,y,-z
-x,y,1/2+z
x,-y,1/2+z
1/2+x,1/2+y,1/2+z
1/2-x,1/2-y,1/2+z
1/2+x,1/2-y,-z
1/2-x,1/2+y,-z
1/2-x,1/2-y,1/2-z
1/2+x,1/2+y,1/2-z
1/2-x,1/2+y,z
1/2+x,1/2-y,z
loop_
_atom_site_type_symbol
_atom_site_label
_atom_site_fract_x
_atom_site_fract_y
_atom_site_fract_z
Si Si1 0.303863 0.642001 0.267999
Si Si2 0.000403 0.659285 0.120195
Si Si3 0.900228 0.960165 0.500000
Si Si4 0.529663 0.726455 0.500000
Si Si5 0.887748 0.876664 0.626563
Si Si6 0.441952 0.371928 0.298742
O O1 0.269416 0.500000 0.250000
O O2 0.250000 0.750000 0.250000
O O3 0.319874 0.648703 0.337514
O O4 0.373724 0.654325 0.234749
O O5 0.072207 0.732674 0.124142
O O6 0.000000 0.500000 0.138103
O O7 0.970008 0.673091 0.055412
O O8 0.951253 0.734742 0.164623
O O9 0.863846 0.919731 0.560987
O O10 0.969034 0.878936 0.500000
O O11 0.906792 0.125744 0.500000
O O12 0.934733 0.993634 0.657885
O O13 0.500000 0.392236 0.250000
#
# Coordination Sequence:
#
# PCOD8294103 Si02
#       6
#    16  16   8   8  16  16
#     4  10  23  38  58  79 112 153 184 232 287 343
#     4  11  21  30  48  84 119 150 175 235 294 334
#     4   9  16  30  58  81  97 146 196 240 260 330
#     4   9  17  30  48  77 121 142 182 228 289 339
#     4  10  20  35  59  81 110 148 195 232 275 343
#     4  11  21  35  59  82 112 151 196 235 278 342
#
# _framework density 17.954443000000001
#
# number of rings (size 3 to 8) (size 9 to 14) (size 15 to 20)
#    0.000    1.800    4.000    0.900    5.600    2.000 
#    0.000    0.000    0.000    6.000    0.000    0.000 
#    0.000    0.000    0.000    0.000    0.000    0.000 
#
# Total GULP energy -495594.402579 kJ/mol
# GULP energy per Si atom -12389.860064 kJ/mol
# Density = 1.791358 g / cm^3
# Si number density = 17.954443 Si / 1000 Ang^3
#
#
#
# Elastic Constant Matrix: (Units=GPa)
#
#
# Indices 1 2 3 4 5 6 
#
# 1 76.3314 45.9500 43.5700 0.0000 0.0000 0.0000
# 2 45.9500 156.8708 62.0258 0.0000 0.0000 0.0000
# 3 43.5700 62.0258 158.3231 0.0000 0.0000 0.0000
# 4 0.0000 0.0000 0.0000 26.4687 0.0000 0.0000
# 5 0.0000 0.0000 0.0000 0.0000 6.9738 0.0000
# 6 0.0000 0.0000 0.0000 0.0000 0.0000 23.9832
#
#
#
# Elastic Compliance Matrix: (Units=1/GPa)
#
#
# Indices 1 2 3 4 5 6 
#
# 1 0.017227 -0.003753 -0.003270 0.000000 0.000000 0.000000
# 2 -0.003753 0.008361 -0.002243 0.000000 0.000000 0.000000
# 3 -0.003270 -0.002243 0.008095 0.000000 0.000000 0.000000
# 4 0.000000 0.000000 0.000000 0.037780 0.000000 0.000000
# 5 0.000000 0.000000 0.000000 0.000000 0.143393 0.000000
# 6 0.000000 0.000000 0.000000 0.000000 0.000000 0.041696
#
#
# Mechanical properties :
#
#
# Convention : Reuss Voigt Hill
#
# Bulk Modulus (GPa) = 66.00572 77.17966 71.59269
# Shear Modulus (GPa) = 17.84864 27.48380 22.66622
#
# Velocity S-wave (km/s) = 3.15637 3.91673 3.55692
# Velocity P-wave (km/s) = 7.07999 7.97082 7.53858
#
# Compressibility (1/GPa) = 0.01515020
#
# Stress axis : x y z
#
# Youngs Moduli (GPa) = 58.04939 119.60742 123.53563
#
# Poissons Ratio (x) = 0.44887 0.40402
# Poissons Ratio (y) = 0.21785 0.27705
# Poissons Ratio (z) = 0.18985 0.26824
#
# Static dielectric constant tensor:
#      x y z
#    x 2.930290 0.000000 0.000000 
#    y 0.000000 2.706250 0.000000 
#    z 0.000000 0.000000 3.949230 
# 
# 
# High freq. dielectric constant tensor:
#      x y z
#    x 1.641230 0.000000 0.000000 
#    y 0.000000 1.694480 0.000000 
#    z 0.000000 0.000000 1.719560 
# 
# From -- ./inp_files/45187.got.cif
#   From: 2010.03.12/outbox.cif.g09.slc.cpg/sg72_23_cif.got.tgz:45187.got - 2010.04.16 14:54:00.
