data_PCOD8294404
_publ_section_title
;
Structure prediction by ZEFSAII (Michael W. Deem and Ramdas Pophale) SiO2 
 PCOD8294404
Probable space group: I B A M
;
_chemical_formula_sum "Si O2"
_cell_formula_units_Z 88
_cell_length_a 27.571453
_cell_length_b 11.098714
_cell_length_c 13.587445
_cell_angle_alpha 90.000000
_cell_angle_beta 90.000000
_cell_angle_gamma 90.000000
_cell_volume 4157.862405
_symmetry_space_group_name_H-M "I B A M"
_symmetry_group_IT_number 72
_symmetry_cell_setting 'orthorhombic'
loop_
_space_group_symop_operation_xyz
x,y,z
-x,-y,z
x,-y,1/2-z
-x,y,1/2-z
-x,-y,-z
x,y,-z
-x,y,1/2+z
x,-y,1/2+z
1/2+x,1/2+y,1/2+z
1/2-x,1/2-y,1/2+z
1/2+x,1/2-y,-z
1/2-x,1/2+y,-z
1/2-x,1/2-y,1/2-z
1/2+x,1/2+y,1/2-z
1/2-x,1/2+y,z
1/2+x,1/2-y,z
loop_
_atom_site_type_symbol
_atom_site_label
_atom_site_fract_x
_atom_site_fract_y
_atom_site_fract_z
Si Si1 0.365401 0.000000 0.750000
Si Si2 0.297543 0.151269 0.115053
Si Si3 0.553722 0.358824 0.243997
Si Si4 0.809724 0.884340 0.113147
Si Si5 0.390380 0.202426 0.387900
Si Si6 0.139415 0.123088 0.385851
O O1 0.332849 0.941293 0.666689
O O2 0.398853 0.905713 0.810178
O O3 0.243545 0.132973 0.159750
O O4 0.315556 0.287448 0.133516
O O5 0.298802 0.120520 0.000000
O O6 0.548294 0.500000 0.250000
O O7 0.500000 0.300391 0.250000
O O8 0.573230 0.311387 0.138994
O O9 0.592101 0.323785 0.329891
O O10 0.836244 0.755878 0.125998
O O11 0.841919 0.994329 0.158181
O O12 0.803331 0.919005 0.000000
O O13 0.399847 0.160809 0.500000
O O14 0.124819 0.115086 0.500000
#
# Coordination Sequence:
#
# PCOD8294404 Si02
#       6
#     8  16  16  16  16  16
#     4  12  24  38  61  86 120 168 215 256 304 376
#     4  10  22  37  58  90 127 170 214 257 307 375
#     4  11  23  41  68  98 126 160 212 268 321 383
#     4   9  20  37  60  91 129 168 207 254 313 378
#     4  11  24  43  63  89 129 167 206 264 319 372
#     4  10  20  39  63  91 131 169 209 263 318 377
#
# _framework density 21.164722999999999
#
# number of rings (size 3 to 8) (size 9 to 14) (size 15 to 20)
#    0.000    1.636    3.636    0.545    2.545    2.909 
#    0.000    2.273    0.000    1.091    0.000    0.000 
#    0.000    0.000    0.000    0.000    0.000    0.000 
#
# Total GULP energy -545374.634469 kJ/mol
# GULP energy per Si atom -12394.878056 kJ/mol
# Density = 2.111655 g / cm^3
# Si number density = 21.164723 Si / 1000 Ang^3
#
#
#
# Elastic Constant Matrix: (Units=GPa)
#
#
# Indices 1 2 3 4 5 6 
#
# 1 123.4997 25.4214 50.1702 0.0000 0.0000 0.0000
# 2 25.4214 91.7148 38.9552 0.0000 0.0000 0.0000
# 3 50.1702 38.9552 98.0034 0.0000 0.0000 0.0000
# 4 0.0000 0.0000 0.0000 35.2362 0.0000 0.0000
# 5 0.0000 0.0000 0.0000 0.0000 20.7868 0.0000
# 6 0.0000 0.0000 0.0000 0.0000 0.0000 12.3928
#
#
#
# Elastic Compliance Matrix: (Units=1/GPa)
#
#
# Indices 1 2 3 4 5 6 
#
# 1 0.010265 -0.000738 -0.004961 0.000000 0.000000 0.000000
# 2 -0.000738 0.013171 -0.004858 0.000000 0.000000 0.000000
# 3 -0.004961 -0.004858 0.014674 0.000000 0.000000 0.000000
# 4 0.000000 0.000000 0.000000 0.028380 0.000000 0.000000
# 5 0.000000 0.000000 0.000000 0.000000 0.048108 0.000000
# 6 0.000000 0.000000 0.000000 0.000000 0.000000 0.080692
#
#
# Mechanical properties :
#
#
# Convention : Reuss Voigt Hill
#
# Bulk Modulus (GPa) = 58.83600 60.25684 59.54642
# Shear Modulus (GPa) = 22.51556 26.92789 24.72172
#
# Velocity S-wave (km/s) = 3.26517 3.57080 3.42140
# Velocity P-wave (km/s) = 6.48649 6.74782 6.61844
#
# Compressibility (1/GPa) = 0.01699640
#
# Stress axis : x y z
#
# Youngs Moduli (GPa) = 97.42253 75.92361 68.14565
#
# Poissons Ratio (x) = 0.05602 0.33810
# Poissons Ratio (y) = 0.07188 0.33103
# Poissons Ratio (z) = 0.48335 0.36881
#
# Static dielectric constant tensor:
#      x y z
#    x 4.039790 0.000000 0.000000 
#    y 0.000000 3.959920 0.000000 
#    z 0.000000 0.000000 3.924930 
# 
# 
# High freq. dielectric constant tensor:
#      x y z
#    x 1.810860 0.000000 0.000000 
#    y 0.000000 1.823440 0.000000 
#    z 0.000000 0.000000 1.836840 
# 
# From -- ./inp_files/25816.got.cif
#   From: 2010.03.12/outbox.cif.g09.slc.cpg/sg72_13_cif.got.tgz:25816.got - 2010.04.16 14:54:00.
