data_PCOD8294761
_publ_section_title
;
Structure prediction by ZEFSAII (Michael W. Deem and Ramdas Pophale) SiO2 
 PCOD8294761
Probable space group: I B A M
;
_chemical_formula_sum "Si O2"
_cell_formula_units_Z 112
_cell_length_a 27.461856
_cell_length_b 11.378127
_cell_length_c 17.468297
_cell_angle_alpha 90.000000
_cell_angle_beta 90.000000
_cell_angle_gamma 90.000000
_cell_volume 5458.222430
_symmetry_space_group_name_H-M "I B A M"
_symmetry_group_IT_number 72
_symmetry_cell_setting 'orthorhombic'
loop_
_space_group_symop_operation_xyz
x,y,z
-x,-y,z
x,-y,1/2-z
-x,y,1/2-z
-x,-y,-z
x,y,-z
-x,y,1/2+z
x,-y,1/2+z
1/2+x,1/2+y,1/2+z
1/2-x,1/2-y,1/2+z
1/2+x,1/2-y,-z
1/2-x,1/2+y,-z
1/2-x,1/2-y,1/2-z
1/2+x,1/2+y,1/2-z
1/2-x,1/2+y,z
1/2+x,1/2-y,z
loop_
_atom_site_type_symbol
_atom_site_label
_atom_site_fract_x
_atom_site_fract_y
_atom_site_fract_z
Si Si1 0.412077 0.316607 0.157813
Si Si2 0.653388 0.510060 0.412280
Si Si3 0.605939 0.705184 0.670830
Si Si4 0.759312 0.837669 0.412092
Si Si5 0.170285 0.574862 0.327498
Si Si6 0.008936 0.865151 0.410158
Si Si7 0.838814 0.652241 0.412894
O O1 0.391495 0.425698 0.109310
O O2 0.409870 0.345003 0.247326
O O3 0.467175 0.290271 0.132427
O O4 0.380516 0.200634 0.142426
O O5 0.646778 0.546681 0.500000
O O6 0.650918 0.627606 0.361265
O O7 0.704561 0.447036 0.398325
O O8 0.623205 0.840682 0.676945
O O9 0.560513 0.688784 0.614317
O O10 0.739872 0.838765 0.500000
O O11 0.717116 0.846191 0.348759
O O12 0.787497 0.716028 0.395389
O O13 0.177548 0.500000 0.250000
O O14 0.165255 0.485903 0.398497
O O15 0.003733 0.848392 0.500000
O O16 0.000000 0.000000 0.385446
O O17 0.854018 0.677704 0.500000
#
# Coordination Sequence:
#
# PCOD8294761 Si02
#       7
#    16  16  16  16  16  16  16
#     4  11  21  41  66  94 130 171 209 271 335 402
#     4  10  21  39  63  97 134 170 218 273 330 393
#     4  12  25  39  65  98 138 170 216 273 336 392
#     4   9  22  41  66  94 125 175 228 272 324 389
#     4  12  26  44  62  93 137 177 222 275 328 390
#     4  11  23  40  67 103 134 164 209 267 332 403
#     4  10  22  43  67  90 126 178 226 268 324 391
#
# _framework density 20.519501999999999
#
# number of rings (size 3 to 8) (size 9 to 14) (size 15 to 20)
#    0.000    1.286    2.857    3.857    2.000    5.714 
#    0.000    0.714    0.000    1.714    0.000    0.000 
#    0.000    0.000    0.000    0.000    0.000    0.000 
#
# Total GULP energy -694570.461076 kJ/mol
# GULP energy per Si atom -12403.043948 kJ/mol
# Density = 2.047280 g / cm^3
# Si number density = 20.519502 Si / 1000 Ang^3
#
#
#
# Elastic Constant Matrix: (Units=GPa)
#
#
# Indices 1 2 3 4 5 6 
#
# 1 95.4221 37.0715 42.0434 0.0000 0.0000 0.0000
# 2 37.0715 88.8304 32.8108 0.0000 0.0000 0.0000
# 3 42.0434 32.8108 106.4052 0.0000 0.0000 0.0000
# 4 0.0000 0.0000 0.0000 30.1746 0.0000 0.0000
# 5 0.0000 0.0000 0.0000 0.0000 28.4153 0.0000
# 6 0.0000 0.0000 0.0000 0.0000 0.0000 20.5111
#
#
#
# Elastic Compliance Matrix: (Units=1/GPa)
#
#
# Indices 1 2 3 4 5 6 
#
# 1 0.014000 -0.004288 -0.004210 0.000000 0.000000 0.000000
# 2 -0.004288 0.014018 -0.002628 0.000000 0.000000 0.000000
# 3 -0.004210 -0.002628 0.011872 0.000000 0.000000 0.000000
# 4 0.000000 0.000000 0.000000 0.033140 0.000000 0.000000
# 5 0.000000 0.000000 0.000000 0.000000 0.035192 0.000000
# 6 0.000000 0.000000 0.000000 0.000000 0.000000 0.048754
#
#
# Mechanical properties :
#
#
# Convention : Reuss Voigt Hill
#
# Bulk Modulus (GPa) = 56.69479 57.16769 56.93124
# Shear Modulus (GPa) = 27.01128 27.73565 27.37347
#
# Velocity S-wave (km/s) = 3.63212 3.68050 3.65639
# Velocity P-wave (km/s) = 6.72900 6.78101 6.75505
#
# Compressibility (1/GPa) = 0.01763830
#
# Stress axis : x y z
#
# Youngs Moduli (GPa) = 71.42644 71.33882 84.23302
#
# Poissons Ratio (x) = 0.30589 0.35460
# Poissons Ratio (y) = 0.30627 0.22138
# Poissons Ratio (z) = 0.30069 0.18749
#
# Static dielectric constant tensor:
#      x y z
#    x 3.693490 0.000000 0.000000 
#    y 0.000000 3.723790 0.000000 
#    z 0.000000 0.000000 3.731740 
# 
# 
# High freq. dielectric constant tensor:
#      x y z
#    x 1.795610 0.000000 0.000000 
#    y 0.000000 1.788760 0.000000 
#    z 0.000000 0.000000 1.813840 
# 
# From -- ./inp_files/26377.got.cif
#   From: 2010.03.12/outbox.cif.g09.slc.cpg/sg72_14_cif.got.tgz:26377.got - 2010.04.16 14:54:00.
