data_PCOD8294238
_publ_section_title
;
Structure prediction by ZEFSAII (Michael W. Deem and Ramdas Pophale) SiO2 
 PCOD8294238
Probable space group: I B A M
;
_chemical_formula_sum "Si O2"
_cell_formula_units_Z 112
_cell_length_a 13.339324
_cell_length_b 13.737893
_cell_length_c 26.543891
_cell_angle_alpha 90.000000
_cell_angle_beta 90.000000
_cell_angle_gamma 90.000000
_cell_volume 4864.279664
_symmetry_space_group_name_H-M "I B A M"
_symmetry_group_IT_number 72
_symmetry_cell_setting 'orthorhombic'
loop_
_space_group_symop_operation_xyz
x,y,z
-x,-y,z
x,-y,1/2-z
-x,y,1/2-z
-x,-y,-z
x,y,-z
-x,y,1/2+z
x,-y,1/2+z
1/2+x,1/2+y,1/2+z
1/2-x,1/2-y,1/2+z
1/2+x,1/2-y,-z
1/2-x,1/2+y,-z
1/2-x,1/2-y,1/2-z
1/2+x,1/2+y,1/2-z
1/2-x,1/2+y,z
1/2+x,1/2-y,z
loop_
_atom_site_type_symbol
_atom_site_label
_atom_site_fract_x
_atom_site_fract_y
_atom_site_fract_z
Si Si1 0.711092 0.659926 0.871149
Si Si2 0.616244 0.523825 0.653558
Si Si3 0.242583 0.174908 0.795495
Si Si4 0.548814 0.104666 0.299700
Si Si5 0.780471 0.892585 0.057423
Si Si6 0.633585 0.177613 0.945920
Si Si7 0.921205 0.312244 0.095006
O O1 0.674008 0.577140 0.832393
O O2 0.746845 0.759084 0.844649
O O3 0.803926 0.616859 0.904050
O O4 0.619156 0.700079 0.906182
O O5 0.500000 0.500000 0.656443
O O6 0.643400 0.608665 0.694347
O O7 0.652162 0.544289 0.596168
O O8 0.250000 0.250000 0.750000
O O9 0.332051 0.096790 0.790387
O O10 0.500000 0.155606 0.250000
O O11 0.532053 0.168531 0.349265
O O12 0.500000 0.000000 0.307454
O O13 0.828236 0.786885 0.057258
O O14 0.665289 0.887726 0.077530
O O15 0.783075 0.935147 0.000000
O O16 0.514145 0.174733 0.941755
O O17 0.659974 0.131540 0.000000
#
# Coordination Sequence:
#
# PCOD8294238 Si02
#       7
#    16  16  16  16  16  16  16
#     4  10  24  41  67  99 141 183 235 300 359 428
#     4  12  25  46  74 103 141 194 244 297 368 438
#     4  11  26  48  70 104 142 182 232 295 364 434
#     4  10  23  39  66 100 129 172 224 282 352 421
#     4  10  21  41  64  99 147 190 243 302 358 434
#     4  10  20  36  65  97 136 191 239 288 359 431
#     4  10  20  40  63  98 142 187 234 298 364 422
#
# _framework density 23.024992000000001
#
# number of rings (size 3 to 8) (size 9 to 14) (size 15 to 20)
#    0.000    1.571    4.286    1.286    4.000    4.286 
#    0.000    0.714    0.000    2.571    0.000    0.000 
#    0.000    0.000    0.000    0.000    0.000    0.000 
#
# Total GULP energy -693789.395134 kJ/mol
# GULP energy per Si atom -12389.096342 kJ/mol
# Density = 2.297259 g / cm^3
# Si number density = 23.024992 Si / 1000 Ang^3
#
#
#
# Elastic Constant Matrix: (Units=GPa)
#
#
# Indices 1 2 3 4 5 6 
#
# 1 172.9442 57.8043 62.1425 0.0000 0.0000 0.0000
# 2 57.8043 91.4196 23.1900 0.0000 0.0000 0.0000
# 3 62.1425 23.1900 110.7900 0.0000 0.0000 0.0000
# 4 0.0000 0.0000 0.0000 23.8114 0.0000 0.0000
# 5 0.0000 0.0000 0.0000 0.0000 32.1730 0.0000
# 6 0.0000 0.0000 0.0000 0.0000 0.0000 30.7965
#
#
#
# Elastic Compliance Matrix: (Units=1/GPa)
#
#
# Indices 1 2 3 4 5 6 
#
# 1 0.008703 -0.004504 -0.003939 0.000000 0.000000 0.000000
# 2 -0.004504 0.013883 -0.000380 0.000000 0.000000 0.000000
# 3 -0.003939 -0.000380 0.011315 0.000000 0.000000 0.000000
# 4 0.000000 0.000000 0.000000 0.041997 0.000000 0.000000
# 5 0.000000 0.000000 0.000000 0.000000 0.031082 0.000000
# 6 0.000000 0.000000 0.000000 0.000000 0.000000 0.032471
#
#
# Mechanical properties :
#
#
# Convention : Reuss Voigt Hill
#
# Bulk Modulus (GPa) = 61.51592 73.49193 67.50393
# Shear Modulus (GPa) = 30.76680 32.82397 31.79539
#
# Velocity S-wave (km/s) = 3.65942 3.77978 3.72009
# Velocity P-wave (km/s) = 6.68058 7.14399 6.91617
#
# Compressibility (1/GPa) = 0.01625595
#
# Stress axis : x y z
#
# Youngs Moduli (GPa) = 114.90626 72.03309 88.37966
#
# Poissons Ratio (x) = 0.32441 0.34810
# Poissons Ratio (y) = 0.51749 0.03356
# Poissons Ratio (z) = 0.45259 0.02735
#
# Static dielectric constant tensor:
#      x y z
#    x 4.351420 0.000000 0.000000 
#    y 0.000000 3.978160 0.000000 
#    z 0.000000 0.000000 4.573890 
# 
# 
# High freq. dielectric constant tensor:
#      x y z
#    x 1.912250 0.000000 0.000000 
#    y 0.000000 1.893890 0.000000 
#    z 0.000000 0.000000 1.910710 
# 
# From -- ./inp_files/51443.got.cif
#   From: 2010.03.12/outbox.cif.g09.slc.cpg/sg72_26_cif.got.tgz:51443.got - 2010.04.16 14:54:00.
