data_PCOD8294171
_publ_section_title
;
Structure prediction by ZEFSAII (Michael W. Deem and Ramdas Pophale) SiO2 
 PCOD8294171
Probable space group: I B A M
;
_chemical_formula_sum "Si O2"
_cell_formula_units_Z 80
_cell_length_a 9.174263
_cell_length_b 16.910480
_cell_length_c 24.640906
_cell_angle_alpha 90.000000
_cell_angle_beta 90.000000
_cell_angle_gamma 90.000000
_cell_volume 3822.819504
_symmetry_space_group_name_H-M "I B A M"
_symmetry_group_IT_number 72
_symmetry_cell_setting 'orthorhombic'
loop_
_space_group_symop_operation_xyz
x,y,z
-x,-y,z
x,-y,1/2-z
-x,y,1/2-z
-x,-y,-z
x,y,-z
-x,y,1/2+z
x,-y,1/2+z
1/2+x,1/2+y,1/2+z
1/2-x,1/2-y,1/2+z
1/2+x,1/2-y,-z
1/2-x,1/2+y,-z
1/2-x,1/2-y,1/2-z
1/2+x,1/2+y,1/2-z
1/2-x,1/2+y,z
1/2+x,1/2-y,z
loop_
_atom_site_type_symbol
_atom_site_label
_atom_site_fract_x
_atom_site_fract_y
_atom_site_fract_z
Si Si1 0.618088 0.226268 0.559567
Si Si2 0.653083 0.636125 0.233183
Si Si3 0.172318 0.642523 0.558741
Si Si4 0.142308 0.302153 0.322589
Si Si5 0.597802 0.924455 0.668397
O O1 0.672121 0.192981 0.500000
O O2 0.667191 0.318311 0.563936
O O3 0.443101 0.215905 0.562847
O O4 0.683737 0.184525 0.613599
O O5 0.500000 0.596698 0.250000
O O6 0.727556 0.660544 0.289199
O O7 0.622957 0.710635 0.193450
O O8 0.752737 0.571615 0.202482
O O9 0.157321 0.599930 0.500000
O O10 0.139835 0.577946 0.604772
O O11 0.987974 0.346089 0.311599
O O12 0.500000 0.000000 0.681020
#
# Coordination Sequence:
#
# PCOD8294171 Si02
#       5
#    16  16  16  16  16
#     4   9  17  30  53  84 116 147 192 246 290 344
#     4  11  22  36  60  84 111 154 208 250 290 354
#     4   9  18  33  56  87 119 154 195 243 299 357
#     4  10  20  36  58  85 117 156 199 242 295 355
#     4  11  23  39  58  86 124 159 195 248 308 360
#
# _framework density 20.926962
#
# number of rings (size 3 to 8) (size 9 to 14) (size 15 to 20)
#    0.000    2.000    2.000    3.000    2.800    2.000 
#    0.000    2.000    0.000    0.000    0.000    0.000 
#    0.000   22.400    0.000    0.000    0.000    0.000 
#
# Total GULP energy -495551.269261 kJ/mol
# GULP energy per Si atom -12388.781732 kJ/mol
# Density = 2.087933 g / cm^3
# Si number density = 20.926962 Si / 1000 Ang^3
#
#
#
# Elastic Constant Matrix: (Units=GPa)
#
#
# Indices 1 2 3 4 5 6 
#
# 1 112.3556 33.6553 64.1665 0.0000 0.0000 0.0000
# 2 33.6553 55.8500 28.8841 0.0000 0.0000 0.0000
# 3 64.1665 28.8841 164.4949 0.0000 0.0000 0.0000
# 4 0.0000 0.0000 0.0000 8.7183 0.0000 0.0000
# 5 0.0000 0.0000 0.0000 0.0000 27.6959 0.0000
# 6 0.0000 0.0000 0.0000 0.0000 0.0000 27.4132
#
#
#
# Elastic Compliance Matrix: (Units=1/GPa)
#
#
# Indices 1 2 3 4 5 6 
#
# 1 0.012911 -0.005692 -0.004037 0.000000 0.000000 0.000000
# 2 -0.005692 0.022203 -0.001678 0.000000 0.000000 0.000000
# 3 -0.004037 -0.001678 0.007949 0.000000 0.000000 0.000000
# 4 0.000000 0.000000 0.000000 0.114701 0.000000 0.000000
# 5 0.000000 0.000000 0.000000 0.000000 0.036106 0.000000
# 6 0.000000 0.000000 0.000000 0.000000 0.000000 0.036479
#
#
# Mechanical properties :
#
#
# Convention : Reuss Voigt Hill
#
# Bulk Modulus (GPa) = 49.38771 65.12356 57.25564
# Shear Modulus (GPa) = 19.23720 26.49846 22.86783
#
# Velocity S-wave (km/s) = 3.03521 3.56228 3.30926
# Velocity P-wave (km/s) = 5.99455 6.93591 6.48234
#
# Compressibility (1/GPa) = 0.02024795
#
# Stress axis : x y z
#
# Youngs Moduli (GPa) = 77.45449 45.03837 125.80899
#
# Poissons Ratio (x) = 0.25638 0.50786
# Poissons Ratio (y) = 0.44090 0.21114
# Poissons Ratio (z) = 0.31266 0.07558
#
# Static dielectric constant tensor:
#      x y z
#    x 3.879400 0.000000 0.000000 
#    y 0.000000 3.165160 0.000000 
#    z 0.000000 0.000000 4.301600 
# 
# 
# High freq. dielectric constant tensor:
#      x y z
#    x 1.815340 0.000000 0.000000 
#    y 0.000000 1.747320 0.000000 
#    z 0.000000 0.000000 1.855190 
# 
# From -- ./inp_files/47207.got.cif
#   From: 2010.03.12/outbox.cif.g09.slc.cpg/sg72_24_cif.got.tgz:47207.got - 2010.04.16 14:54:00.
