data_PCOD8294180
_publ_section_title
;
Structure prediction by ZEFSAII (Michael W. Deem and Ramdas Pophale) SiO2 
 PCOD8294180
Probable space group: I B A M
;
_chemical_formula_sum "Si O2"
_cell_formula_units_Z 112
_cell_length_a 27.292373
_cell_length_b 12.263717
_cell_length_c 16.582544
_cell_angle_alpha 90.000000
_cell_angle_beta 90.000000
_cell_angle_gamma 90.000000
_cell_volume 5550.275956
_symmetry_space_group_name_H-M "I B A M"
_symmetry_group_IT_number 72
_symmetry_cell_setting 'orthorhombic'
loop_
_space_group_symop_operation_xyz
x,y,z
-x,-y,z
x,-y,1/2-z
-x,y,1/2-z
-x,-y,-z
x,y,-z
-x,y,1/2+z
x,-y,1/2+z
1/2+x,1/2+y,1/2+z
1/2-x,1/2-y,1/2+z
1/2+x,1/2-y,-z
1/2-x,1/2+y,-z
1/2-x,1/2-y,1/2-z
1/2+x,1/2+y,1/2-z
1/2-x,1/2+y,z
1/2+x,1/2-y,z
loop_
_atom_site_type_symbol
_atom_site_label
_atom_site_fract_x
_atom_site_fract_y
_atom_site_fract_z
Si Si1 0.877550 0.591385 0.813427
Si Si2 0.702595 0.203952 0.707338
Si Si3 0.294728 0.010197 0.091884
Si Si4 0.935520 0.228788 0.402969
Si Si5 0.030065 0.889952 0.087842
Si Si6 0.697740 0.387459 0.410155
Si Si7 0.615091 0.511199 0.341937
O O1 0.898061 0.500000 0.750000
O O2 0.839425 0.670891 0.769460
O O3 0.848649 0.533070 0.886172
O O4 0.920944 0.660986 0.855069
O O5 0.750000 0.250000 0.750000
O O6 0.720839 0.104647 0.652675
O O7 0.679127 0.295141 0.650358
O O8 0.254611 0.915850 0.104475
O O9 0.294767 0.052512 0.000000
O O10 0.927843 0.239521 0.500000
O O11 0.903746 0.129203 0.368456
O O12 0.992932 0.205313 0.382414
O O13 0.075087 0.913556 0.147144
O O14 0.051462 0.857986 0.000000
O O15 0.000000 0.000000 0.078770
O O16 0.690679 0.343147 0.500000
O O17 0.663118 0.492172 0.396276
O O18 0.631212 0.500000 0.250000
#
# Coordination Sequence:
#
# PCOD8294180 Si02
#       7
#    16  16  16  16  16  16  16
#     4  10  21  37  57  83 115 154 201 257 302 343
#     4  11  22  37  54  74 114 151 194 245 302 349
#     4  10  22  37  54  77 110 155 203 247 292 349
#     4  10  20  36  59  86 118 159 201 241 293 360
#     4   8  16  33  53  79 117 152 183 228 288 353
#     4  11  23  36  54  81 114 155 201 239 285 354
#     4  11  22  33  55  88 127 156 191 235 298 358
#
# _framework density 20.179175999999998
#
# number of rings (size 3 to 8) (size 9 to 14) (size 15 to 20)
#    0.000    1.857    1.429    3.857    4.000    2.571 
#    0.000    0.000    0.000    0.000    0.000   17.000 
#    0.000   38.857    0.000    0.000    0.000    0.000 
#
# Total GULP energy -694165.710596 kJ/mol
# GULP energy per Si atom -12395.816261 kJ/mol
# Density = 2.013325 g / cm^3
# Si number density = 20.179176 Si / 1000 Ang^3
#
#
#
# Elastic Constant Matrix: (Units=GPa)
#
#
# Indices 1 2 3 4 5 6 
#
# 1 63.1785 31.0859 25.9625 0.0000 0.0000 0.0000
# 2 31.0859 86.4784 42.3125 0.0000 0.0000 0.0000
# 3 25.9625 42.3125 103.2111 0.0000 0.0000 0.0000
# 4 0.0000 0.0000 0.0000 31.4784 0.0000 0.0000
# 5 0.0000 0.0000 0.0000 0.0000 24.3197 0.0000
# 6 0.0000 0.0000 0.0000 0.0000 0.0000 32.7398
#
#
#
# Elastic Compliance Matrix: (Units=1/GPa)
#
#
# Indices 1 2 3 4 5 6 
#
# 1 0.019762 -0.005844 -0.002575 0.000000 0.000000 0.000000
# 2 -0.005844 0.016193 -0.005169 0.000000 0.000000 0.000000
# 3 -0.002575 -0.005169 0.012456 0.000000 0.000000 0.000000
# 4 0.000000 0.000000 0.000000 0.031768 0.000000 0.000000
# 5 0.000000 0.000000 0.000000 0.000000 0.041119 0.000000
# 6 0.000000 0.000000 0.000000 0.000000 0.000000 0.030544
#
#
# Mechanical properties :
#
#
# Convention : Reuss Voigt Hill
#
# Bulk Modulus (GPa) = 47.09125 50.17663 48.63394
# Shear Modulus (GPa) = 26.86809 27.94139 27.40474
#
# Velocity S-wave (km/s) = 3.65290 3.72515 3.68920
# Velocity P-wave (km/s) = 6.41707 6.58952 6.50387
#
# Compressibility (1/GPa) = 0.02123537
#
# Stress axis : x y z
#
# Youngs Moduli (GPa) = 50.60295 61.75498 80.28500
#
# Poissons Ratio (x) = 0.36087 0.20676
# Poissons Ratio (y) = 0.29570 0.41496
# Poissons Ratio (z) = 0.13032 0.31919
#
# Static dielectric constant tensor:
#      x y z
#    x 3.578520 0.000000 0.000000 
#    y 0.000000 3.620780 0.000000 
#    z 0.000000 0.000000 4.096070 
# 
# 
# High freq. dielectric constant tensor:
#      x y z
#    x 1.770550 0.000000 0.000000 
#    y 0.000000 1.769030 0.000000 
#    z 0.000000 0.000000 1.803250 
# 
# From -- ./inp_files/26399.got.cif
#   From: 2010.03.12/outbox.cif.g09.slc.cpg/sg72_14_cif.got.tgz:26399.got - 2010.04.16 14:54:00.
