data_PCOD8294672
_publ_section_title
;
Structure prediction by ZEFSAII (Michael W. Deem and Ramdas Pophale) SiO2 
 PCOD8294672
Probable space group: I B A M
;
_chemical_formula_sum "Si O2"
_cell_formula_units_Z 56
_cell_length_a 24.053016
_cell_length_b 5.128088
_cell_length_c 20.907211
_cell_angle_alpha 90.000000
_cell_angle_beta 90.000000
_cell_angle_gamma 90.000000
_cell_volume 2578.820487
_symmetry_space_group_name_H-M "I B A M"
_symmetry_group_IT_number 72
_symmetry_cell_setting 'orthorhombic'
loop_
_space_group_symop_operation_xyz
x,y,z
-x,-y,z
x,-y,1/2-z
-x,y,1/2-z
-x,-y,-z
x,y,-z
-x,y,1/2+z
x,-y,1/2+z
1/2+x,1/2+y,1/2+z
1/2-x,1/2-y,1/2+z
1/2+x,1/2-y,-z
1/2-x,1/2+y,-z
1/2-x,1/2-y,1/2-z
1/2+x,1/2+y,1/2-z
1/2-x,1/2+y,z
1/2+x,1/2-y,z
loop_
_atom_site_type_symbol
_atom_site_label
_atom_site_fract_x
_atom_site_fract_y
_atom_site_fract_z
Si Si1 0.627503 0.956977 0.609086
Si Si2 0.213737 0.501035 0.000000
Si Si3 0.437752 0.442452 0.925746
Si Si4 0.725729 0.793745 0.320953
O O1 0.675672 0.043279 0.561478
O O2 0.595806 0.706903 0.582877
O O3 0.660433 0.877740 0.675025
O O4 0.586202 0.203653 0.617220
O O5 0.262894 0.709375 0.000000
O O6 0.500000 0.500000 0.902185
O O7 0.436706 0.355126 0.000000
O O8 0.750000 0.750000 0.250000
O O9 0.736380 0.516875 0.355884
#
# Coordination Sequence:
#
# PCOD8294672 Si02
#       4
#    16   8  16  16
#     4  12  21  37  57  85 120 164 203 248 309 358
#     4  12  22  32  49  80 121 156 192 242 294 364
#     4  11  22  38  57  84 121 164 210 251 299 360
#     4  10  21  38  59  86 117 154 203 248 303 370
#
# _framework density 21.715354999999999
#
# number of rings (size 3 to 8) (size 9 to 14) (size 15 to 20)
#    0.000    0.857    2.857    6.000    0.000    2.286 
#    0.000    0.000    0.000    0.000    0.000   60.000 
#    0.000    0.000    0.000    0.000    0.000    0.000 
#
# Total GULP energy -346940.992102 kJ/mol
# GULP energy per Si atom -12390.749718 kJ/mol
# Density = 2.166593 g / cm^3
# Si number density = 21.715355 Si / 1000 Ang^3
#
#
#
# Elastic Constant Matrix: (Units=GPa)
#
#
# Indices 1 2 3 4 5 6 
#
# 1 144.0908 59.1881 44.3907 0.0000 0.0000 0.0000
# 2 59.1881 183.8439 15.0852 0.0000 0.0000 0.0000
# 3 44.3907 15.0852 52.8968 0.0000 0.0000 0.0000
# 4 0.0000 0.0000 0.0000 17.2457 0.0000 0.0000
# 5 0.0000 0.0000 0.0000 0.0000 27.9630 0.0000
# 6 0.0000 0.0000 0.0000 0.0000 0.0000 49.1617
#
#
#
# Elastic Compliance Matrix: (Units=1/GPa)
#
#
# Indices 1 2 3 4 5 6 
#
# 1 0.010551 -0.002734 -0.008074 0.000000 0.000000 0.000000
# 2 -0.002734 0.006278 0.000504 0.000000 0.000000 0.000000
# 3 -0.008074 0.000504 0.025537 0.000000 0.000000 0.000000
# 4 0.000000 0.000000 0.000000 0.057986 0.000000 0.000000
# 5 0.000000 0.000000 0.000000 0.000000 0.035762 0.000000
# 6 0.000000 0.000000 0.000000 0.000000 0.000000 0.020341
#
#
# Mechanical properties :
#
#
# Convention : Reuss Voigt Hill
#
# Bulk Modulus (GPa) = 45.96229 68.68441 57.32335
# Shear Modulus (GPa) = 27.12740 36.35189 31.73964
#
# Velocity S-wave (km/s) = 3.53827 4.09591 3.82726
# Velocity P-wave (km/s) = 6.15664 7.35301 6.78126
#
# Compressibility (1/GPa) = 0.02175697
#
# Stress axis : x y z
#
# Youngs Moduli (GPa) = 94.78033 159.27840 39.15899
#
# Poissons Ratio (x) = 0.43551 0.31618
# Poissons Ratio (y) = 0.25915 -0.01974
# Poissons Ratio (z) = 0.76529 -0.08029
#
# Static dielectric constant tensor:
#      x y z
#    x 4.174410 0.000000 0.000000 
#    y 0.000000 1.929700 0.000000 
#    z 0.000000 0.000000 3.753760 
# 
# 
# High freq. dielectric constant tensor:
#      x y z
#    x 1.852230 0.000000 0.000000 
#    y 0.000000 1.890840 0.000000 
#    z 0.000000 0.000000 1.810350 
# 
# From -- ./inp_files/40001.got.cif
#   From: 2010.03.12/outbox.cif.g09.slc.cpg/sg72_21_cif.got.tgz:40001.got - 2010.04.16 14:54:00.
