data_PCOD8294545
_publ_section_title
;
Structure prediction by ZEFSAII (Michael W. Deem and Ramdas Pophale) SiO2 
 PCOD8294545
Probable space group: I B A M
;
_chemical_formula_sum "Si O2"
_cell_formula_units_Z 128
_cell_length_a 17.801339
_cell_length_b 15.580235
_cell_length_c 23.438141
_cell_angle_alpha 90.000000
_cell_angle_beta 90.000000
_cell_angle_gamma 90.000000
_cell_volume 6500.546021
_symmetry_space_group_name_H-M "I B A M"
_symmetry_group_IT_number 72
_symmetry_cell_setting 'orthorhombic'
loop_
_space_group_symop_operation_xyz
x,y,z
-x,-y,z
x,-y,1/2-z
-x,y,1/2-z
-x,-y,-z
x,y,-z
-x,y,1/2+z
x,-y,1/2+z
1/2+x,1/2+y,1/2+z
1/2-x,1/2-y,1/2+z
1/2+x,1/2-y,-z
1/2-x,1/2+y,-z
1/2-x,1/2-y,1/2-z
1/2+x,1/2+y,1/2-z
1/2-x,1/2+y,z
1/2+x,1/2-y,z
loop_
_atom_site_type_symbol
_atom_site_label
_atom_site_fract_x
_atom_site_fract_y
_atom_site_fract_z
Si Si1 0.084127 0.181344 0.241157
Si Si2 0.615325 0.776636 0.933727
Si Si3 0.180786 0.404051 0.642976
Si Si4 0.976057 0.402813 0.433769
Si Si5 0.167890 0.866324 0.854841
Si Si6 0.162768 0.591827 0.360989
Si Si7 0.668804 0.544144 0.310929
Si Si8 0.584883 0.124709 0.750553
O O1 0.140238 0.171062 0.294644
O O2 0.105914 0.117510 0.189660
O O3 0.086642 0.279765 0.222717
O O4 0.000000 0.150894 0.250000
O O5 0.682500 0.833456 0.907199
O O6 0.539872 0.831534 0.921552
O O7 0.620231 0.682869 0.903754
O O8 0.628770 0.761448 0.000000
O O9 0.173599 0.496769 0.613289
O O10 0.257718 0.400479 0.676867
O O11 0.113695 0.379941 0.686231
O O12 0.954598 0.404865 0.500000
O O13 0.903757 0.367275 0.398893
O O14 0.000000 0.500000 0.414339
O O15 0.258923 0.854523 0.862195
O O16 0.150774 0.969083 0.857009
O O17 0.136242 0.572838 0.295464
O O18 0.679096 0.500000 0.250000
O O19 0.500000 0.089041 0.750000
#
# Coordination Sequence:
#
# PCOD8294545 Si02
#       8
#    16  16  16  16  16  16  16  16
#     4  10  21  36  59  88 120 156 201 244 298 368
#     4  11  23  39  61  85 115 159 204 248 301 357
#     4  11  20  36  55  82 125 156 193 236 299 368
#     4  10  21  39  62  88 119 160 206 251 301 364
#     4  10  22  40  57  86 119 153 203 249 302 355
#     4  11  23  35  59  89 121 163 195 246 304 367
#     4   9  20  37  57  84 114 156 195 238 298 362
#     4  11  22  31  52  91 126 153 191 240 300 371
#
# _framework density 19.690653999999999
#
# number of rings (size 3 to 8) (size 9 to 14) (size 15 to 20)
#    0.000    1.625    2.500    3.375    3.500    4.250 
#    0.000    1.875    0.000    0.000    0.000    1.750 
#    0.000    0.000    0.000    0.000    0.000    0.000 
#
# Total GULP energy -793070.620707 kJ/mol
# GULP energy per Si atom -12391.728449 kJ/mol
# Density = 1.964584 g / cm^3
# Si number density = 19.690654 Si / 1000 Ang^3
#
#
#
# Elastic Constant Matrix: (Units=GPa)
#
#
# Indices 1 2 3 4 5 6 
#
# 1 107.0553 44.2319 26.9869 0.0000 0.0000 0.0000
# 2 44.2319 98.1793 33.9363 0.0000 0.0000 0.0000
# 3 26.9869 33.9363 75.7102 0.0000 0.0000 0.0000
# 4 0.0000 0.0000 0.0000 27.7867 0.0000 0.0000
# 5 0.0000 0.0000 0.0000 0.0000 23.1483 0.0000
# 6 0.0000 0.0000 0.0000 0.0000 0.0000 20.3812
#
#
#
# Elastic Compliance Matrix: (Units=1/GPa)
#
#
# Indices 1 2 3 4 5 6 
#
# 1 0.011766 -0.004557 -0.002151 0.000000 0.000000 0.000000
# 2 -0.004557 0.013818 -0.004569 0.000000 0.000000 0.000000
# 3 -0.002151 -0.004569 0.016023 0.000000 0.000000 0.000000
# 4 0.000000 0.000000 0.000000 0.035988 0.000000 0.000000
# 5 0.000000 0.000000 0.000000 0.000000 0.043200 0.000000
# 6 0.000000 0.000000 0.000000 0.000000 0.000000 0.049065
#
#
# Mechanical properties :
#
#
# Convention : Reuss Voigt Hill
#
# Bulk Modulus (GPa) = 52.48904 54.58389 53.53646
# Shear Modulus (GPa) = 25.15512 25.98258 25.56885
#
# Velocity S-wave (km/s) = 3.57811 3.63649 3.60742
# Velocity P-wave (km/s) = 6.61704 6.73891 6.67825
#
# Compressibility (1/GPa) = 0.01905160
#
# Stress axis : x y z
#
# Youngs Moduli (GPa) = 84.98909 72.36923 62.40933
#
# Poissons Ratio (x) = 0.32981 0.13426
# Poissons Ratio (y) = 0.38732 0.28517
# Poissons Ratio (z) = 0.18284 0.33068
#
# Static dielectric constant tensor:
#      x y z
#    x 3.691030 0.000000 0.000000 
#    y 0.000000 3.867210 0.000000 
#    z 0.000000 0.000000 3.406350 
# 
# 
# High freq. dielectric constant tensor:
#      x y z
#    x 1.766030 0.000000 0.000000 
#    y 0.000000 1.772850 0.000000 
#    z 0.000000 0.000000 1.737120 
# 
# From -- ./inp_files/45076.got.cif
#   From: 2010.03.12/outbox.cif.g09.slc.cpg/sg72_23_cif.got.tgz:45076.got - 2010.04.16 14:54:00.
