data_PCOD8294794
_publ_section_title
;
Structure prediction by ZEFSAII (Michael W. Deem and Ramdas Pophale) SiO2 
 PCOD8294794
Probable space group: I B A M
;
_chemical_formula_sum "Si O2"
_cell_formula_units_Z 88
_cell_length_a 15.655435
_cell_length_b 11.051569
_cell_length_c 23.759873
_cell_angle_alpha 90.000000
_cell_angle_beta 90.000000
_cell_angle_gamma 90.000000
_cell_volume 4110.864801
_symmetry_space_group_name_H-M "I B A M"
_symmetry_group_IT_number 72
_symmetry_cell_setting 'orthorhombic'
loop_
_space_group_symop_operation_xyz
x,y,z
-x,-y,z
x,-y,1/2-z
-x,y,1/2-z
-x,-y,-z
x,y,-z
-x,y,1/2+z
x,-y,1/2+z
1/2+x,1/2+y,1/2+z
1/2-x,1/2-y,1/2+z
1/2+x,1/2-y,-z
1/2-x,1/2+y,-z
1/2-x,1/2-y,1/2-z
1/2+x,1/2+y,1/2-z
1/2-x,1/2+y,z
1/2+x,1/2-y,z
loop_
_atom_site_type_symbol
_atom_site_label
_atom_site_fract_x
_atom_site_fract_y
_atom_site_fract_z
Si Si1 0.000000 0.731931 0.750000
Si Si2 0.524348 0.252411 0.435048
Si Si3 0.712702 0.805654 0.936861
Si Si4 0.429611 0.591467 0.664591
Si Si5 0.744166 0.452297 0.621495
Si Si6 0.570980 0.901482 0.350846
O O1 0.066353 0.800178 0.790904
O O2 0.062167 0.655992 0.710484
O O3 0.499847 0.282455 0.500000
O O4 0.610373 0.170344 0.432855
O O5 0.546465 0.373393 0.399879
O O6 0.443805 0.189989 0.403659
O O7 0.737738 0.679970 0.906950
O O8 0.761766 0.926601 0.916450
O O9 0.742638 0.785740 0.000000
O O10 0.500000 0.500000 0.687699
O O11 0.334245 0.535935 0.665568
O O12 0.835389 0.458466 0.651299
O O13 0.500000 0.000000 0.359983
#
# Coordination Sequence:
#
# PCOD8294794 Si02
#       6
#     8  16  16  16  16  16
#     4  10  24  44  68  90 126 172 222 286 336 390
#     4   9  20  38  63  94 134 172 214 269 322 389
#     4  10  21  40  62  97 138 177 220 263 320 395
#     4  10  23  44  64  93 130 172 225 274 332 398
#     4  11  24  40  67  96 134 175 219 273 333 394
#     4  11  22  42  65  96 131 169 225 272 332 396
#
# _framework density 21.406687000000002
#
# number of rings (size 3 to 8) (size 9 to 14) (size 15 to 20)
#    0.000    1.818    1.818    1.091    5.091    3.636 
#    0.000    3.636    0.000    0.000    0.000    0.000 
#    0.000    0.000    0.000    0.000    0.000    0.000 
#
# Total GULP energy -545208.511718 kJ/mol
# GULP energy per Si atom -12391.102539 kJ/mol
# Density = 2.135796 g / cm^3
# Si number density = 21.406687 Si / 1000 Ang^3
#
#
#
# Elastic Constant Matrix: (Units=GPa)
#
#
# Indices 1 2 3 4 5 6 
#
# 1 125.8104 24.1772 12.9906 0.0000 0.0000 0.0000
# 2 24.1772 94.4237 17.8970 0.0000 0.0000 0.0000
# 3 12.9906 17.8970 107.9180 0.0000 0.0000 0.0000
# 4 0.0000 0.0000 0.0000 22.5555 0.0000 0.0000
# 5 0.0000 0.0000 0.0000 0.0000 11.4599 0.0000
# 6 0.0000 0.0000 0.0000 0.0000 0.0000 27.1056
#
#
#
# Elastic Compliance Matrix: (Units=1/GPa)
#
#
# Indices 1 2 3 4 5 6 
#
# 1 0.008407 -0.002025 -0.000676 0.000000 0.000000 0.000000
# 2 -0.002025 0.011422 -0.001650 0.000000 0.000000 0.000000
# 3 -0.000676 -0.001650 0.009621 0.000000 0.000000 0.000000
# 4 0.000000 0.000000 0.000000 0.044335 0.000000 0.000000
# 5 0.000000 0.000000 0.000000 0.000000 0.087260 0.000000
# 6 0.000000 0.000000 0.000000 0.000000 0.000000 0.036893
#
#
# Mechanical properties :
#
#
# Convention : Reuss Voigt Hill
#
# Bulk Modulus (GPa) = 48.19747 48.69796 48.44772
# Shear Modulus (GPa) = 23.41291 30.43002 26.92146
#
# Velocity S-wave (km/s) = 3.31073 3.77439 3.55014
# Velocity P-wave (km/s) = 6.09743 6.46476 6.28378
#
# Compressibility (1/GPa) = 0.02074798
#
# Stress axis : x y z
#
# Youngs Moduli (GPa) = 118.94344 87.55209 103.93479
#
# Poissons Ratio (x) = 0.17725 0.07029
# Poissons Ratio (y) = 0.24080 0.17154
# Poissons Ratio (z) = 0.08044 0.14450
#
# Static dielectric constant tensor:
#      x y z
#    x 3.575680 0.000000 0.000000 
#    y 0.000000 3.888780 0.000000 
#    z 0.000000 0.000000 3.773280 
# 
# 
# High freq. dielectric constant tensor:
#      x y z
#    x 1.838020 0.000000 0.000000 
#    y 0.000000 1.838530 0.000000 
#    z 0.000000 0.000000 1.834430 
# 
# From -- ./inp_files/44164.got.cif
#   From: 2010.03.12/outbox.cif.g09.slc.cpg/sg72_23_cif.got.tgz:44164.got - 2010.04.16 14:54:00.
