data_PCOD8294161
_publ_section_title
;
Structure prediction by ZEFSAII (Michael W. Deem and Ramdas Pophale) SiO2 
 PCOD8294161
Probable space group: I B A M
;
_chemical_formula_sum "Si O2"
_cell_formula_units_Z 96
_cell_length_a 14.189880
_cell_length_b 22.731929
_cell_length_c 13.276503
_cell_angle_alpha 90.000000
_cell_angle_beta 90.000000
_cell_angle_gamma 90.000000
_cell_volume 4282.513213
_symmetry_space_group_name_H-M "I B A M"
_symmetry_group_IT_number 72
_symmetry_cell_setting 'orthorhombic'
loop_
_space_group_symop_operation_xyz
x,y,z
-x,-y,z
x,-y,1/2-z
-x,y,1/2-z
-x,-y,-z
x,y,-z
-x,y,1/2+z
x,-y,1/2+z
1/2+x,1/2+y,1/2+z
1/2-x,1/2-y,1/2+z
1/2+x,1/2-y,-z
1/2-x,1/2+y,-z
1/2-x,1/2-y,1/2-z
1/2+x,1/2+y,1/2-z
1/2-x,1/2+y,z
1/2+x,1/2-y,z
loop_
_atom_site_type_symbol
_atom_site_label
_atom_site_fract_x
_atom_site_fract_y
_atom_site_fract_z
Si Si1 0.248224 0.282545 0.381272
Si Si2 0.650102 0.336309 0.617749
Si Si3 0.663569 0.565521 0.271689
Si Si4 0.940483 0.160456 0.617933
Si Si5 0.032234 0.434877 0.886475
Si Si6 0.146477 0.390834 0.300250
O O1 0.231268 0.294811 0.500000
O O2 0.221328 0.216020 0.352402
O O3 0.358012 0.293601 0.351317
O O4 0.183514 0.324379 0.312617
O O5 0.651693 0.348336 0.500000
O O6 0.682292 0.396455 0.670362
O O7 0.543985 0.319463 0.656528
O O8 0.628819 0.500000 0.250000
O O9 0.583052 0.595851 0.338665
O O10 0.765860 0.565471 0.326971
O O11 0.944932 0.153243 0.500000
O O12 0.108943 0.406413 0.812056
O O13 0.000000 0.500000 0.852607
O O14 0.936277 0.397354 0.881453
O O15 0.072850 0.433174 0.000000
#
# Coordination Sequence:
#
# PCOD8294161 Si02
#       6
#    16  16  16  16  16  16
#     4   9  19  39  63  87 120 159 201 251 308 370
#     4  10  22  41  62  90 125 158 203 258 312 368
#     4  11  23  39  60  87 120 159 208 257 306 364
#     4   9  20  39  62  87 119 161 201 247 308 367
#     4  10  20  36  57  85 124 164 205 254 306 364
#     4  10  20  37  59  86 119 160 207 251 308 370
#
# _framework density 22.416743
#
# number of rings (size 3 to 8) (size 9 to 14) (size 15 to 20)
#    0.000    2.167    0.000    3.000    0.000    6.000 
#   12.000    1.667    0.000    0.000    0.000    0.000 
#    0.000    0.000    0.000    0.000    0.000    0.000 
#
# Total GULP energy -595002.457053 kJ/mol
# GULP energy per Si atom -12395.884522 kJ/mol
# Density = 2.236572 g / cm^3
# Si number density = 22.416743 Si / 1000 Ang^3
#
#
#
# Elastic Constant Matrix: (Units=GPa)
#
#
# Indices 1 2 3 4 5 6 
#
# 1 114.7449 56.2790 21.3495 0.0000 0.0000 0.0000
# 2 56.2790 142.6277 32.7808 0.0001 0.0001 0.0000
# 3 21.3495 32.7808 34.8976 0.0002 0.0001 0.0000
# 4 0.0000 0.0001 0.0002 33.6857 0.0000 0.0000
# 5 0.0000 0.0001 0.0001 0.0000 20.9921 0.0000
# 6 0.0000 0.0000 0.0000 0.0000 0.0000 19.2362
#
#
#
# Elastic Compliance Matrix: (Units=1/GPa)
#
#
# Indices 1 2 3 4 5 6 
#
# 1 0.011117 -0.003601 -0.003419 0.000000 0.000000 0.000000
# 2 -0.003601 0.010108 -0.007292 0.000000 0.000000 0.000000
# 3 -0.003419 -0.007292 0.037596 0.000000 0.000000 0.000000
# 4 0.000000 0.000000 0.000000 0.029686 0.000000 0.000000
# 5 0.000000 0.000000 0.000000 0.000000 0.047637 0.000000
# 6 0.000000 0.000000 0.000000 0.000000 0.000000 0.051985
#
#
# Mechanical properties :
#
#
# Convention : Reuss Voigt Hill
#
# Bulk Modulus (GPa) = 33.11433 57.00988 45.06211
# Shear Modulus (GPa) = 22.04396 26.90687 24.47542
#
# Velocity S-wave (km/s) = 3.13928 3.46830 3.30788
# Velocity P-wave (km/s) = 5.28623 6.44405 5.89364
#
# Compressibility (1/GPa) = 0.03019840
#
# Stress axis : x y z
#
# Youngs Moduli (GPa) = 89.95033 98.93044 26.59828
#
# Poissons Ratio (x) = 0.35625 0.09093
# Poissons Ratio (y) = 0.32391 0.19395
# Poissons Ratio (z) = 0.30751 0.72140
#
# Static dielectric constant tensor:
#      x y z
#    x 4.472150 0.000000 0.000000 
#    y 0.000000 3.762370 0.000000 
#    z 0.000000 0.000000 4.154750 
# 
# 
# High freq. dielectric constant tensor:
#      x y z
#    x 1.896850 0.000000 0.000000 
#    y 0.000000 1.858140 0.000000 
#    z 0.000000 0.000000 1.897130 
# 
# From -- ./inp_files/21820.got.cif
#   From: 2010.03.12/outbox.cif.g09.slc.cpg/sg72_11_cif.got.tgz:21820.got - 2010.04.16 14:54:00.
