data_PCOD8294921
_publ_section_title
;
Structure prediction by ZEFSAII (Michael W. Deem and Ramdas Pophale) SiO2 
 PCOD8294921
Probable space group: I B A M
;
_chemical_formula_sum "Si O2"
_cell_formula_units_Z 80
_cell_length_a 13.699925
_cell_length_b 13.666222
_cell_length_c 21.650926
_cell_angle_alpha 90.000000
_cell_angle_beta 90.000000
_cell_angle_gamma 90.000000
_cell_volume 4053.620957
_symmetry_space_group_name_H-M "I B A M"
_symmetry_group_IT_number 72
_symmetry_cell_setting 'orthorhombic'
loop_
_space_group_symop_operation_xyz
x,y,z
-x,-y,z
x,-y,1/2-z
-x,y,1/2-z
-x,-y,-z
x,y,-z
-x,y,1/2+z
x,-y,1/2+z
1/2+x,1/2+y,1/2+z
1/2-x,1/2-y,1/2+z
1/2+x,1/2-y,-z
1/2-x,1/2+y,-z
1/2-x,1/2-y,1/2-z
1/2+x,1/2+y,1/2-z
1/2-x,1/2+y,z
1/2+x,1/2-y,z
loop_
_atom_site_type_symbol
_atom_site_label
_atom_site_fract_x
_atom_site_fract_y
_atom_site_fract_z
Si Si1 0.237335 0.083301 0.569936
Si Si2 0.583075 0.256458 0.570216
Si Si3 0.273634 0.879610 0.372154
Si Si4 0.388864 0.884183 0.249492
Si Si5 0.877963 0.278085 0.625880
O O1 0.226467 0.044184 0.500000
O O2 0.140032 0.143886 0.589655
O O3 0.330449 0.155940 0.571853
O O4 0.254970 0.993937 0.616789
O O5 0.545710 0.264643 0.500000
O O6 0.656810 0.164558 0.574628
O O7 0.492714 0.236412 0.615564
O O8 0.326340 0.850857 0.308149
O O9 0.167849 0.829735 0.372974
O O10 0.500000 0.847221 0.250000
O O11 0.346380 0.835461 0.187944
O O12 0.383932 0.000000 0.250000
#
# Coordination Sequence:
#
# PCOD8294921 Si02
#       5
#    16  16  16  16  16
#     4  10  22  39  60  90 125 160 201 247 301 366
#     4  10  22  39  60  90 125 160 201 247 301 366
#     4  11  22  39  62  87 120 160 202 250 304 361
#     4  11  21  38  62  88 117 153 196 254 310 356
#     4  11  22  39  62  87 120 160 202 250 304 361
#
# _framework density 19.735441000000002
#
# number of rings (size 3 to 8) (size 9 to 14) (size 15 to 20)
#    0.000    1.400    4.000    1.800    0.000    4.000 
#    0.000    4.000    0.000    0.000    0.000    0.000 
#    0.000    0.000    0.000    0.000    0.000    0.000 
#
# Total GULP energy -495894.788213 kJ/mol
# GULP energy per Si atom -12397.369705 kJ/mol
# Density = 1.969052 g / cm^3
# Si number density = 19.735441 Si / 1000 Ang^3
#
#
#
# Elastic Constant Matrix: (Units=GPa)
#
#
# Indices 1 2 3 4 5 6 
#
# 1 105.5969 55.6310 31.4142 0.0000 0.0000 0.0000
# 2 55.6310 111.9956 35.1173 0.0000 0.0000 0.0000
# 3 31.4142 35.1173 90.3460 0.0000 0.0000 0.0000
# 4 0.0000 0.0000 0.0000 27.1411 0.0000 0.0000
# 5 0.0000 0.0000 0.0000 0.0000 25.3837 0.0000
# 6 0.0000 0.0000 0.0000 0.0000 0.0000 21.0844
#
#
#
# Elastic Compliance Matrix: (Units=1/GPa)
#
#
# Indices 1 2 3 4 5 6 
#
# 1 0.013244 -0.005848 -0.002332 0.000000 0.000000 0.000000
# 2 -0.005848 0.012750 -0.002923 0.000000 0.000000 0.000000
# 3 -0.002332 -0.002923 0.013016 0.000000 0.000000 0.000000
# 4 0.000000 0.000000 0.000000 0.036844 0.000000 0.000000
# 5 0.000000 0.000000 0.000000 0.000000 0.039395 0.000000
# 6 0.000000 0.000000 0.000000 0.000000 0.000000 0.047428
#
#
# Mechanical properties :
#
#
# Convention : Reuss Voigt Hill
#
# Bulk Modulus (GPa) = 59.50607 61.36261 60.43434
# Shear Modulus (GPa) = 26.24883 27.10692 26.67787
#
# Velocity S-wave (km/s) = 3.65092 3.71012 3.68064
# Velocity P-wave (km/s) = 6.92746 7.03657 6.98223
#
# Compressibility (1/GPa) = 0.01680501
#
# Stress axis : x y z
#
# Youngs Moduli (GPa) = 75.50340 78.43161 76.83122
#
# Poissons Ratio (x) = 0.45863 0.17919
# Poissons Ratio (y) = 0.44151 0.22455
# Poissons Ratio (z) = 0.17610 0.22923
#
# Static dielectric constant tensor:
#      x y z
#    x 3.490980 0.000000 0.000000 
#    y 0.000000 3.436840 0.000000 
#    z 0.000000 0.000000 3.602930 
# 
# 
# High freq. dielectric constant tensor:
#      x y z
#    x 1.766440 0.000000 0.000000 
#    y 0.000000 1.765380 0.000000 
#    z 0.000000 0.000000 1.771200 
# 
# From -- ./inp_files/43129.got.cif
#   From: 2010.03.12/outbox.cif.g09.slc.cpg/sg72_22_cif.got.tgz:43129.got - 2010.04.16 14:54:00.
