data_PCOD8294174
_publ_section_title
;
Structure prediction by ZEFSAII (Michael W. Deem and Ramdas Pophale) SiO2 
 PCOD8294174
Probable space group: I B A M
;
_chemical_formula_sum "Si O2"
_cell_formula_units_Z 116
_cell_length_a 27.580975
_cell_length_b 9.622264
_cell_length_c 22.009276
_cell_angle_alpha 90.000000
_cell_angle_beta 90.000000
_cell_angle_gamma 90.000000
_cell_volume 5841.073073
_symmetry_space_group_name_H-M "I B A M"
_symmetry_group_IT_number 72
_symmetry_cell_setting 'orthorhombic'
loop_
_space_group_symop_operation_xyz
x,y,z
-x,-y,z
x,-y,1/2-z
-x,y,1/2-z
-x,-y,-z
x,y,-z
-x,y,1/2+z
x,-y,1/2+z
1/2+x,1/2+y,1/2+z
1/2-x,1/2-y,1/2+z
1/2+x,1/2-y,-z
1/2-x,1/2+y,-z
1/2-x,1/2-y,1/2-z
1/2+x,1/2+y,1/2-z
1/2-x,1/2+y,z
1/2+x,1/2-y,z
loop_
_atom_site_type_symbol
_atom_site_label
_atom_site_fract_x
_atom_site_fract_y
_atom_site_fract_z
Si Si1 0.281316 0.780105 0.570168
Si Si2 0.076087 0.813061 0.180107
Si Si3 0.877648 0.353482 0.722776
Si Si4 0.500000 0.500000 0.750000
Si Si5 0.324350 0.267357 0.610245
Si Si6 0.946604 0.515789 0.644097
Si Si7 0.644539 0.006232 0.565672
Si Si8 0.638261 0.560883 0.071040
O O1 0.266901 0.810966 0.500000
O O2 0.233258 0.786373 0.610563
O O3 0.309366 0.634069 0.576000
O O4 0.315904 0.898639 0.600149
O O5 0.117295 0.776297 0.230531
O O6 0.050713 0.664672 0.175266
O O7 0.098976 0.868627 0.116610
O O8 0.035117 0.915441 0.205166
O O9 0.857331 0.500000 0.750000
O O10 0.839073 0.296936 0.674785
O O11 0.929305 0.394211 0.690598
O O12 0.338409 0.152351 0.560349
O O13 0.354349 0.404498 0.593952
O O14 0.909040 0.520763 0.589931
O O15 0.000000 0.500000 0.617013
O O16 0.641816 0.075970 0.500000
O O17 0.620290 0.565219 0.000000
#
# Coordination Sequence:
#
# PCOD8294174 Si02
#       8
#    16  16  16   4  16  16  16  16
#     4  10  20  37  61  88 122 169 214 254 307 371
#     4  11  22  41  61  86 123 157 200 253 310 374
#     4   9  21  40  63  88 122 160 207 262 308 359
#     4  12  24  36  64  88 112 164 212 248 300 384
#     4  11  21  36  62  92 122 163 213 256 299 369
#     4  10  20  36  62  87 114 155 208 260 309 365
#     4  10  20  36  58  87 122 160 207 261 309 368
#     4  11  23  39  62  91 129 165 196 254 319 363
#
# _framework density 19.859365
#
# number of rings (size 3 to 8) (size 9 to 14) (size 15 to 20)
#    0.000    1.655    1.379    3.724    0.000    5.517 
#    0.000    1.034    1.517    0.000    0.000    0.000 
#    0.000    0.000    0.000    0.000    0.000    0.000 
#
# Total GULP energy -718580.071038 kJ/mol
# GULP energy per Si atom -12389.311570 kJ/mol
# Density = 1.981416 g / cm^3
# Si number density = 19.859365 Si / 1000 Ang^3
#
#
#
# Elastic Constant Matrix: (Units=GPa)
#
#
# Indices 1 2 3 4 5 6 
#
# 1 140.3141 37.5433 65.5360 0.0000 0.0000 0.0000
# 2 37.5433 97.3472 38.9535 0.0000 0.0000 0.0000
# 3 65.5360 38.9535 116.4600 0.0000 0.0000 0.0000
# 4 0.0000 0.0000 0.0000 30.3907 0.0000 0.0000
# 5 0.0000 0.0000 0.0000 0.0000 4.2436 0.0000
# 6 0.0000 0.0000 0.0000 0.0000 0.0000 14.2178
#
#
#
# Elastic Compliance Matrix: (Units=1/GPa)
#
#
# Indices 1 2 3 4 5 6 
#
# 1 0.009946 -0.001843 -0.004981 0.000000 0.000000 0.000000
# 2 -0.001843 0.012201 -0.003044 0.000000 0.000000 0.000000
# 3 -0.004981 -0.003044 0.012408 0.000000 0.000000 0.000000
# 4 0.000000 0.000000 0.000000 0.032905 0.000000 0.000000
# 5 0.000000 0.000000 0.000000 0.000000 0.235651 0.000000
# 6 0.000000 0.000000 0.000000 0.000000 0.000000 0.070335
#
#
# Mechanical properties :
#
#
# Convention : Reuss Voigt Hill
#
# Bulk Modulus (GPa) = 67.47656 70.90965 69.19310
# Shear Modulus (GPa) = 12.55899 23.90964 18.23431
#
# Velocity S-wave (km/s) = 2.51748 3.47356 3.03342
# Velocity P-wave (km/s) = 6.51930 7.20215 6.86921
#
# Compressibility (1/GPa) = 0.01481996
#
# Stress axis : x y z
#
# Youngs Moduli (GPa) = 100.54009 81.95840 80.59574
#
# Poissons Ratio (x) = 0.15104 0.40142
# Poissons Ratio (y) = 0.18529 0.24534
# Poissons Ratio (z) = 0.50076 0.24948
#
# Static dielectric constant tensor:
#      x y z
#    x 3.436050 0.000000 0.000000 
#    y 0.000000 3.932040 0.000000 
#    z 0.000000 0.000000 3.709470 
# 
# 
# High freq. dielectric constant tensor:
#      x y z
#    x 1.759350 0.000000 0.000000 
#    y 0.000000 1.791250 0.000000 
#    z 0.000000 0.000000 1.769350 
# 
# From -- ./inp_files/45996.got.cif
#   From: 2010.03.12/outbox.cif.g09.slc.cpg/sg72_23_cif.got.tgz:45996.got - 2010.04.16 14:54:00.
