data_PCOD8294750
_publ_section_title
;
Structure prediction by ZEFSAII (Michael W. Deem and Ramdas Pophale) SiO2 
 PCOD8294750
Probable space group: I B A M
;
_chemical_formula_sum "Si O2"
_cell_formula_units_Z 96
_cell_length_a 22.396199
_cell_length_b 11.744787
_cell_length_c 17.368966
_cell_angle_alpha 90.000000
_cell_angle_beta 90.000000
_cell_angle_gamma 90.000000
_cell_volume 4568.708272
_symmetry_space_group_name_H-M "I B A M"
_symmetry_group_IT_number 72
_symmetry_cell_setting 'orthorhombic'
loop_
_space_group_symop_operation_xyz
x,y,z
-x,-y,z
x,-y,1/2-z
-x,y,1/2-z
-x,-y,-z
x,y,-z
-x,y,1/2+z
x,-y,1/2+z
1/2+x,1/2+y,1/2+z
1/2-x,1/2-y,1/2+z
1/2+x,1/2-y,-z
1/2-x,1/2+y,-z
1/2-x,1/2-y,1/2-z
1/2+x,1/2+y,1/2-z
1/2-x,1/2+y,z
1/2+x,1/2-y,z
loop_
_atom_site_type_symbol
_atom_site_label
_atom_site_fract_x
_atom_site_fract_y
_atom_site_fract_z
Si Si1 0.851097 0.290422 0.671050
Si Si2 0.047923 0.913036 0.085119
Si Si3 0.932723 0.506236 0.158347
Si Si4 0.732455 0.639949 0.089273
Si Si5 0.840046 0.068118 0.583219
Si Si6 0.876774 0.725415 0.650625
O O1 0.900547 0.375506 0.634830
O O2 0.785544 0.329233 0.646427
O O3 0.861449 0.163318 0.641615
O O4 0.855863 0.280997 0.761871
O O5 0.063878 0.805343 0.139805
O O6 0.108008 0.979625 0.071564
O O7 0.024595 0.872510 0.000000
O O8 0.000000 0.000000 0.123715
O O9 0.934151 0.500000 0.250000
O O10 0.895087 0.401172 0.123222
O O11 0.000000 0.500000 0.125126
O O12 0.715065 0.509943 0.112560
O O13 0.678313 0.729463 0.100339
O O14 0.751870 0.646095 0.000000
O O15 0.823983 0.123663 0.500000
#
# Coordination Sequence:
#
# PCOD8294750 Si02
#       6
#    16  16  16  16  16  16
#     4  11  22  37  62  91 120 159 208 259 308 366
#     4   9  19  37  61  86 119 161 199 249 314 369
#     4   9  21  40  60  86 127 164 196 245 313 372
#     4  10  22  40  61  86 121 163 201 252 319 373
#     4   9  20  38  57  84 119 155 201 253 309 369
#     4  10  21  39  62  92 121 158 207 255 306 372
#
# _framework density 21.012504
#
# number of rings (size 3 to 8) (size 9 to 14) (size 15 to 20)
#    0.000    2.333    0.000    2.500    4.667    2.667 
#    3.000    3.333    0.000    4.000    0.000    0.000 
#    0.000    0.000    0.000    0.000    0.000    0.000 
#
# Total GULP energy -594860.552061 kJ/mol
# GULP energy per Si atom -12392.928168 kJ/mol
# Density = 2.096468 g / cm^3
# Si number density = 21.012504 Si / 1000 Ang^3
#
#
#
# Elastic Constant Matrix: (Units=GPa)
#
#
# Indices 1 2 3 4 5 6 
#
# 1 87.1950 38.3802 27.6844 0.0000 0.0000 0.0000
# 2 38.3802 131.2584 43.0715 0.0000 0.0000 0.0000
# 3 27.6844 43.0715 72.6193 0.0000 0.0000 0.0000
# 4 0.0000 0.0000 0.0000 -4.4067 0.0000 0.0000
# 5 0.0000 0.0000 0.0000 0.0000 20.5547 0.0000
# 6 0.0000 0.0000 0.0000 0.0000 0.0000 41.8124
#
#
#
# Elastic Compliance Matrix: (Units=1/GPa)
#
#
# Indices 1 2 3 4 5 6 
#
# 1 0.013874 -0.002882 -0.003580 0.000000 0.000000 0.000000
# 2 -0.002882 0.010058 -0.004867 0.000000 0.000000 0.000000
# 3 -0.003580 -0.004867 0.018022 0.000000 0.000000 0.000000
# 4 0.000000 0.000000 0.000000 -0.226929 0.000000 0.000000
# 5 0.000000 0.000000 0.000000 0.000000 0.048651 0.000000
# 6 0.000000 0.000000 0.000000 0.000000 0.000000 0.023916
#
#
# Mechanical properties :
#
#
# Convention : Reuss Voigt Hill
#
# Bulk Modulus (GPa) = 51.82316 56.59387 54.20852
# Shear Modulus (GPa) = -60.01045 23.72120 -18.14463
#
# Velocity S-wave (km/s) = -5.34990 3.36357 -2.94175
# Velocity P-wave (km/s) = 3.66679 6.48665 3.78361
#
# Compressibility (1/GPa) = 0.01929639
#
# Stress axis : x y z
#
# Youngs Moduli (GPa) = 72.07907 99.41978 55.48837
#
# Poissons Ratio (x) = 0.28653 0.19863
# Poissons Ratio (y) = 0.20774 0.27006
# Poissons Ratio (z) = 0.25802 0.48388
#
# Static dielectric constant tensor:
#      x y z
#    x 3.970400 0.000000 0.000000 
#    y 0.000000 4.176930 0.000000 
#    z 0.000000 0.000000 3.634240 
# 
# 
# High freq. dielectric constant tensor:
#      x y z
#    x 1.824130 0.000000 0.000000 
#    y 0.000000 1.832470 0.000000 
#    z 0.000000 0.000000 1.798020 
# 
# From -- ./inp_files/33267.got.cif
#   From: 2010.03.12/outbox.cif.g09.slc.cpg/sg72_17_cif.got.tgz:33267.got - 2010.04.16 14:54:00.
