data_PCOD8294570
_publ_section_title
;
Structure prediction by ZEFSAII (Michael W. Deem and Ramdas Pophale) SiO2 
 PCOD8294570
Probable space group: I B A M
;
_chemical_formula_sum "Si O2"
_cell_formula_units_Z 56
_cell_length_a 16.267360
_cell_length_b 5.005206
_cell_length_c 33.349985
_cell_angle_alpha 90.000000
_cell_angle_beta 90.000000
_cell_angle_gamma 90.000000
_cell_volume 2715.405399
_symmetry_space_group_name_H-M "I B A M"
_symmetry_group_IT_number 72
_symmetry_cell_setting 'orthorhombic'
loop_
_space_group_symop_operation_xyz
x,y,z
-x,-y,z
x,-y,1/2-z
-x,y,1/2-z
-x,-y,-z
x,y,-z
-x,y,1/2+z
x,-y,1/2+z
1/2+x,1/2+y,1/2+z
1/2-x,1/2-y,1/2+z
1/2+x,1/2-y,-z
1/2-x,1/2+y,-z
1/2-x,1/2-y,1/2-z
1/2+x,1/2+y,1/2-z
1/2-x,1/2+y,z
1/2+x,1/2-y,z
loop_
_atom_site_type_symbol
_atom_site_label
_atom_site_fract_x
_atom_site_fract_y
_atom_site_fract_z
Si Si1 0.693218 0.804708 0.000000
Si Si2 0.444063 0.259918 0.064812
Si Si3 0.446294 0.745039 0.345795
Si Si4 0.297200 0.970197 0.702702
O O1 0.638245 0.769970 0.960597
O O2 0.768181 0.598284 0.000000
O O3 0.500000 0.500000 0.048064
O O4 0.412681 0.331533 0.110026
O O5 0.500000 0.000000 0.061515
O O6 0.500000 0.500000 0.327589
O O7 0.378355 0.835880 0.314313
O O8 0.500000 0.000000 0.353862
O O9 0.223312 0.770573 0.688209
O O10 0.306976 0.000000 0.750000
#
# Coordination Sequence:
#
# PCOD8294570 Si02
#       4
#     8  16  16  16
#     4  12  24  36  56  88 116 144 192 240 280 332
#     4  10  21  39  59  79 112 154 188 228 288 343
#     4  10  21  37  59  85 110 145 194 238 278 333
#     4  10  21  37  56  80 113 149 181 222 283 342
#
# _framework density 20.623069999999998
#
# number of rings (size 3 to 8) (size 9 to 14) (size 15 to 20)
#    0.000    1.714    0.000    4.286    0.000    2.857 
#    0.000    1.429    0.000    0.000    0.000    0.000 
#    0.000    0.000    0.000    0.000    0.000    0.000 
#
# Total GULP energy -347028.353156 kJ/mol
# GULP energy per Si atom -12393.869756 kJ/mol
# Density = 2.057613 g / cm^3
# Si number density = 20.623070 Si / 1000 Ang^3
#
#
#
# Elastic Constant Matrix: (Units=GPa)
#
#
# Indices 1 2 3 4 5 6 
#
# 1 100.4937 34.6198 52.5505 0.0000 0.0000 0.0000
# 2 34.6198 113.7124 45.2921 0.0000 0.0000 0.0000
# 3 52.5505 45.2921 62.4508 0.0000 0.0000 0.0000
# 4 0.0000 0.0000 0.0000 24.1209 0.0000 0.0000
# 5 0.0000 0.0000 0.0000 0.0000 20.9747 0.0000
# 6 0.0000 0.0000 0.0000 0.0000 0.0000 46.4641
#
#
#
# Elastic Compliance Matrix: (Units=1/GPa)
#
#
# Indices 1 2 3 4 5 6 
#
# 1 0.017818 0.000769 -0.015551 0.000000 0.000000 0.000000
# 2 0.000769 0.012400 -0.009640 0.000000 0.000000 0.000000
# 3 -0.015551 -0.009640 0.036090 0.000000 0.000000 0.000000
# 4 0.000000 0.000000 0.000000 0.041458 0.000000 0.000000
# 5 0.000000 0.000000 0.000000 0.000000 0.047676 0.000000
# 6 0.000000 0.000000 0.000000 0.000000 0.000000 0.021522
#
#
# Mechanical properties :
#
#
# Convention : Reuss Voigt Hill
#
# Bulk Modulus (GPa) = 57.26235 60.17576 58.71906
# Shear Modulus (GPa) = 21.58623 27.92491 24.75557
#
# Velocity S-wave (km/s) = 3.23879 3.68375 3.46841
# Velocity P-wave (km/s) = 6.46628 6.88008 6.67639
#
# Compressibility (1/GPa) = 0.01746348
#
# Stress axis : x y z
#
# Youngs Moduli (GPa) = 56.12320 80.64792 27.70844
#
# Poissons Ratio (x) = -0.06206 0.43090
# Poissons Ratio (y) = -0.04318 0.26711
# Poissons Ratio (z) = 0.87279 0.77746
#
# Static dielectric constant tensor:
#      x y z
#    x 3.404440 0.000000 0.000000 
#    y 0.000000 4.217470 0.000000 
#    z 0.000000 0.000000 3.786060 
# 
# 
# High freq. dielectric constant tensor:
#      x y z
#    x 1.793610 0.000000 0.000000 
#    y 0.000000 1.835300 0.000000 
#    z 0.000000 0.000000 1.802330 
# 
# From -- ./inp_files/51619.got.cif
#   From: 2010.03.12/outbox.cif.g09.slc.cpg/sg72_26_cif.got.tgz:51619.got - 2010.04.16 14:54:00.
