data_PCOD8294314
_publ_section_title
;
Structure prediction by ZEFSAII (Michael W. Deem and Ramdas Pophale) SiO2 
 PCOD8294314
Probable space group: I B A M
;
_chemical_formula_sum "Si O2"
_cell_formula_units_Z 96
_cell_length_a 21.937371
_cell_length_b 12.154306
_cell_length_c 17.579268
_cell_angle_alpha 90.000000
_cell_angle_beta 90.000000
_cell_angle_gamma 90.000000
_cell_volume 4687.222105
_symmetry_space_group_name_H-M "I B A M"
_symmetry_group_IT_number 72
_symmetry_cell_setting 'orthorhombic'
loop_
_space_group_symop_operation_xyz
x,y,z
-x,-y,z
x,-y,1/2-z
-x,y,1/2-z
-x,-y,-z
x,y,-z
-x,y,1/2+z
x,-y,1/2+z
1/2+x,1/2+y,1/2+z
1/2-x,1/2-y,1/2+z
1/2+x,1/2-y,-z
1/2-x,1/2+y,-z
1/2-x,1/2-y,1/2-z
1/2+x,1/2+y,1/2-z
1/2-x,1/2+y,z
1/2+x,1/2-y,z
loop_
_atom_site_type_symbol
_atom_site_label
_atom_site_fract_x
_atom_site_fract_y
_atom_site_fract_z
Si Si1 0.329555 0.870060 0.086214
Si Si2 0.131388 0.132265 0.913771
Si Si3 0.802919 0.084681 0.090465
Si Si4 0.598760 0.240171 0.589565
Si Si5 0.569242 0.988718 0.160377
Si Si6 0.007551 0.870725 0.663622
O O1 0.325163 0.737899 0.088364
O O2 0.265826 0.910576 0.123321
O O3 0.388550 0.913290 0.130185
O O4 0.335575 0.912863 0.000000
O O5 0.074529 0.162375 0.861701
O O6 0.166542 0.027379 0.878817
O O7 0.109924 0.105996 0.000000
O O8 0.842281 0.190246 0.116721
O O9 0.799817 0.082782 0.000000
O O10 0.600232 0.215442 0.500000
O O11 0.539244 0.310797 0.608288
O O12 0.598615 0.126419 0.635137
O O13 0.500000 0.000000 0.128148
O O14 0.567976 0.000000 0.250000
O O15 0.000000 0.829550 0.750000
O O16 0.000000 0.000000 0.655336
#
# Coordination Sequence:
#
# PCOD8294314 Si02
#       6
#    16  16  16  16  16  16
#     4  10  22  40  65  91 122 163 209 256 308 373
#     4  10  20  37  63  90 122 162 209 258 307 366
#     4   9  20  38  62  96 126 158 204 261 311 359
#     4  11  23  40  67  93 124 166 213 260 310 370
#     4  11  26  44  63  90 127 167 205 258 318 372
#     4  11  23  37  59  94 129 167 204 257 319 367
#
# _framework density 20.481214000000001
#
# number of rings (size 3 to 8) (size 9 to 14) (size 15 to 20)
#    0.000    1.667    1.667    2.000    7.000    3.333 
#    0.000    2.500    0.000    0.000    0.000    0.000 
#    0.000    0.000    0.000    0.000    0.000    0.000 
#
# Total GULP energy -595305.593228 kJ/mol
# GULP energy per Si atom -12402.199859 kJ/mol
# Density = 2.043460 g / cm^3
# Si number density = 20.481214 Si / 1000 Ang^3
#
#
#
# Elastic Constant Matrix: (Units=GPa)
#
#
# Indices 1 2 3 4 5 6 
#
# 1 156.7211 49.8270 38.8499 0.0000 0.0000 0.0000
# 2 49.8270 114.3257 33.7529 0.0000 0.0000 0.0000
# 3 38.8499 33.7529 64.5219 0.0000 0.0000 0.0000
# 4 0.0000 0.0000 0.0000 28.6117 0.0000 0.0000
# 5 0.0000 0.0000 0.0000 0.0000 -8.2430 0.0000
# 6 0.0000 0.0000 0.0000 0.0000 0.0000 27.7634
#
#
#
# Elastic Compliance Matrix: (Units=1/GPa)
#
#
# Indices 1 2 3 4 5 6 
#
# 1 0.008043 -0.002455 -0.003559 0.000000 0.000000 0.000000
# 2 -0.002455 0.011094 -0.004325 0.000000 0.000000 0.000000
# 3 -0.003559 -0.004325 0.019904 0.000000 0.000000 0.000000
# 4 0.000000 0.000000 0.000000 0.034951 0.000000 0.000000
# 5 0.000000 0.000000 0.000000 0.000000 -0.121315 0.000000
# 6 0.000000 0.000000 0.000000 0.000000 0.000000 0.036019
#
#
# Mechanical properties :
#
#
# Convention : Reuss Voigt Hill
#
# Bulk Modulus (GPa) = 54.45657 64.49202 59.47430
# Shear Modulus (GPa) = 322.67103 23.83565 173.25334
#
# Velocity S-wave (km/s) = 12.56531 3.41512 9.20733
# Velocity P-wave (km/s) = 15.40007 6.86349 11.92203
#
# Compressibility (1/GPa) = 0.01836326
#
# Stress axis : x y z
#
# Youngs Moduli (GPa) = 124.32410 90.14002 50.24070
#
# Poissons Ratio (x) = 0.22129 0.17880
# Poissons Ratio (y) = 0.30520 0.21731
# Poissons Ratio (z) = 0.44246 0.38988
#
# Static dielectric constant tensor:
#      x y z
#    x 3.885650 0.000000 0.000000 
#    y 0.000000 3.742640 0.000000 
#    z 0.000000 0.000000 3.507540 
# 
# 
# High freq. dielectric constant tensor:
#      x y z
#    x 1.807340 0.000000 0.000000 
#    y 0.000000 1.814240 0.000000 
#    z 0.000000 0.000000 1.775460 
# 
# From -- ./inp_files/33258.got.cif
#   From: 2010.03.12/outbox.cif.g09.slc.cpg/sg72_17_cif.got.tgz:33258.got - 2010.04.16 14:54:00.
