data_PCOD8294781
_publ_section_title
;
Structure prediction by ZEFSAII (Michael W. Deem and Ramdas Pophale) SiO2 
 PCOD8294781
Probable space group: I B A M
;
_chemical_formula_sum "Si O2"
_cell_formula_units_Z 116
_cell_length_a 17.109223
_cell_length_b 16.357024
_cell_length_c 19.385618
_cell_angle_alpha 90.000000
_cell_angle_beta 90.000000
_cell_angle_gamma 90.000000
_cell_volume 5425.180953
_symmetry_space_group_name_H-M "I B A M"
_symmetry_group_IT_number 72
_symmetry_cell_setting 'orthorhombic'
loop_
_space_group_symop_operation_xyz
x,y,z
-x,-y,z
x,-y,1/2-z
-x,y,1/2-z
-x,-y,-z
x,y,-z
-x,y,1/2+z
x,-y,1/2+z
1/2+x,1/2+y,1/2+z
1/2-x,1/2-y,1/2+z
1/2+x,1/2-y,-z
1/2-x,1/2+y,-z
1/2-x,1/2-y,1/2-z
1/2+x,1/2+y,1/2-z
1/2-x,1/2+y,z
1/2+x,1/2-y,z
loop_
_atom_site_type_symbol
_atom_site_label
_atom_site_fract_x
_atom_site_fract_y
_atom_site_fract_z
Si Si1 0.114122 0.128908 0.076211
Si Si2 0.918352 0.086987 0.278805
Si Si3 0.570773 0.815883 0.577542
Si Si4 0.680038 0.282368 0.704734
Si Si5 0.260052 0.123809 0.582037
Si Si6 0.000000 0.500000 0.250000
Si Si7 0.419090 0.868213 0.660229
Si Si8 0.222636 0.558585 0.922596
O O1 0.074924 0.078210 0.137968
O O2 0.085746 0.220452 0.084815
O O3 0.208090 0.124807 0.084055
O O4 0.090100 0.094503 0.000000
O O5 0.852221 0.148165 0.254795
O O6 0.000000 0.118915 0.250000
O O7 0.895135 0.000000 0.250000
O O8 0.549709 0.840392 0.500000
O O9 0.649523 0.861148 0.600930
O O10 0.498190 0.842935 0.622578
O O11 0.750000 0.250000 0.750000
O O12 0.705093 0.318341 0.629603
O O13 0.614929 0.211972 0.697411
O O14 0.242642 0.141449 0.500000
O O15 0.245424 0.029450 0.604119
O O16 0.059400 0.558037 0.209854
O O17 0.352816 0.904896 0.612384
O O18 0.195603 0.543353 0.000000
#
# Coordination Sequence:
#
# PCOD8294781 Si02
#       8
#    16  16  16  16  16   4  16  16
#     4  10  21  41  67  96 130 174 221 281 341 402
#     4  11  24  44  66  95 133 175 221 276 341 406
#     4  10  21  39  67  94 127 168 218 277 335 401
#     4  12  27  40  68  96 129 177 220 284 337 410
#     4  10  22  41  65  97 132 172 220 278 339 409
#     4  12  32  44  62  92 138 184 214 278 328 416
#     4  12  26  43  63  95 131 179 225 274 336 415
#     4  10  21  40  68  96 131 170 220 282 339 402
#
# _framework density 21.381775999999999
#
# number of rings (size 3 to 8) (size 9 to 14) (size 15 to 20)
#    0.000    1.241    0.000    5.379    6.759    2.207 
#    1.241    4.828    0.000    0.000    0.000    0.000 
#    0.000    0.000    0.000    0.000    0.000    0.000 
#
# Total GULP energy -719025.960227 kJ/mol
# GULP energy per Si atom -12396.999314 kJ/mol
# Density = 2.133311 g / cm^3
# Si number density = 21.381776 Si / 1000 Ang^3
#
#
#
# Elastic Constant Matrix: (Units=GPa)
#
#
# Indices 1 2 3 4 5 6 
#
# 1 103.3996 47.7661 59.5363 0.0000 0.0000 0.0000
# 2 47.7661 102.2848 59.1697 0.0000 0.0000 0.0000
# 3 59.5363 59.1697 139.4673 0.0000 0.0000 0.0000
# 4 0.0000 0.0000 0.0000 45.0378 0.0000 0.0000
# 5 0.0000 0.0000 0.0000 0.0000 30.5101 0.0000
# 6 0.0000 0.0000 0.0000 0.0000 0.0000 50.6429
#
#
#
# Elastic Compliance Matrix: (Units=1/GPa)
#
#
# Indices 1 2 3 4 5 6 
#
# 1 0.014001 -0.004083 -0.004245 0.000000 0.000000 0.000000
# 2 -0.004083 0.014147 -0.004259 0.000000 0.000000 0.000000
# 3 -0.004245 -0.004259 0.010789 0.000000 0.000000 0.000000
# 4 0.000000 0.000000 0.000000 0.022204 0.000000 0.000000
# 5 0.000000 0.000000 0.000000 0.000000 0.032776 0.000000
# 6 0.000000 0.000000 0.000000 0.000000 0.000000 0.019746
#
#
# Mechanical properties :
#
#
# Convention : Reuss Voigt Hill
#
# Bulk Modulus (GPa) = 72.65303 75.34398 73.99850
# Shear Modulus (GPa) = 34.86142 37.15012 36.00577
#
# Velocity S-wave (km/s) = 4.04223 4.17281 4.10804
# Velocity P-wave (km/s) = 7.47255 7.65052 7.56206
#
# Compressibility (1/GPa) = 0.01376405
#
# Stress axis : x y z
#
# Youngs Moduli (GPa) = 71.42099 70.68573 92.68659
#
# Poissons Ratio (x) = 0.28861 0.39343
# Poissons Ratio (y) = 0.29162 0.39475
# Poissons Ratio (z) = 0.30316 0.30105
#
# Static dielectric constant tensor:
#      x y z
#    x 3.715750 0.000000 0.000000 
#    y 0.000000 4.080430 0.000000 
#    z 0.000000 0.000000 4.185990 
# 
# 
# High freq. dielectric constant tensor:
#      x y z
#    x 1.839470 0.000000 0.000000 
#    y 0.000000 1.851280 0.000000 
#    z 0.000000 0.000000 1.850490 
# 
# From -- ./inp_files/31742.got.cif
#   From: 2010.03.12/outbox.cif.g09.slc.cpg/sg72_16_cif.got.tgz:31742.got - 2010.04.16 14:54:00.
