data_PCOD8294716
_publ_section_title
;
Structure prediction by ZEFSAII (Michael W. Deem and Ramdas Pophale) SiO2 
 PCOD8294716
Probable space group: I B A M
;
_chemical_formula_sum "Si O2"
_cell_formula_units_Z 68
_cell_length_a 18.574211
_cell_length_b 18.023591
_cell_length_c 9.558734
_cell_angle_alpha 90.000000
_cell_angle_beta 90.000000
_cell_angle_gamma 90.000000
_cell_volume 3200.015446
_symmetry_space_group_name_H-M "I B A M"
_symmetry_group_IT_number 72
_symmetry_cell_setting 'orthorhombic'
loop_
_space_group_symop_operation_xyz
x,y,z
-x,-y,z
x,-y,1/2-z
-x,y,1/2-z
-x,-y,-z
x,y,-z
-x,y,1/2+z
x,-y,1/2+z
1/2+x,1/2+y,1/2+z
1/2-x,1/2-y,1/2+z
1/2+x,1/2-y,-z
1/2-x,1/2+y,-z
1/2-x,1/2-y,1/2-z
1/2+x,1/2+y,1/2-z
1/2-x,1/2+y,z
1/2+x,1/2-y,z
loop_
_atom_site_type_symbol
_atom_site_label
_atom_site_fract_x
_atom_site_fract_y
_atom_site_fract_z
Si Si1 0.544654 0.750485 0.000000
Si Si2 0.164284 0.500000 0.250000
Si Si3 0.743872 0.655621 0.500000
Si Si4 0.500000 0.500000 0.750000
Si Si5 0.379378 0.771525 0.000000
Si Si6 0.737602 0.515576 0.000000
Si Si7 0.132251 0.342659 0.291600
Si Si8 0.418271 0.580897 0.500000
O O1 0.459673 0.740402 0.000000
O O2 0.568370 0.796515 0.863330
O O3 0.578959 0.669424 0.000000
O O4 0.215452 0.463124 0.134140
O O5 0.116118 0.431528 0.308217
O O6 0.670576 0.700149 0.500000
O O7 0.718200 0.571104 0.500000
O O8 0.791403 0.675177 0.364072
O O9 0.452598 0.550644 0.645129
O O10 0.362750 0.822751 0.869152
O O11 0.665350 0.562434 0.000000
#
# Coordination Sequence:
#
# PCOD8294716 Si02
#       8
#     8   8   8   4   8   8  16   8
#     4  11  27  43  62  95 140 177 214 267 327 400
#     4  10  21  42  67  91 126 161 224 282 330 386
#     4   9  22  40  65  92 130 161 215 272 331 394
#     4  10  26  42  64  90 128 190 212 250 318 382
#     4  12  23  38  66  94 128 170 218 266 327 389
#     4  10  21  38  65  96 120 170 214 273 327 387
#     4  10  23  43  63  94 126 172 217 272 337 388
#     4  11  25  43  64  93 138 171 222 259 320 390
#
# _framework density 21.249897000000001
#
# number of rings (size 3 to 8) (size 9 to 14) (size 15 to 20)
#    0.000    1.647    0.000    3.529    6.588    7.529 
#    0.000    3.529    0.000    0.000    0.000    0.000 
#    0.000    0.000    0.000    0.000    0.000    0.000 
#
# Total GULP energy -421612.328688 kJ/mol
# GULP energy per Si atom -12400.362608 kJ/mol
# Density = 2.120153 g / cm^3
# Si number density = 21.249897 Si / 1000 Ang^3
#
#
#
# Elastic Constant Matrix: (Units=GPa)
#
#
# Indices 1 2 3 4 5 6 
#
# 1 102.1553 52.5371 33.4257 0.0000 0.0000 0.0000
# 2 52.5371 125.1741 40.8078 0.0000 0.0000 0.0000
# 3 33.4257 40.8078 159.6710 0.0000 0.0000 0.0000
# 4 0.0000 0.0000 0.0000 34.9416 0.0000 0.0000
# 5 0.0000 0.0000 0.0000 0.0000 20.5584 0.0000
# 6 0.0000 0.0000 0.0000 0.0000 0.0000 26.5799
#
#
#
# Elastic Compliance Matrix: (Units=1/GPa)
#
#
# Indices 1 2 3 4 5 6 
#
# 1 0.012773 -0.004897 -0.001422 0.000000 0.000000 0.000000
# 2 -0.004897 0.010593 -0.001682 0.000000 0.000000 0.000000
# 3 -0.001422 -0.001682 0.006991 0.000000 0.000000 0.000000
# 4 0.000000 0.000000 0.000000 0.028619 0.000000 0.000000
# 5 0.000000 0.000000 0.000000 0.000000 0.048642 0.000000
# 6 0.000000 0.000000 0.000000 0.000000 0.000000 0.037622
#
#
# Mechanical properties :
#
#
# Convention : Reuss Voigt Hill
#
# Bulk Modulus (GPa) = 69.67194 71.17128 70.42161
# Shear Modulus (GPa) = 30.11553 33.76463 31.94008
#
# Velocity S-wave (km/s) = 3.76867 3.99046 3.88115
# Velocity P-wave (km/s) = 7.19689 7.40250 7.30042
#
# Compressibility (1/GPa) = 0.01435298
#
# Stress axis : x y z
#
# Youngs Moduli (GPa) = 78.29001 94.40477 143.05128
#
# Poissons Ratio (x) = 0.46233 0.20346
# Poissons Ratio (y) = 0.38341 0.24061
# Poissons Ratio (z) = 0.11135 0.15879
#
# Static dielectric constant tensor:
#      x y z
#    x 3.637210 0.000000 0.000000 
#    y 0.000000 3.827070 0.000000 
#    z 0.000000 0.000000 4.120180 
# 
# 
# High freq. dielectric constant tensor:
#      x y z
#    x 1.817870 0.000000 0.000000 
#    y 0.000000 1.843340 0.000000 
#    z 0.000000 0.000000 1.853910 
# 
# From -- ./inp_files/4486.got.cif
#   From: 2010.03.12/outbox.cif.g09.slc.cpg/sg72_3_cif.got.tgz:4486.got - 2010.04.16 14:54:00.
