data_PCOD8294967
_publ_section_title
;
Structure prediction by ZEFSAII (Michael W. Deem and Ramdas Pophale) SiO2 
 PCOD8294967
Probable space group: I B A M
;
_chemical_formula_sum "Si O2"
_cell_formula_units_Z 64
_cell_length_a 8.632006
_cell_length_b 15.838028
_cell_length_c 21.761095
_cell_angle_alpha 90.000000
_cell_angle_beta 90.000000
_cell_angle_gamma 90.000000
_cell_volume 2975.045313
_symmetry_space_group_name_H-M "I B A M"
_symmetry_group_IT_number 72
_symmetry_cell_setting 'orthorhombic'
loop_
_space_group_symop_operation_xyz
x,y,z
-x,-y,z
x,-y,1/2-z
-x,y,1/2-z
-x,-y,-z
x,y,-z
-x,y,1/2+z
x,-y,1/2+z
1/2+x,1/2+y,1/2+z
1/2-x,1/2-y,1/2+z
1/2+x,1/2-y,-z
1/2-x,1/2+y,-z
1/2-x,1/2-y,1/2-z
1/2+x,1/2+y,1/2-z
1/2-x,1/2+y,z
1/2+x,1/2-y,z
loop_
_atom_site_type_symbol
_atom_site_label
_atom_site_fract_x
_atom_site_fract_y
_atom_site_fract_z
Si Si1 0.611919 0.262792 0.366244
Si Si2 0.744039 0.000000 0.750000
Si Si3 0.383610 0.153265 0.428843
Si Si4 0.500000 0.000000 0.644369
Si Si5 0.164907 0.822780 0.711603
O O1 0.489660 0.236078 0.418540
O O2 0.719414 0.336899 0.393834
O O3 0.720232 0.181728 0.347960
O O4 0.513470 0.299083 0.307069
O O5 0.648217 0.001039 0.687639
O O6 0.842041 0.913524 0.754520
O O7 0.350959 0.137983 0.500000
O O8 0.484102 0.078780 0.400415
O O9 0.250000 0.750000 0.750000
#
# Coordination Sequence:
#
# PCOD8294967 Si02
#       5
#    16   8  16   8  16
#     4  10  22  40  64  97 128 169 227 269 328 398
#     4  11  22  40  65  94 139 173 210 274 341 401
#     4  11  22  42  67  93 129 175 224 278 325 386
#     4  11  23  38  62  98 129 171 220 264 336 407
#     4  11  22  39  65  96 137 171 214 272 335 404
#
# _framework density 21.512276
#
# number of rings (size 3 to 8) (size 9 to 14) (size 15 to 20)
#    0.000    1.250    2.500    4.875    3.500    0.000 
#    0.000   11.250    0.000    1.500    0.000    0.000 
#    0.000    0.000    0.000    0.000    0.000    0.000 
#
# Total GULP energy -396504.713046 kJ/mol
# GULP energy per Si atom -12390.772283 kJ/mol
# Density = 2.146331 g / cm^3
# Si number density = 21.512276 Si / 1000 Ang^3
#
#
#
# Elastic Constant Matrix: (Units=GPa)
#
#
# Indices 1 2 3 4 5 6 
#
# 1 154.7472 59.6280 57.0415 0.0000 0.0000 0.0000
# 2 59.6280 139.3510 60.0351 0.0000 0.0000 0.0000
# 3 57.0415 60.0351 126.0309 0.0000 0.0000 0.0000
# 4 0.0000 0.0000 0.0000 23.2108 0.0000 0.0000
# 5 0.0000 0.0000 0.0000 0.0000 34.0015 0.0000
# 6 0.0000 0.0000 0.0000 0.0000 0.0000 30.5499
#
#
#
# Elastic Compliance Matrix: (Units=1/GPa)
#
#
# Indices 1 2 3 4 5 6 
#
# 1 0.008374 -0.002454 -0.002621 0.000000 0.000000 0.000000
# 2 -0.002454 0.009748 -0.003533 0.000000 0.000000 0.000000
# 3 -0.002621 -0.003533 0.010804 0.000000 0.000000 0.000000
# 4 0.000000 0.000000 0.000000 0.043083 0.000000 0.000000
# 5 0.000000 0.000000 0.000000 0.000000 0.029410 0.000000
# 6 0.000000 0.000000 0.000000 0.000000 0.000000 0.032733
#
#
# Mechanical properties :
#
#
# Convention : Reuss Voigt Hill
#
# Bulk Modulus (GPa) = 85.39730 85.94870 85.67300
# Shear Modulus (GPa) = 32.20149 33.78073 32.99111
#
# Velocity S-wave (km/s) = 3.87316 3.96700 3.92036
# Velocity P-wave (km/s) = 7.73208 7.81171 7.77200
#
# Compressibility (1/GPa) = 0.01170997
#
# Stress axis : x y z
#
# Youngs Moduli (GPa) = 119.41899 102.58283 92.56026
#
# Poissons Ratio (x) = 0.25173 0.24261
# Poissons Ratio (y) = 0.29305 0.32701
# Poissons Ratio (z) = 0.31300 0.36242
#
# Static dielectric constant tensor:
#      x y z
#    x 4.437330 0.000000 0.000000 
#    y 0.000000 3.876610 0.000000 
#    z 0.000000 0.000000 3.957110 
# 
# 
# High freq. dielectric constant tensor:
#      x y z
#    x 1.866010 0.000000 0.000000 
#    y 0.000000 1.829110 0.000000 
#    z 0.000000 0.000000 1.840290 
# 
# From -- ./inp_files/41964.got.cif
#   From: 2010.03.12/outbox.cif.g09.slc.cpg/sg72_21_cif.got.tgz:41964.got - 2010.04.16 14:54:00.
