data_PCOD8294824
_publ_section_title
;
Structure prediction by ZEFSAII (Michael W. Deem and Ramdas Pophale) SiO2 
 PCOD8294824
Probable space group: I B A M
;
_chemical_formula_sum "Si O2"
_cell_formula_units_Z 96
_cell_length_a 14.889081
_cell_length_b 21.879302
_cell_length_c 13.922980
_cell_angle_alpha 90.000000
_cell_angle_beta 90.000000
_cell_angle_gamma 90.000000
_cell_volume 4535.587553
_symmetry_space_group_name_H-M "I B A M"
_symmetry_group_IT_number 72
_symmetry_cell_setting 'orthorhombic'
loop_
_space_group_symop_operation_xyz
x,y,z
-x,-y,z
x,-y,1/2-z
-x,y,1/2-z
-x,-y,-z
x,y,-z
-x,y,1/2+z
x,-y,1/2+z
1/2+x,1/2+y,1/2+z
1/2-x,1/2-y,1/2+z
1/2+x,1/2-y,-z
1/2-x,1/2+y,-z
1/2-x,1/2-y,1/2-z
1/2+x,1/2+y,1/2-z
1/2-x,1/2+y,z
1/2+x,1/2-y,z
loop_
_atom_site_type_symbol
_atom_site_label
_atom_site_fract_x
_atom_site_fract_y
_atom_site_fract_z
Si Si1 0.401605 0.907041 0.239687
Si Si2 0.754700 0.094485 0.611639
Si Si3 0.106949 0.706760 0.607362
Si Si4 0.092720 0.172840 0.786296
Si Si5 0.734393 0.957910 0.607472
Si Si6 0.807184 0.172035 0.105111
O O1 0.500000 0.936104 0.250000
O O2 0.340824 0.892606 0.334811
O O3 0.422065 0.845535 0.180319
O O4 0.350849 0.957811 0.176887
O O5 0.743732 0.114308 0.500000
O O6 0.838612 0.128065 0.660108
O O7 0.782775 0.022992 0.619151
O O8 0.068790 0.694464 0.500000
O O9 0.069173 0.771478 0.643312
O O10 0.214596 0.708582 0.603334
O O11 0.134928 0.201744 0.689257
O O12 0.000000 0.140356 0.750000
O O13 0.697911 0.948179 0.500000
O O14 0.797480 0.900215 0.633143
O O15 0.853566 0.177695 0.000000
#
# Coordination Sequence:
#
# PCOD8294824 Si02
#       6
#    16  16  16  16  16  16
#     4  11  22  38  65  96 126 166 215 260 322 390
#     4  11  24  40  61  93 133 170 210 265 319 375
#     4  10  21  41  64  88 126 164 204 262 320 384
#     4  12  24  40  62  90 127 169 218 267 315 376
#     4   9  19  39  63  86 124 167 205 258 318 376
#     4   9  19  37  64  87 114 163 211 254 317 379
#
# _framework density 21.165946000000002
#
# number of rings (size 3 to 8) (size 9 to 14) (size 15 to 20)
#    0.000    1.667    3.333    3.500    0.000    4.000 
#    0.000    3.333    0.000    3.000    0.000    0.000 
#    0.000    0.000    0.000    0.000    0.000    0.000 
#
# Total GULP energy -594801.478132 kJ/mol
# GULP energy per Si atom -12391.697461 kJ/mol
# Density = 2.111777 g / cm^3
# Si number density = 21.165946 Si / 1000 Ang^3
#
#
#
# Elastic Constant Matrix: (Units=GPa)
#
#
# Indices 1 2 3 4 5 6 
#
# 1 83.5564 14.7857 41.6311 0.0000 0.0000 0.0000
# 2 14.7857 70.4994 30.4653 -0.0001 0.0000 0.0000
# 3 41.6311 30.4653 143.2199 -0.0003 -0.0001 0.0000
# 4 0.0000 -0.0001 -0.0003 34.5702 0.0000 0.0000
# 5 0.0000 0.0000 -0.0001 0.0000 12.2230 0.0000
# 6 0.0000 0.0000 0.0000 0.0000 0.0000 13.1505
#
#
#
# Elastic Compliance Matrix: (Units=1/GPa)
#
#
# Indices 1 2 3 4 5 6 
#
# 1 0.014103 -0.001306 -0.003822 0.000000 0.000000 0.000000
# 2 -0.001306 0.015741 -0.002969 0.000000 0.000000 0.000000
# 3 -0.003822 -0.002969 0.008725 0.000000 0.000000 0.000000
# 4 0.000000 0.000000 0.000000 0.028927 0.000000 0.000000
# 5 0.000000 0.000000 0.000000 0.000000 0.081813 0.000000
# 6 0.000000 0.000000 0.000000 0.000000 0.000000 0.076043
#
#
# Mechanical properties :
#
#
# Convention : Reuss Voigt Hill
#
# Bulk Modulus (GPa) = 44.69117 52.33777 48.51447
# Shear Modulus (GPa) = 20.08005 26.01500 23.04752
#
# Velocity S-wave (km/s) = 3.08343 3.50965 3.30342
# Velocity P-wave (km/s) = 5.81698 6.41908 6.12543
#
# Compressibility (1/GPa) = 0.02237578
#
# Stress axis : x y z
#
# Youngs Moduli (GPa) = 70.90580 63.52680 114.61797
#
# Poissons Ratio (x) = 0.08299 0.43803
# Poissons Ratio (y) = 0.09263 0.34027
# Poissons Ratio (z) = 0.27098 0.18859
#
# Static dielectric constant tensor:
#      x y z
#    x 3.507160 0.000000 0.000000 
#    y 0.000000 3.762810 0.000000 
#    z 0.000000 0.000000 4.337990 
# 
# 
# High freq. dielectric constant tensor:
#      x y z
#    x 1.793030 0.000000 0.000000 
#    y 0.000000 1.822780 0.000000 
#    z 0.000000 0.000000 1.859030 
# 
# From -- ./inp_files/21803.got.cif
#   From: 2010.03.12/outbox.cif.g09.slc.cpg/sg72_11_cif.got.tgz:21803.got - 2010.04.16 14:54:00.
