data_PCOD8294283
_publ_section_title
;
Structure prediction by ZEFSAII (Michael W. Deem and Ramdas Pophale) SiO2 
 PCOD8294283
Probable space group: I B A M
;
_chemical_formula_sum "Si O2"
_cell_formula_units_Z 80
_cell_length_a 12.819795
_cell_length_b 11.809157
_cell_length_c 23.444409
_cell_angle_alpha 90.000000
_cell_angle_beta 90.000000
_cell_angle_gamma 90.000000
_cell_volume 3549.271863
_symmetry_space_group_name_H-M "I B A M"
_symmetry_group_IT_number 72
_symmetry_cell_setting 'orthorhombic'
loop_
_space_group_symop_operation_xyz
x,y,z
-x,-y,z
x,-y,1/2-z
-x,y,1/2-z
-x,-y,-z
x,y,-z
-x,y,1/2+z
x,-y,1/2+z
1/2+x,1/2+y,1/2+z
1/2-x,1/2-y,1/2+z
1/2+x,1/2-y,-z
1/2-x,1/2+y,-z
1/2-x,1/2-y,1/2-z
1/2+x,1/2+y,1/2-z
1/2-x,1/2+y,z
1/2+x,1/2-y,z
loop_
_atom_site_type_symbol
_atom_site_label
_atom_site_fract_x
_atom_site_fract_y
_atom_site_fract_z
Si Si1 0.245931 0.963388 0.367045
Si Si2 0.432490 0.099527 0.664731
Si Si3 0.946088 0.148856 0.307246
Si Si4 0.423166 0.154306 0.063158
Si Si5 0.427955 0.407093 0.917836
O O1 0.168953 0.899747 0.322436
O O2 0.319724 0.874491 0.400291
O O3 0.314152 0.056111 0.333758
O O4 0.184842 0.035272 0.414413
O O5 0.437774 0.215565 0.699250
O O6 0.474677 0.116954 0.599225
O O7 0.500000 0.000000 0.694591
O O8 0.000000 0.100864 0.250000
O O9 0.028169 0.113408 0.354632
O O10 0.423553 0.288520 0.050192
O O11 0.424298 0.097061 0.000000
O O12 0.500000 0.500000 0.950185
#
# Coordination Sequence:
#
# PCOD8294283 Si02
#       5
#    16  16  16  16  16
#     4  10  20  37  60  87 121 156 200 254 300 352
#     4   9  20  39  59  86 125 159 197 251 297 352
#     4  10  21  40  63  88 120 160 201 244 301 363
#     4  10  21  38  61  89 122 163 205 245 297 357
#     4   9  20  38  57  84 123 157 198 254 298 351
#
# _framework density 22.539835
#
# number of rings (size 3 to 8) (size 9 to 14) (size 15 to 20)
#    0.000    2.400    0.000    1.200    0.000    8.800 
#    0.000   36.000    0.000    0.000    0.000    0.000 
#    0.000    0.000    0.000    0.000    0.000    0.000 
#
# Total GULP energy -495620.043926 kJ/mol
# GULP energy per Si atom -12390.501098 kJ/mol
# Density = 2.248853 g / cm^3
# Si number density = 22.539835 Si / 1000 Ang^3
#
#
#
# Elastic Constant Matrix: (Units=GPa)
#
#
# Indices 1 2 3 4 5 6 
#
# 1 142.0941 38.2300 36.9287 0.0000 0.0000 0.0000
# 2 38.2300 136.9239 4.2532 0.0000 0.0000 0.0000
# 3 36.9287 4.2532 115.8526 0.0000 0.0000 0.0000
# 4 0.0000 0.0000 0.0000 48.4555 0.0000 0.0000
# 5 0.0000 0.0000 0.0000 0.0000 -11.5139 0.0000
# 6 0.0000 0.0000 0.0000 0.0000 0.0000 38.1038
#
#
#
# Elastic Compliance Matrix: (Units=1/GPa)
#
#
# Indices 1 2 3 4 5 6 
#
# 1 0.008307 -0.002240 -0.002566 0.000000 0.000000 0.000000
# 2 -0.002240 0.007916 0.000423 0.000000 0.000000 0.000000
# 3 -0.002566 0.000423 0.009434 0.000000 0.000000 0.000000
# 4 0.000000 0.000000 0.000000 0.020638 0.000000 0.000000
# 5 0.000000 0.000000 0.000000 0.000000 -0.086851 0.000000
# 6 0.000000 0.000000 0.000000 0.000000 0.000000 0.026244
#
#
# Mechanical properties :
#
#
# Convention : Reuss Voigt Hill
#
# Bulk Modulus (GPa) = 59.19834 61.52159 60.35996
# Shear Modulus (GPa) = 61356.85111 36.03965 30696.44538
#
# Velocity S-wave (km/s) = 165.16844 4.00300 116.82602
# Velocity P-wave (km/s) = 190.78908 6.97992 134.99850
#
# Compressibility (1/GPa) = 0.01689237
#
# Stress axis : x y z
#
# Youngs Moduli (GPa) = 120.38109 126.33433 106.00030
#
# Poissons Ratio (x) = 0.28295 0.27196
# Poissons Ratio (y) = 0.26961 -0.04487
# Poissons Ratio (z) = 0.30886 -0.05348
#
# Static dielectric constant tensor:
#      x y z
#    x 4.025520 0.000000 0.000000 
#    y 0.000000 4.670400 0.000000 
#    z 0.000000 0.000000 3.558200 
# 
# 
# High freq. dielectric constant tensor:
#      x y z
#    x 1.884000 0.000000 0.000000 
#    y 0.000000 1.916270 0.000000 
#    z 0.000000 0.000000 1.864670 
# 
# From -- ./inp_files/44056.got.cif
#   From: 2010.03.12/outbox.cif.g09.slc.cpg/sg72_23_cif.got.tgz:44056.got - 2010.04.16 14:54:00.
