data_PCOD8294415
_publ_section_title
;
Structure prediction by ZEFSAII (Michael W. Deem and Ramdas Pophale) SiO2 
 PCOD8294415
Probable space group: I B A M
;
_chemical_formula_sum "Si O2"
_cell_formula_units_Z 88
_cell_length_a 11.362119
_cell_length_b 23.782236
_cell_length_c 13.894796
_cell_angle_alpha 90.000000
_cell_angle_beta 90.000000
_cell_angle_gamma 90.000000
_cell_volume 3754.604471
_symmetry_space_group_name_H-M "I B A M"
_symmetry_group_IT_number 72
_symmetry_cell_setting 'orthorhombic'
loop_
_space_group_symop_operation_xyz
x,y,z
-x,-y,z
x,-y,1/2-z
-x,y,1/2-z
-x,-y,-z
x,y,-z
-x,y,1/2+z
x,-y,1/2+z
1/2+x,1/2+y,1/2+z
1/2-x,1/2-y,1/2+z
1/2+x,1/2-y,-z
1/2-x,1/2+y,-z
1/2-x,1/2-y,1/2-z
1/2+x,1/2+y,1/2-z
1/2-x,1/2+y,z
1/2+x,1/2-y,z
loop_
_atom_site_type_symbol
_atom_site_label
_atom_site_fract_x
_atom_site_fract_y
_atom_site_fract_z
Si Si1 0.628774 0.509767 0.139062
Si Si2 0.308779 0.086288 0.891646
Si Si3 0.000000 0.618687 0.250000
Si Si4 0.876996 0.863362 0.609502
Si Si5 0.149101 0.696264 0.615109
Si Si6 0.622270 0.324096 0.113889
O O1 0.500000 0.500000 0.090277
O O2 0.616336 0.500000 0.250000
O O3 0.727831 0.468907 0.097072
O O4 0.668532 0.573143 0.119121
O O5 0.410041 0.078713 0.810388
O O6 0.231776 0.138420 0.850661
O O7 0.359002 0.097983 0.000000
O O8 0.946155 0.658010 0.167650
O O9 0.892212 0.845870 0.500000
O O10 0.777803 0.822519 0.652794
O O11 0.003207 0.851396 0.659329
O O12 0.133839 0.688787 0.500000
O O13 0.133713 0.760310 0.648600
O O14 0.620939 0.327963 0.000000
#
# Coordination Sequence:
#
# PCOD8294415 Si02
#       6
#    16  16   8  16  16  16
#     4  11  22  39  65 104 140 172 221 290 349 404
#     4  11  24  44  70  99 139 184 230 287 344 405
#     4  12  26  44  63 100 138 189 238 270 334 420
#     4  10  20  39  68  97 130 173 227 285 343 405
#     4  10  23  43  65  94 137 184 230 284 345 412
#     4   9  20  39  66  98 131 172 225 287 346 405
#
# _framework density 23.437888999999998
#
# number of rings (size 3 to 8) (size 9 to 14) (size 15 to 20)
#    0.000    1.636    1.818    2.182    2.545    1.455 
#    3.273    4.091    0.000    6.545    0.000    0.000 
#    0.000    0.000    0.000    0.000    0.000    0.000 
#
# Total GULP energy -545458.869483 kJ/mol
# GULP energy per Si atom -12396.792488 kJ/mol
# Density = 2.338454 g / cm^3
# Si number density = 23.437889 Si / 1000 Ang^3
#
#
#
# Elastic Constant Matrix: (Units=GPa)
#
#
# Indices 1 2 3 4 5 6 
#
# 1 139.3714 59.0061 43.2713 0.0000 0.0000 0.0000
# 2 59.0061 134.1254 20.7612 0.0001 0.0000 0.0000
# 3 43.2713 20.7612 89.8266 0.0001 0.0000 0.0001
# 4 0.0000 0.0001 0.0001 21.1576 0.0000 0.0000
# 5 0.0000 0.0000 0.0000 0.0000 14.4811 0.0000
# 6 0.0000 0.0000 0.0001 0.0000 0.0000 38.7385
#
#
#
# Elastic Compliance Matrix: (Units=1/GPa)
#
#
# Indices 1 2 3 4 5 6 
#
# 1 0.010004 -0.003791 -0.003943 0.000000 0.000000 0.000000
# 2 -0.003791 0.009169 -0.000293 0.000000 0.000000 0.000000
# 3 -0.003943 -0.000293 0.013100 0.000000 0.000000 0.000000
# 4 0.000000 0.000000 0.000000 0.047264 0.000000 0.000000
# 5 0.000000 0.000000 0.000000 0.000000 0.069055 0.000000
# 6 0.000000 0.000000 0.000000 0.000000 0.000000 0.025814
#
#
# Mechanical properties :
#
#
# Convention : Reuss Voigt Hill
#
# Bulk Modulus (GPa) = 61.65652 67.71119 64.68385
# Shear Modulus (GPa) = 25.52757 30.89443 28.21100
#
# Velocity S-wave (km/s) = 3.30382 3.63456 3.47313
# Velocity P-wave (km/s) = 6.39665 6.82391 6.61373
#
# Compressibility (1/GPa) = 0.01621889
#
# Stress axis : x y z
#
# Youngs Moduli (GPa) = 99.95749 109.06571 76.33734
#
# Poissons Ratio (x) = 0.41345 0.30101
# Poissons Ratio (y) = 0.37892 0.02237
# Poissons Ratio (z) = 0.39414 0.03196
#
# Static dielectric constant tensor:
#      x y z
#    x 4.485850 0.000000 0.000000 
#    y 0.000000 4.137860 0.000000 
#    z 0.000000 0.000000 4.157780 
# 
# 
# High freq. dielectric constant tensor:
#      x y z
#    x 1.922300 0.000000 0.000000 
#    y 0.000000 1.920220 0.000000 
#    z 0.000000 0.000000 1.940400 
# 
# From -- ./inp_files/20311.got.cif
#   From: 2010.03.12/outbox.cif.g09.slc.cpg/sg72_11_cif.got.tgz:20311.got - 2010.04.16 14:54:00.
