data_PCOD8294815
_publ_section_title
;
Structure prediction by ZEFSAII (Michael W. Deem and Ramdas Pophale) SiO2 
 PCOD8294815
Probable space group: I B A M
;
_chemical_formula_sum "Si O2"
_cell_formula_units_Z 104
_cell_length_a 11.200236
_cell_length_b 16.703424
_cell_length_c 26.291730
_cell_angle_alpha 90.000000
_cell_angle_beta 90.000000
_cell_angle_gamma 90.000000
_cell_volume 4918.717078
_symmetry_space_group_name_H-M "I B A M"
_symmetry_group_IT_number 72
_symmetry_cell_setting 'orthorhombic'
loop_
_space_group_symop_operation_xyz
x,y,z
-x,-y,z
x,-y,1/2-z
-x,y,1/2-z
-x,-y,-z
x,y,-z
-x,y,1/2+z
x,-y,1/2+z
1/2+x,1/2+y,1/2+z
1/2-x,1/2-y,1/2+z
1/2+x,1/2-y,-z
1/2-x,1/2+y,-z
1/2-x,1/2-y,1/2-z
1/2+x,1/2+y,1/2-z
1/2-x,1/2+y,z
1/2+x,1/2-y,z
loop_
_atom_site_type_symbol
_atom_site_label
_atom_site_fract_x
_atom_site_fract_y
_atom_site_fract_z
Si Si1 0.422607 0.165163 0.379969
Si Si2 0.223804 0.903990 0.056344
Si Si3 0.216304 0.552171 0.206074
Si Si4 0.129644 0.297769 0.764133
Si Si5 0.500000 0.000000 0.147533
Si Si6 0.978801 0.187979 0.443099
Si Si7 0.124016 0.046513 0.885818
O O1 0.308792 0.158019 0.415878
O O2 0.374261 0.184049 0.323776
O O3 0.501756 0.083586 0.384075
O O4 0.497749 0.238122 0.404288
O O5 0.098703 0.861113 0.052713
O O6 0.217190 0.986807 0.087396
O O7 0.271556 0.924176 0.000000
O O8 0.279562 0.500000 0.250000
O O9 0.139685 0.625061 0.228262
O O10 0.321347 0.577123 0.167606
O O11 0.119874 0.493833 0.180331
O O12 0.250000 0.250000 0.750000
O O13 0.000000 0.256937 0.750000
O O14 0.939033 0.215703 0.500000
O O15 0.883572 0.125321 0.420443
O O16 0.000000 0.000000 0.876249
#
# Coordination Sequence:
#
# PCOD8294815 Si02
#       7
#    16  16  16  16   8  16  16
#     4  12  24  42  66  94 133 174 227 276 335 397
#     4  10  21  41  66  95 130 169 217 274 337 404
#     4  12  21  43  65  93 129 176 221 262 334 402
#     4  12  26  43  67  99 135 177 223 279 336 409
#     4  12  23  42  67  88 124 182 219 264 321 410
#     4  10  23  42  67  96 131 173 220 279 345 401
#     4  10  21  40  68  99 131 173 220 276 335 411
#
# _framework density 21.143723999999999
#
# number of rings (size 3 to 8) (size 9 to 14) (size 15 to 20)
#    0.000    0.923    4.615    2.077    2.154    3.385 
#    2.769    1.538    0.000    0.000    0.000    0.000 
#    0.000    0.000    0.000    0.000    0.000    0.000 
#
# Total GULP energy -644582.080492 kJ/mol
# GULP energy per Si atom -12395.809240 kJ/mol
# Density = 2.109560 g / cm^3
# Si number density = 21.143724 Si / 1000 Ang^3
#
#
#
# Elastic Constant Matrix: (Units=GPa)
#
#
# Indices 1 2 3 4 5 6 
#
# 1 70.8162 15.8714 45.0521 0.0000 0.0000 0.0000
# 2 15.8714 108.3027 43.7477 0.0000 0.0000 0.0000
# 3 45.0521 43.7477 151.4371 0.0000 0.0000 0.0000
# 4 0.0000 0.0000 0.0000 27.6746 0.0000 0.0000
# 5 0.0000 0.0000 0.0000 0.0000 31.3512 0.0000
# 6 0.0000 0.0000 0.0000 0.0000 0.0000 26.2481
#
#
#
# Elastic Compliance Matrix: (Units=1/GPa)
#
#
# Indices 1 2 3 4 5 6 
#
# 1 0.017443 -0.000521 -0.005039 0.000000 0.000000 0.000000
# 2 -0.000521 0.010469 -0.002869 0.000000 0.000000 0.000000
# 3 -0.005039 -0.002869 0.008931 0.000000 0.000000 0.000000
# 4 0.000000 0.000000 0.000000 0.036134 0.000000 0.000000
# 5 0.000000 0.000000 0.000000 0.000000 0.031897 0.000000
# 6 0.000000 0.000000 0.000000 0.000000 0.000000 0.038098
#
#
# Mechanical properties :
#
#
# Convention : Reuss Voigt Hill
#
# Bulk Modulus (GPa) = 50.03649 59.98871 55.01260
# Shear Modulus (GPa) = 30.03141 32.11378 31.07260
#
# Velocity S-wave (km/s) = 3.77284 3.90145 3.83768
# Velocity P-wave (km/s) = 6.53417 6.98058 6.76106
#
# Compressibility (1/GPa) = 0.01998541
#
# Stress axis : x y z
#
# Youngs Moduli (GPa) = 57.32804 95.52260 111.96513
#
# Poissons Ratio (x) = 0.04976 0.56418
# Poissons Ratio (y) = 0.02986 0.32126
# Poissons Ratio (z) = 0.28887 0.27408
#
# Static dielectric constant tensor:
#      x y z
#    x 3.645660 0.000000 0.000000 
#    y 0.000000 3.902970 0.000000 
#    z 0.000000 0.000000 4.167740 
# 
# 
# High freq. dielectric constant tensor:
#      x y z
#    x 1.817260 0.000000 0.000000 
#    y 0.000000 1.829310 0.000000 
#    z 0.000000 0.000000 1.841050 
# 
# From -- ./inp_files/48160.got.cif
#   From: 2010.03.12/outbox.cif.g09.slc.cpg/sg72_25_cif.got.tgz:48160.got - 2010.04.16 14:54:00.
