data_PCOD8294015
_publ_section_title
;
Structure prediction by ZEFSAII (Michael W. Deem and Ramdas Pophale) SiO2 
 PCOD8294015
Probable space group: I B A M
;
_chemical_formula_sum "Si O2"
_cell_formula_units_Z 112
_cell_length_a 17.645284
_cell_length_b 18.885231
_cell_length_c 18.682413
_cell_angle_alpha 90.000000
_cell_angle_beta 90.000000
_cell_angle_gamma 90.000000
_cell_volume 6225.638836
_symmetry_space_group_name_H-M "I B A M"
_symmetry_group_IT_number 72
_symmetry_cell_setting 'orthorhombic'
loop_
_space_group_symop_operation_xyz
x,y,z
-x,-y,z
x,-y,1/2-z
-x,y,1/2-z
-x,-y,-z
x,y,-z
-x,y,1/2+z
x,-y,1/2+z
1/2+x,1/2+y,1/2+z
1/2-x,1/2-y,1/2+z
1/2+x,1/2-y,-z
1/2-x,1/2+y,-z
1/2-x,1/2-y,1/2-z
1/2+x,1/2+y,1/2-z
1/2-x,1/2+y,z
1/2+x,1/2-y,z
loop_
_atom_site_type_symbol
_atom_site_label
_atom_site_fract_x
_atom_site_fract_y
_atom_site_fract_z
Si Si1 0.147106 0.430685 0.834493
Si Si2 0.359162 0.906368 0.331960
Si Si3 0.988600 0.332727 0.665372
Si Si4 0.434808 0.303390 0.582508
Si Si5 0.206661 0.050053 0.582270
Si Si6 0.957014 0.933520 0.582820
Si Si7 0.716636 0.384005 0.082184
O O1 0.129101 0.511985 0.853440
O O2 0.155861 0.408309 0.752363
O O3 0.075765 0.386510 0.862579
O O4 0.226088 0.412621 0.873395
O O5 0.431074 0.862734 0.361325
O O6 0.288775 0.866810 0.368889
O O7 0.964381 0.258187 0.633191
O O8 0.000000 0.326226 0.750000
O O9 0.432743 0.278406 0.500000
O O10 0.495178 0.364217 0.594391
O O11 0.352855 0.333609 0.606181
O O12 0.222017 0.069799 0.500000
O O13 0.127435 0.080518 0.613448
O O14 0.197286 0.966097 0.593215
O O15 0.944758 0.953572 0.500000
O O16 0.000000 0.000000 0.619968
O O17 0.737222 0.368616 0.000000
#
# Coordination Sequence:
#
# PCOD8294015 Si02
#       7
#    16  16  16  16  16  16  16
#     4   9  18  34  56  80 103 136 176 224 267 308
#     4   9  18  35  58  78 100 136 181 221 264 321
#     4  10  21  38  53  75 106 144 181 217 263 317
#     4  10  20  35  54  75 106 143 174 213 264 317
#     4   9  16  29  53  82 106 130 171 217 263 313
#     4   9  15  29  54  77 100 136 176 212 254 310
#     4   9  17  32  54  78 103 132 169 218 269 312
#
# _framework density 17.990122
#
# number of rings (size 3 to 8) (size 9 to 14) (size 15 to 20)
#    0.000    2.714    1.429    0.429    0.000    2.857 
#    5.143    1.429    0.000    4.714    0.000    0.000 
#    0.000    0.000    0.000    0.000    0.000    0.000 
#
# Total GULP energy -693977.433128 kJ/mol
# GULP energy per Si atom -12392.454163 kJ/mol
# Density = 1.794918 g / cm^3
# Si number density = 17.990122 Si / 1000 Ang^3
#
#
#
# Elastic Constant Matrix: (Units=GPa)
#
#
# Indices 1 2 3 4 5 6 
#
# 1 188.5923 56.2873 49.5466 0.0000 0.0000 0.0000
# 2 56.2873 47.0963 27.5823 0.0000 0.0000 0.0000
# 3 49.5466 27.5823 29.2712 0.0000 0.0000 0.0000
# 4 0.0000 0.0000 0.0000 26.1437 0.0000 0.0000
# 5 0.0000 0.0000 0.0000 0.0000 26.3709 0.0000
# 6 0.0000 0.0000 0.0000 0.0000 0.0000 29.3591
#
#
#
# Elastic Compliance Matrix: (Units=1/GPa)
#
#
# Indices 1 2 3 4 5 6 
#
# 1 0.009964 -0.004532 -0.012596 0.000000 0.000000 0.000000
# 2 -0.004532 0.049443 -0.038919 0.000000 0.000000 0.000000
# 3 -0.012596 -0.038919 0.092157 0.000000 0.000000 0.000000
# 4 0.000000 0.000000 0.000000 0.038250 0.000000 0.000000
# 5 0.000000 0.000000 0.000000 0.000000 0.037921 0.000000
# 6 0.000000 0.000000 0.000000 0.000000 0.000000 0.034061
#
#
# Mechanical properties :
#
#
# Convention : Reuss Voigt Hill
#
# Bulk Modulus (GPa) = 25.33511 59.08802 42.21157
# Shear Modulus (GPa) = 12.91842 25.14433 19.03137
#
# Velocity S-wave (km/s) = 2.68262 3.74260 3.25603
# Velocity P-wave (km/s) = 4.86915 7.18277 6.13599
#
# Compressibility (1/GPa) = 0.03947092
#
# Stress axis : x y z
#
# Youngs Moduli (GPa) = 100.35993 20.22547 10.85109
#
# Poissons Ratio (x) = 0.09166 0.13668
# Poissons Ratio (y) = 0.45483 0.42231
# Poissons Ratio (z) = 1.26409 0.78715
#
# Static dielectric constant tensor:
#      x y z
#    x 3.746220 0.000000 0.000000 
#    y 0.000000 3.134320 0.000000 
#    z 0.000000 0.000000 3.123460 
# 
# 
# High freq. dielectric constant tensor:
#      x y z
#    x 1.718220 0.000000 0.000000 
#    y 0.000000 1.679410 0.000000 
#    z 0.000000 0.000000 1.668230 
# 
# From -- ./inp_files/39189.got.cif
#   From: 2010.03.12/outbox.cif.g09.slc.cpg/sg72_20_cif.got.tgz:39189.got - 2010.04.16 14:54:00.
