data_PCOD8294070
_publ_section_title
;
Structure prediction by ZEFSAII (Michael W. Deem and Ramdas Pophale) SiO2 
 PCOD8294070
Probable space group: I B A M
;
_chemical_formula_sum "Si O2"
_cell_formula_units_Z 100
_cell_length_a 27.734247
_cell_length_b 20.656434
_cell_length_c 9.185307
_cell_angle_alpha 90.000000
_cell_angle_beta 90.000000
_cell_angle_gamma 90.000000
_cell_volume 5262.176431
_symmetry_space_group_name_H-M "I B A M"
_symmetry_group_IT_number 72
_symmetry_cell_setting 'orthorhombic'
loop_
_space_group_symop_operation_xyz
x,y,z
-x,-y,z
x,-y,1/2-z
-x,y,1/2-z
-x,-y,-z
x,y,-z
-x,y,1/2+z
x,-y,1/2+z
1/2+x,1/2+y,1/2+z
1/2-x,1/2-y,1/2+z
1/2+x,1/2-y,-z
1/2-x,1/2+y,-z
1/2-x,1/2-y,1/2-z
1/2+x,1/2+y,1/2-z
1/2-x,1/2+y,z
1/2+x,1/2-y,z
loop_
_atom_site_type_symbol
_atom_site_label
_atom_site_fract_x
_atom_site_fract_y
_atom_site_fract_z
Si Si1 0.726678 0.309421 0.829524
Si Si2 0.895755 0.567172 0.672447
Si Si3 0.449745 0.817113 0.173015
Si Si4 0.115680 0.805870 0.667120
Si Si5 0.456694 0.376769 0.840125
Si Si6 0.784483 0.565524 0.669064
Si Si7 0.000000 0.000000 0.250000
O O1 0.750000 0.250000 0.750000
O O2 0.670970 0.304814 0.787903
O O3 0.750353 0.376466 0.774027
O O4 0.735830 0.301727 0.000000
O O5 0.908475 0.500000 0.750000
O O6 0.907034 0.563507 0.500000
O O7 0.929416 0.619143 0.750244
O O8 0.839836 0.584782 0.700822
O O9 0.500000 0.798631 0.250000
O O10 0.410727 0.761185 0.204572
O O11 0.456811 0.828145 0.000000
O O12 0.108852 0.824499 0.500000
O O13 0.093415 0.863976 0.760736
O O14 0.500000 0.342205 0.750000
O O15 0.465943 0.454194 0.849051
O O16 0.455992 0.346086 0.000000
O O17 0.769389 0.500000 0.750000
O O18 0.776034 0.552303 0.500000
#
# Coordination Sequence:
#
# PCOD8294070 Si02
#       7
#    16  16  16  16  16  16   4
#     4  10  21  38  59  85 115 150 190 239 286 337
#     4  10  20  36  59  85 112 146 183 226 274 333
#     4  11  23  38  56  81 111 147 185 229 280 332
#     4  10  22  38  57  82 116 151 189 237 285 331
#     4  10  20  35  57  81 110 146 188 231 278 332
#     4   9  19  36  58  84 116 150 187 229 279 331
#     4   8  22  36  58  84 110 148 192 232 278 328
#
# _framework density 19.003543000000001
#
# number of rings (size 3 to 8) (size 9 to 14) (size 15 to 20)
#    0.480    1.600    0.000    3.120    0.000    4.800 
#    1.440    1.600    0.000    0.000    0.000    0.000 
#    0.000    0.000    0.000    0.000    0.000    0.000 
#
# Total GULP energy -619888.700869 kJ/mol
# GULP energy per Si atom -12397.774017 kJ/mol
# Density = 1.896029 g / cm^3
# Si number density = 19.003543 Si / 1000 Ang^3
#
#
#
# Elastic Constant Matrix: (Units=GPa)
#
#
# Indices 1 2 3 4 5 6 
#
# 1 116.8431 64.3023 63.0411 0.0000 0.0000 0.0000
# 2 64.3023 116.4063 50.6440 0.0000 0.0000 0.0000
# 3 63.0411 50.6440 94.9085 0.0000 0.0000 0.0000
# 4 0.0000 0.0000 0.0000 28.7795 0.0000 0.0000
# 5 0.0000 0.0000 0.0000 0.0000 29.5227 0.0000
# 6 0.0000 0.0000 0.0000 0.0000 0.0000 40.3497
#
#
#
# Elastic Compliance Matrix: (Units=1/GPa)
#
#
# Indices 1 2 3 4 5 6 
#
# 1 0.015516 -0.005323 -0.007466 0.000000 0.000000 0.000000
# 2 -0.005323 0.013014 -0.003409 0.000000 0.000000 0.000000
# 3 -0.007466 -0.003409 0.017314 0.000000 0.000000 0.000000
# 4 0.000000 0.000000 0.000000 0.034747 0.000000 0.000000
# 5 0.000000 0.000000 0.000000 0.000000 0.033872 0.000000
# 6 0.000000 0.000000 0.000000 0.000000 0.000000 0.024783
#
#
# Mechanical properties :
#
#
# Convention : Reuss Voigt Hill
#
# Bulk Modulus (GPa) = 74.35252 76.01473 75.18363
# Shear Modulus (GPa) = 28.38897 29.74173 29.06535
#
# Velocity S-wave (km/s) = 3.86926 3.96038 3.91509
# Velocity P-wave (km/s) = 7.69234 7.81025 7.75152
#
# Compressibility (1/GPa) = 0.01344944
#
# Stress axis : x y z
#
# Youngs Moduli (GPa) = 64.45016 76.84081 57.75527
#
# Poissons Ratio (x) = 0.40901 0.43119
# Poissons Ratio (y) = 0.34306 0.19687
# Poissons Ratio (z) = 0.48117 0.26193
#
# Static dielectric constant tensor:
#      x y z
#    x 3.118320 0.000000 0.000000 
#    y 0.000000 3.357120 0.000000 
#    z 0.000000 0.000000 3.496110 
# 
# 
# High freq. dielectric constant tensor:
#      x y z
#    x 1.737760 0.000000 0.000000 
#    y 0.000000 1.739970 0.000000 
#    z 0.000000 0.000000 1.742940 
# 
# From -- ./inp_files/8173.got.cif
#   From: 2010.03.12/outbox.cif.g09.slc.cpg/sg72_5_cif.got.tgz:8173.got - 2010.04.16 14:54:00.
