data_PCOD8294252
_publ_section_title
;
Structure prediction by ZEFSAII (Michael W. Deem and Ramdas Pophale) SiO2 
 PCOD8294252
Probable space group: I B A M
;
_chemical_formula_sum "Si O2"
_cell_formula_units_Z 128
_cell_length_a 23.815129
_cell_length_b 11.440008
_cell_length_c 24.102535
_cell_angle_alpha 90.000000
_cell_angle_beta 90.000000
_cell_angle_gamma 90.000000
_cell_volume 6566.621566
_symmetry_space_group_name_H-M "I B A M"
_symmetry_group_IT_number 72
_symmetry_cell_setting 'orthorhombic'
loop_
_space_group_symop_operation_xyz
x,y,z
-x,-y,z
x,-y,1/2-z
-x,y,1/2-z
-x,-y,-z
x,y,-z
-x,y,1/2+z
x,-y,1/2+z
1/2+x,1/2+y,1/2+z
1/2-x,1/2-y,1/2+z
1/2+x,1/2-y,-z
1/2-x,1/2+y,-z
1/2-x,1/2-y,1/2-z
1/2+x,1/2+y,1/2-z
1/2-x,1/2+y,z
1/2+x,1/2-y,z
loop_
_atom_site_type_symbol
_atom_site_label
_atom_site_fract_x
_atom_site_fract_y
_atom_site_fract_z
Si Si1 0.836540 0.577039 0.329448
Si Si2 0.469051 0.619106 0.869166
Si Si3 0.659635 0.628080 0.061869
Si Si4 0.180912 0.330305 0.208915
Si Si5 0.357746 0.359531 0.562595
Si Si6 0.076840 0.761924 0.148644
Si Si7 0.101994 0.124840 0.235791
Si Si8 0.250380 0.733926 0.120510
O O1 0.813057 0.627214 0.271486
O O2 0.845052 0.437865 0.327380
O O3 0.897432 0.631365 0.346016
O O4 0.788578 0.618085 0.373010
O O5 0.500000 0.500000 0.888843
O O6 0.418980 0.651081 0.910493
O O7 0.512215 0.730045 0.871126
O O8 0.448482 0.599208 0.806453
O O9 0.664952 0.490123 0.062965
O O10 0.612746 0.664800 0.105249
O O11 0.719870 0.678147 0.078933
O O12 0.643883 0.672481 0.000000
O O13 0.143651 0.213668 0.205048
O O14 0.240783 0.296894 0.180877
O O15 0.362100 0.311236 0.500000
O O16 0.312155 0.286225 0.596493
O O17 0.078318 0.820922 0.208431
O O18 0.131741 0.000000 0.250000
#
# Coordination Sequence:
#
# PCOD8294252 Si02
#       8
#    16  16  16  16  16  16  16  16
#     4   9  21  38  56  86 121 158 200 239 293 366
#     4  12  21  36  58  89 121 156 194 249 300 354
#     4  10  21  37  56  80 114 152 197 246 298 353
#     4  10  20  37  57  84 123 159 192 244 297 358
#     4  11  23  37  56  88 119 151 199 250 306 357
#     4  10  21  35  58  85 117 154 194 238 297 350
#     4  11  20  34  57  88 121 156 193 239 292 363
#     4  11  20  37  58  82 114 156 201 248 296 353
#
# _framework density 19.492519999999999
#
# number of rings (size 3 to 8) (size 9 to 14) (size 15 to 20)
#    0.000    1.500    3.750    1.875    0.000    0.750 
#    4.500    0.625    0.000    3.750    0.000    0.875 
#    0.000    0.000    0.000    0.000    0.000    0.000 
#
# Total GULP energy -793292.866030 kJ/mol
# GULP energy per Si atom -12395.201032 kJ/mol
# Density = 1.944815 g / cm^3
# Si number density = 19.492520 Si / 1000 Ang^3
#
#
#
# Elastic Constant Matrix: (Units=GPa)
#
#
# Indices 1 2 3 4 5 6 
#
# 1 113.5217 47.9034 45.3154 0.0000 0.0000 0.0000
# 2 47.9034 97.2491 5.0332 0.0000 0.0000 0.0000
# 3 45.3154 5.0332 79.9002 0.0000 0.0000 0.0000
# 4 0.0000 0.0000 0.0000 22.0177 0.0000 0.0000
# 5 0.0000 0.0000 0.0000 0.0000 4.2933 0.0000
# 6 0.0000 0.0000 0.0000 0.0000 0.0000 27.3018
#
#
#
# Elastic Compliance Matrix: (Units=1/GPa)
#
#
# Indices 1 2 3 4 5 6 
#
# 1 0.014951 -0.006948 -0.008042 0.000000 0.000000 0.000000
# 2 -0.006948 0.013546 0.003088 0.000000 0.000000 0.000000
# 3 -0.008042 0.003088 0.016882 0.000000 0.000000 0.000000
# 4 0.000000 0.000000 0.000000 0.045418 0.000000 0.000000
# 5 0.000000 0.000000 0.000000 0.000000 0.232921 0.000000
# 6 0.000000 0.000000 0.000000 0.000000 0.000000 0.036628
#
#
# Mechanical properties :
#
#
# Convention : Reuss Voigt Hill
#
# Bulk Modulus (GPa) = 46.35334 54.13054 50.24194
# Shear Modulus (GPa) = 12.77654 23.55051 18.16352
#
# Velocity S-wave (km/s) = 2.56297 3.47966 3.05588
# Velocity P-wave (km/s) = 5.70877 6.63131 6.18726
#
# Compressibility (1/GPa) = 0.02157342
#
# Stress axis : x y z
#
# Youngs Moduli (GPa) = 66.88481 73.82381 59.23457
#
# Poissons Ratio (x) = 0.51296 0.47635
# Poissons Ratio (y) = 0.46475 -0.18289
# Poissons Ratio (z) = 0.53787 -0.22793
#
# Static dielectric constant tensor:
#      x y z
#    x 3.512800 0.000000 0.000000 
#    y 0.000000 3.598500 0.000000 
#    z 0.000000 0.000000 3.685610 
# 
# 
# High freq. dielectric constant tensor:
#      x y z
#    x 1.751670 0.000000 0.000000 
#    y 0.000000 1.744630 0.000000 
#    z 0.000000 0.000000 1.762290 
# 
# From -- ./inp_files/45791.got.cif
#   From: 2010.03.12/outbox.cif.g09.slc.cpg/sg72_23_cif.got.tgz:45791.got - 2010.04.16 14:54:00.
