data_PCOD8294703
_publ_section_title
;
Structure prediction by ZEFSAII (Michael W. Deem and Ramdas Pophale) SiO2 
 PCOD8294703
Probable space group: I B A M
;
_chemical_formula_sum "Si O2"
_cell_formula_units_Z 68
_cell_length_a 4.998245
_cell_length_b 26.490643
_cell_length_c 25.749979
_cell_angle_alpha 90.000000
_cell_angle_beta 90.000000
_cell_angle_gamma 90.000000
_cell_volume 3409.470360
_symmetry_space_group_name_H-M "I B A M"
_symmetry_group_IT_number 72
_symmetry_cell_setting 'orthorhombic'
loop_
_space_group_symop_operation_xyz
x,y,z
-x,-y,z
x,-y,1/2-z
-x,y,1/2-z
-x,-y,-z
x,y,-z
-x,y,1/2+z
x,-y,1/2+z
1/2+x,1/2+y,1/2+z
1/2-x,1/2-y,1/2+z
1/2+x,1/2-y,-z
1/2-x,1/2+y,-z
1/2-x,1/2-y,1/2-z
1/2+x,1/2+y,1/2-z
1/2-x,1/2+y,z
1/2+x,1/2-y,z
loop_
_atom_site_type_symbol
_atom_site_label
_atom_site_fract_x
_atom_site_fract_y
_atom_site_fract_z
Si Si1 0.899234 0.444908 0.440069
Si Si2 0.256896 0.095757 0.217536
Si Si3 0.394215 0.390187 0.398490
Si Si4 0.500000 0.000000 0.250000
Si Si5 0.058772 0.218563 0.061076
O O1 0.805420 0.445500 0.500000
O O2 0.146698 0.406519 0.434586
O O3 0.000000 0.500000 0.421844
O O4 0.645123 0.428553 0.404836
O O5 0.500000 0.122017 0.250000
O O6 0.218224 0.114569 0.159526
O O7 0.000000 0.109470 0.250000
O O8 0.312683 0.035345 0.213937
O O9 0.498242 0.335200 0.413502
O O10 0.339919 0.240959 0.079577
O O11 0.041528 0.210364 0.000000
#
# Coordination Sequence:
#
# PCOD8294703 Si02
#       5
#    16  16  16   4  16
#     4  11  24  38  55  88 129 164 202 242 300 386
#     4  10  22  38  58  86 118 152 207 259 299 355
#     4  12  23  39  65  87 121 169 207 255 316 372
#     4   8  22  36  58  80 116 152 206 256 286 340
#     4  10  21  38  62  90 119 155 207 265 314 367
#
# _framework density 19.944448000000001
#
# number of rings (size 3 to 8) (size 9 to 14) (size 15 to 20)
#    0.706    0.706    0.000    6.000    1.647    5.647 
#    0.000    0.000    0.000    4.235    0.000    0.000 
#    0.000    0.000    0.000    0.000    0.000    0.000 
#
# Total GULP energy -421526.759874 kJ/mol
# GULP energy per Si atom -12397.845879 kJ/mol
# Density = 1.989905 g / cm^3
# Si number density = 19.944448 Si / 1000 Ang^3
#
#
#
# Elastic Constant Matrix: (Units=GPa)
#
#
# Indices 1 2 3 4 5 6 
#
# 1 135.1049 30.7616 48.1549 0.0000 0.0000 0.0000
# 2 30.7616 90.9983 38.9002 0.0000 0.0000 0.0000
# 3 48.1549 38.9002 86.0562 0.0000 0.0000 0.0000
# 4 0.0000 0.0000 0.0000 30.3595 0.0000 0.0000
# 5 0.0000 0.0000 0.0000 0.0000 22.7648 0.0000
# 6 0.0000 0.0000 0.0000 0.0000 0.0000 41.4902
#
#
#
# Elastic Compliance Matrix: (Units=1/GPa)
#
#
# Indices 1 2 3 4 5 6 
#
# 1 0.009341 -0.001144 -0.004710 0.000000 0.000000 0.000000
# 2 -0.001144 0.013762 -0.005580 0.000000 0.000000 0.000000
# 3 -0.004710 -0.005580 0.016778 0.000000 0.000000 0.000000
# 4 0.000000 0.000000 0.000000 0.032939 0.000000 0.000000
# 5 0.000000 0.000000 0.000000 0.000000 0.043927 0.000000
# 6 0.000000 0.000000 0.000000 0.000000 0.000000 0.024102
#
#
# Mechanical properties :
#
#
# Convention : Reuss Voigt Hill
#
# Bulk Modulus (GPa) = 58.78203 60.86586 59.82395
# Shear Modulus (GPa) = 29.51806 31.87910 30.69858
#
# Velocity S-wave (km/s) = 3.85127 4.00233 3.92753
# Velocity P-wave (km/s) = 7.02234 7.20709 7.11531
#
# Compressibility (1/GPa) = 0.01701200
#
# Stress axis : x y z
#
# Youngs Moduli (GPa) = 107.05679 72.66625 59.60121
#
# Poissons Ratio (x) = 0.08316 0.28070
# Poissons Ratio (y) = 0.12251 0.33259
# Poissons Ratio (z) = 0.50420 0.40550
#
# Static dielectric constant tensor:
#      x y z
#    x 3.804360 0.000000 0.000000 
#    y 0.000000 3.410260 0.000000 
#    z 0.000000 0.000000 3.309930 
# 
# 
# High freq. dielectric constant tensor:
#      x y z
#    x 1.798700 0.000000 0.000000 
#    y 0.000000 1.757300 0.000000 
#    z 0.000000 0.000000 1.761490 
# 
# From -- ./inp_files/46638.got.cif
#   From: 2010.03.12/outbox.cif.g09.slc.cpg/sg72_24_cif.got.tgz:46638.got - 2010.04.16 14:54:00.
