data_PCOD8294777
_publ_section_title
;
Structure prediction by ZEFSAII (Michael W. Deem and Ramdas Pophale) SiO2 
 PCOD8294777
Probable space group: I B A M
;
_chemical_formula_sum "Si O2"
_cell_formula_units_Z 88
_cell_length_a 5.242325
_cell_length_b 27.002393
_cell_length_c 25.482334
_cell_angle_alpha 90.000000
_cell_angle_beta 90.000000
_cell_angle_gamma 90.000000
_cell_volume 3607.159941
_symmetry_space_group_name_H-M "I B A M"
_symmetry_group_IT_number 72
_symmetry_cell_setting 'orthorhombic'
loop_
_space_group_symop_operation_xyz
x,y,z
-x,-y,z
x,-y,1/2-z
-x,y,1/2-z
-x,-y,-z
x,y,-z
-x,y,1/2+z
x,-y,1/2+z
1/2+x,1/2+y,1/2+z
1/2-x,1/2-y,1/2+z
1/2+x,1/2-y,-z
1/2-x,1/2+y,-z
1/2-x,1/2-y,1/2-z
1/2+x,1/2+y,1/2-z
1/2-x,1/2+y,z
1/2+x,1/2-y,z
loop_
_atom_site_type_symbol
_atom_site_label
_atom_site_fract_x
_atom_site_fract_y
_atom_site_fract_z
Si Si1 0.820062 0.877551 0.152836
Si Si2 0.554081 0.272044 0.189391
Si Si3 0.254263 0.034333 0.500000
Si Si4 0.736213 0.726707 0.940464
Si Si5 0.250252 0.520721 0.808240
Si Si6 0.686198 0.883524 0.587369
O O1 0.822571 0.826012 0.183438
O O2 0.750850 0.920018 0.194686
O O3 0.605443 0.880745 0.107627
O O4 0.104500 0.888267 0.132734
O O5 0.500000 0.258815 0.250000
O O6 0.268964 0.265822 0.164196
O O7 0.268544 0.069618 0.550413
O O8 0.500000 0.000000 0.500000
O O9 0.000000 0.000000 0.500000
O O10 0.471536 0.743828 0.912226
O O11 0.763725 0.667912 0.942340
O O12 0.719294 0.746831 0.000000
O O13 0.500000 0.500000 0.838501
O O14 0.247862 0.500000 0.750000
O O15 0.000000 0.500000 0.838655
#
# Coordination Sequence:
#
# PCOD8294777 Si02
#       6
#    16  16   8  16  16  16
#     4  12  26  41  72 102 139 176 227 290 339 399
#     4  10  23  44  67 100 141 188 231 269 339 430
#     4  12  28  50  74  92 138 196 230 288 358 406
#     4  10  21  39  66  96 132 175 216 269 334 395
#     4  10  23  43  65  96 126 169 216 279 345 404
#     4  12  26  45  67 106 136 177 237 279 335 424
#
# _framework density 24.395925999999999
#
# number of rings (size 3 to 8) (size 9 to 14) (size 15 to 20)
#    0.000    1.091    0.909    4.364    2.545    8.727 
#    6.545    0.000    0.000    0.000    0.000    0.000 
#    0.000    0.000    0.000    0.000    0.000    0.000 
#
# Total GULP energy -545490.733586 kJ/mol
# GULP energy per Si atom -12397.516672 kJ/mol
# Density = 2.434040 g / cm^3
# Si number density = 24.395926 Si / 1000 Ang^3
#
#
#
# Elastic Constant Matrix: (Units=GPa)
#
#
# Indices 1 2 3 4 5 6 
#
# 1 231.4809 79.2630 34.8255 0.0000 0.0000 0.0000
# 2 79.2630 196.8395 19.9061 0.0000 0.0000 0.0000
# 3 34.8255 19.9061 35.3092 0.0000 0.0000 0.0000
# 4 0.0000 0.0000 0.0000 41.1799 0.0000 0.0000
# 5 0.0000 0.0000 0.0000 0.0000 27.4646 0.0000
# 6 0.0000 0.0000 0.0000 0.0000 0.0000 50.2206
#
#
#
# Elastic Compliance Matrix: (Units=1/GPa)
#
#
# Indices 1 2 3 4 5 6 
#
# 1 0.005619 -0.001805 -0.004524 0.000000 0.000000 0.000000
# 2 -0.001805 0.005967 -0.001584 0.000000 0.000000 0.000000
# 3 -0.004524 -0.001584 0.033676 0.000000 0.000000 0.000000
# 4 0.000000 0.000000 0.000000 0.024284 0.000000 0.000000
# 5 0.000000 0.000000 0.000000 0.000000 0.036410 0.000000
# 6 0.000000 0.000000 0.000000 0.000000 0.000000 0.019912
#
#
# Mechanical properties :
#
#
# Convention : Reuss Voigt Hill
#
# Bulk Modulus (GPa) = 33.97171 81.29101 57.63136
# Shear Modulus (GPa) = 33.00183 45.74869 39.37526
#
# Velocity S-wave (km/s) = 3.68198 4.33512 4.02183
# Velocity P-wave (km/s) = 5.65962 7.64537 6.72618
#
# Compressibility (1/GPa) = 0.02943626
#
# Stress axis : x y z
#
# Youngs Moduli (GPa) = 177.97640 167.58010 29.69448
#
# Poissons Ratio (x) = 0.30249 0.13434
# Poissons Ratio (y) = 0.32125 0.04703
# Poissons Ratio (z) = 0.80519 0.26542
#
# Static dielectric constant tensor:
#      x y z
#    x 4.681710 0.000000 0.000000 
#    y 0.000000 4.459300 0.000000 
#    z 0.000000 0.000000 4.117970 
# 
# 
# High freq. dielectric constant tensor:
#      x y z
#    x 2.010000 0.000000 0.000000 
#    y 0.000000 1.973810 0.000000 
#    z 0.000000 0.000000 1.965760 
# 
# From -- ./inp_files/50304.got.cif
#   From: 2010.03.12/outbox.cif.g09.slc.cpg/sg72_26_cif.got.tgz:50304.got - 2010.04.16 14:54:00.
