data_PCOD8294875
_publ_section_title
;
Structure prediction by ZEFSAII (Michael W. Deem and Ramdas Pophale) SiO2 
 PCOD8294875
Probable space group: I B A M
;
_chemical_formula_sum "Si O2"
_cell_formula_units_Z 112
_cell_length_a 28.163707
_cell_length_b 10.461419
_cell_length_c 19.574540
_cell_angle_alpha 90.000000
_cell_angle_beta 90.000000
_cell_angle_gamma 90.000000
_cell_volume 5767.292515
_symmetry_space_group_name_H-M "I B A M"
_symmetry_group_IT_number 72
_symmetry_cell_setting 'orthorhombic'
loop_
_space_group_symop_operation_xyz
x,y,z
-x,-y,z
x,-y,1/2-z
-x,y,1/2-z
-x,-y,-z
x,y,-z
-x,y,1/2+z
x,-y,1/2+z
1/2+x,1/2+y,1/2+z
1/2-x,1/2-y,1/2+z
1/2+x,1/2-y,-z
1/2-x,1/2+y,-z
1/2-x,1/2-y,1/2-z
1/2+x,1/2+y,1/2-z
1/2-x,1/2+y,z
1/2+x,1/2-y,z
loop_
_atom_site_type_symbol
_atom_site_label
_atom_site_fract_x
_atom_site_fract_y
_atom_site_fract_z
Si Si1 0.355921 0.279835 0.678431
Si Si2 0.563641 0.628325 0.576596
Si Si3 0.375237 0.246893 0.162017
Si Si4 0.706980 0.659509 0.076250
Si Si5 0.736850 0.599756 0.369697
Si Si6 0.958241 0.831784 0.423521
Si Si7 0.668588 0.996861 0.325108
O O1 0.398633 0.331804 0.633087
O O2 0.372567 0.269502 0.756718
O O3 0.310477 0.372668 0.674024
O O4 0.339874 0.144166 0.645198
O O5 0.582252 0.661732 0.500000
O O6 0.513555 0.698914 0.590670
O O7 0.553483 0.479851 0.582300
O O8 0.338430 0.343664 0.126209
O O9 0.428543 0.262479 0.135444
O O10 0.360789 0.105337 0.135078
O O11 0.728585 0.515954 0.076790
O O12 0.745497 0.768633 0.095463
O O13 0.689171 0.687756 0.000000
O O14 0.776797 0.542604 0.319599
O O15 0.944919 0.783921 0.500000
O O16 0.647013 0.000000 0.250000
#
# Coordination Sequence:
#
# PCOD8294875 Si02
#       7
#    16  16  16  16  16  16  16
#     4  11  22  38  58  87 116 150 200 240 293 351
#     4   9  20  37  61  86 116 150 184 238 297 348
#     4  10  22  36  59  84 113 154 191 241 290 343
#     4  11  23  37  54  82 113 151 198 239 289 344
#     4  11  22  37  59  79 113 157 194 245 290 341
#     4   9  18  38  61  86 116 150 188 233 294 352
#     4   9  21  38  55  79 116 154 193 236 291 348
#
# _framework density 19.419858000000001
#
# number of rings (size 3 to 8) (size 9 to 14) (size 15 to 20)
#    0.000    2.000    1.429    2.571    2.000    6.286 
#    0.000    3.571    0.000    4.286    0.000    0.000 
#    0.000    0.000    0.000    0.000    0.000    0.000 
#
# Total GULP energy -693930.910486 kJ/mol
# GULP energy per Si atom -12391.623402 kJ/mol
# Density = 1.937566 g / cm^3
# Si number density = 19.419858 Si / 1000 Ang^3
#
#
#
# Elastic Constant Matrix: (Units=GPa)
#
#
# Indices 1 2 3 4 5 6 
#
# 1 118.0470 28.8214 53.4654 0.0000 0.0000 0.0000
# 2 28.8214 65.2740 19.5401 0.0000 0.0000 0.0000
# 3 53.4654 19.5401 103.9257 0.0000 0.0000 0.0000
# 4 0.0000 0.0000 0.0000 17.8512 0.0000 0.0000
# 5 0.0000 0.0000 0.0000 0.0000 30.2690 0.0000
# 6 0.0000 0.0000 0.0000 0.0000 0.0000 24.4142
#
#
#
# Elastic Compliance Matrix: (Units=1/GPa)
#
#
# Indices 1 2 3 4 5 6 
#
# 1 0.011789 -0.003592 -0.005390 0.000000 0.000000 0.000000
# 2 -0.003592 0.017328 -0.001410 0.000000 0.000000 0.000000
# 3 -0.005390 -0.001410 0.012660 0.000000 0.000000 0.000000
# 4 0.000000 0.000000 0.000000 0.056019 0.000000 0.000000
# 5 0.000000 0.000000 0.000000 0.000000 0.033037 0.000000
# 6 0.000000 0.000000 0.000000 0.000000 0.000000 0.040960
#
#
# Mechanical properties :
#
#
# Convention : Reuss Voigt Hill
#
# Bulk Modulus (GPa) = 47.63279 54.54450 51.08865
# Shear Modulus (GPa) = 25.05323 26.86819 25.96071
#
# Velocity S-wave (km/s) = 3.59567 3.72363 3.66021
# Velocity P-wave (km/s) = 6.46681 6.82900 6.65037
#
# Compressibility (1/GPa) = 0.02099394
#
# Stress axis : x y z
#
# Youngs Moduli (GPa) = 84.82263 57.70940 78.98788
#
# Poissons Ratio (x) = 0.20730 0.42572
# Poissons Ratio (y) = 0.30469 0.11138
# Poissons Ratio (z) = 0.45717 0.08137
#
# Static dielectric constant tensor:
#      x y z
#    x 3.668260 0.000000 0.000000 
#    y 0.000000 3.739460 0.000000 
#    z 0.000000 0.000000 3.354060 
# 
# 
# High freq. dielectric constant tensor:
#      x y z
#    x 1.752730 0.000000 0.000000 
#    y 0.000000 1.756000 0.000000 
#    z 0.000000 0.000000 1.744100 
# 
# From -- ./inp_files/40328.got.cif
#   From: 2010.03.12/outbox.cif.g09.slc.cpg/sg72_21_cif.got.tgz:40328.got - 2010.04.16 14:54:00.
