data_PCOD8294131
_publ_section_title
;
Structure prediction by ZEFSAII (Michael W. Deem and Ramdas Pophale) SiO2 
 PCOD8294131
Probable space group: I B A M
;
_chemical_formula_sum "Si O2"
_cell_formula_units_Z 96
_cell_length_a 30.428387
_cell_length_b 19.588832
_cell_length_c 9.191943
_cell_angle_alpha 90.000000
_cell_angle_beta 90.000000
_cell_angle_gamma 90.000000
_cell_volume 5478.917933
_symmetry_space_group_name_H-M "I B A M"
_symmetry_group_IT_number 72
_symmetry_cell_setting 'orthorhombic'
loop_
_space_group_symop_operation_xyz
x,y,z
-x,-y,z
x,-y,1/2-z
-x,y,1/2-z
-x,-y,-z
x,y,-z
-x,y,1/2+z
x,-y,1/2+z
1/2+x,1/2+y,1/2+z
1/2-x,1/2-y,1/2+z
1/2+x,1/2-y,-z
1/2-x,1/2+y,-z
1/2-x,1/2-y,1/2-z
1/2+x,1/2+y,1/2-z
1/2-x,1/2+y,z
1/2+x,1/2-y,z
loop_
_atom_site_type_symbol
_atom_site_label
_atom_site_fract_x
_atom_site_fract_y
_atom_site_fract_z
Si Si1 0.763715 0.565694 0.331518
Si Si2 0.455026 0.787443 0.832886
Si Si3 0.631337 0.288042 0.829381
Si Si4 0.046466 0.561812 0.330039
Si Si5 0.663246 0.434437 0.168899
Si Si6 0.209273 0.714607 0.172001
O O1 0.784087 0.500000 0.250000
O O2 0.766156 0.548440 0.500000
O O3 0.713445 0.578139 0.281789
O O4 0.790714 0.633766 0.293248
O O5 0.500000 0.772502 0.750000
O O6 0.418145 0.732980 0.787559
O O7 0.433606 0.862746 0.804764
O O8 0.467959 0.780298 0.000000
O O9 0.635688 0.367501 0.788741
O O10 0.664137 0.243624 0.733233
O O11 0.641691 0.275386 0.000000
O O12 0.073737 0.500000 0.250000
O O13 0.041759 0.544610 0.500000
O O14 0.000000 0.564149 0.250000
O O15 0.642951 0.500000 0.250000
O O16 0.660132 0.450167 0.000000
O O17 0.250000 0.750000 0.250000
O O18 0.213261 0.727923 0.000000
#
# Coordination Sequence:
#
# PCOD8294131 Si02
#       6
#    16  16  16  16  16  16
#     4   9  18  32  49  72 101 136 173 209 250 297
#     4   9  19  34  53  74 101 133 170 213 260 306
#     4  10  20  36  54  76 105 138 171 211 261 310
#     4   9  15  25  43  68  92 122 159 200 246 294
#     4   9  17  31  50  73 101 130 167 210 251 300
#     4  11  21  34  52  77 106 136 171 211 253 304
#
# _framework density 17.521708
#
# number of rings (size 3 to 8) (size 9 to 14) (size 15 to 20)
#    0.000    2.500    1.667    1.500    0.000    3.333 
#    0.000    0.833    0.000    4.500    0.000    3.500 
#    0.000    0.000    0.000    0.000    0.000    0.000 
#
# Total GULP energy -594947.553390 kJ/mol
# GULP energy per Si atom -12394.740696 kJ/mol
# Density = 1.748183 g / cm^3
# Si number density = 17.521708 Si / 1000 Ang^3
#
#
#
# Elastic Constant Matrix: (Units=GPa)
#
#
# Indices 1 2 3 4 5 6 
#
# 1 78.7142 63.9481 43.9845 0.0000 0.0000 0.0000
# 2 63.9481 160.9342 68.6057 0.0000 0.0000 0.0000
# 3 43.9845 68.6057 81.6410 0.0000 0.0000 0.0000
# 4 0.0000 0.0000 0.0000 31.1377 0.0000 0.0000
# 5 0.0000 0.0000 0.0000 0.0000 19.1981 0.0000
# 6 0.0000 0.0000 0.0000 0.0000 0.0000 22.8754
#
#
#
# Elastic Compliance Matrix: (Units=1/GPa)
#
#
# Indices 1 2 3 4 5 6 
#
# 1 0.020848 -0.005447 -0.006654 0.000000 0.000000 0.000000
# 2 -0.005447 0.011106 -0.006398 0.000000 0.000000 0.000000
# 3 -0.006654 -0.006398 0.021210 0.000000 0.000000 0.000000
# 4 0.000000 0.000000 0.000000 0.032115 0.000000 0.000000
# 5 0.000000 0.000000 0.000000 0.000000 0.052089 0.000000
# 6 0.000000 0.000000 0.000000 0.000000 0.000000 0.043715
#
#
# Mechanical properties :
#
#
# Convention : Reuss Voigt Hill
#
# Bulk Modulus (GPa) = 61.86249 74.92955 68.39602
# Shear Modulus (GPa) = 22.37441 24.29230 23.33335
#
# Velocity S-wave (km/s) = 3.57733 3.72749 3.65318
# Velocity P-wave (km/s) = 7.24195 7.83469 7.54414
#
# Compressibility (1/GPa) = 0.01616488
#
# Stress axis : x y z
#
# Youngs Moduli (GPa) = 47.96609 90.04547 47.14767
#
# Poissons Ratio (x) = 0.49051 0.31374
# Poissons Ratio (y) = 0.26129 0.30163
# Poissons Ratio (z) = 0.31919 0.57607
#
# Static dielectric constant tensor:
#      x y z
#    x 2.948430 0.000000 0.000000 
#    y 0.000000 3.977780 0.000000 
#    z 0.000000 0.000000 3.399350 
# 
# 
# High freq. dielectric constant tensor:
#      x y z
#    x 1.633170 0.000000 0.000000 
#    y 0.000000 1.691230 0.000000 
#    z 0.000000 0.000000 1.681290 
# 
# From -- ./inp_files/8070.got.cif
#   From: 2010.03.12/outbox.cif.g09.slc.cpg/sg72_5_cif.got.tgz:8070.got - 2010.04.16 14:54:00.
