data_PCOD8294790
_publ_section_title
;
Structure prediction by ZEFSAII (Michael W. Deem and Ramdas Pophale) SiO2 
 PCOD8294790
Probable space group: I B A M
;
_chemical_formula_sum "Si O2"
_cell_formula_units_Z 96
_cell_length_a 8.752259
_cell_length_b 22.836880
_cell_length_c 23.838947
_cell_angle_alpha 90.000000
_cell_angle_beta 90.000000
_cell_angle_gamma 90.000000
_cell_volume 4764.792570
_symmetry_space_group_name_H-M "I B A M"
_symmetry_group_IT_number 72
_symmetry_cell_setting 'orthorhombic'
loop_
_space_group_symop_operation_xyz
x,y,z
-x,-y,z
x,-y,1/2-z
-x,y,1/2-z
-x,-y,-z
x,y,-z
-x,y,1/2+z
x,-y,1/2+z
1/2+x,1/2+y,1/2+z
1/2-x,1/2-y,1/2+z
1/2+x,1/2-y,-z
1/2-x,1/2+y,-z
1/2-x,1/2-y,1/2-z
1/2+x,1/2+y,1/2-z
1/2-x,1/2+y,z
1/2+x,1/2-y,z
loop_
_atom_site_type_symbol
_atom_site_label
_atom_site_fract_x
_atom_site_fract_y
_atom_site_fract_z
Si Si1 0.327189 0.367430 0.679748
Si Si2 0.172783 0.486380 0.684543
Si Si3 0.115651 0.756298 0.376868
Si Si4 0.348759 0.589630 0.353024
Si Si5 0.152683 0.332807 0.218993
Si Si6 0.652152 0.686442 0.935616
O O1 0.202238 0.418199 0.672317
O O2 0.307585 0.320965 0.628841
O O3 0.496318 0.396531 0.681434
O O4 0.292157 0.330014 0.736377
O O5 0.200087 0.500000 0.750000
O O6 0.301620 0.521209 0.647299
O O7 0.000000 0.500000 0.665451
O O8 0.122036 0.726811 0.315282
O O9 0.181524 0.714838 0.426003
O O10 0.943269 0.770012 0.395408
O O11 0.198882 0.617273 0.324471
O O12 0.360133 0.618816 0.415057
O O13 0.000000 0.353344 0.250000
O O14 0.601864 0.688393 0.000000
#
# Coordination Sequence:
#
# PCOD8294790 Si02
#       6
#    16  16  16  16  16  16
#     4  11  21  34  55  79 121 152 184 231 278 346
#     4  11  22  37  56  81 116 157 192 228 280 352
#     4  10  22  36  55  87 113 150 193 232 292 348
#     4  10  22  36  56  86 110 152 200 233 282 343
#     4  11  20  33  52  80 122 153 180 222 280 350
#     4  10  21  40  62  82 113 150 196 250 292 336
#
# _framework density 20.147781999999999
#
# number of rings (size 3 to 8) (size 9 to 14) (size 15 to 20)
#    0.000    1.500    1.667    4.000    0.000    4.667 
#    0.000    0.000    0.000    9.500    0.000    0.000 
#    0.000    0.000    0.000    0.000    0.000    0.000 
#
# Total GULP energy -594722.366971 kJ/mol
# GULP energy per Si atom -12390.049312 kJ/mol
# Density = 2.010192 g / cm^3
# Si number density = 20.147782 Si / 1000 Ang^3
#
#
#
# Elastic Constant Matrix: (Units=GPa)
#
#
# Indices 1 2 3 4 5 6 
#
# 1 88.5654 28.3558 32.9183 0.0000 0.0000 0.0000
# 2 28.3558 67.5793 39.2736 0.0000 0.0000 0.0000
# 3 32.9183 39.2736 81.4561 0.0000 0.0000 0.0000
# 4 0.0000 0.0000 0.0000 21.6047 0.0000 0.0000
# 5 0.0000 0.0000 0.0000 0.0000 15.4861 0.0000
# 6 0.0000 0.0000 0.0000 0.0000 0.0000 31.4312
#
#
#
# Elastic Compliance Matrix: (Units=1/GPa)
#
#
# Indices 1 2 3 4 5 6 
#
# 1 0.013878 -0.003562 -0.003891 0.000000 0.000000 0.000000
# 2 -0.003562 0.021472 -0.008913 0.000000 0.000000 0.000000
# 3 -0.003891 -0.008913 0.018146 0.000000 0.000000 0.000000
# 4 0.000000 0.000000 0.000000 0.046286 0.000000 0.000000
# 5 0.000000 0.000000 0.000000 0.000000 0.064574 0.000000
# 6 0.000000 0.000000 0.000000 0.000000 0.000000 0.031815
#
#
# Mechanical properties :
#
#
# Convention : Reuss Voigt Hill
#
# Bulk Modulus (GPa) = 48.15999 48.74403 48.45201
# Shear Modulus (GPa) = 21.20221 22.84128 22.02174
#
# Velocity S-wave (km/s) = 3.24749 3.37068 3.30966
# Velocity P-wave (km/s) = 6.16578 6.27650 6.22139
#
# Compressibility (1/GPa) = 0.02076412
#
# Stress axis : x y z
#
# Youngs Moduli (GPa) = 72.05822 46.57287 55.10735
#
# Poissons Ratio (x) = 0.16588 0.21442
# Poissons Ratio (y) = 0.25665 0.49118
# Poissons Ratio (z) = 0.28038 0.41511
#
# Static dielectric constant tensor:
#      x y z
#    x 3.656070 0.000000 0.000000 
#    y 0.000000 3.856360 0.000000 
#    z 0.000000 0.000000 3.266540 
# 
# 
# High freq. dielectric constant tensor:
#      x y z
#    x 1.795080 0.000000 0.000000 
#    y 0.000000 1.793660 0.000000 
#    z 0.000000 0.000000 1.734690 
# 
# From -- ./inp_files/42391.got.cif
#   From: 2010.03.12/outbox.cif.g09.slc.cpg/sg72_22_cif.got.tgz:42391.got - 2010.04.16 14:54:00.
