data_PCOD8294747
_publ_section_title
;
Structure prediction by ZEFSAII (Michael W. Deem and Ramdas Pophale) SiO2 
 PCOD8294747
Probable space group: I B A M
;
_chemical_formula_sum "Si O2"
_cell_formula_units_Z 116
_cell_length_a 11.895692
_cell_length_b 28.510843
_cell_length_c 16.021573
_cell_angle_alpha 90.000000
_cell_angle_beta 90.000000
_cell_angle_gamma 90.000000
_cell_volume 5433.815929
_symmetry_space_group_name_H-M "I B A M"
_symmetry_group_IT_number 72
_symmetry_cell_setting 'orthorhombic'
loop_
_space_group_symop_operation_xyz
x,y,z
-x,-y,z
x,-y,1/2-z
-x,y,1/2-z
-x,-y,-z
x,y,-z
-x,y,1/2+z
x,-y,1/2+z
1/2+x,1/2+y,1/2+z
1/2-x,1/2-y,1/2+z
1/2+x,1/2-y,-z
1/2-x,1/2+y,-z
1/2-x,1/2-y,1/2-z
1/2+x,1/2+y,1/2-z
1/2-x,1/2+y,z
1/2+x,1/2-y,z
loop_
_atom_site_type_symbol
_atom_site_label
_atom_site_fract_x
_atom_site_fract_y
_atom_site_fract_z
Si Si1 0.000000 0.000000 0.750000
Si Si2 0.434836 0.047027 0.170177
Si Si3 0.526697 0.867438 0.594509
Si Si4 0.304716 0.435646 0.730614
Si Si5 0.266987 0.603401 0.405403
Si Si6 0.844794 0.169437 0.316230
Si Si7 0.416361 0.312909 0.867189
Si Si8 0.363751 0.790860 0.405792
O O1 0.086041 0.034524 0.800156
O O2 0.500000 0.067933 0.250000
O O3 0.445832 0.086814 0.099959
O O4 0.305165 0.037387 0.194974
O O5 0.500000 0.000000 0.140834
O O6 0.551919 0.854690 0.500000
O O7 0.648583 0.878250 0.633534
O O8 0.464200 0.822406 0.635086
O O9 0.309270 0.432669 0.833141
O O10 0.307629 0.384486 0.690188
O O11 0.255803 0.580734 0.500000
O O12 0.348682 0.647438 0.416313
O O13 0.875081 0.190722 0.227268
O O14 0.747931 0.201839 0.352908
O O15 0.953270 0.173080 0.375200
O O16 0.398225 0.263005 0.909604
O O17 0.341370 0.808720 0.500000
#
# Coordination Sequence:
#
# PCOD8294747 Si02
#       8
#     4  16  16  16  16  16  16  16
#     4  12  24  40  68  92 116 152 208 264 300 368
#     4  11  21  38  63  92 114 153 205 252 312 368
#     4  10  22  39  59  89 125 157 197 250 311 364
#     4  11  22  41  66  90 123 159 205 254 307 369
#     4  10  21  39  62  89 125 163 197 246 305 365
#     4  10  22  43  61  88 124 166 206 252 303 356
#     4  10  22  39  61  91 123 162 213 249 293 355
#     4  11  23  38  60  90 125 165 205 251 303 355
#
# _framework density 21.347797
#
# number of rings (size 3 to 8) (size 9 to 14) (size 15 to 20)
#    0.000    1.517    2.759    3.310    1.931    1.379 
#    4.966    0.345    0.000    1.241    0.000    0.000 
#    0.000    0.000    0.000    0.000    0.000    0.000 
#
# Total GULP energy -718840.512603 kJ/mol
# GULP energy per Si atom -12393.801941 kJ/mol
# Density = 2.129921 g / cm^3
# Si number density = 21.347797 Si / 1000 Ang^3
#
#
#
# Elastic Constant Matrix: (Units=GPa)
#
#
# Indices 1 2 3 4 5 6 
#
# 1 142.9930 29.9007 21.2407 0.0000 0.0000 0.0000
# 2 29.9007 101.2956 8.9590 0.0002 -0.0001 0.0000
# 3 21.2407 8.9590 40.3833 0.0009 -0.0005 -0.0001
# 4 0.0000 0.0002 0.0009 16.3305 -0.0001 0.0000
# 5 0.0000 -0.0001 -0.0005 -0.0001 12.0603 0.0000
# 6 0.0000 0.0000 -0.0001 0.0000 0.0000 36.0155
#
#
#
# Elastic Compliance Matrix: (Units=1/GPa)
#
#
# Indices 1 2 3 4 5 6 
#
# 1 0.007972 -0.002022 -0.003745 0.000000 0.000000 0.000000
# 2 -0.002022 0.010583 -0.001284 0.000000 0.000000 0.000000
# 3 -0.003745 -0.001284 0.027017 -0.000001 0.000001 0.000000
# 4 0.000000 0.000000 -0.000001 0.061235 0.000001 0.000000
# 5 0.000000 0.000000 0.000001 0.000001 0.082917 0.000000
# 6 0.000000 0.000000 0.000000 0.000000 0.000000 0.027766
#
#
# Mechanical properties :
#
#
# Convention : Reuss Voigt Hill
#
# Bulk Modulus (GPa) = 31.77600 44.98583 38.38092
# Shear Modulus (GPa) = 20.65416 27.85269 24.25342
#
# Velocity S-wave (km/s) = 3.11385 3.61600 3.37428
# Velocity P-wave (km/s) = 5.27687 6.20906 5.76185
#
# Compressibility (1/GPa) = 0.03147029
#
# Stress axis : x y z
#
# Youngs Moduli (GPa) = 125.43209 94.49500 37.01341
#
# Poissons Ratio (x) = 0.19108 0.13860
# Poissons Ratio (y) = 0.25364 0.04753
# Poissons Ratio (z) = 0.46971 0.12134
#
# Static dielectric constant tensor:
#      x y z
#    x 4.146520 0.000000 0.000000 
#    y 0.000000 3.744930 0.000000 
#    z 0.000000 0.000000 3.563910 
# 
# 
# High freq. dielectric constant tensor:
#      x y z
#    x 1.853270 0.000000 0.000000 
#    y 0.000000 1.835990 0.000000 
#    z 0.000000 0.000000 1.809180 
# 
# From -- ./inp_files/29715.got.cif
#   From: 2010.03.12/outbox.cif.g09.slc.cpg/sg72_15_cif.got.tgz:29715.got - 2010.04.16 14:54:00.
