data_PCOD8294435
_publ_section_title
;
Structure prediction by ZEFSAII (Michael W. Deem and Ramdas Pophale) SiO2 
 PCOD8294435
Probable space group: I B A M
;
_chemical_formula_sum "Si O2"
_cell_formula_units_Z 96
_cell_length_a 27.783350
_cell_length_b 9.867379
_cell_length_c 18.181349
_cell_angle_alpha 90.000000
_cell_angle_beta 90.000000
_cell_angle_gamma 90.000000
_cell_volume 4984.395817
_symmetry_space_group_name_H-M "I B A M"
_symmetry_group_IT_number 72
_symmetry_cell_setting 'orthorhombic'
loop_
_space_group_symop_operation_xyz
x,y,z
-x,-y,z
x,-y,1/2-z
-x,y,1/2-z
-x,-y,-z
x,y,-z
-x,y,1/2+z
x,-y,1/2+z
1/2+x,1/2+y,1/2+z
1/2-x,1/2-y,1/2+z
1/2+x,1/2-y,-z
1/2-x,1/2+y,-z
1/2-x,1/2-y,1/2-z
1/2+x,1/2+y,1/2-z
1/2-x,1/2+y,z
1/2+x,1/2-y,z
loop_
_atom_site_type_symbol
_atom_site_label
_atom_site_fract_x
_atom_site_fract_y
_atom_site_fract_z
Si Si1 0.299389 0.743746 0.660665
Si Si2 0.363387 0.507903 0.833441
Si Si3 0.540331 0.100573 0.587006
Si Si4 0.456775 0.405803 0.087355
Si Si5 0.810418 0.279256 0.671163
Si Si6 0.353125 0.027222 0.085261
O O1 0.317500 0.589586 0.655716
O O2 0.243137 0.750586 0.642529
O O3 0.310235 0.802981 0.741464
O O4 0.327103 0.830280 0.599563
O O5 0.382279 0.500000 0.750000
O O6 0.406601 0.467331 0.886263
O O7 0.345522 0.658060 0.853295
O O8 0.534568 0.107839 0.500000
O O9 0.535092 0.253505 0.618607
O O10 0.591566 0.039741 0.609588
O O11 0.500000 0.000000 0.620895
O O12 0.500000 0.500000 0.116546
O O13 0.454987 0.403928 0.000000
O O14 0.828803 0.414494 0.634324
O O15 0.348401 0.989005 0.000000
#
# Coordination Sequence:
#
# PCOD8294435 Si02
#       6
#    16  16  16  16  16  16
#     4  10  20  41  61  80 115 159 198 229 278 345
#     4  10  21  37  59  86 115 150 191 241 287 328
#     4   9  19  36  57  82 113 149 187 228 283 348
#     4  10  21  37  60  84 111 151 191 232 287 350
#     4  10  22  37  61  86 112 156 199 232 276 347
#     4  11  22  36  59  89 119 149 185 243 294 329
#
# _framework density 19.260109
#
# number of rings (size 3 to 8) (size 9 to 14) (size 15 to 20)
#    0.000    2.000    1.667    1.500    2.333    4.333 
#    0.000    1.667    0.000    2.000    0.000    0.000 
#    0.000    0.000    0.000    0.000    0.000    0.000 
#
# Total GULP energy -595351.688651 kJ/mol
# GULP energy per Si atom -12403.160180 kJ/mol
# Density = 1.921627 g / cm^3
# Si number density = 19.260109 Si / 1000 Ang^3
#
#
#
# Elastic Constant Matrix: (Units=GPa)
#
#
# Indices 1 2 3 4 5 6 
#
# 1 129.9591 44.3781 28.2786 0.0000 0.0000 0.0000
# 2 44.3781 103.6784 25.2167 0.0000 0.0000 0.0000
# 3 28.2786 25.2167 26.9521 0.0000 0.0000 0.0000
# 4 0.0000 0.0000 0.0000 25.9283 0.0000 0.0000
# 5 0.0000 0.0000 0.0000 0.0000 26.0485 0.0000
# 6 0.0000 0.0000 0.0000 0.0000 0.0000 33.5652
#
#
#
# Elastic Compliance Matrix: (Units=1/GPa)
#
#
# Indices 1 2 3 4 5 6 
#
# 1 0.010387 -0.002324 -0.008723 0.000000 0.000000 0.000000
# 2 -0.002324 0.013007 -0.009731 0.000000 0.000000 0.000000
# 3 -0.008723 -0.009731 0.055360 0.000000 0.000000 0.000000
# 4 0.000000 0.000000 0.000000 0.038568 0.000000 0.000000
# 5 0.000000 0.000000 0.000000 0.000000 0.038390 0.000000
# 6 0.000000 0.000000 0.000000 0.000000 0.000000 0.029793
#
#
# Mechanical properties :
#
#
# Convention : Reuss Voigt Hill
#
# Bulk Modulus (GPa) = 26.88410 50.70405 38.79407
# Shear Modulus (GPa) = 20.88043 27.95615 24.41829
#
# Velocity S-wave (km/s) = 3.29618 3.81400 3.56450
# Velocity P-wave (km/s) = 5.33621 6.76598 6.09318
#
# Compressibility (1/GPa) = 0.03719671
#
# Stress axis : x y z
#
# Youngs Moduli (GPa) = 96.27872 76.88324 18.06369
#
# Poissons Ratio (x) = 0.17869 0.15757
# Poissons Ratio (y) = 0.22376 0.17577
# Poissons Ratio (z) = 0.83986 0.74813
#
# Static dielectric constant tensor:
#      x y z
#    x 3.636080 0.000000 0.000000 
#    y 0.000000 3.750520 0.000000 
#    z 0.000000 0.000000 3.275130 
# 
# 
# High freq. dielectric constant tensor:
#      x y z
#    x 1.759160 0.000000 0.000000 
#    y 0.000000 1.764110 0.000000 
#    z 0.000000 0.000000 1.721790 
# 
# From -- ./inp_files/36019.got.cif
#   From: 2010.03.12/outbox.cif.g09.slc.cpg/sg72_19_cif.got.tgz:36019.got - 2010.04.16 14:54:00.
