data_PCOD8294177
_publ_section_title
;
Structure prediction by ZEFSAII (Michael W. Deem and Ramdas Pophale) SiO2 
 PCOD8294177
Probable space group: I B A M
;
_chemical_formula_sum "Si O2"
_cell_formula_units_Z 68
_cell_length_a 5.037267
_cell_length_b 38.016338
_cell_length_c 18.924179
_cell_angle_alpha 90.000000
_cell_angle_beta 90.000000
_cell_angle_gamma 90.000000
_cell_volume 3623.950849
_symmetry_space_group_name_H-M "I B A M"
_symmetry_group_IT_number 72
_symmetry_cell_setting 'orthorhombic'
loop_
_space_group_symop_operation_xyz
x,y,z
-x,-y,z
x,-y,1/2-z
-x,y,1/2-z
-x,-y,-z
x,y,-z
-x,y,1/2+z
x,-y,1/2+z
1/2+x,1/2+y,1/2+z
1/2-x,1/2-y,1/2+z
1/2+x,1/2-y,-z
1/2-x,1/2+y,-z
1/2-x,1/2-y,1/2-z
1/2+x,1/2+y,1/2-z
1/2-x,1/2+y,z
1/2+x,1/2-y,z
loop_
_atom_site_type_symbol
_atom_site_label
_atom_site_fract_x
_atom_site_fract_y
_atom_site_fract_z
Si Si1 0.784538 0.663137 0.579221
Si Si2 0.000000 0.000000 0.250000
Si Si3 0.793589 0.882848 0.579167
Si Si4 0.262585 0.432479 0.793781
Si Si5 0.016073 0.728555 0.833022
O O1 0.745268 0.678564 0.500000
O O2 0.508957 0.645881 0.606641
O O3 0.002781 0.633069 0.578904
O O4 0.886783 0.693230 0.630727
O O5 0.186332 0.974804 0.201371
O O6 0.876420 0.894819 0.500000
O O7 0.770703 0.917214 0.627671
O O8 0.500000 0.414160 0.750000
O O9 0.000000 0.423556 0.750000
O O10 0.722292 0.740689 0.856012
O O11 0.000000 0.721479 0.750000
#
# Coordination Sequence:
#
# PCOD8294177 Si02
#       5
#    16   4  16  16  16
#     4  10  21  36  55  80 111 145 186 233 282 332
#     4   8  22  36  60  84 118 144 180 232 266 320
#     4  10  21  37  56  83 116 146 184 237 281 328
#     4  10  20  36  59  84 112 148 185 222 276 326
#     4  10  21  36  53  76 108 144 184 233 278 328
#
# _framework density 18.764050000000001
#
# number of rings (size 3 to 8) (size 9 to 14) (size 15 to 20)
#    0.706    1.412    0.000    3.176    0.000    3.765 
#    0.000    0.588    0.000    1.412    0.000    0.000 
#    0.000    0.000    0.000    0.000    0.000    0.000 
#
# Total GULP energy -421348.032163 kJ/mol
# GULP energy per Si atom -12392.589181 kJ/mol
# Density = 1.872134 g / cm^3
# Si number density = 18.764050 Si / 1000 Ang^3
#
#
#
# Elastic Constant Matrix: (Units=GPa)
#
#
# Indices 1 2 3 4 5 6 
#
# 1 100.9283 13.8888 30.1769 0.0000 0.0000 0.0000
# 2 13.8888 90.2830 60.8186 0.0000 0.0000 0.0000
# 3 30.1769 60.8186 88.2962 0.0000 0.0000 0.0000
# 4 0.0000 0.0000 0.0000 14.2703 0.0000 0.0000
# 5 0.0000 0.0000 0.0000 0.0000 25.8969 0.0000
# 6 0.0000 0.0000 0.0000 0.0000 0.0000 1.6759
#
#
#
# Elastic Compliance Matrix: (Units=1/GPa)
#
#
# Indices 1 2 3 4 5 6 
#
# 1 0.011157 0.001590 -0.004908 0.000000 0.000000 0.000000
# 2 0.001590 0.020892 -0.014934 0.000000 0.000000 0.000000
# 3 -0.004908 -0.014934 0.023289 0.000000 0.000000 0.000000
# 4 0.000000 0.000000 0.000000 0.070076 0.000000 0.000000
# 5 0.000000 0.000000 0.000000 0.000000 0.038615 0.000000
# 6 0.000000 0.000000 0.000000 0.000000 0.000000 0.596701
#
#
# Mechanical properties :
#
#
# Convention : Reuss Voigt Hill
#
# Bulk Modulus (GPa) = 53.09525 54.36401 53.72963
# Shear Modulus (GPa) = 6.22269 20.01017 13.11643
#
# Velocity S-wave (km/s) = 1.82304 3.26914 2.64676
# Velocity P-wave (km/s) = 5.72617 6.57913 6.16741
#
# Compressibility (1/GPa) = 0.01883408
#
# Stress axis : x y z
#
# Youngs Moduli (GPa) = 89.63177 47.86602 42.93798
#
# Poissons Ratio (x) = -0.07612 0.21075
# Poissons Ratio (y) = -0.14253 0.64122
# Poissons Ratio (z) = 0.43994 0.71482
#
# Static dielectric constant tensor:
#      x y z
#    x 3.814070 0.000000 0.000000 
#    y 0.000000 3.124230 0.000000 
#    z 0.000000 0.000000 3.406210 
# 
# 
# High freq. dielectric constant tensor:
#      x y z
#    x 1.753800 0.000000 0.000000 
#    y 0.000000 1.707250 0.000000 
#    z 0.000000 0.000000 1.714980 
# 
# From -- ./inp_files/34839.got.cif
#   From: 2010.03.12/outbox.cif.g09.slc.cpg/sg72_18_cif.got.tgz:34839.got - 2010.04.16 14:54:00.
