data_PCOD8294891
_publ_section_title
;
Structure prediction by ZEFSAII (Michael W. Deem and Ramdas Pophale) SiO2 
 PCOD8294891
Probable space group: I B A M
;
_chemical_formula_sum "Si O2"
_cell_formula_units_Z 116
_cell_length_a 27.223490
_cell_length_b 22.905843
_cell_length_c 9.057669
_cell_angle_alpha 90.000000
_cell_angle_beta 90.000000
_cell_angle_gamma 90.000000
_cell_volume 5648.153952
_symmetry_space_group_name_H-M "I B A M"
_symmetry_group_IT_number 72
_symmetry_cell_setting 'orthorhombic'
loop_
_space_group_symop_operation_xyz
x,y,z
-x,-y,z
x,-y,1/2-z
-x,y,1/2-z
-x,-y,-z
x,y,-z
-x,y,1/2+z
x,-y,1/2+z
1/2+x,1/2+y,1/2+z
1/2-x,1/2-y,1/2+z
1/2+x,1/2-y,-z
1/2-x,1/2+y,-z
1/2-x,1/2-y,1/2-z
1/2+x,1/2+y,1/2-z
1/2-x,1/2+y,z
1/2+x,1/2-y,z
loop_
_atom_site_type_symbol
_atom_site_label
_atom_site_fract_x
_atom_site_fract_y
_atom_site_fract_z
Si Si1 0.931096 0.100290 0.336828
Si Si2 0.258697 0.940187 0.826746
Si Si3 0.678091 0.628416 0.332879
Si Si4 0.550990 0.062532 0.678427
Si Si5 0.858726 0.382042 0.670166
Si Si6 0.000000 0.000000 0.750000
Si Si7 0.863097 0.251461 0.334025
Si Si8 0.545873 0.712398 0.828990
O O1 0.934941 0.128809 0.500000
O O2 0.872959 0.093442 0.300921
O O3 0.962130 0.040254 0.341764
O O4 0.952862 0.144192 0.216512
O O5 0.219377 0.892040 0.779581
O O6 0.313429 0.921860 0.778063
O O7 0.244133 0.000000 0.750000
O O8 0.255454 0.948274 0.000000
O O9 0.695267 0.615979 0.500000
O O10 0.674110 0.698206 0.304619
O O11 0.500000 0.085511 0.750000
O O12 0.546911 0.058646 0.500000
O O13 0.594746 0.106059 0.724593
O O14 0.563455 0.000000 0.750000
O O15 0.873233 0.394863 0.500000
O O16 0.839548 0.315251 0.687897
O O17 0.884288 0.244928 0.500000
O O18 0.906409 0.247472 0.216668
O O19 0.500000 0.743326 0.750000
O O20 0.537850 0.716760 0.000000
#
# Coordination Sequence:
#
# PCOD8294891 Si02
#       8
#    16  16  16  16  16   4  16  16
#     4  10  22  38  55  82 118 154 197 250 306 358
#     4  11  24  41  63  91 121 159 202 246 301 359
#     4   9  20  40  62  86 119 158 198 249 307 361
#     4  11  22  38  62  92 128 168 207 249 302 360
#     4  10  22  41  64  92 125 159 201 250 301 361
#     4  12  22  32  60  90 118 156 206 252 306 360
#     4   9  20  40  63  86 117 155 195 247 306 360
#     4  11  21  35  56  80 112 154 198 243 293 353
#
# _framework density 20.537683000000001
#
# number of rings (size 3 to 8) (size 9 to 14) (size 15 to 20)
#    0.000    1.793    0.690    4.759    0.966    6.621 
#    0.000    0.000    0.000    0.000    0.000    0.000 
#    0.000    0.000    0.000    0.000    0.000    0.000 
#
# Total GULP energy -718983.855562 kJ/mol
# GULP energy per Si atom -12396.273372 kJ/mol
# Density = 2.049094 g / cm^3
# Si number density = 20.537683 Si / 1000 Ang^3
#
#
#
# Elastic Constant Matrix: (Units=GPa)
#
#
# Indices 1 2 3 4 5 6 
#
# 1 106.8263 37.5506 56.1518 0.0000 0.0000 0.0000
# 2 37.5506 92.0597 31.5850 0.0000 0.0000 0.0000
# 3 56.1518 31.5850 131.3051 0.0000 0.0000 0.0000
# 4 0.0000 0.0000 0.0000 25.5181 0.0000 0.0000
# 5 0.0000 0.0000 0.0000 0.0000 30.0154 0.0000
# 6 0.0000 0.0000 0.0000 0.0000 0.0000 23.5309
#
#
#
# Elastic Compliance Matrix: (Units=1/GPa)
#
#
# Indices 1 2 3 4 5 6 
#
# 1 0.013163 -0.003747 -0.004728 0.000000 0.000000 0.000000
# 2 -0.003747 0.012906 -0.001502 0.000000 0.000000 0.000000
# 3 -0.004728 -0.001502 0.009999 0.000000 0.000000 0.000000
# 4 0.000000 0.000000 0.000000 0.039188 0.000000 0.000000
# 5 0.000000 0.000000 0.000000 0.000000 0.033316 0.000000
# 6 0.000000 0.000000 0.000000 0.000000 0.000000 0.042497
#
#
# Mechanical properties :
#
#
# Convention : Reuss Voigt Hill
#
# Bulk Modulus (GPa) = 62.05628 64.52954 63.29291
# Shear Modulus (GPa) = 28.34536 29.47312 28.90924
#
# Velocity S-wave (km/s) = 3.71909 3.79235 3.75590
# Velocity P-wave (km/s) = 6.98022 7.11788 7.04939
#
# Compressibility (1/GPa) = 0.01611441
#
# Stress axis : x y z
#
# Youngs Moduli (GPa) = 75.96899 77.48140 100.00987
#
# Poissons Ratio (x) = 0.29033 0.47283
# Poissons Ratio (y) = 0.28467 0.15023
# Poissons Ratio (z) = 0.35917 0.11639
#
# Static dielectric constant tensor:
#      x y z
#    x 3.688730 0.000000 0.000000 
#    y 0.000000 3.680250 0.000000 
#    z 0.000000 0.000000 3.634140 
# 
# 
# High freq. dielectric constant tensor:
#      x y z
#    x 1.801330 0.000000 0.000000 
#    y 0.000000 1.797790 0.000000 
#    z 0.000000 0.000000 1.801830 
# 
# From -- ./inp_files/8415.got.cif
#   From: 2010.03.12/outbox.cif.g09.slc.cpg/sg72_5_cif.got.tgz:8415.got - 2010.04.16 14:54:00.
