data_PCOD8294159
_publ_section_title
;
Structure prediction by ZEFSAII (Michael W. Deem and Ramdas Pophale) SiO2 
 PCOD8294159
Probable space group: I B A M
;
_chemical_formula_sum "Si O2"
_cell_formula_units_Z 96
_cell_length_a 23.596443
_cell_length_b 24.131454
_cell_length_c 8.605211
_cell_angle_alpha 90.000000
_cell_angle_beta 90.000000
_cell_angle_gamma 90.000000
_cell_volume 4899.948947
_symmetry_space_group_name_H-M "I B A M"
_symmetry_group_IT_number 72
_symmetry_cell_setting 'orthorhombic'
loop_
_space_group_symop_operation_xyz
x,y,z
-x,-y,z
x,-y,1/2-z
-x,y,1/2-z
-x,-y,-z
x,y,-z
-x,y,1/2+z
x,-y,1/2+z
1/2+x,1/2+y,1/2+z
1/2-x,1/2-y,1/2+z
1/2+x,1/2-y,-z
1/2-x,1/2+y,-z
1/2-x,1/2-y,1/2-z
1/2+x,1/2+y,1/2-z
1/2-x,1/2+y,z
1/2+x,1/2-y,z
loop_
_atom_site_type_symbol
_atom_site_label
_atom_site_fract_x
_atom_site_fract_y
_atom_site_fract_z
Si Si1 0.941377 0.137844 0.178248
Si Si2 0.731011 0.654286 0.316962
Si Si3 0.369061 0.730857 0.817495
Si Si4 0.161489 0.940467 0.176916
Si Si5 0.359119 0.154112 0.816882
Si Si6 0.561219 0.940062 0.684296
O O1 0.919522 0.188752 0.281422
O O2 0.900342 0.085645 0.193417
O O3 0.000000 0.117467 0.250000
O O4 0.947417 0.157001 0.000000
O O5 0.730887 0.657973 0.500000
O O6 0.690354 0.703998 0.253869
O O7 0.707765 0.595023 0.267392
O O8 0.794733 0.658135 0.252536
O O9 0.385486 0.786636 0.726319
O O10 0.366208 0.743115 0.000000
O O11 0.159198 0.000000 0.250000
O O12 0.181351 0.944146 0.000000
O O13 0.392036 0.104831 0.732018
O O14 0.362182 0.143301 0.000000
O O15 0.500000 0.922022 0.750000
O O16 0.557252 0.943743 0.500000
O O17 0.579370 0.000000 0.750000
#
# Coordination Sequence:
#
# PCOD8294159 Si02
#       6
#    16  16  16  16  16  16
#     4  10  21  37  56  80 109 146 187 232 281 331
#     4   9  20  37  57  81 114 150 185 227 277 327
#     4  10  20  36  57  83 114 149 185 228 278 328
#     4  10  21  36  56  80 110 146 187 232 280 330
#     4  11  22  37  59  88 116 147 186 226 269 328
#     4  11  23  42  64  86 113 146 182 226 277 329
#
# _framework density 19.592040999999998
#
# number of rings (size 3 to 8) (size 9 to 14) (size 15 to 20)
#    0.000    1.833    0.000    4.500    0.000    5.667 
#    0.000    5.000    0.000    0.000    0.000    0.000 
#    0.000    0.000    0.000    0.000    0.000    0.000 
#
# Total GULP energy -595307.052428 kJ/mol
# GULP energy per Si atom -12402.230259 kJ/mol
# Density = 1.954745 g / cm^3
# Si number density = 19.592041 Si / 1000 Ang^3
#
#
#
# Elastic Constant Matrix: (Units=GPa)
#
#
# Indices 1 2 3 4 5 6 
#
# 1 39.6694 22.8646 18.0912 0.0000 0.0000 0.0000
# 2 22.8646 119.2827 23.1638 0.0000 0.0000 0.0000
# 3 18.0912 23.1638 60.3134 0.0000 0.0000 0.0000
# 4 0.0000 0.0000 0.0000 30.6192 0.0000 0.0000
# 5 0.0000 0.0000 0.0000 0.0000 29.7553 0.0000
# 6 0.0000 0.0000 0.0000 0.0000 0.0000 20.0740
#
#
#
# Elastic Compliance Matrix: (Units=1/GPa)
#
#
# Indices 1 2 3 4 5 6 
#
# 1 0.031301 -0.004513 -0.007656 0.000000 0.000000 0.000000
# 2 -0.004513 0.009710 -0.002375 0.000000 0.000000 0.000000
# 3 -0.007656 -0.002375 0.019789 0.000000 0.000000 0.000000
# 4 0.000000 0.000000 0.000000 0.032659 0.000000 0.000000
# 5 0.000000 0.000000 0.000000 0.000000 0.033607 0.000000
# 6 0.000000 0.000000 0.000000 0.000000 0.000000 0.049816
#
#
# Mechanical properties :
#
#
# Convention : Reuss Voigt Hill
#
# Bulk Modulus (GPa) = 31.53457 38.61163 35.07310
# Shear Modulus (GPa) = 23.09035 26.43276 24.76155
#
# Velocity S-wave (km/s) = 3.43674 3.67707 3.55893
# Velocity P-wave (km/s) = 5.64613 6.14642 5.90158
#
# Compressibility (1/GPa) = 0.03171123
#
# Stress axis : x y z
#
# Youngs Moduli (GPa) = 31.94783 102.98828 50.53403
#
# Poissons Ratio (x) = 0.46481 0.38686
# Poissons Ratio (y) = 0.14419 0.12004
# Poissons Ratio (z) = 0.24458 0.24463
#
# Static dielectric constant tensor:
#      x y z
#    x 3.737170 0.000000 0.000000 
#    y 0.000000 3.507780 0.000000 
#    z 0.000000 0.000000 3.622290 
# 
# 
# High freq. dielectric constant tensor:
#      x y z
#    x 1.762350 0.000000 0.000000 
#    y 0.000000 1.766660 0.000000 
#    z 0.000000 0.000000 1.772870 
# 
# From -- ./inp_files/6951.got.cif
#   From: 2010.03.12/outbox.cif.g09.slc.cpg/sg72_4_cif.got.tgz:6951.got - 2010.04.16 14:54:00.
