data_PCOD8294818
_publ_section_title
;
Structure prediction by ZEFSAII (Michael W. Deem and Ramdas Pophale) SiO2 
 PCOD8294818
Probable space group: I B A M
;
_chemical_formula_sum "Si O2"
_cell_formula_units_Z 88
_cell_length_a 11.245615
_cell_length_b 13.798285
_cell_length_c 25.256558
_cell_angle_alpha 90.000000
_cell_angle_beta 90.000000
_cell_angle_gamma 90.000000
_cell_volume 3919.065176
_symmetry_space_group_name_H-M "I B A M"
_symmetry_group_IT_number 72
_symmetry_cell_setting 'orthorhombic'
loop_
_space_group_symop_operation_xyz
x,y,z
-x,-y,z
x,-y,1/2-z
-x,y,1/2-z
-x,-y,-z
x,y,-z
-x,y,1/2+z
x,-y,1/2+z
1/2+x,1/2+y,1/2+z
1/2-x,1/2-y,1/2+z
1/2+x,1/2-y,-z
1/2-x,1/2+y,-z
1/2-x,1/2-y,1/2-z
1/2+x,1/2+y,1/2-z
1/2-x,1/2+y,z
1/2+x,1/2-y,z
loop_
_atom_site_type_symbol
_atom_site_label
_atom_site_fract_x
_atom_site_fract_y
_atom_site_fract_z
Si Si1 0.629931 0.158142 0.500000
Si Si2 0.820929 0.395705 0.885897
Si Si3 0.661182 0.948484 0.694861
Si Si4 0.440737 0.402762 0.398391
Si Si5 0.500000 0.192449 0.750000
Si Si6 0.632906 0.697121 0.168389
Si Si7 0.606621 0.721220 0.500000
O O1 0.643222 0.091146 0.447587
O O2 0.491375 0.192345 0.500000
O O3 0.745908 0.235757 0.500000
O O4 0.887162 0.471921 0.847366
O O5 0.686288 0.427371 0.874191
O O6 0.833826 0.282623 0.871985
O O7 0.551459 0.875592 0.703779
O O8 0.766548 0.883596 0.671421
O O9 0.699006 0.000000 0.750000
O O10 0.500000 0.500000 0.419572
O O11 0.513641 0.352968 0.351769
O O12 0.427533 0.333911 0.447737
O O13 0.394476 0.258116 0.773874
#
# Coordination Sequence:
#
# PCOD8294818 Si02
#       7
#     8  16  16  16   8  16   8
#     4  10  22  44  72 111 144 189 243 305 359 443
#     4  11  24  44  69 103 142 182 238 294 361 430
#     4  12  26  45  67 102 140 185 236 292 358 437
#     4  11  22  41  66 102 136 185 236 293 352 424
#     4  12  27  44  69  98 136 194 227 302 361 438
#     4  12  25  42  70  98 141 178 241 285 366 418
#     4  10  21  40  72 104 144 189 245 292 363 432
#
# _framework density 22.454335
#
# number of rings (size 3 to 8) (size 9 to 14) (size 15 to 20)
#    0.000    0.727    5.455    2.182    2.545    0.000 
#    0.000    0.909    4.000    3.273    0.000    0.000 
#    0.000    0.000    0.000    0.000    0.000    0.000 
#
# Total GULP energy -545288.545128 kJ/mol
# GULP energy per Si atom -12392.921480 kJ/mol
# Density = 2.240323 g / cm^3
# Si number density = 22.454335 Si / 1000 Ang^3
#
#
#
# Elastic Constant Matrix: (Units=GPa)
#
#
# Indices 1 2 3 4 5 6 
#
# 1 69.5589 2.7219 14.0549 0.0000 0.0000 0.0000
# 2 2.7219 86.0047 42.6229 0.0000 0.0000 0.0000
# 3 14.0549 42.6229 130.3191 0.0000 0.0000 0.0000
# 4 0.0000 0.0000 0.0000 97.8858 0.0000 0.0000
# 5 0.0000 0.0000 0.0000 0.0000 33.9925 0.0000
# 6 0.0000 0.0000 0.0000 0.0000 0.0000 21.8730
#
#
#
# Elastic Compliance Matrix: (Units=1/GPa)
#
#
# Indices 1 2 3 4 5 6 
#
# 1 0.014707 0.000383 -0.001711 0.000000 0.000000 0.000000
# 2 0.000383 0.013886 -0.004583 0.000000 0.000000 0.000000
# 3 -0.001711 -0.004583 0.009357 0.000000 0.000000 0.000000
# 4 0.000000 0.000000 0.000000 0.010216 0.000000 0.000000
# 5 0.000000 0.000000 0.000000 0.000000 0.029418 0.000000
# 6 0.000000 0.000000 0.000000 0.000000 0.000000 0.045719
#
#
# Mechanical properties :
#
#
# Convention : Reuss Voigt Hill
#
# Bulk Modulus (GPa) = 38.27437 44.96468 41.61953
# Shear Modulus (GPa) = 34.76185 45.84911 40.30548
#
# Velocity S-wave (km/s) = 3.93888 4.52362 4.24134
# Velocity P-wave (km/s) = 6.14563 6.88132 6.52385
#
# Compressibility (1/GPa) = 0.02612714
#
# Stress axis : x y z
#
# Youngs Moduli (GPa) = 67.99433 72.01256 106.87185
#
# Poissons Ratio (x) = -0.02756 0.18289
# Poissons Ratio (y) = -0.02602 0.48980
# Poissons Ratio (z) = 0.11636 0.33004
#
# Static dielectric constant tensor:
#      x y z
#    x 4.131890 0.000000 0.000000 
#    y 0.000000 4.015100 0.000000 
#    z 0.000000 0.000000 4.160180 
# 
# 
# High freq. dielectric constant tensor:
#      x y z
#    x 1.899040 0.000000 0.000000 
#    y 0.000000 1.875830 0.000000 
#    z 0.000000 0.000000 1.891840 
# 
# From -- ./inp_files/43257.got.cif
#   From: 2010.03.12/outbox.cif.g09.slc.cpg/sg72_22_cif.got.tgz:43257.got - 2010.04.16 14:54:00.
