data_PCOD8294916
_publ_section_title
;
Structure prediction by ZEFSAII (Michael W. Deem and Ramdas Pophale) SiO2 
 PCOD8294916
Probable space group: I B A M
;
_chemical_formula_sum "Si O2"
_cell_formula_units_Z 116
_cell_length_a 17.148607
_cell_length_b 12.875551
_cell_length_c 27.180301
_cell_angle_alpha 90.000000
_cell_angle_beta 90.000000
_cell_angle_gamma 90.000000
_cell_volume 6001.349686
_symmetry_space_group_name_H-M "I B A M"
_symmetry_group_IT_number 72
_symmetry_cell_setting 'orthorhombic'
loop_
_space_group_symop_operation_xyz
x,y,z
-x,-y,z
x,-y,1/2-z
-x,y,1/2-z
-x,-y,-z
x,y,-z
-x,y,1/2+z
x,-y,1/2+z
1/2+x,1/2+y,1/2+z
1/2-x,1/2-y,1/2+z
1/2+x,1/2-y,-z
1/2-x,1/2+y,-z
1/2-x,1/2-y,1/2-z
1/2+x,1/2+y,1/2-z
1/2-x,1/2+y,z
1/2+x,1/2-y,z
loop_
_atom_site_type_symbol
_atom_site_label
_atom_site_fract_x
_atom_site_fract_y
_atom_site_fract_z
Si Si1 0.668572 0.503026 0.442014
Si Si2 0.000000 0.000000 0.250000
Si Si3 0.858220 0.876488 0.711892
Si Si4 0.806097 0.455781 0.301658
Si Si5 0.338608 0.719258 0.184675
Si Si6 0.039947 0.894122 0.620468
Si Si7 0.708990 0.886502 0.118957
Si Si8 0.615933 0.300152 0.391943
O O1 0.663829 0.495582 0.500000
O O2 0.598249 0.575162 0.423068
O O3 0.749315 0.553798 0.425428
O O4 0.665781 0.388133 0.419285
O O5 0.058031 0.930839 0.217028
O O6 0.789448 0.958509 0.698527
O O7 0.827142 0.814913 0.759076
O O8 0.868953 0.799469 0.666640
O O9 0.838528 0.500000 0.250000
O O10 0.842533 0.343866 0.314295
O O11 0.833521 0.532101 0.345064
O O12 0.417940 0.665873 0.165152
O O13 0.267611 0.684925 0.150568
O O14 0.975477 0.817537 0.596869
O O15 0.000000 0.000000 0.641281
O O16 0.644944 0.813640 0.091874
#
# Coordination Sequence:
#
# PCOD8294916 Si02
#       8
#    16   4  16  16  16  16  16  16
#     4  10  22  39  59  85 114 143 183 243 311 359
#     4  12  24  28  56  84 124 156 194 252 288 320
#     4  12  21  31  51  86 117 151 195 237 277 329
#     4  12  21  34  56  82 118 163 197 235 277 335
#     4  11  21  36  55  84 120 157 200 237 280 339
#     4   9  22  38  59  84 115 152 191 242 297 346
#     4  11  20  36  57  84 114 152 195 234 287 349
#     4  11  22  36  57  84 112 146 191 237 283 347
#
# _framework density 19.328984999999999
#
# number of rings (size 3 to 8) (size 9 to 14) (size 15 to 20)
#    0.000    1.103    4.828    2.069    7.724    3.034 
#    0.000    0.690    0.000    0.828    0.000    0.000 
#    0.000   11.034    0.000    0.000    0.000    0.000 
#
# Total GULP energy -719151.011321 kJ/mol
# GULP energy per Si atom -12399.155368 kJ/mol
# Density = 1.928499 g / cm^3
# Si number density = 19.328985 Si / 1000 Ang^3
#
#
#
# Elastic Constant Matrix: (Units=GPa)
#
#
# Indices 1 2 3 4 5 6 
#
# 1 75.2311 48.3888 23.3197 0.0000 0.0000 0.0000
# 2 48.3888 126.0012 40.5716 0.0000 0.0000 0.0000
# 3 23.3197 40.5716 96.1623 0.0000 0.0000 0.0000
# 4 0.0000 0.0000 0.0000 11.4350 0.0000 0.0000
# 5 0.0000 0.0000 0.0000 0.0000 11.0573 0.0000
# 6 0.0000 0.0000 0.0000 0.0000 0.0000 31.5902
#
#
#
# Elastic Compliance Matrix: (Units=1/GPa)
#
#
# Indices 1 2 3 4 5 6 
#
# 1 0.017880 -0.006330 -0.001665 0.000000 0.000000 0.000000
# 2 -0.006330 0.011425 -0.003285 0.000000 0.000000 0.000000
# 3 -0.001665 -0.003285 0.012189 0.000000 0.000000 0.000000
# 4 0.000000 0.000000 0.000000 0.087451 0.000000 0.000000
# 5 0.000000 0.000000 0.000000 0.000000 0.090438 0.000000
# 6 0.000000 0.000000 0.000000 0.000000 0.000000 0.031655
#
#
# Mechanical properties :
#
#
# Convention : Reuss Voigt Hill
#
# Bulk Modulus (GPa) = 52.81838 57.99499 55.40668
# Shear Modulus (GPa) = 17.86275 23.15746 20.51010
#
# Velocity S-wave (km/s) = 3.04327 3.46507 3.26100
# Velocity P-wave (km/s) = 6.30349 6.78809 6.55027
#
# Compressibility (1/GPa) = 0.01893280
#
# Stress axis : x y z
#
# Youngs Moduli (GPa) = 55.92747 87.52429 82.04130
#
# Poissons Ratio (x) = 0.55407 0.13661
# Poissons Ratio (y) = 0.35405 0.26953
# Poissons Ratio (z) = 0.09313 0.28754
#
# Static dielectric constant tensor:
#      x y z
#    x 3.562160 0.000000 0.000000 
#    y 0.000000 3.681180 0.000000 
#    z 0.000000 0.000000 3.297290 
# 
# 
# High freq. dielectric constant tensor:
#      x y z
#    x 1.735000 0.000000 0.000000 
#    y 0.000000 1.749410 0.000000 
#    z 0.000000 0.000000 1.735760 
# 
# From -- ./inp_files/49147.got.cif
#   From: 2010.03.12/outbox.cif.g09.slc.cpg/sg72_25_cif.got.tgz:49147.got - 2010.04.16 14:54:00.
