data_PCOD8294626
_publ_section_title
;
Structure prediction by ZEFSAII (Michael W. Deem and Ramdas Pophale) SiO2 
 PCOD8294626
Probable space group: I B A M
;
_chemical_formula_sum "Si O2"
_cell_formula_units_Z 112
_cell_length_a 16.482905
_cell_length_b 15.604291
_cell_length_c 23.533850
_cell_angle_alpha 90.000000
_cell_angle_beta 90.000000
_cell_angle_gamma 90.000000
_cell_volume 6053.001441
_symmetry_space_group_name_H-M "I B A M"
_symmetry_group_IT_number 72
_symmetry_cell_setting 'orthorhombic'
loop_
_space_group_symop_operation_xyz
x,y,z
-x,-y,z
x,-y,1/2-z
-x,y,1/2-z
-x,-y,-z
x,y,-z
-x,y,1/2+z
x,-y,1/2+z
1/2+x,1/2+y,1/2+z
1/2-x,1/2-y,1/2+z
1/2+x,1/2-y,-z
1/2-x,1/2+y,-z
1/2-x,1/2-y,1/2-z
1/2+x,1/2+y,1/2-z
1/2-x,1/2+y,z
1/2+x,1/2-y,z
loop_
_atom_site_type_symbol
_atom_site_label
_atom_site_fract_x
_atom_site_fract_y
_atom_site_fract_z
Si Si1 0.409331 0.681187 0.229975
Si Si2 0.018200 0.597814 0.564629
Si Si3 0.324084 0.343494 0.157693
Si Si4 0.407019 0.524412 0.851004
Si Si5 0.144427 0.696136 0.367659
Si Si6 0.314070 0.643627 0.065205
Si Si7 0.641521 0.205999 0.565610
O O1 0.500000 0.691744 0.250000
O O2 0.347817 0.698024 0.281928
O O3 0.399066 0.586228 0.203544
O O4 0.394204 0.755526 0.185202
O O5 0.048233 0.612035 0.500000
O O6 0.086937 0.621680 0.609652
O O7 0.000000 0.500000 0.576282
O O8 0.938640 0.652700 0.577246
O O9 0.358661 0.438313 0.159720
O O10 0.227771 0.347453 0.151555
O O11 0.361926 0.289462 0.105642
O O12 0.500000 0.500000 0.864681
O O13 0.364220 0.570047 0.903821
O O14 0.153790 0.762369 0.419374
O O15 0.217953 0.644115 0.080530
O O16 0.329791 0.625367 0.000000
O O17 0.647913 0.236807 0.500000
#
# Coordination Sequence:
#
# PCOD8294626 Si02
#       7
#    16  16  16  16  16  16  16
#     4  11  21  39  63  82 116 154 197 239 289 355
#     4  10  21  37  61  86 115 154 195 238 288 349
#     4  11  22  37  61  87 116 151 194 243 291 350
#     4  11  23  36  58  91 116 153 193 240 293 353
#     4  10  22  38  59  87 113 153 198 241 292 344
#     4   9  20  38  58  84 122 154 187 237 292 349
#     4   9  20  39  60  86 116 153 194 236 290 351
#
# _framework density 18.503216999999999
#
# number of rings (size 3 to 8) (size 9 to 14) (size 15 to 20)
#    0.000    1.857    1.429    2.143    4.000    1.429 
#    0.000    0.000    3.143    0.857    0.000    0.000 
#    0.000    0.000    0.000    0.000    0.000    0.000 
#
# Total GULP energy -694430.623570 kJ/mol
# GULP energy per Si atom -12400.546849 kJ/mol
# Density = 1.846110 g / cm^3
# Si number density = 18.503217 Si / 1000 Ang^3
#
#
#
# Elastic Constant Matrix: (Units=GPa)
#
#
# Indices 1 2 3 4 5 6 
#
# 1 128.7473 68.1597 85.7379 0.0000 0.0000 0.0000
# 2 68.1597 96.3175 52.8970 0.0000 0.0000 0.0000
# 3 85.7379 52.8970 97.9884 0.0000 0.0000 0.0000
# 4 0.0000 0.0000 0.0000 19.2972 0.0000 0.0000
# 5 0.0000 0.0000 0.0000 0.0000 36.4430 0.0000
# 6 0.0000 0.0000 0.0000 0.0000 0.0000 27.0028
#
#
#
# Elastic Compliance Matrix: (Units=1/GPa)
#
#
# Indices 1 2 3 4 5 6 
#
# 1 0.021429 -0.006918 -0.015015 0.000000 0.000000 0.000000
# 2 -0.006918 0.016991 -0.003119 0.000000 0.000000 0.000000
# 3 -0.015015 -0.003119 0.025027 0.000000 0.000000 0.000000
# 4 0.000000 0.000000 0.000000 0.051821 0.000000 0.000000
# 5 0.000000 0.000000 0.000000 0.000000 0.027440 0.000000
# 6 0.000000 0.000000 0.000000 0.000000 0.000000 0.037033
#
#
# Mechanical properties :
#
#
# Convention : Reuss Voigt Hill
#
# Bulk Modulus (GPa) = 74.95034 81.84916 78.39975
# Shear Modulus (GPa) = 21.34078 24.29917 22.81998
#
# Velocity S-wave (km/s) = 3.39979 3.62780 3.51564
# Velocity P-wave (km/s) = 7.48372 7.86632 7.67740
#
# Compressibility (1/GPa) = 0.01334217
#
# Stress axis : x y z
#
# Youngs Moduli (GPa) = 46.66606 58.85522 39.95657
#
# Poissons Ratio (x) = 0.40716 0.59996
# Poissons Ratio (y) = 0.32283 0.12463
# Poissons Ratio (z) = 0.70071 0.18357
#
# Static dielectric constant tensor:
#      x y z
#    x 3.082050 0.000000 0.000000 
#    y 0.000000 3.301200 0.000000 
#    z 0.000000 0.000000 3.632240 
# 
# 
# High freq. dielectric constant tensor:
#      x y z
#    x 1.731030 0.000000 0.000000 
#    y 0.000000 1.711560 0.000000 
#    z 0.000000 0.000000 1.725280 
# 
# From -- ./inp_files/44328.got.cif
#   From: 2010.03.12/outbox.cif.g09.slc.cpg/sg72_23_cif.got.tgz:44328.got - 2010.04.16 14:54:00.
