data_PCOD8294421
_publ_section_title
;
Structure prediction by ZEFSAII (Michael W. Deem and Ramdas Pophale) SiO2 
 PCOD8294421
Probable space group: I B A M
;
_chemical_formula_sum "Si O2"
_cell_formula_units_Z 96
_cell_length_a 9.384853
_cell_length_b 27.737262
_cell_length_c 18.752998
_cell_angle_alpha 90.000000
_cell_angle_beta 90.000000
_cell_angle_gamma 90.000000
_cell_volume 4881.595281
_symmetry_space_group_name_H-M "I B A M"
_symmetry_group_IT_number 72
_symmetry_cell_setting 'orthorhombic'
loop_
_space_group_symop_operation_xyz
x,y,z
-x,-y,z
x,-y,1/2-z
-x,y,1/2-z
-x,-y,-z
x,y,-z
-x,y,1/2+z
x,-y,1/2+z
1/2+x,1/2+y,1/2+z
1/2-x,1/2-y,1/2+z
1/2+x,1/2-y,-z
1/2-x,1/2+y,-z
1/2-x,1/2-y,1/2-z
1/2+x,1/2+y,1/2-z
1/2-x,1/2+y,z
1/2+x,1/2-y,z
loop_
_atom_site_type_symbol
_atom_site_label
_atom_site_fract_x
_atom_site_fract_y
_atom_site_fract_z
Si Si1 0.251890 0.569094 0.419078
Si Si2 0.921465 0.206795 0.675046
Si Si3 0.201223 0.459702 0.583592
Si Si4 0.086338 0.295606 0.676538
Si Si5 0.942108 0.113277 0.419294
Si Si6 0.005615 0.602484 0.665491
O O1 0.194879 0.576004 0.500000
O O2 0.243490 0.513563 0.395273
O O3 0.413226 0.584454 0.413115
O O4 0.166899 0.602932 0.363551
O O5 0.753037 0.217328 0.686153
O O6 0.000000 0.197915 0.750000
O O7 0.002019 0.252160 0.636166
O O8 0.944577 0.160606 0.627523
O O9 0.169041 0.455490 0.500000
O O10 0.324685 0.423748 0.608893
O O11 0.062172 0.443954 0.627106
O O12 0.070631 0.347823 0.639033
O O13 0.000000 0.300751 0.750000
O O14 0.910370 0.129373 0.500000
O O15 0.000000 0.595654 0.750000
#
# Coordination Sequence:
#
# PCOD8294421 Si02
#       6
#    16  16  16  16  16  16
#     4  10  22  38  61  85 114 159 199 234 284 351
#     4  11  22  39  65  87 116 154 194 237 287 351
#     4  10  20  40  61  83 116 157 198 235 287 348
#     4  10  22  38  61  90 115 153 192 236 287 347
#     4  10  22  39  60  88 118 150 194 246 290 336
#     4  11  23  37  58  89 121 149 192 244 292 336
#
# _framework density 19.665703000000001
#
# number of rings (size 3 to 8) (size 9 to 14) (size 15 to 20)
#    0.000    1.667    1.667    3.500    7.000    4.667 
#    0.000    2.500    0.000    3.000    0.000    0.000 
#    0.000    0.000    0.000    0.000    0.000    0.000 
#
# Total GULP energy -595026.026368 kJ/mol
# GULP energy per Si atom -12396.375549 kJ/mol
# Density = 1.962094 g / cm^3
# Si number density = 19.665703 Si / 1000 Ang^3
#
#
#
# Elastic Constant Matrix: (Units=GPa)
#
#
# Indices 1 2 3 4 5 6 
#
# 1 85.2016 43.1317 11.8446 0.0001 0.0000 0.0000
# 2 43.1317 126.2046 37.2600 -0.0001 0.0000 0.0000
# 3 11.8446 37.2600 46.6943 -0.0004 -0.0001 0.0000
# 4 0.0001 -0.0001 -0.0004 22.7888 0.0000 0.0000
# 5 0.0000 0.0000 -0.0001 0.0000 29.2520 0.0000
# 6 0.0000 0.0000 0.0000 0.0000 0.0000 37.2332
#
#
#
# Elastic Compliance Matrix: (Units=1/GPa)
#
#
# Indices 1 2 3 4 5 6 
#
# 1 0.014197 -0.004956 0.000354 0.000000 0.000000 0.000000
# 2 -0.004956 0.012096 -0.008395 0.000000 0.000000 0.000000
# 3 0.000354 -0.008395 0.028025 0.000000 0.000000 0.000000
# 4 0.000000 0.000000 0.000000 0.043881 0.000000 0.000000
# 5 0.000000 0.000000 0.000000 0.000000 0.034186 0.000000
# 6 0.000000 0.000000 0.000000 0.000000 0.000000 0.026858
#
#
# Mechanical properties :
#
#
# Convention : Reuss Voigt Hill
#
# Bulk Modulus (GPa) = 35.30731 49.17481 42.24106
# Shear Modulus (GPa) = 25.68346 28.91241 27.29793
#
# Velocity S-wave (km/s) = 3.61779 3.83847 3.72976
# Velocity P-wave (km/s) = 5.95348 6.68616 6.33043
#
# Compressibility (1/GPa) = 0.02832275
#
# Stress axis : x y z
#
# Youngs Moduli (GPa) = 70.43870 82.67233 35.68263
#
# Poissons Ratio (x) = 0.40975 -0.01262
# Poissons Ratio (y) = 0.34912 0.29955
# Poissons Ratio (z) = -0.02492 0.69402
#
# Static dielectric constant tensor:
#      x y z
#    x 3.799030 0.000000 0.000000 
#    y 0.000000 4.145650 0.000000 
#    z 0.000000 0.000000 3.798720 
# 
# 
# High freq. dielectric constant tensor:
#      x y z
#    x 1.785350 0.000000 0.000000 
#    y 0.000000 1.784870 0.000000 
#    z 0.000000 0.000000 1.735600 
# 
# From -- ./inp_files/36010.got.cif
#   From: 2010.03.12/outbox.cif.g09.slc.cpg/sg72_19_cif.got.tgz:36010.got - 2010.04.16 14:54:00.
