data_PCOD8294704
_publ_section_title
;
Structure prediction by ZEFSAII (Michael W. Deem and Ramdas Pophale) SiO2 
 PCOD8294704
Probable space group: I B A M
;
_chemical_formula_sum "Si O2"
_cell_formula_units_Z 112
_cell_length_a 13.206856
_cell_length_b 14.125996
_cell_length_c 27.549309
_cell_angle_alpha 90.000000
_cell_angle_beta 90.000000
_cell_angle_gamma 90.000000
_cell_volume 5139.598950
_symmetry_space_group_name_H-M "I B A M"
_symmetry_group_IT_number 72
_symmetry_cell_setting 'orthorhombic'
loop_
_space_group_symop_operation_xyz
x,y,z
-x,-y,z
x,-y,1/2-z
-x,y,1/2-z
-x,-y,-z
x,y,-z
-x,y,1/2+z
x,-y,1/2+z
1/2+x,1/2+y,1/2+z
1/2-x,1/2-y,1/2+z
1/2+x,1/2-y,-z
1/2-x,1/2+y,-z
1/2-x,1/2-y,1/2-z
1/2+x,1/2+y,1/2-z
1/2-x,1/2+y,z
1/2+x,1/2-y,z
loop_
_atom_site_type_symbol
_atom_site_label
_atom_site_fract_x
_atom_site_fract_y
_atom_site_fract_z
Si Si1 0.076152 0.282294 0.623616
Si Si2 0.080159 0.921188 0.865464
Si Si3 0.251321 0.304620 0.445328
Si Si4 0.389816 0.198215 0.767792
Si Si5 0.089555 0.349663 0.055196
Si Si6 0.274153 0.519850 0.443708
Si Si7 0.198998 0.899303 0.227216
O O1 0.022814 0.180559 0.633830
O O2 0.173188 0.255784 0.591007
O O3 0.114282 0.325768 0.674607
O O4 0.002690 0.352724 0.593624
O O5 0.125179 0.942804 0.918091
O O6 0.177114 0.913973 0.829648
O O7 0.000000 0.000000 0.848355
O O8 0.208014 0.297337 0.500000
O O9 0.359271 0.253388 0.442266
O O10 0.263209 0.411722 0.428657
O O11 0.500000 0.171531 0.750000
O O12 0.314929 0.127352 0.739040
O O13 0.366895 0.308518 0.754625
O O14 0.170670 0.428056 0.071575
O O15 0.050284 0.369555 0.000000
O O16 0.294775 0.536655 0.500000
O O17 0.166923 0.000000 0.250000
#
# Coordination Sequence:
#
# PCOD8294704 Si02
#       7
#    16  16  16  16  16  16  16
#     4  11  23  38  65  93 126 169 216 268 318 398
#     4  11  24  40  65 101 124 168 221 270 331 387
#     4  10  21  39  61  88 129 173 211 260 326 388
#     4  10  25  44  65  97 130 172 220 275 335 392
#     4  10  21  38  62  91 130 174 213 266 326 384
#     4  10  22  39  61  92 132 171 213 268 322 388
#     4  10  25  44  68  95 131 174 214 277 331 395
#
# _framework density 21.791584
#
# number of rings (size 3 to 8) (size 9 to 14) (size 15 to 20)
#    0.000    1.714    1.429    1.286    8.000    2.857 
#    0.000    3.571    0.000    0.000    0.000    0.000 
#    0.000    0.000    0.000    0.000    0.000    0.000 
#
# Total GULP energy -694240.810460 kJ/mol
# GULP energy per Si atom -12397.157330 kJ/mol
# Density = 2.174198 g / cm^3
# Si number density = 21.791584 Si / 1000 Ang^3
#
#
#
# Elastic Constant Matrix: (Units=GPa)
#
#
# Indices 1 2 3 4 5 6 
#
# 1 85.4832 2.9010 44.7738 0.0000 0.0000 0.0000
# 2 2.9010 84.2614 18.1040 0.0000 0.0000 0.0000
# 3 44.7738 18.1040 93.1503 0.0000 0.0000 0.0000
# 4 0.0000 0.0000 0.0000 22.8507 0.0000 0.0000
# 5 0.0000 0.0000 0.0000 0.0000 39.0319 0.0000
# 6 0.0000 0.0000 0.0000 0.0000 0.0000 25.0402
#
#
#
# Elastic Compliance Matrix: (Units=1/GPa)
#
#
# Indices 1 2 3 4 5 6 
#
# 1 0.015737 0.001131 -0.007784 0.000000 0.000000 0.000000
# 2 0.001131 0.012466 -0.002966 0.000000 0.000000 0.000000
# 3 -0.007784 -0.002966 0.015053 0.000000 0.000000 0.000000
# 4 0.000000 0.000000 0.000000 0.043762 0.000000 0.000000
# 5 0.000000 0.000000 0.000000 0.000000 0.025620 0.000000
# 6 0.000000 0.000000 0.000000 0.000000 0.000000 0.039936
#
#
# Mechanical properties :
#
#
# Convention : Reuss Voigt Hill
#
# Bulk Modulus (GPa) = 41.63676 43.82808 42.73242
# Shear Modulus (GPa) = 27.80571 30.52563 29.16567
#
# Velocity S-wave (km/s) = 3.57597 3.74679 3.66237
# Velocity P-wave (km/s) = 6.01651 6.23490 6.12667
#
# Compressibility (1/GPa) = 0.02401724
#
# Stress axis : x y z
#
# Youngs Moduli (GPa) = 63.54540 80.21680 66.43100
#
# Poissons Ratio (x) = -0.09069 0.51709
# Poissons Ratio (y) = -0.07184 0.19705
# Poissons Ratio (z) = 0.49462 0.23794
#
# Static dielectric constant tensor:
#      x y z
#    x 3.635240 0.000000 0.000000 
#    y 0.000000 4.085670 0.000000 
#    z 0.000000 0.000000 3.975280 
# 
# 
# High freq. dielectric constant tensor:
#      x y z
#    x 1.838740 0.000000 0.000000 
#    y 0.000000 1.862400 0.000000 
#    z 0.000000 0.000000 1.857330 
# 
# From -- ./inp_files/44358.got.cif
#   From: 2010.03.12/outbox.cif.g09.slc.cpg/sg72_23_cif.got.tgz:44358.got - 2010.04.16 14:54:00.
