data_PCOD8294090
_publ_section_title
;
Structure prediction by ZEFSAII (Michael W. Deem and Ramdas Pophale) SiO2 
 PCOD8294090
Probable space group: I B A M
;
_chemical_formula_sum "Si O2"
_cell_formula_units_Z 96
_cell_length_a 18.782803
_cell_length_b 30.304691
_cell_length_c 9.032337
_cell_angle_alpha 90.000000
_cell_angle_beta 90.000000
_cell_angle_gamma 90.000000
_cell_volume 5141.269817
_symmetry_space_group_name_H-M "I B A M"
_symmetry_group_IT_number 72
_symmetry_cell_setting 'orthorhombic'
loop_
_space_group_symop_operation_xyz
x,y,z
-x,-y,z
x,-y,1/2-z
-x,y,1/2-z
-x,-y,-z
x,y,-z
-x,y,1/2+z
x,-y,1/2+z
1/2+x,1/2+y,1/2+z
1/2-x,1/2-y,1/2+z
1/2+x,1/2-y,-z
1/2-x,1/2+y,-z
1/2-x,1/2-y,1/2-z
1/2+x,1/2+y,1/2-z
1/2-x,1/2+y,z
1/2+x,1/2-y,z
loop_
_atom_site_type_symbol
_atom_site_label
_atom_site_fract_x
_atom_site_fract_y
_atom_site_fract_z
Si Si1 0.167160 0.955712 0.173475
Si Si2 0.173750 0.802197 0.671897
Si Si3 0.681550 0.799515 0.329448
Si Si4 0.576143 0.371470 0.324148
Si Si5 0.575288 0.125206 0.173383
Si Si6 0.829572 0.455670 0.325597
O O1 0.120552 0.914338 0.225286
O O2 0.248284 0.946326 0.222712
O O3 0.137648 0.000000 0.250000
O O4 0.161237 0.963162 0.000000
O O5 0.168077 0.814916 0.500000
O O6 0.252255 0.814192 0.729201
O O7 0.158654 0.750637 0.699401
O O8 0.114898 0.827995 0.764690
O O9 0.703979 0.807301 0.500000
O O10 0.614584 0.829372 0.285027
O O11 0.500000 0.375351 0.250000
O O12 0.568544 0.367850 0.500000
O O13 0.500000 0.124319 0.250000
O O14 0.622880 0.084700 0.231988
O O15 0.562946 0.121149 0.000000
O O16 0.858703 0.500000 0.250000
O O17 0.835487 0.461549 0.500000
#
# Coordination Sequence:
#
# PCOD8294090 Si02
#       6
#    16  16  16  16  16  16
#     4   9  19  36  58  80 103 136 177 222 271 320
#     4  10  20  35  58  85 108 137 180 225 270 321
#     4   9  19  37  58  80 108 141 178 223 272 321
#     4  11  23  38  55  78 112 149 182 220 269 323
#     4  10  21  36  53  75 107 143 177 215 263 316
#     4   9  18  34  55  77 101 133 173 216 263 313
#
# _framework density 18.672429999999999
#
# number of rings (size 3 to 8) (size 9 to 14) (size 15 to 20)
#    0.000    2.333    0.000    2.000    0.000    7.333 
#    0.000    8.333    0.000    0.000    0.000    0.000 
#    0.000    0.000    0.000    0.000    0.000    0.000 
#
# Total GULP energy -595372.864467 kJ/mol
# GULP energy per Si atom -12403.601343 kJ/mol
# Density = 1.862993 g / cm^3
# Si number density = 18.672430 Si / 1000 Ang^3
#
#
#
# Elastic Constant Matrix: (Units=GPa)
#
#
# Indices 1 2 3 4 5 6 
#
# 1 135.1015 87.0956 53.3075 -0.0003 0.0005 0.0000
# 2 87.0956 130.6260 51.8107 0.0000 -0.0003 0.0001
# 3 53.3075 51.8107 61.2247 -0.0024 -0.0007 0.0013
# 4 -0.0003 0.0000 -0.0024 32.0904 -0.0005 0.0005
# 5 0.0005 -0.0003 -0.0007 -0.0005 36.6531 -0.0005
# 6 0.0000 0.0001 0.0013 0.0005 -0.0005 14.5034
#
#
#
# Elastic Compliance Matrix: (Units=1/GPa)
#
#
# Indices 1 2 3 4 5 6 
#
# 1 0.014625 -0.007076 -0.006746 0.000000 0.000000 0.000001
# 2 -0.007076 0.014946 -0.006488 -0.000001 0.000000 0.000001
# 3 -0.006746 -0.006488 0.027697 0.000002 0.000001 -0.000002
# 4 0.000000 -0.000001 0.000002 0.031162 0.000000 -0.000001
# 5 0.000000 0.000000 0.000001 0.000000 0.027283 0.000001
# 6 0.000001 0.000001 -0.000002 -0.000001 0.000001 0.068949
#
#
# Mechanical properties :
#
#
# Convention : Reuss Voigt Hill
#
# Bulk Modulus (GPa) = 60.06064 79.04221 69.55143
# Shear Modulus (GPa) = 21.66081 25.63193 23.64637
#
# Velocity S-wave (km/s) = 3.40963 3.70904 3.56248
# Velocity P-wave (km/s) = 6.90913 7.79522 7.36551
#
# Compressibility (1/GPa) = 0.01664984
#
# Stress axis : x y z
#
# Youngs Moduli (GPa) = 68.37529 66.90620 36.10477
#
# Poissons Ratio (x) = 0.47340 0.24357
# Poissons Ratio (y) = 0.48380 0.23423
# Poissons Ratio (z) = 0.46128 0.43405
#
# Static dielectric constant tensor:
#      x y z
#    x 3.393890 0.000000 0.000000 
#    y 0.000000 3.618750 0.000000 
#    z 0.000000 0.000000 3.398940 
# 
# 
# High freq. dielectric constant tensor:
#      x y z
#    x 1.720430 0.000000 0.000000 
#    y 0.000000 1.737600 0.000000 
#    z 0.000000 0.000000 1.722760 
# 
# From -- ./inp_files/5999.got.cif
#   From: 2010.03.12/outbox.cif.g09.slc.cpg/sg72_3_cif.got.tgz:5999.got - 2010.04.16 14:54:00.
