data_PCOD8294453
_publ_section_title
;
Structure prediction by ZEFSAII (Michael W. Deem and Ramdas Pophale) SiO2 
 PCOD8294453
Probable space group: I B A M
;
_chemical_formula_sum "Si O2"
_cell_formula_units_Z 52
_cell_length_a 7.817572
_cell_length_b 17.741123
_cell_length_c 18.641860
_cell_angle_alpha 90.000000
_cell_angle_beta 90.000000
_cell_angle_gamma 90.000000
_cell_volume 2585.486288
_symmetry_space_group_name_H-M "I B A M"
_symmetry_group_IT_number 72
_symmetry_cell_setting 'orthorhombic'
loop_
_space_group_symop_operation_xyz
x,y,z
-x,-y,z
x,-y,1/2-z
-x,y,1/2-z
-x,-y,-z
x,y,-z
-x,y,1/2+z
x,-y,1/2+z
1/2+x,1/2+y,1/2+z
1/2-x,1/2-y,1/2+z
1/2+x,1/2-y,-z
1/2-x,1/2+y,-z
1/2-x,1/2-y,1/2-z
1/2+x,1/2+y,1/2-z
1/2-x,1/2+y,z
1/2+x,1/2-y,z
loop_
_atom_site_type_symbol
_atom_site_label
_atom_site_fract_x
_atom_site_fract_y
_atom_site_fract_z
Si Si1 0.734203 0.453823 0.871303
Si Si2 0.578752 0.902532 0.419704
Si Si3 0.245164 0.215210 0.500000
Si Si4 0.892990 0.132879 0.500000
Si Si5 0.500000 0.500000 0.750000
O O1 0.779569 0.540794 0.887607
O O2 0.609003 0.420556 0.931408
O O3 0.626141 0.448159 0.798027
O O4 0.910034 0.404568 0.869090
O O5 0.525287 0.931375 0.500000
O O6 0.661700 0.819102 0.428068
O O7 0.236421 0.306071 0.500000
O O8 0.052653 0.187897 0.500000
#
# Coordination Sequence:
#
# PCOD8294453 Si02
#       5
#    16  16   8   8   4
#     4  11  20  38  57  82 120 148 194 231 287 328
#     4   9  18  37  61  90 107 147 187 253 279 330
#     4  10  21  30  59  98 106 140 190 248 303 312
#     4  12  19  36  61  85 120 144 190 251 271 354
#     4  12  28  32  52  92 116 164 184 230 280 356
#
# _framework density 20.112269999999999
#
# number of rings (size 3 to 8) (size 9 to 14) (size 15 to 20)
#    0.923    0.615    3.077    4.615    0.000    4.308 
#    0.000    0.000    0.000   16.615    0.000    0.000 
#    0.000    0.000    0.000    0.000    0.000    0.000 
#
# Total GULP energy -322096.105773 kJ/mol
# GULP energy per Si atom -12388.311761 kJ/mol
# Density = 2.006649 g / cm^3
# Si number density = 20.112270 Si / 1000 Ang^3
#
#
#
# Elastic Constant Matrix: (Units=GPa)
#
#
# Indices 1 2 3 4 5 6 
#
# 1 110.7580 15.4027 56.5867 0.0000 0.0000 0.0000
# 2 15.4027 55.6939 38.8308 0.0000 0.0000 0.0000
# 3 56.5867 38.8308 115.9747 0.0000 0.0000 0.0000
# 4 0.0000 0.0000 0.0000 -0.9801 0.0000 0.0000
# 5 0.0000 0.0000 0.0000 0.0000 32.3083 0.0000
# 6 0.0000 0.0000 0.0000 0.0000 0.0000 34.4997
#
#
#
# Elastic Compliance Matrix: (Units=1/GPa)
#
#
# Indices 1 2 3 4 5 6 
#
# 1 0.012069 0.001002 -0.006224 0.000000 0.000000 0.000000
# 2 0.001002 0.023506 -0.008359 0.000000 0.000000 0.000000
# 3 -0.006224 -0.008359 0.014458 0.000000 0.000000 0.000000
# 4 0.000000 0.000000 0.000000 -1.020280 0.000000 0.000000
# 5 0.000000 0.000000 0.000000 0.000000 0.030952 0.000000
# 6 0.000000 0.000000 0.000000 0.000000 0.000000 0.028986
#
#
# Mechanical properties :
#
#
# Convention : Reuss Voigt Hill
#
# Bulk Modulus (GPa) = 43.72410 56.00746 49.86578
# Shear Modulus (GPa) = -5.71089 24.60599 9.44755
#
# Velocity S-wave (km/s) = -1.68691 3.50155 2.16970
# Velocity P-wave (km/s) = 4.24181 6.65250 5.57892
#
# Compressibility (1/GPa) = 0.02287068
#
# Stress axis : x y z
#
# Youngs Moduli (GPa) = 82.85388 42.54145 69.16360
#
# Poissons Ratio (x) = -0.04262 0.43050
# Poissons Ratio (y) = -0.08301 0.57816
# Poissons Ratio (z) = 0.51572 0.35562
#
# Static dielectric constant tensor:
#      x y z
#    x 3.807870 0.000000 0.000000 
#    y 0.000000 3.475710 0.000000 
#    z 0.000000 0.000000 3.249360 
# 
# 
# High freq. dielectric constant tensor:
#      x y z
#    x 1.815360 0.000000 0.000000 
#    y 0.000000 1.764910 0.000000 
#    z 0.000000 0.000000 1.728510 
# 
# From -- ./inp_files/27456.got.cif
#   From: 2010.03.12/outbox.cif.g09.slc.cpg/sg72_14_cif.got.tgz:27456.got - 2010.04.16 14:54:00.
