data_PCOD8294911
_publ_section_title
;
Structure prediction by ZEFSAII (Michael W. Deem and Ramdas Pophale) SiO2 
 PCOD8294911
Probable space group: I B A M
;
_chemical_formula_sum "Si O2"
_cell_formula_units_Z 32
_cell_length_a 8.269317
_cell_length_b 17.752216
_cell_length_c 7.963461
_cell_angle_alpha 90.000000
_cell_angle_beta 90.000000
_cell_angle_gamma 90.000000
_cell_volume 1169.025735
_symmetry_space_group_name_H-M "I B A M"
_symmetry_group_IT_number 72
_symmetry_cell_setting 'orthorhombic'
loop_
_space_group_symop_operation_xyz
x,y,z
-x,-y,z
x,-y,1/2-z
-x,y,1/2-z
-x,-y,-z
x,y,-z
-x,y,1/2+z
x,-y,1/2+z
1/2+x,1/2+y,1/2+z
1/2-x,1/2-y,1/2+z
1/2+x,1/2-y,-z
1/2-x,1/2+y,-z
1/2-x,1/2-y,1/2-z
1/2+x,1/2+y,1/2-z
1/2-x,1/2+y,z
1/2+x,1/2-y,z
loop_
_atom_site_type_symbol
_atom_site_label
_atom_site_fract_x
_atom_site_fract_y
_atom_site_fract_z
Si Si1 0.534977 0.172457 0.500000
Si Si2 0.278228 0.581722 0.185696
Si Si3 0.151911 0.159166 0.500000
O O1 0.618976 0.134430 0.664293
O O2 0.345797 0.160367 0.500000
O O3 0.565874 0.261213 0.500000
O O4 0.222378 0.500000 0.250000
O O5 0.397159 0.616225 0.327843
O O6 0.366268 0.578031 0.000000
#
# Coordination Sequence:
#
# PCOD8294911 Si02
#       3
#     8  16   8
#     4  10  25  37  67  87 127 162 200 252 310 362
#     4  10  22  38  64  92 123 158 206 261 305 353
#     4  12  21  45  57  97 123 162 202 252 308 366
#
# _framework density 27.37322
#
# number of rings (size 3 to 8) (size 9 to 14) (size 15 to 20)
#    1.500    0.000    2.500    3.000    0.000    6.000 
#    0.000    0.000    0.000    9.000    0.000    0.000 
#    0.000    0.000    0.000    0.000    0.000    0.000 
#
# Total GULP energy -198235.832211 kJ/mol
# GULP energy per Si atom -12389.739513 kJ/mol
# Density = 2.731092 g / cm^3
# Si number density = 27.373220 Si / 1000 Ang^3
#
#
#
# Elastic Constant Matrix: (Units=GPa)
#
#
# Indices 1 2 3 4 5 6 
#
# 1 63.6675 -2.2732 57.6849 0.0000 0.0001 0.0000
# 2 -2.2732 182.8881 71.6405 -0.0001 0.0003 0.0003
# 3 57.6849 71.6405 232.8300 0.0005 0.0008 0.0001
# 4 0.0000 -0.0001 0.0005 42.7798 0.0002 0.0004
# 5 0.0001 0.0003 0.0008 0.0002 25.7393 0.0002
# 6 0.0000 0.0003 0.0001 0.0004 0.0002 -57.1064
#
#
#
# Elastic Compliance Matrix: (Units=1/GPa)
#
#
# Indices 1 2 3 4 5 6 
#
# 1 0.021330 0.002655 -0.006101 0.000000 0.000000 0.000000
# 2 0.002655 0.006548 -0.002673 0.000000 0.000000 0.000000
# 3 -0.006101 -0.002673 0.006629 0.000000 0.000000 0.000000
# 4 0.000000 0.000000 0.000000 0.023375 0.000000 0.000000
# 5 0.000000 0.000000 0.000000 0.000000 0.038851 0.000000
# 6 0.000000 0.000000 0.000000 0.000000 0.000000 -0.017511
#
#
# Mechanical properties :
#
#
# Convention : Reuss Voigt Hill
#
# Bulk Modulus (GPa) = 44.90638 81.49887 63.20262
# Shear Modulus (GPa) = 50.56526 25.77145 38.16835
#
# Velocity S-wave (km/s) = 4.30263 3.07169 3.73818
# Velocity P-wave (km/s) = 6.41283 6.51293 6.46307
#
# Compressibility (1/GPa) = 0.02226855
#
# Stress axis : x y z
#
# Youngs Moduli (GPa) = 46.88331 152.72529 150.85279
#
# Poissons Ratio (x) = -0.40551 0.92043
# Poissons Ratio (y) = -0.12448 0.40316
# Poissons Ratio (z) = 0.28606 0.40816
#
# Static dielectric constant tensor:
#      x y z
#    x 4.384040 0.000000 0.000000 
#    y 0.000000 4.831570 0.000000 
#    z 0.000000 0.000000 5.835120 
# 
# 
# High freq. dielectric constant tensor:
#      x y z
#    x 2.116190 0.000000 0.000000 
#    y 0.000000 2.087900 0.000000 
#    z 0.000000 0.000000 2.147660 
# 
# From -- ./inp_files/1388.got.cif
#   From: 2010.03.12/outbox.cif.g09.slc.cpg/sg72_1_cif.got.tgz:1388.got - 2010.04.16 14:54:00.
