data_PCOD8294897
_publ_section_title
;
Structure prediction by ZEFSAII (Michael W. Deem and Ramdas Pophale) SiO2 
 PCOD8294897
Probable space group: I B A M
;
_chemical_formula_sum "Si O2"
_cell_formula_units_Z 80
_cell_length_a 10.396950
_cell_length_b 13.660041
_cell_length_c 27.963185
_cell_angle_alpha 90.000000
_cell_angle_beta 90.000000
_cell_angle_gamma 90.000000
_cell_volume 3971.408804
_symmetry_space_group_name_H-M "I B A M"
_symmetry_group_IT_number 72
_symmetry_cell_setting 'orthorhombic'
loop_
_space_group_symop_operation_xyz
x,y,z
-x,-y,z
x,-y,1/2-z
-x,y,1/2-z
-x,-y,-z
x,y,-z
-x,y,1/2+z
x,-y,1/2+z
1/2+x,1/2+y,1/2+z
1/2-x,1/2-y,1/2+z
1/2+x,1/2-y,-z
1/2-x,1/2+y,-z
1/2-x,1/2-y,1/2-z
1/2+x,1/2+y,1/2-z
1/2-x,1/2+y,z
1/2+x,1/2-y,z
loop_
_atom_site_type_symbol
_atom_site_label
_atom_site_fract_x
_atom_site_fract_y
_atom_site_fract_z
Si Si1 0.358149 0.481741 0.109307
Si Si2 0.805003 0.166322 0.444397
Si Si3 0.930734 0.230810 0.898208
Si Si4 0.193682 0.508988 0.301407
Si Si5 0.002190 0.667934 0.302059
O O1 0.500000 0.500000 0.127064
O O2 0.322850 0.549782 0.063933
O O3 0.346342 0.367964 0.096171
O O4 0.280331 0.519524 0.154432
O O5 0.798999 0.189668 0.500000
O O6 0.665558 0.191052 0.421741
O O7 0.929204 0.224570 0.423459
O O8 0.958912 0.256462 0.842853
O O9 0.266527 0.500000 0.250000
O O10 0.085345 0.427175 0.299029
O O11 0.142588 0.620049 0.311506
O O12 0.000000 0.722111 0.250000
#
# Coordination Sequence:
#
# PCOD8294897 Si02
#       5
#    16  16  16  16  16
#     4  10  22  38  57  85 124 161 194 253 311 363
#     4  11  24  42  64  89 120 162 210 257 311 363
#     4  11  22  41  64  89 125 160 207 256 304 371
#     4   9  17  35  59  84 119 160 200 242 296 358
#     4   9  18  35  62  89 117 161 201 244 299 359
#
# _framework density 20.143985000000001
#
# number of rings (size 3 to 8) (size 9 to 14) (size 15 to 20)
#    0.000    2.000    2.000    3.000    0.000    4.800 
#    7.200    3.000    0.000    3.600    0.000    0.000 
#    0.000    0.000    0.000    0.000    0.000    0.000 
#
# Total GULP energy -495564.515613 kJ/mol
# GULP energy per Si atom -12389.112890 kJ/mol
# Density = 2.009814 g / cm^3
# Si number density = 20.143985 Si / 1000 Ang^3
#
#
#
# Elastic Constant Matrix: (Units=GPa)
#
#
# Indices 1 2 3 4 5 6 
#
# 1 70.4175 21.3216 47.6474 0.0000 0.0000 0.0000
# 2 21.3216 83.7525 33.1104 0.0000 0.0000 0.0000
# 3 47.6474 33.1104 148.5905 0.0000 0.0000 0.0000
# 4 0.0000 0.0000 0.0000 6.4397 0.0000 0.0000
# 5 0.0000 0.0000 0.0000 0.0000 24.5167 0.0000
# 6 0.0000 0.0000 0.0000 0.0000 0.0000 13.4513
#
#
#
# Elastic Compliance Matrix: (Units=1/GPa)
#
#
# Indices 1 2 3 4 5 6 
#
# 1 0.018643 -0.002613 -0.005396 0.000000 0.000000 0.000000
# 2 -0.002613 0.013460 -0.002161 0.000000 0.000000 0.000000
# 3 -0.005396 -0.002161 0.008942 0.000000 0.000000 0.000000
# 4 0.000000 0.000000 0.000000 0.155286 0.000000 0.000000
# 5 0.000000 0.000000 0.000000 0.000000 0.040788 0.000000
# 6 0.000000 0.000000 0.000000 0.000000 0.000000 0.074342
#
#
# Mechanical properties :
#
#
# Convention : Reuss Voigt Hill
#
# Bulk Modulus (GPa) = 48.29938 56.32437 52.31187
# Shear Modulus (GPa) = 14.76219 22.26030 18.51124
#
# Velocity S-wave (km/s) = 2.71003 3.32785 3.03470
# Velocity P-wave (km/s) = 5.81562 6.54123 6.18907
#
# Compressibility (1/GPa) = 0.02070420
#
# Stress axis : x y z
#
# Youngs Moduli (GPa) = 53.63848 74.29640 111.83444
#
# Poissons Ratio (x) = 0.19414 0.60345
# Poissons Ratio (y) = 0.14016 0.24171
# Poissons Ratio (z) = 0.28943 0.16058
#
# Static dielectric constant tensor:
#      x y z
#    x 3.703910 0.000000 0.000000 
#    y 0.000000 4.056280 0.000000 
#    z 0.000000 0.000000 3.691310 
# 
# 
# High freq. dielectric constant tensor:
#      x y z
#    x 1.783620 0.000000 0.000000 
#    y 0.000000 1.777400 0.000000 
#    z 0.000000 0.000000 1.787980 
# 
# From -- ./inp_files/47963.got.cif
#   From: 2010.03.12/outbox.cif.g09.slc.cpg/sg72_24_cif.got.tgz:47963.got - 2010.04.16 14:54:00.
