data_PCOD8294460
_publ_section_title
;
Structure prediction by ZEFSAII (Michael W. Deem and Ramdas Pophale) SiO2 
 PCOD8294460
Probable space group: I B A M
;
_chemical_formula_sum "Si O2"
_cell_formula_units_Z 80
_cell_length_a 5.129801
_cell_length_b 31.601321
_cell_length_c 25.220057
_cell_angle_alpha 90.000000
_cell_angle_beta 90.000000
_cell_angle_gamma 90.000000
_cell_volume 4088.385309
_symmetry_space_group_name_H-M "I B A M"
_symmetry_group_IT_number 72
_symmetry_cell_setting 'orthorhombic'
loop_
_space_group_symop_operation_xyz
x,y,z
-x,-y,z
x,-y,1/2-z
-x,y,1/2-z
-x,-y,-z
x,y,-z
-x,y,1/2+z
x,-y,1/2+z
1/2+x,1/2+y,1/2+z
1/2-x,1/2-y,1/2+z
1/2+x,1/2-y,-z
1/2-x,1/2+y,-z
1/2-x,1/2-y,1/2-z
1/2+x,1/2+y,1/2-z
1/2-x,1/2+y,z
1/2+x,1/2-y,z
loop_
_atom_site_type_symbol
_atom_site_label
_atom_site_fract_x
_atom_site_fract_y
_atom_site_fract_z
Si Si1 0.938016 0.952353 0.413285
Si Si2 0.811412 0.732614 0.690802
Si Si3 0.578856 0.587921 0.193772
Si Si4 0.444983 0.098509 0.058455
Si Si5 0.074947 0.638274 0.832971
O O1 0.914449 0.949401 0.349351
O O2 0.664013 0.937923 0.437809
O O3 0.164022 0.922627 0.435257
O O4 0.000000 0.000000 0.430174
O O5 0.750000 0.750000 0.750000
O O6 0.531026 0.737580 0.662125
O O7 0.930473 0.685903 0.688062
O O8 0.500000 0.567369 0.250000
O O9 0.363868 0.622134 0.177797
O O10 0.856762 0.611687 0.198773
O O11 0.487572 0.134144 0.103819
O O12 0.459974 0.119700 0.000000
#
# Coordination Sequence:
#
# PCOD8294460 Si02
#       5
#    16  16  16  16  16
#     4  10  21  36  53  82 111 135 181 231 268 316
#     4  10  21  32  50  79 107 138 168 216 267 316
#     4  10  21  33  54  75 106 152 178 210 263 326
#     4  10  21  37  57  79 103 143 182 221 277 319
#     4  10  21  36  52  77 111 138 180 222 260 324
#
# _framework density 19.567625
#
# number of rings (size 3 to 8) (size 9 to 14) (size 15 to 20)
#    0.000    2.000    0.000    3.000    8.400    2.800 
#    0.000    0.000    0.000    8.400    0.000    0.000 
#    0.000    0.000    0.000    0.000    0.000    0.000 
#
# Total GULP energy -495680.111382 kJ/mol
# GULP energy per Si atom -12392.002785 kJ/mol
# Density = 1.952309 g / cm^3
# Si number density = 19.567625 Si / 1000 Ang^3
#
#
#
# Elastic Constant Matrix: (Units=GPa)
#
#
# Indices 1 2 3 4 5 6 
#
# 1 117.8341 8.2855 5.3653 0.0000 0.0000 0.0000
# 2 8.2855 63.1879 14.4404 0.0000 0.0000 0.0000
# 3 5.3653 14.4404 117.3307 0.0000 0.0000 0.0000
# 4 0.0000 0.0000 0.0000 7.7919 0.0000 0.0000
# 5 0.0000 0.0000 0.0000 0.0000 10.5736 0.0000
# 6 0.0000 0.0000 0.0000 0.0000 0.0000 26.4761
#
#
#
# Elastic Compliance Matrix: (Units=1/GPa)
#
#
# Indices 1 2 3 4 5 6 
#
# 1 0.008573 -0.001065 -0.000261 0.000000 0.000000 0.000000
# 2 -0.001065 0.016416 -0.001972 0.000000 0.000000 0.000000
# 3 -0.000261 -0.001972 0.008778 0.000000 0.000000 0.000000
# 4 0.000000 0.000000 0.000000 0.128339 0.000000 0.000000
# 5 0.000000 0.000000 0.000000 0.000000 0.094575 0.000000
# 6 0.000000 0.000000 0.000000 0.000000 0.000000 0.037770
#
#
# Mechanical properties :
#
#
# Convention : Reuss Voigt Hill
#
# Bulk Modulus (GPa) = 36.80224 39.39281 38.09752
# Shear Modulus (GPa) = 16.12367 26.98574 21.55470
#
# Velocity S-wave (km/s) = 2.87365 3.71765 3.32256
# Velocity P-wave (km/s) = 5.46434 6.21315 5.85074
#
# Compressibility (1/GPa) = 0.02717226
#
# Stress axis : x y z
#
# Youngs Moduli (GPa) = 116.64198 60.91616 113.92738
#
# Poissons Ratio (x) = 0.06485 0.02974
# Poissons Ratio (y) = 0.12417 0.22463
# Poissons Ratio (z) = 0.03045 0.12011
#
# Static dielectric constant tensor:
#      x y z
#    x 0.040090 0.000000 0.000000 
#    y 0.000000 3.181460 0.000000 
#    z 0.000000 0.000000 3.761320 
# 
# 
# High freq. dielectric constant tensor:
#      x y z
#    x 1.800450 0.000000 0.000000 
#    y 0.000000 1.721020 0.000000 
#    z 0.000000 0.000000 1.747700 
# 
# From -- ./inp_files/41559.got.cif
#   From: 2010.03.12/outbox.cif.g09.slc.cpg/sg72_21_cif.got.tgz:41559.got - 2010.04.16 14:54:00.
