data_PCOD8294965
_publ_section_title
;
Structure prediction by ZEFSAII (Michael W. Deem and Ramdas Pophale) SiO2 
 PCOD8294965
Probable space group: I B A M
;
_chemical_formula_sum "Si O2"
_cell_formula_units_Z 72
_cell_length_a 9.234149
_cell_length_b 14.672165
_cell_length_c 24.365588
_cell_angle_alpha 90.000000
_cell_angle_beta 90.000000
_cell_angle_gamma 90.000000
_cell_volume 3301.170661
_symmetry_space_group_name_H-M "I B A M"
_symmetry_group_IT_number 72
_symmetry_cell_setting 'orthorhombic'
loop_
_space_group_symop_operation_xyz
x,y,z
-x,-y,z
x,-y,1/2-z
-x,y,1/2-z
-x,-y,-z
x,y,-z
-x,y,1/2+z
x,-y,1/2+z
1/2+x,1/2+y,1/2+z
1/2-x,1/2-y,1/2+z
1/2+x,1/2-y,-z
1/2-x,1/2+y,-z
1/2-x,1/2-y,1/2-z
1/2+x,1/2+y,1/2-z
1/2-x,1/2+y,z
1/2+x,1/2-y,z
loop_
_atom_site_type_symbol
_atom_site_label
_atom_site_fract_x
_atom_site_fract_y
_atom_site_fract_z
Si Si1 0.341190 0.831329 0.401600
Si Si2 0.328773 0.838200 0.938433
Si Si3 0.863735 0.309828 0.778646
Si Si4 0.834719 0.989684 0.371732
Si Si5 0.750914 0.500000 0.750000
O O1 0.497904 0.841955 0.429703
O O2 0.233369 0.764588 0.434372
O O3 0.370220 0.788447 0.342472
O O4 0.260863 0.927574 0.394961
O O5 0.240786 0.899343 0.895266
O O6 0.299469 0.873929 0.000000
O O7 0.750000 0.250000 0.750000
O O8 0.853213 0.415725 0.763814
O O9 0.000000 0.266773 0.750000
O O10 0.842380 0.982433 0.305247
O O11 0.000000 0.000000 0.392779
#
# Coordination Sequence:
#
# PCOD8294965 Si02
#       5
#    16  16  16  16   8
#     4  11  24  42  65  95 128 167 215 264 319 380
#     4  12  26  45  67  91 126 170 219 271 320 376
#     4  11  22  37  62  93 129 166 204 255 316 384
#     4  11  24  42  67  98 131 168 211 261 320 385
#     4  10  22  40  64  94 132 168 204 252 316 386
#
# _framework density 21.810444
#
# number of rings (size 3 to 8) (size 9 to 14) (size 15 to 20)
#    0.000    0.889    0.000    7.333    0.000   12.000 
#    0.000    0.000    0.000    0.000    0.000    0.000 
#    0.000    0.000    0.000    0.000    0.000    0.000 
#
# Total GULP energy -446238.174032 kJ/mol
# GULP energy per Si atom -12395.504834 kJ/mol
# Density = 2.176080 g / cm^3
# Si number density = 21.810444 Si / 1000 Ang^3
#
#
#
# Elastic Constant Matrix: (Units=GPa)
#
#
# Indices 1 2 3 4 5 6 
#
# 1 161.9534 36.9201 41.6257 0.0000 0.0000 0.0000
# 2 36.9201 82.0878 46.7269 0.0000 0.0000 0.0000
# 3 41.6257 46.7269 127.8981 0.0000 0.0000 0.0000
# 4 0.0000 0.0000 0.0000 36.0397 0.0000 0.0000
# 5 0.0000 0.0000 0.0000 0.0000 27.7517 0.0000
# 6 0.0000 0.0000 0.0000 0.0000 0.0000 21.0960
#
#
#
# Elastic Compliance Matrix: (Units=1/GPa)
#
#
# Indices 1 2 3 4 5 6 
#
# 1 0.007084 -0.002366 -0.001441 0.000000 0.000000 0.000000
# 2 -0.002366 0.016171 -0.005138 0.000000 0.000000 0.000000
# 3 -0.001441 -0.005138 0.010165 0.000000 0.000000 0.000000
# 4 0.000000 0.000000 0.000000 0.027747 0.000000 0.000000
# 5 0.000000 0.000000 0.000000 0.000000 0.036034 0.000000
# 6 0.000000 0.000000 0.000000 0.000000 0.000000 0.047402
#
#
# Mechanical properties :
#
#
# Convention : Reuss Voigt Hill
#
# Bulk Modulus (GPa) = 64.39184 69.16496 66.77840
# Shear Modulus (GPa) = 29.82041 33.42193 31.62117
#
# Velocity S-wave (km/s) = 3.70165 3.91881 3.81178
# Velocity P-wave (km/s) = 6.91788 7.22889 7.07509
#
# Compressibility (1/GPa) = 0.01552992
#
# Stress axis : x y z
#
# Youngs Moduli (GPa) = 141.15507 61.83981 98.37738
#
# Poissons Ratio (x) = 0.14630 0.14180
# Poissons Ratio (y) = 0.33395 0.50546
# Poissons Ratio (z) = 0.20345 0.31773
#
# Static dielectric constant tensor:
#      x y z
#    x 3.861620 0.000000 0.000000 
#    y 0.000000 3.748190 0.000000 
#    z 0.000000 0.000000 4.088620 
# 
# 
# High freq. dielectric constant tensor:
#      x y z
#    x 1.869590 0.000000 0.000000 
#    y 0.000000 1.863810 0.000000 
#    z 0.000000 0.000000 1.864730 
# 
# From -- ./inp_files/47046.got.cif
#   From: 2010.03.12/outbox.cif.g09.slc.cpg/sg72_24_cif.got.tgz:47046.got - 2010.04.16 14:54:00.
