data_PCOD8294419
_publ_section_title
;
Structure prediction by ZEFSAII (Michael W. Deem and Ramdas Pophale) SiO2 
 PCOD8294419
Probable space group: I B A M
;
_chemical_formula_sum "Si O2"
_cell_formula_units_Z 72
_cell_length_a 30.836157
_cell_length_b 9.113911
_cell_length_c 13.882602
_cell_angle_alpha 90.000000
_cell_angle_beta 90.000000
_cell_angle_gamma 90.000000
_cell_volume 3901.538569
_symmetry_space_group_name_H-M "I B A M"
_symmetry_group_IT_number 72
_symmetry_cell_setting 'orthorhombic'
loop_
_space_group_symop_operation_xyz
x,y,z
-x,-y,z
x,-y,1/2-z
-x,y,1/2-z
-x,-y,-z
x,y,-z
-x,y,1/2+z
x,-y,1/2+z
1/2+x,1/2+y,1/2+z
1/2-x,1/2-y,1/2+z
1/2+x,1/2-y,-z
1/2-x,1/2+y,-z
1/2-x,1/2-y,1/2-z
1/2+x,1/2+y,1/2-z
1/2-x,1/2+y,z
1/2+x,1/2-y,z
loop_
_atom_site_type_symbol
_atom_site_label
_atom_site_fract_x
_atom_site_fract_y
_atom_site_fract_z
Si Si1 0.337240 0.798076 0.000000
Si Si2 0.216444 0.008126 0.000000
Si Si3 0.064592 0.672363 0.000000
Si Si4 0.165773 0.270752 0.500000
Si Si5 0.293944 0.990278 0.636221
Si Si6 0.936568 0.679195 0.000000
Si Si7 0.000858 0.172639 0.637162
O O1 0.387709 0.761488 0.000000
O O2 0.327107 0.888287 0.903271
O O3 0.304830 0.664690 0.000000
O O4 0.245698 0.984533 0.904973
O O5 0.175813 0.900044 0.000000
O O6 0.043411 0.747990 0.906043
O O7 0.114986 0.705330 0.000000
O O8 0.057883 0.496850 0.000000
O O9 0.187772 0.336125 0.403282
O O10 0.292621 0.000000 0.750000
O O11 0.958756 0.747174 0.094452
O O12 0.000000 0.198080 0.750000
O O13 0.000000 0.000000 0.610679
#
# Coordination Sequence:
#
# PCOD8294419 Si02
#       7
#     8   8   8   8  16   8  16
#     4  10  22  38  58  89 115 150 196 239 281 339
#     4  10  22  36  60  85 116 155 194 236 288 340
#     4  11  21  39  62  85 115 156 192 230 287 333
#     4  10  22  38  58  89 115 150 196 239 281 339
#     4  10  20  40  60  82 118 153 192 239 288 340
#     4  11  21  39  62  85 115 156 192 230 287 333
#     4  10  23  40  61  89 118 148 185 233 288 345
#
# _framework density 18.454256999999998
#
# number of rings (size 3 to 8) (size 9 to 14) (size 15 to 20)
#    0.000    2.000    2.222    5.333    3.111    7.111 
#    0.000    0.000    0.000    0.000    0.000    0.000 
#    0.000    0.000    0.000    0.000    0.000    0.000 
#
# Total GULP energy -446276.668094 kJ/mol
# GULP energy per Si atom -12396.574114 kJ/mol
# Density = 1.841225 g / cm^3
# Si number density = 18.454257 Si / 1000 Ang^3
#
#
#
# Elastic Constant Matrix: (Units=GPa)
#
#
# Indices 1 2 3 4 5 6 
#
# 1 128.6969 50.4210 47.9536 0.0000 0.0000 0.0000
# 2 50.4210 78.0763 42.3541 0.0000 0.0000 0.0000
# 3 47.9536 42.3541 174.6037 0.0000 0.0000 0.0000
# 4 0.0000 0.0000 0.0000 21.0600 0.0000 0.0000
# 5 0.0000 0.0000 0.0000 0.0000 9.3835 0.0000
# 6 0.0000 0.0000 0.0000 0.0000 0.0000 23.2621
#
#
#
# Elastic Compliance Matrix: (Units=1/GPa)
#
#
# Indices 1 2 3 4 5 6 
#
# 1 0.010714 -0.006129 -0.001456 0.000000 0.000000 0.000000
# 2 -0.006129 0.018255 -0.002745 0.000000 0.000000 0.000000
# 3 -0.001456 -0.002745 0.006793 0.000000 0.000000 0.000000
# 4 0.000000 0.000000 0.000000 0.047483 0.000000 0.000000
# 5 0.000000 0.000000 0.000000 0.000000 0.106570 0.000000
# 6 0.000000 0.000000 0.000000 0.000000 0.000000 0.042988
#
#
# Mechanical properties :
#
#
# Convention : Reuss Voigt Hill
#
# Bulk Modulus (GPa) = 66.21490 73.64828 69.93159
# Shear Modulus (GPa) = 19.34253 26.78434 23.06343
#
# Velocity S-wave (km/s) = 3.24100 3.81385 3.53903
# Velocity P-wave (km/s) = 7.06851 7.70643 7.39436
#
# Compressibility (1/GPa) = 0.01510234
#
# Stress axis : x y z
#
# Youngs Moduli (GPa) = 93.33635 54.77882 147.21293
#
# Poissons Ratio (x) = 0.33576 0.21430
# Poissons Ratio (y) = 0.57209 0.40408
# Poissons Ratio (z) = 0.13587 0.15036
#
# Static dielectric constant tensor:
#      x y z
#    x 3.420910 0.000000 0.000000 
#    y 0.000000 3.619670 0.000000 
#    z 0.000000 0.000000 3.200850 
# 
# 
# High freq. dielectric constant tensor:
#      x y z
#    x 1.722920 0.000000 0.000000 
#    y 0.000000 1.730850 0.000000 
#    z 0.000000 0.000000 1.705220 
# 
# From -- ./inp_files/26237.got.cif
#   From: 2010.03.12/outbox.cif.g09.slc.cpg/sg72_14_cif.got.tgz:26237.got - 2010.04.16 14:54:00.
