data_PCOD8294939
_publ_section_title
;
Structure prediction by ZEFSAII (Michael W. Deem and Ramdas Pophale) SiO2 
 PCOD8294939
Probable space group: I B A M
;
_chemical_formula_sum "Si O2"
_cell_formula_units_Z 88
_cell_length_a 13.881718
_cell_length_b 12.285967
_cell_length_c 22.745405
_cell_angle_alpha 90.000000
_cell_angle_beta 90.000000
_cell_angle_gamma 90.000000
_cell_volume 3879.236312
_symmetry_space_group_name_H-M "I B A M"
_symmetry_group_IT_number 72
_symmetry_cell_setting 'orthorhombic'
loop_
_space_group_symop_operation_xyz
x,y,z
-x,-y,z
x,-y,1/2-z
-x,y,1/2-z
-x,-y,-z
x,y,-z
-x,y,1/2+z
x,-y,1/2+z
1/2+x,1/2+y,1/2+z
1/2-x,1/2-y,1/2+z
1/2+x,1/2-y,-z
1/2-x,1/2+y,-z
1/2-x,1/2-y,1/2-z
1/2+x,1/2+y,1/2-z
1/2-x,1/2+y,z
1/2+x,1/2-y,z
loop_
_atom_site_type_symbol
_atom_site_label
_atom_site_fract_x
_atom_site_fract_y
_atom_site_fract_z
Si Si1 0.826068 0.239570 0.178227
Si Si2 0.884942 0.511957 0.500000
Si Si3 0.334658 0.389848 0.711163
Si Si4 0.750219 0.693705 0.500000
Si Si5 0.027094 0.210072 0.875175
Si Si6 0.950284 0.886580 0.000000
Si Si7 0.190216 0.642202 0.402985
O O1 0.764048 0.353596 0.176582
O O2 0.852350 0.210405 0.244795
O O3 0.769599 0.133405 0.149172
O O4 0.925437 0.255535 0.145129
O O5 0.855399 0.638059 0.500000
O O6 0.835611 0.462797 0.441334
O O7 0.000000 0.500000 0.500000
O O8 0.329198 0.500000 0.750000
O O9 0.425077 0.387276 0.665079
O O10 0.665722 0.601879 0.500000
O O11 0.738735 0.764902 0.557526
O O12 0.093650 0.316068 0.872300
O O13 0.014047 0.175859 0.942513
O O14 0.000000 0.000000 0.000000
#
# Coordination Sequence:
#
# PCOD8294939 Si02
#       7
#    16   8  16   8  16   8  16
#     4  10  22  39  68  93 131 175 222 283 344 395
#     4  11  24  39  63  95 129 188 235 270 344 428
#     4  10  23  43  66  97 130 173 232 277 335 414
#     4   9  21  40  57  86 135 171 220 272 333 395
#     4  10  22  40  64  93 135 177 219 284 344 403
#     4  10  23  35  59 101 130 165 225 277 336 405
#     4   9  22  41  58  92 132 173 224 280 340 397
#
# _framework density 22.684877
#
# number of rings (size 3 to 8) (size 9 to 14) (size 15 to 20)
#    0.000    2.182    0.000    1.091    7.636    4.364 
#    0.000    0.909    0.000    9.818    0.000    0.000 
#    0.000    0.000    0.000    0.000    0.000    0.000 
#
# Total GULP energy -545141.883371 kJ/mol
# GULP energy per Si atom -12389.588258 kJ/mol
# Density = 2.263324 g / cm^3
# Si number density = 22.684877 Si / 1000 Ang^3
#
#
#
# Elastic Constant Matrix: (Units=GPa)
#
#
# Indices 1 2 3 4 5 6 
#
# 1 134.2128 25.3372 49.6595 0.0000 0.0000 0.0000
# 2 25.3372 51.6521 16.3935 0.0000 0.0000 0.0000
# 3 49.6595 16.3935 125.2396 0.0000 0.0000 0.0000
# 4 0.0000 0.0000 0.0000 23.9688 0.0000 0.0000
# 5 0.0000 0.0000 0.0000 0.0000 28.6968 0.0000
# 6 0.0000 0.0000 0.0000 0.0000 0.0000 25.0717
#
#
#
# Elastic Compliance Matrix: (Units=1/GPa)
#
#
# Indices 1 2 3 4 5 6 
#
# 1 0.009315 -0.003544 -0.003230 0.000000 0.000000 0.000000
# 2 -0.003544 0.021548 -0.001415 0.000000 0.000000 0.000000
# 3 -0.003230 -0.001415 0.009451 0.000000 0.000000 0.000000
# 4 0.000000 0.000000 0.000000 0.041721 0.000000 0.000000
# 5 0.000000 0.000000 0.000000 0.000000 0.034847 0.000000
# 6 0.000000 0.000000 0.000000 0.000000 0.000000 0.039886
#
#
# Mechanical properties :
#
#
# Convention : Reuss Voigt Hill
#
# Bulk Modulus (GPa) = 41.77920 54.87609 48.32765
# Shear Modulus (GPa) = 27.60543 30.19508 28.90026
#
# Velocity S-wave (km/s) = 3.49221 3.65234 3.57317
# Velocity P-wave (km/s) = 5.89219 6.48299 6.19464
#
# Compressibility (1/GPa) = 0.02393536
#
# Stress axis : x y z
#
# Youngs Moduli (GPa) = 107.35467 46.40790 105.81427
#
# Poissons Ratio (x) = 0.16448 0.34174
# Poissons Ratio (y) = 0.38050 0.14975
# Poissons Ratio (z) = 0.34671 0.06568
#
# Static dielectric constant tensor:
#      x y z
#    x 4.197190 0.000000 0.000000 
#    y 0.000000 3.022030 0.000000 
#    z 0.000000 0.000000 4.532240 
# 
# 
# High freq. dielectric constant tensor:
#      x y z
#    x 1.900690 0.000000 0.000000 
#    y 0.000000 1.852520 0.000000 
#    z 0.000000 0.000000 1.921050 
# 
# From -- ./inp_files/44272.got.cif
#   From: 2010.03.12/outbox.cif.g09.slc.cpg/sg72_23_cif.got.tgz:44272.got - 2010.04.16 14:54:00.
