data_PCOD8294599
_publ_section_title
;
Structure prediction by ZEFSAII (Michael W. Deem and Ramdas Pophale) SiO2 
 PCOD8294599
Probable space group: I B A M
;
_chemical_formula_sum "Si O2"
_cell_formula_units_Z 96
_cell_length_a 25.965923
_cell_length_b 14.871612
_cell_length_c 13.608394
_cell_angle_alpha 90.000000
_cell_angle_beta 90.000000
_cell_angle_gamma 90.000000
_cell_volume 5254.951182
_symmetry_space_group_name_H-M "I B A M"
_symmetry_group_IT_number 72
_symmetry_cell_setting 'orthorhombic'
loop_
_space_group_symop_operation_xyz
x,y,z
-x,-y,z
x,-y,1/2-z
-x,y,1/2-z
-x,-y,-z
x,y,-z
-x,y,1/2+z
x,-y,1/2+z
1/2+x,1/2+y,1/2+z
1/2-x,1/2-y,1/2+z
1/2+x,1/2-y,-z
1/2-x,1/2+y,-z
1/2-x,1/2-y,1/2-z
1/2+x,1/2+y,1/2-z
1/2-x,1/2+y,z
1/2+x,1/2-y,z
loop_
_atom_site_type_symbol
_atom_site_label
_atom_site_fract_x
_atom_site_fract_y
_atom_site_fract_z
Si Si1 0.817772 0.057645 0.500000
Si Si2 0.830749 0.216645 0.000000
Si Si3 0.679931 0.091512 0.791683
Si Si4 0.056157 0.907748 0.207179
Si Si5 0.235552 0.601096 0.500000
Si Si6 0.590082 0.441011 0.500000
Si Si7 0.640406 0.261297 0.292630
Si Si8 0.788183 0.903131 0.791092
O O1 0.806569 0.115086 0.597701
O O2 0.777568 0.976414 0.500000
O O3 0.879240 0.035795 0.500000
O O4 0.851047 0.271679 0.095062
O O5 0.768800 0.194561 0.000000
O O6 0.861025 0.123434 0.000000
O O7 0.699233 0.089928 0.904342
O O8 0.640165 0.174212 0.778027
O O9 0.727104 0.106452 0.716600
O O10 0.653228 0.000000 0.750000
O O11 0.089253 0.818942 0.230160
O O12 0.000000 0.890466 0.250000
O O13 0.081024 0.000000 0.250000
O O14 0.052442 0.925043 0.091188
O O15 0.688755 0.326319 0.276853
O O16 0.806744 0.000000 0.750000
#
# Coordination Sequence:
#
# PCOD8294599 Si02
#       8
#     8   8  16  16   8   8  16  16
#     4  11  18  30  54  75 111 148 181 217 262 330
#     4   9  18  30  56  73 103 139 178 222 258 322
#     4  11  23  35  50  73 110 148 185 224 264 317
#     4  10  21  37  59  82 107 138 176 228 284 340
#     4  11  18  34  49  75 109 145 184 222 260 307
#     4   9  18  33  51  83 107 143 174 214 271 327
#     4  11  21  36  53  79 107 141 184 225 273 326
#     4  11  19  31  50  76 104 143 177 216 263 317
#
# _framework density 18.268485999999999
#
# number of rings (size 3 to 8) (size 9 to 14) (size 15 to 20)
#    0.000    1.500    5.000    4.000    0.000    3.333 
#    0.000    2.500    0.000    0.500    0.000    0.000 
#    0.000    5.333    0.000    0.000    0.000    0.000 
#
# Total GULP energy -594854.372880 kJ/mol
# GULP energy per Si atom -12392.799435 kJ/mol
# Density = 1.822691 g / cm^3
# Si number density = 18.268486 Si / 1000 Ang^3
#
#
#
# Elastic Constant Matrix: (Units=GPa)
#
#
# Indices 1 2 3 4 5 6 
#
# 1 60.8207 40.9945 44.9671 0.0000 0.0000 0.0000
# 2 40.9945 94.3205 31.3073 0.0000 0.0000 0.0000
# 3 44.9671 31.3073 132.5431 0.0000 0.0000 0.0000
# 4 0.0000 0.0000 0.0000 12.6762 0.0000 0.0000
# 5 0.0000 0.0000 0.0000 0.0000 -48.1060 0.0000
# 6 0.0000 0.0000 0.0000 0.0000 0.0000 20.2270
#
#
#
# Elastic Compliance Matrix: (Units=1/GPa)
#
#
# Indices 1 2 3 4 5 6 
#
# 1 0.028611 -0.009997 -0.007345 0.000000 0.000000 0.000000
# 2 -0.009997 0.014997 -0.000151 0.000000 0.000000 0.000000
# 3 -0.007345 -0.000151 0.010072 0.000000 0.000000 0.000000
# 4 0.000000 0.000000 0.000000 0.078888 0.000000 0.000000
# 5 0.000000 0.000000 0.000000 0.000000 -0.020787 0.000000
# 6 0.000000 0.000000 0.000000 0.000000 0.000000 0.049439
#
#
# Mechanical properties :
#
#
# Convention : Reuss Voigt Hill
#
# Bulk Modulus (GPa) = 53.49275 58.02469 55.75872
# Shear Modulus (GPa) = 24.69907 8.32046 16.50976
#
# Velocity S-wave (km/s) = 3.68095 2.13645 3.00947
# Velocity P-wave (km/s) = 6.88555 6.15768 6.53176
#
# Compressibility (1/GPa) = 0.01869412
#
# Stress axis : x y z
#
# Youngs Moduli (GPa) = 34.95211 66.67924 99.28214
#
# Poissons Ratio (x) = 0.66659 0.72925
# Poissons Ratio (y) = 0.34941 0.01497
# Poissons Ratio (z) = 0.25673 0.01005
#
# Static dielectric constant tensor:
#      x y z
#    x 2.936000 0.000000 0.000000 
#    y 0.000000 3.310950 0.000000 
#    z 0.000000 0.000000 3.937440 
# 
# 
# High freq. dielectric constant tensor:
#      x y z
#    x 1.660310 0.000000 0.000000 
#    y 0.000000 1.682570 0.000000 
#    z 0.000000 0.000000 1.728440 
# 
# From -- ./inp_files/16887.got.cif
#   From: 2010.03.12/outbox.cif.g09.slc.cpg/sg72_9_cif.got.tgz:16887.got - 2010.04.16 14:54:00.
