data_PCOD8294958
_publ_section_title
;
Structure prediction by ZEFSAII (Michael W. Deem and Ramdas Pophale) SiO2 
 PCOD8294958
Probable space group: I B A M
;
_chemical_formula_sum "Si O2"
_cell_formula_units_Z 96
_cell_length_a 26.410430
_cell_length_b 13.125233
_cell_length_c 14.254645
_cell_angle_alpha 90.000000
_cell_angle_beta 90.000000
_cell_angle_gamma 90.000000
_cell_volume 4941.273582
_symmetry_space_group_name_H-M "I B A M"
_symmetry_group_IT_number 72
_symmetry_cell_setting 'orthorhombic'
loop_
_space_group_symop_operation_xyz
x,y,z
-x,-y,z
x,-y,1/2-z
-x,y,1/2-z
-x,-y,-z
x,y,-z
-x,y,1/2+z
x,-y,1/2+z
1/2+x,1/2+y,1/2+z
1/2-x,1/2-y,1/2+z
1/2+x,1/2-y,-z
1/2-x,1/2+y,-z
1/2-x,1/2-y,1/2-z
1/2+x,1/2+y,1/2-z
1/2-x,1/2+y,z
1/2+x,1/2-y,z
loop_
_atom_site_type_symbol
_atom_site_label
_atom_site_fract_x
_atom_site_fract_y
_atom_site_fract_z
Si Si1 0.149975 0.352908 0.500000
Si Si2 0.644866 0.521824 0.000000
Si Si3 0.629205 0.900125 0.798223
Si Si4 0.206510 0.281792 0.182190
Si Si5 0.267886 0.671542 0.500000
Si Si6 0.946979 0.213020 0.203790
Si Si7 0.135085 0.090232 0.187426
Si Si8 0.430836 0.697048 0.500000
O O1 0.152188 0.418691 0.403431
O O2 0.194292 0.268148 0.500000
O O3 0.092974 0.309229 0.500000
O O4 0.624968 0.456709 0.086596
O O5 0.618349 0.628878 0.000000
O O6 0.703744 0.560285 0.000000
O O7 0.674918 0.871358 0.729591
O O8 0.586865 0.813497 0.799319
O O9 0.604845 0.000000 0.750000
O O10 0.250000 0.250000 0.250000
O O11 0.172282 0.182734 0.168001
O O12 0.230440 0.324100 0.087555
O O13 0.916771 0.125606 0.260764
O O14 0.000000 0.238792 0.250000
O O15 0.961166 0.177890 0.096971
O O16 0.160200 0.000000 0.250000
#
# Coordination Sequence:
#
# PCOD8294958 Si02
#       8
#     8   8  16  16   8  16  16   8
#     4   9  18  38  61  80 118 158 200 248 291 354
#     4  11  21  38  60  83 119 164 197 247 299 362
#     4  10  22  40  63  88 120 160 207 254 306 362
#     4  11  22  37  55  84 122 159 202 255 298 355
#     4  11  21  38  57  83 124 165 211 244 299 366
#     4  10  22  41  65  90 122 157 199 257 311 369
#     4  11  22  38  58  86 121 158 201 250 308 362
#     4   9  18  38  62  86 113 160 194 232 307 356
#
# _framework density 19.428189
#
# number of rings (size 3 to 8) (size 9 to 14) (size 15 to 20)
#    0.000    1.667    3.333    1.500    0.000    4.000 
#    3.000    3.333    0.000    3.000    0.000    0.000 
#    0.000    0.000    0.000    0.000    0.000    0.000 
#
# Total GULP energy -594763.675197 kJ/mol
# GULP energy per Si atom -12390.909900 kJ/mol
# Density = 1.938397 g / cm^3
# Si number density = 19.428189 Si / 1000 Ang^3
#
#
#
# Elastic Constant Matrix: (Units=GPa)
#
#
# Indices 1 2 3 4 5 6 
#
# 1 82.0999 11.0824 57.1086 0.0000 0.0000 0.0000
# 2 11.0824 75.1522 50.7697 0.0000 0.0000 0.0000
# 3 57.1086 50.7697 205.8638 0.0000 0.0000 0.0000
# 4 0.0000 0.0000 0.0000 208.1692 0.0000 0.0000
# 5 0.0000 0.0000 0.0000 0.0000 35.0635 0.0000
# 6 0.0000 0.0000 0.0000 0.0000 0.0000 7.6424
#
#
#
# Elastic Compliance Matrix: (Units=1/GPa)
#
#
# Indices 1 2 3 4 5 6 
#
# 1 0.015125 0.000725 -0.004375 0.000000 0.000000 0.000000
# 2 0.000725 0.016001 -0.004147 0.000000 0.000000 0.000000
# 3 -0.004375 -0.004147 0.007094 0.000000 0.000000 0.000000
# 4 0.000000 0.000000 0.000000 0.004804 0.000000 0.000000
# 5 0.000000 0.000000 0.000000 0.000000 0.028520 0.000000
# 6 0.000000 0.000000 0.000000 0.000000 0.000000 0.130850
#
#
# Mechanical properties :
#
#
# Convention : Reuss Voigt Hill
#
# Bulk Modulus (GPa) = 44.19619 66.78192 55.48905
# Shear Modulus (GPa) = 22.17000 66.45203 44.31102
#
# Velocity S-wave (km/s) = 3.38172 5.85476 4.78091
# Velocity P-wave (km/s) = 6.16814 8.95280 7.68760
#
# Compressibility (1/GPa) = 0.02262639
#
# Stress axis : x y z
#
# Youngs Moduli (GPa) = 66.11362 62.49553 140.96502
#
# Poissons Ratio (x) = -0.04530 0.61668
# Poissons Ratio (y) = -0.04792 0.58462
# Poissons Ratio (z) = 0.28923 0.25919
#
# Static dielectric constant tensor:
#      x y z
#    x 3.499030 0.000000 0.000000 
#    y 0.000000 3.392080 0.000000 
#    z 0.000000 0.000000 3.908240 
# 
# 
# High freq. dielectric constant tensor:
#      x y z
#    x 1.732400 0.000000 0.000000 
#    y 0.000000 1.748360 0.000000 
#    z 0.000000 0.000000 1.782480 
# 
# From -- ./inp_files/25155.got.cif
#   From: 2010.03.12/outbox.cif.g09.slc.cpg/sg72_13_cif.got.tgz:25155.got - 2010.04.16 14:54:00.
