data_PCOD8294227
_publ_section_title
;
Structure prediction by ZEFSAII (Michael W. Deem and Ramdas Pophale) SiO2 
 PCOD8294227
Probable space group: I B A M
;
_chemical_formula_sum "Si O2"
_cell_formula_units_Z 96
_cell_length_a 13.157981
_cell_length_b 13.000275
_cell_length_c 31.346365
_cell_angle_alpha 90.000000
_cell_angle_beta 90.000000
_cell_angle_gamma 90.000000
_cell_volume 5362.026801
_symmetry_space_group_name_H-M "I B A M"
_symmetry_group_IT_number 72
_symmetry_cell_setting 'orthorhombic'
loop_
_space_group_symop_operation_xyz
x,y,z
-x,-y,z
x,-y,1/2-z
-x,y,1/2-z
-x,-y,-z
x,y,-z
-x,y,1/2+z
x,-y,1/2+z
1/2+x,1/2+y,1/2+z
1/2-x,1/2-y,1/2+z
1/2+x,1/2-y,-z
1/2-x,1/2+y,-z
1/2-x,1/2-y,1/2-z
1/2+x,1/2+y,1/2-z
1/2-x,1/2+y,z
1/2+x,1/2-y,z
loop_
_atom_site_type_symbol
_atom_site_label
_atom_site_fract_x
_atom_site_fract_y
_atom_site_fract_z
Si Si1 0.799855 0.371579 0.857670
Si Si2 0.111619 0.264175 0.135054
Si Si3 0.240303 0.428424 0.089874
Si Si4 0.156335 0.529438 0.500000
Si Si5 0.517804 0.119431 0.702547
Si Si6 0.026893 0.676222 0.000000
Si Si7 0.078567 0.220255 0.586514
O O1 0.697025 0.311468 0.846837
O O2 0.771036 0.485390 0.873582
O O3 0.867316 0.365287 0.814663
O O4 0.863357 0.319809 0.895556
O O5 0.156413 0.341850 0.099738
O O6 0.066963 0.326527 0.174316
O O7 0.023753 0.197138 0.112857
O O8 0.353273 0.381463 0.090963
O O9 0.224836 0.471274 0.042339
O O10 0.096876 0.423386 0.500000
O O11 0.087549 0.632408 0.500000
O O12 0.500000 0.163689 0.750000
O O13 0.500000 0.000000 0.701201
O O14 0.048591 0.752286 0.961236
#
# Coordination Sequence:
#
# PCOD8294227 Si02
#       7
#    16  16  16   8  16   8  16
#     4  10  21  36  58  82 110 147 187 229 280 341
#     4  10  21  37  57  82 110 148 189 228 280 335
#     4  11  20  36  54  79 113 151 190 238 285 329
#     4  11  21  30  56  79 110 150 190 249 289 325
#     4  10  20  36  62  90 114 141 179 227 279 340
#     4  11  19  32  52  79 108 148 196 245 289 327
#     4  10  21  34  54  78 111 150 194 235 280 335
#
# _framework density 17.903677999999999
#
# number of rings (size 3 to 8) (size 9 to 14) (size 15 to 20)
#    0.000    1.667    5.000    0.500    0.000    1.333 
#    0.000    0.833    0.000    2.000    0.000    1.167 
#    0.000    0.000    0.000    0.000    0.000    0.000 
#
# Total GULP energy -595149.216526 kJ/mol
# GULP energy per Si atom -12398.942011 kJ/mol
# Density = 1.786293 g / cm^3
# Si number density = 17.903678 Si / 1000 Ang^3
#
#
#
# Elastic Constant Matrix: (Units=GPa)
#
#
# Indices 1 2 3 4 5 6 
#
# 1 102.7114 25.3298 43.7599 0.0000 0.0000 0.0000
# 2 25.3298 46.7651 18.7886 0.0000 0.0000 0.0000
# 3 43.7599 18.7886 120.9024 0.0000 0.0000 0.0000
# 4 0.0000 0.0000 0.0000 22.1481 0.0000 0.0000
# 5 0.0000 0.0000 0.0000 0.0000 19.4811 0.0000
# 6 0.0000 0.0000 0.0000 0.0000 0.0000 28.7569
#
#
#
# Elastic Compliance Matrix: (Units=1/GPa)
#
#
# Indices 1 2 3 4 5 6 
#
# 1 0.012651 -0.005347 -0.003748 0.000000 0.000000 0.000000
# 2 -0.005347 0.025067 -0.001960 0.000000 0.000000 0.000000
# 3 -0.003748 -0.001960 0.009932 0.000000 0.000000 0.000000
# 4 0.000000 0.000000 0.000000 0.045151 0.000000 0.000000
# 5 0.000000 0.000000 0.000000 0.000000 0.051332 0.000000
# 6 0.000000 0.000000 0.000000 0.000000 0.000000 0.034774
#
#
# Mechanical properties :
#
#
# Convention : Reuss Voigt Hill
#
# Bulk Modulus (GPa) = 39.15346 49.57063 44.36204
# Shear Modulus (GPa) = 23.86275 26.24391 25.05333
#
# Velocity S-wave (km/s) = 3.65477 3.83278 3.74483
# Velocity P-wave (km/s) = 6.30287 6.88000 6.59775
#
# Compressibility (1/GPa) = 0.02554053
#
# Stress axis : x y z
#
# Youngs Moduli (GPa) = 79.04209 39.89314 100.68032
#
# Poissons Ratio (x) = 0.21329 0.37738
# Poissons Ratio (y) = 0.42261 0.19736
# Poissons Ratio (z) = 0.29627 0.07820
#
# Static dielectric constant tensor:
#      x y z
#    x 3.374260 0.000000 0.000000 
#    y 0.000000 3.165490 0.000000 
#    z 0.000000 0.000000 3.423250 
# 
# 
# High freq. dielectric constant tensor:
#      x y z
#    x 1.698180 0.000000 0.000000 
#    y 0.000000 1.681740 0.000000 
#    z 0.000000 0.000000 1.688550 
# 
# From -- ./inp_files/51403.got.cif
#   From: 2010.03.12/outbox.cif.g09.slc.cpg/sg72_26_cif.got.tgz:51403.got - 2010.04.16 14:54:00.
