data_PCOD8294114
_publ_section_title
;
Structure prediction by ZEFSAII (Michael W. Deem and Ramdas Pophale) SiO2 
 PCOD8294114
Probable space group: I B A M
;
_chemical_formula_sum "Si O2"
_cell_formula_units_Z 96
_cell_length_a 21.393595
_cell_length_b 10.435404
_cell_length_c 19.476941
_cell_angle_alpha 90.000000
_cell_angle_beta 90.000000
_cell_angle_gamma 90.000000
_cell_volume 4348.242793
_symmetry_space_group_name_H-M "I B A M"
_symmetry_group_IT_number 72
_symmetry_cell_setting 'orthorhombic'
loop_
_space_group_symop_operation_xyz
x,y,z
-x,-y,z
x,-y,1/2-z
-x,y,1/2-z
-x,-y,-z
x,y,-z
-x,y,1/2+z
x,-y,1/2+z
1/2+x,1/2+y,1/2+z
1/2-x,1/2-y,1/2+z
1/2+x,1/2-y,-z
1/2-x,1/2+y,-z
1/2-x,1/2-y,1/2-z
1/2+x,1/2+y,1/2-z
1/2-x,1/2+y,z
1/2+x,1/2-y,z
loop_
_atom_site_type_symbol
_atom_site_label
_atom_site_fract_x
_atom_site_fract_y
_atom_site_fract_z
Si Si1 0.744612 0.110591 0.159374
Si Si2 0.784680 0.353711 0.079310
Si Si3 0.888600 0.372045 0.287569
Si Si4 0.965132 0.631202 0.076523
Si Si5 0.089543 0.778714 0.924018
Si Si6 0.377985 0.380080 0.209926
O O1 0.748635 0.227813 0.105904
O O2 0.685872 0.124387 0.209296
O O3 0.802869 0.113921 0.211625
O O4 0.740113 0.977457 0.118713
O O5 0.860056 0.336312 0.090931
O O6 0.768364 0.372068 0.000000
O O7 0.915094 0.500000 0.250000
O O8 0.906974 0.249964 0.241475
O O9 0.913586 0.352434 0.364831
O O10 0.018142 0.738100 0.082795
O O11 0.000000 0.500000 0.087781
O O12 0.933911 0.636574 0.000000
O O13 0.100811 0.891627 0.869476
O O14 0.103031 0.833807 0.000000
O O15 0.406934 0.500000 0.250000
#
# Coordination Sequence:
#
# PCOD8294114 Si02
#       6
#    16  16  16  16  16  16
#     4  11  21  37  57  86 122 160 198 242 302 357
#     4  10  20  35  60  90 121 156 199 247 295 356
#     4  12  24  39  62  91 121 157 202 250 298 355
#     4  10  21  39  63  91 123 157 197 250 306 355
#     4   9  20  40  62  87 120 159 199 245 303 356
#     4  11  23  40  61  88 122 161 201 246 298 357
#
# _framework density 22.077883
#
# number of rings (size 3 to 8) (size 9 to 14) (size 15 to 20)
#    0.000    1.500    0.000    6.500    0.000    5.667 
#    0.000    2.500    0.000    2.000    0.000    0.000 
#    0.000    0.000    0.000    0.000    0.000    0.000 
#
# Total GULP energy -595175.744750 kJ/mol
# GULP energy per Si atom -12399.494682 kJ/mol
# Density = 2.202763 g / cm^3
# Si number density = 22.077883 Si / 1000 Ang^3
#
#
#
# Elastic Constant Matrix: (Units=GPa)
#
#
# Indices 1 2 3 4 5 6 
#
# 1 44.8475 9.8641 28.7761 0.0000 0.0000 0.0000
# 2 9.8641 144.5831 66.3881 0.0000 0.0000 0.0000
# 3 28.7761 66.3881 146.5447 0.0000 0.0000 0.0000
# 4 0.0000 0.0000 0.0000 21.4008 0.0000 0.0000
# 5 0.0000 0.0000 0.0000 0.0000 -37.2465 0.0000
# 6 0.0000 0.0000 0.0000 0.0000 0.0000 9.9751
#
#
#
# Elastic Compliance Matrix: (Units=1/GPa)
#
#
# Indices 1 2 3 4 5 6 
#
# 1 0.025570 0.000708 -0.005342 0.000000 0.000000 0.000000
# 2 0.000708 0.008753 -0.004104 0.000000 0.000000 0.000000
# 3 -0.005342 -0.004104 0.009732 0.000000 0.000000 0.000000
# 4 0.000000 0.000000 0.000000 0.046727 0.000000 0.000000
# 5 0.000000 0.000000 0.000000 0.000000 -0.026848 0.000000
# 6 0.000000 0.000000 0.000000 0.000000 0.000000 0.100250
#
#
# Mechanical properties :
#
#
# Convention : Reuss Voigt Hill
#
# Bulk Modulus (GPa) = 37.62391 60.67020 49.14705
# Shear Modulus (GPa) = 26.24425 14.22235 20.23330
#
# Velocity S-wave (km/s) = 3.45151 2.54084 3.03058
# Velocity P-wave (km/s) = 5.74128 6.01229 5.87835
#
# Compressibility (1/GPa) = 0.02657884
#
# Stress axis : x y z
#
# Youngs Moduli (GPa) = 39.10905 114.25098 102.75252
#
# Poissons Ratio (x) = -0.08093 0.54889
# Poissons Ratio (y) = -0.02770 0.42172
# Poissons Ratio (z) = 0.20891 0.46891
#
# Static dielectric constant tensor:
#      x y z
#    x 4.367760 0.000000 0.000000 
#    y 0.000000 3.951310 0.000000 
#    z 0.000000 0.000000 4.223630 
# 
# 
# High freq. dielectric constant tensor:
#      x y z
#    x 1.851350 0.000000 0.000000 
#    y 0.000000 1.851850 0.000000 
#    z 0.000000 0.000000 1.891040 
# 
# From -- ./inp_files/29470.got.cif
#   From: 2010.03.12/outbox.cif.g09.slc.cpg/sg72_15_cif.got.tgz:29470.got - 2010.04.16 14:54:00.
