data_PCOD8294899
_publ_section_title
;
Structure prediction by ZEFSAII (Michael W. Deem and Ramdas Pophale) SiO2 
 PCOD8294899
Probable space group: I B A M
;
_chemical_formula_sum "Si O2"
_cell_formula_units_Z 96
_cell_length_a 20.249173
_cell_length_b 28.712000
_cell_length_c 8.810414
_cell_angle_alpha 90.000000
_cell_angle_beta 90.000000
_cell_angle_gamma 90.000000
_cell_volume 5122.324085
_symmetry_space_group_name_H-M "I B A M"
_symmetry_group_IT_number 72
_symmetry_cell_setting 'orthorhombic'
loop_
_space_group_symop_operation_xyz
x,y,z
-x,-y,z
x,-y,1/2-z
-x,y,1/2-z
-x,-y,-z
x,y,-z
-x,y,1/2+z
x,-y,1/2+z
1/2+x,1/2+y,1/2+z
1/2-x,1/2-y,1/2+z
1/2+x,1/2-y,-z
1/2-x,1/2+y,-z
1/2-x,1/2-y,1/2-z
1/2+x,1/2+y,1/2-z
1/2-x,1/2+y,z
1/2+x,1/2-y,z
loop_
_atom_site_type_symbol
_atom_site_label
_atom_site_fract_x
_atom_site_fract_y
_atom_site_fract_z
Si Si1 0.681158 0.949014 0.320363
Si Si2 0.312298 0.408931 0.672671
Si Si3 0.936737 0.949775 0.322199
Si Si4 0.205856 0.804238 0.329768
Si Si5 0.929181 0.626414 0.177863
Si Si6 0.341241 0.208644 0.676459
O O1 0.694610 0.953038 0.500000
O O2 0.742033 0.923377 0.239722
O O3 0.616822 0.917983 0.285126
O O4 0.670209 0.000000 0.250000
O O5 0.317914 0.428223 0.500000
O O6 0.367560 0.427332 0.783741
O O7 0.327545 0.354136 0.673538
O O8 0.946213 0.952448 0.500000
O O9 0.000000 0.922482 0.250000
O O10 0.935444 0.000000 0.250000
O O11 0.230395 0.791665 0.500000
O O12 0.268098 0.807050 0.220429
O O13 0.153130 0.763737 0.278659
O O14 0.896158 0.673970 0.249144
O O15 0.000000 0.617647 0.250000
O O16 0.939795 0.631558 0.000000
O O17 0.348903 0.200237 0.500000
#
# Coordination Sequence:
#
# PCOD8294899 Si02
#       6
#    16  16  16  16  16  16
#     4  11  23  39  57  82 111 147 190 242 292 340
#     4  11  21  35  56  86 117 149 185 230 279 334
#     4  11  22  38  58  80 109 147 187 229 276 333
#     4   9  18  31  55  84 111 141 177 223 272 324
#     4  10  22  38  58  80 111 150 190 236 288 342
#     4   9  17  34  55  80 110 141 179 225 273 327
#
# _framework density 18.741492999999998
#
# number of rings (size 3 to 8) (size 9 to 14) (size 15 to 20)
#    0.000    1.833    1.667    3.500    0.000    3.000 
#    0.000    2.500    0.000    2.000    0.000    0.000 
#    0.000    0.000    0.000    0.000    0.000    0.000 
#
# Total GULP energy -594811.954382 kJ/mol
# GULP energy per Si atom -12391.915716 kJ/mol
# Density = 1.869884 g / cm^3
# Si number density = 18.741493 Si / 1000 Ang^3
#
#
#
# Elastic Constant Matrix: (Units=GPa)
#
#
# Indices 1 2 3 4 5 6 
#
# 1 115.1427 56.9944 45.4688 0.0000 0.0000 0.0000
# 2 56.9944 120.0156 43.8318 0.0000 0.0000 0.0000
# 3 45.4688 43.8318 87.5579 0.0000 0.0000 0.0000
# 4 0.0000 0.0000 0.0000 13.8937 0.0000 0.0000
# 5 0.0000 0.0000 0.0000 0.0000 30.4539 0.0000
# 6 0.0000 0.0000 0.0000 0.0000 0.0000 25.6585
#
#
#
# Elastic Compliance Matrix: (Units=1/GPa)
#
#
# Indices 1 2 3 4 5 6 
#
# 1 0.012566 -0.004386 -0.004330 0.000000 0.000000 0.000000
# 2 -0.004386 0.011727 -0.003593 0.000000 0.000000 0.000000
# 3 -0.004330 -0.003593 0.015468 0.000000 0.000000 0.000000
# 4 0.000000 0.000000 0.000000 0.071975 0.000000 0.000000
# 5 0.000000 0.000000 0.000000 0.000000 0.032837 0.000000
# 6 0.000000 0.000000 0.000000 0.000000 0.000000 0.038973
#
#
# Mechanical properties :
#
#
# Convention : Reuss Voigt Hill
#
# Bulk Modulus (GPa) = 66.03475 68.36737 67.20106
# Shear Modulus (GPa) = 23.45086 25.76263 24.60675
#
# Velocity S-wave (km/s) = 3.54118 3.71162 3.62740
# Velocity P-wave (km/s) = 7.21325 7.41124 7.31292
#
# Compressibility (1/GPa) = 0.01514354
#
# Stress axis : x y z
#
# Youngs Moduli (GPa) = 79.58183 85.27022 64.64902
#
# Poissons Ratio (x) = 0.37400 0.27991
# Poissons Ratio (y) = 0.34905 0.23229
# Poissons Ratio (z) = 0.34456 0.30638
#
# Static dielectric constant tensor:
#      x y z
#    x 1.892150 0.000000 0.000000 
#    y 0.000000 3.761470 0.000000 
#    z 0.000000 0.000000 3.632450 
# 
# 
# High freq. dielectric constant tensor:
#      x y z
#    x 1.713760 0.000000 0.000000 
#    y 0.000000 1.737230 0.000000 
#    z 0.000000 0.000000 1.732630 
# 
# From -- ./inp_files/5969.got.cif
#   From: 2010.03.12/outbox.cif.g09.slc.cpg/sg72_3_cif.got.tgz:5969.got - 2010.04.16 14:54:00.
