data_PCOD8294300
_publ_section_title
;
Structure prediction by ZEFSAII (Michael W. Deem and Ramdas Pophale) SiO2 
 PCOD8294300
Probable space group: I B A M
;
_chemical_formula_sum "Si O2"
_cell_formula_units_Z 80
_cell_length_a 15.301425
_cell_length_b 15.084255
_cell_length_c 17.869986
_cell_angle_alpha 90.000000
_cell_angle_beta 90.000000
_cell_angle_gamma 90.000000
_cell_volume 4124.582129
_symmetry_space_group_name_H-M "I B A M"
_symmetry_group_IT_number 72
_symmetry_cell_setting 'orthorhombic'
loop_
_space_group_symop_operation_xyz
x,y,z
-x,-y,z
x,-y,1/2-z
-x,y,1/2-z
-x,-y,-z
x,y,-z
-x,y,1/2+z
x,-y,1/2+z
1/2+x,1/2+y,1/2+z
1/2-x,1/2-y,1/2+z
1/2+x,1/2-y,-z
1/2-x,1/2+y,-z
1/2-x,1/2-y,1/2-z
1/2+x,1/2+y,1/2-z
1/2-x,1/2+y,z
1/2+x,1/2-y,z
loop_
_atom_site_type_symbol
_atom_site_label
_atom_site_fract_x
_atom_site_fract_y
_atom_site_fract_z
Si Si1 0.028073 0.618493 0.166765
Si Si2 0.449105 0.318539 0.175606
Si Si3 0.625492 0.961890 0.589346
Si Si4 0.698282 0.535780 0.830255
Si Si5 0.429979 0.422934 0.418540
O O1 0.073404 0.714760 0.170331
O O2 0.098858 0.552739 0.131044
O O3 0.000000 0.588457 0.250000
O O4 0.941730 0.615566 0.114081
O O5 0.500000 0.345409 0.250000
O O6 0.361423 0.376474 0.172918
O O7 0.517900 0.337098 0.109503
O O8 0.624075 0.973892 0.500000
O O9 0.721368 0.935672 0.617553
O O10 0.730342 0.500000 0.750000
O O11 0.648657 0.451691 0.865240
O O12 0.500000 0.500000 0.422355
O O13 0.390497 0.401796 0.500000
#
# Coordination Sequence:
#
# PCOD8294300 Si02
#       5
#    16  16  16  16  16
#     4  10  21  41  65  86 117 156 208 250 304 361
#     4  10  20  37  61  92 117 156 196 248 301 364
#     4  11  23  41  61  86 119 166 205 248 308 362
#     4  11  20  36  63  87 123 155 198 245 300 357
#     4   9  18  31  52  82 116 154 190 233 294 353
#
# _framework density 19.395904999999999
#
# number of rings (size 3 to 8) (size 9 to 14) (size 15 to 20)
#    0.000    1.800    2.000    4.200    0.000    2.400 
#    3.600    3.000    0.000    0.000    0.000    0.000 
#    0.000    0.000    0.000    0.000    0.000    0.000 
#
# Total GULP energy -495856.783633 kJ/mol
# GULP energy per Si atom -12396.419591 kJ/mol
# Density = 1.935176 g / cm^3
# Si number density = 19.395905 Si / 1000 Ang^3
#
#
#
# Elastic Constant Matrix: (Units=GPa)
#
#
# Indices 1 2 3 4 5 6 
#
# 1 107.4743 37.9770 39.7318 0.0000 0.0000 0.0000
# 2 37.9770 90.7437 36.8293 0.0000 0.0000 0.0000
# 3 39.7318 36.8293 153.4272 0.0000 0.0000 0.0000
# 4 0.0000 0.0000 0.0000 18.1130 0.0000 0.0000
# 5 0.0000 0.0000 0.0000 0.0000 31.0432 0.0000
# 6 0.0000 0.0000 0.0000 0.0000 0.0000 15.3615
#
#
#
# Elastic Compliance Matrix: (Units=1/GPa)
#
#
# Indices 1 2 3 4 5 6 
#
# 1 0.011453 -0.003977 -0.002011 0.000000 0.000000 0.000000
# 2 -0.003977 0.013591 -0.002232 0.000000 0.000000 0.000000
# 3 -0.002011 -0.002232 0.007574 0.000000 0.000000 0.000000
# 4 0.000000 0.000000 0.000000 0.055209 0.000000 0.000000
# 5 0.000000 0.000000 0.000000 0.000000 0.032213 0.000000
# 6 0.000000 0.000000 0.000000 0.000000 0.000000 0.065098
#
#
# Mechanical properties :
#
#
# Convention : Reuss Voigt Hill
#
# Bulk Modulus (GPa) = 61.81673 64.52460 63.17066
# Shear Modulus (GPa) = 24.15785 28.71070 26.43427
#
# Velocity S-wave (km/s) = 3.53301 3.85157 3.69572
# Velocity P-wave (km/s) = 6.97016 7.28826 7.13098
#
# Compressibility (1/GPa) = 0.01617685
#
# Stress axis : x y z
#
# Youngs Moduli (GPa) = 87.31010 73.58075 132.02208
#
# Poissons Ratio (x) = 0.29263 0.26554
# Poissons Ratio (y) = 0.34723 0.29473
# Poissons Ratio (z) = 0.17561 0.16426
#
# Static dielectric constant tensor:
#      x y z
#    x 3.460120 0.000000 0.000000 
#    y 0.000000 3.328610 0.000000 
#    z 0.000000 0.000000 3.907170 
# 
# 
# High freq. dielectric constant tensor:
#      x y z
#    x 1.746550 0.000000 0.000000 
#    y 0.000000 1.738360 0.000000 
#    z 0.000000 0.000000 1.772800 
# 
# From -- ./inp_files/30443.got.cif
#   From: 2010.03.12/outbox.cif.g09.slc.cpg/sg72_16_cif.got.tgz:30443.got - 2010.04.16 14:54:00.
