data_PCOD8294339
_publ_section_title
;
Structure prediction by ZEFSAII (Michael W. Deem and Ramdas Pophale) SiO2 
 PCOD8294339
Probable space group: I B A M
;
_chemical_formula_sum "Si O2"
_cell_formula_units_Z 116
_cell_length_a 11.925166
_cell_length_b 26.927411
_cell_length_c 17.842372
_cell_angle_alpha 90.000000
_cell_angle_beta 90.000000
_cell_angle_gamma 90.000000
_cell_volume 5729.432697
_symmetry_space_group_name_H-M "I B A M"
_symmetry_group_IT_number 72
_symmetry_cell_setting 'orthorhombic'
loop_
_space_group_symop_operation_xyz
x,y,z
-x,-y,z
x,-y,1/2-z
-x,y,1/2-z
-x,-y,-z
x,y,-z
-x,y,1/2+z
x,-y,1/2+z
1/2+x,1/2+y,1/2+z
1/2-x,1/2-y,1/2+z
1/2+x,1/2-y,-z
1/2-x,1/2+y,-z
1/2-x,1/2-y,1/2-z
1/2+x,1/2+y,1/2-z
1/2-x,1/2+y,z
1/2+x,1/2-y,z
loop_
_atom_site_type_symbol
_atom_site_label
_atom_site_fract_x
_atom_site_fract_y
_atom_site_fract_z
Si Si1 0.863247 0.146572 0.582647
Si Si2 0.385305 0.329237 0.913686
Si Si3 0.379217 0.804082 0.225455
Si Si4 0.500000 0.500000 0.250000
Si Si5 0.628678 0.989927 0.412349
Si Si6 0.212815 0.600634 0.330712
Si Si7 0.300318 0.443875 0.682503
Si Si8 0.258897 0.236345 0.865981
O O1 0.867605 0.122122 0.500000
O O2 0.813875 0.108392 0.641790
O O3 0.783257 0.194876 0.576152
O O4 0.986056 0.163444 0.608970
O O5 0.315154 0.366786 0.862292
O O6 0.356511 0.271191 0.899439
O O7 0.362172 0.342327 0.000000
O O8 0.500000 0.786364 0.250000
O O9 0.379545 0.862172 0.203644
O O10 0.293213 0.793953 0.292215
O O11 0.345455 0.772145 0.153026
O O12 0.577578 0.531244 0.307493
O O13 0.647127 0.000720 0.500000
O O14 0.713419 0.023938 0.365481
O O15 0.500000 0.000000 0.388842
O O16 0.655931 0.932240 0.395561
O O17 0.253883 0.563352 0.266161
#
# Coordination Sequence:
#
# PCOD8294339 Si02
#       8
#    16  16  16   4  16  16  16  16
#     4  11  23  39  62  91 126 168 209 260 320 380
#     4  10  22  39  61  92 127 167 210 258 318 380
#     4  10  21  35  58  90 117 154 202 250 306 361
#     4  12  24  44  68  96 128 164 218 274 324 376
#     4  11  26  46  67  94 130 170 213 266 328 392
#     4  11  22  41  65  90 124 161 208 261 312 374
#     4  12  24  43  65  97 127 167 215 268 323 383
#     4  10  20  38  58  87 124 163 202 255 306 374
#
# _framework density 20.246331999999999
#
# number of rings (size 3 to 8) (size 9 to 14) (size 15 to 20)
#    0.000    1.241    2.759    2.897    1.931    0.552 
#    1.241    0.690    0.000    6.621    0.000    0.000 
#    0.000    0.000    0.000    0.000    0.000    0.000 
#
# Total GULP energy -719244.408717 kJ/mol
# GULP energy per Si atom -12400.765668 kJ/mol
# Density = 2.020025 g / cm^3
# Si number density = 20.246332 Si / 1000 Ang^3
#
#
#
# Elastic Constant Matrix: (Units=GPa)
#
#
# Indices 1 2 3 4 5 6 
#
# 1 104.5173 51.0099 30.9917 0.0000 0.0000 0.0000
# 2 51.0099 110.9284 36.1364 0.0001 0.0000 0.0000
# 3 30.9917 36.1364 86.2498 0.0002 -0.0001 0.0000
# 4 0.0000 0.0001 0.0002 30.3260 0.0000 0.0000
# 5 0.0000 0.0000 -0.0001 0.0000 32.2089 0.0000
# 6 0.0000 0.0000 0.0000 0.0000 0.0000 30.1536
#
#
#
# Elastic Compliance Matrix: (Units=1/GPa)
#
#
# Indices 1 2 3 4 5 6 
#
# 1 0.012774 -0.005071 -0.002465 0.000000 0.000000 0.000000
# 2 -0.005071 0.012453 -0.003395 0.000000 0.000000 0.000000
# 3 -0.002465 -0.003395 0.013903 0.000000 0.000000 0.000000
# 4 0.000000 0.000000 0.000000 0.032975 0.000000 0.000000
# 5 0.000000 0.000000 0.000000 0.000000 0.031047 0.000000
# 6 0.000000 0.000000 0.000000 0.000000 0.000000 0.033164
#
#
# Mechanical properties :
#
#
# Convention : Reuss Voigt Hill
#
# Bulk Modulus (GPa) = 57.91698 59.77459 58.84579
# Shear Modulus (GPa) = 30.50027 30.77486 30.63757
#
# Velocity S-wave (km/s) = 3.88552 3.90298 3.89426
# Velocity P-wave (km/s) = 6.98556 7.06390 7.02484
#
# Compressibility (1/GPa) = 0.01726609
#
# Stress axis : x y z
#
# Youngs Moduli (GPa) = 78.28626 80.30419 71.92883
#
# Poissons Ratio (x) = 0.40720 0.17733
# Poissons Ratio (y) = 0.39697 0.24422
# Poissons Ratio (z) = 0.19300 0.27265
#
# Static dielectric constant tensor:
#      x y z
#    x 3.604790 0.000000 0.000000 
#    y 0.000000 3.762520 0.000000 
#    z 0.000000 0.000000 3.618510 
# 
# 
# High freq. dielectric constant tensor:
#      x y z
#    x 1.788700 0.000000 0.000000 
#    y 0.000000 1.801470 0.000000 
#    z 0.000000 0.000000 1.792720 
# 
# From -- ./inp_files/29728.got.cif
#   From: 2010.03.12/outbox.cif.g09.slc.cpg/sg72_15_cif.got.tgz:29728.got - 2010.04.16 14:54:00.
