data_PCOD8294836
_publ_section_title
;
Structure prediction by ZEFSAII (Michael W. Deem and Ramdas Pophale) SiO2 
 PCOD8294836
Probable space group: I B A M
;
_chemical_formula_sum "Si O2"
_cell_formula_units_Z 112
_cell_length_a 11.540763
_cell_length_b 14.550127
_cell_length_c 28.305666
_cell_angle_alpha 90.000000
_cell_angle_beta 90.000000
_cell_angle_gamma 90.000000
_cell_volume 4753.075188
_symmetry_space_group_name_H-M "I B A M"
_symmetry_group_IT_number 72
_symmetry_cell_setting 'orthorhombic'
loop_
_space_group_symop_operation_xyz
x,y,z
-x,-y,z
x,-y,1/2-z
-x,y,1/2-z
-x,-y,-z
x,y,-z
-x,y,1/2+z
x,-y,1/2+z
1/2+x,1/2+y,1/2+z
1/2-x,1/2-y,1/2+z
1/2+x,1/2-y,-z
1/2-x,1/2+y,-z
1/2-x,1/2-y,1/2-z
1/2+x,1/2+y,1/2-z
1/2-x,1/2+y,z
1/2+x,1/2-y,z
loop_
_atom_site_type_symbol
_atom_site_label
_atom_site_fract_x
_atom_site_fract_y
_atom_site_fract_z
Si Si1 0.500061 0.603440 0.369874
Si Si2 0.708275 0.650745 0.197388
Si Si3 0.638046 0.093090 0.551874
Si Si4 0.632427 0.999098 0.182875
Si Si5 0.388446 0.904597 0.916217
Si Si6 0.361214 0.704638 0.944134
Si Si7 0.698504 0.659548 0.697410
O O1 0.500000 0.500000 0.389738
O O2 0.379678 0.626602 0.344548
O O3 0.526731 0.670449 0.414400
O O4 0.597116 0.609882 0.330103
O O5 0.790798 0.566723 0.214763
O O6 0.653175 0.672611 0.248550
O O7 0.780542 0.737764 0.177737
O O8 0.612191 0.134649 0.500000
O O9 0.527887 0.112547 0.585490
O O10 0.753499 0.140769 0.572064
O O11 0.650895 0.982381 0.546243
O O12 0.650215 0.050878 0.132841
O O13 0.500000 0.000000 0.199615
O O14 0.682896 0.896588 0.186526
O O15 0.328072 0.808990 0.929965
O O16 0.387533 0.696280 0.000000
#
# Coordination Sequence:
#
# PCOD8294836 Si02
#       7
#    16  16  16  16  16  16  16
#     4  12  26  46  75 100 145 196 240 296 367 439
#     4  11  27  46  73 105 146 189 241 295 360 437
#     4  10  21  41  68  97 133 180 237 302 359 426
#     4  12  25  42  70 105 142 185 233 298 352 424
#     4  11  22  41  70  99 137 187 241 294 362 435
#     4  11  26  45  70 107 144 186 246 309 369 434
#     4  11  26  48  71 108 143 190 241 296 361 434
#
# _framework density 23.563692
#
# number of rings (size 3 to 8) (size 9 to 14) (size 15 to 20)
#    0.000    0.857    2.857    4.286    4.000    3.143 
#    0.000    0.000    0.000    0.000    0.000    0.000 
#    0.000    0.000    0.000    0.000    0.000    0.000 
#
# Total GULP energy -694133.506655 kJ/mol
# GULP energy per Si atom -12395.241190 kJ/mol
# Density = 2.351006 g / cm^3
# Si number density = 23.563692 Si / 1000 Ang^3
#
#
#
# Elastic Constant Matrix: (Units=GPa)
#
#
# Indices 1 2 3 4 5 6 
#
# 1 105.2538 40.5228 8.7686 0.0000 0.0000 0.0000
# 2 40.5228 151.6452 9.2683 0.0000 0.0000 0.0000
# 3 8.7686 9.2683 89.5691 0.0000 0.0000 0.0000
# 4 0.0000 0.0000 0.0000 34.3173 0.0000 0.0000
# 5 0.0000 0.0000 0.0000 0.0000 11.0546 0.0000
# 6 0.0000 0.0000 0.0000 0.0000 0.0000 33.8528
#
#
#
# Elastic Compliance Matrix: (Units=1/GPa)
#
#
# Indices 1 2 3 4 5 6 
#
# 1 0.010641 -0.002797 -0.000752 0.000000 0.000000 0.000000
# 2 -0.002797 0.007372 -0.000489 0.000000 0.000000 0.000000
# 3 -0.000752 -0.000489 0.011289 0.000000 0.000000 0.000000
# 4 0.000000 0.000000 0.000000 0.029140 0.000000 0.000000
# 5 0.000000 0.000000 0.000000 0.000000 0.090460 0.000000
# 6 0.000000 0.000000 0.000000 0.000000 0.000000 0.029540
#
#
# Mechanical properties :
#
#
# Convention : Reuss Voigt Hill
#
# Bulk Modulus (GPa) = 47.11660 51.50973 49.31316
# Shear Modulus (GPa) = 25.82750 35.03883 30.43317
#
# Velocity S-wave (km/s) = 3.31429 3.86033 3.59768
# Velocity P-wave (km/s) = 5.88938 6.46349 6.18311
#
# Compressibility (1/GPa) = 0.02122394
#
# Stress axis : x y z
#
# Youngs Moduli (GPa) = 93.98044 135.65305 88.58340
#
# Poissons Ratio (x) = 0.37948 0.06663
# Poissons Ratio (y) = 0.26290 0.04331
# Poissons Ratio (z) = 0.07069 0.06633
#
# Static dielectric constant tensor:
#      x y z
#    x 4.089720 0.000000 0.000000 
#    y 0.000000 4.632260 0.000000 
#    z 0.000000 0.000000 4.265050 
# 
# 
# High freq. dielectric constant tensor:
#      x y z
#    x 1.915830 0.000000 0.000000 
#    y 0.000000 1.947440 0.000000 
#    z 0.000000 0.000000 1.943710 
# 
# From -- ./inp_files/51471.got.cif
#   From: 2010.03.12/outbox.cif.g09.slc.cpg/sg72_26_cif.got.tgz:51471.got - 2010.04.16 14:54:00.
