data_PCOD8294087
_publ_section_title
;
Structure prediction by ZEFSAII (Michael W. Deem and Ramdas Pophale) SiO2 
 PCOD8294087
Probable space group: I B A M
;
_chemical_formula_sum "Si O2"
_cell_formula_units_Z 72
_cell_length_a 17.249251
_cell_length_b 17.843423
_cell_length_c 13.281304
_cell_angle_alpha 90.000000
_cell_angle_beta 90.000000
_cell_angle_gamma 90.000000
_cell_volume 4087.795210
_symmetry_space_group_name_H-M "I B A M"
_symmetry_group_IT_number 72
_symmetry_cell_setting 'orthorhombic'
loop_
_space_group_symop_operation_xyz
x,y,z
-x,-y,z
x,-y,1/2-z
-x,y,1/2-z
-x,-y,-z
x,y,-z
-x,y,1/2+z
x,-y,1/2+z
1/2+x,1/2+y,1/2+z
1/2-x,1/2-y,1/2+z
1/2+x,1/2-y,-z
1/2-x,1/2+y,-z
1/2-x,1/2-y,1/2-z
1/2+x,1/2+y,1/2-z
1/2-x,1/2+y,z
1/2+x,1/2-y,z
loop_
_atom_site_type_symbol
_atom_site_label
_atom_site_fract_x
_atom_site_fract_y
_atom_site_fract_z
Si Si1 0.500000 0.738426 0.250000
Si Si2 0.376387 0.815604 0.118756
Si Si3 0.245351 0.700663 0.888257
Si Si4 0.374072 0.671026 0.614066
Si Si5 0.260120 0.914883 0.782978
O O1 0.454772 0.795471 0.176565
O O2 0.448922 0.680884 0.315764
O O3 0.315240 0.751956 0.152042
O O4 0.337565 0.894603 0.152416
O O5 0.392485 0.817761 0.000000
O O6 0.167427 0.748720 0.886218
O O7 0.236543 0.628566 0.821377
O O8 0.264224 0.672227 0.000000
O O9 0.398681 0.649269 0.500000
O O10 0.317498 0.605555 0.654866
O O11 0.260261 0.000000 0.750000
#
# Coordination Sequence:
#
# PCOD8294087 Si02
#       5
#     8  16  16  16  16
#     4  12  18  34  62  82 116 142 184 228 284 324
#     4  10  20  35  58  84 108 142 188 236 272 319
#     4   9  17  34  56  77 102 139 193 236 267 314
#     4  10  20  35  58  84 108 142 188 236 272 319
#     4  11  20  36  57  78 113 147 182 230 281 326
#
# _framework density 17.613406999999999
#
# number of rings (size 3 to 8) (size 9 to 14) (size 15 to 20)
#    0.000    1.778    4.444    4.000    0.000    1.778 
#    0.000    1.111    0.000    2.667    0.000    0.000 
#    0.000    0.000    0.000    0.000    0.000    0.000 
#
# Total GULP energy -446369.692533 kJ/mol
# GULP energy per Si atom -12399.158126 kJ/mol
# Density = 1.757332 g / cm^3
# Si number density = 17.613407 Si / 1000 Ang^3
#
#
#
# Elastic Constant Matrix: (Units=GPa)
#
#
# Indices 1 2 3 4 5 6 
#
# 1 66.1773 4.5658 13.7417 0.0000 0.0000 0.0000
# 2 4.5658 86.5920 27.6419 0.0000 0.0000 0.0000
# 3 13.7417 27.6419 68.8617 0.0000 0.0000 0.0000
# 4 0.0000 0.0000 0.0000 19.7268 0.0000 0.0000
# 5 0.0000 0.0000 0.0000 0.0000 37.2402 0.0000
# 6 0.0000 0.0000 0.0000 0.0000 0.0000 10.3710
#
#
#
# Elastic Compliance Matrix: (Units=1/GPa)
#
#
# Indices 1 2 3 4 5 6 
#
# 1 0.015767 0.000198 -0.003226 0.000000 0.000000 0.000000
# 2 0.000198 0.013248 -0.005358 0.000000 0.000000 0.000000
# 3 -0.003226 -0.005358 0.017316 0.000000 0.000000 0.000000
# 4 0.000000 0.000000 0.000000 0.050692 0.000000 0.000000
# 5 0.000000 0.000000 0.000000 0.000000 0.026853 0.000000
# 6 0.000000 0.000000 0.000000 0.000000 0.000000 0.096423
#
#
# Mechanical properties :
#
#
# Convention : Reuss Voigt Hill
#
# Bulk Modulus (GPa) = 33.82819 34.83666 34.33243
# Shear Modulus (GPa) = 20.24918 25.17971 22.71444
#
# Velocity S-wave (km/s) = 3.39432 3.78508 3.59501
# Velocity P-wave (km/s) = 5.88299 6.23890 6.06355
#
# Compressibility (1/GPa) = 0.02956114
#
# Stress axis : x y z
#
# Youngs Moduli (GPa) = 63.42315 75.48202 57.74930
#
# Poissons Ratio (x) = -0.01498 0.18630
# Poissons Ratio (y) = -0.01259 0.30940
# Poissons Ratio (z) = 0.20461 0.40440
#
# Static dielectric constant tensor:
#      x y z
#    x 3.254120 0.000000 0.000000 
#    y 0.000000 2.862120 0.000000 
#    z 0.000000 0.000000 3.620710 
# 
# 
# High freq. dielectric constant tensor:
#      x y z
#    x 1.672590 0.000000 0.000000 
#    y 0.000000 1.637690 0.000000 
#    z 0.000000 0.000000 1.712650 
# 
# From -- ./inp_files/22989.got.cif
#   From: 2010.03.12/outbox.cif.g09.slc.cpg/sg72_12_cif.got.tgz:22989.got - 2010.04.16 14:54:00.
