data_PCOD8294031
_publ_section_title
;
Structure prediction by ZEFSAII (Michael W. Deem and Ramdas Pophale) SiO2 
 PCOD8294031
Probable space group: I B A M
;
_chemical_formula_sum "Si O2"
_cell_formula_units_Z 100
_cell_length_a 18.673347
_cell_length_b 32.073183
_cell_length_c 8.955587
_cell_angle_alpha 90.000000
_cell_angle_beta 90.000000
_cell_angle_gamma 90.000000
_cell_volume 5363.623527
_symmetry_space_group_name_H-M "I B A M"
_symmetry_group_IT_number 72
_symmetry_cell_setting 'orthorhombic'
loop_
_space_group_symop_operation_xyz
x,y,z
-x,-y,z
x,-y,1/2-z
-x,y,1/2-z
-x,-y,-z
x,y,-z
-x,y,1/2+z
x,-y,1/2+z
1/2+x,1/2+y,1/2+z
1/2-x,1/2-y,1/2+z
1/2+x,1/2-y,-z
1/2-x,1/2+y,-z
1/2-x,1/2-y,1/2-z
1/2+x,1/2+y,1/2-z
1/2-x,1/2+y,z
1/2+x,1/2-y,z
loop_
_atom_site_type_symbol
_atom_site_label
_atom_site_fract_x
_atom_site_fract_y
_atom_site_fract_z
Si Si1 0.500000 0.500000 0.750000
Si Si2 0.575791 0.729452 0.176459
Si Si3 0.077371 0.686823 0.321686
Si Si4 0.164860 0.851632 0.828910
Si Si5 0.808988 0.369935 0.175060
Si Si6 0.125326 0.942172 0.163894
Si Si7 0.265449 0.960619 0.672215
O O1 0.551080 0.468112 0.660207
O O2 0.500000 0.720921 0.250000
O O3 0.610282 0.770318 0.254358
O O4 0.622217 0.689417 0.215333
O O5 0.568030 0.737180 0.000000
O O6 0.071582 0.689344 0.500000
O O7 0.128114 0.649128 0.273744
O O8 0.000000 0.678886 0.250000
O O9 0.232811 0.851091 0.720540
O O10 0.114537 0.892548 0.803245
O O11 0.191340 0.849422 0.000000
O O12 0.807984 0.418960 0.215068
O O13 0.822130 0.361786 0.000000
O O14 0.181586 0.959370 0.283102
O O15 0.160164 0.946790 0.000000
O O16 0.267432 0.969107 0.500000
O O17 0.303743 0.000000 0.750000
#
# Coordination Sequence:
#
# PCOD8294031 Si02
#       7
#     4  16  16  16  16  16  16
#     4  12  22  28  52  78 106 148 192 240 282 320
#     4  10  20  35  55  78 110 148 188 231 278 330
#     4  11  22  38  61  86 113 143 176 219 271 331
#     4   9  20  37  54  76 108 149 190 234 280 327
#     4  10  21  37  58  85 112 143 183 226 272 326
#     4  10  21  35  49  71 106 143 188 235 277 322
#     4  10  20  35  56  79 107 141 179 222 268 319
#
# _framework density 18.644113000000001
#
# number of rings (size 3 to 8) (size 9 to 14) (size 15 to 20)
#    0.000    1.920    0.800    4.080    1.120    4.480 
#    0.000    0.000    0.000    0.480    0.000    3.360 
#    0.000    0.000    0.000    0.000    0.000    0.000 
#
# Total GULP energy -619768.759344 kJ/mol
# GULP energy per Si atom -12395.375187 kJ/mol
# Density = 1.860168 g / cm^3
# Si number density = 18.644113 Si / 1000 Ang^3
#
#
#
# Elastic Constant Matrix: (Units=GPa)
#
#
# Indices 1 2 3 4 5 6 
#
# 1 69.0042 69.5684 41.7410 -0.0034 0.0001 -0.0014
# 2 69.5684 159.3166 74.7630 -0.0038 0.0003 0.0000
# 3 41.7410 74.7630 109.5907 -0.0103 0.0017 0.0003
# 4 -0.0034 -0.0038 -0.0103 32.1060 0.0015 0.0007
# 5 0.0001 0.0003 0.0017 0.0015 29.5843 -0.0018
# 6 -0.0014 0.0000 0.0003 0.0007 -0.0018 29.6005
#
#
#
# Elastic Compliance Matrix: (Units=1/GPa)
#
#
# Indices 1 2 3 4 5 6 
#
# 1 0.026655 -0.010113 -0.003254 0.000001 0.000000 0.000001
# 2 -0.010113 0.013069 -0.005064 -0.000001 0.000000 0.000000
# 3 -0.003254 -0.005064 0.013819 0.000003 -0.000001 0.000000
# 4 0.000001 -0.000001 0.000003 0.031147 -0.000002 -0.000001
# 5 0.000000 0.000000 -0.000001 -0.000002 0.033802 0.000002
# 6 0.000001 0.000000 0.000000 -0.000001 0.000002 0.033783
#
#
# Mechanical properties :
#
#
# Convention : Reuss Voigt Hill
#
# Bulk Modulus (GPa) = 59.94281 78.89516 69.41898
# Shear Modulus (GPa) = 25.68098 28.38079 27.03088
#
# Velocity S-wave (km/s) = 3.71540 3.90582 3.81180
# Velocity P-wave (km/s) = 7.11523 7.92142 7.52912
#
# Compressibility (1/GPa) = 0.01668257
#
# Stress axis : x y z
#
# Youngs Moduli (GPa) = 37.51586 76.51621 72.36514
#
# Poissons Ratio (x) = 0.77379 0.23545
# Poissons Ratio (y) = 0.37939 0.36646
# Poissons Ratio (z) = 0.12206 0.38748
#
# Static dielectric constant tensor:
#      x y z
#    x 3.093770 0.000000 -0.000010 
#    y 0.000000 3.870500 -0.000040 
#    z -0.000010 -0.000040 3.499840 
# 
# 
# High freq. dielectric constant tensor:
#      x y z
#    x 1.688260 0.000000 0.000000 
#    y 0.000000 1.744100 0.000000 
#    z 0.000000 0.000000 1.735850 
# 
# From -- ./inp_files/6389.got.cif
#   From: 2010.03.12/outbox.cif.g09.slc.cpg/sg72_4_cif.got.tgz:6389.got - 2010.04.16 14:54:00.
