data_PCOD8294849
_publ_section_title
;
Structure prediction by ZEFSAII (Michael W. Deem and Ramdas Pophale) SiO2 
 PCOD8294849
Probable space group: I B A M
;
_chemical_formula_sum "Si O2"
_cell_formula_units_Z 64
_cell_length_a 9.398666
_cell_length_b 18.111241
_cell_length_c 16.371573
_cell_angle_alpha 90.000000
_cell_angle_beta 90.000000
_cell_angle_gamma 90.000000
_cell_volume 2786.793795
_symmetry_space_group_name_H-M "I B A M"
_symmetry_group_IT_number 72
_symmetry_cell_setting 'orthorhombic'
loop_
_space_group_symop_operation_xyz
x,y,z
-x,-y,z
x,-y,1/2-z
-x,y,1/2-z
-x,-y,-z
x,y,-z
-x,y,1/2+z
x,-y,1/2+z
1/2+x,1/2+y,1/2+z
1/2-x,1/2-y,1/2+z
1/2+x,1/2-y,-z
1/2-x,1/2+y,-z
1/2-x,1/2-y,1/2-z
1/2+x,1/2+y,1/2-z
1/2-x,1/2+y,z
1/2+x,1/2-y,z
loop_
_atom_site_type_symbol
_atom_site_label
_atom_site_fract_x
_atom_site_fract_y
_atom_site_fract_z
Si Si1 0.426693 0.069188 0.839744
Si Si2 0.835352 0.994401 0.596571
Si Si3 0.526304 0.774621 0.655928
Si Si4 0.304157 0.672667 0.406726
O O1 0.500000 0.070968 0.750000
O O2 0.457389 0.148964 0.879088
O O3 0.500000 0.000000 0.888123
O O4 0.257090 0.051711 0.847738
O O5 0.813967 0.010866 0.500000
O O6 0.789542 0.911741 0.621544
O O7 0.000000 0.000000 0.620660
O O8 0.500000 0.761521 0.750000
O O9 0.461658 0.705211 0.607328
O O10 0.695406 0.776584 0.643919
O O11 0.261818 0.678598 0.500000
#
# Coordination Sequence:
#
# PCOD8294849 Si02
#       4
#    16  16  16  16
#     4  10  21  42  68  92 128 169 220 270 321 391
#     4  10  23  42  65  97 134 171 217 274 332 390
#     4  11  24  43  67  91 133 174 219 268 329 397
#     4  11  24  42  64  97 131 170 221 271 326 393
#
# _framework density 22.96546
#
# number of rings (size 3 to 8) (size 9 to 14) (size 15 to 20)
#    0.000    1.500    2.500    1.500    3.500    2.500 
#    0.000    2.500    0.000    0.000    0.000    0.000 
#    0.000    0.000    0.000    0.000    0.000    0.000 
#
# Total GULP energy -396635.141214 kJ/mol
# GULP energy per Si atom -12394.848163 kJ/mol
# Density = 2.291319 g / cm^3
# Si number density = 22.965460 Si / 1000 Ang^3
#
#
#
# Elastic Constant Matrix: (Units=GPa)
#
#
# Indices 1 2 3 4 5 6 
#
# 1 127.8665 -1.4415 33.9052 0.0000 0.0000 0.0000
# 2 -1.4415 62.1110 15.6440 0.0000 0.0000 0.0000
# 3 33.9052 15.6440 64.5532 0.0000 0.0000 0.0000
# 4 0.0000 0.0000 0.0000 23.0674 0.0000 0.0000
# 5 0.0000 0.0000 0.0000 0.0000 37.6772 0.0000
# 6 0.0000 0.0000 0.0000 0.0000 0.0000 44.8968
#
#
#
# Elastic Compliance Matrix: (Units=1/GPa)
#
#
# Indices 1 2 3 4 5 6 
#
# 1 0.009220 0.001527 -0.005213 0.000000 0.000000 0.000000
# 2 0.001527 0.017400 -0.005019 0.000000 0.000000 0.000000
# 3 -0.005213 -0.005019 0.019445 0.000000 0.000000 0.000000
# 4 0.000000 0.000000 0.000000 0.043351 0.000000 0.000000
# 5 0.000000 0.000000 0.000000 0.000000 0.026541 0.000000
# 6 0.000000 0.000000 0.000000 0.000000 0.000000 0.022273
#
#
# Mechanical properties :
#
#
# Convention : Reuss Voigt Hill
#
# Bulk Modulus (GPa) = 34.89664 38.97181 36.93422
# Shear Modulus (GPa) = 30.26788 34.88981 32.57885
#
# Velocity S-wave (km/s) = 3.63433 3.90196 3.77052
# Velocity P-wave (km/s) = 5.73057 6.10794 5.92226
#
# Compressibility (1/GPa) = 0.02865606
#
# Stress axis : x y z
#
# Youngs Moduli (GPa) = 108.45909 57.47227 51.42665
#
# Poissons Ratio (x) = -0.08775 0.26807
# Poissons Ratio (y) = -0.16561 0.25809
# Poissons Ratio (z) = 0.56536 0.28843
#
# Static dielectric constant tensor:
#      x y z
#    x 4.188960 0.000000 0.000000 
#    y 0.000000 4.628660 0.000000 
#    z 0.000000 0.000000 3.695690 
# 
# 
# High freq. dielectric constant tensor:
#      x y z
#    x 1.914990 0.000000 0.000000 
#    y 0.000000 1.914480 0.000000 
#    z 0.000000 0.000000 1.878360 
# 
# From -- ./inp_files/27662.got.cif
#   From: 2010.03.12/outbox.cif.g09.slc.cpg/sg72_14_cif.got.tgz:27662.got - 2010.04.16 14:54:00.
