data_PCOD8294335
_publ_section_title
;
Structure prediction by ZEFSAII (Michael W. Deem and Ramdas Pophale) SiO2 
 PCOD8294335
Probable space group: I B A M
;
_chemical_formula_sum "Si O2"
_cell_formula_units_Z 104
_cell_length_a 23.932000
_cell_length_b 8.754566
_cell_length_c 26.813011
_cell_angle_alpha 90.000000
_cell_angle_beta 90.000000
_cell_angle_gamma 90.000000
_cell_volume 5617.708520
_symmetry_space_group_name_H-M "I B A M"
_symmetry_group_IT_number 72
_symmetry_cell_setting 'orthorhombic'
loop_
_space_group_symop_operation_xyz
x,y,z
-x,-y,z
x,-y,1/2-z
-x,y,1/2-z
-x,-y,-z
x,y,-z
-x,y,1/2+z
x,-y,1/2+z
1/2+x,1/2+y,1/2+z
1/2-x,1/2-y,1/2+z
1/2+x,1/2-y,-z
1/2-x,1/2+y,-z
1/2-x,1/2-y,1/2-z
1/2+x,1/2+y,1/2-z
1/2-x,1/2+y,z
1/2+x,1/2-y,z
loop_
_atom_site_type_symbol
_atom_site_label
_atom_site_fract_x
_atom_site_fract_y
_atom_site_fract_z
Si Si1 0.256758 0.500000 0.750000
Si Si2 0.897455 0.349862 0.558773
Si Si3 0.988014 0.176565 0.057263
Si Si4 0.791530 0.885867 0.446790
Si Si5 0.118751 0.309551 0.597755
Si Si6 0.795020 0.195813 0.400146
Si Si7 0.707301 0.755028 0.817310
O O1 0.296786 0.407272 0.788443
O O2 0.213700 0.388019 0.722684
O O3 0.881837 0.347773 0.500000
O O4 0.890082 0.516436 0.582045
O O5 0.859379 0.240369 0.593255
O O6 0.959312 0.285713 0.566513
O O7 0.941487 0.228646 0.097181
O O8 0.967426 0.197519 0.000000
O O9 0.000000 0.000000 0.068062
O O10 0.794127 0.970307 0.500000
O O11 0.844409 0.775025 0.443487
O O12 0.736576 0.781699 0.445034
O O13 0.790184 0.012475 0.403430
O O14 0.151453 0.288547 0.650428
O O15 0.764627 0.248670 0.349642
#
# Coordination Sequence:
#
# PCOD8294335 Si02
#       7
#     8  16  16  16  16  16  16
#     4  10  20  38  58  80 106 130 166 222 290 350
#     4  11  21  33  52  78 114 156 190 220 255 301
#     4  10  21  36  53  77 111 152 192 223 253 296
#     4  11  20  30  47  71 109 150 179 217 261 307
#     4  11  21  35  53  78 107 139 186 229 265 319
#     4  11  21  33  49  77 109 140 182 219 258 318
#     4  10  21  36  57  82 105 134 172 221 282 336
#
# _framework density 18.512886999999999
#
# number of rings (size 3 to 8) (size 9 to 14) (size 15 to 20)
#    0.000    1.385    0.000    8.769    0.000    2.462 
#    0.000    0.000    0.000    0.000    0.000   26.385 
#    0.000    0.000    0.000    0.000    0.000    0.000 
#
# Total GULP energy -644498.228915 kJ/mol
# GULP energy per Si atom -12394.196710 kJ/mol
# Density = 1.847075 g / cm^3
# Si number density = 18.512887 Si / 1000 Ang^3
#
#
#
# Elastic Constant Matrix: (Units=GPa)
#
#
# Indices 1 2 3 4 5 6 
#
# 1 96.5230 27.7822 36.7133 0.0000 0.0000 0.0000
# 2 27.7822 111.6183 31.9631 0.0000 0.0000 0.0000
# 3 36.7133 31.9631 93.9306 0.0000 0.0000 0.0000
# 4 0.0000 0.0000 0.0000 27.5373 0.0000 0.0000
# 5 0.0000 0.0000 0.0000 0.0000 25.6252 0.0000
# 6 0.0000 0.0000 0.0000 0.0000 0.0000 31.3426
#
#
#
# Elastic Compliance Matrix: (Units=1/GPa)
#
#
# Indices 1 2 3 4 5 6 
#
# 1 0.012523 -0.001901 -0.004248 0.000000 0.000000 0.000000
# 2 -0.001901 0.010215 -0.002733 0.000000 0.000000 0.000000
# 3 -0.004248 -0.002733 0.013237 0.000000 0.000000 0.000000
# 4 0.000000 0.000000 0.000000 0.036314 0.000000 0.000000
# 5 0.000000 0.000000 0.000000 0.000000 0.039024 0.000000
# 6 0.000000 0.000000 0.000000 0.000000 0.000000 0.031905
#
#
# Mechanical properties :
#
#
# Convention : Reuss Voigt Hill
#
# Bulk Modulus (GPa) = 54.91151 54.99877 54.95514
# Shear Modulus (GPa) = 29.93081 30.60857 30.26969
#
# Velocity S-wave (km/s) = 4.02525 4.07057 4.04797
# Velocity P-wave (km/s) = 7.16444 7.20178 7.18313
#
# Compressibility (1/GPa) = 0.01821112
#
# Stress axis : x y z
#
# Youngs Moduli (GPa) = 79.85300 97.89706 75.54853
#
# Poissons Ratio (x) = 0.18606 0.32093
# Poissons Ratio (y) = 0.15177 0.20648
# Poissons Ratio (z) = 0.33921 0.26756
#
# Static dielectric constant tensor:
#      x y z
#    x 3.371270 0.000000 0.000000 
#    y 0.000000 3.618190 0.000000 
#    z 0.000000 0.000000 3.349810 
# 
# 
# High freq. dielectric constant tensor:
#      x y z
#    x 1.704340 0.000000 0.000000 
#    y 0.000000 1.745140 0.000000 
#    z 0.000000 0.000000 1.694800 
# 
# From -- ./inp_files/49692.got.cif
#   From: 2010.03.12/outbox.cif.g09.slc.cpg/sg72_25_cif.got.tgz:49692.got - 2010.04.16 14:54:00.
