data_PCOD8294728
_publ_section_title
;
Structure prediction by ZEFSAII (Michael W. Deem and Ramdas Pophale) SiO2 
 PCOD8294728
Probable space group: I B A M
;
_chemical_formula_sum "Si O2"
_cell_formula_units_Z 80
_cell_length_a 15.513084
_cell_length_b 15.022664
_cell_length_c 15.843653
_cell_angle_alpha 90.000000
_cell_angle_beta 90.000000
_cell_angle_gamma 90.000000
_cell_volume 3692.329245
_symmetry_space_group_name_H-M "I B A M"
_symmetry_group_IT_number 72
_symmetry_cell_setting 'orthorhombic'
loop_
_space_group_symop_operation_xyz
x,y,z
-x,-y,z
x,-y,1/2-z
-x,y,1/2-z
-x,-y,-z
x,y,-z
-x,y,1/2+z
x,-y,1/2+z
1/2+x,1/2+y,1/2+z
1/2-x,1/2-y,1/2+z
1/2+x,1/2-y,-z
1/2-x,1/2+y,-z
1/2-x,1/2-y,1/2-z
1/2+x,1/2+y,1/2-z
1/2-x,1/2+y,z
1/2+x,1/2-y,z
loop_
_atom_site_type_symbol
_atom_site_label
_atom_site_fract_x
_atom_site_fract_y
_atom_site_fract_z
Si Si1 0.921272 0.953724 0.658430
Si Si2 0.669632 0.212213 0.100057
Si Si3 0.979174 0.228672 0.099785
Si Si4 0.267843 0.023912 0.347060
Si Si5 0.180500 0.337819 0.404060
O O1 0.944240 0.850017 0.659141
O O2 0.828674 0.966936 0.614250
O O3 0.918215 0.000000 0.750000
O O4 0.000000 0.000000 0.606366
O O5 0.575947 0.247603 0.127143
O O6 0.680954 0.115350 0.141392
O O7 0.740999 0.281103 0.138688
O O8 0.675318 0.200712 0.000000
O O9 0.915122 0.309361 0.124798
O O10 0.974324 0.204703 0.000000
O O11 0.263423 0.000000 0.250000
O O12 0.314594 0.943458 0.393861
O O13 0.191993 0.311771 0.500000
#
# Coordination Sequence:
#
# PCOD8294728 Si02
#       5
#    16  16  16  16  16
#     4  10  21  39  59  91 125 155 204 254 312 370
#     4  10  21  40  64  90 123 163 208 258 309 364
#     4  10  21  39  63  90 120 161 210 257 307 364
#     4  11  23  39  60  91 126 165 205 251 315 378
#     4  10  21  39  62  88 120 160 208 258 308 364
#
# _framework density 21.666540999999999
#
# number of rings (size 3 to 8) (size 9 to 14) (size 15 to 20)
#    0.000    1.800    2.000    1.800    0.000    2.800 
#    7.200    4.000    0.000    0.000    0.000    0.000 
#    0.000    0.000    0.000    0.000    0.000    0.000 
#
# Total GULP energy -495720.224790 kJ/mol
# GULP energy per Si atom -12393.005620 kJ/mol
# Density = 2.161723 g / cm^3
# Si number density = 21.666541 Si / 1000 Ang^3
#
#
#
# Elastic Constant Matrix: (Units=GPa)
#
#
# Indices 1 2 3 4 5 6 
#
# 1 112.8603 19.9161 20.7784 0.0000 0.0000 0.0000
# 2 19.9161 123.0492 11.5270 0.0000 0.0000 0.0000
# 3 20.7784 11.5270 22.3183 0.0000 0.0000 0.0000
# 4 0.0000 0.0000 0.0000 32.9137 0.0000 0.0000
# 5 0.0000 0.0000 0.0000 0.0000 16.5547 0.0000
# 6 0.0000 0.0000 0.0000 0.0000 0.0000 26.9858
#
#
#
# Elastic Compliance Matrix: (Units=1/GPa)
#
#
# Indices 1 2 3 4 5 6 
#
# 1 0.010776 -0.000845 -0.009596 0.000000 0.000000 0.000000
# 2 -0.000845 0.008606 -0.003658 0.000000 0.000000 0.000000
# 3 -0.009596 -0.003658 0.055630 0.000000 0.000000 0.000000
# 4 0.000000 0.000000 0.000000 0.030382 0.000000 0.000000
# 5 0.000000 0.000000 0.000000 0.000000 0.060406 0.000000
# 6 0.000000 0.000000 0.000000 0.000000 0.000000 0.037057
#
#
# Mechanical properties :
#
#
# Convention : Reuss Voigt Hill
#
# Bulk Modulus (GPa) = 21.36150 40.29677 30.82913
# Shear Modulus (GPa) = 20.27075 29.02461 24.64768
#
# Velocity S-wave (km/s) = 3.06204 3.66403 3.37648
# Velocity P-wave (km/s) = 4.73097 6.04476 5.42776
#
# Compressibility (1/GPa) = 0.04681319
#
# Stress axis : x y z
#
# Youngs Moduli (GPa) = 92.79519 116.19372 17.97601
#
# Poissons Ratio (x) = 0.09821 0.17250
# Poissons Ratio (y) = 0.07844 0.06576
# Poissons Ratio (z) = 0.89049 0.42504
#
# Static dielectric constant tensor:
#      x y z
#    x 4.606300 0.000000 0.000000 
#    y 0.000000 4.304800 0.000000 
#    z 0.000000 0.000000 3.554010 
# 
# 
# High freq. dielectric constant tensor:
#      x y z
#    x 1.869580 0.000000 0.000000 
#    y 0.000000 1.856540 0.000000 
#    z 0.000000 0.000000 1.819440 
# 
# From -- ./inp_files/37828.got.cif
#   From: 2010.03.12/outbox.cif.g09.slc.cpg/sg72_19_cif.got.tgz:37828.got - 2010.04.16 14:54:00.
