data_PCOD8294478
_publ_section_title
;
Structure prediction by ZEFSAII (Michael W. Deem and Ramdas Pophale) SiO2 
 PCOD8294478
Probable space group: I B A M
;
_chemical_formula_sum "Si O2"
_cell_formula_units_Z 80
_cell_length_a 5.132155
_cell_length_b 32.868822
_cell_length_c 22.525129
_cell_angle_alpha 90.000000
_cell_angle_beta 90.000000
_cell_angle_gamma 90.000000
_cell_volume 3799.716464
_symmetry_space_group_name_H-M "I B A M"
_symmetry_group_IT_number 72
_symmetry_cell_setting 'orthorhombic'
loop_
_space_group_symop_operation_xyz
x,y,z
-x,-y,z
x,-y,1/2-z
-x,y,1/2-z
-x,-y,-z
x,y,-z
-x,y,1/2+z
x,-y,1/2+z
1/2+x,1/2+y,1/2+z
1/2-x,1/2-y,1/2+z
1/2+x,1/2-y,-z
1/2-x,1/2+y,-z
1/2-x,1/2-y,1/2-z
1/2+x,1/2+y,1/2-z
1/2-x,1/2+y,z
1/2+x,1/2-y,z
loop_
_atom_site_type_symbol
_atom_site_label
_atom_site_fract_x
_atom_site_fract_y
_atom_site_fract_z
Si Si1 0.074721 0.439697 0.684853
Si Si2 0.948051 0.870238 0.432373
Si Si3 0.924904 0.957418 0.384689
Si Si4 0.946624 0.647754 0.639498
Si Si5 0.299778 0.232697 0.816244
O O1 0.368983 0.452459 0.669324
O O2 0.056428 0.390935 0.682313
O O3 0.000000 0.454841 0.750000
O O4 0.868318 0.460241 0.640147
O O5 0.904591 0.857037 0.500000
O O6 0.943246 0.919498 0.429295
O O7 0.726917 0.849328 0.392104
O O8 0.228593 0.854653 0.411429
O O9 0.000000 0.000000 0.417515
O O10 0.889562 0.685984 0.682199
O O11 0.250000 0.250000 0.750000
O O12 0.524165 0.259663 0.849049
#
# Coordination Sequence:
#
# PCOD8294478 Si02
#       5
#    16  16  16  16  16
#     4  10  21  34  53  80 113 159 188 223 285 355
#     4  10  21  39  62  83 108 155 198 237 291 331
#     4  10  21  36  53  82 114 145 195 246 283 332
#     4  10  21  38  58  85 120 145 191 240 276 345
#     4  10  21  36  57  89 118 151 178 228 287 342
#
# _framework density 21.054203000000001
#
# number of rings (size 3 to 8) (size 9 to 14) (size 15 to 20)
#    0.000    2.000    0.000    3.000    2.800    2.800 
#    7.200    0.000    0.000   19.200    0.000    0.000 
#    0.000    0.000    0.000    0.000    0.000    0.000 
#
# Total GULP energy -495781.051055 kJ/mol
# GULP energy per Si atom -12394.526276 kJ/mol
# Density = 2.100628 g / cm^3
# Si number density = 21.054203 Si / 1000 Ang^3
#
#
#
# Elastic Constant Matrix: (Units=GPa)
#
#
# Indices 1 2 3 4 5 6 
#
# 1 138.2115 25.8358 5.5993 0.0000 0.0000 0.0000
# 2 25.8358 121.0284 12.4632 0.0000 0.0000 0.0000
# 3 5.5993 12.4632 55.7552 0.0000 0.0000 0.0000
# 4 0.0000 0.0000 0.0000 11.6338 0.0000 0.0000
# 5 0.0000 0.0000 0.0000 0.0000 15.9398 0.0000
# 6 0.0000 0.0000 0.0000 0.0000 0.0000 33.3030
#
#
#
# Elastic Compliance Matrix: (Units=1/GPa)
#
#
# Indices 1 2 3 4 5 6 
#
# 1 0.007545 -0.001569 -0.000407 0.000000 0.000000 0.000000
# 2 -0.001569 0.008783 -0.001806 0.000000 0.000000 0.000000
# 3 -0.000407 -0.001806 0.018380 0.000000 0.000000 0.000000
# 4 0.000000 0.000000 0.000000 0.085956 0.000000 0.000000
# 5 0.000000 0.000000 0.000000 0.000000 0.062736 0.000000
# 6 0.000000 0.000000 0.000000 0.000000 0.000000 0.030027
#
#
# Mechanical properties :
#
#
# Convention : Reuss Voigt Hill
#
# Bulk Modulus (GPa) = 36.83887 44.75464 40.79675
# Shear Modulus (GPa) = 21.73534 30.24843 25.99188
#
# Velocity S-wave (km/s) = 3.21651 3.79449 3.51739
# Velocity P-wave (km/s) = 5.59729 6.36400 5.99292
#
# Compressibility (1/GPa) = 0.02714524
#
# Stress axis : x y z
#
# Youngs Moduli (GPa) = 132.53776 113.85167 54.40668
#
# Poissons Ratio (x) = 0.17860 0.02215
# Poissons Ratio (y) = 0.20791 0.09825
# Poissons Ratio (z) = 0.05395 0.20560
#
# Static dielectric constant tensor:
#      x y z
#    x 1.430380 0.000000 0.000000 
#    y 0.000000 3.922530 0.000000 
#    z 0.000000 0.000000 3.054440 
# 
# 
# High freq. dielectric constant tensor:
#      x y z
#    x 1.858050 0.000000 0.000000 
#    y 0.000000 1.828270 0.000000 
#    z 0.000000 0.000000 1.771110 
# 
# From -- ./inp_files/41557.got.cif
#   From: 2010.03.12/outbox.cif.g09.slc.cpg/sg72_21_cif.got.tgz:41557.got - 2010.04.16 14:54:00.
