data_PCOD8294369
_publ_section_title
;
Structure prediction by ZEFSAII (Michael W. Deem and Ramdas Pophale) SiO2 
 PCOD8294369
Probable space group: I B A M
;
_chemical_formula_sum "Si O2"
_cell_formula_units_Z 56
_cell_length_a 24.612883
_cell_length_b 4.992826
_cell_length_c 20.366964
_cell_angle_alpha 90.000000
_cell_angle_beta 90.000000
_cell_angle_gamma 90.000000
_cell_volume 2502.852258
_symmetry_space_group_name_H-M "I B A M"
_symmetry_group_IT_number 72
_symmetry_cell_setting 'orthorhombic'
loop_
_space_group_symop_operation_xyz
x,y,z
-x,-y,z
x,-y,1/2-z
-x,y,1/2-z
-x,-y,-z
x,y,-z
-x,y,1/2+z
x,-y,1/2+z
1/2+x,1/2+y,1/2+z
1/2-x,1/2-y,1/2+z
1/2+x,1/2-y,-z
1/2-x,1/2+y,-z
1/2-x,1/2-y,1/2-z
1/2+x,1/2+y,1/2-z
1/2-x,1/2+y,z
1/2+x,1/2-y,z
loop_
_atom_site_type_symbol
_atom_site_label
_atom_site_fract_x
_atom_site_fract_y
_atom_site_fract_z
Si Si1 0.438075 0.086274 0.638491
Si Si2 0.213957 0.977457 0.074424
Si Si3 0.123202 0.055020 0.679244
Si Si4 0.539384 0.241801 0.000000
O O1 0.427306 0.346619 0.682625
O O2 0.424379 0.201279 0.565166
O O3 0.500000 0.000000 0.646616
O O4 0.397860 0.851336 0.661810
O O5 0.236954 0.682063 0.087103
O O6 0.165589 0.036444 0.124268
O O7 0.191499 0.006273 0.000000
O O8 0.151433 0.000000 0.750000
O O9 0.500000 0.500000 0.000000
O O10 0.500000 0.000000 0.000000
#
# Coordination Sequence:
#
# PCOD8294369 Si02
#       4
#    16  16  16   8
#     4  11  24  41  64  94 136 180 222 272 324 393
#     4  10  23  44  69  95 125 165 217 278 342 401
#     4  12  26  41  65  99 133 177 222 267 337 405
#     4  10  20  38  62  92 124 168 230 278 324 374
#
# _framework density 22.374472999999998
#
# number of rings (size 3 to 8) (size 9 to 14) (size 15 to 20)
#    0.000    1.143    0.000    6.857    4.000    4.571 
#    0.000    0.000    0.000    0.000    0.000    0.000 
#    0.000    0.000    0.000    0.000    0.000    0.000 
#
# Total GULP energy -346983.195706 kJ/mol
# GULP energy per Si atom -12392.256990 kJ/mol
# Density = 2.232355 g / cm^3
# Si number density = 22.374473 Si / 1000 Ang^3
#
#
#
# Elastic Constant Matrix: (Units=GPa)
#
#
# Indices 1 2 3 4 5 6 
#
# 1 61.3773 14.6655 54.4155 0.0000 0.0000 0.0000
# 2 14.6655 138.6944 46.7362 0.0000 0.0000 0.0000
# 3 54.4155 46.7362 152.7767 0.0000 0.0000 0.0000
# 4 0.0000 0.0000 0.0000 32.2979 0.0000 0.0000
# 5 0.0000 0.0000 0.0000 0.0000 24.0468 0.0000
# 6 0.0000 0.0000 0.0000 0.0000 0.0000 23.0876
#
#
#
# Elastic Compliance Matrix: (Units=1/GPa)
#
#
# Indices 1 2 3 4 5 6 
#
# 1 0.023830 0.000379 -0.008604 0.000000 0.000000 0.000000
# 2 0.000379 0.008045 -0.002596 0.000000 0.000000 0.000000
# 3 -0.008604 -0.002596 0.010404 0.000000 0.000000 0.000000
# 4 0.000000 0.000000 0.000000 0.030962 0.000000 0.000000
# 5 0.000000 0.000000 0.000000 0.000000 0.041586 0.000000
# 6 0.000000 0.000000 0.000000 0.000000 0.000000 0.043313
#
#
# Mechanical properties :
#
#
# Convention : Reuss Voigt Hill
#
# Bulk Modulus (GPa) = 48.45440 64.94254 56.69847
# Shear Modulus (GPa) = 26.78673 31.68853 29.23763
#
# Velocity S-wave (km/s) = 3.46381 3.76743 3.61881
# Velocity P-wave (km/s) = 6.14007 6.92914 6.54651
#
# Compressibility (1/GPa) = 0.02063796
#
# Stress axis : x y z
#
# Youngs Moduli (GPa) = 41.96417 124.30374 96.11556
#
# Poissons Ratio (x) = -0.04717 0.82695
# Poissons Ratio (y) = -0.01592 0.24953
# Poissons Ratio (z) = 0.36105 0.32271
#
# Static dielectric constant tensor:
#      x y z
#    x 3.626010 0.000000 0.000000 
#    y 0.000000 4.147620 0.000000 
#    z 0.000000 0.000000 3.661650 
# 
# 
# High freq. dielectric constant tensor:
#      x y z
#    x 1.856890 0.000000 0.000000 
#    y 0.000000 1.904160 0.000000 
#    z 0.000000 0.000000 1.895310 
# 
# From -- ./inp_files/33641.got.cif
#   From: 2010.03.12/outbox.cif.g09.slc.cpg/sg72_17_cif.got.tgz:33641.got - 2010.04.16 14:54:00.
