data_PCOD8294393
_publ_section_title
;
Structure prediction by ZEFSAII (Michael W. Deem and Ramdas Pophale) SiO2 
 PCOD8294393
Probable space group: I B A M
;
_chemical_formula_sum "Si O2"
_cell_formula_units_Z 104
_cell_length_a 9.036892
_cell_length_b 27.463011
_cell_length_c 20.784959
_cell_angle_alpha 90.000000
_cell_angle_beta 90.000000
_cell_angle_gamma 90.000000
_cell_volume 5158.416620
_symmetry_space_group_name_H-M "I B A M"
_symmetry_group_IT_number 72
_symmetry_cell_setting 'orthorhombic'
loop_
_space_group_symop_operation_xyz
x,y,z
-x,-y,z
x,-y,1/2-z
-x,y,1/2-z
-x,-y,-z
x,y,-z
-x,y,1/2+z
x,-y,1/2+z
1/2+x,1/2+y,1/2+z
1/2-x,1/2-y,1/2+z
1/2+x,1/2-y,-z
1/2-x,1/2+y,-z
1/2-x,1/2-y,1/2-z
1/2+x,1/2+y,1/2-z
1/2-x,1/2+y,z
1/2+x,1/2-y,z
loop_
_atom_site_type_symbol
_atom_site_label
_atom_site_fract_x
_atom_site_fract_y
_atom_site_fract_z
Si Si1 0.011349 0.445213 0.893285
Si Si2 0.438071 0.221106 0.426897
Si Si3 0.513427 0.377777 0.500000
Si Si4 0.048824 0.651655 0.162569
Si Si5 0.724736 0.934523 0.000000
Si Si6 0.224790 0.693583 0.734391
Si Si7 0.749452 0.456054 0.500000
Si Si8 0.113581 0.808621 0.111881
O O1 0.004783 0.404927 0.836212
O O2 0.000000 0.500000 0.864545
O O3 0.870987 0.430976 0.935862
O O4 0.157872 0.441558 0.936426
O O5 0.472166 0.234285 0.500000
O O6 0.540723 0.173536 0.409739
O O7 0.264413 0.212502 0.417869
O O8 0.489587 0.267004 0.384460
O O9 0.340548 0.390519 0.500000
O O10 0.597181 0.428442 0.500000
O O11 0.554905 0.351159 0.566140
O O12 0.205959 0.661017 0.199735
O O13 0.928215 0.686457 0.196490
O O14 0.797233 0.987880 0.000000
O O15 0.250000 0.750000 0.750000
O O16 0.355781 0.674452 0.686306
#
# Coordination Sequence:
#
# PCOD8294393 Si02
#       8
#    16  16   8  16   8  16   8  16
#     4   9  19  38  61  91 118 151 197 253 306 364
#     4  11  20  35  51  80 113 151 197 244 310 354
#     4  12  21  36  54  90 120 156 201 250 318 364
#     4  10  21  34  61  82 114 161 201 246 305 354
#     4   9  21  35  57  89 123 154 192 245 311 380
#     4  10  20  39  53  79 113 159 210 244 287 361
#     4   9  17  35  61  85 121 156 190 241 311 370
#     4  11  23  35  54  78 116 159 201 258 297 361
#
# _framework density 20.161224000000001
#
# number of rings (size 3 to 8) (size 9 to 14) (size 15 to 20)
#    0.000    1.846    3.077    3.000    2.154    1.231 
#    0.000    1.538    0.000    0.000    0.000    0.000 
#    0.000    0.615    0.000    0.000    0.000    0.000 
#
# Total GULP energy -644202.118570 kJ/mol
# GULP energy per Si atom -12388.502280 kJ/mol
# Density = 2.011534 g / cm^3
# Si number density = 20.161224 Si / 1000 Ang^3
#
#
#
# Elastic Constant Matrix: (Units=GPa)
#
#
# Indices 1 2 3 4 5 6 
#
# 1 75.9885 37.4521 26.3239 0.0000 0.0000 0.0000
# 2 37.4521 110.3432 35.7769 0.0000 0.0000 0.0000
# 3 26.3239 35.7769 64.1156 0.0000 0.0001 0.0000
# 4 0.0000 0.0000 0.0000 25.4725 0.0000 0.0000
# 5 0.0000 0.0000 0.0001 0.0000 21.6721 0.0000
# 6 0.0000 0.0000 0.0000 0.0000 0.0000 38.7316
#
#
#
# Elastic Compliance Matrix: (Units=1/GPa)
#
#
# Indices 1 2 3 4 5 6 
#
# 1 0.016822 -0.004237 -0.004542 0.000000 0.000000 0.000000
# 2 -0.004237 0.012132 -0.005030 0.000000 0.000000 0.000000
# 3 -0.004542 -0.005030 0.020269 0.000000 0.000000 0.000000
# 4 0.000000 0.000000 0.000000 0.039258 0.000000 0.000000
# 5 0.000000 0.000000 0.000000 0.000000 0.046142 0.000000
# 6 0.000000 0.000000 0.000000 0.000000 0.000000 0.025819
#
#
# Mechanical properties :
#
#
# Convention : Reuss Voigt Hill
#
# Bulk Modulus (GPa) = 46.28860 49.95031 48.11946
# Shear Modulus (GPa) = 25.60691 27.23487 26.42089
#
# Velocity S-wave (km/s) = 3.56772 3.67938 3.62398
# Velocity P-wave (km/s) = 6.32302 6.54826 6.43663
#
# Compressibility (1/GPa) = 0.02160359
#
# Stress axis : x y z
#
# Youngs Moduli (GPa) = 59.44751 82.42984 49.33757
#
# Poissons Ratio (x) = 0.34923 0.22411
# Poissons Ratio (y) = 0.25186 0.24817
# Poissons Ratio (z) = 0.27003 0.41462
#
# Static dielectric constant tensor:
#      x y z
#    x 3.539520 0.000000 0.000000 
#    y 0.000000 3.675980 0.000000 
#    z 0.000000 0.000000 4.239860 
# 
# 
# High freq. dielectric constant tensor:
#      x y z
#    x 1.772760 0.000000 0.000000 
#    y 0.000000 1.780330 0.000000 
#    z 0.000000 0.000000 1.783150 
# 
# From -- ./inp_files/42681.got.cif
#   From: 2010.03.12/outbox.cif.g09.slc.cpg/sg72_22_cif.got.tgz:42681.got - 2010.04.16 14:54:00.
