data_PCOD8294370
_publ_section_title
;
Structure prediction by ZEFSAII (Michael W. Deem and Ramdas Pophale) SiO2 
 PCOD8294370
Probable space group: I B A M
;
_chemical_formula_sum "Si O2"
_cell_formula_units_Z 84
_cell_length_a 7.512116
_cell_length_b 22.323552
_cell_length_c 23.832686
_cell_angle_alpha 90.000000
_cell_angle_beta 90.000000
_cell_angle_gamma 90.000000
_cell_volume 3996.672617
_symmetry_space_group_name_H-M "I B A M"
_symmetry_group_IT_number 72
_symmetry_cell_setting 'orthorhombic'
loop_
_space_group_symop_operation_xyz
x,y,z
-x,-y,z
x,-y,1/2-z
-x,y,1/2-z
-x,-y,-z
x,y,-z
-x,y,1/2+z
x,-y,1/2+z
1/2+x,1/2+y,1/2+z
1/2-x,1/2-y,1/2+z
1/2+x,1/2-y,-z
1/2-x,1/2+y,-z
1/2-x,1/2-y,1/2-z
1/2+x,1/2+y,1/2-z
1/2-x,1/2+y,z
1/2+x,1/2-y,z
loop_
_atom_site_type_symbol
_atom_site_label
_atom_site_fract_x
_atom_site_fract_y
_atom_site_fract_z
Si Si1 0.168553 0.959297 0.177431
Si Si2 0.463826 0.174363 0.437260
Si Si3 0.330755 0.957630 0.062861
Si Si4 0.500000 0.000000 0.250000
Si Si5 0.573737 0.677828 0.189857
Si Si6 0.727545 0.267799 0.876136
O O1 0.192472 0.975909 0.111508
O O2 0.359132 0.965798 0.209578
O O3 0.123139 0.891008 0.188043
O O4 0.000000 0.000000 0.198821
O O5 0.541443 0.175414 0.500000
O O6 0.384086 0.110150 0.423244
O O7 0.315369 0.226174 0.430194
O O8 0.613697 0.187577 0.391185
O O9 0.500000 0.000000 0.066032
O O10 0.245511 0.962193 0.000000
O O11 0.500000 0.695637 0.250000
O O12 0.431738 0.688642 0.140486
O O13 0.735601 0.722911 0.176203
#
# Coordination Sequence:
#
# PCOD8294370 Si02
#       6
#    16  16  16   4  16  16
#     4  12  26  45  71 102 131 172 226 274 332 398
#     4  10  20  38  62  92 126 167 215 267 329 390
#     4  10  22  42  67  94 131 175 215 269 335 390
#     4  12  26  48  70  94 136 180 210 274 342 386
#     4  11  23  42  61  92 128 166 216 268 319 391
#     4  10  22  38  62  91 125 171 212 267 321 385
#
# _framework density 21.017482999999999
#
# number of rings (size 3 to 8) (size 9 to 14) (size 15 to 20)
#    0.000    1.333    2.857    2.571    2.667    1.905 
#    1.714    0.952    0.000    0.000    0.000    0.000 
#    0.000    0.000    0.000    0.000    0.000    0.000 
#
# Total GULP energy -520462.276384 kJ/mol
# GULP energy per Si atom -12391.958962 kJ/mol
# Density = 2.096965 g / cm^3
# Si number density = 21.017483 Si / 1000 Ang^3
#
#
#
# Elastic Constant Matrix: (Units=GPa)
#
#
# Indices 1 2 3 4 5 6 
#
# 1 102.3181 43.4191 29.0349 0.0000 0.0000 0.0000
# 2 43.4191 88.6793 40.2550 0.0000 0.0000 0.0000
# 3 29.0349 40.2550 101.9102 0.0000 0.0000 0.0000
# 4 0.0000 0.0000 0.0000 16.3871 0.0000 0.0000
# 5 0.0000 0.0000 0.0000 0.0000 29.3987 0.0000
# 6 0.0000 0.0000 0.0000 0.0000 0.0000 23.0999
#
#
#
# Elastic Compliance Matrix: (Units=1/GPa)
#
#
# Indices 1 2 3 4 5 6 
#
# 1 0.012497 -0.005486 -0.001393 0.000000 0.000000 0.000000
# 2 -0.005486 0.016149 -0.004816 0.000000 0.000000 0.000000
# 3 -0.001393 -0.004816 0.012112 0.000000 0.000000 0.000000
# 4 0.000000 0.000000 0.000000 0.061024 0.000000 0.000000
# 5 0.000000 0.000000 0.000000 0.000000 0.034015 0.000000
# 6 0.000000 0.000000 0.000000 0.000000 0.000000 0.043290
#
#
# Mechanical properties :
#
#
# Convention : Reuss Voigt Hill
#
# Bulk Modulus (GPa) = 57.58127 57.59175 57.58651
# Shear Modulus (GPa) = 24.00773 25.79039 24.89906
#
# Velocity S-wave (km/s) = 3.38342 3.50679 3.44566
# Velocity P-wave (km/s) = 6.53603 6.62254 6.57943
#
# Compressibility (1/GPa) = 0.01736676
#
# Stress axis : x y z
#
# Youngs Moduli (GPa) = 80.01954 61.92396 82.56406
#
# Poissons Ratio (x) = 0.33973 0.11504
# Poissons Ratio (y) = 0.43901 0.39761
# Poissons Ratio (z) = 0.11150 0.29821
#
# Static dielectric constant tensor:
#      x y z
#    x 3.843950 0.000000 0.000000 
#    y 0.000000 3.784030 0.000000 
#    z 0.000000 0.000000 4.071450 
# 
# 
# High freq. dielectric constant tensor:
#      x y z
#    x 1.814880 0.000000 0.000000 
#    y 0.000000 1.828620 0.000000 
#    z 0.000000 0.000000 1.837230 
# 
# From -- ./inp_files/42211.got.cif
#   From: 2010.03.12/outbox.cif.g09.slc.cpg/sg72_22_cif.got.tgz:42211.got - 2010.04.16 14:54:00.
