data_PCOD8294646
_publ_section_title
;
Structure prediction by ZEFSAII (Michael W. Deem and Ramdas Pophale) SiO2 
 PCOD8294646
Probable space group: I B A M
;
_chemical_formula_sum "Si O2"
_cell_formula_units_Z 72
_cell_length_a 32.912666
_cell_length_b 5.035052
_cell_length_c 24.081142
_cell_angle_alpha 90.000000
_cell_angle_beta 90.000000
_cell_angle_gamma 90.000000
_cell_volume 3990.654242
_symmetry_space_group_name_H-M "I B A M"
_symmetry_group_IT_number 72
_symmetry_cell_setting 'orthorhombic'
loop_
_space_group_symop_operation_xyz
x,y,z
-x,-y,z
x,-y,1/2-z
-x,y,1/2-z
-x,-y,-z
x,y,-z
-x,y,1/2+z
x,-y,1/2+z
1/2+x,1/2+y,1/2+z
1/2-x,1/2-y,1/2+z
1/2+x,1/2-y,-z
1/2-x,1/2+y,-z
1/2-x,1/2-y,1/2-z
1/2+x,1/2+y,1/2-z
1/2-x,1/2+y,z
1/2+x,1/2-y,z
loop_
_atom_site_type_symbol
_atom_site_label
_atom_site_fract_x
_atom_site_fract_y
_atom_site_fract_z
Si Si1 0.114287 0.362725 0.064215
Si Si2 0.662941 0.351959 0.405435
Si Si3 0.723847 0.496259 0.685402
Si Si4 0.223779 0.708520 0.000000
Si Si5 0.024538 0.751828 0.565961
O O1 0.130067 0.614122 0.100166
O O2 0.070567 0.271995 0.088119
O O3 0.143693 0.112958 0.068058
O O4 0.111469 0.456578 0.000000
O O5 0.682041 0.430129 0.346187
O O6 0.698368 0.248969 0.444749
O O7 0.712640 0.500000 0.750000
O O8 0.741414 0.783539 0.669192
O O9 0.237898 0.403988 0.000000
O O10 0.025894 0.775507 0.500000
O O11 0.000000 0.500000 0.586866
O O12 0.000000 0.000000 0.591501
#
# Coordination Sequence:
#
# PCOD8294646 Si02
#       5
#    16  16  16   8  16
#     4  11  20  33  48  73 107 137 165 203 257 301
#     4  12  21  34  50  73 102 133 169 212 257 306
#     4  10  21  38  56  72  94 130 175 222 262 297
#     4  12  22  32  46  66  96 132 166 198 244 308
#     4   9  17  29  46  67  95 135 172 197 228 290
#
# _framework density 18.042155999999999
#
# number of rings (size 3 to 8) (size 9 to 14) (size 15 to 20)
#    0.000    1.333    2.222    5.333    0.000    3.556 
#    0.000    0.000    0.000    0.000    0.000    0.000 
#    0.000   13.333    0.000    0.000    0.000    0.000 
#
# Total GULP energy -446466.180033 kJ/mol
# GULP energy per Si atom -12401.838334 kJ/mol
# Density = 1.800109 g / cm^3
# Si number density = 18.042156 Si / 1000 Ang^3
#
#
#
# Elastic Constant Matrix: (Units=GPa)
#
#
# Indices 1 2 3 4 5 6 
#
# 1 109.8688 39.8340 40.0094 0.0000 0.0000 0.0000
# 2 39.8340 110.5301 20.9339 0.0000 0.0000 0.0000
# 3 40.0094 20.9339 50.6313 0.0000 0.0000 0.0000
# 4 0.0000 0.0000 0.0000 17.0450 0.0000 0.0000
# 5 0.0000 0.0000 0.0000 0.0000 15.4321 0.0000
# 6 0.0000 0.0000 0.0000 0.0000 0.0000 41.7227
#
#
#
# Elastic Compliance Matrix: (Units=1/GPa)
#
#
# Indices 1 2 3 4 5 6 
#
# 1 0.013712 -0.003135 -0.009539 0.000000 0.000000 0.000000
# 2 -0.003135 0.010533 -0.001878 0.000000 0.000000 0.000000
# 3 -0.009539 -0.001878 0.028065 0.000000 0.000000 0.000000
# 4 0.000000 0.000000 0.000000 0.058668 0.000000 0.000000
# 5 0.000000 0.000000 0.000000 0.000000 0.064800 0.000000
# 6 0.000000 0.000000 0.000000 0.000000 0.000000 0.023968
#
#
# Mechanical properties :
#
#
# Convention : Reuss Voigt Hill
#
# Bulk Modulus (GPa) = 43.09198 52.50943 47.80070
# Shear Modulus (GPa) = 21.13405 26.19016 23.66210
#
# Velocity S-wave (km/s) = 3.42624 3.81413 3.62538
# Velocity P-wave (km/s) = 6.29191 6.96877 6.63897
#
# Compressibility (1/GPa) = 0.02320618
#
# Stress axis : x y z
#
# Youngs Moduli (GPa) = 72.92774 94.94206 35.63160
#
# Poissons Ratio (x) = 0.29765 0.33990
# Poissons Ratio (y) = 0.22863 0.06690
# Poissons Ratio (z) = 0.69568 0.17825
#
# Static dielectric constant tensor:
#      x y z
#    x 3.484010 0.000000 0.000000 
#    y 0.000000 3.640280 0.000000 
#    z 0.000000 0.000000 2.943470 
# 
# 
# High freq. dielectric constant tensor:
#      x y z
#    x 1.702100 0.000000 0.000000 
#    y 0.000000 1.725150 0.000000 
#    z 0.000000 0.000000 1.639000 
# 
# From -- ./inp_files/41446.got.cif
#   From: 2010.03.12/outbox.cif.g09.slc.cpg/sg72_21_cif.got.tgz:41446.got - 2010.04.16 14:54:00.
