data_PCOD8294101
_publ_section_title
;
Structure prediction by ZEFSAII (Michael W. Deem and Ramdas Pophale) SiO2 
 PCOD8294101
Probable space group: I B A M
;
_chemical_formula_sum "Si O2"
_cell_formula_units_Z 112
_cell_length_a 13.507362
_cell_length_b 27.444611
_cell_length_c 14.060083
_cell_angle_alpha 90.000000
_cell_angle_beta 90.000000
_cell_angle_gamma 90.000000
_cell_volume 5212.133166
_symmetry_space_group_name_H-M "I B A M"
_symmetry_group_IT_number 72
_symmetry_cell_setting 'orthorhombic'
loop_
_space_group_symop_operation_xyz
x,y,z
-x,-y,z
x,-y,1/2-z
-x,y,1/2-z
-x,-y,-z
x,y,-z
-x,y,1/2+z
x,-y,1/2+z
1/2+x,1/2+y,1/2+z
1/2-x,1/2-y,1/2+z
1/2+x,1/2-y,-z
1/2-x,1/2+y,-z
1/2-x,1/2-y,1/2-z
1/2+x,1/2+y,1/2-z
1/2-x,1/2+y,z
1/2+x,1/2-y,z
loop_
_atom_site_type_symbol
_atom_site_label
_atom_site_fract_x
_atom_site_fract_y
_atom_site_fract_z
Si Si1 0.414760 0.251318 0.611464
Si Si2 0.632900 0.594210 0.607815
Si Si3 0.396235 0.154892 0.276358
Si Si4 0.463594 0.339345 0.111942
Si Si5 0.226294 0.895718 0.112131
Si Si6 0.270011 0.816793 0.607323
Si Si7 0.112141 0.009115 0.611438
O O1 0.424010 0.245942 0.500000
O O2 0.422077 0.197622 0.651163
O O3 0.504809 0.285892 0.650527
O O4 0.310426 0.276656 0.637300
O O5 0.600280 0.583046 0.500000
O O6 0.537003 0.619616 0.657733
O O7 0.726339 0.628944 0.613503
O O8 0.664294 0.540924 0.648097
O O9 0.500000 0.128071 0.250000
O O10 0.323102 0.115537 0.324870
O O11 0.357919 0.182726 0.182394
O O12 0.349024 0.350797 0.132898
O O13 0.485709 0.340027 0.000000
O O14 0.172136 0.944310 0.152897
O O15 0.253747 0.898873 0.000000
O O16 0.309338 0.806531 0.500000
O O17 0.113816 0.019228 0.500000
O O18 0.000000 0.000000 0.647528
#
# Coordination Sequence:
#
# PCOD8294101 Si02
#       7
#    16  16  16  16  16  16  16
#     4   9  19  37  61  89 116 146 189 248 313 373
#     4   8  13  27  54  88 121 150 178 216 285 369
#     4  12  26  40  54  76 111 161 216 259 290 334
#     4   8  14  28  54  88 123 153 179 223 298 373
#     4  10  20  35  58  91 127 158 188 238 303 366
#     4   9  20  39  62  82 107 148 199 251 303 354
#     4   9  14  25  56  97 130 153 174 216 296 381
#
# _framework density 21.488323000000001
#
# number of rings (size 3 to 8) (size 9 to 14) (size 15 to 20)
#    0.000    2.714    1.429    2.571    0.000    3.429 
#    0.000    5.714    0.000    2.571    0.000    4.000 
#    0.000    0.000    0.000    0.000    0.000    0.000 
#
# Total GULP energy -693738.213152 kJ/mol
# GULP energy per Si atom -12388.182378 kJ/mol
# Density = 2.143941 g / cm^3
# Si number density = 21.488323 Si / 1000 Ang^3
#
#
#
# Elastic Constant Matrix: (Units=GPa)
#
#
# Indices 1 2 3 4 5 6 
#
# 1 114.4341 42.8917 37.2927 0.0000 -0.0001 0.0000
# 2 42.8917 116.8323 2.5892 0.0000 -0.0001 0.0000
# 3 37.2927 2.5892 49.7874 0.0011 -0.0013 -0.0003
# 4 0.0000 0.0000 0.0011 0.0446 -0.0001 0.0000
# 5 -0.0001 -0.0001 -0.0013 -0.0001 21.0408 0.0001
# 6 0.0000 0.0000 -0.0003 0.0000 0.0001 21.1016
#
#
#
# Elastic Compliance Matrix: (Units=1/GPa)
#
#
# Indices 1 2 3 4 5 6 
#
# 1 0.013864 -0.004865 -0.010132 0.000227 -0.000001 0.000000
# 2 -0.004865 0.010276 0.003110 -0.000071 0.000000 0.000000
# 3 -0.010132 0.003110 0.027513 -0.000644 0.000002 0.000000
# 4 0.000227 -0.000071 -0.000644 22.398556 0.000112 -0.000001
# 5 -0.000001 0.000000 0.000002 0.000112 0.047527 0.000000
# 6 0.000000 0.000000 0.000000 -0.000001 0.000000 0.047390
#
#
# Mechanical properties :
#
#
# Convention : Reuss Voigt Hill
#
# Bulk Modulus (GPa) = 35.86923 49.62232 42.74577
# Shear Modulus (GPa) = 0.22145 21.65610 10.93878
#
# Velocity S-wave (km/s) = 0.32137 3.17804 2.25868
# Velocity P-wave (km/s) = 4.10687 6.05057 5.17087
#
# Compressibility (1/GPa) = 0.02787905
#
# Stress axis : x y z
#
# Youngs Moduli (GPa) = 72.12917 97.30944 36.34684
#
# Poissons Ratio (x) = 0.47343 0.36825
# Poissons Ratio (y) = 0.35093 -0.11303
# Poissons Ratio (z) = 0.73079 -0.30262
#
# Static dielectric constant tensor:
#      x y z
#    x 3.646730 0.000000 0.000000 
#    y 0.000000 4.068730 0.000000 
#    z 0.000000 0.000000 3.811960 
# 
# 
# High freq. dielectric constant tensor:
#      x y z
#    x 1.806950 0.000000 0.000000 
#    y 0.000000 1.837160 0.000000 
#    z 0.000000 0.000000 1.844380 
# 
# From -- ./inp_files/20734.got.cif
#   From: 2010.03.12/outbox.cif.g09.slc.cpg/sg72_11_cif.got.tgz:20734.got - 2010.04.16 14:54:00.
