data_PCOD8294657
_publ_section_title
;
Structure prediction by ZEFSAII (Michael W. Deem and Ramdas Pophale) SiO2 
 PCOD8294657
Probable space group: I B A M
;
_chemical_formula_sum "Si O2"
_cell_formula_units_Z 116
_cell_length_a 20.967298
_cell_length_b 30.172172
_cell_length_c 9.148191
_cell_angle_alpha 90.000000
_cell_angle_beta 90.000000
_cell_angle_gamma 90.000000
_cell_volume 5787.410207
_symmetry_space_group_name_H-M "I B A M"
_symmetry_group_IT_number 72
_symmetry_cell_setting 'orthorhombic'
loop_
_space_group_symop_operation_xyz
x,y,z
-x,-y,z
x,-y,1/2-z
-x,y,1/2-z
-x,-y,-z
x,y,-z
-x,y,1/2+z
x,-y,1/2+z
1/2+x,1/2+y,1/2+z
1/2-x,1/2-y,1/2+z
1/2+x,1/2-y,-z
1/2-x,1/2+y,-z
1/2-x,1/2-y,1/2-z
1/2+x,1/2+y,1/2-z
1/2-x,1/2+y,z
1/2+x,1/2-y,z
loop_
_atom_site_type_symbol
_atom_site_label
_atom_site_fract_x
_atom_site_fract_y
_atom_site_fract_z
Si Si1 0.885246 0.062186 0.333102
Si Si2 0.765990 0.792861 0.160160
Si Si3 0.564308 0.176538 0.829000
Si Si4 0.560737 0.360966 0.327065
Si Si5 0.500000 0.500000 0.250000
Si Si6 0.695099 0.866283 0.330498
Si Si7 0.242012 0.040870 0.327652
Si Si8 0.911708 0.222775 0.339201
O O1 0.868049 0.073140 0.500000
O O2 0.884808 0.108774 0.243323
O O3 0.826155 0.039223 0.253598
O O4 0.950466 0.032344 0.335883
O O5 0.750000 0.750000 0.250000
O O6 0.744420 0.836616 0.242510
O O7 0.840739 0.793784 0.141744
O O8 0.733342 0.790711 0.000000
O O9 0.500000 0.160707 0.750000
O O10 0.622375 0.144337 0.781418
O O11 0.582333 0.226841 0.782904
O O12 0.551900 0.173440 0.000000
O O13 0.500000 0.383356 0.250000
O O14 0.560253 0.366421 0.500000
O O15 0.559408 0.309035 0.284356
O O16 0.703253 0.853810 0.500000
O O17 0.713329 0.916758 0.298170
O O18 0.230949 0.033657 0.500000
O O19 0.279543 0.000000 0.250000
O O20 0.944898 0.217297 0.500000
#
# Coordination Sequence:
#
# PCOD8294657 Si02
#       8
#    16  16  16  16   4  16  16  16
#     4  12  25  42  64  88 120 157 206 258 307 361
#     4  11  21  35  58  87 120 158 199 246 294 353
#     4  10  21  39  61  88 122 158 202 251 307 369
#     4  12  25  39  56  80 114 155 203 250 301 357
#     4  12  26  40  68  90 118 160 204 256 310 352
#     4  10  22  42  63  89 125 165 204 256 312 370
#     4  11  24  42  67  94 124 158 200 252 314 371
#     4  10  21  38  58  82 118 159 202 250 300 355
#
# _framework density 20.043509
#
# number of rings (size 3 to 8) (size 9 to 14) (size 15 to 20)
#    0.000    1.103    2.759    3.931    0.000    7.724 
#    0.000    0.000    0.000    0.414    0.000    2.897 
#    0.000    0.000    0.000    0.000    0.000    0.000 
#
# Total GULP energy -718705.749963 kJ/mol
# GULP energy per Si atom -12391.478448 kJ/mol
# Density = 1.999789 g / cm^3
# Si number density = 20.043509 Si / 1000 Ang^3
#
#
#
# Elastic Constant Matrix: (Units=GPa)
#
#
# Indices 1 2 3 4 5 6 
#
# 1 92.9185 46.5079 40.7587 0.0000 0.0000 0.0000
# 2 46.5079 131.0203 70.9679 0.0000 0.0000 0.0000
# 3 40.7587 70.9679 139.1275 0.0000 0.0000 0.0000
# 4 0.0000 0.0000 0.0000 30.9656 0.0000 0.0000
# 5 0.0000 0.0000 0.0000 0.0000 27.4606 0.0000
# 6 0.0000 0.0000 0.0000 0.0000 0.0000 26.4407
#
#
#
# Elastic Compliance Matrix: (Units=1/GPa)
#
#
# Indices 1 2 3 4 5 6 
#
# 1 0.013513 -0.003665 -0.002089 0.000000 0.000000 0.000000
# 2 -0.003665 0.011540 -0.004813 0.000000 0.000000 0.000000
# 3 -0.002089 -0.004813 0.010255 0.000000 0.000000 0.000000
# 4 0.000000 0.000000 0.000000 0.032294 0.000000 0.000000
# 5 0.000000 0.000000 0.000000 0.000000 0.036416 0.000000
# 6 0.000000 0.000000 0.000000 0.000000 0.000000 0.037821
#
#
# Mechanical properties :
#
#
# Convention : Reuss Voigt Hill
#
# Bulk Modulus (GPa) = 70.55339 75.50394 73.02866
# Shear Modulus (GPa) = 29.81563 30.62883 30.22223
#
# Velocity S-wave (km/s) = 3.86106 3.91335 3.88729
# Velocity P-wave (km/s) = 7.42654 7.62699 7.52743
#
# Compressibility (1/GPa) = 0.01417366
#
# Stress axis : x y z
#
# Youngs Moduli (GPa) = 74.00280 86.65271 97.51570
#
# Poissons Ratio (x) = 0.31758 0.20374
# Poissons Ratio (y) = 0.27122 0.46934
# Poissons Ratio (z) = 0.15461 0.41705
#
# Static dielectric constant tensor:
#      x y z
#    x 3.495660 0.000000 0.000000 
#    y 0.000000 4.023510 0.000000 
#    z 0.000000 0.000000 3.834590 
# 
# 
# High freq. dielectric constant tensor:
#      x y z
#    x 1.765270 0.000000 0.000000 
#    y 0.000000 1.784300 0.000000 
#    z 0.000000 0.000000 1.787230 
# 
# From -- ./inp_files/7344.got.cif
#   From: 2010.03.12/outbox.cif.g09.slc.cpg/sg72_4_cif.got.tgz:7344.got - 2010.04.16 14:54:00.
