data_PCOD8294538
_publ_section_title
;
Structure prediction by ZEFSAII (Michael W. Deem and Ramdas Pophale) SiO2 
 PCOD8294538
Probable space group: I B A M
;
_chemical_formula_sum "Si O2"
_cell_formula_units_Z 112
_cell_length_a 14.841888
_cell_length_b 23.474425
_cell_length_c 14.161983
_cell_angle_alpha 90.000000
_cell_angle_beta 90.000000
_cell_angle_gamma 90.000000
_cell_volume 4934.102667
_symmetry_space_group_name_H-M "I B A M"
_symmetry_group_IT_number 72
_symmetry_cell_setting 'orthorhombic'
loop_
_space_group_symop_operation_xyz
x,y,z
-x,-y,z
x,-y,1/2-z
-x,y,1/2-z
-x,-y,-z
x,y,-z
-x,y,1/2+z
x,-y,1/2+z
1/2+x,1/2+y,1/2+z
1/2-x,1/2-y,1/2+z
1/2+x,1/2-y,-z
1/2-x,1/2+y,-z
1/2-x,1/2-y,1/2-z
1/2+x,1/2+y,1/2-z
1/2-x,1/2+y,z
1/2+x,1/2-y,z
loop_
_atom_site_type_symbol
_atom_site_label
_atom_site_fract_x
_atom_site_fract_y
_atom_site_fract_z
Si Si1 0.714479 0.049348 0.390525
Si Si2 0.616606 0.318397 0.396657
Si Si3 0.718558 0.734618 0.393099
Si Si4 0.534600 0.104735 0.603921
Si Si5 0.158862 0.421406 0.889055
Si Si6 0.021061 0.727848 0.358237
Si Si7 0.211075 0.128982 0.754387
O O1 0.735326 0.063051 0.500000
O O2 0.627116 0.083518 0.347939
O O3 0.794437 0.073537 0.323075
O O4 0.703360 0.982777 0.373387
O O5 0.629683 0.347597 0.500000
O O6 0.697428 0.275155 0.372859
O O7 0.522300 0.285265 0.399814
O O8 0.619549 0.363632 0.309267
O O9 0.722953 0.710708 0.500000
O O10 0.626865 0.770379 0.379042
O O11 0.727987 0.683118 0.320472
O O12 0.542153 0.077626 0.500000
O O13 0.444072 0.078724 0.650459
O O14 0.525693 0.172832 0.595464
O O15 0.212371 0.375807 0.826897
O O16 0.160922 0.403555 0.000000
O O17 0.000000 0.723055 0.250000
#
# Coordination Sequence:
#
# PCOD8294538 Si02
#       7
#    16  16  16  16  16  16  16
#     4  10  22  39  59  87 123 164 211 261 314 374
#     4  11  24  41  61  88 125 167 211 258 310 372
#     4  11  24  41  61  88 125 167 211 258 310 372
#     4  10  21  36  57  85 124 170 210 249 305 376
#     4  10  22  39  59  87 123 164 211 261 314 374
#     4  12  24  39  61  94 130 169 210 255 307 374
#     4  12  22  36  57  84 114 156 204 255 302 357
#
# _framework density 22.699162000000001
#
# number of rings (size 3 to 8) (size 9 to 14) (size 15 to 20)
#    0.000    1.143    1.429    5.143    6.000    6.286 
#    0.000    1.429    0.000    0.000    0.000    8.000 
#    0.000   18.286    0.000    0.000    0.000    0.000 
#
# Total GULP energy -694096.463302 kJ/mol
# GULP energy per Si atom -12394.579702 kJ/mol
# Density = 2.264750 g / cm^3
# Si number density = 22.699162 Si / 1000 Ang^3
#
#
#
# Elastic Constant Matrix: (Units=GPa)
#
#
# Indices 1 2 3 4 5 6 
#
# 1 51.0951 15.0349 7.3113 0.0000 0.0000 0.0000
# 2 15.0349 73.2848 32.7175 0.0000 0.0000 0.0000
# 3 7.3113 32.7175 127.2607 0.0001 0.0000 0.0000
# 4 0.0000 0.0000 0.0001 13.9247 0.0000 0.0000
# 5 0.0000 0.0000 0.0000 0.0000 51.5033 0.0000
# 6 0.0000 0.0000 0.0000 0.0000 0.0000 38.0903
#
#
#
# Elastic Compliance Matrix: (Units=1/GPa)
#
#
# Indices 1 2 3 4 5 6 
#
# 1 0.020830 -0.004224 -0.000111 0.000000 0.000000 0.000000
# 2 -0.004224 0.016271 -0.003940 0.000000 0.000000 0.000000
# 3 -0.000111 -0.003940 0.008877 0.000000 0.000000 0.000000
# 4 0.000000 0.000000 0.000000 0.071815 0.000000 0.000000
# 5 0.000000 0.000000 0.000000 0.000000 0.019416 0.000000
# 6 0.000000 0.000000 0.000000 0.000000 0.000000 0.026253
#
#
# Mechanical properties :
#
#
# Convention : Reuss Voigt Hill
#
# Bulk Modulus (GPa) = 33.98111 40.19643 37.08877
# Shear Modulus (GPa) = 26.34030 33.80876 30.07453
#
# Velocity S-wave (km/s) = 3.41017 3.86350 3.64389
# Velocity P-wave (km/s) = 5.52344 6.13587 5.83769
#
# Compressibility (1/GPa) = 0.02942811
#
# Stress axis : x y z
#
# Youngs Moduli (GPa) = 48.00741 61.45834 112.64671
#
# Poissons Ratio (x) = 0.25960 0.01248
# Poissons Ratio (y) = 0.20278 0.44388
# Poissons Ratio (z) = 0.00532 0.24218
#
# Static dielectric constant tensor:
#      x y z
#    x 4.019340 0.000000 0.000000 
#    y 0.000000 3.946380 0.000000 
#    z 0.000000 0.000000 4.304280 
# 
# 
# High freq. dielectric constant tensor:
#      x y z
#    x 1.858560 0.000000 0.000000 
#    y 0.000000 1.871080 0.000000 
#    z 0.000000 0.000000 1.929140 
# 
# From -- ./inp_files/22120.got.cif
#   From: 2010.03.12/outbox.cif.g09.slc.cpg/sg72_12_cif.got.tgz:22120.got - 2010.04.16 14:54:00.
