data_PCOD8294579
_publ_section_title
;
Structure prediction by ZEFSAII (Michael W. Deem and Ramdas Pophale) SiO2 
 PCOD8294579
Probable space group: I B A M
;
_chemical_formula_sum "Si O2"
_cell_formula_units_Z 112
_cell_length_a 11.446458
_cell_length_b 31.719352
_cell_length_c 14.539062
_cell_angle_alpha 90.000000
_cell_angle_beta 90.000000
_cell_angle_gamma 90.000000
_cell_volume 5278.758747
_symmetry_space_group_name_H-M "I B A M"
_symmetry_group_IT_number 72
_symmetry_cell_setting 'orthorhombic'
loop_
_space_group_symop_operation_xyz
x,y,z
-x,-y,z
x,-y,1/2-z
-x,y,1/2-z
-x,-y,-z
x,y,-z
-x,y,1/2+z
x,-y,1/2+z
1/2+x,1/2+y,1/2+z
1/2-x,1/2-y,1/2+z
1/2+x,1/2-y,-z
1/2-x,1/2+y,-z
1/2-x,1/2-y,1/2-z
1/2+x,1/2+y,1/2-z
1/2-x,1/2+y,z
1/2+x,1/2-y,z
loop_
_atom_site_type_symbol
_atom_site_label
_atom_site_fract_x
_atom_site_fract_y
_atom_site_fract_z
Si Si1 0.480906 0.366533 0.104059
Si Si2 0.421493 0.719749 0.838347
Si Si3 0.211410 0.091672 0.897292
Si Si4 0.725248 0.884714 0.389923
Si Si5 0.696723 0.182551 0.603965
Si Si6 0.134183 0.450170 0.246763
Si Si7 0.057318 0.311084 0.895233
O O1 0.510609 0.316753 0.106041
O O2 0.584179 0.395738 0.146923
O O3 0.355303 0.375179 0.149787
O O4 0.472350 0.380740 0.000000
O O5 0.500000 0.728585 0.750000
O O6 0.289033 0.703146 0.824546
O O7 0.399035 0.763131 0.892097
O O8 0.286585 0.133369 0.906214
O O9 0.285332 0.061172 0.833365
O O10 0.198080 0.071635 0.000000
O O11 0.722039 0.888815 0.500000
O O12 0.684950 0.928885 0.345803
O O13 0.646542 0.845512 0.352732
O O14 0.706317 0.202696 0.500000
O O15 0.570602 0.188728 0.652085
O O16 0.140242 0.500000 0.250000
O O17 0.000000 0.434784 0.250000
O O18 0.039174 0.325094 0.000000
#
# Coordination Sequence:
#
# PCOD8294579 Si02
#       7
#    16  16  16  16  16  16  16
#     4   9  20  40  63  87 120 166 214 260 311 371
#     4  11  23  33  51  84 120 159 208 261 313 362
#     4   9  19  39  66  90 119 165 209 250 311 382
#     4  10  23  42  65  92 125 169 214 263 324 381
#     4   9  19  36  57  78 107 154 208 252 300 370
#     4  11  25  42  65  97 128 160 203 263 327 388
#     4  10  21  37  57  80 115 164 209 258 310 361
#
# _framework density 21.217109000000001
#
# number of rings (size 3 to 8) (size 9 to 14) (size 15 to 20)
#    0.000    2.143    0.000    3.000    6.000    4.571 
#    0.000    2.857    0.000    2.571    0.000    0.000 
#    0.000    0.000    0.000    0.000    0.000    0.000 
#
# Total GULP energy -693758.402371 kJ/mol
# GULP energy per Si atom -12388.542899 kJ/mol
# Density = 2.116882 g / cm^3
# Si number density = 21.217109 Si / 1000 Ang^3
#
#
#
# Elastic Constant Matrix: (Units=GPa)
#
#
# Indices 1 2 3 4 5 6 
#
# 1 180.5880 67.8841 40.2459 -0.0002 0.0001 0.0000
# 2 67.8841 99.9421 27.4676 0.0002 -0.0002 -0.0003
# 3 40.2459 27.4676 56.6100 0.0003 -0.0007 -0.0013
# 4 -0.0002 0.0002 0.0003 29.9744 -0.0005 -0.0005
# 5 0.0001 -0.0002 -0.0007 -0.0005 11.0890 0.0001
# 6 0.0000 -0.0003 -0.0013 -0.0005 0.0001 22.1450
#
#
#
# Elastic Compliance Matrix: (Units=1/GPa)
#
#
# Indices 1 2 3 4 5 6 
#
# 1 0.008001 -0.004467 -0.003521 0.000000 0.000000 0.000000
# 2 -0.004467 0.014039 -0.003636 0.000000 0.000000 0.000000
# 3 -0.003521 -0.003636 0.021932 0.000000 0.000001 0.000001
# 4 0.000000 0.000000 0.000000 0.033362 0.000002 0.000001
# 5 0.000000 0.000000 0.000001 0.000002 0.090179 0.000000
# 6 0.000000 0.000000 0.000001 0.000001 0.000000 0.045157
#
#
# Mechanical properties :
#
#
# Convention : Reuss Voigt Hill
#
# Bulk Modulus (GPa) = 48.25230 67.59281 57.92255
# Shear Modulus (GPa) = 20.59073 26.07784 23.33429
#
# Velocity S-wave (km/s) = 3.11863 3.50965 3.31990
# Velocity P-wave (km/s) = 5.97991 6.95344 6.48497
#
# Compressibility (1/GPa) = 0.02072440
#
# Stress axis : x y z
#
# Youngs Moduli (GPa) = 124.97872 71.22823 45.59511
#
# Poissons Ratio (x) = 0.31819 0.16054
# Poissons Ratio (y) = 0.55830 0.16579
# Poissons Ratio (z) = 0.44004 0.25900
#
# Static dielectric constant tensor:
#      x y z
#    x 4.389780 0.000000 0.000000 
#    y 0.000000 3.527600 0.000000 
#    z 0.000000 0.000000 3.952860 
# 
# 
# High freq. dielectric constant tensor:
#      x y z
#    x 1.854050 0.000000 0.000000 
#    y 0.000000 1.804190 0.000000 
#    z 0.000000 0.000000 1.819720 
# 
# From -- ./inp_files/20750.got.cif
#   From: 2010.03.12/outbox.cif.g09.slc.cpg/sg72_11_cif.got.tgz:20750.got - 2010.04.16 14:54:00.
