data_PCOD8294356
_publ_section_title
;
Structure prediction by ZEFSAII (Michael W. Deem and Ramdas Pophale) SiO2 
 PCOD8294356
Probable space group: I B A M
;
_chemical_formula_sum "Si O2"
_cell_formula_units_Z 96
_cell_length_a 22.782295
_cell_length_b 13.180073
_cell_length_c 16.544118
_cell_angle_alpha 90.000000
_cell_angle_beta 90.000000
_cell_angle_gamma 90.000000
_cell_volume 4967.740549
_symmetry_space_group_name_H-M "I B A M"
_symmetry_group_IT_number 72
_symmetry_cell_setting 'orthorhombic'
loop_
_space_group_symop_operation_xyz
x,y,z
-x,-y,z
x,-y,1/2-z
-x,y,1/2-z
-x,-y,-z
x,y,-z
-x,y,1/2+z
x,-y,1/2+z
1/2+x,1/2+y,1/2+z
1/2-x,1/2-y,1/2+z
1/2+x,1/2-y,-z
1/2-x,1/2+y,-z
1/2-x,1/2-y,1/2-z
1/2+x,1/2+y,1/2-z
1/2-x,1/2+y,z
1/2+x,1/2-y,z
loop_
_atom_site_type_symbol
_atom_site_label
_atom_site_fract_x
_atom_site_fract_y
_atom_site_fract_z
Si Si1 0.586733 0.742179 0.092839
Si Si2 0.856282 0.629439 0.095515
Si Si3 0.470470 0.210466 0.671697
Si Si4 0.818679 0.590942 0.405150
Si Si5 0.785562 0.802715 0.820145
Si Si6 0.599920 0.384481 0.746031
O O1 0.518885 0.774664 0.101909
O O2 0.628483 0.834709 0.120703
O O3 0.600992 0.648853 0.151994
O O4 0.598578 0.710057 0.000000
O O5 0.919306 0.640812 0.137383
O O6 0.831838 0.521995 0.126535
O O7 0.811731 0.717314 0.120952
O O8 0.864940 0.632616 0.000000
O O9 0.500000 0.156560 0.750000
O O10 0.445781 0.319037 0.701636
O O11 0.811799 0.590167 0.500000
O O12 0.756920 0.624677 0.369620
O O13 0.750000 0.750000 0.750000
O O14 0.835655 0.873730 0.783433
O O15 0.579153 0.500000 0.750000
#
# Coordination Sequence:
#
# PCOD8294356 Si02
#       6
#    16  16  16  16  16  16
#     4  10  20  38  61  86 117 154 194 241 294 346
#     4  10  22  40  61  87 121 157 195 244 297 353
#     4   9  20  39  59  87 120 154 198 244 293 343
#     4  10  22  38  60  90 120 153 195 241 294 349
#     4  11  22  38  59  85 118 155 196 241 295 347
#     4  10  22  40  59  85 116 155 195 245 291 344
#
# _framework density 19.324681999999999
#
# number of rings (size 3 to 8) (size 9 to 14) (size 15 to 20)
#    0.000    2.000    1.667    1.000    2.333    3.667 
#    0.000   10.833    0.000    0.000    0.000    0.000 
#    0.000    0.000    0.000    0.000    0.000    0.000 
#
# Total GULP energy -595285.613723 kJ/mol
# GULP energy per Si atom -12401.783619 kJ/mol
# Density = 1.928070 g / cm^3
# Si number density = 19.324682 Si / 1000 Ang^3
#
#
#
# Elastic Constant Matrix: (Units=GPa)
#
#
# Indices 1 2 3 4 5 6 
#
# 1 140.0464 51.8894 42.5159 0.0000 0.0000 0.0000
# 2 51.8894 114.5155 47.9637 0.0000 0.0000 0.0000
# 3 42.5159 47.9637 74.0335 0.0000 0.0000 0.0000
# 4 0.0000 0.0000 0.0000 29.1702 0.0000 0.0000
# 5 0.0000 0.0000 0.0000 0.0000 37.8571 0.0000
# 6 0.0000 0.0000 0.0000 0.0000 0.0000 20.4516
#
#
#
# Elastic Compliance Matrix: (Units=1/GPa)
#
#
# Indices 1 2 3 4 5 6 
#
# 1 0.009214 -0.002688 -0.003550 0.000000 0.000000 0.000000
# 2 -0.002688 0.012769 -0.006729 0.000000 0.000000 0.000000
# 3 -0.003550 -0.006729 0.019905 0.000000 0.000000 0.000000
# 4 0.000000 0.000000 0.000000 0.034282 0.000000 0.000000
# 5 0.000000 0.000000 0.000000 0.000000 0.026415 0.000000
# 6 0.000000 0.000000 0.000000 0.000000 0.000000 0.048896
#
#
# Mechanical properties :
#
#
# Convention : Reuss Voigt Hill
#
# Bulk Modulus (GPa) = 62.67760 68.14818 65.41289
# Shear Modulus (GPa) = 27.36236 29.91087 28.63662
#
# Velocity S-wave (km/s) = 3.76696 3.93849 3.85368
# Velocity P-wave (km/s) = 7.17108 7.48489 7.32967
#
# Compressibility (1/GPa) = 0.01595466
#
# Stress axis : x y z
#
# Youngs Moduli (GPa) = 108.52757 78.31590 50.23802
#
# Poissons Ratio (x) = 0.21054 0.17834
# Poissons Ratio (y) = 0.29176 0.33803
# Poissons Ratio (z) = 0.38526 0.52696
#
# Static dielectric constant tensor:
#      x y z
#    x 3.644450 0.000000 0.000000 
#    y 0.000000 3.428500 0.000000 
#    z 0.000000 0.000000 3.019810 
# 
# 
# High freq. dielectric constant tensor:
#      x y z
#    x 1.771670 0.000000 0.000000 
#    y 0.000000 1.739260 0.000000 
#    z 0.000000 0.000000 1.758850 
# 
# From -- ./inp_files/33293.got.cif
#   From: 2010.03.12/outbox.cif.g09.slc.cpg/sg72_17_cif.got.tgz:33293.got - 2010.04.16 14:54:00.
