data_PCOD8294062
_publ_section_title
;
Structure prediction by ZEFSAII (Michael W. Deem and Ramdas Pophale) SiO2 
 PCOD8294062
Probable space group: I B A M
;
_chemical_formula_sum "Si O2"
_cell_formula_units_Z 116
_cell_length_a 31.355757
_cell_length_b 22.481240
_cell_length_c 8.323369
_cell_angle_alpha 90.000000
_cell_angle_beta 90.000000
_cell_angle_gamma 90.000000
_cell_volume 5867.278467
_symmetry_space_group_name_H-M "I B A M"
_symmetry_group_IT_number 72
_symmetry_cell_setting 'orthorhombic'
loop_
_space_group_symop_operation_xyz
x,y,z
-x,-y,z
x,-y,1/2-z
-x,y,1/2-z
-x,-y,-z
x,y,-z
-x,y,1/2+z
x,-y,1/2+z
1/2+x,1/2+y,1/2+z
1/2-x,1/2-y,1/2+z
1/2+x,1/2-y,-z
1/2-x,1/2+y,-z
1/2-x,1/2-y,1/2-z
1/2+x,1/2+y,1/2-z
1/2-x,1/2+y,z
1/2+x,1/2-y,z
loop_
_atom_site_type_symbol
_atom_site_label
_atom_site_fract_x
_atom_site_fract_y
_atom_site_fract_z
Si Si1 0.658491 0.562708 0.191150
Si Si2 0.306689 0.207210 0.689498
Si Si3 0.500000 0.500000 0.750000
Si Si4 0.934454 0.089699 0.307940
Si Si5 0.453779 0.722680 0.189273
Si Si6 0.398197 0.168250 0.310684
Si Si7 0.954409 0.435523 0.186299
Si Si8 0.215934 0.169365 0.311553
O O1 0.677408 0.500000 0.250000
O O2 0.614001 0.572295 0.280803
O O3 0.691711 0.611842 0.257102
O O4 0.652362 0.565575 0.000000
O O5 0.303827 0.216213 0.500000
O O6 0.348413 0.169854 0.737651
O O7 0.264417 0.173903 0.757071
O O8 0.310808 0.272424 0.765597
O O9 0.464894 0.548921 0.689634
O O10 0.946092 0.079500 0.500000
O O11 0.940883 0.157293 0.249333
O O12 0.500000 0.741471 0.250000
O O13 0.420604 0.771688 0.255256
O O14 0.453133 0.722552 0.000000
O O15 0.404755 0.162833 0.500000
O O16 0.417596 0.110498 0.228987
O O17 0.941275 0.500000 0.250000
O O18 0.000000 0.412995 0.250000
O O19 0.959363 0.441427 0.000000
O O20 0.218421 0.163032 0.500000
#
# Coordination Sequence:
#
# PCOD8294062 Si02
#       8
#    16  16   4  16  16  16  16  16
#     4  11  23  37  55  79 108 141 182 228 276 326
#     4   9  18  35  60  84 111 145 180 224 276 331
#     4  12  22  36  60  78 110 148 196 240 274 324
#     4  11  23  38  56  79 109 147 194 235 279 326
#     4  10  21  35  51  76 109 146 185 227 273 322
#     4  10  20  35  56  83 115 148 184 227 279 330
#     4  11  22  38  60  84 113 148 187 226 270 328
#     4   9  19  36  57  83 111 142 182 228 277 330
#
# _framework density 19.770665000000001
#
# number of rings (size 3 to 8) (size 9 to 14) (size 15 to 20)
#    0.000    1.793    1.379    3.517    0.000    5.517 
#    0.000    0.690    0.000    1.655    0.000    0.000 
#    0.000    0.000    0.000    0.000    0.000    0.000 
#
# Total GULP energy -718606.861165 kJ/mol
# GULP energy per Si atom -12389.773468 kJ/mol
# Density = 1.972567 g / cm^3
# Si number density = 19.770665 Si / 1000 Ang^3
#
#
#
# Elastic Constant Matrix: (Units=GPa)
#
#
# Indices 1 2 3 4 5 6 
#
# 1 130.1838 84.7935 26.1559 0.0000 0.0000 0.0000
# 2 84.7935 147.7136 26.7953 0.0000 0.0000 0.0000
# 3 26.1559 26.7953 41.3624 0.0000 0.0000 0.0000
# 4 0.0000 0.0000 0.0000 22.1593 0.0000 0.0000
# 5 0.0000 0.0000 0.0000 0.0000 21.9870 0.0000
# 6 0.0000 0.0000 0.0000 0.0000 0.0000 25.9026
#
#
#
# Elastic Compliance Matrix: (Units=1/GPa)
#
#
# Indices 1 2 3 4 5 6 
#
# 1 0.012767 -0.006645 -0.003768 0.000000 0.000000 0.000000
# 2 -0.006645 0.011130 -0.003008 0.000000 0.000000 0.000000
# 3 -0.003768 -0.003008 0.028508 0.000000 0.000000 0.000000
# 4 0.000000 0.000000 0.000000 0.045128 0.000000 0.000000
# 5 0.000000 0.000000 0.000000 0.000000 0.045481 0.000000
# 6 0.000000 0.000000 0.000000 0.000000 0.000000 0.038606
#
#
# Mechanical properties :
#
#
# Convention : Reuss Voigt Hill
#
# Bulk Modulus (GPa) = 39.12085 66.08325 52.60205
# Shear Modulus (GPa) = 23.04313 26.11077 24.57695
#
# Velocity S-wave (km/s) = 3.41768 3.63806 3.52959
# Velocity P-wave (km/s) = 5.95015 7.15156 6.57834
#
# Compressibility (1/GPa) = 0.02556182
#
# Stress axis : x y z
#
# Youngs Moduli (GPa) = 78.32857 89.84681 35.07753
#
# Poissons Ratio (x) = 0.59703 0.13219
# Poissons Ratio (y) = 0.52050 0.10552
# Poissons Ratio (z) = 0.29517 0.27028
#
# Static dielectric constant tensor:
#      x y z
#    x 3.862180 0.000000 0.000000 
#    y 0.000000 3.849490 0.000000 
#    z 0.000000 0.000000 3.434170 
# 
# 
# High freq. dielectric constant tensor:
#      x y z
#    x 1.776500 0.000000 0.000000 
#    y 0.000000 1.778120 0.000000 
#    z 0.000000 0.000000 1.752880 
# 
# From -- ./inp_files/9366.got.cif
#   From: 2010.03.12/outbox.cif.g09.slc.cpg/sg72_5_cif.got.tgz:9366.got - 2010.04.16 14:54:00.
