data_PCOD8294418
_publ_section_title
;
Structure prediction by ZEFSAII (Michael W. Deem and Ramdas Pophale) SiO2 
 PCOD8294418
Probable space group: I B A M
;
_chemical_formula_sum "Si O2"
_cell_formula_units_Z 64
_cell_length_a 9.578258
_cell_length_b 35.122414
_cell_length_c 10.281778
_cell_angle_alpha 90.000000
_cell_angle_beta 90.000000
_cell_angle_gamma 90.000000
_cell_volume 3458.908800
_symmetry_space_group_name_H-M "I B A M"
_symmetry_group_IT_number 72
_symmetry_cell_setting 'orthorhombic'
loop_
_space_group_symop_operation_xyz
x,y,z
-x,-y,z
x,-y,1/2-z
-x,y,1/2-z
-x,-y,-z
x,y,-z
-x,y,1/2+z
x,-y,1/2+z
1/2+x,1/2+y,1/2+z
1/2-x,1/2-y,1/2+z
1/2+x,1/2-y,-z
1/2-x,1/2+y,-z
1/2-x,1/2-y,1/2-z
1/2+x,1/2+y,1/2-z
1/2-x,1/2+y,z
1/2+x,1/2-y,z
loop_
_atom_site_type_symbol
_atom_site_label
_atom_site_fract_x
_atom_site_fract_y
_atom_site_fract_z
Si Si1 0.658869 0.166492 0.766350
Si Si2 0.147204 0.022068 0.638735
Si Si3 0.386521 0.389937 0.149516
Si Si4 0.700851 0.794822 0.000000
Si Si5 0.881888 0.278496 0.500000
O O1 0.500000 0.153035 0.750000
O O2 0.740398 0.130281 0.821522
O O3 0.721012 0.179495 0.628070
O O4 0.671042 0.200593 0.870131
O O5 0.225376 0.019344 0.500000
O O6 0.128898 0.065586 0.678692
O O7 0.236544 0.000000 0.750000
O O8 0.000000 0.000000 0.628549
O O9 0.500000 0.372909 0.250000
O O10 0.433039 0.382772 0.000000
O O11 0.549301 0.774973 0.000000
O O12 0.821681 0.763676 0.000000
#
# Coordination Sequence:
#
# PCOD8294418 Si02
#       5
#    16  16  16   8   8
#     4  10  22  40  57  82 118 157 192 229 293 350
#     4   9  16  30  50  78 112 146 183 228 289 337
#     4  11  22  35  57  87 119 151 191 245 288 338
#     4  10  22  36  62  84 108 151 189 237 287 346
#     4  10  20  40  60  82 112 149 191 237 289 344
#
# _framework density 18.502943999999999
#
# number of rings (size 3 to 8) (size 9 to 14) (size 15 to 20)
#    0.000    2.000    3.750    0.750    1.750    2.000 
#    0.000    0.000    0.000    0.750    0.000    3.500 
#    0.000    0.000    0.000    0.000    0.000    0.000 
#
# Total GULP energy -396628.707529 kJ/mol
# GULP energy per Si atom -12394.647110 kJ/mol
# Density = 1.846083 g / cm^3
# Si number density = 18.502944 Si / 1000 Ang^3
#
#
#
# Elastic Constant Matrix: (Units=GPa)
#
#
# Indices 1 2 3 4 5 6 
#
# 1 50.2638 39.1528 27.2539 -0.0024 -0.0006 0.0000
# 2 39.1528 85.3842 32.6281 -0.0065 -0.0011 -0.0001
# 3 27.2539 32.6281 157.2692 -0.0110 -0.0016 0.0005
# 4 -0.0024 -0.0065 -0.0110 2.9827 -0.0022 0.0001
# 5 -0.0006 -0.0011 -0.0016 -0.0022 18.7599 -0.0008
# 6 0.0000 -0.0001 0.0005 0.0001 -0.0008 19.1421
#
#
#
# Elastic Compliance Matrix: (Units=1/GPa)
#
#
# Indices 1 2 3 4 5 6 
#
# 1 0.031983 -0.013628 -0.002715 -0.000014 0.000000 0.000000
# 2 -0.013628 0.018527 -0.001482 0.000024 0.000001 0.000000
# 3 -0.002715 -0.001482 0.007137 0.000021 0.000000 0.000000
# 4 -0.000014 0.000024 0.000021 0.335266 0.000039 -0.000001
# 5 0.000000 0.000001 0.000000 0.000039 0.053305 0.000002
# 6 0.000000 0.000000 0.000000 -0.000001 0.000002 0.052241
#
#
# Mechanical properties :
#
#
# Convention : Reuss Voigt Hill
#
# Bulk Modulus (GPa) = 45.46290 54.55410 50.00850
# Shear Modulus (GPa) = 9.23462 21.10244 15.16853
#
# Velocity S-wave (km/s) = 2.23645 3.38078 2.86630
# Velocity P-wave (km/s) = 5.59401 6.69235 6.16768
#
# Compressibility (1/GPa) = 0.02199596
#
# Stress axis : x y z
#
# Youngs Moduli (GPa) = 31.26684 53.97441 140.12440
#
# Poissons Ratio (x) = 0.73557 0.38045
# Poissons Ratio (y) = 0.42611 0.20768
# Poissons Ratio (z) = 0.08489 0.08000
#
# Static dielectric constant tensor:
#      x y z
#    x 3.098370 0.000000 0.000000 
#    y 0.000000 3.242550 0.000000 
#    z 0.000000 0.000000 4.943650 
# 
# 
# High freq. dielectric constant tensor:
#      x y z
#    x 1.672380 0.000000 0.000000 
#    y 0.000000 1.713410 0.000000 
#    z 0.000000 0.000000 1.754810 
# 
# From -- ./inp_files/10544.got.cif
#   From: 2010.03.12/outbox.cif.g09.slc.cpg/sg72_6_cif.got.tgz:10544.got - 2010.04.16 14:54:00.
