data_PCOD8294294
_publ_section_title
;
Structure prediction by ZEFSAII (Michael W. Deem and Ramdas Pophale) SiO2 
 PCOD8294294
Probable space group: I B A M
;
_chemical_formula_sum "Si O2"
_cell_formula_units_Z 96
_cell_length_a 12.359880
_cell_length_b 22.317359
_cell_length_c 17.944842
_cell_angle_alpha 90.000000
_cell_angle_beta 90.000000
_cell_angle_gamma 90.000000
_cell_volume 4949.903049
_symmetry_space_group_name_H-M "I B A M"
_symmetry_group_IT_number 72
_symmetry_cell_setting 'orthorhombic'
loop_
_space_group_symop_operation_xyz
x,y,z
-x,-y,z
x,-y,1/2-z
-x,y,1/2-z
-x,-y,-z
x,y,-z
-x,y,1/2+z
x,-y,1/2+z
1/2+x,1/2+y,1/2+z
1/2-x,1/2-y,1/2+z
1/2+x,1/2-y,-z
1/2-x,1/2+y,-z
1/2-x,1/2-y,1/2-z
1/2+x,1/2+y,1/2-z
1/2-x,1/2+y,z
1/2+x,1/2-y,z
loop_
_atom_site_type_symbol
_atom_site_label
_atom_site_fract_x
_atom_site_fract_y
_atom_site_fract_z
Si Si1 0.646373 0.065432 0.783734
Si Si2 0.688043 0.354419 0.345521
Si Si3 0.454002 0.124545 0.849669
Si Si4 0.500000 0.320166 0.750000
Si Si5 0.148125 0.664613 0.000000
Si Si6 0.626340 0.289748 0.000000
Si Si7 0.112992 0.808365 0.000000
Si Si8 0.880006 0.271710 0.655905
O O1 0.753830 0.081661 0.830952
O O2 0.543300 0.071075 0.840039
O O3 0.634093 0.113172 0.715300
O O4 0.657028 0.000000 0.750000
O O5 0.570717 0.358764 0.307166
O O6 0.671155 0.339947 0.431504
O O7 0.770917 0.303532 0.314784
O O8 0.513886 0.187201 0.836963
O O9 0.397081 0.127598 0.929655
O O10 0.593027 0.284797 0.793703
O O11 0.118317 0.735515 0.000000
O O12 0.278312 0.660632 0.000000
O O13 0.513569 0.325302 0.000000
O O14 0.638280 0.246525 0.070627
#
# Coordination Sequence:
#
# PCOD8294294 Si02
#       8
#    16  16  16   8   8   8   8  16
#     4  10  23  43  64  86 117 157 215 286 323 353
#     4  11  23  36  59  84 120 169 212 249 317 372
#     4  10  20  37  61  89 122 158 206 255 324 375
#     4  12  22  32  53  86 123 158 208 246 302 390
#     4  12  22  34  58  92 130 168 203 240 307 399
#     4  12  22  34  54  77 140 168 194 231 293 360
#     4  12  22  38  53  89 131 173 203 245 295 389
#     4  11  20  33  52  87 122 166 197 243 297 391
#
# _framework density 19.39432
#
# number of rings (size 3 to 8) (size 9 to 14) (size 15 to 20)
#    0.000    1.000    5.000    3.500    2.333    2.000 
#    0.000    2.917    0.000    0.000    0.000    2.333 
#    0.000    0.000    0.000    0.000    0.000    0.000 
#
# Total GULP energy -594830.432532 kJ/mol
# GULP energy per Si atom -12392.300678 kJ/mol
# Density = 1.935018 g / cm^3
# Si number density = 19.394320 Si / 1000 Ang^3
#
#
#
# Elastic Constant Matrix: (Units=GPa)
#
#
# Indices 1 2 3 4 5 6 
#
# 1 124.6958 40.8360 52.8343 0.0000 0.0000 0.0000
# 2 40.8360 77.0554 47.7283 0.0000 0.0000 0.0000
# 3 52.8343 47.7283 125.4969 -0.0001 0.0000 0.0000
# 4 0.0000 0.0000 -0.0001 7.7522 0.0000 0.0000
# 5 0.0000 0.0000 0.0000 0.0000 34.2275 0.0000
# 6 0.0000 0.0000 0.0000 0.0000 0.0000 15.8818
#
#
#
# Elastic Compliance Matrix: (Units=1/GPa)
#
#
# Indices 1 2 3 4 5 6 
#
# 1 0.010510 -0.003701 -0.003017 0.000000 0.000000 0.000000
# 2 -0.003701 0.018280 -0.005394 0.000000 0.000000 0.000000
# 3 -0.003017 -0.005394 0.011290 0.000000 0.000000 0.000000
# 4 0.000000 0.000000 0.000000 0.128996 0.000000 0.000000
# 5 0.000000 0.000000 0.000000 0.000000 0.029216 0.000000
# 6 0.000000 0.000000 0.000000 0.000000 0.000000 0.062965
#
#
# Mechanical properties :
#
#
# Convention : Reuss Voigt Hill
#
# Bulk Modulus (GPa) = 63.06909 67.78281 65.42595
# Shear Modulus (GPa) = 17.19588 23.96225 20.57907
#
# Velocity S-wave (km/s) = 2.98089 3.51882 3.26097
# Velocity P-wave (km/s) = 6.66615 7.17880 6.92722
#
# Compressibility (1/GPa) = 0.01585563
#
# Stress axis : x y z
#
# Youngs Moduli (GPa) = 95.14830 54.70421 88.57395
#
# Poissons Ratio (x) = 0.20246 0.26724
# Poissons Ratio (y) = 0.35214 0.47778
# Poissons Ratio (z) = 0.28708 0.29508
#
# Static dielectric constant tensor:
#      x y z
#    x 3.774830 0.000000 0.000000 
#    y 0.000000 3.115160 0.000000 
#    z 0.000000 0.000000 3.696380 
# 
# 
# High freq. dielectric constant tensor:
#      x y z
#    x 1.767180 0.000000 0.000000 
#    y 0.000000 1.696970 0.000000 
#    z 0.000000 0.000000 1.765280 
# 
# From -- ./inp_files/37187.got.cif
#   From: 2010.03.12/outbox.cif.g09.slc.cpg/sg72_19_cif.got.tgz:37187.got - 2010.04.16 14:54:00.
