data_PCOD8294987
_publ_section_title
;
Structure prediction by ZEFSAII (Michael W. Deem and Ramdas Pophale) SiO2 
 PCOD8294987
Probable space group: I B A M
;
_chemical_formula_sum "Si O2"
_cell_formula_units_Z 64
_cell_length_a 31.828669
_cell_length_b 9.196164
_cell_length_c 10.636261
_cell_angle_alpha 90.000000
_cell_angle_beta 90.000000
_cell_angle_gamma 90.000000
_cell_volume 3113.251251
_symmetry_space_group_name_H-M "I B A M"
_symmetry_group_IT_number 72
_symmetry_cell_setting 'orthorhombic'
loop_
_space_group_symop_operation_xyz
x,y,z
-x,-y,z
x,-y,1/2-z
-x,y,1/2-z
-x,-y,-z
x,y,-z
-x,y,1/2+z
x,-y,1/2+z
1/2+x,1/2+y,1/2+z
1/2-x,1/2-y,1/2+z
1/2+x,1/2-y,-z
1/2-x,1/2+y,-z
1/2-x,1/2-y,1/2-z
1/2+x,1/2+y,1/2-z
1/2-x,1/2+y,z
1/2+x,1/2-y,z
loop_
_atom_site_type_symbol
_atom_site_label
_atom_site_fract_x
_atom_site_fract_y
_atom_site_fract_z
Si Si1 0.022469 0.843957 0.863990
Si Si2 0.273685 0.610594 0.136650
Si Si3 0.619180 0.390846 0.641492
Si Si4 0.683434 0.840022 0.783562
O O1 0.071070 0.856206 0.829014
O O2 0.000000 0.754633 0.750000
O O3 0.016969 0.765810 0.000000
O O4 0.000000 0.000000 0.871227
O O5 0.283219 0.500000 0.250000
O O6 0.301566 0.755129 0.157667
O O7 0.224585 0.651086 0.128564
O O8 0.286360 0.544150 0.000000
O O9 0.636185 0.500000 0.750000
O O10 0.623250 0.457747 0.500000
O O11 0.645897 0.242950 0.646519
O O12 0.666519 0.000000 0.750000
#
# Coordination Sequence:
#
# PCOD8294987 Si02
#       4
#    16  16  16  16
#     4   9  16  30  53  82 111 141 181 232 286 336
#     4  10  22  41  63  84 111 152 201 246 289 341
#     4  11  22  36  58  88 119 150 191 241 290 344
#     4  10  23  38  57  84 118 156 195 238 290 347
#
# _framework density 20.557289000000001
#
# number of rings (size 3 to 8) (size 9 to 14) (size 15 to 20)
#    0.000    2.000    2.500    1.500    0.000   15.000 
#    0.000    0.000    0.000    0.750    0.000    3.500 
#    0.000    0.000    0.000    0.000    0.000    0.000 
#
# Total GULP energy -396456.042042 kJ/mol
# GULP energy per Si atom -12389.251314 kJ/mol
# Density = 2.051050 g / cm^3
# Si number density = 20.557289 Si / 1000 Ang^3
#
#
#
# Elastic Constant Matrix: (Units=GPa)
#
#
# Indices 1 2 3 4 5 6 
#
# 1 120.5393 41.6276 26.6416 0.0000 0.0000 0.0000
# 2 41.6276 93.7451 54.9710 0.0000 0.0000 0.0000
# 3 26.6416 54.9710 195.7932 0.0000 0.0000 0.0000
# 4 0.0000 0.0000 0.0000 19.4420 0.0000 0.0000
# 5 0.0000 0.0000 0.0000 0.0000 -49.9923 0.0000
# 6 0.0000 0.0000 0.0000 0.0000 0.0000 19.5487
#
#
#
# Elastic Compliance Matrix: (Units=1/GPa)
#
#
# Indices 1 2 3 4 5 6 
#
# 1 0.009802 -0.004274 -0.000134 0.000000 0.000000 0.000000
# 2 -0.004274 0.014633 -0.003527 0.000000 0.000000 0.000000
# 3 -0.000134 -0.003527 0.006116 0.000000 0.000000 0.000000
# 4 0.000000 0.000000 0.000000 0.051435 0.000000 0.000000
# 5 0.000000 0.000000 0.000000 0.000000 -0.020003 0.000000
# 6 0.000000 0.000000 0.000000 0.000000 0.000000 0.051154
#
#
# Mechanical properties :
#
#
# Convention : Reuss Voigt Hill
#
# Bulk Modulus (GPa) = 68.11313 72.95090 70.53201
# Shear Modulus (GPa) = 37.34137 16.92219 27.13178
#
# Velocity S-wave (km/s) = 4.26661 2.87221 3.63686
# Velocity P-wave (km/s) = 7.58137 6.82372 7.21250
#
# Compressibility (1/GPa) = 0.01468146
#
# Stress axis : x y z
#
# Youngs Moduli (GPa) = 102.02408 68.33771 163.51008
#
# Poissons Ratio (x) = 0.29208 0.02187
# Poissons Ratio (y) = 0.43605 0.57668
# Poissons Ratio (z) = 0.01364 0.24102
#
# Static dielectric constant tensor:
#      x y z
#    x 3.802190 0.000000 0.000000 
#    y 0.000000 3.378100 0.000000 
#    z 0.000000 0.000000 4.446340 
# 
# 
# High freq. dielectric constant tensor:
#      x y z
#    x 1.813270 0.000000 0.000000 
#    y 0.000000 1.747640 0.000000 
#    z 0.000000 0.000000 1.820250 
# 
# From -- ./inp_files/16596.got.cif
#   From: 2010.03.12/outbox.cif.g09.slc.cpg/sg72_9_cif.got.tgz:16596.got - 2010.04.16 14:54:00.
