data_PCOD8294973
_publ_section_title
;
Structure prediction by ZEFSAII (Michael W. Deem and Ramdas Pophale) SiO2 
 PCOD8294973
Probable space group: I B A M
;
_chemical_formula_sum "Si O2"
_cell_formula_units_Z 52
_cell_length_a 27.762343
_cell_length_b 4.693564
_cell_length_c 16.730829
_cell_angle_alpha 90.000000
_cell_angle_beta 90.000000
_cell_angle_gamma 90.000000
_cell_volume 2180.099524
_symmetry_space_group_name_H-M "I B A M"
_symmetry_group_IT_number 72
_symmetry_cell_setting 'orthorhombic'
loop_
_space_group_symop_operation_xyz
x,y,z
-x,-y,z
x,-y,1/2-z
-x,y,1/2-z
-x,-y,-z
x,y,-z
-x,y,1/2+z
x,-y,1/2+z
1/2+x,1/2+y,1/2+z
1/2-x,1/2-y,1/2+z
1/2+x,1/2-y,-z
1/2-x,1/2+y,-z
1/2-x,1/2-y,1/2-z
1/2+x,1/2+y,1/2-z
1/2-x,1/2+y,z
1/2+x,1/2-y,z
loop_
_atom_site_type_symbol
_atom_site_label
_atom_site_fract_x
_atom_site_fract_y
_atom_site_fract_z
Si Si1 0.718240 0.497747 0.156887
Si Si2 0.125505 0.299151 0.909320
Si Si3 0.500000 0.000000 0.750000
Si Si4 0.415840 0.327955 0.826122
O O1 0.705466 0.500000 0.250000
O O2 0.733552 0.817738 0.134227
O O3 0.673288 0.384404 0.106892
O O4 0.120262 0.572031 0.850942
O O5 0.081592 0.072626 0.894513
O O6 0.123742 0.408531 0.000000
O O7 0.531788 0.798806 0.806984
O O8 0.393992 0.500000 0.750000
#
# Coordination Sequence:
#
# PCOD8294973 Si02
#       4
#    16  16   4  16
#     4  10  22  40  66 101 142 189 243 287 328 402
#     4  12  26  44  70 109 149 189 230 291 369 419
#     4  12  26  48  80 104 122 184 252 288 358 424
#     4  12  25  46  76 102 135 182 246 289 347 432
#
# _framework density 23.852121
#
# number of rings (size 3 to 8) (size 9 to 14) (size 15 to 20)
#    0.000    0.615    3.077    4.154    0.000    6.154 
#    0.000    4.615    0.000    0.000    0.000    0.000 
#    0.000    0.000    0.000    0.000    0.000    0.000 
#
# Total GULP energy -322213.427847 kJ/mol
# GULP energy per Si atom -12392.824148 kJ/mol
# Density = 2.379783 g / cm^3
# Si number density = 23.852121 Si / 1000 Ang^3
#
#
#
# Elastic Constant Matrix: (Units=GPa)
#
#
# Indices 1 2 3 4 5 6 
#
# 1 97.1405 35.0608 54.7966 0.0000 0.0000 0.0000
# 2 35.0608 137.7006 54.0500 0.0000 0.0000 0.0000
# 3 54.7966 54.0500 116.5930 0.0000 0.0000 0.0000
# 4 0.0000 0.0000 0.0000 38.8440 0.0000 0.0000
# 5 0.0000 0.0000 0.0000 0.0000 13.5537 0.0000
# 6 0.0000 0.0000 0.0000 0.0000 0.0000 13.3970
#
#
#
# Elastic Compliance Matrix: (Units=1/GPa)
#
#
# Indices 1 2 3 4 5 6 
#
# 1 0.014173 -0.001215 -0.006098 0.000000 0.000000 0.000000
# 2 -0.001215 0.008982 -0.003593 0.000000 0.000000 0.000000
# 3 -0.006098 -0.003593 0.013108 0.000000 0.000000 0.000000
# 4 0.000000 0.000000 0.000000 0.025744 0.000000 0.000000
# 5 0.000000 0.000000 0.000000 0.000000 0.073781 0.000000
# 6 0.000000 0.000000 0.000000 0.000000 0.000000 0.074644
#
#
# Mechanical properties :
#
#
# Convention : Reuss Voigt Hill
#
# Bulk Modulus (GPa) = 69.19614 71.02765 70.11189
# Shear Modulus (GPa) = 21.09183 26.99404 24.04294
#
# Velocity S-wave (km/s) = 2.97690 3.36776 3.17835
# Velocity P-wave (km/s) = 6.39448 6.70562 6.55190
#
# Compressibility (1/GPa) = 0.01445167
#
# Stress axis : x y z
#
# Youngs Moduli (GPa) = 70.55904 111.33752 76.28919
#
# Poissons Ratio (x) = 0.13529 0.46517
# Poissons Ratio (y) = 0.08574 0.27408
# Poissons Ratio (z) = 0.43023 0.39999
#
# Static dielectric constant tensor:
#      x y z
#    x 4.054440 0.000000 0.000000 
#    y 0.000000 4.904280 0.000000 
#    z 0.000000 0.000000 4.075160 
# 
# 
# High freq. dielectric constant tensor:
#      x y z
#    x 1.932830 0.000000 0.000000 
#    y 0.000000 1.983960 0.000000 
#    z 0.000000 0.000000 1.910830 
# 
# From -- ./inp_files/33610.got.cif
#   From: 2010.03.12/outbox.cif.g09.slc.cpg/sg72_17_cif.got.tgz:33610.got - 2010.04.16 14:54:00.
