data_PCOD8294517
_publ_section_title
;
Structure prediction by ZEFSAII (Michael W. Deem and Ramdas Pophale) SiO2 
 PCOD8294517
Probable space group: I B A M
;
_chemical_formula_sum "Si O2"
_cell_formula_units_Z 104
_cell_length_a 18.321570
_cell_length_b 21.179891
_cell_length_c 14.329579
_cell_angle_alpha 90.000000
_cell_angle_beta 90.000000
_cell_angle_gamma 90.000000
_cell_volume 5560.576731
_symmetry_space_group_name_H-M "I B A M"
_symmetry_group_IT_number 72
_symmetry_cell_setting 'orthorhombic'
loop_
_space_group_symop_operation_xyz
x,y,z
-x,-y,z
x,-y,1/2-z
-x,y,1/2-z
-x,-y,-z
x,y,-z
-x,y,1/2+z
x,-y,1/2+z
1/2+x,1/2+y,1/2+z
1/2-x,1/2-y,1/2+z
1/2+x,1/2-y,-z
1/2-x,1/2+y,-z
1/2-x,1/2-y,1/2-z
1/2+x,1/2+y,1/2-z
1/2-x,1/2+y,z
1/2+x,1/2-y,z
loop_
_atom_site_type_symbol
_atom_site_label
_atom_site_fract_x
_atom_site_fract_y
_atom_site_fract_z
Si Si1 0.352949 0.714058 0.896118
Si Si2 0.275840 0.312684 0.899366
Si Si3 0.690582 0.000000 0.750000
Si Si4 0.129733 0.298211 0.391979
Si Si5 0.930720 0.456277 0.389988
Si Si6 0.254589 0.626552 0.210402
Si Si7 0.032646 0.314252 0.110873
O O1 0.281557 0.756274 0.900425
O O2 0.329951 0.651884 0.836562
O O3 0.416142 0.757526 0.848836
O O4 0.375533 0.691406 0.000000
O O5 0.352168 0.276231 0.882431
O O6 0.258717 0.362650 0.821023
O O7 0.275245 0.347739 0.000000
O O8 0.640665 0.977106 0.665010
O O9 0.744187 0.948207 0.796444
O O10 0.133977 0.320716 0.500000
O O11 0.182901 0.341101 0.331167
O O12 0.048866 0.306029 0.350287
O O13 0.915559 0.462519 0.500000
O O14 0.942337 0.383833 0.359232
O O15 0.000000 0.500000 0.362123
O O16 0.035479 0.308046 0.000000
#
# Coordination Sequence:
#
# PCOD8294517 Si02
#       7
#    16  16   8  16  16  16  16
#     4   9  17  31  52  75 100 127 160 209 262 308
#     4   9  18  33  50  69  96 130 166 207 255 301
#     4  12  25  34  48  70  97 138 186 214 238 298
#     4   9  17  31  54  81 106 129 158 201 253 310
#     4  10  21  36  51  71 106 144 172 203 245 298
#     4  11  21  34  48  70 101 136 174 213 256 298
#     4   9  17  31  53  81 108 134 165 203 253 311
#
# _framework density 18.703097
#
# number of rings (size 3 to 8) (size 9 to 14) (size 15 to 20)
#    0.000    2.308    0.000    5.308    0.000    4.308 
#    0.000    6.154    0.000    0.000    0.000    2.154 
#    0.000    4.923    0.000    0.000    0.000    0.000 
#
# Total GULP energy -644477.482031 kJ/mol
# GULP energy per Si atom -12393.797731 kJ/mol
# Density = 1.866053 g / cm^3
# Si number density = 18.703097 Si / 1000 Ang^3
#
#
#
# Elastic Constant Matrix: (Units=GPa)
#
#
# Indices 1 2 3 4 5 6 
#
# 1 78.1366 71.7109 37.1872 0.0000 0.0000 0.0000
# 2 71.7109 106.3705 46.3635 0.0000 0.0000 0.0000
# 3 37.1872 46.3635 76.6349 0.0000 0.0000 0.0000
# 4 0.0000 0.0000 0.0000 16.0833 0.0000 0.0000
# 5 0.0000 0.0000 0.0000 0.0000 358.0225 0.0000
# 6 0.0000 0.0000 0.0000 0.0000 0.0000 30.6435
#
#
#
# Elastic Compliance Matrix: (Units=1/GPa)
#
#
# Indices 1 2 3 4 5 6 
#
# 1 0.034284 -0.021542 -0.003603 0.000000 0.000000 0.000000
# 2 -0.021542 0.026304 -0.005460 0.000000 0.000000 0.000000
# 3 -0.003603 -0.005460 0.018101 0.000000 0.000000 0.000000
# 4 0.000000 0.000000 0.000000 0.062176 0.000000 0.000000
# 5 0.000000 0.000000 0.000000 0.000000 0.002793 0.000000
# 6 0.000000 0.000000 0.000000 0.000000 0.000000 0.032633
#
#
# Mechanical properties :
#
#
# Convention : Reuss Voigt Hill
#
# Bulk Modulus (GPa) = 57.21868 63.51837 60.36853
# Shear Modulus (GPa) = 20.54839 88.00856 54.27848
#
# Velocity S-wave (km/s) = 3.31820 6.86715 5.39297
# Velocity P-wave (km/s) = 6.73351 9.84440 8.43363
#
# Compressibility (1/GPa) = 0.01747681
#
# Stress axis : x y z
#
# Youngs Moduli (GPa) = 29.16853 38.01715 55.24585
#
# Poissons Ratio (x) = 0.81897 0.19907
# Poissons Ratio (y) = 0.62835 0.30166
# Poissons Ratio (z) = 0.10510 0.20759
#
# Static dielectric constant tensor:
#      x y z
#    x 3.561810 0.000000 0.000000 
#    y 0.000000 3.363120 0.000000 
#    z 0.000000 0.000000 3.569410 
# 
# 
# High freq. dielectric constant tensor:
#      x y z
#    x 1.706310 0.000000 0.000000 
#    y 0.000000 1.692090 0.000000 
#    z 0.000000 0.000000 1.740830 
# 
# From -- ./inp_files/23486.got.cif
#   From: 2010.03.12/outbox.cif.g09.slc.cpg/sg72_12_cif.got.tgz:23486.got - 2010.04.16 14:54:00.
