data_PCOD8294412
_publ_section_title
;
Structure prediction by ZEFSAII (Michael W. Deem and Ramdas Pophale) SiO2 
 PCOD8294412
Probable space group: I B A M
;
_chemical_formula_sum "Si O2"
_cell_formula_units_Z 88
_cell_length_a 16.405475
_cell_length_b 9.723948
_cell_length_c 24.269424
_cell_angle_alpha 90.000000
_cell_angle_beta 90.000000
_cell_angle_gamma 90.000000
_cell_volume 3871.603789
_symmetry_space_group_name_H-M "I B A M"
_symmetry_group_IT_number 72
_symmetry_cell_setting 'orthorhombic'
loop_
_space_group_symop_operation_xyz
x,y,z
-x,-y,z
x,-y,1/2-z
-x,y,1/2-z
-x,-y,-z
x,y,-z
-x,y,1/2+z
x,-y,1/2+z
1/2+x,1/2+y,1/2+z
1/2-x,1/2-y,1/2+z
1/2+x,1/2-y,-z
1/2-x,1/2+y,-z
1/2-x,1/2-y,1/2-z
1/2+x,1/2+y,1/2-z
1/2-x,1/2+y,z
1/2+x,1/2-y,z
loop_
_atom_site_type_symbol
_atom_site_label
_atom_site_fract_x
_atom_site_fract_y
_atom_site_fract_z
Si Si1 0.698587 0.935222 0.691522
Si Si2 0.918122 0.397026 0.115576
Si Si3 0.140027 0.541567 0.000000
Si Si4 0.000000 0.000000 0.659945
Si Si5 0.539696 0.793040 0.695636
Si Si6 0.778349 0.156675 0.000000
Si Si7 0.347631 0.602441 0.387225
O O1 0.638180 0.803053 0.698932
O O2 0.780099 0.890246 0.660639
O O3 0.723224 0.000000 0.750000
O O4 0.650763 0.045726 0.655645
O O5 0.917125 0.460533 0.054219
O O6 0.896863 0.240238 0.109301
O O7 0.010096 0.387257 0.142725
O O8 0.201771 0.678259 0.000000
O O9 0.183963 0.391642 0.000000
O O10 0.083457 0.988153 0.624643
O O11 0.995852 0.138413 0.695965
O O12 0.500000 0.861970 0.750000
O O13 0.810573 0.074699 0.053170
#
# Coordination Sequence:
#
# PCOD8294412 Si02
#       7
#    16  16   8   8  16   8  16
#     4  12  24  38  67  94 129 171 220 265 323 389
#     4  10  22  41  62  95 131 166 215 263 325 382
#     4  10  20  40  66  95 135 168 214 279 319 393
#     4  10  25  45  64  94 134 169 221 268 332 392
#     4  11  23  42  66  92 131 175 213 268 326 390
#     4  10  20  39  67  92 130 169 219 273 333 383
#     4  10  24  42  65  96 128 173 215 273 325 393
#
# _framework density 22.729596999999998
#
# number of rings (size 3 to 8) (size 9 to 14) (size 15 to 20)
#    0.000    1.455    3.636    0.818    2.545    4.000 
#    0.000    3.636    0.000    0.000    0.000    0.000 
#    0.000    0.000    0.000    0.000    0.000    0.000 
#
# Total GULP energy -545182.059344 kJ/mol
# GULP energy per Si atom -12390.501349 kJ/mol
# Density = 2.267786 g / cm^3
# Si number density = 22.729597 Si / 1000 Ang^3
#
#
#
# Elastic Constant Matrix: (Units=GPa)
#
#
# Indices 1 2 3 4 5 6 
#
# 1 126.2962 6.5969 40.9208 0.0000 0.0000 0.0000
# 2 6.5969 52.8670 13.0809 0.0000 0.0000 0.0000
# 3 40.9208 13.0809 161.0514 0.0000 0.0000 0.0000
# 4 0.0000 0.0000 0.0000 62.6190 0.0000 0.0000
# 5 0.0000 0.0000 0.0000 0.0000 -1.8088 0.0000
# 6 0.0000 0.0000 0.0000 0.0000 0.0000 16.8273
#
#
#
# Elastic Compliance Matrix: (Units=1/GPa)
#
#
# Indices 1 2 3 4 5 6 
#
# 1 0.008644 -0.000546 -0.002152 0.000000 0.000000 0.000000
# 2 -0.000546 0.019338 -0.001432 0.000000 0.000000 0.000000
# 3 -0.002152 -0.001432 0.006872 0.000000 0.000000 0.000000
# 4 0.000000 0.000000 0.000000 0.015970 0.000000 0.000000
# 5 0.000000 0.000000 0.000000 0.000000 -0.552847 0.000000
# 6 0.000000 0.000000 0.000000 0.000000 0.000000 0.059427
#
#
# Mechanical properties :
#
#
# Convention : Reuss Voigt Hill
#
# Bulk Modulus (GPa) = 37.60254 51.26797 44.43526
# Shear Modulus (GPa) = -11.75165 34.16857 11.20846
#
# Velocity S-wave (km/s) = -2.27627 3.88140 2.22304
# Velocity P-wave (km/s) = 3.10979 6.53388 5.11676
#
# Compressibility (1/GPa) = 0.02659394
#
# Stress axis : x y z
#
# Youngs Moduli (GPa) = 115.69203 51.71212 145.51264
#
# Poissons Ratio (x) = 0.02824 0.31312
# Poissons Ratio (y) = 0.06318 0.20836
# Poissons Ratio (z) = 0.24895 0.07405
#
# Static dielectric constant tensor:
#      x y z
#    x 4.534860 0.000000 0.000000 
#    y 0.000000 4.001020 0.000000 
#    z 0.000000 0.000000 5.164750 
# 
# 
# High freq. dielectric constant tensor:
#      x y z
#    x 1.895510 0.000000 0.000000 
#    y 0.000000 1.898740 0.000000 
#    z 0.000000 0.000000 1.908590 
# 
# From -- ./inp_files/44174.got.cif
#   From: 2010.03.12/outbox.cif.g09.slc.cpg/sg72_23_cif.got.tgz:44174.got - 2010.04.16 14:54:00.
