data_PCOD8294697
_publ_section_title
;
Structure prediction by ZEFSAII (Michael W. Deem and Ramdas Pophale) SiO2 
 PCOD8294697
Probable space group: I B A M
;
_chemical_formula_sum "Si O2"
_cell_formula_units_Z 56
_cell_length_a 4.991273
_cell_length_b 25.020701
_cell_length_c 22.114294
_cell_angle_alpha 90.000000
_cell_angle_beta 90.000000
_cell_angle_gamma 90.000000
_cell_volume 2761.746909
_symmetry_space_group_name_H-M "I B A M"
_symmetry_group_IT_number 72
_symmetry_cell_setting 'orthorhombic'
loop_
_space_group_symop_operation_xyz
x,y,z
-x,-y,z
x,-y,1/2-z
-x,y,1/2-z
-x,-y,-z
x,y,-z
-x,y,1/2+z
x,-y,1/2+z
1/2+x,1/2+y,1/2+z
1/2-x,1/2-y,1/2+z
1/2+x,1/2-y,-z
1/2-x,1/2+y,-z
1/2-x,1/2-y,1/2-z
1/2+x,1/2+y,1/2-z
1/2-x,1/2+y,z
1/2+x,1/2-y,z
loop_
_atom_site_type_symbol
_atom_site_label
_atom_site_fract_x
_atom_site_fract_y
_atom_site_fract_z
Si Si1 0.037953 0.284506 0.070318
Si Si2 0.405433 0.102259 0.619131
Si Si3 0.259710 0.961560 0.000000
Si Si4 0.566596 0.558172 0.679767
O O1 0.822910 0.239851 0.088025
O O2 0.986579 0.338366 0.107568
O O3 0.016424 0.299220 0.000000
O O4 0.294855 0.075547 0.558115
O O5 0.631707 0.071004 0.657818
O O6 0.135275 0.104262 0.658033
O O7 0.500000 0.000000 0.000000
O O8 0.000000 0.000000 0.000000
O O9 0.500000 0.500000 0.650794
O O10 0.500000 0.554738 0.750000
#
# Coordination Sequence:
#
# PCOD8294697 Si02
#       4
#    16  16   8  16
#     4  10  21  38  61  89 121 158 205 250 305 378
#     4  12  22  40  63  90 125 161 204 259 316 369
#     4  12  24  36  56  94 132 160 190 248 325 384
#     4  11  24  41  63  88 121 168 216 252 297 373
#
# _framework density 20.27702
#
# number of rings (size 3 to 8) (size 9 to 14) (size 15 to 20)
#    0.000    0.857    1.429    7.714    0.000    2.286 
#    0.000    0.000    0.000   17.143    0.000    0.000 
#    0.000    0.000    0.000    0.000    0.000    0.000 
#
# Total GULP energy -346973.408865 kJ/mol
# GULP energy per Si atom -12391.907459 kJ/mol
# Density = 2.023087 g / cm^3
# Si number density = 20.277020 Si / 1000 Ang^3
#
#
#
# Elastic Constant Matrix: (Units=GPa)
#
#
# Indices 1 2 3 4 5 6 
#
# 1 120.6775 19.4392 34.6481 0.0000 0.0000 0.0000
# 2 19.4392 104.5311 33.5449 0.0000 0.0000 0.0000
# 3 34.6481 33.5449 82.1254 0.0000 0.0000 0.0000
# 4 0.0000 0.0000 0.0000 21.7577 0.0000 0.0000
# 5 0.0000 0.0000 0.0000 0.0000 28.9805 0.0000
# 6 0.0000 0.0000 0.0000 0.0000 0.0000 17.3037
#
#
#
# Elastic Compliance Matrix: (Units=1/GPa)
#
#
# Indices 1 2 3 4 5 6 
#
# 1 0.009456 -0.000550 -0.003765 0.000000 0.000000 0.000000
# 2 -0.000550 0.011042 -0.004278 0.000000 0.000000 0.000000
# 3 -0.003765 -0.004278 0.015512 0.000000 0.000000 0.000000
# 4 0.000000 0.000000 0.000000 0.045961 0.000000 0.000000
# 5 0.000000 0.000000 0.000000 0.000000 0.034506 0.000000
# 6 0.000000 0.000000 0.000000 0.000000 0.000000 0.057791
#
#
# Mechanical properties :
#
#
# Convention : Reuss Voigt Hill
#
# Bulk Modulus (GPa) = 53.12349 53.62204 53.37277
# Shear Modulus (GPa) = 25.28726 28.25518 26.77122
#
# Velocity S-wave (km/s) = 3.53525 3.73696 3.63750
# Velocity P-wave (km/s) = 6.55131 6.71729 6.63482
#
# Compressibility (1/GPa) = 0.01882406
#
# Stress axis : x y z
#
# Youngs Moduli (GPa) = 105.75200 90.56581 64.46576
#
# Poissons Ratio (x) = 0.04985 0.24269
# Poissons Ratio (y) = 0.05821 0.27578
# Poissons Ratio (z) = 0.39812 0.38743
#
# Static dielectric constant tensor:
#      x y z
#    x 3.810330 0.000000 0.000000 
#    y 0.000000 3.658600 0.000000 
#    z 0.000000 0.000000 3.674320 
# 
# 
# High freq. dielectric constant tensor:
#      x y z
#    x 1.810740 0.000000 0.000000 
#    y 0.000000 1.790130 0.000000 
#    z 0.000000 0.000000 1.784870 
# 
# From -- ./inp_files/34657.got.cif
#   From: 2010.03.12/outbox.cif.g09.slc.cpg/sg72_18_cif.got.tgz:34657.got - 2010.04.16 14:54:00.
