data_PCOD8294402
_publ_section_title
;
Structure prediction by ZEFSAII (Michael W. Deem and Ramdas Pophale) SiO2 
 PCOD8294402
Probable space group: I B A M
;
_chemical_formula_sum "Si O2"
_cell_formula_units_Z 88
_cell_length_a 16.082692
_cell_length_b 11.641969
_cell_length_c 22.721051
_cell_angle_alpha 90.000000
_cell_angle_beta 90.000000
_cell_angle_gamma 90.000000
_cell_volume 4254.157846
_symmetry_space_group_name_H-M "I B A M"
_symmetry_group_IT_number 72
_symmetry_cell_setting 'orthorhombic'
loop_
_space_group_symop_operation_xyz
x,y,z
-x,-y,z
x,-y,1/2-z
-x,y,1/2-z
-x,-y,-z
x,y,-z
-x,y,1/2+z
x,-y,1/2+z
1/2+x,1/2+y,1/2+z
1/2-x,1/2-y,1/2+z
1/2+x,1/2-y,-z
1/2-x,1/2+y,-z
1/2-x,1/2-y,1/2-z
1/2+x,1/2+y,1/2-z
1/2-x,1/2+y,z
1/2+x,1/2-y,z
loop_
_atom_site_type_symbol
_atom_site_label
_atom_site_fract_x
_atom_site_fract_y
_atom_site_fract_z
Si Si1 0.143074 0.947190 0.500000
Si Si2 0.430528 0.202827 0.500000
Si Si3 0.358354 0.746226 0.315557
Si Si4 0.695883 0.612140 0.288614
Si Si5 0.954371 0.381815 0.097235
Si Si6 0.594083 0.520219 0.123331
Si Si7 0.838429 0.464625 0.000000
O O1 0.127957 0.811936 0.500000
O O2 0.240471 0.968166 0.500000
O O3 0.098760 0.008683 0.553932
O O4 0.486693 0.202628 0.559244
O O5 0.372051 0.093113 0.500000
O O6 0.366985 0.691738 0.250322
O O7 0.272222 0.815261 0.314034
O O8 0.431356 0.830638 0.338379
O O9 0.362798 0.641400 0.361552
O O10 0.724047 0.500000 0.250000
O O11 0.646403 0.579973 0.346475
O O12 0.871010 0.401611 0.058877
O O13 0.000000 0.500000 0.110392
O O14 0.500000 0.500000 0.145406
#
# Coordination Sequence:
#
# PCOD8294402 Si02
#       7
#     8   8  16  16  16  16   8
#     4  12  23  36  59  91 117 152 204 238 281 360
#     4   9  20  38  56  84 122 156 192 247 299 350
#     4  10  20  39  63  85 116 159 195 247 299 340
#     4   9  21  41  63  87 118 157 202 240 290 357
#     4   9  18  37  61  86 118 153 195 244 302 356
#     4  11  24  40  59  88 124 157 196 245 300 357
#     4   9  20  34  55  85 120 158 192 239 304 358
#
# _framework density 20.685645000000001
#
# number of rings (size 3 to 8) (size 9 to 14) (size 15 to 20)
#    0.000    2.182    0.000    3.545    0.000    7.636 
#    0.000   14.545    0.000    0.000    0.000    0.000 
#    0.000    0.000    0.000    0.000    0.000    0.000 
#
# Total GULP energy -545305.534184 kJ/mol
# GULP energy per Si atom -12393.307595 kJ/mol
# Density = 2.063856 g / cm^3
# Si number density = 20.685645 Si / 1000 Ang^3
#
#
#
# Elastic Constant Matrix: (Units=GPa)
#
#
# Indices 1 2 3 4 5 6 
#
# 1 94.6355 42.3732 39.1449 0.0000 0.0000 0.0000
# 2 42.3732 90.9093 53.9959 0.0000 0.0000 0.0000
# 3 39.1449 53.9959 115.5160 0.0000 0.0000 0.0000
# 4 0.0000 0.0000 0.0000 25.7880 0.0000 0.0000
# 5 0.0000 0.0000 0.0000 0.0000 35.1984 0.0000
# 6 0.0000 0.0000 0.0000 0.0000 0.0000 29.2282
#
#
#
# Elastic Compliance Matrix: (Units=1/GPa)
#
#
# Indices 1 2 3 4 5 6 
#
# 1 0.013785 -0.005054 -0.002309 0.000000 0.000000 0.000000
# 2 -0.005054 0.017080 -0.006271 0.000000 0.000000 0.000000
# 3 -0.002309 -0.006271 0.012371 0.000000 0.000000 0.000000
# 4 0.000000 0.000000 0.000000 0.038778 0.000000 0.000000
# 5 0.000000 0.000000 0.000000 0.000000 0.028410 0.000000
# 6 0.000000 0.000000 0.000000 0.000000 0.000000 0.034213
#
#
# Mechanical properties :
#
#
# Convention : Reuss Voigt Hill
#
# Bulk Modulus (GPa) = 62.62627 63.56543 63.09585
# Shear Modulus (GPa) = 28.21221 29.07938 28.64580
#
# Velocity S-wave (km/s) = 3.69705 3.75344 3.72535
# Velocity P-wave (km/s) = 6.96887 7.04133 7.00519
#
# Compressibility (1/GPa) = 0.01596774
#
# Stress axis : x y z
#
# Youngs Moduli (GPa) = 72.54389 58.54643 80.83610
#
# Poissons Ratio (x) = 0.29588 0.18665
# Poissons Ratio (y) = 0.36662 0.50696
# Poissons Ratio (z) = 0.16750 0.36717
#
# Static dielectric constant tensor:
#      x y z
#    x 3.684400 0.000000 0.000000 
#    y 0.000000 3.884900 0.000000 
#    z 0.000000 0.000000 3.873990 
# 
# 
# High freq. dielectric constant tensor:
#      x y z
#    x 1.800120 0.000000 0.000000 
#    y 0.000000 1.821440 0.000000 
#    z 0.000000 0.000000 1.809100 
# 
# From -- ./inp_files/44179.got.cif
#   From: 2010.03.12/outbox.cif.g09.slc.cpg/sg72_23_cif.got.tgz:44179.got - 2010.04.16 14:54:00.
