data_PCOD8294679
_publ_section_title
;
Structure prediction by ZEFSAII (Michael W. Deem and Ramdas Pophale) SiO2 
 PCOD8294679
Probable space group: I B A M
;
_chemical_formula_sum "Si O2"
_cell_formula_units_Z 116
_cell_length_a 26.348538
_cell_length_b 24.746831
_cell_length_c 8.540687
_cell_angle_alpha 90.000000
_cell_angle_beta 90.000000
_cell_angle_gamma 90.000000
_cell_volume 5568.893610
_symmetry_space_group_name_H-M "I B A M"
_symmetry_group_IT_number 72
_symmetry_cell_setting 'orthorhombic'
loop_
_space_group_symop_operation_xyz
x,y,z
-x,-y,z
x,-y,1/2-z
-x,y,1/2-z
-x,-y,-z
x,y,-z
-x,y,1/2+z
x,-y,1/2+z
1/2+x,1/2+y,1/2+z
1/2-x,1/2-y,1/2+z
1/2+x,1/2-y,-z
1/2-x,1/2+y,-z
1/2-x,1/2-y,1/2-z
1/2+x,1/2+y,1/2-z
1/2-x,1/2+y,z
1/2+x,1/2-y,z
loop_
_atom_site_type_symbol
_atom_site_label
_atom_site_fract_x
_atom_site_fract_y
_atom_site_fract_z
Si Si1 0.404261 0.702215 0.817405
Si Si2 0.693902 0.254598 0.318401
Si Si3 0.054076 0.689731 0.184030
Si Si4 0.287966 0.940889 0.679627
Si Si5 0.076443 0.905429 0.172084
Si Si6 0.850660 0.650420 0.819697
Si Si7 0.177094 0.056553 0.821080
Si Si8 0.500000 0.500000 0.250000
O O1 0.344080 0.701914 0.767361
O O2 0.432881 0.747904 0.720374
O O3 0.434189 0.645127 0.787435
O O4 0.407874 0.715215 0.000000
O O5 0.696623 0.270596 0.500000
O O6 0.750000 0.250000 0.250000
O O7 0.671059 0.195355 0.297405
O O8 0.090089 0.648078 0.277409
O O9 0.000000 0.674917 0.250000
O O10 0.057376 0.679961 0.000000
O O11 0.306216 0.942287 0.500000
O O12 0.325450 0.906569 0.786122
O O13 0.231478 0.913086 0.687602
O O14 0.289592 0.000000 0.750000
O O15 0.133546 0.921465 0.210766
O O16 0.038188 0.957414 0.167268
O O17 0.075674 0.880663 0.000000
O O18 0.842008 0.667049 0.000000
O O19 0.192152 0.000000 0.750000
O O20 0.156693 0.054004 0.000000
#
# Coordination Sequence:
#
# PCOD8294679 Si02
#       8
#    16  16  16  16  16  16  16   4
#     4  11  24  42  63  90 123 160 207 259 317 383
#     4  11  22  39  61  90 127 165 206 255 316 382
#     4  11  22  41  66  93 125 161 206 255 309 369
#     4  10  21  38  61  92 128 167 209 255 307 367
#     4  12  26  44  65  87 118 157 208 266 329 387
#     4  11  22  38  61  92 127 165 208 254 309 372
#     4  10  21  38  60  85 116 153 201 251 307 371
#     4  12  30  48  68  90 122 160 222 280 346 392
#
# _framework density 20.829991
#
# number of rings (size 3 to 8) (size 9 to 14) (size 15 to 20)
#    0.000    1.103    0.690    8.069    2.897    3.310 
#    0.000    0.000    0.000    0.414    0.000    2.897 
#    0.000    0.000    0.000    0.000    0.000    0.000 
#
# Total GULP energy -718598.925336 kJ/mol
# GULP energy per Si atom -12389.636644 kJ/mol
# Density = 2.078258 g / cm^3
# Si number density = 20.829991 Si / 1000 Ang^3
#
#
#
# Elastic Constant Matrix: (Units=GPa)
#
#
# Indices 1 2 3 4 5 6 
#
# 1 115.9055 35.3748 27.7044 0.0000 0.0000 0.0000
# 2 35.3748 75.2658 13.1630 0.0000 0.0000 0.0000
# 3 27.7044 13.1630 116.2240 0.0000 0.0000 0.0000
# 4 0.0000 0.0000 0.0000 30.1367 0.0000 0.0000
# 5 0.0000 0.0000 0.0000 0.0000 -0.4580 0.0000
# 6 0.0000 0.0000 0.0000 0.0000 0.0000 35.8085
#
#
#
# Elastic Compliance Matrix: (Units=1/GPa)
#
#
# Indices 1 2 3 4 5 6 
#
# 1 0.010503 -0.004589 -0.001984 0.000000 0.000000 0.000000
# 2 -0.004589 0.015560 -0.000668 0.000000 0.000000 0.000000
# 3 -0.001984 -0.000668 0.009153 0.000000 0.000000 0.000000
# 4 0.000000 0.000000 0.000000 0.033182 0.000000 0.000000
# 5 0.000000 0.000000 0.000000 0.000000 -2.183437 0.000000
# 6 0.000000 0.000000 0.000000 0.000000 0.000000 0.027926
#
#
# Mechanical properties :
#
#
# Convention : Reuss Voigt Hill
#
# Bulk Modulus (GPa) = 48.23316 51.09775 49.66546
# Shear Modulus (GPa) = -2.42046 28.50764 13.04359
#
# Velocity S-wave (km/s) = -1.07913 3.70345 2.50510
# Velocity P-wave (km/s) = 4.65330 6.54764 5.68000
#
# Compressibility (1/GPa) = 0.02073262
#
# Stress axis : x y z
#
# Youngs Moduli (GPa) = 95.21509 64.26703 109.25819
#
# Poissons Ratio (x) = 0.29494 0.21674
# Poissons Ratio (y) = 0.43697 0.07302
# Poissons Ratio (z) = 0.18888 0.04295
#
# Static dielectric constant tensor:
#      x y z
#    x 4.066730 0.000000 0.000000 
#    y 0.000000 3.578090 0.000000 
#    z 0.000000 0.000000 3.788440 
# 
# 
# High freq. dielectric constant tensor:
#      x y z
#    x 1.822780 0.000000 0.000000 
#    y 0.000000 1.793860 0.000000 
#    z 0.000000 0.000000 1.828490 
# 
# From -- ./inp_files/8420.got.cif
#   From: 2010.03.12/outbox.cif.g09.slc.cpg/sg72_5_cif.got.tgz:8420.got - 2010.04.16 14:54:00.
