data_PCOD8294789
_publ_section_title
;
Structure prediction by ZEFSAII (Michael W. Deem and Ramdas Pophale) SiO2 
 PCOD8294789
Probable space group: I B A M
;
_chemical_formula_sum "Si O2"
_cell_formula_units_Z 60
_cell_length_a 4.921559
_cell_length_b 22.840806
_cell_length_c 21.022971
_cell_angle_alpha 90.000000
_cell_angle_beta 90.000000
_cell_angle_gamma 90.000000
_cell_volume 2363.242086
_symmetry_space_group_name_H-M "I B A M"
_symmetry_group_IT_number 72
_symmetry_cell_setting 'orthorhombic'
loop_
_space_group_symop_operation_xyz
x,y,z
-x,-y,z
x,-y,1/2-z
-x,y,1/2-z
-x,-y,-z
x,y,-z
-x,y,1/2+z
x,-y,1/2+z
1/2+x,1/2+y,1/2+z
1/2-x,1/2-y,1/2+z
1/2+x,1/2-y,-z
1/2-x,1/2+y,-z
1/2-x,1/2-y,1/2-z
1/2+x,1/2+y,1/2-z
1/2-x,1/2+y,z
1/2+x,1/2-y,z
loop_
_atom_site_type_symbol
_atom_site_label
_atom_site_fract_x
_atom_site_fract_y
_atom_site_fract_z
Si Si1 0.122066 0.064340 0.928634
Si Si2 0.555538 0.213479 0.000000
Si Si3 0.537674 0.789989 0.139085
Si Si4 0.135541 0.589643 0.650703
Si Si5 0.500000 0.000000 0.250000
O O1 0.417434 0.061788 0.897510
O O2 0.918590 0.103186 0.885481
O O3 0.140853 0.090570 0.000000
O O4 0.000000 0.000000 0.930668
O O5 0.477653 0.182511 0.066647
O O6 0.376771 0.273514 0.000000
O O7 0.832182 0.763404 0.152772
O O8 0.472966 0.848083 0.180074
O O9 0.187958 0.542872 0.707243
#
# Coordination Sequence:
#
# PCOD8294789 Si02
#       5
#    16   8  16  16   4
#     4  11  23  42  67 103 139 176 225 283 355 417
#     4   8  16  30  54  83 124 165 200 250 310 398
#     4  10  21  40  61  97 137 176 222 267 340 408
#     4  12  25  44  71  98 142 182 226 292 329 419
#     4  12  28  50  70 102 128 186 248 282 352 382
#
# _framework density 25.388849
#
# number of rings (size 3 to 8) (size 9 to 14) (size 15 to 20)
#    0.000    1.333    2.667    2.400    3.733    4.267 
#    4.800    1.333    0.000    0.000    0.000    0.000 
#    0.000    0.000    0.000    0.000    0.000    0.000 
#
# Total GULP energy -371846.304013 kJ/mol
# GULP energy per Si atom -12394.876800 kJ/mol
# Density = 2.533106 g / cm^3
# Si number density = 25.388849 Si / 1000 Ang^3
#
#
#
# Elastic Constant Matrix: (Units=GPa)
#
#
# Indices 1 2 3 4 5 6 
#
# 1 87.8479 -17.1741 25.0563 0.0000 0.0000 0.0000
# 2 -17.1741 88.4901 27.5994 0.0000 0.0000 0.0000
# 3 25.0563 27.5994 100.2399 0.0000 0.0000 0.0000
# 4 0.0000 0.0000 0.0000 20.7139 0.0000 0.0000
# 5 0.0000 0.0000 0.0000 0.0000 8.7533 0.0000
# 6 0.0000 0.0000 0.0000 0.0000 0.0000 28.8917
#
#
#
# Elastic Compliance Matrix: (Units=1/GPa)
#
#
# Indices 1 2 3 4 5 6 
#
# 1 0.013437 0.003999 -0.004460 0.000000 0.000000 0.000000
# 2 0.003999 0.013552 -0.004731 0.000000 0.000000 0.000000
# 3 -0.004460 -0.004731 0.012393 0.000000 0.000000 0.000000
# 4 0.000000 0.000000 0.000000 0.048277 0.000000 0.000000
# 5 0.000000 0.000000 0.000000 0.000000 0.114243 0.000000
# 6 0.000000 0.000000 0.000000 0.000000 0.000000 0.034612
#
#
# Mechanical properties :
#
#
# Convention : Reuss Voigt Hill
#
# Bulk Modulus (GPa) = 34.48387 38.61565 36.54976
# Shear Modulus (GPa) = 19.48829 27.74487 23.61658
#
# Velocity S-wave (km/s) = 2.77355 3.30934 3.05322
# Velocity P-wave (km/s) = 4.88555 5.46306 5.18235
#
# Compressibility (1/GPa) = 0.02899906
#
# Stress axis : x y z
#
# Youngs Moduli (GPa) = 74.42069 73.78797 80.68780
#
# Poissons Ratio (x) = -0.29507 0.35985
# Poissons Ratio (y) = -0.29760 0.38173
# Poissons Ratio (z) = 0.33190 0.34909
#
# Static dielectric constant tensor:
#      x y z
#    x 4.547770 0.000000 0.000000 
#    y 0.000000 4.410030 0.000000 
#    z 0.000000 0.000000 4.552950 
# 
# 
# High freq. dielectric constant tensor:
#      x y z
#    x 2.010880 0.000000 0.000000 
#    y 0.000000 2.018180 0.000000 
#    z 0.000000 0.000000 1.984650 
# 
# From -- ./inp_files/34712.got.cif
#   From: 2010.03.12/outbox.cif.g09.slc.cpg/sg72_18_cif.got.tgz:34712.got - 2010.04.16 14:54:00.
