data_PCOD8294203
_publ_section_title
;
Structure prediction by ZEFSAII (Michael W. Deem and Ramdas Pophale) SiO2 
 PCOD8294203
Probable space group: I B A M
;
_chemical_formula_sum "Si O2"
_cell_formula_units_Z 112
_cell_length_a 28.366336
_cell_length_b 12.084567
_cell_length_c 13.149717
_cell_angle_alpha 90.000000
_cell_angle_beta 90.000000
_cell_angle_gamma 90.000000
_cell_volume 4507.655765
_symmetry_space_group_name_H-M "I B A M"
_symmetry_group_IT_number 72
_symmetry_cell_setting 'orthorhombic'
loop_
_space_group_symop_operation_xyz
x,y,z
-x,-y,z
x,-y,1/2-z
-x,y,1/2-z
-x,-y,-z
x,y,-z
-x,y,1/2+z
x,-y,1/2+z
1/2+x,1/2+y,1/2+z
1/2-x,1/2-y,1/2+z
1/2+x,1/2-y,-z
1/2-x,1/2+y,-z
1/2-x,1/2-y,1/2-z
1/2+x,1/2+y,1/2-z
1/2-x,1/2+y,z
1/2+x,1/2-y,z
loop_
_atom_site_type_symbol
_atom_site_label
_atom_site_fract_x
_atom_site_fract_y
_atom_site_fract_z
Si Si1 0.391200 0.133628 0.614325
Si Si2 0.842616 0.058066 0.881314
Si Si3 0.627501 0.891895 0.118598
Si Si4 0.819766 0.817220 0.121850
Si Si5 0.531983 0.296006 0.110583
Si Si6 0.929092 0.812314 0.683171
Si Si7 0.282742 0.240350 0.118483
O O1 0.372768 0.119825 0.500000
O O2 0.357649 0.228808 0.664015
O O3 0.446087 0.171384 0.617377
O O4 0.383029 0.013640 0.663876
O O5 0.896634 0.096242 0.868870
O O6 0.807534 0.150573 0.832226
O O7 0.834773 0.937129 0.831204
O O8 0.831314 0.050251 0.000000
O O9 0.595884 0.808753 0.187097
O O10 0.682893 0.865174 0.133307
O O11 0.613150 0.876253 0.000000
O O12 0.768624 0.782966 0.166934
O O13 0.819595 0.825104 0.000000
O O14 0.475976 0.294441 0.116754
O O15 0.556173 0.359409 0.205069
O O16 0.546671 0.347749 0.000000
O O17 0.274916 0.263261 0.000000
#
# Coordination Sequence:
#
# PCOD8294203 Si02
#       7
#    16  16  16  16  16  16  16
#     4   9  19  33  50  79 118 160 206 252 301 358
#     4   9  17  31  53  85 124 165 207 254 305 367
#     4   9  17  31  53  84 124 164 202 250 304 367
#     4   9  17  29  50  81 121 167 211 252 302 367
#     4  10  21  38  60  88 119 154 200 253 309 369
#     4  10  20  36  60  88 120 158 200 248 310 374
#     4   8  15  26  47  81 117 158 204 249 305 365
#
# _framework density 24.846616999999998
#
# number of rings (size 3 to 8) (size 9 to 14) (size 15 to 20)
#    0.000    2.857    0.000    2.143    2.000    1.143 
#    0.000    5.000    0.000    8.571    7.429    0.000 
#    0.000    1.143    0.000    0.000    0.000    0.000 
#
# Total GULP energy -694150.812079 kJ/mol
# GULP energy per Si atom -12395.550216 kJ/mol
# Density = 2.479007 g / cm^3
# Si number density = 24.846617 Si / 1000 Ang^3
#
#
#
# Elastic Constant Matrix: (Units=GPa)
#
#
# Indices 1 2 3 4 5 6 
#
# 1 187.6396 74.8674 32.9667 0.0000 0.0000 0.0000
# 2 74.8674 152.2207 31.1894 0.0000 0.0000 0.0000
# 3 32.9667 31.1894 66.3623 0.0000 0.0000 0.0000
# 4 0.0000 0.0000 0.0000 13.8130 0.0000 0.0000
# 5 0.0000 0.0000 0.0000 0.0000 30.5462 0.0000
# 6 0.0000 0.0000 0.0000 0.0000 0.0000 21.5385
#
#
#
# Elastic Compliance Matrix: (Units=1/GPa)
#
#
# Indices 1 2 3 4 5 6 
#
# 1 0.006866 -0.002964 -0.002018 0.000000 0.000000 0.000000
# 2 -0.002964 0.008549 -0.002545 0.000000 0.000000 0.000000
# 3 -0.002018 -0.002545 0.017268 0.000000 0.000000 0.000000
# 4 0.000000 0.000000 0.000000 0.072396 0.000000 0.000000
# 5 0.000000 0.000000 0.000000 0.000000 0.032737 0.000000
# 6 0.000000 0.000000 0.000000 0.000000 0.000000 0.046429
#
#
# Mechanical properties :
#
#
# Convention : Reuss Voigt Hill
#
# Bulk Modulus (GPa) = 56.72739 76.02993 66.37866
# Shear Modulus (GPa) = 24.36944 30.99279 27.68112
#
# Velocity S-wave (km/s) = 3.13516 3.53564 3.34140
# Velocity P-wave (km/s) = 5.99885 6.87995 6.45446
#
# Compressibility (1/GPa) = 0.01762817
#
# Stress axis : x y z
#
# Youngs Moduli (GPa) = 145.63646 116.97852 57.91161
#
# Poissons Ratio (x) = 0.34668 0.11687
# Poissons Ratio (y) = 0.43161 0.14741
# Poissons Ratio (z) = 0.29392 0.29777
#
# Static dielectric constant tensor:
#      x y z
#    x 4.490530 0.000000 0.000000 
#    y 0.000000 4.457670 0.000000 
#    z 0.000000 0.000000 4.608270 
# 
# 
# High freq. dielectric constant tensor:
#      x y z
#    x 1.982430 0.000000 0.000000 
#    y 0.000000 1.964670 0.000000 
#    z 0.000000 0.000000 2.030250 
# 
# From -- ./inp_files/26367.got.cif
#   From: 2010.03.12/outbox.cif.g09.slc.cpg/sg72_14_cif.got.tgz:26367.got - 2010.04.16 14:54:00.
