data_PCOD8294557
_publ_section_title
;
Structure prediction by ZEFSAII (Michael W. Deem and Ramdas Pophale) SiO2 
 PCOD8294557
Probable space group: I B A M
;
_chemical_formula_sum "Si O2"
_cell_formula_units_Z 68
_cell_length_a 18.286548
_cell_length_b 9.478465
_cell_length_c 18.229567
_cell_angle_alpha 90.000000
_cell_angle_beta 90.000000
_cell_angle_gamma 90.000000
_cell_volume 3159.701775
_symmetry_space_group_name_H-M "I B A M"
_symmetry_group_IT_number 72
_symmetry_cell_setting 'orthorhombic'
loop_
_space_group_symop_operation_xyz
x,y,z
-x,-y,z
x,-y,1/2-z
-x,y,1/2-z
-x,-y,-z
x,y,-z
-x,y,1/2+z
x,-y,1/2+z
1/2+x,1/2+y,1/2+z
1/2-x,1/2-y,1/2+z
1/2+x,1/2-y,-z
1/2-x,1/2+y,-z
1/2-x,1/2-y,1/2-z
1/2+x,1/2+y,1/2-z
1/2-x,1/2+y,z
1/2+x,1/2-y,z
loop_
_atom_site_type_symbol
_atom_site_label
_atom_site_fract_x
_atom_site_fract_y
_atom_site_fract_z
Si Si1 0.890010 0.298567 0.175662
Si Si2 0.000000 0.500000 0.250000
Si Si3 0.654285 0.295280 0.833263
Si Si4 0.225334 0.505373 0.335493
Si Si5 0.993946 0.835987 0.919067
O O1 0.951422 0.407130 0.198117
O O2 0.856115 0.212332 0.244972
O O3 0.829021 0.387350 0.130944
O O4 0.929005 0.195549 0.119250
O O5 0.692737 0.446604 0.852191
O O6 0.575954 0.285695 0.871839
O O7 0.706912 0.165171 0.861720
O O8 0.206706 0.500000 0.250000
O O9 0.987964 0.765618 0.000000
O O10 0.000000 0.000000 0.928308
#
# Coordination Sequence:
#
# PCOD8294557 Si02
#       5
#    16   4  16  16  16
#     4  11  19  38  65  91 128 160 208 269 321 366
#     4  12  16  36  60  96 124 152 204 274 312 376
#     4  11  22  39  64  97 127 163 208 262 320 373
#     4  10  21  36  62  99 128 156 202 266 316 381
#     4  11  26  43  61  90 129 171 218 262 310 377
#
# _framework density 21.521018999999999
#
# number of rings (size 3 to 8) (size 9 to 14) (size 15 to 20)
#    0.000    1.176    5.882    2.824    6.588    0.941 
#    0.000    7.647    0.000    0.000    0.000    0.000 
#    0.000    0.000    0.000    0.000    0.000    0.000 
#
# Total GULP energy -421271.148738 kJ/mol
# GULP energy per Si atom -12390.327904 kJ/mol
# Density = 2.147204 g / cm^3
# Si number density = 21.521019 Si / 1000 Ang^3
#
#
#
# Elastic Constant Matrix: (Units=GPa)
#
#
# Indices 1 2 3 4 5 6 
#
# 1 96.2829 40.9744 15.5967 0.0000 0.0000 0.0000
# 2 40.9744 81.1537 26.7956 0.0000 0.0000 0.0000
# 3 15.5967 26.7956 61.4771 0.0000 0.0000 0.0000
# 4 0.0000 0.0000 0.0000 0.4131 0.0000 0.0000
# 5 0.0000 0.0000 0.0000 0.0000 21.4663 0.0000
# 6 0.0000 0.0000 0.0000 0.0000 0.0000 64.1646
#
#
#
# Elastic Compliance Matrix: (Units=1/GPa)
#
#
# Indices 1 2 3 4 5 6 
#
# 1 0.013243 -0.006514 -0.000520 0.000000 0.000000 0.000000
# 2 -0.006514 0.017598 -0.006018 0.000000 0.000000 0.000000
# 3 -0.000520 -0.006018 0.019021 0.000000 0.000000 0.000000
# 4 0.000000 0.000000 0.000000 2.420708 0.000000 0.000000
# 5 0.000000 0.000000 0.000000 0.000000 0.046585 0.000000
# 6 0.000000 0.000000 0.000000 0.000000 0.000000 0.015585
#
#
# Mechanical properties :
#
#
# Convention : Reuss Voigt Hill
#
# Bulk Modulus (GPa) = 42.09242 45.07191 43.58216
# Shear Modulus (GPa) = 1.94798 27.57859 14.76329
#
# Velocity S-wave (km/s) = 0.95243 3.58365 2.62199
# Velocity P-wave (km/s) = 4.56187 6.17350 5.42783
#
# Compressibility (1/GPa) = 0.02375724
#
# Stress axis : x y z
#
# Youngs Moduli (GPa) = 75.51373 56.82340 52.57310
#
# Poissons Ratio (x) = 0.37017 0.02735
# Poissons Ratio (y) = 0.49193 0.31637
# Poissons Ratio (z) = 0.03929 0.34195
#
# Static dielectric constant tensor:
#      x y z
#    x 3.783190 0.000000 0.000000 
#    y 0.000000 3.941690 0.000000 
#    z 0.000000 0.000000 3.473320 
# 
# 
# High freq. dielectric constant tensor:
#      x y z
#    x 1.868480 0.000000 0.000000 
#    y 0.000000 1.859300 0.000000 
#    z 0.000000 0.000000 1.777320 
# 
# From -- ./inp_files/27763.got.cif
#   From: 2010.03.12/outbox.cif.g09.slc.cpg/sg72_14_cif.got.tgz:27763.got - 2010.04.16 14:54:00.
