data_PCOD8294068
_publ_section_title
;
Structure prediction by ZEFSAII (Michael W. Deem and Ramdas Pophale) SiO2 
 PCOD8294068
Probable space group: I B A M
;
_chemical_formula_sum "Si O2"
_cell_formula_units_Z 112
_cell_length_a 13.241011
_cell_length_b 27.886492
_cell_length_c 16.238668
_cell_angle_alpha 90.000000
_cell_angle_beta 90.000000
_cell_angle_gamma 90.000000
_cell_volume 5996.052606
_symmetry_space_group_name_H-M "I B A M"
_symmetry_group_IT_number 72
_symmetry_cell_setting 'orthorhombic'
loop_
_space_group_symop_operation_xyz
x,y,z
-x,-y,z
x,-y,1/2-z
-x,y,1/2-z
-x,-y,-z
x,y,-z
-x,y,1/2+z
x,-y,1/2+z
1/2+x,1/2+y,1/2+z
1/2-x,1/2-y,1/2+z
1/2+x,1/2-y,-z
1/2-x,1/2+y,-z
1/2-x,1/2-y,1/2-z
1/2+x,1/2+y,1/2-z
1/2-x,1/2+y,z
1/2+x,1/2-y,z
loop_
_atom_site_type_symbol
_atom_site_label
_atom_site_fract_x
_atom_site_fract_y
_atom_site_fract_z
Si Si1 0.490961 0.792772 0.405723
Si Si2 0.234393 0.946125 0.721567
Si Si3 0.184669 0.287825 0.196217
Si Si4 0.921713 0.109173 0.822183
Si Si5 0.137910 0.200491 0.407864
Si Si6 0.901123 0.371299 0.798810
Si Si7 0.440403 0.544977 0.906465
O O1 0.530728 0.796060 0.500000
O O2 0.574465 0.773810 0.339747
O O3 0.404050 0.753600 0.396948
O O4 0.441486 0.844120 0.381161
O O5 0.183245 0.917474 0.798386
O O6 0.334821 0.919148 0.687802
O O7 0.160498 0.945943 0.644101
O O8 0.262543 0.000000 0.750000
O O9 0.250000 0.250000 0.250000
O O10 0.243707 0.298398 0.111843
O O11 0.171839 0.335101 0.250280
O O12 0.909610 0.165158 0.840365
O O13 0.000000 0.101011 0.750000
O O14 0.976842 0.087421 0.902422
O O15 0.121569 0.180944 0.500000
O O16 0.000000 0.387724 0.750000
O O17 0.500000 0.500000 0.867905
O O18 0.407063 0.536219 0.000000
#
# Coordination Sequence:
#
# PCOD8294068 Si02
#       7
#    16  16  16  16  16  16  16
#     4  10  23  40  58  84 121 156 193 246 297 348
#     4  11  21  37  60  87 113 154 201 251 298 357
#     4  11  21  36  60  85 115 151 197 240 287 353
#     4  10  21  33  56  83 120 153 190 238 296 363
#     4  11  22  36  57  86 117 154 194 238 290 351
#     4  10  22  39  61  85 111 157 203 245 295 345
#     4  10  20  35  56  85 120 155 189 238 305 368
#
# _framework density 18.678954999999998
#
# number of rings (size 3 to 8) (size 9 to 14) (size 15 to 20)
#    0.000    1.571    4.286    0.857    2.000    0.857 
#    0.000    0.000    0.000    0.000    0.000    3.000 
#    0.000    0.000    0.000    0.000    0.000    0.000 
#
# Total GULP energy -693876.668469 kJ/mol
# GULP energy per Si atom -12390.654794 kJ/mol
# Density = 1.863644 g / cm^3
# Si number density = 18.678955 Si / 1000 Ang^3
#
#
#
# Elastic Constant Matrix: (Units=GPa)
#
#
# Indices 1 2 3 4 5 6 
#
# 1 102.1948 46.6580 37.8827 0.0000 0.0000 0.0000
# 2 46.6580 97.2052 32.7318 -0.0001 0.0000 0.0000
# 3 37.8827 32.7318 77.3905 -0.0006 0.0001 0.0000
# 4 0.0000 -0.0001 -0.0006 26.2695 0.0000 0.0000
# 5 0.0000 0.0000 0.0001 0.0000 27.7509 0.0000
# 6 0.0000 0.0000 0.0000 0.0000 0.0000 38.4953
#
#
#
# Elastic Compliance Matrix: (Units=1/GPa)
#
#
# Indices 1 2 3 4 5 6 
#
# 1 0.013814 -0.005077 -0.004615 0.000000 0.000000 0.000000
# 2 -0.005077 0.013862 -0.003378 0.000000 0.000000 0.000000
# 3 -0.004615 -0.003378 0.016609 0.000000 0.000000 0.000000
# 4 0.000000 0.000000 0.000000 0.038067 0.000000 0.000000
# 5 0.000000 0.000000 0.000000 0.000000 0.036035 0.000000
# 6 0.000000 0.000000 0.000000 0.000000 0.000000 0.025977
#
#
# Mechanical properties :
#
#
# Convention : Reuss Voigt Hill
#
# Bulk Modulus (GPa) = 55.10767 56.81506 55.96137
# Shear Modulus (GPa) = 28.32061 29.13766 28.72914
#
# Velocity S-wave (km/s) = 3.89804 3.95387 3.92605
# Velocity P-wave (km/s) = 7.05877 7.16427 7.11171
#
# Compressibility (1/GPa) = 0.01814629
#
# Stress axis : x y z
#
# Youngs Moduli (GPa) = 72.39234 72.14164 60.20847
#
# Poissons Ratio (x) = 0.36623 0.27784
# Poissons Ratio (y) = 0.36750 0.20337
# Poissons Ratio (z) = 0.33407 0.24367
#
# Static dielectric constant tensor:
#      x y z
#    x 3.480590 0.000000 0.000000 
#    y 0.000000 3.361060 0.000000 
#    z 0.000000 0.000000 3.464970 
# 
# 
# High freq. dielectric constant tensor:
#      x y z
#    x 1.725510 0.000000 0.000000 
#    y 0.000000 1.717190 0.000000 
#    z 0.000000 0.000000 1.721870 
# 
# From -- ./inp_files/20701.got.cif
#   From: 2010.03.12/outbox.cif.g09.slc.cpg/sg72_11_cif.got.tgz:20701.got - 2010.04.16 14:54:00.
