data_PCOD8294246
_publ_section_title
;
Structure prediction by ZEFSAII (Michael W. Deem and Ramdas Pophale) SiO2 
 PCOD8294246
Probable space group: I B A M
;
_chemical_formula_sum "Si O2"
_cell_formula_units_Z 116
_cell_length_a 27.259476
_cell_length_b 12.773638
_cell_length_c 17.450579
_cell_angle_alpha 90.000000
_cell_angle_beta 90.000000
_cell_angle_gamma 90.000000
_cell_volume 6076.338349
_symmetry_space_group_name_H-M "I B A M"
_symmetry_group_IT_number 72
_symmetry_cell_setting 'orthorhombic'
loop_
_space_group_symop_operation_xyz
x,y,z
-x,-y,z
x,-y,1/2-z
-x,y,1/2-z
-x,-y,-z
x,y,-z
-x,y,1/2+z
x,-y,1/2+z
1/2+x,1/2+y,1/2+z
1/2-x,1/2-y,1/2+z
1/2+x,1/2-y,-z
1/2-x,1/2+y,-z
1/2-x,1/2-y,1/2-z
1/2+x,1/2+y,1/2-z
1/2-x,1/2+y,z
1/2+x,1/2-y,z
loop_
_atom_site_type_symbol
_atom_site_label
_atom_site_fract_x
_atom_site_fract_y
_atom_site_fract_z
Si Si1 0.848577 0.518216 0.911848
Si Si2 0.347824 0.183062 0.722167
Si Si3 0.500000 0.000000 0.750000
Si Si4 0.574500 0.874400 0.843275
Si Si5 0.431165 0.553722 0.090042
Si Si6 0.840424 0.910541 0.813636
Si Si7 0.269790 0.086723 0.814374
Si Si8 0.973858 0.834633 0.409357
O O1 0.848706 0.623172 0.859607
O O2 0.898107 0.447378 0.906256
O O3 0.801505 0.448574 0.887741
O O4 0.842676 0.553582 0.000000
O O5 0.388049 0.127773 0.773294
O O6 0.362468 0.303305 0.717843
O O7 0.296071 0.181609 0.768872
O O8 0.527602 0.929089 0.810124
O O9 0.555276 0.762967 0.873708
O O10 0.375088 0.564139 0.115296
O O11 0.468614 0.648035 0.116424
O O12 0.448137 0.440445 0.120221
O O13 0.432549 0.552173 0.000000
O O14 0.785091 0.888093 0.843362
O O15 0.843024 0.000000 0.750000
O O16 0.267169 0.000000 0.750000
O O17 0.970643 0.820173 0.500000
#
# Coordination Sequence:
#
# PCOD8294246 Si02
#       8
#    16  16   4  16  16  16  16  16
#     4  10  20  38  59  82 108 146 189 227 280 347
#     4  10  20  37  56  80 115 151 177 234 288 330
#     4  12  24  36  54  82 116 140 178 244 276 320
#     4  11  21  38  58  82 112 148 189 231 281 327
#     4   9  20  37  54  81 119 149 184 235 287 329
#     4  11  21  34  56  87 110 146 191 232 275 340
#     4   8  18  36  57  79 111 144 182 229 280 330
#     4   9  19  38  59  78 111 157 189 225 279 341
#
# _framework density 19.090444000000002
#
# number of rings (size 3 to 8) (size 9 to 14) (size 15 to 20)
#    0.000    2.207    1.379    3.310    1.931    1.103 
#    0.000    3.448    0.000    0.000    0.000    0.000 
#    0.000    0.000    0.000    0.000    0.000    0.000 
#
# Total GULP energy -718519.452847 kJ/mol
# GULP energy per Si atom -12388.266428 kJ/mol
# Density = 1.904699 g / cm^3
# Si number density = 19.090444 Si / 1000 Ang^3
#
#
#
# Elastic Constant Matrix: (Units=GPa)
#
#
# Indices 1 2 3 4 5 6 
#
# 1 127.5437 27.5628 38.8321 0.0000 0.0000 0.0000
# 2 27.5628 95.6387 32.1348 0.0000 0.0000 0.0000
# 3 38.8321 32.1348 85.4837 0.0000 0.0000 0.0000
# 4 0.0000 0.0000 0.0000 33.0013 0.0000 0.0000
# 5 0.0000 0.0000 0.0000 0.0000 20.0862 0.0000
# 6 0.0000 0.0000 0.0000 0.0000 0.0000 27.6148
#
#
#
# Elastic Compliance Matrix: (Units=1/GPa)
#
#
# Indices 1 2 3 4 5 6 
#
# 1 0.009269 -0.001438 -0.003670 0.000000 0.000000 0.000000
# 2 -0.001438 0.012191 -0.003929 0.000000 0.000000 0.000000
# 3 -0.003670 -0.003929 0.014842 0.000000 0.000000 0.000000
# 4 0.000000 0.000000 0.000000 0.030302 0.000000 0.000000
# 5 0.000000 0.000000 0.000000 0.000000 0.049785 0.000000
# 6 0.000000 0.000000 0.000000 0.000000 0.000000 0.036213
#
#
# Mechanical properties :
#
#
# Convention : Reuss Voigt Hill
#
# Bulk Modulus (GPa) = 54.86362 56.19173 55.52767
# Shear Modulus (GPa) = 28.28827 30.14955 29.21891
#
# Velocity S-wave (km/s) = 3.85360 3.97835 3.91647
# Velocity P-wave (km/s) = 6.97147 7.11347 7.04283
#
# Compressibility (1/GPa) = 0.01822701
#
# Stress axis : x y z
#
# Youngs Moduli (GPa) = 107.89203 82.02920 67.37501
#
# Poissons Ratio (x) = 0.11797 0.24725
# Poissons Ratio (y) = 0.15516 0.26475
# Poissons Ratio (z) = 0.39593 0.32233
#
# Static dielectric constant tensor:
#      x y z
#    x 3.983060 0.000000 0.000000 
#    y 0.000000 3.557030 0.000000 
#    z 0.000000 0.000000 3.332020 
# 
# 
# High freq. dielectric constant tensor:
#      x y z
#    x 1.755100 0.000000 0.000000 
#    y 0.000000 1.743580 0.000000 
#    z 0.000000 0.000000 1.722320 
# 
# From -- ./inp_files/34001.got.cif
#   From: 2010.03.12/outbox.cif.g09.slc.cpg/sg72_18_cif.got.tgz:34001.got - 2010.04.16 14:54:00.
