data_PCOD8294386
_publ_section_title
;
Structure prediction by ZEFSAII (Michael W. Deem and Ramdas Pophale) SiO2 
 PCOD8294386
Probable space group: I B A M
;
_chemical_formula_sum "Si O2"
_cell_formula_units_Z 68
_cell_length_a 19.037343
_cell_length_b 10.609328
_cell_length_c 14.371115
_cell_angle_alpha 90.000000
_cell_angle_beta 90.000000
_cell_angle_gamma 90.000000
_cell_volume 2902.583190
_symmetry_space_group_name_H-M "I B A M"
_symmetry_group_IT_number 72
_symmetry_cell_setting 'orthorhombic'
loop_
_space_group_symop_operation_xyz
x,y,z
-x,-y,z
x,-y,1/2-z
-x,y,1/2-z
-x,-y,-z
x,y,-z
-x,y,1/2+z
x,-y,1/2+z
1/2+x,1/2+y,1/2+z
1/2-x,1/2-y,1/2+z
1/2+x,1/2-y,-z
1/2-x,1/2+y,-z
1/2-x,1/2-y,1/2-z
1/2+x,1/2+y,1/2-z
1/2-x,1/2+y,z
1/2+x,1/2-y,z
loop_
_atom_site_type_symbol
_atom_site_label
_atom_site_fract_x
_atom_site_fract_y
_atom_site_fract_z
Si Si1 0.307653 0.082622 0.888475
Si Si2 0.500000 0.500000 0.750000
Si Si3 0.294084 0.801011 0.108340
Si Si4 0.533679 0.877413 0.148880
Si Si5 0.938446 0.173119 0.398365
O O1 0.256647 0.192594 0.848467
O O2 0.382950 0.114165 0.845328
O O3 0.281994 0.943603 0.852484
O O4 0.312457 0.081171 0.000000
O O5 0.446380 0.574114 0.815905
O O6 0.374319 0.764184 0.128232
O O7 0.277153 0.803087 0.000000
O O8 0.500000 0.862495 0.250000
O O9 0.509866 0.754531 0.091886
O O10 0.500000 0.000000 0.099393
O O11 0.925559 0.107974 0.500000
#
# Coordination Sequence:
#
# PCOD8294386 Si02
#       5
#    16   4  16  16  16
#     4  10  20  38  66 100 137 178 230 287 348 413
#     4  12  26  44  62 102 136 176 232 294 344 430
#     4   9  20  38  64  98 134 178 228 282 345 420
#     4  11  22  39  67  98 134 175 232 290 334 403
#     4  11  23  43  69  96 135 184 229 286 352 412
#
# _framework density 23.427406999999999
#
# number of rings (size 3 to 8) (size 9 to 14) (size 15 to 20)
#    0.000    1.647    3.529    1.059    0.000    2.824 
#    0.000    8.235    0.000    0.000    0.000    0.000 
#    0.000    0.000    0.000    0.000    0.000    0.000 
#
# Total GULP energy -421423.004756 kJ/mol
# GULP energy per Si atom -12394.794258 kJ/mol
# Density = 2.337408 g / cm^3
# Si number density = 23.427407 Si / 1000 Ang^3
#
#
#
# Elastic Constant Matrix: (Units=GPa)
#
#
# Indices 1 2 3 4 5 6 
#
# 1 146.8517 93.1103 21.1382 0.0000 0.0000 0.0000
# 2 93.1103 181.9357 47.5900 0.0000 0.0000 0.0000
# 3 21.1382 47.5900 77.8811 0.0000 0.0000 0.0000
# 4 0.0000 0.0000 0.0000 -26.4863 0.0000 0.0000
# 5 0.0000 0.0000 0.0000 0.0000 25.3402 0.0000
# 6 0.0000 0.0000 0.0000 0.0000 0.0000 42.8200
#
#
#
# Elastic Compliance Matrix: (Units=1/GPa)
#
#
# Indices 1 2 3 4 5 6 
#
# 1 0.010097 -0.005297 0.000496 0.000000 0.000000 0.000000
# 2 -0.005297 0.009321 -0.004258 0.000000 0.000000 0.000000
# 3 0.000496 -0.004258 0.015307 0.000000 0.000000 0.000000
# 4 0.000000 0.000000 0.000000 -0.037755 0.000000 0.000000
# 5 0.000000 0.000000 0.000000 0.000000 0.039463 0.000000
# 6 0.000000 0.000000 0.000000 0.000000 0.000000 0.023354
#
#
# Mechanical properties :
#
#
# Convention : Reuss Voigt Hill
#
# Bulk Modulus (GPa) = 60.21310 81.14950 70.68130
# Shear Modulus (GPa) = 59.92344 24.65679 42.29011
#
# Velocity S-wave (km/s) = 5.06299 3.24771 4.25332
# Velocity P-wave (km/s) = 7.74185 6.98408 7.37271
#
# Compressibility (1/GPa) = 0.01660768
#
# Stress axis : x y z
#
# Youngs Moduli (GPa) = 99.04193 107.28240 65.32837
#
# Poissons Ratio (x) = 0.56829 -0.03243
# Poissons Ratio (y) = 0.52464 0.27817
# Poissons Ratio (z) = -0.04917 0.45682
#
# Static dielectric constant tensor:
#      x y z
#    x 4.022470 0.000000 0.000000 
#    y 0.000000 4.726280 0.000000 
#    z 0.000000 0.000000 4.042470 
# 
# 
# High freq. dielectric constant tensor:
#      x y z
#    x 1.914830 0.000000 0.000000 
#    y 0.000000 1.931910 0.000000 
#    z 0.000000 0.000000 1.925090 
# 
# From -- ./inp_files/31261.got.cif
#   From: 2010.03.12/outbox.cif.g09.slc.cpg/sg72_16_cif.got.tgz:31261.got - 2010.04.16 14:54:00.
