data_PCOD8294527
_publ_section_title
;
Structure prediction by ZEFSAII (Michael W. Deem and Ramdas Pophale) SiO2 
 PCOD8294527
Probable space group: I B A M
;
_chemical_formula_sum "Si O2"
_cell_formula_units_Z 80
_cell_length_a 16.910216
_cell_length_b 14.598899
_cell_length_c 16.145351
_cell_angle_alpha 90.000000
_cell_angle_beta 90.000000
_cell_angle_gamma 90.000000
_cell_volume 3985.811446
_symmetry_space_group_name_H-M "I B A M"
_symmetry_group_IT_number 72
_symmetry_cell_setting 'orthorhombic'
loop_
_space_group_symop_operation_xyz
x,y,z
-x,-y,z
x,-y,1/2-z
-x,y,1/2-z
-x,-y,-z
x,y,-z
-x,y,1/2+z
x,-y,1/2+z
1/2+x,1/2+y,1/2+z
1/2-x,1/2-y,1/2+z
1/2+x,1/2-y,-z
1/2-x,1/2+y,-z
1/2-x,1/2-y,1/2-z
1/2+x,1/2+y,1/2-z
1/2-x,1/2+y,z
1/2+x,1/2-y,z
loop_
_atom_site_type_symbol
_atom_site_label
_atom_site_fract_x
_atom_site_fract_y
_atom_site_fract_z
Si Si1 0.414147 0.408690 0.093259
Si Si2 0.935911 0.911276 0.823777
Si Si3 0.906881 0.393348 0.757575
Si Si4 0.662806 0.780246 0.093930
Si Si5 0.812796 0.753183 0.822467
O O1 0.392111 0.490991 0.157904
O O2 0.509403 0.390966 0.095417
O O3 0.370390 0.317519 0.123595
O O4 0.388051 0.433705 0.000000
O O5 0.871626 0.836026 0.807340
O O6 0.000000 0.915331 0.750000
O O7 0.886821 0.500000 0.750000
O O8 0.873724 0.357385 0.845795
O O9 0.863600 0.340814 0.681007
O O10 0.000000 0.374535 0.750000
O O11 0.759215 0.770934 0.096219
O O12 0.637712 0.804395 0.000000
O O13 0.750000 0.750000 0.750000
#
# Coordination Sequence:
#
# PCOD8294527 Si02
#       5
#    16  16  16  16  16
#     4  10  21  36  56  85 115 144 180 228 287 343
#     4  11  20  33  57  84 111 145 186 232 280 336
#     4  10  21  40  62  84 112 155 204 245 283 338
#     4  10  22  39  59  86 120 153 189 239 294 347
#     4  10  21  36  55  82 114 150 189 229 283 344
#
# _framework density 20.071196
#
# number of rings (size 3 to 8) (size 9 to 14) (size 15 to 20)
#    0.000    1.800    0.000    6.600    0.000    5.600 
#    0.000    8.000    0.000    0.000    0.000    0.000 
#    0.000    0.000    0.000    0.000    0.000    0.000 
#
# Total GULP energy -495531.844923 kJ/mol
# GULP energy per Si atom -12388.296123 kJ/mol
# Density = 2.002551 g / cm^3
# Si number density = 20.071196 Si / 1000 Ang^3
#
#
#
# Elastic Constant Matrix: (Units=GPa)
#
#
# Indices 1 2 3 4 5 6 
#
# 1 111.6509 83.2637 30.5416 0.0000 0.0000 0.0000
# 2 83.2637 175.8870 56.5578 0.0000 0.0000 0.0000
# 3 30.5416 56.5578 89.6148 0.0000 0.0000 0.0000
# 4 0.0000 0.0000 0.0000 24.5330 0.0000 0.0000
# 5 0.0000 0.0000 0.0000 0.0000 21.6337 0.0000
# 6 0.0000 0.0000 0.0000 0.0000 0.0000 3.6144
#
#
#
# Elastic Compliance Matrix: (Units=1/GPa)
#
#
# Indices 1 2 3 4 5 6 
#
# 1 0.013882 -0.006336 -0.000732 0.000000 0.000000 0.000000
# 2 -0.006336 0.010025 -0.004168 0.000000 0.000000 0.000000
# 3 -0.000732 -0.004168 0.014039 0.000000 0.000000 0.000000
# 4 0.000000 0.000000 0.000000 0.040761 0.000000 0.000000
# 5 0.000000 0.000000 0.000000 0.000000 0.046224 0.000000
# 6 0.000000 0.000000 0.000000 0.000000 0.000000 0.276669
#
#
# Mechanical properties :
#
#
# Convention : Reuss Voigt Hill
#
# Bulk Modulus (GPa) = 64.62562 79.76433 72.19497
# Shear Modulus (GPa) = 11.64876 23.74220 17.69548
#
# Velocity S-wave (km/s) = 2.41170 3.44306 2.97246
# Velocity P-wave (km/s) = 6.32639 7.45877 6.91579
#
# Compressibility (1/GPa) = 0.01547374
#
# Stress axis : x y z
#
# Youngs Moduli (GPa) = 72.03572 99.74949 71.23166
#
# Poissons Ratio (x) = 0.63203 0.05216
# Poissons Ratio (y) = 0.45643 0.29687
# Poissons Ratio (z) = 0.05275 0.41572
#
# Static dielectric constant tensor:
#      x y z
#    x 5.589660 0.000000 0.000000 
#    y 0.000000 3.711560 0.000000 
#    z 0.000000 0.000000 4.340870 
# 
# 
# High freq. dielectric constant tensor:
#      x y z
#    x 1.783020 0.000000 0.000000 
#    y 0.000000 1.785880 0.000000 
#    z 0.000000 0.000000 1.777810 
# 
# From -- ./inp_files/31381.got.cif
#   From: 2010.03.12/outbox.cif.g09.slc.cpg/sg72_16_cif.got.tgz:31381.got - 2010.04.16 14:54:00.
