data_PCOD8294577
_publ_section_title
;
Structure prediction by ZEFSAII (Michael W. Deem and Ramdas Pophale) SiO2 
 PCOD8294577
Probable space group: I B A M
;
_chemical_formula_sum "Si O2"
_cell_formula_units_Z 116
_cell_length_a 26.367193
_cell_length_b 23.077044
_cell_length_c 10.037869
_cell_angle_alpha 90.000000
_cell_angle_beta 90.000000
_cell_angle_gamma 90.000000
_cell_volume 6107.811141
_symmetry_space_group_name_H-M "I B A M"
_symmetry_group_IT_number 72
_symmetry_cell_setting 'orthorhombic'
loop_
_space_group_symop_operation_xyz
x,y,z
-x,-y,z
x,-y,1/2-z
-x,y,1/2-z
-x,-y,-z
x,y,-z
-x,y,1/2+z
x,-y,1/2+z
1/2+x,1/2+y,1/2+z
1/2-x,1/2-y,1/2+z
1/2+x,1/2-y,-z
1/2-x,1/2+y,-z
1/2-x,1/2-y,1/2-z
1/2+x,1/2+y,1/2-z
1/2-x,1/2+y,z
1/2+x,1/2-y,z
loop_
_atom_site_type_symbol
_atom_site_label
_atom_site_fract_x
_atom_site_fract_y
_atom_site_fract_z
Si Si1 0.155129 0.836574 0.157460
Si Si2 0.000000 0.500000 0.250000
Si Si3 0.317322 0.114737 0.651789
Si Si4 0.558879 0.192225 0.643328
Si Si5 0.041917 0.176765 0.652618
Si Si6 0.217325 0.051421 0.653200
Si Si7 0.931991 0.598771 0.149522
Si Si8 0.677624 0.787466 0.850853
O O1 0.097287 0.840899 0.209949
O O2 0.186406 0.892408 0.202230
O O3 0.184316 0.778156 0.206470
O O4 0.151599 0.829896 0.000000
O O5 0.962897 0.539027 0.160143
O O6 0.315970 0.138188 0.500000
O O7 0.277305 0.062752 0.668665
O O8 0.372805 0.089558 0.689415
O O9 0.298650 0.167006 0.747068
O O10 0.542512 0.165229 0.500000
O O11 0.533196 0.254314 0.661560
O O12 0.542261 0.147871 0.758768
O O13 0.618431 0.200832 0.643389
O O14 0.034334 0.155232 0.500000
O O15 0.000000 0.147611 0.750000
O O16 0.203864 0.035847 0.500000
O O17 0.200572 0.000000 0.750000
O O18 0.935184 0.622091 0.000000
O O19 0.701173 0.795401 0.000000
#
# Coordination Sequence:
#
# PCOD8294577 Si02
#       8
#    16   4  16  16  16  16  16  16
#     4   8  16  33  54  77 109 142 171 208 256 311
#     4  12  26  36  48  66  94 136 180 222 258 296
#     4   9  19  35  54  77 104 131 166 219 273 310
#     4   8  16  31  50  72  99 130 162 203 251 303
#     4   9  17  30  51  79 107 136 167 199 246 305
#     4  10  21  37  57  78 103 138 176 215 261 310
#     4  10  22  38  51  67  94 130 174 219 260 302
#     4   8  14  29  53  78 103 134 169 202 252 316
#
# _framework density 18.992073999999999
#
# number of rings (size 3 to 8) (size 9 to 14) (size 15 to 20)
#    0.000    3.034    0.000    1.862    1.931    2.759 
#    0.000    3.448    0.000    0.414    0.000    2.897 
#    0.000    0.000    0.000    0.000    0.000    0.000 
#
# Total GULP energy -718819.081525 kJ/mol
# GULP energy per Si atom -12393.432440 kJ/mol
# Density = 1.894885 g / cm^3
# Si number density = 18.992074 Si / 1000 Ang^3
#
#
#
# Elastic Constant Matrix: (Units=GPa)
#
#
# Indices 1 2 3 4 5 6 
#
# 1 62.3543 32.0432 24.2490 0.0000 0.0000 0.0000
# 2 32.0432 100.7145 47.9310 0.0000 0.0000 0.0000
# 3 24.2490 47.9310 94.2596 0.0000 0.0000 0.0000
# 4 0.0000 0.0000 0.0000 26.5109 0.0000 0.0000
# 5 0.0000 0.0000 0.0000 0.0000 153.1623 0.0000
# 6 0.0000 0.0000 0.0000 0.0000 0.0000 25.1434
#
#
#
# Elastic Compliance Matrix: (Units=1/GPa)
#
#
# Indices 1 2 3 4 5 6 
#
# 1 0.019598 -0.005060 -0.002468 0.000000 0.000000 0.000000
# 2 -0.005060 0.014406 -0.006023 0.000000 0.000000 0.000000
# 3 -0.002468 -0.006023 0.014307 0.000000 0.000000 0.000000
# 4 0.000000 0.000000 0.000000 0.037720 0.000000 0.000000
# 5 0.000000 0.000000 0.000000 0.000000 0.006529 0.000000
# 6 0.000000 0.000000 0.000000 0.000000 0.000000 0.039772
#
#
# Mechanical properties :
#
#
# Convention : Reuss Voigt Hill
#
# Bulk Modulus (GPa) = 47.15696 51.75275 49.45485
# Shear Modulus (GPa) = 30.02908 51.17031 40.59970
#
# Velocity S-wave (km/s) = 3.98067 5.19629 4.62856
# Velocity P-wave (km/s) = 6.78316 7.95681 7.39331
#
# Compressibility (1/GPa) = 0.02120578
#
# Stress axis : x y z
#
# Youngs Moduli (GPa) = 51.02593 69.41683 69.89604
#
# Poissons Ratio (x) = 0.35128 0.17253
# Poissons Ratio (y) = 0.25822 0.42102
# Poissons Ratio (z) = 0.12595 0.41813
#
# Static dielectric constant tensor:
#      x y z
#    x 3.464540 0.000000 0.000000 
#    y 0.000000 3.356290 0.000000 
#    z 0.000000 0.000000 3.592760 
# 
# 
# High freq. dielectric constant tensor:
#      x y z
#    x 1.740360 0.000000 0.000000 
#    y 0.000000 1.705170 0.000000 
#    z 0.000000 0.000000 1.727400 
# 
# From -- ./inp_files/9342.got.cif
#   From: 2010.03.12/outbox.cif.g09.slc.cpg/sg72_5_cif.got.tgz:9342.got - 2010.04.16 14:54:00.
