data_PCOD8294002
_publ_section_title
;
Structure prediction by ZEFSAII (Michael W. Deem and Ramdas Pophale) SiO2 
 PCOD8294002
Probable space group: I B A M
;
_chemical_formula_sum "Si O2"
_cell_formula_units_Z 116
_cell_length_a 31.173162
_cell_length_b 22.457981
_cell_length_c 8.366568
_cell_angle_alpha 90.000000
_cell_angle_beta 90.000000
_cell_angle_gamma 90.000000
_cell_volume 5857.319467
_symmetry_space_group_name_H-M "I B A M"
_symmetry_group_IT_number 72
_symmetry_cell_setting 'orthorhombic'
loop_
_space_group_symop_operation_xyz
x,y,z
-x,-y,z
x,-y,1/2-z
-x,y,1/2-z
-x,-y,-z
x,y,-z
-x,y,1/2+z
x,-y,1/2+z
1/2+x,1/2+y,1/2+z
1/2-x,1/2-y,1/2+z
1/2+x,1/2-y,-z
1/2-x,1/2+y,-z
1/2-x,1/2-y,1/2-z
1/2+x,1/2+y,1/2-z
1/2-x,1/2+y,z
1/2+x,1/2-y,z
loop_
_atom_site_type_symbol
_atom_site_label
_atom_site_fract_x
_atom_site_fract_y
_atom_site_fract_z
Si Si1 0.500000 0.000000 0.250000
Si Si2 0.566587 0.912292 0.809236
Si Si3 0.220325 0.670037 0.313553
Si Si4 0.807941 0.201082 0.685336
Si Si5 0.602563 0.327776 0.687276
Si Si6 0.453372 0.220658 0.188643
Si Si7 0.047239 0.936266 0.810973
Si Si8 0.835052 0.563409 0.313565
O O1 0.535534 0.951496 0.310523
O O2 0.560680 0.844622 0.753850
O O3 0.614955 0.930598 0.773978
O O4 0.554664 0.922932 0.000000
O O5 0.230299 0.674488 0.500000
O O6 0.197659 0.730876 0.253564
O O7 0.265480 0.662733 0.222664
O O8 0.190146 0.614608 0.278204
O O9 0.818346 0.199174 0.500000
O O10 0.847314 0.170709 0.775398
O O11 0.595432 0.327441 0.500000
O O12 0.580308 0.268420 0.760130
O O13 0.579748 0.386571 0.757980
O O14 0.500000 0.238046 0.250000
O O15 0.453200 0.222531 0.000000
O O16 0.000000 0.920892 0.750000
O O17 0.063523 0.000000 0.750000
O O18 0.046336 0.937305 0.000000
O O19 0.818419 0.500000 0.250000
O O20 0.825658 0.569891 0.500000
#
# Coordination Sequence:
#
# PCOD8294002 Si02
#       8
#     4  16  16  16  16  16  16  16
#     4  12  18  36  52  74 108 152 200 232 282 324
#     4  10  21  34  52  76 108 151 193 236 283 328
#     4  10  21  39  61  86 114 145 183 229 283 344
#     4  10  21  37  61  89 113 143 183 229 282 339
#     4  10  21  36  56  82 115 148 183 230 285 339
#     4  10  20  35  52  76 109 148 190 234 282 329
#     4  10  20  35  56  82 111 150 190 229 275 330
#     4  11  22  38  58  83 113 149 192 238 286 336
#
# _framework density 19.804282000000001
#
# number of rings (size 3 to 8) (size 9 to 14) (size 15 to 20)
#    0.000    1.793    1.379    3.517    0.000    4.414 
#    0.000    2.069    0.000    1.655    0.000    0.000 
#    0.000    0.000    0.000    0.000    0.000    0.000 
#
# Total GULP energy -718719.470111 kJ/mol
# GULP energy per Si atom -12391.715002 kJ/mol
# Density = 1.975921 g / cm^3
# Si number density = 19.804282 Si / 1000 Ang^3
#
#
#
# Elastic Constant Matrix: (Units=GPa)
#
#
# Indices 1 2 3 4 5 6 
#
# 1 117.3587 77.9641 8.2470 0.0000 0.0000 0.0000
# 2 77.9641 149.4355 23.2945 0.0000 0.0000 0.0000
# 3 8.2470 23.2945 26.7971 0.0000 0.0000 0.0000
# 4 0.0000 0.0000 0.0000 18.4115 0.0000 0.0000
# 5 0.0000 0.0000 0.0000 0.0000 24.8553 0.0000
# 6 0.0000 0.0000 0.0000 0.0000 0.0000 24.8698
#
#
#
# Elastic Compliance Matrix: (Units=1/GPa)
#
#
# Indices 1 2 3 4 5 6 
#
# 1 0.013154 -0.007208 0.002218 0.000000 0.000000 0.000000
# 2 -0.007208 0.011691 -0.007944 0.000000 0.000000 0.000000
# 3 0.002218 -0.007944 0.043541 0.000000 0.000000 0.000000
# 4 0.000000 0.000000 0.000000 0.054314 0.000000 0.000000
# 5 0.000000 0.000000 0.000000 0.000000 0.040233 0.000000
# 6 0.000000 0.000000 0.000000 0.000000 0.000000 0.040209
#
#
# Mechanical properties :
#
#
# Convention : Reuss Voigt Hill
#
# Bulk Modulus (GPa) = 23.52053 56.95580 40.23817
# Shear Modulus (GPa) = 20.56060 25.89970 23.23015
#
# Velocity S-wave (km/s) = 3.22559 3.62025 3.42860
# Velocity P-wave (km/s) = 5.07689 6.80417 6.00298
#
# Compressibility (1/GPa) = 0.04251604
#
# Stress axis : x y z
#
# Youngs Moduli (GPa) = 76.02426 85.53568 22.96688
#
# Poissons Ratio (x) = 0.61657 -0.05094
# Poissons Ratio (y) = 0.54801 0.18246
# Poissons Ratio (z) = -0.16862 0.67954
#
# Static dielectric constant tensor:
#      x y z
#    x 3.596940 0.000000 0.000000 
#    y 0.000000 3.988750 0.000000 
#    z 0.000000 0.000000 3.416090 
# 
# 
# High freq. dielectric constant tensor:
#      x y z
#    x 1.774920 0.000000 0.000000 
#    y 0.000000 1.781470 0.000000 
#    z 0.000000 0.000000 1.755810 
# 
# From -- ./inp_files/8394.got.cif
#   From: 2010.03.12/outbox.cif.g09.slc.cpg/sg72_5_cif.got.tgz:8394.got - 2010.04.16 14:54:00.
