data_PCOD8294530
_publ_section_title
;
Structure prediction by ZEFSAII (Michael W. Deem and Ramdas Pophale) SiO2 
 PCOD8294530
Probable space group: I B A M
;
_chemical_formula_sum "Si O2"
_cell_formula_units_Z 88
_cell_length_a 8.917872
_cell_length_b 26.245512
_cell_length_c 19.027275
_cell_angle_alpha 90.000000
_cell_angle_beta 90.000000
_cell_angle_gamma 90.000000
_cell_volume 4453.412041
_symmetry_space_group_name_H-M "I B A M"
_symmetry_group_IT_number 72
_symmetry_cell_setting 'orthorhombic'
loop_
_space_group_symop_operation_xyz
x,y,z
-x,-y,z
x,-y,1/2-z
-x,y,1/2-z
-x,-y,-z
x,y,-z
-x,y,1/2+z
x,-y,1/2+z
1/2+x,1/2+y,1/2+z
1/2-x,1/2-y,1/2+z
1/2+x,1/2-y,-z
1/2-x,1/2+y,-z
1/2-x,1/2-y,1/2-z
1/2+x,1/2+y,1/2-z
1/2-x,1/2+y,z
1/2+x,1/2-y,z
loop_
_atom_site_type_symbol
_atom_site_label
_atom_site_fract_x
_atom_site_fract_y
_atom_site_fract_z
Si Si1 0.040348 0.943619 0.078852
Si Si2 0.730126 0.680671 0.802005
Si Si3 0.556820 0.943788 0.175763
Si Si4 0.835777 0.609857 0.079821
Si Si5 0.000000 0.254469 0.750000
Si Si6 0.127985 0.908140 0.700438
O O1 0.220675 0.937667 0.081008
O O2 0.959385 0.900124 0.126568
O O3 0.979226 0.936056 0.000000
O O4 0.000000 0.000000 0.106923
O O5 0.751930 0.653915 0.876770
O O6 0.884040 0.710315 0.790555
O O7 0.590223 0.719503 0.806190
O O8 0.693802 0.642710 0.736522
O O9 0.500000 0.921981 0.250000
O O10 0.493116 0.906741 0.115090
O O11 0.736172 0.945709 0.180847
O O12 0.500000 0.000000 0.160628
O O13 0.867315 0.628147 0.000000
O O14 0.000000 0.933719 0.750000
#
# Coordination Sequence:
#
# PCOD8294530 Si02
#       6
#    16  16  16  16   8  16
#     4  10  21  36  55  85 123 166 210 249 295 351
#     4  11  20  40  58  95 108 156 194 253 307 381
#     4  11  22  36  56  89 126 164 210 248 288 345
#     4  11  22  40  60  84 126 166 198 250 308 364
#     4  10  22  36  68  82 120 138 198 252 324 366
#     4  12  21  37  63  86 121 157 214 250 298 361
#
# _framework density 19.76013
#
# number of rings (size 3 to 8) (size 9 to 14) (size 15 to 20)
#    0.000    1.091    4.545    2.182    0.000    2.909 
#    0.000    0.909    0.000    4.364    0.000    0.000 
#    0.000    0.000    0.000    0.000    0.000    0.000 
#
# Total GULP energy -545276.134732 kJ/mol
# GULP energy per Si atom -12392.639426 kJ/mol
# Density = 1.971515 g / cm^3
# Si number density = 19.760130 Si / 1000 Ang^3
#
#
#
# Elastic Constant Matrix: (Units=GPa)
#
#
# Indices 1 2 3 4 5 6 
#
# 1 153.6073 43.1179 53.6152 0.0000 0.0000 0.0000
# 2 43.1179 77.3305 50.2441 0.0000 0.0000 0.0000
# 3 53.6152 50.2441 146.6828 -0.0002 -0.0001 -0.0001
# 4 0.0000 0.0000 -0.0002 16.8273 0.0000 0.0000
# 5 0.0000 0.0000 -0.0001 0.0000 31.2153 0.0000
# 6 0.0000 0.0000 -0.0001 0.0000 0.0000 24.5731
#
#
#
# Elastic Compliance Matrix: (Units=1/GPa)
#
#
# Indices 1 2 3 4 5 6 
#
# 1 0.008076 -0.003325 -0.001813 0.000000 0.000000 0.000000
# 2 -0.003325 0.018002 -0.004951 0.000000 0.000000 0.000000
# 3 -0.001813 -0.004951 0.009176 0.000000 0.000000 0.000000
# 4 0.000000 0.000000 0.000000 0.059427 0.000000 0.000000
# 5 0.000000 0.000000 0.000000 0.000000 0.032036 0.000000
# 6 0.000000 0.000000 0.000000 0.000000 0.000000 0.040695
#
#
# Mechanical properties :
#
#
# Convention : Reuss Voigt Hill
#
# Bulk Modulus (GPa) = 66.32969 74.61944 70.47457
# Shear Modulus (GPa) = 25.95832 29.89937 27.92884
#
# Velocity S-wave (km/s) = 3.62839 3.89410 3.76359
# Velocity P-wave (km/s) = 7.15499 7.61993 7.39112
#
# Compressibility (1/GPa) = 0.01507620
#
# Stress axis : x y z
#
# Youngs Moduli (GPa) = 123.81868 55.54805 108.97935
#
# Poissons Ratio (x) = 0.18471 0.19758
# Poissons Ratio (y) = 0.41172 0.53956
# Poissons Ratio (z) = 0.22449 0.27502
#
# Static dielectric constant tensor:
#      x y z
#    x 3.947140 0.000000 0.000000 
#    y 0.000000 3.488040 0.000000 
#    z 0.000000 0.000000 3.621520 
# 
# 
# High freq. dielectric constant tensor:
#      x y z
#    x 1.791410 0.000000 0.000000 
#    y 0.000000 1.747210 0.000000 
#    z 0.000000 0.000000 1.757830 
# 
# From -- ./inp_files/28385.got.cif
#   From: 2010.03.12/outbox.cif.g09.slc.cpg/sg72_15_cif.got.tgz:28385.got - 2010.04.16 14:54:00.
