data_PCOD8294561
_publ_section_title
;
Structure prediction by ZEFSAII (Michael W. Deem and Ramdas Pophale) SiO2 
 PCOD8294561
Probable space group: I B A M
;
_chemical_formula_sum "Si O2"
_cell_formula_units_Z 96
_cell_length_a 15.321134
_cell_length_b 19.459117
_cell_length_c 16.440988
_cell_angle_alpha 90.000000
_cell_angle_beta 90.000000
_cell_angle_gamma 90.000000
_cell_volume 4901.646109
_symmetry_space_group_name_H-M "I B A M"
_symmetry_group_IT_number 72
_symmetry_cell_setting 'orthorhombic'
loop_
_space_group_symop_operation_xyz
x,y,z
-x,-y,z
x,-y,1/2-z
-x,y,1/2-z
-x,-y,-z
x,y,-z
-x,y,1/2+z
x,-y,1/2+z
1/2+x,1/2+y,1/2+z
1/2-x,1/2-y,1/2+z
1/2+x,1/2-y,-z
1/2-x,1/2+y,-z
1/2-x,1/2-y,1/2-z
1/2+x,1/2+y,1/2-z
1/2-x,1/2+y,z
1/2+x,1/2-y,z
loop_
_atom_site_type_symbol
_atom_site_label
_atom_site_fract_x
_atom_site_fract_y
_atom_site_fract_z
Si Si1 0.938794 0.060892 0.096785
Si Si2 0.985223 0.202872 0.596776
Si Si3 0.607385 0.175355 0.595992
Si Si4 0.700358 0.336562 0.904981
Si Si5 0.228663 0.988155 0.404544
Si Si6 0.410785 0.025473 0.158235
O O1 0.969813 0.133929 0.132158
O O2 0.839994 0.045180 0.127023
O O3 0.944611 0.063340 0.000000
O O4 0.000000 0.000000 0.130286
O O5 0.991108 0.204064 0.500000
O O6 0.039337 0.268250 0.629325
O O7 0.884322 0.205075 0.628801
O O8 0.595258 0.158521 0.500000
O O9 0.707304 0.201956 0.611291
O O10 0.592250 0.107510 0.649076
O O11 0.705105 0.413360 0.866690
O O12 0.683351 0.344964 0.000000
O O13 0.221096 0.981935 0.500000
O O14 0.326662 0.010389 0.382203
O O15 0.500000 0.000000 0.114876
O O16 0.411862 0.000000 0.250000
#
# Coordination Sequence:
#
# PCOD8294561 Si02
#       6
#    16  16  16  16  16  16
#     4   9  14  23  44  77 111 138 165 200 250 309
#     4   9  15  25  43  72 110 141 163 200 254 307
#     4   9  18  31  49  77 107 133 170 214 257 308
#     4   8  13  24  42  66 102 141 165 195 251 297
#     4   9  16  28  50  79 105 130 168 217 257 302
#     4  10  21  37  54  70  91 136 179 219 264 313
#
# _framework density 19.585256999999999
#
# number of rings (size 3 to 8) (size 9 to 14) (size 15 to 20)
#    0.000    3.000    1.667    1.500    0.000    1.333 
#    3.000    0.000    0.000    1.500    4.333    0.000 
#    0.000    0.000    0.000    0.000    0.000    0.000 
#
# Total GULP energy -594665.564832 kJ/mol
# GULP energy per Si atom -12388.865934 kJ/mol
# Density = 1.954068 g / cm^3
# Si number density = 19.585257 Si / 1000 Ang^3
#
#
#
# Elastic Constant Matrix: (Units=GPa)
#
#
# Indices 1 2 3 4 5 6 
#
# 1 210.9352 79.4705 15.2034 0.0000 0.0000 0.0000
# 2 79.4705 110.0475 23.7649 -0.0002 -0.0001 0.0000
# 3 15.2034 23.7649 12.1264 -0.0005 -0.0002 0.0000
# 4 0.0000 -0.0002 -0.0005 11.8470 -0.0002 0.0000
# 5 0.0000 -0.0001 -0.0002 -0.0002 5.9845 0.0001
# 6 0.0000 0.0000 0.0000 0.0000 0.0001 46.1562
#
#
#
# Elastic Compliance Matrix: (Units=1/GPa)
#
#
# Indices 1 2 3 4 5 6 
#
# 1 0.006536 -0.005115 0.001830 0.000000 0.000000 0.000000
# 2 -0.005115 0.019758 -0.032307 -0.000001 -0.000001 0.000000
# 3 0.001830 -0.032307 0.143485 0.000006 0.000005 0.000000
# 4 0.000000 -0.000001 0.000006 0.084410 0.000002 0.000000
# 5 0.000000 -0.000001 0.000005 0.000002 0.167098 0.000000
# 6 0.000000 0.000000 0.000000 0.000000 0.000000 0.021666
#
#
# Mechanical properties :
#
#
# Convention : Reuss Voigt Hill
#
# Bulk Modulus (GPa) = 10.14261 63.33186 36.73724
# Shear Modulus (GPa) = 9.14075 27.10889 18.12482
#
# Velocity S-wave (km/s) = 2.16270 3.72445 3.04539
# Velocity P-wave (km/s) = 3.38028 7.13457 5.58249
#
# Compressibility (1/GPa) = 0.09859394
#
# Stress axis : x y z
#
# Youngs Moduli (GPa) = 152.99751 50.61315 6.96936
#
# Poissons Ratio (x) = 0.25890 -0.01275
# Poissons Ratio (y) = 0.78261 0.22516
# Poissons Ratio (z) = -0.27999 1.63518
#
# Static dielectric constant tensor:
#      x y z
#    x 4.436630 0.000000 0.000000 
#    y 0.000000 3.542870 0.000000 
#    z 0.000000 0.000000 2.873630 
# 
# 
# High freq. dielectric constant tensor:
#      x y z
#    x 1.790200 0.000000 0.000000 
#    y 0.000000 1.740670 0.000000 
#    z 0.000000 0.000000 1.695750 
# 
# From -- ./inp_files/21857.got.cif
#   From: 2010.03.12/outbox.cif.g09.slc.cpg/sg72_11_cif.got.tgz:21857.got - 2010.04.16 14:54:00.
