data_PCOD8294137
_publ_section_title
;
Structure prediction by ZEFSAII (Michael W. Deem and Ramdas Pophale) SiO2 
 PCOD8294137
Probable space group: I B A M
;
_chemical_formula_sum "Si O2"
_cell_formula_units_Z 80
_cell_length_a 25.779025
_cell_length_b 9.366652
_cell_length_c 17.420769
_cell_angle_alpha 90.000000
_cell_angle_beta 90.000000
_cell_angle_gamma 90.000000
_cell_volume 4206.473864
_symmetry_space_group_name_H-M "I B A M"
_symmetry_group_IT_number 72
_symmetry_cell_setting 'orthorhombic'
loop_
_space_group_symop_operation_xyz
x,y,z
-x,-y,z
x,-y,1/2-z
-x,y,1/2-z
-x,-y,-z
x,y,-z
-x,y,1/2+z
x,-y,1/2+z
1/2+x,1/2+y,1/2+z
1/2-x,1/2-y,1/2+z
1/2+x,1/2-y,-z
1/2-x,1/2+y,-z
1/2-x,1/2-y,1/2-z
1/2+x,1/2+y,1/2-z
1/2-x,1/2+y,z
1/2+x,1/2-y,z
loop_
_atom_site_type_symbol
_atom_site_label
_atom_site_fract_x
_atom_site_fract_y
_atom_site_fract_z
Si Si1 0.298258 0.226355 0.908860
Si Si2 0.111326 0.890305 0.412322
Si Si3 0.786225 0.031324 0.340035
Si Si4 0.008639 0.840453 0.660656
Si Si5 0.589235 0.724609 0.085228
O O1 0.265834 0.118055 0.857368
O O2 0.282492 0.387649 0.889187
O O3 0.358442 0.199483 0.884108
O O4 0.289889 0.202909 0.000000
O O5 0.116098 0.835087 0.500000
O O6 0.165501 0.869728 0.367394
O O7 0.066499 0.798263 0.368128
O O8 0.098444 0.056270 0.409929
O O9 0.791451 0.000000 0.250000
O O10 0.000000 0.835383 0.750000
O O11 0.963710 0.734896 0.629278
O O12 0.000000 0.000000 0.628597
O O13 0.579382 0.777205 0.000000
#
# Coordination Sequence:
#
# PCOD8294137 Si02
#       5
#    16  16  16  16  16
#     4  10  20  36  55  75 107 145 182 220 269 328
#     4   9  17  28  44  66  99 136 170 209 261 324
#     4  11  22  34  53  80 109 142 179 227 272 320
#     4   9  16  23  40  66  97 131 164 212 266 313
#     4   8  15  27  44  65  95 133 171 207 255 316
#
# _framework density 19.018304000000001
#
# number of rings (size 3 to 8) (size 9 to 14) (size 15 to 20)
#    0.000    2.600    0.000    4.200    8.400    2.400 
#    0.000    0.000    0.000    0.000    0.000    1.400 
#    0.000    6.400    0.000    0.000    0.000    0.000 
#
# Total GULP energy -495622.603193 kJ/mol
# GULP energy per Si atom -12390.565080 kJ/mol
# Density = 1.897502 g / cm^3
# Si number density = 19.018304 Si / 1000 Ang^3
#
#
#
# Elastic Constant Matrix: (Units=GPa)
#
#
# Indices 1 2 3 4 5 6 
#
# 1 175.2658 33.1659 79.2738 0.0000 0.0000 0.0000
# 2 33.1659 19.9192 11.1514 0.0000 0.0000 0.0000
# 3 79.2738 11.1514 108.5163 0.0000 0.0000 0.0000
# 4 0.0000 0.0000 0.0000 5.0518 0.0000 0.0000
# 5 0.0000 0.0000 0.0000 0.0000 36.1887 0.0000
# 6 0.0000 0.0000 0.0000 0.0000 0.0000 18.1153
#
#
#
# Elastic Compliance Matrix: (Units=1/GPa)
#
#
# Indices 1 2 3 4 5 6 
#
# 1 0.011903 -0.015864 -0.007065 0.000000 0.000000 0.000000
# 2 -0.015864 0.074409 0.003942 0.000000 0.000000 0.000000
# 3 -0.007065 0.003942 0.013972 0.000000 0.000000 0.000000
# 4 0.000000 0.000000 0.000000 0.197948 0.000000 0.000000
# 5 0.000000 0.000000 0.000000 0.000000 0.027633 0.000000
# 6 0.000000 0.000000 0.000000 0.000000 0.000000 0.055202
#
#
# Mechanical properties :
#
#
# Convention : Reuss Voigt Hill
#
# Bulk Modulus (GPa) = 16.04868 61.20929 38.62899
# Shear Modulus (GPa) = 11.36851 23.87851 17.62351
#
# Velocity S-wave (km/s) = 2.44758 3.54722 3.04741
# Velocity P-wave (km/s) = 4.05517 7.00224 5.72170
#
# Compressibility (1/GPa) = 0.06231041
#
# Stress axis : x y z
#
# Youngs Moduli (GPa) = 84.01026 13.43919 71.57390
#
# Poissons Ratio (x) = 0.21320 0.50570
# Poissons Ratio (y) = 1.33272 -0.28217
# Poissons Ratio (z) = 0.59357 -0.05298
#
# Static dielectric constant tensor:
#      x y z
#    x 4.041690 0.000000 0.000000 
#    y 0.000000 2.816870 0.000000 
#    z 0.000000 0.000000 3.481560 
# 
# 
# High freq. dielectric constant tensor:
#      x y z
#    x 1.763990 0.000000 0.000000 
#    y 0.000000 1.656530 0.000000 
#    z 0.000000 0.000000 1.746040 
# 
# From -- ./inp_files/20218.got.cif
#   From: 2010.03.12/outbox.cif.g09.slc.cpg/sg72_11_cif.got.tgz:20218.got - 2010.04.16 14:54:00.
