data_PCOD8294151
_publ_section_title
;
Structure prediction by ZEFSAII (Michael W. Deem and Ramdas Pophale) SiO2 
 PCOD8294151
Probable space group: I B A M
;
_chemical_formula_sum "Si O2"
_cell_formula_units_Z 80
_cell_length_a 13.344440
_cell_length_b 11.820375
_cell_length_c 26.282281
_cell_angle_alpha 90.000000
_cell_angle_beta 90.000000
_cell_angle_gamma 90.000000
_cell_volume 4145.669365
_symmetry_space_group_name_H-M "I B A M"
_symmetry_group_IT_number 72
_symmetry_cell_setting 'orthorhombic'
loop_
_space_group_symop_operation_xyz
x,y,z
-x,-y,z
x,-y,1/2-z
-x,y,1/2-z
-x,-y,-z
x,y,-z
-x,y,1/2+z
x,-y,1/2+z
1/2+x,1/2+y,1/2+z
1/2-x,1/2-y,1/2+z
1/2+x,1/2-y,-z
1/2-x,1/2+y,-z
1/2-x,1/2-y,1/2-z
1/2+x,1/2+y,1/2-z
1/2-x,1/2+y,z
1/2+x,1/2-y,z
loop_
_atom_site_type_symbol
_atom_site_label
_atom_site_fract_x
_atom_site_fract_y
_atom_site_fract_z
Si Si1 0.404185 0.349576 0.000000
Si Si2 0.717464 0.784380 0.081805
Si Si3 0.775892 0.652800 0.822775
Si Si4 0.897796 0.437946 0.158284
Si Si5 0.136325 0.113518 0.000000
Si Si6 0.395607 0.737808 0.264673
O O1 0.358943 0.290658 0.049521
O O2 0.524448 0.334599 0.000000
O O3 0.370120 0.478972 0.000000
O O4 0.776309 0.703277 0.120648
O O5 0.648810 0.877087 0.109474
O O6 0.803358 0.845773 0.049448
O O7 0.817468 0.527342 0.821379
O O8 0.663189 0.649604 0.800384
O O9 0.837568 0.738608 0.787497
O O10 0.918561 0.353354 0.204620
O O11 0.000000 0.500000 0.141724
O O12 0.500000 0.679532 0.250000
#
# Coordination Sequence:
#
# PCOD8294151 Si02
#       6
#     8  16  16  16   8  16
#     4  10  22  42  63  83 115 165 192 246 316 370
#     4  10  23  39  59  91 118 150 207 251 301 358
#     4  10  21  34  58  87 123 153 200 249 294 353
#     4  11  21  35  61  89 120 161 199 250 299 359
#     4  10  22  42  63  81 121 159 194 250 316 364
#     4  10  20  36  56  86 120 164 200 239 300 353
#
# _framework density 19.297245
#
# number of rings (size 3 to 8) (size 9 to 14) (size 15 to 20)
#    0.000    1.800    2.000    1.800    2.800    0.000 
#    0.000    1.000    0.000   20.400    0.000    0.000 
#    0.000    0.000    0.000    0.000    0.000    0.000 
#
# Total GULP energy -496074.123544 kJ/mol
# GULP energy per Si atom -12401.853089 kJ/mol
# Density = 1.925332 g / cm^3
# Si number density = 19.297245 Si / 1000 Ang^3
#
#
#
# Elastic Constant Matrix: (Units=GPa)
#
#
# Indices 1 2 3 4 5 6 
#
# 1 149.0554 49.7222 51.5461 0.0000 0.0000 0.0000
# 2 49.7222 69.2457 21.5481 0.0000 0.0000 0.0000
# 3 51.5461 21.5481 114.2176 0.0000 0.0000 0.0000
# 4 0.0000 0.0000 0.0000 9.4942 0.0000 0.0000
# 5 0.0000 0.0000 0.0000 0.0000 26.3961 0.0000
# 6 0.0000 0.0000 0.0000 0.0000 0.0000 34.2125
#
#
#
# Elastic Compliance Matrix: (Units=1/GPa)
#
#
# Indices 1 2 3 4 5 6 
#
# 1 0.009877 -0.006061 -0.003314 0.000000 0.000000 0.000000
# 2 -0.006061 0.019061 -0.000861 0.000000 0.000000 0.000000
# 3 -0.003314 -0.000861 0.010413 0.000000 0.000000 0.000000
# 4 0.000000 0.000000 0.000000 0.105328 0.000000 0.000000
# 5 0.000000 0.000000 0.000000 0.000000 0.037884 0.000000
# 6 0.000000 0.000000 0.000000 0.000000 0.000000 0.029229
#
#
# Mechanical properties :
#
#
# Convention : Reuss Voigt Hill
#
# Bulk Modulus (GPa) = 52.96609 64.23908 58.60259
# Shear Modulus (GPa) = 20.95938 28.00070 24.48004
#
# Velocity S-wave (km/s) = 3.29923 3.81336 3.56557
# Velocity P-wave (km/s) = 6.48231 7.26295 6.88370
#
# Compressibility (1/GPa) = 0.01888000
#
# Stress axis : x y z
#
# Youngs Moduli (GPa) = 101.24850 52.46262 96.03214
#
# Poissons Ratio (x) = 0.31796 0.31824
# Poissons Ratio (y) = 0.61364 0.08267
# Poissons Ratio (z) = 0.33553 0.04516
#
# Static dielectric constant tensor:
#      x y z
#    x 3.724920 0.000000 0.000000 
#    y 0.000000 3.390770 0.000000 
#    z 0.000000 0.000000 3.647760 
# 
# 
# High freq. dielectric constant tensor:
#      x y z
#    x 1.764550 0.000000 0.000000 
#    y 0.000000 1.740490 0.000000 
#    z 0.000000 0.000000 1.761580 
# 
# From -- ./inp_files/48561.got.cif
#   From: 2010.03.12/outbox.cif.g09.slc.cpg/sg72_25_cif.got.tgz:48561.got - 2010.04.16 14:54:00.
