data_PCOD8294085
_publ_section_title
;
Structure prediction by ZEFSAII (Michael W. Deem and Ramdas Pophale) SiO2 
 PCOD8294085
Probable space group: I B A M
;
_chemical_formula_sum "Si O2"
_cell_formula_units_Z 96
_cell_length_a 12.798968
_cell_length_b 17.742800
_cell_length_c 21.635131
_cell_angle_alpha 90.000000
_cell_angle_beta 90.000000
_cell_angle_gamma 90.000000
_cell_volume 4913.111718
_symmetry_space_group_name_H-M "I B A M"
_symmetry_group_IT_number 72
_symmetry_cell_setting 'orthorhombic'
loop_
_space_group_symop_operation_xyz
x,y,z
-x,-y,z
x,-y,1/2-z
-x,y,1/2-z
-x,-y,-z
x,y,-z
-x,y,1/2+z
x,-y,1/2+z
1/2+x,1/2+y,1/2+z
1/2-x,1/2-y,1/2+z
1/2+x,1/2-y,-z
1/2-x,1/2+y,-z
1/2-x,1/2-y,1/2-z
1/2+x,1/2+y,1/2-z
1/2-x,1/2+y,z
1/2+x,1/2-y,z
loop_
_atom_site_type_symbol
_atom_site_label
_atom_site_fract_x
_atom_site_fract_y
_atom_site_fract_z
Si Si1 0.865749 0.694570 0.861573
Si Si2 0.241003 0.848406 0.362266
Si Si3 0.376641 0.911311 0.749819
Si Si4 0.380718 0.522291 0.071970
Si Si5 0.313297 0.633256 0.429382
Si Si6 0.075478 0.721734 0.072197
O O1 0.827078 0.776825 0.839357
O O2 0.836855 0.632627 0.810154
O O3 0.800506 0.669013 0.921356
O O4 0.985419 0.692436 0.882506
O O5 0.313682 0.877648 0.307350
O O6 0.156497 0.908048 0.386677
O O7 0.320391 0.827967 0.417864
O O8 0.500000 0.895017 0.750000
O O9 0.353136 0.000000 0.750000
O O10 0.500000 0.500000 0.082808
O O11 0.318880 0.449977 0.099645
O O12 0.358368 0.540932 0.000000
O O13 0.339286 0.620584 0.500000
O O14 0.401027 0.692433 0.405608
O O15 0.043632 0.717013 0.000000
#
# Coordination Sequence:
#
# PCOD8294085 Si02
#       6
#    16  16  16  16  16  16
#     4  11  21  37  60  85 115 154 195 248 297 352
#     4  11  22  38  61  87 120 156 203 254 299 356
#     4  11  23  41  62  82 113 156 203 249 304 362
#     4  10  20  36  59  88 122 159 195 237 301 368
#     4   9  19  34  54  83 118 152 189 236 294 358
#     4  10  20  35  57  89 122 155 197 242 297 363
#
# _framework density 19.539553000000002
#
# number of rings (size 3 to 8) (size 9 to 14) (size 15 to 20)
#    0.000    1.667    1.667    3.500    0.000    3.333 
#    0.000    0.000    0.000    5.000    0.000    0.000 
#    0.000    0.000    0.000    0.000    0.000    0.000 
#
# Total GULP energy -594811.551707 kJ/mol
# GULP energy per Si atom -12391.907327 kJ/mol
# Density = 1.949508 g / cm^3
# Si number density = 19.539553 Si / 1000 Ang^3
#
#
#
# Elastic Constant Matrix: (Units=GPa)
#
#
# Indices 1 2 3 4 5 6 
#
# 1 94.3238 50.9317 34.3196 0.0000 0.0000 0.0000
# 2 50.9317 143.5793 47.4030 0.0000 0.0000 0.0000
# 3 34.3196 47.4030 75.7969 0.0000 0.0000 0.0000
# 4 0.0000 0.0000 0.0000 32.9354 0.0000 0.0000
# 5 0.0000 0.0000 0.0000 0.0000 23.1525 0.0000
# 6 0.0000 0.0000 0.0000 0.0000 0.0000 31.9574
#
#
#
# Elastic Compliance Matrix: (Units=1/GPa)
#
#
# Indices 1 2 3 4 5 6 
#
# 1 0.014052 -0.003635 -0.004090 0.000000 0.000000 0.000000
# 2 -0.003635 0.009717 -0.004431 0.000000 0.000000 0.000000
# 3 -0.004090 -0.004431 0.017816 0.000000 0.000000 0.000000
# 4 0.000000 0.000000 0.000000 0.030362 0.000000 0.000000
# 5 0.000000 0.000000 0.000000 0.000000 0.043192 0.000000
# 6 0.000000 0.000000 0.000000 0.000000 0.000000 0.031292
#
#
# Mechanical properties :
#
#
# Convention : Reuss Voigt Hill
#
# Bulk Modulus (GPa) = 57.88861 64.33429 61.11145
# Shear Modulus (GPa) = 28.32845 29.67876 29.00361
#
# Velocity S-wave (km/s) = 3.81176 3.90154 3.85691
# Velocity P-wave (km/s) = 7.00452 7.30018 7.15388
#
# Compressibility (1/GPa) = 0.01727455
#
# Stress axis : x y z
#
# Youngs Moduli (GPa) = 71.16253 102.91127 56.12859
#
# Poissons Ratio (x) = 0.37404 0.22954
# Poissons Ratio (y) = 0.25865 0.24873
# Poissons Ratio (z) = 0.29103 0.45604
#
# Static dielectric constant tensor:
#      x y z
#    x 3.496650 0.000000 0.000000 
#    y 0.000000 4.022730 0.000000 
#    z 0.000000 0.000000 3.360810 
# 
# 
# High freq. dielectric constant tensor:
#      x y z
#    x 1.765960 0.000000 0.000000 
#    y 0.000000 1.779210 0.000000 
#    z 0.000000 0.000000 1.740380 
# 
# From -- ./inp_files/43321.got.cif
#   From: 2010.03.12/outbox.cif.g09.slc.cpg/sg72_22_cif.got.tgz:43321.got - 2010.04.16 14:54:00.
