data_PCOD8294910
_publ_section_title
;
Structure prediction by ZEFSAII (Michael W. Deem and Ramdas Pophale) SiO2 
 PCOD8294910
Probable space group: I B A M
;
_chemical_formula_sum "Si O2"
_cell_formula_units_Z 116
_cell_length_a 11.009814
_cell_length_b 27.658646
_cell_length_c 18.628778
_cell_angle_alpha 90.000000
_cell_angle_beta 90.000000
_cell_angle_gamma 90.000000
_cell_volume 5672.771169
_symmetry_space_group_name_H-M "I B A M"
_symmetry_group_IT_number 72
_symmetry_cell_setting 'orthorhombic'
loop_
_space_group_symop_operation_xyz
x,y,z
-x,-y,z
x,-y,1/2-z
-x,y,1/2-z
-x,-y,-z
x,y,-z
-x,y,1/2+z
x,-y,1/2+z
1/2+x,1/2+y,1/2+z
1/2-x,1/2-y,1/2+z
1/2+x,1/2-y,-z
1/2-x,1/2+y,-z
1/2-x,1/2-y,1/2-z
1/2+x,1/2+y,1/2-z
1/2-x,1/2+y,z
1/2+x,1/2-y,z
loop_
_atom_site_type_symbol
_atom_site_label
_atom_site_fract_x
_atom_site_fract_y
_atom_site_fract_z
Si Si1 0.888165 0.612444 0.845760
Si Si2 0.853874 0.368809 0.183916
Si Si3 0.500000 0.500000 0.250000
Si Si4 0.861235 0.484503 0.416866
Si Si5 0.978117 0.856760 0.082052
Si Si6 0.338043 0.557825 0.140535
Si Si7 0.250393 0.792998 0.414874
Si Si8 0.275861 0.683955 0.416579
O O1 0.864770 0.637737 0.769103
O O2 0.828113 0.560366 0.864055
O O3 0.841992 0.651439 0.902769
O O4 0.032145 0.603431 0.851371
O O5 0.735962 0.401069 0.179558
O O6 0.845502 0.319758 0.137527
O O7 0.411593 0.530247 0.200446
O O8 0.852790 0.468457 0.500000
O O9 0.756570 0.524693 0.404085
O O10 0.000000 0.500000 0.399555
O O11 0.936196 0.912506 0.093257
O O12 0.879493 0.816516 0.103122
O O13 0.105617 0.841702 0.120765
O O14 0.009243 0.852316 0.000000
O O15 0.282517 0.799890 0.500000
O O16 0.252540 0.737981 0.387750
O O17 0.295199 0.689639 0.500000
#
# Coordination Sequence:
#
# PCOD8294910 Si02
#       8
#    16  16   4  16  16  16  16  16
#     4  11  23  40  60  93 127 162 211 259 323 375
#     4  10  23  41  63  88 126 166 205 263 319 377
#     4  12  28  40  68  88 124 176 224 252 320 388
#     4  11  23  41  67  97 126 166 216 270 328 387
#     4   9  20  39  60  87 123 160 198 254 319 368
#     4  11  23  43  60  90 122 166 214 261 313 385
#     4   9  20  39  64  90 119 163 211 257 315 380
#     4  10  22  38  63  94 125 161 209 262 312 375
#
# _framework density 20.448561000000002
#
# number of rings (size 3 to 8) (size 9 to 14) (size 15 to 20)
#    0.000    1.793    1.379    1.655    5.793    2.207 
#    0.000    0.690    0.000    0.000    0.000    0.000 
#    0.000    0.000    0.000    0.000    0.000    0.000 
#
# Total GULP energy -718538.910175 kJ/mol
# GULP energy per Si atom -12388.601900 kJ/mol
# Density = 2.040202 g / cm^3
# Si number density = 20.448561 Si / 1000 Ang^3
#
#
#
# Elastic Constant Matrix: (Units=GPa)
#
#
# Indices 1 2 3 4 5 6 
#
# 1 77.8795 42.7734 33.3630 0.0000 0.0000 0.0000
# 2 42.7734 140.2454 40.9410 -0.0001 0.0000 -0.0002
# 3 33.3630 40.9410 54.6470 -0.0004 0.0001 -0.0013
# 4 0.0000 -0.0001 -0.0004 51.2635 0.0000 -0.0004
# 5 0.0000 0.0000 0.0001 0.0000 30.4834 0.0005
# 6 0.0000 -0.0002 -0.0013 -0.0004 0.0005 172.5574
#
#
#
# Elastic Compliance Matrix: (Units=1/GPa)
#
#
# Indices 1 2 3 4 5 6 
#
# 1 0.018306 -0.002970 -0.008951 0.000000 0.000000 0.000000
# 2 -0.002970 0.009608 -0.005385 0.000000 0.000000 0.000000
# 3 -0.008951 -0.005385 0.027798 0.000000 0.000000 0.000000
# 4 0.000000 0.000000 0.000000 0.019507 0.000000 0.000000
# 5 0.000000 0.000000 0.000000 0.000000 0.032805 0.000000
# 6 0.000000 0.000000 0.000000 0.000000 0.000000 0.005795
#
#
# Mechanical properties :
#
#
# Convention : Reuss Voigt Hill
#
# Bulk Modulus (GPa) = 47.39254 56.32519 51.85886
# Shear Modulus (GPa) = 32.16137 61.24050 46.70094
#
# Velocity S-wave (km/s) = 3.97015 5.47847 4.78412
# Velocity P-wave (km/s) = 6.65153 8.22330 7.47882
#
# Compressibility (1/GPa) = 0.02110037
#
# Stress axis : x y z
#
# Youngs Moduli (GPa) = 54.62622 104.07714 35.97317
#
# Poissons Ratio (x) = 0.30913 0.32200
# Poissons Ratio (y) = 0.16225 0.19372
# Poissons Ratio (z) = 0.48896 0.56046
#
# Static dielectric constant tensor:
#      x y z
#    x 3.987440 0.000000 0.000000 
#    y 0.000000 3.845790 0.000000 
#    z 0.000000 0.000000 3.546020 
# 
# 
# High freq. dielectric constant tensor:
#      x y z
#    x 1.809890 0.000000 0.000000 
#    y 0.000000 1.803350 0.000000 
#    z 0.000000 0.000000 1.783410 
# 
# From -- ./inp_files/29700.got.cif
#   From: 2010.03.12/outbox.cif.g09.slc.cpg/sg72_15_cif.got.tgz:29700.got - 2010.04.16 14:54:00.
