data_PCOD8294549
_publ_section_title
;
Structure prediction by ZEFSAII (Michael W. Deem and Ramdas Pophale) SiO2 
 PCOD8294549
Probable space group: I B A M
;
_chemical_formula_sum "Si O2"
_cell_formula_units_Z 96
_cell_length_a 11.909438
_cell_length_b 22.527563
_cell_length_c 17.803940
_cell_angle_alpha 90.000000
_cell_angle_beta 90.000000
_cell_angle_gamma 90.000000
_cell_volume 4776.630009
_symmetry_space_group_name_H-M "I B A M"
_symmetry_group_IT_number 72
_symmetry_cell_setting 'orthorhombic'
loop_
_space_group_symop_operation_xyz
x,y,z
-x,-y,z
x,-y,1/2-z
-x,y,1/2-z
-x,-y,-z
x,y,-z
-x,y,1/2+z
x,-y,1/2+z
1/2+x,1/2+y,1/2+z
1/2-x,1/2-y,1/2+z
1/2+x,1/2-y,-z
1/2-x,1/2+y,-z
1/2-x,1/2-y,1/2-z
1/2+x,1/2+y,1/2-z
1/2-x,1/2+y,z
1/2+x,1/2-y,z
loop_
_atom_site_type_symbol
_atom_site_label
_atom_site_fract_x
_atom_site_fract_y
_atom_site_fract_z
Si Si1 0.299965 0.951100 0.411653
Si Si2 0.812467 0.412790 0.413735
Si Si3 0.361342 0.632357 0.165962
Si Si4 0.518831 0.124442 0.669577
Si Si5 0.883582 0.148297 0.156818
Si Si6 0.308883 0.773340 0.675473
O O1 0.277575 0.942492 0.500000
O O2 0.190763 0.929075 0.365061
O O3 0.408850 0.914709 0.387111
O O4 0.327256 0.018743 0.391265
O O5 0.838400 0.402224 0.500000
O O6 0.896097 0.369407 0.367864
O O7 0.684762 0.396528 0.394916
O O8 0.357625 0.633780 0.256279
O O9 0.486753 0.639172 0.136330
O O10 0.284104 0.686219 0.132976
O O11 0.500000 0.092536 0.750000
O O12 0.578440 0.187498 0.687672
O O13 0.848697 0.214857 0.131444
O O14 0.250000 0.750000 0.750000
#
# Coordination Sequence:
#
# PCOD8294549 Si02
#       6
#    16  16  16  16  16  16
#     4  10  22  41  60  82 121 164 200 244 300 360
#     4  11  24  40  58  86 124 161 200 246 302 361
#     4   9  20  37  60  89 115 157 204 250 300 357
#     4  11  22  36  65  93 115 154 195 248 302 356
#     4  10  21  36  60  89 120 154 202 254 296 351
#     4   9  19  35  60  87 119 152 190 244 302 357
#
# _framework density 20.097852
#
# number of rings (size 3 to 8) (size 9 to 14) (size 15 to 20)
#    0.000    2.000    0.000    4.000    7.000    6.000 
#    0.000    7.500    0.000    0.000    0.000    0.000 
#    0.000    0.000    0.000    0.000    0.000    0.000 
#
# Total GULP energy -595015.195172 kJ/mol
# GULP energy per Si atom -12396.149899 kJ/mol
# Density = 2.005211 g / cm^3
# Si number density = 20.097852 Si / 1000 Ang^3
#
#
#
# Elastic Constant Matrix: (Units=GPa)
#
#
# Indices 1 2 3 4 5 6 
#
# 1 138.4201 38.9134 38.3803 0.0000 0.0000 0.0000
# 2 38.9134 75.9252 39.9291 0.0001 0.0000 0.0000
# 3 38.3803 39.9291 61.4577 0.0002 0.0000 0.0000
# 4 0.0000 0.0001 0.0002 11.6928 0.0000 0.0000
# 5 0.0000 0.0000 0.0000 0.0000 25.9062 0.0000
# 6 0.0000 0.0000 0.0000 0.0000 0.0000 26.1154
#
#
#
# Elastic Compliance Matrix: (Units=1/GPa)
#
#
# Indices 1 2 3 4 5 6 
#
# 1 0.009046 -0.002530 -0.004006 0.000000 0.000000 0.000000
# 2 -0.002530 0.020714 -0.011878 0.000000 0.000000 0.000000
# 3 -0.004006 -0.011878 0.026490 0.000000 0.000000 0.000000
# 4 0.000000 0.000000 0.000000 0.085523 0.000000 0.000000
# 5 0.000000 0.000000 0.000000 0.000000 0.038601 0.000000
# 6 0.000000 0.000000 0.000000 0.000000 0.000000 0.038292
#
#
# Mechanical properties :
#
#
# Convention : Reuss Voigt Hill
#
# Bulk Modulus (GPa) = 51.48485 56.69429 54.08957
# Shear Modulus (GPa) = 19.08633 23.31490 21.20061
#
# Velocity S-wave (km/s) = 3.08501 3.40967 3.25140
# Velocity P-wave (km/s) = 6.19374 6.61601 6.40835
#
# Compressibility (1/GPa) = 0.01942319
#
# Stress axis : x y z
#
# Youngs Moduli (GPa) = 110.54285 48.27614 37.74974
#
# Poissons Ratio (x) = 0.12213 0.15122
# Poissons Ratio (y) = 0.27965 0.44840
# Poissons Ratio (z) = 0.44281 0.57343
#
# Static dielectric constant tensor:
#      x y z
#    x 3.880610 0.000000 0.000000 
#    y 0.000000 3.840750 0.000000 
#    z 0.000000 0.000000 3.361330 
# 
# 
# High freq. dielectric constant tensor:
#      x y z
#    x 1.802710 0.000000 0.000000 
#    y 0.000000 1.782840 0.000000 
#    z 0.000000 0.000000 1.757760 
# 
# From -- ./inp_files/37136.got.cif
#   From: 2010.03.12/outbox.cif.g09.slc.cpg/sg72_19_cif.got.tgz:37136.got - 2010.04.16 14:54:00.
