data_PCOD8294019
_publ_section_title
;
Structure prediction by ZEFSAII (Michael W. Deem and Ramdas Pophale) SiO2 
 PCOD8294019
Probable space group: I B A M
;
_chemical_formula_sum "Si O2"
_cell_formula_units_Z 116
_cell_length_a 29.106073
_cell_length_b 24.409715
_cell_length_c 8.992898
_cell_angle_alpha 90.000000
_cell_angle_beta 90.000000
_cell_angle_gamma 90.000000
_cell_volume 6389.192756
_symmetry_space_group_name_H-M "I B A M"
_symmetry_group_IT_number 72
_symmetry_cell_setting 'orthorhombic'
loop_
_space_group_symop_operation_xyz
x,y,z
-x,-y,z
x,-y,1/2-z
-x,y,1/2-z
-x,-y,-z
x,y,-z
-x,y,1/2+z
x,-y,1/2+z
1/2+x,1/2+y,1/2+z
1/2-x,1/2-y,1/2+z
1/2+x,1/2-y,-z
1/2-x,1/2+y,-z
1/2-x,1/2-y,1/2-z
1/2+x,1/2+y,1/2-z
1/2-x,1/2+y,z
1/2+x,1/2-y,z
loop_
_atom_site_type_symbol
_atom_site_label
_atom_site_fract_x
_atom_site_fract_y
_atom_site_fract_z
Si Si1 0.815230 0.650282 0.322616
Si Si2 0.733045 0.693884 0.175697
Si Si3 0.386419 0.225351 0.322651
Si Si4 0.954296 0.366698 0.334413
Si Si5 0.371374 0.057260 0.329725
Si Si6 0.409918 0.551214 0.335293
Si Si7 0.627880 0.666877 0.174710
Si Si8 0.500000 0.500000 0.250000
O O1 0.813262 0.653685 0.500000
O O2 0.764685 0.647354 0.250563
O O3 0.840298 0.704895 0.259991
O O4 0.839848 0.595910 0.268910
O O5 0.750000 0.750000 0.250000
O O6 0.681551 0.674034 0.212429
O O7 0.740784 0.698511 0.000000
O O8 0.378891 0.221969 0.500000
O O9 0.427626 0.185930 0.268974
O O10 0.398677 0.286214 0.267377
O O11 0.968987 0.352093 0.500000
O O12 0.923046 0.420511 0.327384
O O13 0.000000 0.380875 0.250000
O O14 0.353444 0.053947 0.500000
O O15 0.370470 0.000000 0.250000
O O16 0.386468 0.500000 0.250000
O O17 0.389957 0.549833 0.500000
O O18 0.393502 0.609246 0.265854
O O19 0.465743 0.541334 0.339779
O O20 0.617916 0.674113 0.000000
#
# Coordination Sequence:
#
# PCOD8294019 Si02
#       8
#    16  16  16  16  16  16  16   4
#     4  11  21  35  56  81 111 148 185 225 279 331
#     4  11  21  34  55  82 113 148 188 229 274 331
#     4  10  20  35  54  79 110 144 184 229 276 329
#     4   9  20  36  53  76 108 144 181 226 278 330
#     4  10  21  38  58  82 109 141 186 233 277 329
#     4   9  19  36  58  83 110 141 182 226 275 328
#     4  10  21  36  55  82 113 146 183 228 278 332
#     4   8  18  36  66  80 106 144 186 232 272 332
#
# _framework density 18.155657000000001
#
# number of rings (size 3 to 8) (size 9 to 14) (size 15 to 20)
#    0.414    1.655    1.379    3.517    0.000    4.690 
#    1.241    2.069    0.000    1.655    0.000    0.000 
#    0.000    0.000    0.000    0.000    0.000    0.000 
#
# Total GULP energy -718779.398280 kJ/mol
# GULP energy per Si atom -12392.748246 kJ/mol
# Density = 1.811433 g / cm^3
# Si number density = 18.155657 Si / 1000 Ang^3
#
#
#
# Elastic Constant Matrix: (Units=GPa)
#
#
# Indices 1 2 3 4 5 6 
#
# 1 70.6588 33.6277 23.3342 0.0000 0.0000 0.0000
# 2 33.6277 137.6909 37.9643 0.0000 0.0000 0.0000
# 3 23.3342 37.9643 87.8288 0.0000 0.0000 0.0000
# 4 0.0000 0.0000 0.0000 33.8798 0.0000 0.0000
# 5 0.0000 0.0000 0.0000 0.0000 25.5888 0.0000
# 6 0.0000 0.0000 0.0000 0.0000 0.0000 -53.2497
#
#
#
# Elastic Compliance Matrix: (Units=1/GPa)
#
#
# Indices 1 2 3 4 5 6 
#
# 1 0.016697 -0.003241 -0.003035 0.000000 0.000000 0.000000
# 2 -0.003241 0.008874 -0.002975 0.000000 0.000000 0.000000
# 3 -0.003035 -0.002975 0.013478 0.000000 0.000000 0.000000
# 4 0.000000 0.000000 0.000000 0.029516 0.000000 0.000000
# 5 0.000000 0.000000 0.000000 0.000000 0.039080 0.000000
# 6 0.000000 0.000000 0.000000 0.000000 0.000000 -0.018779
#
#
# Mechanical properties :
#
#
# Convention : Reuss Voigt Hill
#
# Bulk Modulus (GPa) = 48.66760 54.00342 51.33551
# Shear Modulus (GPa) = 43.77609 14.66059 29.21834
#
# Velocity S-wave (km/s) = 4.91568 2.84473 4.01599
# Velocity P-wave (km/s) = 7.68651 6.37175 7.05980
#
# Compressibility (1/GPa) = 0.02054755
#
# Stress axis : x y z
#
# Youngs Moduli (GPa) = 59.88990 112.68309 74.19445
#
# Poissons Ratio (x) = 0.36521 0.22519
# Poissons Ratio (y) = 0.19411 0.22072
# Poissons Ratio (z) = 0.18178 0.33522
#
# Static dielectric constant tensor:
#      x y z
#    x 3.454710 0.000000 0.000000 
#    y 0.000000 3.315190 0.000000 
#    z 0.000000 0.000000 3.354530 
# 
# 
# High freq. dielectric constant tensor:
#      x y z
#    x 1.690810 0.000000 0.000000 
#    y 0.000000 1.700870 0.000000 
#    z 0.000000 0.000000 1.708730 
# 
# From -- ./inp_files/9397.got.cif
#   From: 2010.03.12/outbox.cif.g09.slc.cpg/sg72_5_cif.got.tgz:9397.got - 2010.04.16 14:54:00.
