data_PCOD8294711
_publ_section_title
;
Structure prediction by ZEFSAII (Michael W. Deem and Ramdas Pophale) SiO2 
 PCOD8294711
Probable space group: I B A M
;
_chemical_formula_sum "Si O2"
_cell_formula_units_Z 108
_cell_length_a 22.473578
_cell_length_b 16.150009
_cell_length_c 13.720307
_cell_angle_alpha 90.000000
_cell_angle_beta 90.000000
_cell_angle_gamma 90.000000
_cell_volume 4979.764666
_symmetry_space_group_name_H-M "I B A M"
_symmetry_group_IT_number 72
_symmetry_cell_setting 'orthorhombic'
loop_
_space_group_symop_operation_xyz
x,y,z
-x,-y,z
x,-y,1/2-z
-x,y,1/2-z
-x,-y,-z
x,y,-z
-x,y,1/2+z
x,-y,1/2+z
1/2+x,1/2+y,1/2+z
1/2-x,1/2-y,1/2+z
1/2+x,1/2-y,-z
1/2-x,1/2+y,-z
1/2-x,1/2-y,1/2-z
1/2+x,1/2+y,1/2-z
1/2-x,1/2+y,z
1/2+x,1/2-y,z
loop_
_atom_site_type_symbol
_atom_site_label
_atom_site_fract_x
_atom_site_fract_y
_atom_site_fract_z
Si Si1 0.122411 0.787533 0.220992
Si Si2 0.831173 0.115639 0.613694
Si Si3 0.828968 0.464683 0.391895
Si Si4 0.000000 0.714397 0.250000
Si Si5 0.397838 0.555686 0.386670
Si Si6 0.965269 0.576813 0.892265
Si Si7 0.500000 0.500000 0.250000
Si Si8 0.797049 0.626538 0.707940
O O1 0.125775 0.819070 0.333103
O O2 0.053649 0.765894 0.203354
O O3 0.138310 0.862357 0.146381
O O4 0.168127 0.713024 0.199775
O O5 0.828250 0.136892 0.500000
O O6 0.768195 0.132572 0.664000
O O7 0.854892 0.022870 0.632626
O O8 0.799462 0.461013 0.500000
O O9 0.895819 0.436207 0.395677
O O10 0.832351 0.558793 0.354642
O O11 0.792074 0.404478 0.320148
O O12 0.026543 0.660670 0.335836
O O13 0.415839 0.560459 0.500000
O O14 0.457796 0.553495 0.321319
O O15 0.000000 0.500000 0.841885
O O16 0.992214 0.588527 0.000000
#
# Coordination Sequence:
#
# PCOD8294711 Si02
#       8
#    16  16  16   8  16  16   4  16
#     4  12  25  44  69 107 141 175 231 288 350 410
#     4  11  26  49  72  97 136 183 233 287 351 418
#     4  10  22  40  66 100 136 181 228 269 332 412
#     4  12  24  40  65  97 144 178 214 289 341 401
#     4  11  26  46  74 104 135 182 233 289 350 417
#     4  10  21  38  63  95 132 180 228 266 328 412
#     4  12  20  48  76 100 144 178 242 284 340 422
#     4  11  24  43  71 104 139 180 227 287 341 408
#
# _framework density 21.687771999999999
#
# number of rings (size 3 to 8) (size 9 to 14) (size 15 to 20)
#    0.000    1.037    2.963    2.667    6.222    2.963 
#    0.000    0.000    0.000    0.000    0.000    0.000 
#    0.000    0.000    0.000    0.000    0.000    0.000 
#
# Total GULP energy -669549.450133 kJ/mol
# GULP energy per Si atom -12399.063891 kJ/mol
# Density = 2.163841 g / cm^3
# Si number density = 21.687772 Si / 1000 Ang^3
#
#
#
# Elastic Constant Matrix: (Units=GPa)
#
#
# Indices 1 2 3 4 5 6 
#
# 1 69.3586 26.4263 32.8022 0.0000 0.0000 0.0000
# 2 26.4263 110.4603 37.7211 0.0000 0.0000 0.0000
# 3 32.8022 37.7211 139.3053 0.0000 0.0000 0.0000
# 4 0.0000 0.0000 0.0000 16.0134 0.0000 0.0000
# 5 0.0000 0.0000 0.0000 0.0000 50.9378 0.0000
# 6 0.0000 0.0000 0.0000 0.0000 0.0000 10.7164
#
#
#
# Elastic Compliance Matrix: (Units=1/GPa)
#
#
# Indices 1 2 3 4 5 6 
#
# 1 0.017075 -0.002988 -0.003212 0.000000 0.000000 0.000000
# 2 -0.002988 0.010498 -0.002139 0.000000 0.000000 0.000000
# 3 -0.003212 -0.002139 0.008514 0.000000 0.000000 0.000000
# 4 0.000000 0.000000 0.000000 0.062448 0.000000 0.000000
# 5 0.000000 0.000000 0.000000 0.000000 0.019632 0.000000
# 6 0.000000 0.000000 0.000000 0.000000 0.000000 0.093315
#
#
# Mechanical properties :
#
#
# Convention : Reuss Voigt Hill
#
# Bulk Modulus (GPa) = 51.52073 57.00261 54.26167
# Shear Modulus (GPa) = 21.31014 30.34514 25.82764
#
# Velocity S-wave (km/s) = 3.13803 3.74462 3.45466
# Velocity P-wave (km/s) = 6.07757 6.71093 6.40209
#
# Compressibility (1/GPa) = 0.01940966
#
# Stress axis : x y z
#
# Youngs Moduli (GPa) = 58.56431 95.25227 117.45463
#
# Poissons Ratio (x) = 0.28465 0.37721
# Poissons Ratio (y) = 0.17501 0.25125
# Poissons Ratio (z) = 0.18808 0.20375
#
# Static dielectric constant tensor:
#      x y z
#    x 3.684760 0.000000 0.000000 
#    y 0.000000 4.016530 0.000000 
#    z 0.000000 0.000000 4.449710 
# 
# 
# High freq. dielectric constant tensor:
#      x y z
#    x 1.852700 0.000000 0.000000 
#    y 0.000000 1.856410 0.000000 
#    z 0.000000 0.000000 1.861720 
# 
# From -- ./inp_files/25234.got.cif
#   From: 2010.03.12/outbox.cif.g09.slc.cpg/sg72_13_cif.got.tgz:25234.got - 2010.04.16 14:54:00.
