data_PCOD8294098
_publ_section_title
;
Structure prediction by ZEFSAII (Michael W. Deem and Ramdas Pophale) SiO2 
 PCOD8294098
Probable space group: I B A M
;
_chemical_formula_sum "Si O2"
_cell_formula_units_Z 96
_cell_length_a 28.308231
_cell_length_b 20.218171
_cell_length_c 8.565040
_cell_angle_alpha 90.000000
_cell_angle_beta 90.000000
_cell_angle_gamma 90.000000
_cell_volume 4902.120604
_symmetry_space_group_name_H-M "I B A M"
_symmetry_group_IT_number 72
_symmetry_cell_setting 'orthorhombic'
loop_
_space_group_symop_operation_xyz
x,y,z
-x,-y,z
x,-y,1/2-z
-x,y,1/2-z
-x,-y,-z
x,y,-z
-x,y,1/2+z
x,-y,1/2+z
1/2+x,1/2+y,1/2+z
1/2-x,1/2-y,1/2+z
1/2+x,1/2-y,-z
1/2-x,1/2+y,-z
1/2-x,1/2-y,1/2-z
1/2+x,1/2+y,1/2-z
1/2-x,1/2+y,z
1/2+x,1/2-y,z
loop_
_atom_site_type_symbol
_atom_site_label
_atom_site_fract_x
_atom_site_fract_y
_atom_site_fract_z
Si Si1 0.787737 0.837590 0.679911
Si Si2 0.134399 0.072248 0.184098
Si Si3 0.407902 0.808505 0.678257
Si Si4 0.051202 0.174151 0.815889
Si Si5 0.812605 0.703135 0.175370
Si Si6 0.948815 0.564713 0.820160
O O1 0.801007 0.820339 0.500000
O O2 0.817771 0.900909 0.734697
O O3 0.796955 0.778502 0.799777
O O4 0.730922 0.848784 0.692108
O O5 0.089454 0.118003 0.226704
O O6 0.123231 0.000000 0.250000
O O7 0.142650 0.069061 0.000000
O O8 0.422911 0.820391 0.500000
O O9 0.432189 0.741731 0.736559
O O10 0.351539 0.808686 0.692883
O O11 0.421926 0.868475 0.787189
O O12 0.000000 0.152850 0.750000
O O13 0.047508 0.184955 0.000000
O O14 0.833886 0.698388 0.000000
O O15 0.922459 0.500000 0.750000
O O16 0.000000 0.571866 0.750000
O O17 0.953271 0.552340 0.000000
#
# Coordination Sequence:
#
# PCOD8294098 Si02
#       6
#    16  16  16  16  16  16
#     4  10  20  36  60  88 118 153 194 239 292 353
#     4  11  24  41  63  87 121 161 206 255 310 368
#     4  12  23  37  60  90 122 160 200 247 301 356
#     4  11  24  41  61  88 120 158 203 259 310 363
#     4  10  20  35  58  89 121 152 192 241 292 349
#     4  11  22  39  60  84 117 155 198 243 292 356
#
# _framework density 19.583362000000001
#
# number of rings (size 3 to 8) (size 9 to 14) (size 15 to 20)
#    0.000    1.167    1.667    6.000    0.000    4.333 
#    0.000    2.500    0.000    4.000    0.000    0.000 
#    0.000    0.000    0.000    0.000    0.000    0.000 
#
# Total GULP energy -595091.646576 kJ/mol
# GULP energy per Si atom -12397.742637 kJ/mol
# Density = 1.953879 g / cm^3
# Si number density = 19.583362 Si / 1000 Ang^3
#
#
#
# Elastic Constant Matrix: (Units=GPa)
#
#
# Indices 1 2 3 4 5 6 
#
# 1 78.9833 30.1233 20.2645 0.0000 0.0000 0.0000
# 2 30.1233 99.9662 16.3169 0.0000 0.0000 0.0000
# 3 20.2645 16.3169 101.3815 0.0000 0.0000 0.0000
# 4 0.0000 0.0000 0.0000 33.3450 0.0000 0.0000
# 5 0.0000 0.0000 0.0000 0.0000 34.2842 0.0000
# 6 0.0000 0.0000 0.0000 0.0000 0.0000 26.3973
#
#
#
# Elastic Compliance Matrix: (Units=1/GPa)
#
#
# Indices 1 2 3 4 5 6 
#
# 1 0.014810 -0.004087 -0.002303 0.000000 0.000000 0.000000
# 2 -0.004087 0.011401 -0.001018 0.000000 0.000000 0.000000
# 3 -0.002303 -0.001018 0.010488 0.000000 0.000000 0.000000
# 4 0.000000 0.000000 0.000000 0.029989 0.000000 0.000000
# 5 0.000000 0.000000 0.000000 0.000000 0.029168 0.000000
# 6 0.000000 0.000000 0.000000 0.000000 0.000000 0.037883
#
#
# Mechanical properties :
#
#
# Convention : Reuss Voigt Hill
#
# Bulk Modulus (GPa) = 45.69534 45.97115 45.83324
# Shear Modulus (GPa) = 32.08225 33.04706 32.56466
#
# Velocity S-wave (km/s) = 4.05191 4.11238 4.08226
# Velocity P-wave (km/s) = 6.72867 6.78782 6.75831
#
# Compressibility (1/GPa) = 0.02188407
#
# Stress axis : x y z
#
# Youngs Moduli (GPa) = 67.52007 87.71066 95.34865
#
# Poissons Ratio (x) = 0.35848 0.21955
# Poissons Ratio (y) = 0.27596 0.09707
# Poissons Ratio (z) = 0.15547 0.08929
#
# Static dielectric constant tensor:
#      x y z
#    x 3.983740 0.000000 0.000000 
#    y 0.000000 3.891500 0.000000 
#    z 0.000000 0.000000 3.688420 
# 
# 
# High freq. dielectric constant tensor:
#      x y z
#    x 1.765570 0.000000 0.000000 
#    y 0.000000 1.749160 0.000000 
#    z 0.000000 0.000000 1.783360 
# 
# From -- ./inp_files/5967.got.cif
#   From: 2010.03.12/outbox.cif.g09.slc.cpg/sg72_3_cif.got.tgz:5967.got - 2010.04.16 14:54:00.
