data_PCOD8294659
_publ_section_title
;
Structure prediction by ZEFSAII (Michael W. Deem and Ramdas Pophale) SiO2 
 PCOD8294659
Probable space group: I B A M
;
_chemical_formula_sum "Si O2"
_cell_formula_units_Z 104
_cell_length_a 25.041447
_cell_length_b 23.382343
_cell_length_c 8.910088
_cell_angle_alpha 90.000000
_cell_angle_beta 90.000000
_cell_angle_gamma 90.000000
_cell_volume 5217.103360
_symmetry_space_group_name_H-M "I B A M"
_symmetry_group_IT_number 72
_symmetry_cell_setting 'orthorhombic'
loop_
_space_group_symop_operation_xyz
x,y,z
-x,-y,z
x,-y,1/2-z
-x,y,1/2-z
-x,-y,-z
x,y,-z
-x,y,1/2+z
x,-y,1/2+z
1/2+x,1/2+y,1/2+z
1/2-x,1/2-y,1/2+z
1/2+x,1/2-y,-z
1/2-x,1/2+y,-z
1/2-x,1/2-y,1/2-z
1/2+x,1/2+y,1/2-z
1/2-x,1/2+y,z
1/2+x,1/2-y,z
loop_
_atom_site_type_symbol
_atom_site_label
_atom_site_fract_x
_atom_site_fract_y
_atom_site_fract_z
Si Si1 0.091142 0.773897 0.668471
Si Si2 0.387012 0.837011 0.675402
Si Si3 0.556579 0.060252 0.819856
Si Si4 0.235797 0.690387 0.825472
Si Si5 0.417575 0.556001 0.663833
Si Si6 0.168745 0.858834 0.178985
Si Si7 0.500000 0.354449 0.750000
O O1 0.110996 0.760970 0.500000
O O2 0.078189 0.714948 0.755141
O O3 0.138471 0.802785 0.762144
O O4 0.038692 0.813675 0.654359
O O5 0.400998 0.843878 0.500000
O O6 0.400104 0.893892 0.767554
O O7 0.324946 0.825735 0.703765
O O8 0.500000 0.078718 0.750000
O O9 0.574605 0.000000 0.750000
O O10 0.553030 0.056433 0.000000
O O11 0.250000 0.750000 0.750000
O O12 0.272331 0.640594 0.750566
O O13 0.249154 0.694453 0.000000
O O14 0.436928 0.500000 0.750000
O O15 0.403648 0.533573 0.500000
O O16 0.364053 0.584887 0.733281
O O17 0.463890 0.603698 0.648786
O O18 0.171380 0.855192 0.000000
#
# Coordination Sequence:
#
# PCOD8294659 Si02
#       7
#    16  16  16  16  16  16   8
#     4  11  22  36  57  85 118 158 201 246 303 361
#     4  11  24  40  60  91 127 160 199 248 298 357
#     4  11  23  43  69  94 124 161 201 246 298 360
#     4  11  22  37  61  89 122 159 198 244 299 361
#     4  10  22  39  59  83 114 155 202 252 300 351
#     4  10  21  38  58  83 118 156 197 249 302 356
#     4  10  23  38  56  84 121 156 202 252 302 356
#
# _framework density 19.934434
#
# number of rings (size 3 to 8) (size 9 to 14) (size 15 to 20)
#    0.000    1.385    1.538    4.385    1.077    8.000 
#    0.000    0.769    0.000    1.846    0.000    0.000 
#    0.000    0.000    0.000    0.000    0.000    0.000 
#
# Total GULP energy -644717.606063 kJ/mol
# GULP energy per Si atom -12398.415501 kJ/mol
# Density = 1.988906 g / cm^3
# Si number density = 19.934434 Si / 1000 Ang^3
#
#
#
# Elastic Constant Matrix: (Units=GPa)
#
#
# Indices 1 2 3 4 5 6 
#
# 1 92.1154 57.8508 46.6672 0.0000 0.0000 0.0000
# 2 57.8508 121.3597 59.2674 0.0000 0.0000 0.0000
# 3 46.6672 59.2674 143.8097 0.0000 0.0000 0.0000
# 4 0.0000 0.0000 0.0000 28.0604 0.0000 0.0000
# 5 0.0000 0.0000 0.0000 0.0000 25.9020 0.0000
# 6 0.0000 0.0000 0.0000 0.0000 0.0000 25.8354
#
#
#
# Elastic Compliance Matrix: (Units=1/GPa)
#
#
# Indices 1 2 3 4 5 6 
#
# 1 0.016237 -0.006469 -0.002603 0.000000 0.000000 0.000000
# 2 -0.006469 0.012893 -0.003214 0.000000 0.000000 0.000000
# 3 -0.002603 -0.003214 0.009123 0.000000 0.000000 0.000000
# 4 0.000000 0.000000 0.000000 0.035637 0.000000 0.000000
# 5 0.000000 0.000000 0.000000 0.000000 0.038607 0.000000
# 6 0.000000 0.000000 0.000000 0.000000 0.000000 0.038707
#
#
# Mechanical properties :
#
#
# Convention : Reuss Voigt Hill
#
# Bulk Modulus (GPa) = 73.09470 76.09507 74.59489
# Shear Modulus (GPa) = 27.72564 28.85952 28.29258
#
# Velocity S-wave (km/s) = 3.73345 3.80902 3.77142
# Velocity P-wave (km/s) = 7.43855 7.58949 7.51440
#
# Compressibility (1/GPa) = 0.01368088
#
# Stress axis : x y z
#
# Youngs Moduli (GPa) = 61.58626 77.55871 109.61137
#
# Poissons Ratio (x) = 0.50172 0.28534
# Poissons Ratio (y) = 0.39840 0.35234
# Poissons Ratio (z) = 0.16032 0.24931
#
# Static dielectric constant tensor:
#      x y z
#    x 3.801900 0.000000 0.000000 
#    y 0.000000 3.637360 0.000000 
#    z 0.000000 0.000000 3.641000 
# 
# 
# High freq. dielectric constant tensor:
#      x y z
#    x 1.774300 0.000000 0.000000 
#    y 0.000000 1.771230 0.000000 
#    z 0.000000 0.000000 1.788280 
# 
# From -- ./inp_files/8192.got.cif
#   From: 2010.03.12/outbox.cif.g09.slc.cpg/sg72_5_cif.got.tgz:8192.got - 2010.04.16 14:54:00.
