data_PCOD8294461
_publ_section_title
;
Structure prediction by ZEFSAII (Michael W. Deem and Ramdas Pophale) SiO2 
 PCOD8294461
Probable space group: I B A M
;
_chemical_formula_sum "Si O2"
_cell_formula_units_Z 128
_cell_length_a 17.376866
_cell_length_b 21.864387
_cell_length_c 20.101666
_cell_angle_alpha 90.000000
_cell_angle_beta 90.000000
_cell_angle_gamma 90.000000
_cell_volume 7637.316885
_symmetry_space_group_name_H-M "I B A M"
_symmetry_group_IT_number 72
_symmetry_cell_setting 'orthorhombic'
loop_
_space_group_symop_operation_xyz
x,y,z
-x,-y,z
x,-y,1/2-z
-x,y,1/2-z
-x,-y,-z
x,y,-z
-x,y,1/2+z
x,-y,1/2+z
1/2+x,1/2+y,1/2+z
1/2-x,1/2-y,1/2+z
1/2+x,1/2-y,-z
1/2-x,1/2+y,-z
1/2-x,1/2-y,1/2-z
1/2+x,1/2+y,1/2-z
1/2-x,1/2+y,z
1/2+x,1/2-y,z
loop_
_atom_site_type_symbol
_atom_site_label
_atom_site_fract_x
_atom_site_fract_y
_atom_site_fract_z
Si Si1 0.281974 0.931858 0.732720
Si Si2 0.410022 0.928026 0.621814
Si Si3 0.205922 0.231262 0.346750
Si Si4 0.576020 0.207681 0.576273
Si Si5 0.664029 0.853525 0.647926
Si Si6 0.451899 0.244900 0.682867
Si Si7 0.571965 0.945118 0.574501
Si Si8 0.180067 0.825539 0.289035
O O1 0.359830 0.928567 0.688740
O O2 0.301502 0.902454 0.802564
O O3 0.206402 0.896638 0.702500
O O4 0.255944 0.000000 0.750000
O O5 0.399166 0.863069 0.585620
O O6 0.502943 0.937310 0.628955
O O7 0.384627 0.989205 0.581136
O O8 0.147000 0.249862 0.403741
O O9 0.269757 0.189344 0.382401
O O10 0.164435 0.193290 0.287760
O O11 0.244403 0.291092 0.315308
O O12 0.554572 0.219081 0.500000
O O13 0.503694 0.230770 0.619043
O O14 0.604980 0.812494 0.690676
O O15 0.629319 0.889049 0.585267
O O16 0.500000 0.250335 0.750000
O O17 0.399081 0.306624 0.672457
O O18 0.537771 0.939247 0.500000
#
# Coordination Sequence:
#
# PCOD8294461 Si02
#       8
#    16  16  16  16  16  16  16  16
#     4  11  20  34  55  80 100 131 177 229 260 309
#     4  11  21  35  48  70 109 144 173 211 258 306
#     4   9  18  34  51  75 103 137 170 221 265 314
#     4  12  22  34  54  81 109 141 182 220 264 324
#     4  10  21  32  51  78 103 131 178 217 254 308
#     4  11  20  34  56  79 104 145 173 218 272 324
#     4  11  22  35  46  64 105 153 179 204 248 309
#     4   9  18  34  54  75 106 132 175 218 275 312
#
# _framework density 16.759813000000001
#
# number of rings (size 3 to 8) (size 9 to 14) (size 15 to 20)
#    0.000    1.500    5.000    3.000    0.000    0.500 
#    0.000    1.875    0.000    0.375    0.000    0.000 
#    0.000    4.000    0.000    0.000    0.000    0.000 
#
# Total GULP energy -792835.785794 kJ/mol
# GULP energy per Si atom -12388.059153 kJ/mol
# Density = 1.672167 g / cm^3
# Si number density = 16.759813 Si / 1000 Ang^3
#
#
#
# Elastic Constant Matrix: (Units=GPa)
#
#
# Indices 1 2 3 4 5 6 
#
# 1 80.4333 64.0609 30.0594 0.0000 0.0000 0.0000
# 2 64.0609 121.9024 38.7945 0.0000 0.0000 0.0000
# 3 30.0594 38.7945 67.0544 0.0000 0.0000 0.0000
# 4 0.0000 0.0000 0.0000 14.8501 0.0000 0.0000
# 5 0.0000 0.0000 0.0000 0.0000 19.9399 0.0000
# 6 0.0000 0.0000 0.0000 0.0000 0.0000 31.3615
#
#
#
# Elastic Compliance Matrix: (Units=1/GPa)
#
#
# Indices 1 2 3 4 5 6 
#
# 1 0.022193 -0.010414 -0.003924 0.000000 0.000000 0.000000
# 2 -0.010414 0.014941 -0.003976 0.000000 0.000000 0.000000
# 3 -0.003924 -0.003976 0.018972 0.000000 0.000000 0.000000
# 4 0.000000 0.000000 0.000000 0.067339 0.000000 0.000000
# 5 0.000000 0.000000 0.000000 0.000000 0.050151 0.000000
# 6 0.000000 0.000000 0.000000 0.000000 0.000000 0.031886
#
#
# Mechanical properties :
#
#
# Convention : Reuss Voigt Hill
#
# Bulk Modulus (GPa) = 51.33575 59.46884 55.40229
# Shear Modulus (GPa) = 20.11230 22.32867 21.22048
#
# Velocity S-wave (km/s) = 3.46791 3.65399 3.56216
# Velocity P-wave (km/s) = 6.83607 7.30495 7.07440
#
# Compressibility (1/GPa) = 0.01947960
#
# Stress axis : x y z
#
# Youngs Moduli (GPa) = 45.05857 66.92874 52.70788
#
# Poissons Ratio (x) = 0.69700 0.20682
# Poissons Ratio (y) = 0.46924 0.20956
# Poissons Ratio (z) = 0.17680 0.26610
#
# Static dielectric constant tensor:
#      x y z
#    x 3.187200 0.000000 0.000000 
#    y 0.000000 3.456350 0.000000 
#    z 0.000000 0.000000 2.897350 
# 
# 
# High freq. dielectric constant tensor:
#      x y z
#    x 1.631010 0.000000 0.000000 
#    y 0.000000 1.647500 0.000000 
#    z 0.000000 0.000000 1.622240 
# 
# From -- ./inp_files/39364.got.cif
#   From: 2010.03.12/outbox.cif.g09.slc.cpg/sg72_20_cif.got.tgz:39364.got - 2010.04.16 14:54:00.
