data_PCOD8294125
_publ_section_title
;
Structure prediction by ZEFSAII (Michael W. Deem and Ramdas Pophale) SiO2 
 PCOD8294125
Probable space group: I B A M
;
_chemical_formula_sum "Si O2"
_cell_formula_units_Z 48
_cell_length_a 25.295003
_cell_length_b 8.486963
_cell_length_c 10.327053
_cell_angle_alpha 90.000000
_cell_angle_beta 90.000000
_cell_angle_gamma 90.000000
_cell_volume 2216.988549
_symmetry_space_group_name_H-M "I B A M"
_symmetry_group_IT_number 72
_symmetry_cell_setting 'orthorhombic'
loop_
_space_group_symop_operation_xyz
x,y,z
-x,-y,z
x,-y,1/2-z
-x,y,1/2-z
-x,-y,-z
x,y,-z
-x,y,1/2+z
x,-y,1/2+z
1/2+x,1/2+y,1/2+z
1/2-x,1/2-y,1/2+z
1/2+x,1/2-y,-z
1/2-x,1/2+y,-z
1/2-x,1/2-y,1/2-z
1/2+x,1/2+y,1/2-z
1/2-x,1/2+y,z
1/2+x,1/2-y,z
loop_
_atom_site_type_symbol
_atom_site_label
_atom_site_fract_x
_atom_site_fract_y
_atom_site_fract_z
Si Si1 0.851201 0.327945 0.232545
Si Si2 0.706849 0.659705 0.000000
Si Si3 0.679826 0.296158 0.000000
Si Si4 0.530461 0.833384 0.861158
O O1 0.824744 0.500000 0.250000
O O2 0.816540 0.231681 0.131072
O O3 0.854301 0.239688 0.371006
O O4 0.908979 0.355746 0.174776
O O5 0.769328 0.684133 0.000000
O O6 0.696245 0.475957 0.000000
O O7 0.500000 0.732042 0.750000
O O8 0.500000 0.000000 0.870612
O O9 0.526748 0.746464 0.000000
#
# Coordination Sequence:
#
# PCOD8294125 Si02
#       4
#    16   8   8  16
#     4  12  23  41  72 107 134 181 235 288 350 408
#     4  12  26  50  64 101 143 183 241 292 352 427
#     4  12  28  44  72  95 143 187 233 296 360 413
#     4  10  20  35  63 104 139 168 228 289 326 402
#
# _framework density 21.650991000000001
#
# number of rings (size 3 to 8) (size 9 to 14) (size 15 to 20)
#    0.000    0.667    5.000    5.000    2.333    0.000 
#    0.000    0.000    0.000    6.000    0.000    0.000 
#    0.000    0.000    0.000    0.000    0.000    0.000 
#
# Total GULP energy -297464.577274 kJ/mol
# GULP energy per Si atom -12394.357386 kJ/mol
# Density = 2.160171 g / cm^3
# Si number density = 21.650991 Si / 1000 Ang^3
#
#
#
# Elastic Constant Matrix: (Units=GPa)
#
#
# Indices 1 2 3 4 5 6 
#
# 1 94.1260 8.0776 42.2265 0.0000 0.0000 0.0000
# 2 8.0776 108.6107 37.6915 0.0000 0.0000 0.0000
# 3 42.2265 37.6915 234.9242 0.0000 0.0000 0.0000
# 4 0.0000 0.0000 0.0000 25.3426 0.0000 0.0000
# 5 0.0000 0.0000 0.0000 0.0000 33.0638 0.0000
# 6 0.0000 0.0000 0.0000 0.0000 0.0000 17.5261
#
#
#
# Elastic Compliance Matrix: (Units=1/GPa)
#
#
# Indices 1 2 3 4 5 6 
#
# 1 0.011558 -0.000147 -0.002054 0.000000 0.000000 0.000000
# 2 -0.000147 0.009752 -0.001538 0.000000 0.000000 0.000000
# 3 -0.002054 -0.001538 0.004873 0.000000 0.000000 0.000000
# 4 0.000000 0.000000 0.000000 0.039459 0.000000 0.000000
# 5 0.000000 0.000000 0.000000 0.000000 0.030245 0.000000
# 6 0.000000 0.000000 0.000000 0.000000 0.000000 0.057058
#
#
# Mechanical properties :
#
#
# Convention : Reuss Voigt Hill
#
# Bulk Modulus (GPa) = 53.46243 68.18357 60.82300
# Shear Modulus (GPa) = 30.00175 38.49754 34.24964
#
# Velocity S-wave (km/s) = 3.72654 4.22132 3.98162
# Velocity P-wave (km/s) = 6.57743 7.43774 7.02077
#
# Compressibility (1/GPa) = 0.01870472
#
# Stress axis : x y z
#
# Youngs Moduli (GPa) = 86.51942 102.54382 205.22603
#
# Poissons Ratio (x) = 0.01505 0.42153
# Poissons Ratio (y) = 0.01270 0.31568
# Poissons Ratio (z) = 0.17771 0.15774
#
# Static dielectric constant tensor:
#      x y z
#    x 3.926960 0.000000 0.000000 
#    y 0.000000 3.625560 0.000000 
#    z 0.000000 0.000000 5.766360 
# 
# 
# High freq. dielectric constant tensor:
#      x y z
#    x 1.854960 0.000000 0.000000 
#    y 0.000000 1.809030 0.000000 
#    z 0.000000 0.000000 1.893530 
# 
# From -- ./inp_files/10232.got.cif
#   From: 2010.03.12/outbox.cif.g09.slc.cpg/sg72_6_cif.got.tgz:10232.got - 2010.04.16 14:54:00.
