data_PCOD8294604
_publ_section_title
;
Structure prediction by ZEFSAII (Michael W. Deem and Ramdas Pophale) SiO2 
 PCOD8294604
Probable space group: I B A M
;
_chemical_formula_sum "Si O2"
_cell_formula_units_Z 96
_cell_length_a 9.073184
_cell_length_b 19.702107
_cell_length_c 26.929875
_cell_angle_alpha 90.000000
_cell_angle_beta 90.000000
_cell_angle_gamma 90.000000
_cell_volume 4814.007130
_symmetry_space_group_name_H-M "I B A M"
_symmetry_group_IT_number 72
_symmetry_cell_setting 'orthorhombic'
loop_
_space_group_symop_operation_xyz
x,y,z
-x,-y,z
x,-y,1/2-z
-x,y,1/2-z
-x,-y,-z
x,y,-z
-x,y,1/2+z
x,-y,1/2+z
1/2+x,1/2+y,1/2+z
1/2-x,1/2-y,1/2+z
1/2+x,1/2-y,-z
1/2-x,1/2+y,-z
1/2-x,1/2-y,1/2-z
1/2+x,1/2+y,1/2-z
1/2-x,1/2+y,z
1/2+x,1/2-y,z
loop_
_atom_site_type_symbol
_atom_site_label
_atom_site_fract_x
_atom_site_fract_y
_atom_site_fract_z
Si Si1 0.232118 0.806320 0.555918
Si Si2 0.130991 0.219309 0.714077
Si Si3 0.257159 0.107046 0.356821
Si Si4 0.103730 0.167624 0.444589
Si Si5 0.090238 0.651368 0.147335
Si Si6 0.169194 0.519114 0.196787
O O1 0.260574 0.834317 0.500000
O O2 0.282303 0.729035 0.559778
O O3 0.322793 0.850190 0.595337
O O4 0.059690 0.807560 0.569763
O O5 0.250000 0.250000 0.750000
O O6 0.188840 0.152885 0.686566
O O7 0.084846 0.275040 0.672946
O O8 0.000000 0.196826 0.750000
O O9 0.161022 0.111049 0.406754
O O10 0.425701 0.128529 0.365139
O O11 0.246592 0.027703 0.343027
O O12 0.105166 0.136752 0.500000
O O13 0.178060 0.598911 0.183411
O O14 0.239641 0.500000 0.250000
O O15 0.000000 0.500000 0.197601
#
# Coordination Sequence:
#
# PCOD8294604 Si02
#       6
#    16  16  16  16  16  16
#     4  10  21  37  59  88 120 154 194 248 307 360
#     4  12  24  36  57  90 121 154 197 253 296 352
#     4  11  22  39  61  90 119 157 201 248 297 352
#     4  10  21  37  59  87 120 154 193 248 307 359
#     4  11  22  38  63  89 117 160 200 246 299 353
#     4   9  20  39  61  83 120 163 202 240 291 354
#
# _framework density 19.941808000000002
#
# number of rings (size 3 to 8) (size 9 to 14) (size 15 to 20)
#    0.000    1.500    3.333    2.000    4.667    2.000 
#    0.000    1.667    0.000    5.000    0.000    0.000 
#    0.000    0.000    0.000    0.000    0.000    0.000 
#
# Total GULP energy -595147.998145 kJ/mol
# GULP energy per Si atom -12398.916628 kJ/mol
# Density = 1.989642 g / cm^3
# Si number density = 19.941808 Si / 1000 Ang^3
#
#
#
# Elastic Constant Matrix: (Units=GPa)
#
#
# Indices 1 2 3 4 5 6 
#
# 1 105.2635 19.1706 53.8868 0.0000 0.0000 0.0000
# 2 19.1706 70.9380 26.8372 0.0000 0.0000 0.0000
# 3 53.8868 26.8372 128.3597 0.0000 0.0000 0.0000
# 4 0.0000 0.0000 0.0000 26.5847 0.0000 0.0000
# 5 0.0000 0.0000 0.0000 0.0000 44.8979 0.0000
# 6 0.0000 0.0000 0.0000 0.0000 0.0000 20.1445
#
#
#
# Elastic Compliance Matrix: (Units=1/GPa)
#
#
# Indices 1 2 3 4 5 6 
#
# 1 0.012242 -0.001481 -0.004830 0.000000 0.000000 0.000000
# 2 -0.001481 0.015487 -0.002616 0.000000 0.000000 0.000000
# 3 -0.004830 -0.002616 0.010365 0.000000 0.000000 0.000000
# 4 0.000000 0.000000 0.000000 0.037616 0.000000 0.000000
# 5 0.000000 0.000000 0.000000 0.000000 0.022273 0.000000
# 6 0.000000 0.000000 0.000000 0.000000 0.000000 0.049641
#
#
# Mechanical properties :
#
#
# Convention : Reuss Voigt Hill
#
# Bulk Modulus (GPa) = 49.40695 56.03892 52.72293
# Shear Modulus (GPa) = 29.03186 31.96987 30.50087
#
# Velocity S-wave (km/s) = 3.81967 4.00829 3.91512
# Velocity P-wave (km/s) = 6.65451 7.04160 6.85079
#
# Compressibility (1/GPa) = 0.02024007
#
# Stress axis : x y z
#
# Youngs Moduli (GPa) = 81.68492 64.57093 96.47720
#
# Poissons Ratio (x) = 0.09564 0.46596
# Poissons Ratio (y) = 0.12099 0.25240
# Poissons Ratio (z) = 0.39451 0.16893
#
# Static dielectric constant tensor:
#      x y z
#    x 3.606080 0.000000 0.000000 
#    y 0.000000 3.856680 0.000000 
#    z 0.000000 0.000000 3.961750 
# 
# 
# High freq. dielectric constant tensor:
#      x y z
#    x 1.778690 0.000000 0.000000 
#    y 0.000000 1.751290 0.000000 
#    z 0.000000 0.000000 1.792810 
# 
# From -- ./inp_files/47293.got.cif
#   From: 2010.03.12/outbox.cif.g09.slc.cpg/sg72_24_cif.got.tgz:47293.got - 2010.04.16 14:54:00.
