data_PCOD8294612
_publ_section_title
;
Structure prediction by ZEFSAII (Michael W. Deem and Ramdas Pophale) SiO2 
 PCOD8294612
Probable space group: I B A M
;
_chemical_formula_sum "Si O2"
_cell_formula_units_Z 116
_cell_length_a 27.574503
_cell_length_b 12.052172
_cell_length_c 18.205890
_cell_angle_alpha 90.000000
_cell_angle_beta 90.000000
_cell_angle_gamma 90.000000
_cell_volume 6050.411723
_symmetry_space_group_name_H-M "I B A M"
_symmetry_group_IT_number 72
_symmetry_cell_setting 'orthorhombic'
loop_
_space_group_symop_operation_xyz
x,y,z
-x,-y,z
x,-y,1/2-z
-x,y,1/2-z
-x,-y,-z
x,y,-z
-x,y,1/2+z
x,-y,1/2+z
1/2+x,1/2+y,1/2+z
1/2-x,1/2-y,1/2+z
1/2+x,1/2-y,-z
1/2-x,1/2+y,-z
1/2-x,1/2-y,1/2-z
1/2+x,1/2+y,1/2-z
1/2-x,1/2+y,z
1/2+x,1/2-y,z
loop_
_atom_site_type_symbol
_atom_site_label
_atom_site_fract_x
_atom_site_fract_y
_atom_site_fract_z
Si Si1 0.872814 0.849820 0.580920
Si Si2 0.358858 0.398330 0.415968
Si Si3 0.947227 0.192651 0.667359
Si Si4 0.279270 0.393015 0.697603
Si Si5 0.000000 0.000000 0.750000
Si Si6 0.076394 0.619175 0.218715
Si Si7 0.320151 0.213110 0.198089
Si Si8 0.466214 0.787269 0.583831
O O1 0.855499 0.814843 0.500000
O O2 0.831859 0.799979 0.633638
O O3 0.926215 0.806553 0.598569
O O4 0.880827 0.979787 0.587726
O O5 0.354301 0.355459 0.500000
O O6 0.394152 0.319349 0.368716
O O7 0.305728 0.407853 0.380188
O O8 0.946338 0.282576 0.732529
O O9 0.981948 0.234994 0.602481
O O10 0.965241 0.076052 0.700055
O O11 0.284773 0.500000 0.750000
O O12 0.304328 0.284978 0.732301
O O13 0.223302 0.370451 0.677790
O O14 0.064302 0.500000 0.250000
O O15 0.133985 0.635620 0.213946
O O16 0.049691 0.615254 0.139379
O O17 0.466481 0.831192 0.500000
#
# Coordination Sequence:
#
# PCOD8294612 Si02
#       8
#    16  16  16  16   4  16  16  16
#     4   9  19  36  59  87 121 159 195 241 302 368
#     4  11  23  37  58  89 125 158 194 251 315 364
#     4  12  23  38  61  92 124 162 203 261 298 367
#     4  11  21  36  61  87 115 147 201 250 301 360
#     4  12  24  36  64  96 124 156 210 246 312 344
#     4  11  23  42  63  88 121 161 211 252 300 365
#     4  10  21  37  60  87 112 156 197 249 298 358
#     4  10  21  40  61  90 124 163 205 248 308 361
#
# _framework density 19.172248
#
# number of rings (size 3 to 8) (size 9 to 14) (size 15 to 20)
#    0.000    1.379    4.138    1.655    2.897    1.655 
#    0.000    4.828    0.000    0.000    0.000    0.000 
#    0.000    0.000    0.000    0.000    0.000    0.000 
#
# Total GULP energy -719183.586098 kJ/mol
# GULP energy per Si atom -12399.717002 kJ/mol
# Density = 1.912861 g / cm^3
# Si number density = 19.172248 Si / 1000 Ang^3
#
#
#
# Elastic Constant Matrix: (Units=GPa)
#
#
# Indices 1 2 3 4 5 6 
#
# 1 108.0952 27.2692 47.9842 0.0000 0.0000 0.0000
# 2 27.2692 81.1616 36.8728 0.0000 0.0000 0.0000
# 3 47.9842 36.8728 122.0304 0.0000 0.0000 0.0000
# 4 0.0000 0.0000 0.0000 23.5244 0.0000 0.0000
# 5 0.0000 0.0000 0.0000 0.0000 17.5328 0.0000
# 6 0.0000 0.0000 0.0000 0.0000 0.0000 23.0922
#
#
#
# Elastic Compliance Matrix: (Units=1/GPa)
#
#
# Indices 1 2 3 4 5 6 
#
# 1 0.011508 -0.002099 -0.003891 0.000000 0.000000 0.000000
# 2 -0.002099 0.014664 -0.003606 0.000000 0.000000 0.000000
# 3 -0.003891 -0.003606 0.010814 0.000000 0.000000 0.000000
# 4 0.000000 0.000000 0.000000 0.042509 0.000000 0.000000
# 5 0.000000 0.000000 0.000000 0.000000 0.057036 0.000000
# 6 0.000000 0.000000 0.000000 0.000000 0.000000 0.043305
#
#
# Mechanical properties :
#
#
# Convention : Reuss Voigt Hill
#
# Bulk Modulus (GPa) = 56.19386 59.50441 57.84914
# Shear Modulus (GPa) = 24.39517 26.10727 25.25122
#
# Velocity S-wave (km/s) = 3.57097 3.69415 3.63309
# Velocity P-wave (km/s) = 6.81000 7.02138 6.91650
#
# Compressibility (1/GPa) = 0.01779554
#
# Stress axis : x y z
#
# Youngs Moduli (GPa) = 86.89801 68.19233 92.47159
#
# Poissons Ratio (x) = 0.14312 0.35979
# Poissons Ratio (y) = 0.18238 0.33343
# Poissons Ratio (z) = 0.33811 0.24588
#
# Static dielectric constant tensor:
#      x y z
#    x 3.553940 0.000000 0.000000 
#    y 0.000000 3.340560 0.000000 
#    z 0.000000 0.000000 3.635780 
# 
# 
# High freq. dielectric constant tensor:
#      x y z
#    x 1.753980 0.000000 0.000000 
#    y 0.000000 1.731770 0.000000 
#    z 0.000000 0.000000 1.748590 
# 
# From -- ./inp_files/33966.got.cif
#   From: 2010.03.12/outbox.cif.g09.slc.cpg/sg72_17_cif.got.tgz:33966.got - 2010.04.16 14:54:00.
