data_PCOD8294328
_publ_section_title
;
Structure prediction by ZEFSAII (Michael W. Deem and Ramdas Pophale) SiO2 
 PCOD8294328
Probable space group: I B A M
;
_chemical_formula_sum "Si O2"
_cell_formula_units_Z 52
_cell_length_a 9.818325
_cell_length_b 29.034553
_cell_length_c 10.138903
_cell_angle_alpha 90.000000
_cell_angle_beta 90.000000
_cell_angle_gamma 90.000000
_cell_volume 2890.303948
_symmetry_space_group_name_H-M "I B A M"
_symmetry_group_IT_number 72
_symmetry_cell_setting 'orthorhombic'
loop_
_space_group_symop_operation_xyz
x,y,z
-x,-y,z
x,-y,1/2-z
-x,y,1/2-z
-x,-y,-z
x,y,-z
-x,y,1/2+z
x,-y,1/2+z
1/2+x,1/2+y,1/2+z
1/2-x,1/2-y,1/2+z
1/2+x,1/2-y,-z
1/2-x,1/2+y,-z
1/2-x,1/2-y,1/2-z
1/2+x,1/2+y,1/2-z
1/2-x,1/2+y,z
1/2+x,1/2-y,z
loop_
_atom_site_type_symbol
_atom_site_label
_atom_site_fract_x
_atom_site_fract_y
_atom_site_fract_z
Si Si1 0.346166 0.852074 0.735362
Si Si2 0.805861 0.698177 0.000000
Si Si3 0.000000 0.000000 0.750000
Si Si4 0.615922 0.784271 0.000000
Si Si5 0.891906 0.911535 0.851257
O O1 0.500000 0.870153 0.750000
O O2 0.336823 0.811073 0.629992
O O3 0.259160 0.895594 0.687066
O O4 0.288127 0.833946 0.873068
O O5 0.953068 0.723087 0.000000
O O6 0.685448 0.734872 0.000000
O O7 0.902684 0.967265 0.839222
O O8 0.000000 0.888004 0.750000
O O9 0.926989 0.896270 0.000000
#
# Coordination Sequence:
#
# PCOD8294328 Si02
#       5
#    16   8   4   8  16
#     4  10  21  37  58  83 117 157 191 240 290 345
#     4  10  22  34  56  82 115 151 197 235 288 344
#     4   8  22  36  64  88 122 144 192 244 294 340
#     4  10  20  38  54  80 117 153 193 243 288 336
#     4  10  21  38  61  87 118 149 190 240 293 343
#
# _framework density 17.991188000000001
#
# number of rings (size 3 to 8) (size 9 to 14) (size 15 to 20)
#    0.923    1.231    1.538    1.385    2.154    2.462 
#    0.000    0.769    0.000    1.846    0.000    0.000 
#    0.000    0.000    0.000    0.000    0.000    0.000 
#
# Total GULP energy -322313.358579 kJ/mol
# GULP energy per Si atom -12396.667638 kJ/mol
# Density = 1.795024 g / cm^3
# Si number density = 17.991188 Si / 1000 Ang^3
#
#
#
# Elastic Constant Matrix: (Units=GPa)
#
#
# Indices 1 2 3 4 5 6 
#
# 1 91.4198 52.5311 44.9249 0.0011 -0.0010 0.0007
# 2 52.5311 75.2622 33.9081 0.0000 0.0016 0.0003
# 3 44.9249 33.9081 157.9903 0.0021 0.0009 0.0020
# 4 0.0011 0.0000 0.0021 3.3718 0.0016 -0.0001
# 5 -0.0010 0.0016 0.0009 0.0016 26.6004 0.0010
# 6 0.0007 0.0003 0.0020 -0.0001 0.0010 39.9921
#
#
#
# Elastic Compliance Matrix: (Units=1/GPa)
#
#
# Indices 1 2 3 4 5 6 
#
# 1 0.019384 -0.012229 -0.002887 -0.000005 0.000002 0.000000
# 2 -0.012229 0.022424 -0.001335 0.000005 -0.000002 0.000000
# 3 -0.002887 -0.001335 0.007437 -0.000004 0.000000 0.000000
# 4 -0.000005 0.000005 -0.000004 0.296576 -0.000018 0.000001
# 5 0.000002 -0.000002 0.000000 -0.000018 0.037593 -0.000001
# 6 0.000000 0.000000 0.000000 0.000001 -0.000001 0.025005
#
#
# Mechanical properties :
#
#
# Convention : Reuss Voigt Hill
#
# Bulk Modulus (GPa) = 61.19150 65.26673 63.22912
# Shear Modulus (GPa) = 11.19142 26.88006 19.03574
#
# Velocity S-wave (km/s) = 2.49680 3.86951 3.25631
# Velocity P-wave (km/s) = 6.51136 7.50466 7.02559
#
# Compressibility (1/GPa) = 0.01634214
#
# Stress axis : x y z
#
# Youngs Moduli (GPa) = 51.58797 44.59511 134.46040
#
# Poissons Ratio (x) = 0.54535 0.38824
# Poissons Ratio (y) = 0.63087 0.17955
# Poissons Ratio (z) = 0.14895 0.05955
#
# Static dielectric constant tensor:
#      x y z
#    x 3.256050 0.000000 -0.000010 
#    y 0.000000 2.954270 -0.000010 
#    z -0.000010 -0.000010 3.556890 
# 
# 
# High freq. dielectric constant tensor:
#      x y z
#    x 1.691170 0.000000 0.000000 
#    y 0.000000 1.667910 0.000000 
#    z 0.000000 0.000000 1.719880 
# 
# From -- ./inp_files/2508.got.cif
#   From: 2010.03.12/outbox.cif.g09.slc.cpg/sg72_2_cif.got.tgz:2508.got - 2010.04.16 14:54:00.
