data_PCOD8294553
_publ_section_title
;
Structure prediction by ZEFSAII (Michael W. Deem and Ramdas Pophale) SiO2 
 PCOD8294553
Probable space group: I B A M
;
_chemical_formula_sum "Si O2"
_cell_formula_units_Z 116
_cell_length_a 18.278320
_cell_length_b 18.356367
_cell_length_c 17.343506
_cell_angle_alpha 90.000000
_cell_angle_beta 90.000000
_cell_angle_gamma 90.000000
_cell_volume 5819.154704
_symmetry_space_group_name_H-M "I B A M"
_symmetry_group_IT_number 72
_symmetry_cell_setting 'orthorhombic'
loop_
_space_group_symop_operation_xyz
x,y,z
-x,-y,z
x,-y,1/2-z
-x,y,1/2-z
-x,-y,-z
x,y,-z
-x,y,1/2+z
x,-y,1/2+z
1/2+x,1/2+y,1/2+z
1/2-x,1/2-y,1/2+z
1/2+x,1/2-y,-z
1/2-x,1/2+y,-z
1/2-x,1/2-y,1/2-z
1/2+x,1/2+y,1/2-z
1/2-x,1/2+y,z
1/2+x,1/2-y,z
loop_
_atom_site_type_symbol
_atom_site_label
_atom_site_fract_x
_atom_site_fract_y
_atom_site_fract_z
Si Si1 0.438567 0.842786 0.589677
Si Si2 0.625457 0.074333 0.715304
Si Si3 0.500000 0.500000 0.750000
Si Si4 0.208318 0.073385 0.831401
Si Si5 0.561652 0.204918 0.188467
Si Si6 0.632028 0.573286 0.176828
Si Si7 0.667929 0.283329 0.589874
Si Si8 0.821920 0.783201 0.910194
O O1 0.430642 0.857256 0.500000
O O2 0.416472 0.915886 0.634475
O O3 0.521230 0.823357 0.611625
O O4 0.383374 0.780632 0.622696
O O5 0.709980 0.066170 0.697624
O O6 0.608700 0.140508 0.773660
O O7 0.594215 0.000000 0.750000
O O8 0.451609 0.450659 0.807962
O O9 0.162246 0.100444 0.758454
O O10 0.200301 0.132099 0.899878
O O11 0.178501 0.994415 0.858312
O O12 0.500000 0.234376 0.250000
O O13 0.615462 0.265973 0.153079
O O14 0.638051 0.639920 0.119098
O O15 0.656073 0.284499 0.500000
O O16 0.752474 0.267960 0.610730
O O17 0.845445 0.772072 0.000000
#
# Coordination Sequence:
#
# PCOD8294553 Si02
#       8
#    16  16   4  16  16  16  16  16
#     4  10  22  41  61  88 126 159 195 254 317 370
#     4  11  21  40  63  89 118 158 212 253 300 362
#     4   8  20  40  54  84 124 160 196 254 304 364
#     4  10  21  36  61  89 121 156 199 256 302 348
#     4  10  24  39  61  94 120 160 205 252 301 367
#     4  10  21  38  59  91 121 155 206 248 300 364
#     4  10  22  39  63  90 121 158 201 253 305 359
#     4  11  23  40  62  92 125 160 203 252 307 366
#
# _framework density 19.934166000000001
#
# number of rings (size 3 to 8) (size 9 to 14) (size 15 to 20)
#    0.000    1.931    2.759    1.241    3.862    6.345 
#    1.241    2.414    0.000    0.000    0.000    0.000 
#    0.000    0.000    0.000    0.000    0.000    0.000 
#
# Total GULP energy -718902.742705 kJ/mol
# GULP energy per Si atom -12394.874874 kJ/mol
# Density = 1.988880 g / cm^3
# Si number density = 19.934166 Si / 1000 Ang^3
#
#
#
# Elastic Constant Matrix: (Units=GPa)
#
#
# Indices 1 2 3 4 5 6 
#
# 1 99.6218 44.1094 39.9153 0.0000 0.0000 0.0000
# 2 44.1094 117.3897 57.2243 0.0000 0.0000 0.0000
# 3 39.9153 57.2243 71.6837 0.0000 0.0000 0.0000
# 4 0.0000 0.0000 0.0000 108.1758 0.0000 0.0000
# 5 0.0000 0.0000 0.0000 0.0000 27.7052 0.0000
# 6 0.0000 0.0000 0.0000 0.0000 0.0000 6.7955
#
#
#
# Elastic Compliance Matrix: (Units=1/GPa)
#
#
# Indices 1 2 3 4 5 6 
#
# 1 0.013279 -0.002268 -0.005584 0.000000 0.000000 0.000000
# 2 -0.002268 0.014333 -0.010179 0.000000 0.000000 0.000000
# 3 -0.005584 -0.010179 0.025185 0.000000 0.000000 0.000000
# 4 0.000000 0.000000 0.000000 0.009244 0.000000 0.000000
# 5 0.000000 0.000000 0.000000 0.000000 0.036094 0.000000
# 6 0.000000 0.000000 0.000000 0.000000 0.000000 0.147156
#
#
# Mechanical properties :
#
#
# Convention : Reuss Voigt Hill
#
# Bulk Modulus (GPa) = 59.75139 63.46590 61.60865
# Shear Modulus (GPa) = 17.42577 38.36506 27.89542
#
# Velocity S-wave (km/s) = 2.95984 4.39177 3.74488
# Velocity P-wave (km/s) = 6.45912 7.59103 7.04784
#
# Compressibility (1/GPa) = 0.01673601
#
# Stress axis : x y z
#
# Youngs Moduli (GPa) = 75.30482 69.77075 39.70591
#
# Poissons Ratio (x) = 0.15822 0.22172
# Poissons Ratio (y) = 0.17077 0.40416
# Poissons Ratio (z) = 0.42050 0.71019
#
# Static dielectric constant tensor:
#      x y z
#    x 4.185530 0.000000 0.000000 
#    y 0.000000 4.259300 0.000000 
#    z 0.000000 0.000000 3.522700 
# 
# 
# High freq. dielectric constant tensor:
#      x y z
#    x 1.789830 0.000000 0.000000 
#    y 0.000000 1.770580 0.000000 
#    z 0.000000 0.000000 1.770540 
# 
# From -- ./inp_files/31749.got.cif
#   From: 2010.03.12/outbox.cif.g09.slc.cpg/sg72_16_cif.got.tgz:31749.got - 2010.04.16 14:54:00.
