data_PCOD8294586
_publ_section_title
;
Structure prediction by ZEFSAII (Michael W. Deem and Ramdas Pophale) SiO2 
 PCOD8294586
Probable space group: I B A M
;
_chemical_formula_sum "Si O2"
_cell_formula_units_Z 80
_cell_length_a 13.422704
_cell_length_b 20.949129
_cell_length_c 14.409610
_cell_angle_alpha 90.000000
_cell_angle_beta 90.000000
_cell_angle_gamma 90.000000
_cell_volume 4051.895264
_symmetry_space_group_name_H-M "I B A M"
_symmetry_group_IT_number 72
_symmetry_cell_setting 'orthorhombic'
loop_
_space_group_symop_operation_xyz
x,y,z
-x,-y,z
x,-y,1/2-z
-x,y,1/2-z
-x,-y,-z
x,y,-z
-x,y,1/2+z
x,-y,1/2+z
1/2+x,1/2+y,1/2+z
1/2-x,1/2-y,1/2+z
1/2+x,1/2-y,-z
1/2-x,1/2+y,-z
1/2-x,1/2-y,1/2-z
1/2+x,1/2+y,1/2-z
1/2-x,1/2+y,z
1/2+x,1/2-y,z
loop_
_atom_site_type_symbol
_atom_site_label
_atom_site_fract_x
_atom_site_fract_y
_atom_site_fract_z
Si Si1 0.113437 0.357971 0.750000
Si Si2 0.728520 0.626627 0.104272
Si Si3 0.228520 0.873374 0.604272
Si Si4 0.885466 0.000000 0.859629
Si Si5 0.113208 0.206463 0.250000
O O1 0.167318 0.385019 0.842033
O O2 0.167317 0.385018 0.657968
O O3 0.120919 0.281902 0.750001
O O4 0.000000 0.382086 0.750000
O O5 0.666856 0.561722 0.098584
O O6 0.665552 0.680413 0.157654
O O7 0.750540 0.650602 0.000000
O O8 0.250541 0.849399 0.500000
O O9 0.165551 0.819588 0.657653
O O10 0.166858 0.938279 0.598584
O O11 0.874127 0.000000 0.750000
O O12 0.000000 0.000000 0.890954
O O13 0.000000 0.182049 0.250000
#
# Coordination Sequence:
#
# PCOD8294586 Si02
#       5
#    16  16  16  16  16
#     4  10  23  41  58  79 113 154 196 238 278 324
#     4  11  22  37  59  87 116 148 188 233 282 336
#     4  11  22  37  59  87 116 148 188 233 282 336
#     4  11  21  37  61  87 117 148 179 224 286 348
#     4  10  21  37  57  85 118 152 187 228 282 338
#
# _framework density 19.743846999999999
#
# number of rings (size 3 to 8) (size 9 to 14) (size 15 to 20)
#    0.000    1.400    4.000    4.200    0.000    8.000 
#    0.000    6.000    0.000    2.400    0.000    0.000 
#    0.000    0.000    0.000    0.000    0.000    0.000 
#
# Total GULP energy -496115.894492 kJ/mol
# GULP energy per Si atom -12402.897362 kJ/mol
# Density = 1.969891 g / cm^3
# Si number density = 19.743847 Si / 1000 Ang^3
#
#
#
# Elastic Constant Matrix: (Units=GPa)
#
#
# Indices 1 2 3 4 5 6 
#
# 1 171.8421 27.9945 68.2537 0.0002 0.0000 0.0000
# 2 27.9945 49.7930 12.8261 -0.0004 0.0001 0.0000
# 3 68.2537 12.8261 184.9987 -0.0016 0.0001 0.0000
# 4 0.0002 -0.0004 -0.0016 9.9016 0.0002 0.0000
# 5 0.0000 0.0001 0.0001 0.0002 4.3683 -0.0001
# 6 0.0000 0.0000 0.0000 0.0000 -0.0001 29.6935
#
#
#
# Elastic Compliance Matrix: (Units=1/GPa)
#
#
# Indices 1 2 3 4 5 6 
#
# 1 0.007375 -0.003508 -0.002478 -0.000001 0.000000 0.000000
# 2 -0.003508 0.022117 -0.000239 0.000001 0.000000 0.000000
# 3 -0.002478 -0.000239 0.006336 0.000001 0.000000 0.000000
# 4 -0.000001 0.000001 0.000001 0.100994 -0.000004 0.000000
# 5 0.000000 0.000000 0.000000 -0.000004 0.228920 0.000000
# 6 0.000000 0.000000 0.000000 0.000000 0.000000 0.033677
#
#
# Mechanical properties :
#
#
# Convention : Reuss Voigt Hill
#
# Bulk Modulus (GPa) = 42.77466 69.42028 56.09747
# Shear Modulus (GPa) = 11.91437 28.62999 20.27218
#
# Velocity S-wave (km/s) = 2.45918 3.81211 3.20778
# Velocity P-wave (km/s) = 5.45667 7.39006 6.49570
#
# Compressibility (1/GPa) = 0.02337833
#
# Stress axis : x y z
#
# Youngs Moduli (GPa) = 135.59508 45.21395 157.82478
#
# Poissons Ratio (x) = 0.15861 0.39104
# Poissons Ratio (y) = 0.47568 0.03774
# Poissons Ratio (z) = 0.33596 0.01081
#
# Static dielectric constant tensor:
#      x y z
#    x 3.986570 0.000000 0.000000 
#    y 0.000000 3.510680 0.000000 
#    z 0.000000 0.000000 3.734670 
# 
# 
# High freq. dielectric constant tensor:
#      x y z
#    x 1.774550 0.000000 0.000000 
#    y 0.000000 1.765000 0.000000 
#    z 0.000000 0.000000 1.773330 
# 
# From -- ./inp_files/21555.got.cif
#   From: 2010.03.12/outbox.cif.g09.slc.cpg/sg72_11_cif.got.tgz:21555.got - 2010.04.16 14:54:00.
