data_PCOD8294189
_publ_section_title
;
Structure prediction by ZEFSAII (Michael W. Deem and Ramdas Pophale) SiO2 
 PCOD8294189
Probable space group: I B A M
;
_chemical_formula_sum "Si O2"
_cell_formula_units_Z 96
_cell_length_a 14.477855
_cell_length_b 20.722664
_cell_length_c 15.770173
_cell_angle_alpha 90.000000
_cell_angle_beta 90.000000
_cell_angle_gamma 90.000000
_cell_volume 4731.362960
_symmetry_space_group_name_H-M "I B A M"
_symmetry_group_IT_number 72
_symmetry_cell_setting 'orthorhombic'
loop_
_space_group_symop_operation_xyz
x,y,z
-x,-y,z
x,-y,1/2-z
-x,y,1/2-z
-x,-y,-z
x,y,-z
-x,y,1/2+z
x,-y,1/2+z
1/2+x,1/2+y,1/2+z
1/2-x,1/2-y,1/2+z
1/2+x,1/2-y,-z
1/2-x,1/2+y,-z
1/2-x,1/2-y,1/2-z
1/2+x,1/2+y,1/2-z
1/2-x,1/2+y,z
1/2+x,1/2-y,z
loop_
_atom_site_type_symbol
_atom_site_label
_atom_site_fract_x
_atom_site_fract_y
_atom_site_fract_z
Si Si1 0.511172 0.303990 0.343925
Si Si2 0.945889 0.938714 0.097471
Si Si3 0.204460 0.838092 0.904668
Si Si4 0.269260 0.483321 0.905989
Si Si5 0.500000 0.108986 0.750000
Si Si6 0.412567 0.185382 0.597387
Si Si7 0.860543 0.500000 0.250000
O O1 0.500000 0.276806 0.250000
O O2 0.469075 0.375658 0.349046
O O3 0.621133 0.300333 0.359820
O O4 0.450127 0.258784 0.405501
O O5 0.838147 0.956563 0.106046
O O6 0.975196 0.926380 0.000000
O O7 0.000000 0.000000 0.135123
O O8 0.179851 0.914137 0.898152
O O9 0.306458 0.820168 0.868710
O O10 0.203110 0.813269 0.000000
O O11 0.194245 0.484146 0.834150
O O12 0.223544 0.487519 0.000000
O O13 0.477815 0.148682 0.664530
O O14 0.584108 0.063345 0.724311
O O15 0.419041 0.157894 0.500000
#
# Coordination Sequence:
#
# PCOD8294189 Si02
#       7
#    16  16  16  16   8  16   8
#     4  12  25  39  64  98 132 172 216 273 331 394
#     4  10  20  36  59  88 126 165 208 260 313 379
#     4  10  21  42  68  90 125 177 219 261 328 394
#     4  10  21  38  63  93 127 171 210 257 325 389
#     4  11  24  44  64  98 123 166 218 274 333 378
#     4  11  24  46  69  91 130 177 225 271 324 396
#     4  11  24  40  67  92 134 160 207 282 322 391
#
# _framework density 20.290136
#
# number of rings (size 3 to 8) (size 9 to 14) (size 15 to 20)
#    0.000    1.333    4.167    1.500    2.333    1.667 
#    3.000    1.667    0.000    0.000    0.000    0.000 
#    0.000    0.000    0.000    0.000    0.000    0.000 
#
# Total GULP energy -595010.582296 kJ/mol
# GULP energy per Si atom -12396.053798 kJ/mol
# Density = 2.024395 g / cm^3
# Si number density = 20.290136 Si / 1000 Ang^3
#
#
#
# Elastic Constant Matrix: (Units=GPa)
#
#
# Indices 1 2 3 4 5 6 
#
# 1 123.6583 42.4190 56.4477 0.0000 0.0000 0.0000
# 2 42.4190 86.4585 23.5960 -0.0004 0.0000 0.0000
# 3 56.4477 23.5960 100.9259 -0.0004 0.0000 0.0001
# 4 0.0000 -0.0004 -0.0004 27.7442 0.0000 0.0000
# 5 0.0000 0.0000 0.0000 0.0000 38.1672 0.0002
# 6 0.0000 0.0000 0.0001 0.0000 0.0002 45.6678
#
#
#
# Elastic Compliance Matrix: (Units=1/GPa)
#
#
# Indices 1 2 3 4 5 6 
#
# 1 0.012264 -0.004428 -0.005824 0.000000 0.000000 0.000000
# 2 -0.004428 0.013953 -0.000786 0.000000 0.000000 0.000000
# 3 -0.005824 -0.000786 0.013349 0.000000 0.000000 0.000000
# 4 0.000000 0.000000 0.000000 0.036044 0.000000 0.000000
# 5 0.000000 0.000000 0.000000 0.000000 0.026201 0.000000
# 6 0.000000 0.000000 0.000000 0.000000 0.000000 0.021897
#
#
# Mechanical properties :
#
#
# Convention : Reuss Voigt Hill
#
# Bulk Modulus (GPa) = 57.17084 61.77424 59.47254
# Shear Modulus (GPa) = 32.97848 34.88782 33.93315
#
# Velocity S-wave (km/s) = 4.03593 4.15112 4.09393
# Velocity P-wave (km/s) = 7.06797 7.31350 7.19178
#
# Compressibility (1/GPa) = 0.01749144
#
# Stress axis : x y z
#
# Youngs Moduli (GPa) = 81.53747 71.66902 74.90948
#
# Poissons Ratio (x) = 0.31733 0.43629
# Poissons Ratio (y) = 0.36102 0.05886
# Poissons Ratio (z) = 0.47489 0.05631
#
# Static dielectric constant tensor:
#      x y z
#    x 3.748650 0.000000 0.000000 
#    y 0.000000 3.669560 0.000000 
#    z 0.000000 0.000000 3.071550 
# 
# 
# High freq. dielectric constant tensor:
#      x y z
#    x 1.792670 0.000000 0.000000 
#    y 0.000000 1.786810 0.000000 
#    z 0.000000 0.000000 1.792550 
# 
# From -- ./inp_files/21905.got.cif
#   From: 2010.03.12/outbox.cif.g09.slc.cpg/sg72_11_cif.got.tgz:21905.got - 2010.04.16 14:54:00.
