data_PCOD8294026
_publ_section_title
;
Structure prediction by ZEFSAII (Michael W. Deem and Ramdas Pophale) SiO2 
 PCOD8294026
Probable space group: I B A M
;
_chemical_formula_sum "Si O2"
_cell_formula_units_Z 64
_cell_length_a 10.873448
_cell_length_b 18.747304
_cell_length_c 14.073780
_cell_angle_alpha 90.000000
_cell_angle_beta 90.000000
_cell_angle_gamma 90.000000
_cell_volume 2868.909586
_symmetry_space_group_name_H-M "I B A M"
_symmetry_group_IT_number 72
_symmetry_cell_setting 'orthorhombic'
loop_
_space_group_symop_operation_xyz
x,y,z
-x,-y,z
x,-y,1/2-z
-x,y,1/2-z
-x,-y,-z
x,y,-z
-x,y,1/2+z
x,-y,1/2+z
1/2+x,1/2+y,1/2+z
1/2-x,1/2-y,1/2+z
1/2+x,1/2-y,-z
1/2-x,1/2+y,-z
1/2-x,1/2-y,1/2-z
1/2+x,1/2+y,1/2-z
1/2-x,1/2+y,z
1/2+x,1/2-y,z
loop_
_atom_site_type_symbol
_atom_site_label
_atom_site_fract_x
_atom_site_fract_y
_atom_site_fract_z
Si Si1 0.407203 0.292927 0.167134
Si Si2 0.938423 0.359819 0.105640
Si Si3 0.310177 0.883746 0.792510
Si Si4 0.598782 0.555204 0.891956
O O1 0.500000 0.271002 0.250000
O O2 0.405184 0.224168 0.099595
O O3 0.269881 0.310545 0.206194
O O4 0.456884 0.364106 0.113078
O O5 0.854010 0.399066 0.184667
O O6 0.079101 0.373201 0.134046
O O7 0.914989 0.391641 0.000000
O O8 0.224308 0.948891 0.829705
O O9 0.500000 0.500000 0.848684
O O10 0.629326 0.534380 0.000000
#
# Coordination Sequence:
#
# PCOD8294026 Si02
#       4
#    16  16  16  16
#     4  10  20  35  54  86 128 168 212 268 324 379
#     4  11  20  33  57  88 131 177 212 259 326 393
#     4   9  21  36  53  88 130 168 209 267 321 379
#     4   9  19  36  58  85 121 168 218 268 322 379
#
# _framework density 22.308126999999999
#
# number of rings (size 3 to 8) (size 9 to 14) (size 15 to 20)
#    1.500    0.750    2.500    2.250    0.000    0.500 
#    0.000    1.250    0.000    0.750    0.000   14.000 
#    0.000   24.000    0.000    0.000    0.000    0.000 
#
# Total GULP energy -396444.516002 kJ/mol
# GULP energy per Si atom -12388.891125 kJ/mol
# Density = 2.225735 g / cm^3
# Si number density = 22.308127 Si / 1000 Ang^3
#
#
#
# Elastic Constant Matrix: (Units=GPa)
#
#
# Indices 1 2 3 4 5 6 
#
# 1 148.4305 33.4913 72.4408 0.0001 0.0000 0.0000
# 2 33.4913 50.5855 22.2525 0.0003 -0.0001 0.0001
# 3 72.4408 22.2525 171.9450 0.0003 -0.0001 0.0001
# 4 0.0001 0.0003 0.0003 13.4128 -0.0001 0.0001
# 5 0.0000 -0.0001 -0.0001 -0.0001 23.6425 0.0000
# 6 0.0000 0.0001 0.0001 0.0001 0.0000 21.0406
#
#
#
# Elastic Compliance Matrix: (Units=1/GPa)
#
#
# Indices 1 2 3 4 5 6 
#
# 1 0.009459 -0.004782 -0.003366 0.000000 0.000000 0.000000
# 2 -0.004782 0.023379 -0.001011 0.000000 0.000000 0.000000
# 3 -0.003366 -0.001011 0.007365 0.000000 0.000000 0.000000
# 4 0.000000 0.000000 0.000000 0.074555 0.000000 0.000000
# 5 0.000000 0.000000 0.000000 0.000000 0.042297 0.000000
# 6 0.000000 0.000000 0.000000 0.000000 0.000000 0.047527
#
#
# Mechanical properties :
#
#
# Convention : Reuss Voigt Hill
#
# Bulk Modulus (GPa) = 45.69371 69.70336 57.69854
# Shear Modulus (GPa) = 21.72068 27.80427 24.76247
#
# Velocity S-wave (km/s) = 3.12375 3.53423 3.33531
# Velocity P-wave (km/s) = 5.79119 6.92589 6.38380
#
# Compressibility (1/GPa) = 0.02188485
#
# Stress axis : x y z
#
# Youngs Moduli (GPa) = 105.71963 42.77319 135.77961
#
# Poissons Ratio (x) = 0.20453 0.45707
# Poissons Ratio (y) = 0.50552 0.13728
# Poissons Ratio (z) = 0.35588 0.04325
#
# Static dielectric constant tensor:
#      x y z
#    x 3.901860 0.000000 0.000000 
#    y 0.000000 3.698360 0.000000 
#    z 0.000000 0.000000 3.755750 
# 
# 
# High freq. dielectric constant tensor:
#      x y z
#    x 1.873480 0.000000 0.000000 
#    y 0.000000 1.858010 0.000000 
#    z 0.000000 0.000000 1.873270 
# 
# From -- ./inp_files/19710.got.cif
#   From: 2010.03.12/outbox.cif.g09.slc.cpg/sg72_10_cif.got.tgz:19710.got - 2010.04.16 14:54:00.
