data_PCOD8294185
_publ_section_title
;
Structure prediction by ZEFSAII (Michael W. Deem and Ramdas Pophale) SiO2 
 PCOD8294185
Probable space group: I B A M
;
_chemical_formula_sum "Si O2"
_cell_formula_units_Z 96
_cell_length_a 21.113584
_cell_length_b 12.773510
_cell_length_c 18.193450
_cell_angle_alpha 90.000000
_cell_angle_beta 90.000000
_cell_angle_gamma 90.000000
_cell_volume 4906.674790
_symmetry_space_group_name_H-M "I B A M"
_symmetry_group_IT_number 72
_symmetry_cell_setting 'orthorhombic'
loop_
_space_group_symop_operation_xyz
x,y,z
-x,-y,z
x,-y,1/2-z
-x,y,1/2-z
-x,-y,-z
x,y,-z
-x,y,1/2+z
x,-y,1/2+z
1/2+x,1/2+y,1/2+z
1/2-x,1/2-y,1/2+z
1/2+x,1/2-y,-z
1/2-x,1/2+y,-z
1/2-x,1/2-y,1/2-z
1/2+x,1/2+y,1/2-z
1/2-x,1/2+y,z
1/2+x,1/2-y,z
loop_
_atom_site_type_symbol
_atom_site_label
_atom_site_fract_x
_atom_site_fract_y
_atom_site_fract_z
Si Si1 0.391332 0.895840 0.795095
Si Si2 0.494013 0.254384 0.669304
Si Si3 0.436861 0.434744 0.416520
Si Si4 0.323516 0.575440 0.414424
Si Si5 0.363938 0.784954 0.347599
Si Si6 0.814937 0.503159 0.415731
O O1 0.459648 0.857571 0.822985
O O2 0.359164 0.810939 0.739598
O O3 0.347423 0.915349 0.865292
O O4 0.403903 0.000000 0.750000
O O5 0.500000 0.306606 0.750000
O O6 0.446054 0.325136 0.623309
O O7 0.562229 0.236485 0.631088
O O8 0.500000 0.500000 0.406975
O O9 0.420723 0.408072 0.500000
O O10 0.379268 0.501622 0.382888
O O11 0.335001 0.604384 0.500000
O O12 0.322942 0.682442 0.367224
O O13 0.259815 0.509679 0.403163
O O14 0.336553 0.880279 0.395262
O O15 0.833363 0.480648 0.500000
#
# Coordination Sequence:
#
# PCOD8294185 Si02
#       6
#    16  16  16  16  16  16
#     4   9  21  40  59  84 119 150 192 244 288 338
#     4  10  21  37  60  88 115 153 191 237 291 344
#     4  10  20  36  59  88 117 146 187 239 289 342
#     4  10  21  38  59  85 119 153 189 239 288 340
#     4  10  20  38  60  82 112 155 195 233 294 347
#     4  10  22  38  58  83 114 154 195 236 286 347
#
# _framework density 19.565183999999999
#
# number of rings (size 3 to 8) (size 9 to 14) (size 15 to 20)
#    0.000    2.167    1.667    0.500    0.000   11.333 
#    0.000   12.500    0.000    0.000    0.000    0.000 
#    0.000    0.000    0.000    0.000    0.000    0.000 
#
# Total GULP energy -595159.166544 kJ/mol
# GULP energy per Si atom -12399.149303 kJ/mol
# Density = 1.952065 g / cm^3
# Si number density = 19.565184 Si / 1000 Ang^3
#
#
#
# Elastic Constant Matrix: (Units=GPa)
#
#
# Indices 1 2 3 4 5 6 
#
# 1 89.6836 55.5108 48.4553 0.0000 0.0000 0.0000
# 2 55.5108 112.0671 58.0256 0.0000 0.0000 0.0000
# 3 48.4553 58.0256 85.9401 0.0000 0.0000 0.0000
# 4 0.0000 0.0000 0.0000 25.0868 0.0000 0.0000
# 5 0.0000 0.0000 0.0000 0.0000 27.9515 0.0000
# 6 0.0000 0.0000 0.0000 0.0000 0.0000 33.3341
#
#
#
# Elastic Compliance Matrix: (Units=1/GPa)
#
#
# Indices 1 2 3 4 5 6 
#
# 1 0.018105 -0.005662 -0.006385 0.000000 0.000000 0.000000
# 2 -0.005662 0.015490 -0.007266 0.000000 0.000000 0.000000
# 3 -0.006385 -0.007266 0.020142 0.000000 0.000000 0.000000
# 4 0.000000 0.000000 0.000000 0.039862 0.000000 0.000000
# 5 0.000000 0.000000 0.000000 0.000000 0.035776 0.000000
# 6 0.000000 0.000000 0.000000 0.000000 0.000000 0.029999
#
#
# Mechanical properties :
#
#
# Convention : Reuss Voigt Hill
#
# Bulk Modulus (GPa) = 66.17982 67.96380 67.07181
# Shear Modulus (GPa) = 24.62601 25.65443 25.14022
#
# Velocity S-wave (km/s) = 3.55162 3.62502 3.58850
# Velocity P-wave (km/s) = 7.12161 7.23419 7.17812
#
# Compressibility (1/GPa) = 0.01511035
#
# Stress axis : x y z
#
# Youngs Moduli (GPa) = 55.23478 64.55743 49.64684
#
# Poissons Ratio (x) = 0.36551 0.31700
# Poissons Ratio (y) = 0.31273 0.36075
# Poissons Ratio (z) = 0.35268 0.46910
#
# Static dielectric constant tensor:
#      x y z
#    x 3.567490 0.000000 0.000000 
#    y 0.000000 3.573230 0.000000 
#    z 0.000000 0.000000 3.693300 
# 
# 
# High freq. dielectric constant tensor:
#      x y z
#    x 1.762590 0.000000 0.000000 
#    y 0.000000 1.761110 0.000000 
#    z 0.000000 0.000000 1.757410 
# 
# From -- ./inp_files/39716.got.cif
#   From: 2010.03.12/outbox.cif.g09.slc.cpg/sg72_20_cif.got.tgz:39716.got - 2010.04.16 14:54:00.
