data_PCOD8294702
_publ_section_title
;
Structure prediction by ZEFSAII (Michael W. Deem and Ramdas Pophale) SiO2 
 PCOD8294702
Probable space group: I B A M
;
_chemical_formula_sum "Si O2"
_cell_formula_units_Z 68
_cell_length_a 4.982940
_cell_length_b 26.468861
_cell_length_c 25.743298
_cell_angle_alpha 90.000000
_cell_angle_beta 90.000000
_cell_angle_gamma 90.000000
_cell_volume 3395.354270
_symmetry_space_group_name_H-M "I B A M"
_symmetry_group_IT_number 72
_symmetry_cell_setting 'orthorhombic'
loop_
_space_group_symop_operation_xyz
x,y,z
-x,-y,z
x,-y,1/2-z
-x,y,1/2-z
-x,-y,-z
x,y,-z
-x,y,1/2+z
x,-y,1/2+z
1/2+x,1/2+y,1/2+z
1/2-x,1/2-y,1/2+z
1/2+x,1/2-y,-z
1/2-x,1/2+y,-z
1/2-x,1/2-y,1/2-z
1/2+x,1/2+y,1/2-z
1/2-x,1/2+y,z
1/2+x,1/2-y,z
loop_
_atom_site_type_symbol
_atom_site_label
_atom_site_fract_x
_atom_site_fract_y
_atom_site_fract_z
Si Si1 0.607350 0.554653 0.059865
Si Si2 0.565345 0.781602 0.061058
Si Si3 0.000000 0.500000 0.750000
Si Si4 0.761543 0.403718 0.217572
Si Si5 0.385749 0.890347 0.601181
O O1 0.500000 0.500000 0.078754
O O2 0.360768 0.593612 0.064455
O O3 0.862403 0.571096 0.095135
O O4 0.702958 0.552930 0.000000
O O5 0.347653 0.740717 0.079455
O O6 0.507436 0.835335 0.086667
O O7 0.547148 0.790053 0.000000
O O8 0.191758 0.535495 0.785100
O O9 0.500000 0.389119 0.250000
O O10 0.762154 0.385705 0.158654
O O11 0.000000 0.377080 0.250000
#
# Coordination Sequence:
#
# PCOD8294702 Si02
#       5
#    16  16   4  16  16
#     4  11  24  37  55  89 129 164 202 242 300 385
#     4  10  21  38  62  90 119 155 207 265 314 367
#     4   8  22  36  58  80 116 152 202 256 290 336
#     4  10  22  37  58  86 118 153 206 256 298 357
#     4  12  23  39  65  86 122 169 207 255 316 371
#
# _framework density 20.027365
#
# number of rings (size 3 to 8) (size 9 to 14) (size 15 to 20)
#    0.706    0.706    0.000    6.000    3.294    3.765 
#    0.000    0.000    0.000    4.235    0.000    0.000 
#    0.000    0.000    0.000    0.000    0.000    0.000 
#
# Total GULP energy -421486.627229 kJ/mol
# GULP energy per Si atom -12396.665507 kJ/mol
# Density = 1.998178 g / cm^3
# Si number density = 20.027365 Si / 1000 Ang^3
#
#
#
# Elastic Constant Matrix: (Units=GPa)
#
#
# Indices 1 2 3 4 5 6 
#
# 1 135.1204 29.4409 48.4815 0.0000 0.0000 0.0000
# 2 29.4409 90.4964 37.7620 0.0000 0.0000 0.0000
# 3 48.4815 37.7620 88.5613 0.0000 0.0000 0.0000
# 4 0.0000 0.0000 0.0000 20.9646 0.0000 0.0000
# 5 0.0000 0.0000 0.0000 0.0000 23.3594 0.0000
# 6 0.0000 0.0000 0.0000 0.0000 0.0000 22.3771
#
#
#
# Elastic Compliance Matrix: (Units=1/GPa)
#
#
# Indices 1 2 3 4 5 6 
#
# 1 0.009298 -0.001096 -0.004623 0.000000 0.000000 0.000000
# 2 -0.001096 0.013571 -0.005187 0.000000 0.000000 0.000000
# 3 -0.004623 -0.005187 0.016034 0.000000 0.000000 0.000000
# 4 0.000000 0.000000 0.000000 0.047699 0.000000 0.000000
# 5 0.000000 0.000000 0.000000 0.000000 0.042809 0.000000
# 6 0.000000 0.000000 0.000000 0.000000 0.000000 0.044689
#
#
# Mechanical properties :
#
#
# Convention : Reuss Voigt Hill
#
# Bulk Modulus (GPa) = 58.50618 60.61632 59.56125
# Shear Modulus (GPa) = 24.80050 26.57313 25.68682
#
# Velocity S-wave (km/s) = 3.52281 3.64653 3.58521
# Velocity P-wave (km/s) = 6.76930 6.93268 6.85148
#
# Compressibility (1/GPa) = 0.01709221
#
# Stress axis : x y z
#
# Youngs Moduli (GPa) = 107.54642 73.68676 62.36782
#
# Poissons Ratio (x) = 0.08076 0.28832
# Poissons Ratio (y) = 0.11787 0.32348
# Poissons Ratio (z) = 0.49718 0.38219
#
# Static dielectric constant tensor:
#      x y z
#    x 3.735440 0.000000 0.000000 
#    y 0.000000 3.421140 0.000000 
#    z 0.000000 0.000000 3.372270 
# 
# 
# High freq. dielectric constant tensor:
#      x y z
#    x 1.798180 0.000000 0.000000 
#    y 0.000000 1.761260 0.000000 
#    z 0.000000 0.000000 1.763000 
# 
# From -- ./inp_files/41466.got.cif
#   From: 2010.03.12/outbox.cif.g09.slc.cpg/sg72_21_cif.got.tgz:41466.got - 2010.04.16 14:54:00.
