data_PCOD8294233
_publ_section_title
;
Structure prediction by ZEFSAII (Michael W. Deem and Ramdas Pophale) SiO2 
 PCOD8294233
Probable space group: I B A M
;
_chemical_formula_sum "Si O2"
_cell_formula_units_Z 64
_cell_length_a 14.625651
_cell_length_b 8.745273
_cell_length_c 22.514828
_cell_angle_alpha 90.000000
_cell_angle_beta 90.000000
_cell_angle_gamma 90.000000
_cell_volume 2879.766073
_symmetry_space_group_name_H-M "I B A M"
_symmetry_group_IT_number 72
_symmetry_cell_setting 'orthorhombic'
loop_
_space_group_symop_operation_xyz
x,y,z
-x,-y,z
x,-y,1/2-z
-x,y,1/2-z
-x,-y,-z
x,y,-z
-x,y,1/2+z
x,-y,1/2+z
1/2+x,1/2+y,1/2+z
1/2-x,1/2-y,1/2+z
1/2+x,1/2-y,-z
1/2-x,1/2+y,-z
1/2-x,1/2-y,1/2-z
1/2+x,1/2+y,1/2-z
1/2-x,1/2+y,z
1/2+x,1/2-y,z
loop_
_atom_site_type_symbol
_atom_site_label
_atom_site_fract_x
_atom_site_fract_y
_atom_site_fract_z
Si Si1 0.174044 0.191667 0.500000
Si Si2 0.366147 0.780352 0.371717
Si Si3 0.717191 0.521399 0.319444
Si Si4 0.450317 0.339076 0.624126
Si Si5 0.366766 0.331671 0.500000
O O1 0.129491 0.272138 0.557104
O O2 0.281099 0.220790 0.500000
O O3 0.159312 0.010018 0.500000
O O4 0.308147 0.637372 0.348688
O O5 0.314415 0.930279 0.348006
O O6 0.472538 0.777643 0.349658
O O7 0.729169 0.500000 0.250000
O O8 0.638290 0.648404 0.333026
O O9 0.500000 0.500000 0.619202
O O10 0.423319 0.287982 0.558236
#
# Coordination Sequence:
#
# PCOD8294233 Si02
#       5
#     8  16  16  16   8
#     4  12  19  36  65  95 129 167 212 266 338 376
#     4  11  22  39  65  92 128 167 216 267 325 381
#     4  11  23  41  63  92 127 169 217 266 317 383
#     4  10  20  36  63  92 121 168 216 259 312 386
#     4  12  20  37  64  94 133 163 218 269 323 388
#
# _framework density 22.224027
#
# number of rings (size 3 to 8) (size 9 to 14) (size 15 to 20)
#    0.000    1.000    7.500    1.875    0.000    4.500 
#    0.000    1.250    0.000    4.500    0.000    0.000 
#    0.000    0.000    0.000    0.000    0.000    0.000 
#
# Total GULP energy -396726.697569 kJ/mol
# GULP energy per Si atom -12397.709299 kJ/mol
# Density = 2.217344 g / cm^3
# Si number density = 22.224027 Si / 1000 Ang^3
#
#
#
# Elastic Constant Matrix: (Units=GPa)
#
#
# Indices 1 2 3 4 5 6 
#
# 1 93.7740 9.2812 4.7786 0.0000 0.0000 0.0000
# 2 9.2812 25.3336 21.4765 0.0000 0.0000 0.0000
# 3 4.7786 21.4765 121.8091 0.0000 0.0000 0.0000
# 4 0.0000 0.0000 0.0000 90.6622 0.0000 0.0000
# 5 0.0000 0.0000 0.0000 0.0000 24.4726 0.0000
# 6 0.0000 0.0000 0.0000 0.0000 0.0000 33.2291
#
#
#
# Elastic Compliance Matrix: (Units=1/GPa)
#
#
# Indices 1 2 3 4 5 6 
#
# 1 0.011076 -0.004338 0.000330 0.000000 0.000000 0.000000
# 2 -0.004338 0.048109 -0.008312 0.000000 0.000000 0.000000
# 3 0.000330 -0.008312 0.009662 0.000000 0.000000 0.000000
# 4 0.000000 0.000000 0.000000 0.011030 0.000000 0.000000
# 5 0.000000 0.000000 0.000000 0.000000 0.040862 0.000000
# 6 0.000000 0.000000 0.000000 0.000000 0.000000 0.030094
#
#
# Mechanical properties :
#
#
# Convention : Reuss Voigt Hill
#
# Bulk Modulus (GPa) = 22.62028 34.66550 28.64289
# Shear Modulus (GPa) = 26.28685 43.36480 34.82582
#
# Velocity S-wave (km/s) = 3.44293 4.42210 3.96287
# Velocity P-wave (km/s) = 5.09955 6.45797 5.81854
#
# Compressibility (1/GPa) = 0.04420811
#
# Stress axis : x y z
#
# Youngs Moduli (GPa) = 90.28159 20.78612 103.49677
#
# Poissons Ratio (x) = 0.09017 -0.03419
# Poissons Ratio (y) = 0.39164 0.86027
# Poissons Ratio (z) = -0.02982 0.17278
#
# Static dielectric constant tensor:
#      x y z
#    x 4.750940 0.000000 0.000000 
#    y 0.000000 3.787770 0.000000 
#    z 0.000000 0.000000 3.085130 
# 
# 
# High freq. dielectric constant tensor:
#      x y z
#    x 1.894940 0.000000 0.000000 
#    y 0.000000 1.839710 0.000000 
#    z 0.000000 0.000000 1.870910 
# 
# From -- ./inp_files/41965.got.cif
#   From: 2010.03.12/outbox.cif.g09.slc.cpg/sg72_21_cif.got.tgz:41965.got - 2010.04.16 14:54:00.
