data_PCOD8294313
_publ_section_title
;
Structure prediction by ZEFSAII (Michael W. Deem and Ramdas Pophale) SiO2 
 PCOD8294313
Probable space group: I B A M
;
_chemical_formula_sum "Si O2"
_cell_formula_units_Z 80
_cell_length_a 26.951241
_cell_length_b 7.193532
_cell_length_c 17.907303
_cell_angle_alpha 90.000000
_cell_angle_beta 90.000000
_cell_angle_gamma 90.000000
_cell_volume 3471.771467
_symmetry_space_group_name_H-M "I B A M"
_symmetry_group_IT_number 72
_symmetry_cell_setting 'orthorhombic'
loop_
_space_group_symop_operation_xyz
x,y,z
-x,-y,z
x,-y,1/2-z
-x,y,1/2-z
-x,-y,-z
x,y,-z
-x,y,1/2+z
x,-y,1/2+z
1/2+x,1/2+y,1/2+z
1/2-x,1/2-y,1/2+z
1/2+x,1/2-y,-z
1/2-x,1/2+y,-z
1/2-x,1/2-y,1/2-z
1/2+x,1/2+y,1/2-z
1/2-x,1/2+y,z
1/2+x,1/2-y,z
loop_
_atom_site_type_symbol
_atom_site_label
_atom_site_fract_x
_atom_site_fract_y
_atom_site_fract_z
Si Si1 0.052909 0.414353 0.917592
Si Si2 0.055261 0.785901 0.729675
Si Si3 0.684309 0.504026 0.085740
Si Si4 0.626844 0.823276 0.147383
Si Si5 0.295549 0.083668 0.587356
O O1 0.065101 0.252460 0.857882
O O2 0.091604 0.584920 0.915106
O O3 0.000000 0.500000 0.900462
O O4 0.055651 0.323218 0.000000
O O5 0.096781 0.668656 0.774752
O O6 0.000000 0.715087 0.750000
O O7 0.060644 0.000000 0.750000
O O8 0.641098 0.608810 0.131353
O O9 0.680964 0.285520 0.102004
O O10 0.737842 0.585691 0.108882
O O11 0.674719 0.548570 0.000000
O O12 0.677534 0.942826 0.144292
O O13 0.301645 0.023483 0.500000
#
# Coordination Sequence:
#
# PCOD8294313 Si02
#       5
#    16  16  16  16  16
#     4  11  24  46  75 107 141 188 255 317 374 447
#     4  11  26  50  74 102 146 199 246 315 392 450
#     4  10  20  37  63 107 157 201 250 302 367 444
#     4  12  23  40  73 107 147 198 247 298 378 452
#     4  10  20  37  65 105 156 203 246 303 370 441
#
# _framework density 23.042991000000001
#
# number of rings (size 3 to 8) (size 9 to 14) (size 15 to 20)
#    0.000    1.200    4.000    2.400    2.800    0.000 
#    0.000    4.000    0.000    8.400    0.000    0.000 
#    0.000    0.000    0.000    0.000    0.000    0.000 
#
# Total GULP energy -495939.539869 kJ/mol
# GULP energy per Si atom -12398.488497 kJ/mol
# Density = 2.299054 g / cm^3
# Si number density = 23.042991 Si / 1000 Ang^3
#
#
#
# Elastic Constant Matrix: (Units=GPa)
#
#
# Indices 1 2 3 4 5 6 
#
# 1 89.8397 26.0508 51.6280 0.0000 0.0000 0.0000
# 2 26.0508 104.5842 64.0442 0.0000 0.0000 0.0000
# 3 51.6280 64.0442 149.7202 0.0000 0.0000 0.0000
# 4 0.0000 0.0000 0.0000-2146.0965 0.0000 0.0000
# 5 0.0000 0.0000 0.0000 0.0000 39.3681 0.0000
# 6 0.0000 0.0000 0.0000 0.0000 0.0000 28.8256
#
#
#
# Elastic Compliance Matrix: (Units=1/GPa)
#
#
# Indices 1 2 3 4 5 6 
#
# 1 0.013921 -0.000715 -0.004494 0.000000 0.000000 0.000000
# 2 -0.000715 0.012992 -0.005311 0.000000 0.000000 0.000000
# 3 -0.004494 -0.005311 0.010501 0.000000 0.000000 0.000000
# 4 0.000000 0.000000 0.000000 -0.000466 0.000000 0.000000
# 5 0.000000 0.000000 0.000000 0.000000 0.025401 0.000000
# 6 0.000000 0.000000 0.000000 0.000000 0.000000 0.034691
#
#
# Mechanical properties :
#
#
# Convention : Reuss Voigt Hill
#
# Bulk Modulus (GPa) = 61.07722 69.73226 65.40474
# Shear Modulus (GPa) = 40.47294 -402.08582 -180.80644
#
# Velocity S-wave (km/s) = 4.19550 -13.22394 -8.86765
# Velocity P-wave (km/s) = 7.07340 14.24205 8.74079
#
# Compressibility (1/GPa) = 0.01637272
#
# Stress axis : x y z
#
# Youngs Moduli (GPa) = 71.83297 76.97035 95.23198
#
# Poissons Ratio (x) = 0.05506 0.42801
# Poissons Ratio (y) = 0.05139 0.50576
# Poissons Ratio (z) = 0.32285 0.40877
#
# Static dielectric constant tensor:
#      x y z
#    x 4.436810 0.000000 0.000000 
#    y 0.000000 4.075010 0.000000 
#    z 0.000000 0.000000 3.876980 
# 
# 
# High freq. dielectric constant tensor:
#      x y z
#    x 1.927380 0.000000 0.000000 
#    y 0.000000 1.912610 0.000000 
#    z 0.000000 0.000000 1.882480 
# 
# From -- ./inp_files/33756.got.cif
#   From: 2010.03.12/outbox.cif.g09.slc.cpg/sg72_17_cif.got.tgz:33756.got - 2010.04.16 14:54:00.
