data_PCOD8294531
_publ_section_title
;
Structure prediction by ZEFSAII (Michael W. Deem and Ramdas Pophale) SiO2 
 PCOD8294531
Probable space group: I B A M
;
_chemical_formula_sum "Si O2"
_cell_formula_units_Z 48
_cell_length_a 10.028760
_cell_length_b 30.061976
_cell_length_c 8.559878
_cell_angle_alpha 90.000000
_cell_angle_beta 90.000000
_cell_angle_gamma 90.000000
_cell_volume 2580.669190
_symmetry_space_group_name_H-M "I B A M"
_symmetry_group_IT_number 72
_symmetry_cell_setting 'orthorhombic'
loop_
_space_group_symop_operation_xyz
x,y,z
-x,-y,z
x,-y,1/2-z
-x,y,1/2-z
-x,-y,-z
x,y,-z
-x,y,1/2+z
x,-y,1/2+z
1/2+x,1/2+y,1/2+z
1/2-x,1/2-y,1/2+z
1/2+x,1/2-y,-z
1/2-x,1/2+y,-z
1/2-x,1/2-y,1/2-z
1/2+x,1/2+y,1/2-z
1/2-x,1/2+y,z
1/2+x,1/2-y,z
loop_
_atom_site_type_symbol
_atom_site_label
_atom_site_fract_x
_atom_site_fract_y
_atom_site_fract_z
Si Si1 0.142633 0.547544 0.815826
Si Si2 0.142341 0.120121 0.814961
Si Si3 0.855678 0.784317 0.314996
O O1 0.187811 0.500000 0.750000
O O2 0.250467 0.583661 0.762649
O O3 0.000000 0.562453 0.750000
O O4 0.131932 0.543905 0.000000
O O5 0.186380 0.166675 0.740277
O O6 0.000000 0.104387 0.750000
O O7 0.133752 0.125805 0.000000
O O8 0.859024 0.782470 0.500000
O O9 0.750000 0.750000 0.250000
O O10 0.000000 0.771093 0.250000
#
# Coordination Sequence:
#
# PCOD8294531 Si02
#       3
#    16  16  16
#     4  10  21  36  56  80 109 142 180 223 269 321
#     4  10  21  37  56  81 110 143 182 225 271 323
#     4  11  22  38  59  83 112 146 183 227 274 326
#
# _framework density 18.599826
#
# number of rings (size 3 to 8) (size 9 to 14) (size 15 to 20)
#    0.000    1.667    0.000    8.000    0.000    7.333 
#    0.000    6.667    0.000    0.000    0.000    0.000 
#    0.000    0.000    0.000    0.000    0.000    0.000 
#
# Total GULP energy -297694.490566 kJ/mol
# GULP energy per Si atom -12403.937107 kJ/mol
# Density = 1.855749 g / cm^3
# Si number density = 18.599826 Si / 1000 Ang^3
#
#
#
# Elastic Constant Matrix: (Units=GPa)
#
#
# Indices 1 2 3 4 5 6 
#
# 1 158.6954 134.3121 71.2476 0.0036 0.0055 0.0006
# 2 134.3121 156.5727 71.9633 0.0023 -0.0007 -0.0018
# 3 71.2476 71.9633 136.2202 -0.0206 -0.0201 -0.0034
# 4 0.0036 0.0023 -0.0206 31.5349 -0.0028 -0.0019
# 5 0.0055 -0.0007 -0.0201 -0.0028 34.8351 0.0003
# 6 0.0006 -0.0018 -0.0034 -0.0019 0.0003 47.4411
#
#
#
# Elastic Compliance Matrix: (Units=1/GPa)
#
#
# Indices 1 2 3 4 5 6 
#
# 1 0.023474 -0.019141 -0.002166 -0.000003 -0.000005 -0.000001
# 2 -0.019141 0.024043 -0.002690 -0.000001 0.000002 0.000001
# 3 -0.002166 -0.002690 0.009895 0.000007 0.000006 0.000001
# 4 -0.000003 -0.000001 0.000007 0.031711 0.000003 0.000001
# 5 -0.000005 0.000002 0.000006 0.000003 0.028707 0.000000
# 6 -0.000001 0.000001 0.000001 0.000001 0.000000 0.021079
#
#
# Mechanical properties :
#
#
# Convention : Reuss Voigt Hill
#
# Bulk Modulus (GPa) = 106.17968 111.83714 109.00841
# Shear Modulus (GPa) = 26.31024 34.35990 30.33507
#
# Velocity S-wave (km/s) = 3.76512 4.30271 4.04286
# Velocity P-wave (km/s) = 8.72421 9.21646 8.97371
#
# Compressibility (1/GPa) = 0.00941800
#
# Stress axis : x y z
#
# Youngs Moduli (GPa) = 42.60120 41.59252 101.06215
#
# Poissons Ratio (x) = 0.79612 0.21886
# Poissons Ratio (y) = 0.81542 0.27188
# Poissons Ratio (z) = 0.09226 0.11189
#
# Static dielectric constant tensor:
#      x y z
#    x 3.553020 -0.000010 -0.000030 
#    y -0.000010 3.536550 -0.000020 
#    z -0.000030 -0.000020 3.614100 
# 
# 
# High freq. dielectric constant tensor:
#      x y z
#    x 1.727520 0.000000 0.000000 
#    y 0.000000 1.727160 0.000000 
#    z 0.000000 0.000000 1.745200 
# 
# From -- ./inp_files/1643.got.cif
#   From: 2010.03.12/outbox.cif.g09.slc.cpg/sg72_1_cif.got.tgz:1643.got - 2010.04.16 14:54:00.
