data_PCOD8294396
_publ_section_title
;
Structure prediction by ZEFSAII (Michael W. Deem and Ramdas Pophale) SiO2 
 PCOD8294396
Probable space group: I B A M
;
_chemical_formula_sum "Si O2"
_cell_formula_units_Z 96
_cell_length_a 15.625860
_cell_length_b 19.040266
_cell_length_c 16.627276
_cell_angle_alpha 90.000000
_cell_angle_beta 90.000000
_cell_angle_gamma 90.000000
_cell_volume 4946.955983
_symmetry_space_group_name_H-M "I B A M"
_symmetry_group_IT_number 72
_symmetry_cell_setting 'orthorhombic'
loop_
_space_group_symop_operation_xyz
x,y,z
-x,-y,z
x,-y,1/2-z
-x,y,1/2-z
-x,-y,-z
x,y,-z
-x,y,1/2+z
x,-y,1/2+z
1/2+x,1/2+y,1/2+z
1/2-x,1/2-y,1/2+z
1/2+x,1/2-y,-z
1/2-x,1/2+y,-z
1/2-x,1/2-y,1/2-z
1/2+x,1/2+y,1/2-z
1/2-x,1/2+y,z
1/2+x,1/2-y,z
loop_
_atom_site_type_symbol
_atom_site_label
_atom_site_fract_x
_atom_site_fract_y
_atom_site_fract_z
Si Si1 0.910436 0.973724 0.408653
Si Si2 0.065130 0.439611 0.405582
Si Si3 0.931717 0.304083 0.189742
Si Si4 0.246254 0.542122 0.827362
Si Si5 0.651127 0.322698 0.591776
Si Si6 0.732676 0.829745 0.731644
O O1 0.904938 0.000639 0.500000
O O2 0.911962 0.889127 0.404801
O O3 0.828443 0.005041 0.364695
O O4 0.000000 0.000000 0.369611
O O5 0.055853 0.430227 0.500000
O O6 0.033513 0.366643 0.366005
O O7 0.165325 0.455431 0.387402
O O8 0.000000 0.500000 0.374728
O O9 0.893234 0.243511 0.133626
O O10 0.867330 0.341342 0.253173
O O11 0.000000 0.269494 0.250000
O O12 0.213271 0.500000 0.750000
O O13 0.278626 0.618977 0.796780
O O14 0.675882 0.303748 0.500000
O O15 0.737524 0.344662 0.640120
O O16 0.750000 0.750000 0.750000
#
# Coordination Sequence:
#
# PCOD8294396 Si02
#       6
#    16  16  16  16  16  16
#     4  10  22  38  58  86 119 156 196 244 297 352
#     4  10  23  39  60  87 118 157 199 245 302 359
#     4  10  22  37  60  85 119 151 193 245 291 354
#     4  11  21  36  60  88 116 152 197 246 299 352
#     4  10  20  39  60  81 117 154 192 239 292 351
#     4   9  20  38  56  85 112 149 195 237 292 349
#
# _framework density 19.405873
#
# number of rings (size 3 to 8) (size 9 to 14) (size 15 to 20)
#    0.000    2.000    1.667    1.000    4.667    3.000 
#    0.000    2.500    0.000    0.000    0.000    0.000 
#    0.000    0.000    0.000    0.000    0.000    0.000 
#
# Total GULP energy -594766.994818 kJ/mol
# GULP energy per Si atom -12390.979059 kJ/mol
# Density = 1.936170 g / cm^3
# Si number density = 19.405873 Si / 1000 Ang^3
#
#
#
# Elastic Constant Matrix: (Units=GPa)
#
#
# Indices 1 2 3 4 5 6 
#
# 1 85.0872 39.1981 56.1340 0.0000 0.0000 0.0000
# 2 39.1981 121.3114 46.0768 0.0000 0.0000 0.0000
# 3 56.1340 46.0768 118.4724 0.0001 0.0000 0.0000
# 4 0.0000 0.0000 0.0001 33.9024 0.0000 0.0000
# 5 0.0000 0.0000 0.0000 0.0000 33.9810 0.0000
# 6 0.0000 0.0000 0.0000 0.0000 0.0000 28.8555
#
#
#
# Elastic Compliance Matrix: (Units=1/GPa)
#
#
# Indices 1 2 3 4 5 6 
#
# 1 0.017994 -0.003022 -0.007350 0.000000 0.000000 0.000000
# 2 -0.003022 0.010180 -0.002527 0.000000 0.000000 0.000000
# 3 -0.007350 -0.002527 0.012906 0.000000 0.000000 0.000000
# 4 0.000000 0.000000 0.000000 0.029496 0.000000 0.000000
# 5 0.000000 0.000000 0.000000 0.000000 0.029428 0.000000
# 6 0.000000 0.000000 0.000000 0.000000 0.000000 0.034655
#
#
# Mechanical properties :
#
#
# Convention : Reuss Voigt Hill
#
# Bulk Modulus (GPa) = 65.44310 67.52098 66.48204
# Shear Modulus (GPa) = 30.20164 31.57858 30.89011
#
# Velocity S-wave (km/s) = 3.94929 4.03832 3.99405
# Velocity P-wave (km/s) = 7.38867 7.52420 7.45675
#
# Compressibility (1/GPa) = 0.01528045
#
# Stress axis : x y z
#
# Youngs Moduli (GPa) = 55.57311 98.23482 77.48097
#
# Poissons Ratio (x) = 0.29691 0.56952
# Poissons Ratio (y) = 0.16797 0.19580
# Poissons Ratio (z) = 0.40849 0.24825
#
# Static dielectric constant tensor:
#      x y z
#    x 3.830180 0.000000 0.000000 
#    y 0.000000 3.720560 0.000000 
#    z 0.000000 0.000000 3.938960 
# 
# 
# High freq. dielectric constant tensor:
#      x y z
#    x 1.742350 0.000000 0.000000 
#    y 0.000000 1.771690 0.000000 
#    z 0.000000 0.000000 1.757700 
# 
# From -- ./inp_files/21826.got.cif
#   From: 2010.03.12/outbox.cif.g09.slc.cpg/sg72_11_cif.got.tgz:21826.got - 2010.04.16 14:54:00.
