data_PCOD8294949
_publ_section_title
;
Structure prediction by ZEFSAII (Michael W. Deem and Ramdas Pophale) SiO2 
 PCOD8294949
Probable space group: I B A M
;
_chemical_formula_sum "Si O2"
_cell_formula_units_Z 80
_cell_length_a 19.776194
_cell_length_b 23.457900
_cell_length_c 8.475093
_cell_angle_alpha 90.000000
_cell_angle_beta 90.000000
_cell_angle_gamma 90.000000
_cell_volume 3931.663284
_symmetry_space_group_name_H-M "I B A M"
_symmetry_group_IT_number 72
_symmetry_cell_setting 'orthorhombic'
loop_
_space_group_symop_operation_xyz
x,y,z
-x,-y,z
x,-y,1/2-z
-x,y,1/2-z
-x,-y,-z
x,y,-z
-x,y,1/2+z
x,-y,1/2+z
1/2+x,1/2+y,1/2+z
1/2-x,1/2-y,1/2+z
1/2+x,1/2-y,-z
1/2-x,1/2+y,-z
1/2-x,1/2-y,1/2-z
1/2+x,1/2+y,1/2-z
1/2-x,1/2+y,z
1/2+x,1/2-y,z
loop_
_atom_site_type_symbol
_atom_site_label
_atom_site_fract_x
_atom_site_fract_y
_atom_site_fract_z
Si Si1 0.175942 0.258058 0.683478
Si Si2 0.188458 0.623528 0.316965
Si Si3 0.175131 0.063981 0.314148
Si Si4 0.075519 0.161335 0.313683
Si Si5 0.066578 0.437946 0.312150
O O1 0.178469 0.246102 0.500000
O O2 0.250000 0.250000 0.750000
O O3 0.157756 0.322864 0.721863
O O4 0.121138 0.213530 0.755657
O O5 0.196050 0.639694 0.500000
O O6 0.259517 0.598876 0.250459
O O7 0.133105 0.576484 0.285737
O O8 0.181836 0.058666 0.500000
O O9 0.109349 0.100844 0.263759
O O10 0.169796 0.000000 0.250000
O O11 0.071954 0.166186 0.500000
O O12 0.000000 0.165043 0.250000
O O13 0.052425 0.500000 0.250000
O O14 0.076344 0.432160 0.500000
O O15 0.000000 0.402582 0.250000
#
# Coordination Sequence:
#
# PCOD8294949 Si02
#       5
#    16  16  16  16  16
#     4  11  22  40  64  90 122 159 203 251 307 369
#     4  11  22  39  62  90 125 160 203 259 309 366
#     4  10  22  40  61  89 124 161 205 255 305 365
#     4  10  23  43  63  90 125 161 203 255 307 367
#     4  11  22  38  58  85 120 163 207 253 308 366
#
# _framework density 20.347621
#
# number of rings (size 3 to 8) (size 9 to 14) (size 15 to 20)
#    0.000    1.400    2.000    4.200    0.000    6.800 
#    0.000    4.000    0.000    0.000    0.000    0.000 
#    0.000    0.000    0.000    0.000    0.000    0.000 
#
# Total GULP energy -495692.934855 kJ/mol
# GULP energy per Si atom -12392.323371 kJ/mol
# Density = 2.030131 g / cm^3
# Si number density = 20.347621 Si / 1000 Ang^3
#
#
#
# Elastic Constant Matrix: (Units=GPa)
#
#
# Indices 1 2 3 4 5 6 
#
# 1 180.7750 73.8676 32.1831 0.0000 0.0000 0.0000
# 2 73.8676 141.8539 27.1107 0.0000 0.0000 0.0000
# 3 32.1831 27.1107 50.7234 0.0000 0.0000 0.0000
# 4 0.0000 0.0000 0.0000 33.2785 0.0000 0.0000
# 5 0.0000 0.0000 0.0000 0.0000 32.2510 0.0000
# 6 0.0000 0.0000 0.0000 0.0000 0.0000 42.8730
#
#
#
# Elastic Compliance Matrix: (Units=1/GPa)
#
#
# Indices 1 2 3 4 5 6 
#
# 1 0.007400 -0.003292 -0.002935 0.000000 0.000000 0.000000
# 2 -0.003292 0.009316 -0.002891 0.000000 0.000000 0.000000
# 3 -0.002935 -0.002891 0.023122 0.000000 0.000000 0.000000
# 4 0.000000 0.000000 0.000000 0.030049 0.000000 0.000000
# 5 0.000000 0.000000 0.000000 0.000000 0.031007 0.000000
# 6 0.000000 0.000000 0.000000 0.000000 0.000000 0.023325
#
#
# Mechanical properties :
#
#
# Convention : Reuss Voigt Hill
#
# Bulk Modulus (GPa) = 46.29221 71.07502 58.68362
# Shear Modulus (GPa) = 33.41008 37.69323 35.55166
#
# Velocity S-wave (km/s) = 4.05651 4.30870 4.18450
# Velocity P-wave (km/s) = 6.68883 7.73042 7.22841
#
# Compressibility (1/GPa) = 0.02160191
#
# Stress axis : x y z
#
# Youngs Moduli (GPa) = 135.14349 107.33905 43.24873
#
# Poissons Ratio (x) = 0.35338 0.12695
# Poissons Ratio (y) = 0.44492 0.12501
# Poissons Ratio (z) = 0.39668 0.31027
#
# Static dielectric constant tensor:
#      x y z
#    x 4.185520 0.000000 0.000000 
#    y 0.000000 2.960800 0.000000 
#    z 0.000000 0.000000 3.808780 
# 
# 
# High freq. dielectric constant tensor:
#      x y z
#    x 1.811240 0.000000 0.000000 
#    y 0.000000 1.798750 0.000000 
#    z 0.000000 0.000000 1.785340 
# 
# From -- ./inp_files/4755.got.cif
#   From: 2010.03.12/outbox.cif.g09.slc.cpg/sg72_3_cif.got.tgz:4755.got - 2010.04.16 14:54:00.
