data_PCOD8294373
_publ_section_title
;
Structure prediction by ZEFSAII (Michael W. Deem and Ramdas Pophale) SiO2 
 PCOD8294373
Probable space group: I B A M
;
_chemical_formula_sum "Si O2"
_cell_formula_units_Z 80
_cell_length_a 24.468828
_cell_length_b 9.088885
_cell_length_c 17.972751
_cell_angle_alpha 90.000000
_cell_angle_beta 90.000000
_cell_angle_gamma 90.000000
_cell_volume 3997.038524
_symmetry_space_group_name_H-M "I B A M"
_symmetry_group_IT_number 72
_symmetry_cell_setting 'orthorhombic'
loop_
_space_group_symop_operation_xyz
x,y,z
-x,-y,z
x,-y,1/2-z
-x,y,1/2-z
-x,-y,-z
x,y,-z
-x,y,1/2+z
x,-y,1/2+z
1/2+x,1/2+y,1/2+z
1/2-x,1/2-y,1/2+z
1/2+x,1/2-y,-z
1/2-x,1/2+y,-z
1/2-x,1/2-y,1/2-z
1/2+x,1/2+y,1/2-z
1/2-x,1/2+y,z
1/2+x,1/2-y,z
loop_
_atom_site_type_symbol
_atom_site_label
_atom_site_fract_x
_atom_site_fract_y
_atom_site_fract_z
Si Si1 0.493333 0.339393 0.334639
Si Si2 0.585115 0.829927 0.083369
Si Si3 0.707323 0.785671 0.915285
Si Si4 0.780899 0.429909 0.673451
Si Si5 0.903807 0.401405 0.678581
O O1 0.500000 0.500000 0.375883
O O2 0.500000 0.375063 0.250000
O O3 0.542740 0.240641 0.361083
O O4 0.436567 0.248438 0.340751
O O5 0.643136 0.746486 0.090450
O O6 0.590844 0.000391 0.104850
O O7 0.562292 0.820452 0.000000
O O8 0.739342 0.693066 0.854004
O O9 0.715628 0.954818 0.893733
O O10 0.728400 0.761539 0.000000
O O11 0.758102 0.500000 0.750000
O O12 0.840337 0.358243 0.690921
O O13 0.924348 0.500000 0.750000
#
# Coordination Sequence:
#
# PCOD8294373 Si02
#       5
#    16  16  16  16  16
#     4  11  23  38  58  88 119 155 197 247 305 358
#     4  10  22  39  60  86 116 158 203 245 297 363
#     4  10  21  39  59  86 123 160 198 249 310 364
#     4  10  21  37  60  90 119 158 206 253 299 360
#     4  10  20  38  63  86 118 157 204 249 295 359
#
# _framework density 20.014818999999999
#
# number of rings (size 3 to 8) (size 9 to 14) (size 15 to 20)
#    0.000    1.800    2.000    1.800    0.000    4.400 
#    3.600    0.000    0.000    0.000    0.000    0.000 
#    0.000    0.000    0.000    0.000    0.000    0.000 
#
# Total GULP energy -495703.284734 kJ/mol
# GULP energy per Si atom -12392.582118 kJ/mol
# Density = 1.996926 g / cm^3
# Si number density = 20.014819 Si / 1000 Ang^3
#
#
#
# Elastic Constant Matrix: (Units=GPa)
#
#
# Indices 1 2 3 4 5 6 
#
# 1 93.3458 57.9931 37.9227 0.0000 0.0000 0.0000
# 2 57.9931 99.3566 33.6650 0.0000 0.0000 0.0000
# 3 37.9227 33.6650 75.2343 0.0000 0.0000 0.0000
# 4 0.0000 0.0000 0.0000 -10.4018 0.0000 0.0000
# 5 0.0000 0.0000 0.0000 0.0000 29.6259 0.0000
# 6 0.0000 0.0000 0.0000 0.0000 0.0000 35.1636
#
#
#
# Elastic Compliance Matrix: (Units=1/GPa)
#
#
# Indices 1 2 3 4 5 6 
#
# 1 0.018428 -0.008969 -0.005276 0.000000 0.000000 0.000000
# 2 -0.008969 0.016228 -0.002741 0.000000 0.000000 0.000000
# 3 -0.005276 -0.002741 0.017178 0.000000 0.000000 0.000000
# 4 0.000000 0.000000 0.000000 -0.096137 0.000000 0.000000
# 5 0.000000 0.000000 0.000000 0.000000 0.033754 0.000000
# 6 0.000000 0.000000 0.000000 0.000000 0.000000 0.028438
#
#
# Mechanical properties :
#
#
# Convention : Reuss Voigt Hill
#
# Bulk Modulus (GPa) = 55.98023 58.56647 57.27335
# Shear Modulus (GPa) = 86.48342 20.10128 53.29235
#
# Velocity S-wave (km/s) = 6.58054 3.17254 5.16568
# Velocity P-wave (km/s) = 9.26111 6.53797 8.01602
#
# Compressibility (1/GPa) = 0.01786345
#
# Stress axis : x y z
#
# Youngs Moduli (GPa) = 54.26475 61.62047 58.21543
#
# Poissons Ratio (x) = 0.55266 0.30713
# Poissons Ratio (y) = 0.48668 0.15956
# Poissons Ratio (z) = 0.28629 0.16890
#
# Static dielectric constant tensor:
#      x y z
#    x 3.648200 0.000000 0.000000 
#    y 0.000000 3.594110 0.000000 
#    z 0.000000 0.000000 3.646510 
# 
# 
# High freq. dielectric constant tensor:
#      x y z
#    x 1.778220 0.000000 0.000000 
#    y 0.000000 1.768480 0.000000 
#    z 0.000000 0.000000 1.785760 
# 
# From -- ./inp_files/28126.got.cif
#   From: 2010.03.12/outbox.cif.g09.slc.cpg/sg72_15_cif.got.tgz:28126.got - 2010.04.16 14:54:00.
