data_PCOD8294498
_publ_section_title
;
Structure prediction by ZEFSAII (Michael W. Deem and Ramdas Pophale) SiO2 
 PCOD8294498
Probable space group: I B A M
;
_chemical_formula_sum "Si O2"
_cell_formula_units_Z 56
_cell_length_a 28.182297
_cell_length_b 18.205006
_cell_length_c 5.216064
_cell_angle_alpha 90.000000
_cell_angle_beta 90.000000
_cell_angle_gamma 90.000000
_cell_volume 2676.147985
_symmetry_space_group_name_H-M "I B A M"
_symmetry_group_IT_number 72
_symmetry_cell_setting 'orthorhombic'
loop_
_space_group_symop_operation_xyz
x,y,z
-x,-y,z
x,-y,1/2-z
-x,y,1/2-z
-x,-y,-z
x,y,-z
-x,y,1/2+z
x,-y,1/2+z
1/2+x,1/2+y,1/2+z
1/2-x,1/2-y,1/2+z
1/2+x,1/2-y,-z
1/2-x,1/2+y,-z
1/2-x,1/2-y,1/2-z
1/2+x,1/2+y,1/2-z
1/2-x,1/2+y,z
1/2+x,1/2-y,z
loop_
_atom_site_type_symbol
_atom_site_label
_atom_site_fract_x
_atom_site_fract_y
_atom_site_fract_z
Si Si1 0.530972 0.308358 0.500000
Si Si2 0.785776 0.662956 0.500000
Si Si3 0.627603 0.949812 0.000000
Si Si4 0.467756 0.856875 0.500000
Si Si5 0.775326 0.829261 0.500000
Si Si6 0.567258 0.464200 0.500000
Si Si7 0.825103 0.032619 0.000000
O O1 0.500000 0.318433 0.250000
O O2 0.553589 0.226448 0.500000
O O3 0.568248 0.375291 0.500000
O O4 0.832966 0.614028 0.500000
O O5 0.798396 0.749197 0.500000
O O6 0.755646 0.649155 0.754069
O O7 0.575810 0.912908 0.000000
O O8 0.633671 0.000000 0.250000
O O9 0.500000 0.870678 0.250000
O O10 0.821715 0.879747 0.500000
O O11 0.541953 0.500000 0.750000
O O12 0.620860 0.493432 0.500000
O O13 0.798791 0.000000 0.250000
#
# Coordination Sequence:
#
# PCOD8294498 Si02
#       7
#     8   8   8   8   8   8   8
#     4  10  21  37  58  83 111 153 198 238 295 353
#     4  10  23  40  60  91 119 153 202 242 291 359
#     4  12  26  42  65  96 124 159 201 253 316 360
#     4  10  23  43  64  90 121 159 206 249 303 372
#     4  10  21  40  62  85 121 162 196 238 294 346
#     4  10  21  35  52  83 118 149 194 242 286 345
#     4  10  21  35  55  84 112 152 195 229 281 337
#
# _framework density 20.925598999999998
#
# number of rings (size 3 to 8) (size 9 to 14) (size 15 to 20)
#    0.000    1.714    0.000    3.429    2.000    6.857 
#    0.000    0.000    0.000    0.000    0.000    0.000 
#    0.000    0.000    0.000    0.000    0.000    0.000 
#
# Total GULP energy -347003.061091 kJ/mol
# GULP energy per Si atom -12392.966468 kJ/mol
# Density = 2.087797 g / cm^3
# Si number density = 20.925599 Si / 1000 Ang^3
#
#
#
# Elastic Constant Matrix: (Units=GPa)
#
#
# Indices 1 2 3 4 5 6 
#
# 1 73.7279 62.9408 42.4923 0.0000 0.0000 0.0000
# 2 62.9408 144.6772 62.2254 0.0000 0.0000 0.0000
# 3 42.4923 62.2254 211.4727 0.0000 0.0000 0.0000
# 4 0.0000 0.0000 0.0000 36.0550 0.0000 0.0000
# 5 0.0000 0.0000 0.0000 0.0000 10.3681 0.0000
# 6 0.0000 0.0000 0.0000 0.0000 0.0000 48.5846
#
#
#
# Elastic Compliance Matrix: (Units=1/GPa)
#
#
# Indices 1 2 3 4 5 6 
#
# 1 0.022193 -0.008858 -0.001853 0.000000 0.000000 0.000000
# 2 -0.008858 0.011449 -0.001589 0.000000 0.000000 0.000000
# 3 -0.001853 -0.001589 0.005569 0.000000 0.000000 0.000000
# 4 0.000000 0.000000 0.000000 0.027735 0.000000 0.000000
# 5 0.000000 0.000000 0.000000 0.000000 0.096449 0.000000
# 6 0.000000 0.000000 0.000000 0.000000 0.000000 0.020583
#
#
# Mechanical properties :
#
#
# Convention : Reuss Voigt Hill
#
# Bulk Modulus (GPa) = 68.44165 85.02165 76.73165
# Shear Modulus (GPa) = 23.42482 36.48284 29.95383
#
# Velocity S-wave (km/s) = 3.34942 4.18000 3.78755
# Velocity P-wave (km/s) = 6.90915 8.00095 7.47501
#
# Compressibility (1/GPa) = 0.01461099
#
# Stress axis : x y z
#
# Youngs Moduli (GPa) = 45.05841 87.34379 179.57817
#
# Poissons Ratio (x) = 0.77370 0.33275
# Poissons Ratio (y) = 0.39913 0.28534
# Poissons Ratio (z) = 0.08349 0.13878
#
# Static dielectric constant tensor:
#      x y z
#    x 3.348850 0.000000 0.000000 
#    y 0.000000 3.998960 0.000000 
#    z 0.000000 0.000000 4.419050 
# 
# 
# High freq. dielectric constant tensor:
#      x y z
#    x 1.793210 0.000000 0.000000 
#    y 0.000000 1.834650 0.000000 
#    z 0.000000 0.000000 1.851650 
# 
# From -- ./inp_files/368.got.cif
#   From: 2010.03.12/outbox.cif.g09.slc.cpg/sg72_1_cif.got.tgz:368.got - 2010.04.16 14:54:00.
