data_PCOD8294093
_publ_section_title
;
Structure prediction by ZEFSAII (Michael W. Deem and Ramdas Pophale) SiO2 
 PCOD8294093
Probable space group: I B A M
;
_chemical_formula_sum "Si O2"
_cell_formula_units_Z 116
_cell_length_a 25.381348
_cell_length_b 28.677684
_cell_length_c 8.584708
_cell_angle_alpha 90.000000
_cell_angle_beta 90.000000
_cell_angle_gamma 90.000000
_cell_volume 6248.622471
_symmetry_space_group_name_H-M "I B A M"
_symmetry_group_IT_number 72
_symmetry_cell_setting 'orthorhombic'
loop_
_space_group_symop_operation_xyz
x,y,z
-x,-y,z
x,-y,1/2-z
-x,y,1/2-z
-x,-y,-z
x,y,-z
-x,y,1/2+z
x,-y,1/2+z
1/2+x,1/2+y,1/2+z
1/2-x,1/2-y,1/2+z
1/2+x,1/2-y,-z
1/2-x,1/2+y,-z
1/2-x,1/2-y,1/2-z
1/2+x,1/2+y,1/2-z
1/2-x,1/2+y,z
1/2+x,1/2-y,z
loop_
_atom_site_type_symbol
_atom_site_label
_atom_site_fract_x
_atom_site_fract_y
_atom_site_fract_z
Si Si1 0.153204 0.398429 0.317048
Si Si2 0.190658 0.303194 0.179944
Si Si3 0.814425 0.793981 0.680004
Si Si4 0.500000 0.500000 0.250000
Si Si5 0.050887 0.088464 0.329437
Si Si6 0.657267 0.612288 0.319522
Si Si7 0.752571 0.050147 0.816709
Si Si8 0.056481 0.449882 0.184020
O O1 0.146289 0.404089 0.500000
O O2 0.166153 0.345248 0.276789
O O3 0.198848 0.432960 0.261075
O O4 0.098940 0.411511 0.233242
O O5 0.167698 0.255129 0.247328
O O6 0.252966 0.303557 0.203858
O O7 0.175113 0.308557 0.000000
O O8 0.830549 0.794937 0.500000
O O9 0.845322 0.833548 0.773742
O O10 0.462739 0.466385 0.146281
O O11 0.062954 0.110240 0.500000
O O12 0.100090 0.091662 0.214519
O O13 0.000000 0.113876 0.250000
O O14 0.671536 0.605896 0.500000
O O15 0.700823 0.586284 0.216847
O O16 0.768720 0.000000 0.750000
O O17 0.743616 0.047195 0.000000
O O18 0.073803 0.500000 0.250000
O O19 0.000000 0.434350 0.250000
O O20 0.052810 0.453369 0.000000
#
# Coordination Sequence:
#
# PCOD8294093 Si02
#       8
#    16  16  16   4  16  16  16  16
#     4  12  23  38  59  86 119 155 194 237 289 345
#     4  10  20  35  58  86 117 152 193 238 289 344
#     4  10  20  36  58  84 117 152 192 239 290 344
#     4   8  22  36  62  80 110 140 198 240 292 332
#     4  10  21  37  57  80 109 144 190 240 287 337
#     4  12  24  38  58  84 116 153 193 238 290 348
#     4  12  25  40  55  79 115 155 193 235 288 347
#     4  11  22  39  61  87 118 155 200 244 288 338
#
# _framework density 18.564091000000001
#
# number of rings (size 3 to 8) (size 9 to 14) (size 15 to 20)
#    0.414    0.690    1.379    7.241    0.966    1.103 
#    0.000    0.000    0.000    0.828    0.000    5.793 
#    0.000    0.000    0.000    0.000    0.000    0.000 
#
# Total GULP energy -719312.361751 kJ/mol
# GULP energy per Si atom -12401.937272 kJ/mol
# Density = 1.852184 g / cm^3
# Si number density = 18.564091 Si / 1000 Ang^3
#
#
#
# Elastic Constant Matrix: (Units=GPa)
#
#
# Indices 1 2 3 4 5 6 
#
# 1 77.5503 21.0097 30.2179 0.0000 0.0000 0.0000
# 2 21.0097 88.5814 29.9679 0.0000 0.0000 0.0000
# 3 30.2179 29.9679 128.6274 0.0000 0.0000 0.0000
# 4 0.0000 0.0000 0.0000 33.9641 0.0000 0.0000
# 5 0.0000 0.0000 0.0000 0.0000 27.9569 0.0000
# 6 0.0000 0.0000 0.0000 0.0000 0.0000 22.2892
#
#
#
# Elastic Compliance Matrix: (Units=1/GPa)
#
#
# Indices 1 2 3 4 5 6 
#
# 1 0.014693 -0.002515 -0.002866 0.000000 0.000000 0.000000
# 2 -0.002515 0.012686 -0.002365 0.000000 0.000000 0.000000
# 3 -0.002866 -0.002365 0.008999 0.000000 0.000000 0.000000
# 4 0.000000 0.000000 0.000000 0.029443 0.000000 0.000000
# 5 0.000000 0.000000 0.000000 0.000000 0.035769 0.000000
# 6 0.000000 0.000000 0.000000 0.000000 0.000000 0.044865
#
#
# Mechanical properties :
#
#
# Convention : Reuss Voigt Hill
#
# Bulk Modulus (GPa) = 47.87958 50.79445 49.33702
# Shear Modulus (GPa) = 29.60200 31.07959 30.34080
#
# Velocity S-wave (km/s) = 3.99756 4.09611 4.04713
# Velocity P-wave (km/s) = 6.86693 7.05634 6.96228
#
# Compressibility (1/GPa) = 0.02088573
#
# Stress axis : x y z
#
# Youngs Moduli (GPa) = 68.05978 78.82945 111.12922
#
# Poissons Ratio (x) = 0.19829 0.31846
# Poissons Ratio (y) = 0.17120 0.26278
# Poissons Ratio (z) = 0.19504 0.18640
#
# Static dielectric constant tensor:
#      x y z
#    x 3.282940 0.000000 0.000000 
#    y 0.000000 3.422380 0.000000 
#    z 0.000000 0.000000 3.525140 
# 
# 
# High freq. dielectric constant tensor:
#      x y z
#    x 1.704180 0.000000 0.000000 
#    y 0.000000 1.714280 0.000000 
#    z 0.000000 0.000000 1.742040 
# 
# From -- ./inp_files/7355.got.cif
#   From: 2010.03.12/outbox.cif.g09.slc.cpg/sg72_4_cif.got.tgz:7355.got - 2010.04.16 14:54:00.
