data_PCOD8294955
_publ_section_title
;
Structure prediction by ZEFSAII (Michael W. Deem and Ramdas Pophale) SiO2 
 PCOD8294955
Probable space group: I B A M
;
_chemical_formula_sum "Si O2"
_cell_formula_units_Z 104
_cell_length_a 13.767145
_cell_length_b 19.260592
_cell_length_c 19.230723
_cell_angle_alpha 90.000000
_cell_angle_beta 90.000000
_cell_angle_gamma 90.000000
_cell_volume 5099.283181
_symmetry_space_group_name_H-M "I B A M"
_symmetry_group_IT_number 72
_symmetry_cell_setting 'orthorhombic'
loop_
_space_group_symop_operation_xyz
x,y,z
-x,-y,z
x,-y,1/2-z
-x,y,1/2-z
-x,-y,-z
x,y,-z
-x,y,1/2+z
x,-y,1/2+z
1/2+x,1/2+y,1/2+z
1/2-x,1/2-y,1/2+z
1/2+x,1/2-y,-z
1/2-x,1/2+y,-z
1/2-x,1/2-y,1/2-z
1/2+x,1/2+y,1/2-z
1/2-x,1/2+y,z
1/2+x,1/2-y,z
loop_
_atom_site_type_symbol
_atom_site_label
_atom_site_fract_x
_atom_site_fract_y
_atom_site_fract_z
Si Si1 0.446809 0.224206 0.316446
Si Si2 0.244314 0.901964 0.577229
Si Si3 0.320025 0.449700 0.079747
Si Si4 0.271622 0.677470 0.663047
Si Si5 0.000000 0.000000 0.836063
Si Si6 0.104333 0.709841 0.079742
Si Si7 0.386308 0.369344 0.297639
O O1 0.500000 0.188258 0.250000
O O2 0.333425 0.206258 0.316166
O O3 0.496678 0.201260 0.388630
O O4 0.462666 0.307201 0.308033
O O5 0.200394 0.888986 0.500000
O O6 0.349791 0.867011 0.582463
O O7 0.174207 0.866355 0.631741
O O8 0.250470 0.984238 0.591679
O O9 0.260436 0.384385 0.108220
O O10 0.424209 0.458425 0.116436
O O11 0.343820 0.436417 0.000000
O O12 0.335006 0.738409 0.628989
O O13 0.318896 0.644593 0.731594
O O14 0.058088 0.056877 0.788918
O O15 0.099310 0.737175 0.000000
#
# Coordination Sequence:
#
# PCOD8294955 Si02
#       7
#    16  16  16  16   8  16  16
#     4  12  24  41  65  91 126 172 221 269 324 381
#     4   9  20  40  62  87 125 167 206 257 324 387
#     4  10  22  40  62  91 130 169 208 268 334 393
#     4  12  24  41  64  94 131 171 213 271 328 392
#     4  10  23  37  66  98 129 167 220 266 332 402
#     4  11  23  40  64  94 125 166 222 271 321 390
#     4  11  22  40  62  92 130 168 208 261 326 390
#
# _framework density 20.395023999999999
#
# number of rings (size 3 to 8) (size 9 to 14) (size 15 to 20)
#    0.000    1.231    3.077    3.000    0.000    5.538 
#    0.000    0.769    0.000    3.692    0.000    0.000 
#    0.000    0.000    0.000    0.000    0.000    0.000 
#
# Total GULP energy -644697.439552 kJ/mol
# GULP energy per Si atom -12398.027684 kJ/mol
# Density = 2.034860 g / cm^3
# Si number density = 20.395024 Si / 1000 Ang^3
#
#
#
# Elastic Constant Matrix: (Units=GPa)
#
#
# Indices 1 2 3 4 5 6 
#
# 1 99.3165 40.9156 52.5895 0.0000 0.0000 0.0000
# 2 40.9156 102.5823 38.2762 0.0000 0.0000 0.0000
# 3 52.5895 38.2762 121.6766 0.0000 0.0000 0.0000
# 4 0.0000 0.0000 0.0000 29.8594 0.0000 0.0000
# 5 0.0000 0.0000 0.0000 0.0000 38.4196 0.0000
# 6 0.0000 0.0000 0.0000 0.0000 0.0000 27.3114
#
#
#
# Elastic Compliance Matrix: (Units=1/GPa)
#
#
# Indices 1 2 3 4 5 6 
#
# 1 0.014280 -0.003844 -0.004963 0.000000 0.000000 0.000000
# 2 -0.003844 0.012079 -0.002138 0.000000 0.000000 0.000000
# 3 -0.004963 -0.002138 0.011036 0.000000 0.000000 0.000000
# 4 0.000000 0.000000 0.000000 0.033490 0.000000 0.000000
# 5 0.000000 0.000000 0.000000 0.000000 0.026028 0.000000
# 6 0.000000 0.000000 0.000000 0.000000 0.000000 0.036615
#
#
# Mechanical properties :
#
#
# Convention : Reuss Voigt Hill
#
# Bulk Modulus (GPa) = 64.49407 65.23756 64.86582
# Shear Modulus (GPa) = 31.13548 31.90434 31.51991
#
# Velocity S-wave (km/s) = 3.91144 3.95944 3.93551
# Velocity P-wave (km/s) = 7.21736 7.27731 7.24740
#
# Compressibility (1/GPa) = 0.01550530
#
# Stress axis : x y z
#
# Youngs Moduli (GPa) = 70.02631 82.78558 90.61114
#
# Poissons Ratio (x) = 0.31823 0.44969
# Poissons Ratio (y) = 0.26918 0.19377
# Poissons Ratio (z) = 0.34753 0.17703
#
# Static dielectric constant tensor:
#      x y z
#    x 3.586830 0.000000 0.000000 
#    y 0.000000 3.870120 0.000000 
#    z 0.000000 0.000000 4.031270 
# 
# 
# High freq. dielectric constant tensor:
#      x y z
#    x 1.780240 0.000000 0.000000 
#    y 0.000000 1.795710 0.000000 
#    z 0.000000 0.000000 1.825150 
# 
# From -- ./inp_files/30730.got.cif
#   From: 2010.03.12/outbox.cif.g09.slc.cpg/sg72_16_cif.got.tgz:30730.got - 2010.04.16 14:54:00.
