data_PCOD8294146
_publ_section_title
;
Structure prediction by ZEFSAII (Michael W. Deem and Ramdas Pophale) SiO2 
 PCOD8294146
Probable space group: I B A M
;
_chemical_formula_sum "Si O2"
_cell_formula_units_Z 128
_cell_length_a 19.171559
_cell_length_b 19.603275
_cell_length_c 18.740831
_cell_angle_alpha 90.000000
_cell_angle_beta 90.000000
_cell_angle_gamma 90.000000
_cell_volume 7043.279243
_symmetry_space_group_name_H-M "I B A M"
_symmetry_group_IT_number 72
_symmetry_cell_setting 'orthorhombic'
loop_
_space_group_symop_operation_xyz
x,y,z
-x,-y,z
x,-y,1/2-z
-x,y,1/2-z
-x,-y,-z
x,y,-z
-x,y,1/2+z
x,-y,1/2+z
1/2+x,1/2+y,1/2+z
1/2-x,1/2-y,1/2+z
1/2+x,1/2-y,-z
1/2-x,1/2+y,-z
1/2-x,1/2-y,1/2-z
1/2+x,1/2+y,1/2-z
1/2-x,1/2+y,z
1/2+x,1/2-y,z
loop_
_atom_site_type_symbol
_atom_site_label
_atom_site_fract_x
_atom_site_fract_y
_atom_site_fract_z
Si Si1 0.166513 0.065806 0.298569
Si Si2 0.424303 0.679345 0.770936
Si Si3 0.351060 0.200308 0.199302
Si Si4 0.198927 0.357048 0.830615
Si Si5 0.582351 0.078769 0.753672
Si Si6 0.379955 0.347677 0.420428
Si Si7 0.250186 0.759583 0.579702
Si Si8 0.919417 0.001858 0.919007
O O1 0.134744 0.125369 0.250283
O O2 0.242265 0.085029 0.328688
O O3 0.173696 0.000000 0.250000
O O4 0.117809 0.054907 0.367102
O O5 0.500000 0.651100 0.750000
O O6 0.411003 0.749547 0.729177
O O7 0.422534 0.689790 0.857155
O O8 0.291557 0.191941 0.260653
O O9 0.386413 0.124782 0.188232
O O10 0.318748 0.229676 0.127324
O O11 0.120939 0.391419 0.825681
O O12 0.207580 0.308967 0.899404
O O13 0.500000 0.087992 0.750000
O O14 0.603736 0.000000 0.750000
O O15 0.409055 0.327909 0.500000
O O16 0.299277 0.325482 0.414592
O O17 0.383781 0.428519 0.409744
O O18 0.277895 0.749249 0.500000
O O19 0.911894 0.028623 0.000000
O O20 0.000000 0.000000 0.896389
#
# Coordination Sequence:
#
# PCOD8294146 Si02
#       8
#    16  16  16  16  16  16  16  16
#     4  12  23  33  56  85 115 151 198 237 283 343
#     4  12  22  36  59  86 112 153 198 235 285 343
#     4  10  21  37  58  83 113 147 188 245 291 344
#     4  10  21  36  58  83 114 149 186 248 286 341
#     4   9  19  35  61  91 115 144 190 248 312 361
#     4  10  20  36  56  77 109 152 189 229 287 344
#     4  11  21  36  57  84 118 154 192 239 297 347
#     4  10  22  38  52  74 114 156 191 237 289 340
#
# _framework density 18.173354
#
# number of rings (size 3 to 8) (size 9 to 14) (size 15 to 20)
#    0.750    0.750    3.750    2.625    0.000    0.500 
#    0.000    0.625    0.000    1.500    0.000    1.750 
#    0.000    0.000    0.000    0.000    0.000    0.000 
#
# Total GULP energy -793085.277264 kJ/mol
# GULP energy per Si atom -12391.957457 kJ/mol
# Density = 1.813199 g / cm^3
# Si number density = 18.173354 Si / 1000 Ang^3
#
#
#
# Elastic Constant Matrix: (Units=GPa)
#
#
# Indices 1 2 3 4 5 6 
#
# 1 85.1856 31.9810 38.1208 0.0000 0.0000 0.0000
# 2 31.9810 100.2957 27.9131 0.0000 0.0000 0.0000
# 3 38.1208 27.9131 114.6063 0.0000 0.0000 0.0000
# 4 0.0000 0.0000 0.0000 14.3195 0.0000 0.0000
# 5 0.0000 0.0000 0.0000 0.0000 21.0197 0.0000
# 6 0.0000 0.0000 0.0000 0.0000 0.0000 28.6800
#
#
#
# Elastic Compliance Matrix: (Units=1/GPa)
#
#
# Indices 1 2 3 4 5 6 
#
# 1 0.014926 -0.003623 -0.004082 0.000000 0.000000 0.000000
# 2 -0.003623 0.011575 -0.001614 0.000000 0.000000 0.000000
# 3 -0.004082 -0.001614 0.010477 0.000000 0.000000 0.000000
# 4 0.000000 0.000000 0.000000 0.069835 0.000000 0.000000
# 5 0.000000 0.000000 0.000000 0.000000 0.047575 0.000000
# 6 0.000000 0.000000 0.000000 0.000000 0.000000 0.034867
#
#
# Mechanical properties :
#
#
# Convention : Reuss Voigt Hill
#
# Bulk Modulus (GPa) = 54.53007 55.12415 54.82711
# Shear Modulus (GPa) = 23.36374 26.27534 24.81954
#
# Velocity S-wave (km/s) = 3.58942 3.80652 3.69956
# Velocity P-wave (km/s) = 6.87381 7.05108 6.96301
#
# Compressibility (1/GPa) = 0.01833850
#
# Stress axis : x y z
#
# Youngs Moduli (GPa) = 66.99621 86.39266 95.45169
#
# Poissons Ratio (x) = 0.31303 0.38967
# Poissons Ratio (y) = 0.24275 0.15406
# Poissons Ratio (z) = 0.27350 0.13944
#
# Static dielectric constant tensor:
#      x y z
#    x 3.182400 0.000000 0.000000 
#    y 0.000000 3.420020 0.000000 
#    z 0.000000 0.000000 3.360220 
# 
# 
# High freq. dielectric constant tensor:
#      x y z
#    x 1.696080 0.000000 0.000000 
#    y 0.000000 1.708400 0.000000 
#    z 0.000000 0.000000 1.687170 
# 
# From -- ./inp_files/32960.got.cif
#   From: 2010.03.12/outbox.cif.g09.slc.cpg/sg72_17_cif.got.tgz:32960.got - 2010.04.16 14:54:00.
