data_PCOD8294060
_publ_section_title
;
Structure prediction by ZEFSAII (Michael W. Deem and Ramdas Pophale) SiO2 
 PCOD8294060
Probable space group: I B A M
;
_chemical_formula_sum "Si O2"
_cell_formula_units_Z 100
_cell_length_a 21.054348
_cell_length_b 26.159025
_cell_length_c 9.120318
_cell_angle_alpha 90.000000
_cell_angle_beta 90.000000
_cell_angle_gamma 90.000000
_cell_volume 5023.117429
_symmetry_space_group_name_H-M "I B A M"
_symmetry_group_IT_number 72
_symmetry_cell_setting 'orthorhombic'
loop_
_space_group_symop_operation_xyz
x,y,z
-x,-y,z
x,-y,1/2-z
-x,y,1/2-z
-x,-y,-z
x,y,-z
-x,y,1/2+z
x,-y,1/2+z
1/2+x,1/2+y,1/2+z
1/2-x,1/2-y,1/2+z
1/2+x,1/2-y,-z
1/2-x,1/2+y,-z
1/2-x,1/2-y,1/2-z
1/2+x,1/2+y,1/2-z
1/2-x,1/2+y,z
1/2+x,1/2-y,z
loop_
_atom_site_type_symbol
_atom_site_label
_atom_site_fract_x
_atom_site_fract_y
_atom_site_fract_z
Si Si1 0.936001 0.692719 0.825313
Si Si2 0.815896 0.759900 0.830117
Si Si3 0.768410 0.448931 0.673826
Si Si4 0.064689 0.049464 0.830262
Si Si5 0.000000 0.500000 0.250000
Si Si6 0.322391 0.376788 0.666126
Si Si7 0.596438 0.081736 0.162981
O O1 0.874120 0.724684 0.773060
O O2 0.927555 0.634441 0.763771
O O3 0.000000 0.714819 0.750000
O O4 0.945008 0.695830 0.000000
O O5 0.750000 0.750000 0.750000
O O6 0.834974 0.817984 0.798820
O O7 0.804330 0.748521 0.000000
O O8 0.741125 0.500000 0.750000
O O9 0.765329 0.456486 0.500000
O O10 0.727971 0.399814 0.720482
O O11 0.839576 0.439659 0.737432
O O12 0.110222 0.097116 0.810564
O O13 0.000000 0.064485 0.750000
O O14 0.094938 0.000000 0.750000
O O15 0.052221 0.036456 0.000000
O O16 0.043529 0.537423 0.346161
O O17 0.297238 0.384875 0.500000
O O18 0.616228 0.097542 0.000000
#
# Coordination Sequence:
#
# PCOD8294060 Si02
#       7
#    16  16  16  16   4  16  16
#     4  10  21  39  60  85 116 152 193 244 295 347
#     4  10  22  41  63  85 115 152 197 248 299 350
#     4  11  22  37  57  85 118 155 194 239 286 340
#     4  10  20  35  56  82 115 148 185 227 281 343
#     4  12  18  36  56  78 116 152 188 224 276 332
#     4  10  22  39  58  84 114 150 192 240 290 345
#     4  10  21  35  54  82 116 152 191 231 281 336
#
# _framework density 19.907955999999999
#
# number of rings (size 3 to 8) (size 9 to 14) (size 15 to 20)
#    0.000    1.760    1.600    3.120    0.000    5.760 
#    0.000    1.600    0.000    0.000    0.000    0.000 
#    0.000    0.000    0.000    0.000    0.000    0.000 
#
# Total GULP energy -619912.285259 kJ/mol
# GULP energy per Si atom -12398.245705 kJ/mol
# Density = 1.986264 g / cm^3
# Si number density = 19.907956 Si / 1000 Ang^3
#
#
#
# Elastic Constant Matrix: (Units=GPa)
#
#
# Indices 1 2 3 4 5 6 
#
# 1 131.6567 77.9460 49.7299 0.0000 0.0000 0.0000
# 2 77.9460 145.2225 42.5581 0.0000 0.0000 0.0000
# 3 49.7299 42.5581 81.2539 0.0000 0.0000 0.0000
# 4 0.0000 0.0000 0.0000 24.8195 0.0000 0.0000
# 5 0.0000 0.0000 0.0000 0.0000 32.1782 0.0000
# 6 0.0000 0.0000 0.0000 0.0000 0.0000 35.5694
#
#
#
# Elastic Compliance Matrix: (Units=1/GPa)
#
#
# Indices 1 2 3 4 5 6 
#
# 1 0.012609 -0.005323 -0.004929 0.000000 0.000000 0.000000
# 2 -0.005323 0.010382 -0.002180 0.000000 0.000000 0.000000
# 3 -0.004929 -0.002180 0.016465 0.000000 0.000000 0.000000
# 4 0.000000 0.000000 0.000000 0.040291 0.000000 0.000000
# 5 0.000000 0.000000 0.000000 0.000000 0.031077 0.000000
# 6 0.000000 0.000000 0.000000 0.000000 0.000000 0.028114
#
#
# Mechanical properties :
#
#
# Convention : Reuss Voigt Hill
#
# Bulk Modulus (GPa) = 68.52827 77.62235 73.07531
# Shear Modulus (GPa) = 29.64443 31.04002 30.34222
#
# Velocity S-wave (km/s) = 3.86304 3.95292 3.90824
# Velocity P-wave (km/s) = 7.37528 7.74012 7.55990
#
# Compressibility (1/GPa) = 0.01459252
#
# Stress axis : x y z
#
# Youngs Moduli (GPa) = 79.30986 96.32148 60.73340
#
# Poissons Ratio (x) = 0.51273 0.29935
# Poissons Ratio (y) = 0.42218 0.13239
# Poissons Ratio (z) = 0.39091 0.20996
#
# Static dielectric constant tensor:
#      x y z
#    x 3.668610 0.000000 0.000000 
#    y 0.000000 5.029820 0.000000 
#    z 0.000000 0.000000 3.448680 
# 
# 
# High freq. dielectric constant tensor:
#      x y z
#    x 1.786580 0.000000 0.000000 
#    y 0.000000 1.783430 0.000000 
#    z 0.000000 0.000000 1.760040 
# 
# From -- ./inp_files/6190.got.cif
#   From: 2010.03.12/outbox.cif.g09.slc.cpg/sg72_4_cif.got.tgz:6190.got - 2010.04.16 14:54:00.
