data_PCOD8294619
_publ_section_title
;
Structure prediction by ZEFSAII (Michael W. Deem and Ramdas Pophale) SiO2 
 PCOD8294619
Probable space group: I B A M
;
_chemical_formula_sum "Si O2"
_cell_formula_units_Z 52
_cell_length_a 19.316102
_cell_length_b 15.275312
_cell_length_c 8.880570
_cell_angle_alpha 90.000000
_cell_angle_beta 90.000000
_cell_angle_gamma 90.000000
_cell_volume 2620.296408
_symmetry_space_group_name_H-M "I B A M"
_symmetry_group_IT_number 72
_symmetry_cell_setting 'orthorhombic'
loop_
_space_group_symop_operation_xyz
x,y,z
-x,-y,z
x,-y,1/2-z
-x,y,1/2-z
-x,-y,-z
x,y,-z
-x,y,1/2+z
x,-y,1/2+z
1/2+x,1/2+y,1/2+z
1/2-x,1/2-y,1/2+z
1/2+x,1/2-y,-z
1/2-x,1/2+y,-z
1/2-x,1/2-y,1/2-z
1/2+x,1/2+y,1/2-z
1/2-x,1/2+y,z
1/2+x,1/2-y,z
loop_
_atom_site_type_symbol
_atom_site_label
_atom_site_fract_x
_atom_site_fract_y
_atom_site_fract_z
Si Si1 0.824762 0.248018 0.176831
Si Si2 0.000000 0.500000 0.250000
Si Si3 0.072981 0.907455 0.820842
Si Si4 0.130890 0.582250 0.665620
O O1 0.750000 0.250000 0.250000
O O2 0.867554 0.161724 0.223345
O O3 0.865742 0.332034 0.233727
O O4 0.816014 0.253724 0.000000
O O5 0.950671 0.439616 0.353989
O O6 0.000000 0.876600 0.750000
O O7 0.095605 0.000000 0.750000
O O8 0.064395 0.916302 0.000000
O O9 0.168640 0.500000 0.750000
O O10 0.164311 0.596278 0.500000
#
# Coordination Sequence:
#
# PCOD8294619 Si02
#       4
#    16   4  16  16
#     4  11  25  42  61  89 124 164 208 251 305 367
#     4   8  22  36  62  92 124 156 200 240 310 360
#     4  10  22  40  64  92 119 155 201 252 304 357
#     4  10  21  37  60  89 123 159 199 246 299 359
#
# _framework density 19.845085000000001
#
# number of rings (size 3 to 8) (size 9 to 14) (size 15 to 20)
#    0.923    0.923    0.000    4.154    2.154    6.154 
#    0.000    3.077    0.000    0.000    0.000    0.000 
#    0.000    0.000    0.000    0.000    0.000    0.000 
#
# Total GULP energy -322223.962690 kJ/mol
# GULP energy per Si atom -12393.229334 kJ/mol
# Density = 1.979992 g / cm^3
# Si number density = 19.845085 Si / 1000 Ang^3
#
#
#
# Elastic Constant Matrix: (Units=GPa)
#
#
# Indices 1 2 3 4 5 6 
#
# 1 122.8966 81.8226 52.8011 0.0000 0.0000 0.0000
# 2 81.8226 166.1340 74.8583 0.0000 0.0000 0.0000
# 3 52.8011 74.8583 122.6493 0.0000 0.0000 0.0000
# 4 0.0000 0.0000 0.0000 33.7375 0.0000 0.0000
# 5 0.0000 0.0000 0.0000 0.0000 26.3679 0.0000
# 6 0.0000 0.0000 0.0000 0.0000 0.0000 22.0596
#
#
#
# Elastic Compliance Matrix: (Units=1/GPa)
#
#
# Indices 1 2 3 4 5 6 
#
# 1 0.012540 -0.005164 -0.002247 0.000000 0.000000 0.000000
# 2 -0.005164 0.010429 -0.004142 0.000000 0.000000 0.000000
# 3 -0.002247 -0.004142 0.011649 0.000000 0.000000 0.000000
# 4 0.000000 0.000000 0.000000 0.029641 0.000000 0.000000
# 5 0.000000 0.000000 0.000000 0.000000 0.037925 0.000000
# 6 0.000000 0.000000 0.000000 0.000000 0.000000 0.045332
#
#
# Mechanical properties :
#
#
# Convention : Reuss Voigt Hill
#
# Bulk Modulus (GPa) = 86.86488 92.29378 89.57933
# Shear Modulus (GPa) = 28.66015 29.91286 29.28650
#
# Velocity S-wave (km/s) = 3.80438 3.88663 3.84572
# Velocity P-wave (km/s) = 7.94759 8.17002 8.05958
#
# Compressibility (1/GPa) = 0.01151213
#
# Stress axis : x y z
#
# Youngs Moduli (GPa) = 79.74336 95.88788 85.84561
#
# Poissons Ratio (x) = 0.49514 0.19289
# Poissons Ratio (y) = 0.41177 0.35559
# Poissons Ratio (z) = 0.17918 0.39719
#
# Static dielectric constant tensor:
#      x y z
#    x 3.393660 0.000000 0.000000 
#    y 0.000000 3.996940 0.000000 
#    z 0.000000 0.000000 3.690010 
# 
# 
# High freq. dielectric constant tensor:
#      x y z
#    x 1.760040 0.000000 0.000000 
#    y 0.000000 1.781360 0.000000 
#    z 0.000000 0.000000 1.787370 
# 
# From -- ./inp_files/3128.got.cif
#   From: 2010.03.12/outbox.cif.g09.slc.cpg/sg72_2_cif.got.tgz:3128.got - 2010.04.16 14:54:00.
