data_PCOD8294892
_publ_section_title
;
Structure prediction by ZEFSAII (Michael W. Deem and Ramdas Pophale) SiO2 
 PCOD8294892
Probable space group: I B A M
;
_chemical_formula_sum "Si O2"
_cell_formula_units_Z 80
_cell_length_a 25.765924
_cell_length_b 18.207935
_cell_length_c 8.857555
_cell_angle_alpha 90.000000
_cell_angle_beta 90.000000
_cell_angle_gamma 90.000000
_cell_volume 4155.471169
_symmetry_space_group_name_H-M "I B A M"
_symmetry_group_IT_number 72
_symmetry_cell_setting 'orthorhombic'
loop_
_space_group_symop_operation_xyz
x,y,z
-x,-y,z
x,-y,1/2-z
-x,y,1/2-z
-x,-y,-z
x,y,-z
-x,y,1/2+z
x,-y,1/2+z
1/2+x,1/2+y,1/2+z
1/2-x,1/2-y,1/2+z
1/2+x,1/2-y,-z
1/2-x,1/2+y,-z
1/2-x,1/2-y,1/2-z
1/2+x,1/2+y,1/2-z
1/2-x,1/2+y,z
1/2+x,1/2-y,z
loop_
_atom_site_type_symbol
_atom_site_label
_atom_site_fract_x
_atom_site_fract_y
_atom_site_fract_z
Si Si1 0.848007 0.578975 0.322399
Si Si2 0.253131 0.329536 0.320977
Si Si3 0.053174 0.668719 0.178685
Si Si4 0.845290 0.920539 0.320506
Si Si5 0.447377 0.664345 0.322651
O O1 0.842260 0.500000 0.250000
O O2 0.851295 0.568925 0.500000
O O3 0.798808 0.627382 0.276057
O O4 0.899576 0.619231 0.260695
O O5 0.260266 0.324419 0.500000
O O6 0.250000 0.250000 0.250000
O O7 0.301339 0.369533 0.246723
O O8 0.063300 0.752360 0.232248
O O9 0.000000 0.638145 0.250000
O O10 0.048702 0.664163 0.000000
O O11 0.839423 0.924372 0.500000
O O12 0.900305 0.886920 0.270234
O O13 0.839386 0.000000 0.250000
O O14 0.500000 0.633026 0.250000
O O15 0.454404 0.662103 0.500000
#
# Coordination Sequence:
#
# PCOD8294892 Si02
#       5
#    16  16  16  16  16
#     4  10  22  38  56  80 113 147 182 226 277 328
#     4  11  23  40  62  86 112 147 189 235 285 341
#     4   9  18  35  56  79 107 142 183 228 275 326
#     4  11  23  39  58  84 118 153 189 235 287 340
#     4   9  19  36  58  81 110 147 189 236 284 335
#
# _framework density 19.251728
#
# number of rings (size 3 to 8) (size 9 to 14) (size 15 to 20)
#    0.000    2.000    0.000    3.000    0.000    9.600 
#    0.000    8.000    0.000    0.000    0.000    0.000 
#    0.000    0.000    0.000    0.000    0.000    0.000 
#
# Total GULP energy -496131.573565 kJ/mol
# GULP energy per Si atom -12403.289339 kJ/mol
# Density = 1.920791 g / cm^3
# Si number density = 19.251728 Si / 1000 Ang^3
#
#
#
# Elastic Constant Matrix: (Units=GPa)
#
#
# Indices 1 2 3 4 5 6 
#
# 1 177.8637 95.4916 58.0848 0.0000 0.0000 0.0000
# 2 95.4916 156.0596 48.8518 0.0000 0.0000 0.0000
# 3 58.0848 48.8518 51.8430 0.0000 0.0000 0.0000
# 4 0.0000 0.0000 0.0000 9.5745 0.0000 0.0000
# 5 0.0000 0.0000 0.0000 0.0000 35.8356 0.0000
# 6 0.0000 0.0000 0.0000 0.0000 0.0000 81.2684
#
#
#
# Elastic Compliance Matrix: (Units=1/GPa)
#
#
# Indices 1 2 3 4 5 6 
#
# 1 0.010237 -0.003792 -0.007896 0.000000 0.000000 0.000000
# 2 -0.003792 0.010493 -0.005639 0.000000 0.000000 0.000000
# 3 -0.007896 -0.005639 0.033450 0.000000 0.000000 0.000000
# 4 0.000000 0.000000 0.000000 0.104444 0.000000 0.000000
# 5 0.000000 0.000000 0.000000 0.000000 0.027905 0.000000
# 6 0.000000 0.000000 0.000000 0.000000 0.000000 0.012305
#
#
# Mechanical properties :
#
#
# Convention : Reuss Voigt Hill
#
# Bulk Modulus (GPa) = 51.21635 87.84698 69.53166
# Shear Modulus (GPa) = 20.83358 37.55825 29.19591
#
# Velocity S-wave (km/s) = 3.29320 4.42169 3.89850
# Velocity P-wave (km/s) = 6.41260 8.47339 7.51398
#
# Compressibility (1/GPa) = 0.01952502
#
# Stress axis : x y z
#
# Youngs Moduli (GPa) = 97.68716 95.29737 29.89573
#
# Poissons Ratio (x) = 0.36138 0.23606
# Poissons Ratio (y) = 0.37044 0.16859
# Poissons Ratio (z) = 0.77133 0.53742
#
# Static dielectric constant tensor:
#      x y z
#    x 3.797290 0.000000 0.000000 
#    y 0.000000 3.483370 0.000000 
#    z 0.000000 0.000000 3.476770 
# 
# 
# High freq. dielectric constant tensor:
#      x y z
#    x 1.767900 0.000000 0.000000 
#    y 0.000000 1.755220 0.000000 
#    z 0.000000 0.000000 1.746040 
# 
# From -- ./inp_files/7936.got.cif
#   From: 2010.03.12/outbox.cif.g09.slc.cpg/sg72_4_cif.got.tgz:7936.got - 2010.04.16 14:54:00.
