data_PCOD8294248
_publ_section_title
;
Structure prediction by ZEFSAII (Michael W. Deem and Ramdas Pophale) SiO2 
 PCOD8294248
Probable space group: I B A M
;
_chemical_formula_sum "Si O2"
_cell_formula_units_Z 88
_cell_length_a 12.268702
_cell_length_b 14.602475
_cell_length_c 22.807887
_cell_angle_alpha 90.000000
_cell_angle_beta 90.000000
_cell_angle_gamma 90.000000
_cell_volume 4086.110828
_symmetry_space_group_name_H-M "I B A M"
_symmetry_group_IT_number 72
_symmetry_cell_setting 'orthorhombic'
loop_
_space_group_symop_operation_xyz
x,y,z
-x,-y,z
x,-y,1/2-z
-x,y,1/2-z
-x,-y,-z
x,y,-z
-x,y,1/2+z
x,-y,1/2+z
1/2+x,1/2+y,1/2+z
1/2-x,1/2-y,1/2+z
1/2+x,1/2-y,-z
1/2-x,1/2+y,-z
1/2-x,1/2-y,1/2-z
1/2+x,1/2+y,1/2-z
1/2-x,1/2+y,z
1/2+x,1/2-y,z
loop_
_atom_site_type_symbol
_atom_site_label
_atom_site_fract_x
_atom_site_fract_y
_atom_site_fract_z
Si Si1 0.739447 0.605914 0.372390
Si Si2 0.834639 0.406244 0.000000
Si Si3 0.462872 0.281748 0.626002
Si Si4 0.601804 0.560493 0.895481
Si Si5 0.965862 0.598463 0.317105
Si Si6 0.246568 0.601991 0.500000
Si Si7 0.459247 0.781990 0.000000
O O1 0.773147 0.623766 0.440247
O O2 0.656671 0.686210 0.354673
O O3 0.682013 0.507860 0.360763
O O4 0.837845 0.611935 0.326566
O O5 0.835017 0.515767 0.000000
O O6 0.956796 0.367400 0.000000
O O7 0.554177 0.357185 0.646000
O O8 0.473114 0.180011 0.650266
O O9 0.477918 0.281705 0.555962
O O10 0.500000 0.500000 0.920484
O O11 0.673716 0.607291 0.945174
O O12 0.000000 0.500000 0.344634
O O13 0.000000 0.602318 0.250000
O O14 0.166744 0.687964 0.500000
#
# Coordination Sequence:
#
# PCOD8294248 Si02
#       7
#    16   8  16  16  16   8   8
#     4  10  22  41  68  96 134 174 213 259 324 385
#     4  10  20  37  56  96 141 172 212 254 319 393
#     4  11  24  39  67  98 135 170 215 265 318 387
#     4   9  20  39  60  93 132 174 215 256 312 386
#     4  11  27  47  66  91 125 166 218 275 326 379
#     4  10  21  30  59  90 134 186 207 253 318 375
#     4  12  23  31  56 104 140 169 212 264 312 391
#
# _framework density 21.536373000000001
#
# number of rings (size 3 to 8) (size 9 to 14) (size 15 to 20)
#    0.000    1.636    1.818    1.636    7.636    5.091 
#    0.000    1.818    0.000    3.818    0.000    0.000 
#    0.000    0.000    0.000    0.000    0.000    0.000 
#
# Total GULP energy -545362.828172 kJ/mol
# GULP energy per Si atom -12394.609731 kJ/mol
# Density = 2.148736 g / cm^3
# Si number density = 21.536373 Si / 1000 Ang^3
#
#
#
# Elastic Constant Matrix: (Units=GPa)
#
#
# Indices 1 2 3 4 5 6 
#
# 1 155.7960 68.9230 42.7175 0.0000 0.0000 0.0000
# 2 68.9230 142.4657 39.3359 0.0000 0.0000 0.0000
# 3 42.7175 39.3359 71.4585 0.0000 0.0000 0.0000
# 4 0.0000 0.0000 0.0000 20.5705 0.0000 0.0000
# 5 0.0000 0.0000 0.0000 0.0000 -17.2998 0.0000
# 6 0.0000 0.0000 0.0000 0.0000 0.0000 39.1187
#
#
#
# Elastic Compliance Matrix: (Units=1/GPa)
#
#
# Indices 1 2 3 4 5 6 
#
# 1 0.008834 -0.003321 -0.003453 0.000000 0.000000 0.000000
# 2 -0.003321 0.009525 -0.003258 0.000000 0.000000 0.000000
# 3 -0.003453 -0.003258 0.017852 0.000000 0.000000 0.000000
# 4 0.000000 0.000000 0.000000 0.048613 0.000000 0.000000
# 5 0.000000 0.000000 0.000000 0.000000 -0.057804 0.000000
# 6 0.000000 0.000000 0.000000 0.000000 0.000000 0.025563
#
#
# Mechanical properties :
#
#
# Convention : Reuss Voigt Hill
#
# Bulk Modulus (GPa) = 61.92943 74.63033 68.27988
# Shear Modulus (GPa) = 64.07662 23.06080 43.56871
#
# Velocity S-wave (km/s) = 5.46053 3.27583 4.50269
# Velocity P-wave (km/s) = 8.28098 7.00261 7.66848
#
# Compressibility (1/GPa) = 0.01614741
#
# Stress axis : x y z
#
# Youngs Moduli (GPa) = 113.19265 104.98315 56.01541
#
# Poissons Ratio (x) = 0.34860 0.19344
# Poissons Ratio (y) = 0.37586 0.18252
# Poissons Ratio (z) = 0.39090 0.34208
#
# Static dielectric constant tensor:
#      x y z
#    x 4.081710 0.000000 0.000000 
#    y 0.000000 4.077140 0.000000 
#    z 0.000000 0.000000 3.420170 
# 
# 
# High freq. dielectric constant tensor:
#      x y z
#    x 1.865010 0.000000 0.000000 
#    y 0.000000 1.864200 0.000000 
#    z 0.000000 0.000000 1.789870 
# 
# From -- ./inp_files/43250.got.cif
#   From: 2010.03.12/outbox.cif.g09.slc.cpg/sg72_22_cif.got.tgz:43250.got - 2010.04.16 14:54:00.
