data_PCOD8294228
_publ_section_title
;
Structure prediction by ZEFSAII (Michael W. Deem and Ramdas Pophale) SiO2 
 PCOD8294228
Probable space group: I B A M
;
_chemical_formula_sum "Si O2"
_cell_formula_units_Z 72
_cell_length_a 8.836819
_cell_length_b 14.666940
_cell_length_c 26.354866
_cell_angle_alpha 90.000000
_cell_angle_beta 90.000000
_cell_angle_gamma 90.000000
_cell_volume 3415.830306
_symmetry_space_group_name_H-M "I B A M"
_symmetry_group_IT_number 72
_symmetry_cell_setting 'orthorhombic'
loop_
_space_group_symop_operation_xyz
x,y,z
-x,-y,z
x,-y,1/2-z
-x,y,1/2-z
-x,-y,-z
x,y,-z
-x,y,1/2+z
x,-y,1/2+z
1/2+x,1/2+y,1/2+z
1/2-x,1/2-y,1/2+z
1/2+x,1/2-y,-z
1/2-x,1/2+y,-z
1/2-x,1/2-y,1/2-z
1/2+x,1/2+y,1/2-z
1/2-x,1/2+y,z
1/2+x,1/2-y,z
loop_
_atom_site_type_symbol
_atom_site_label
_atom_site_fract_x
_atom_site_fract_y
_atom_site_fract_z
Si Si1 0.000000 0.000000 0.750000
Si Si2 0.760507 0.126884 0.500000
Si Si3 0.000000 0.500000 0.750000
Si Si4 0.286484 0.622107 0.111678
Si Si5 0.381703 0.694538 0.609023
Si Si6 0.251024 0.554042 0.320828
Si Si7 0.935823 0.216724 0.000000
O O1 0.103509 0.064620 0.715266
O O2 0.784496 0.075889 0.554308
O O3 0.596701 0.174677 0.500000
O O4 0.883085 0.209426 0.500000
O O5 0.897658 0.435898 0.713964
O O6 0.447291 0.668745 0.125125
O O7 0.155512 0.698541 0.117325
O O8 0.251597 0.543802 0.151724
O O9 0.257539 0.635241 0.638860
O O10 0.363147 0.669763 0.549614
#
# Coordination Sequence:
#
# PCOD8294228 Si02
#       7
#     4   8   4  16  16  16   8
#     4  10  20  42  62  76 108 148 188 250 298 328
#     4   8  16  31  53  88 123 149 181 224 274 336
#     4  10  28  42  62  80 112 152 192 266 294 332
#     4  10  20  36  62  90 120 154 188 229 282 349
#     4  10  20  36  62  90 120 154 188 229 282 349
#     4  11  22  43  61  80 115 150 196 244 300 335
#     4   8  16  31  53  88 123 149 181 224 274 336
#
# _framework density 21.078332
#
# number of rings (size 3 to 8) (size 9 to 14) (size 15 to 20)
#    0.000    2.222    2.222    0.000    3.111    0.889 
#    0.000   10.000    0.000    1.333    0.000    0.000 
#    0.000    0.000    0.000    0.000    0.000    0.000 
#
# Total GULP energy -445997.378070 kJ/mol
# GULP energy per Si atom -12388.816058 kJ/mol
# Density = 2.103036 g / cm^3
# Si number density = 21.078332 Si / 1000 Ang^3
#
#
#
# Elastic Constant Matrix: (Units=GPa)
#
#
# Indices 1 2 3 4 5 6 
#
# 1 78.9158 13.0983 40.4955 0.0000 0.0000 0.0000
# 2 13.0983 72.8486 46.3986 0.0000 0.0000 0.0000
# 3 40.4955 46.3986 116.6856 0.0000 0.0000 0.0000
# 4 0.0000 0.0000 0.0000 19.1372 0.0000 0.0000
# 5 0.0000 0.0000 0.0000 0.0000 29.3848 0.0000
# 6 0.0000 0.0000 0.0000 0.0000 0.0000 18.2767
#
#
#
# Elastic Compliance Matrix: (Units=1/GPa)
#
#
# Indices 1 2 3 4 5 6 
#
# 1 0.015457 0.000854 -0.005704 0.000000 0.000000 0.000000
# 2 0.000854 0.018430 -0.007625 0.000000 0.000000 0.000000
# 3 -0.005704 -0.007625 0.013581 0.000000 0.000000 0.000000
# 4 0.000000 0.000000 0.000000 0.052254 0.000000 0.000000
# 5 0.000000 0.000000 0.000000 0.000000 0.034031 0.000000
# 6 0.000000 0.000000 0.000000 0.000000 0.000000 0.054715
#
#
# Mechanical properties :
#
#
# Convention : Reuss Voigt Hill
#
# Bulk Modulus (GPa) = 44.40770 52.04832 48.22801
# Shear Modulus (GPa) = 22.63224 24.59025 23.61125
#
# Velocity S-wave (km/s) = 3.28032 3.41928 3.35052
# Velocity P-wave (km/s) = 5.95492 6.35099 6.15614
#
# Compressibility (1/GPa) = 0.02251862
#
# Stress axis : x y z
#
# Youngs Moduli (GPa) = 64.69600 54.25969 73.63039
#
# Poissons Ratio (x) = -0.04632 0.41997
# Poissons Ratio (y) = -0.05523 0.56141
# Poissons Ratio (z) = 0.36901 0.41371
#
# Static dielectric constant tensor:
#      x y z
#    x 3.905740 0.000000 0.000000 
#    y 0.000000 3.245900 0.000000 
#    z 0.000000 0.000000 4.232900 
# 
# 
# High freq. dielectric constant tensor:
#      x y z
#    x 1.828870 0.000000 0.000000 
#    y 0.000000 1.770230 0.000000 
#    z 0.000000 0.000000 1.849470 
# 
# From -- ./inp_files/50733.got.cif
#   From: 2010.03.12/outbox.cif.g09.slc.cpg/sg72_26_cif.got.tgz:50733.got - 2010.04.16 14:54:00.
