data_PCOD8294306
_publ_section_title
;
Structure prediction by ZEFSAII (Michael W. Deem and Ramdas Pophale) SiO2 
 PCOD8294306
Probable space group: I B A M
;
_chemical_formula_sum "Si O2"
_cell_formula_units_Z 112
_cell_length_a 12.362007
_cell_length_b 26.587741
_cell_length_c 17.912012
_cell_angle_alpha 90.000000
_cell_angle_beta 90.000000
_cell_angle_gamma 90.000000
_cell_volume 5887.281421
_symmetry_space_group_name_H-M "I B A M"
_symmetry_group_IT_number 72
_symmetry_cell_setting 'orthorhombic'
loop_
_space_group_symop_operation_xyz
x,y,z
-x,-y,z
x,-y,1/2-z
-x,y,1/2-z
-x,-y,-z
x,y,-z
-x,y,1/2+z
x,-y,1/2+z
1/2+x,1/2+y,1/2+z
1/2-x,1/2-y,1/2+z
1/2+x,1/2-y,-z
1/2-x,1/2+y,-z
1/2-x,1/2-y,1/2-z
1/2+x,1/2+y,1/2-z
1/2-x,1/2+y,z
1/2+x,1/2-y,z
loop_
_atom_site_type_symbol
_atom_site_label
_atom_site_fract_x
_atom_site_fract_y
_atom_site_fract_z
Si Si1 0.273066 0.410416 0.334891
Si Si2 0.521327 0.556506 0.413662
Si Si3 0.777907 0.700336 0.835311
Si Si4 0.462931 0.054784 0.166123
Si Si5 0.476164 0.844815 0.087403
Si Si6 0.600463 0.377277 0.299068
Si Si7 0.322074 0.803663 0.666814
O O1 0.354111 0.430471 0.397612
O O2 0.166710 0.444545 0.336816
O O3 0.325911 0.413712 0.252482
O O4 0.247235 0.352607 0.354102
O O5 0.500000 0.500000 0.387444
O O6 0.496110 0.564326 0.500000
O O7 0.439109 0.591786 0.369767
O O8 0.855974 0.675075 0.895904
O O9 0.666316 0.670036 0.829041
O O10 0.745182 0.755926 0.863168
O O11 0.839443 0.701284 0.755842
O O12 0.500000 0.065861 0.250000
O O13 0.514229 0.097488 0.113995
O O14 0.500000 0.000000 0.137810
O O15 0.560905 0.808130 0.128644
O O16 0.499012 0.842799 0.000000
O O17 0.500000 0.356844 0.250000
#
# Coordination Sequence:
#
# PCOD8294306 Si02
#       7
#    16  16  16  16  16  16  16
#     4   9  19  36  57  80 108 142 177 222 277 330
#     4  10  22  37  53  76 108 146 182 218 267 328
#     4  10  20  37  62  85 108 143 190 238 276 316
#     4  10  21  38  61  85 109 143 191 239 278 324
#     4  11  23  37  54  83 121 151 181 225 281 345
#     4   9  19  35  56  83 108 135 179 228 274 320
#     4   9  20  38  60  80 107 148 189 228 274 332
#
# _framework density 19.024061
#
# number of rings (size 3 to 8) (size 9 to 14) (size 15 to 20)
#    0.000    2.286    0.000    3.000    0.000   14.286 
#    0.000    2.857    0.000    0.000    0.000    0.000 
#    0.000    0.000    0.000    0.000    0.000    0.000 
#
# Total GULP energy -694574.697264 kJ/mol
# GULP energy per Si atom -12403.119594 kJ/mol
# Density = 1.898076 g / cm^3
# Si number density = 19.024061 Si / 1000 Ang^3
#
#
#
# Elastic Constant Matrix: (Units=GPa)
#
#
# Indices 1 2 3 4 5 6 
#
# 1 131.7354 76.0819 42.9550 0.0000 0.0000 0.0000
# 2 76.0819 126.4574 51.5319 0.0000 0.0000 0.0000
# 3 42.9550 51.5319 79.6789 -0.0003 0.0000 0.0000
# 4 0.0000 0.0000 -0.0003 6.7339 0.0001 0.0000
# 5 0.0000 0.0000 0.0000 0.0001 18.2264 0.0000
# 6 0.0000 0.0000 0.0000 0.0000 0.0000 26.7778
#
#
#
# Elastic Compliance Matrix: (Units=1/GPa)
#
#
# Indices 1 2 3 4 5 6 
#
# 1 0.011972 -0.006209 -0.002438 0.000000 0.000000 0.000000
# 2 -0.006209 0.013958 -0.005680 0.000000 0.000000 0.000000
# 3 -0.002438 -0.005680 0.017538 0.000001 0.000000 0.000000
# 4 0.000000 0.000000 0.000001 0.148503 0.000000 0.000000
# 5 0.000000 0.000000 0.000000 0.000000 0.054866 0.000000
# 6 0.000000 0.000000 0.000000 0.000000 0.000000 0.037344
#
#
# Mechanical properties :
#
#
# Convention : Reuss Voigt Hill
#
# Bulk Modulus (GPa) = 67.50605 75.44549 71.47577
# Shear Modulus (GPa) = 15.73444 21.50112 18.61778
#
# Velocity S-wave (km/s) = 2.87902 3.36550 3.13172
# Velocity P-wave (km/s) = 6.82739 7.40582 7.12248
#
# Compressibility (1/GPa) = 0.01481349
#
# Stress axis : x y z
#
# Youngs Moduli (GPa) = 83.52727 71.64270 57.01778
#
# Poissons Ratio (x) = 0.44485 0.13903
# Poissons Ratio (y) = 0.51864 0.32386
# Poissons Ratio (z) = 0.20367 0.40693
#
# Static dielectric constant tensor:
#      x y z
#    x 3.619400 0.000000 0.000000 
#    y 0.000000 3.508630 0.000000 
#    z 0.000000 0.000000 3.281690 
# 
# 
# High freq. dielectric constant tensor:
#      x y z
#    x 1.749940 0.000000 0.000000 
#    y 0.000000 1.741260 0.000000 
#    z 0.000000 0.000000 1.721900 
# 
# From -- ./inp_files/20659.got.cif
#   From: 2010.03.12/outbox.cif.g09.slc.cpg/sg72_11_cif.got.tgz:20659.got - 2010.04.16 14:54:00.
