data_PCOD8294364
_publ_section_title
;
Structure prediction by ZEFSAII (Michael W. Deem and Ramdas Pophale) SiO2 
 PCOD8294364
Probable space group: I B A M
;
_chemical_formula_sum "Si O2"
_cell_formula_units_Z 48
_cell_length_a 18.848168
_cell_length_b 8.561540
_cell_length_c 15.373594
_cell_angle_alpha 90.000000
_cell_angle_beta 90.000000
_cell_angle_gamma 90.000000
_cell_volume 2480.826783
_symmetry_space_group_name_H-M "I B A M"
_symmetry_group_IT_number 72
_symmetry_cell_setting 'orthorhombic'
loop_
_space_group_symop_operation_xyz
x,y,z
-x,-y,z
x,-y,1/2-z
-x,y,1/2-z
-x,-y,-z
x,y,-z
-x,y,1/2+z
x,-y,1/2+z
1/2+x,1/2+y,1/2+z
1/2-x,1/2-y,1/2+z
1/2+x,1/2-y,-z
1/2-x,1/2+y,-z
1/2-x,1/2-y,1/2-z
1/2+x,1/2+y,1/2-z
1/2-x,1/2+y,z
1/2+x,1/2-y,z
loop_
_atom_site_type_symbol
_atom_site_label
_atom_site_fract_x
_atom_site_fract_y
_atom_site_fract_z
Si Si1 0.190492 0.607632 0.403382
Si Si2 0.078574 0.564156 0.000000
Si Si3 0.170542 0.944076 0.656820
Si Si4 0.421710 0.566628 0.500000
O O1 0.216811 0.663556 0.500000
O O2 0.120347 0.499269 0.414348
O O3 0.250332 0.506869 0.357021
O O4 0.172201 0.756508 0.344752
O O5 0.077054 0.748483 0.000000
O O6 0.000000 0.500000 0.000000
O O7 0.117070 0.006414 0.585276
O O8 0.141854 0.000000 0.750000
O O9 0.500000 0.500000 0.500000
#
# Coordination Sequence:
#
# PCOD8294364 Si02
#       4
#    16   8  16   8
#     4  10  20  38  62  88 128 157 207 250 317 360
#     4  10  21  38  65  88 116 168 208 250 315 372
#     4  12  23  39  64  94 123 162 207 258 308 373
#     4  12  23  42  63  88 126 166 206 258 315 372
#
# _framework density 19.348388
#
# number of rings (size 3 to 8) (size 9 to 14) (size 15 to 20)
#    1.000    0.000    3.333    5.000    0.000    0.667 
#    0.000    0.000    0.000    7.000    0.000    0.000 
#    0.000    0.000    0.000    0.000    0.000    0.000 
#
# Total GULP energy -297617.151108 kJ/mol
# GULP energy per Si atom -12400.714629 kJ/mol
# Density = 1.930435 g / cm^3
# Si number density = 19.348388 Si / 1000 Ang^3
#
#
#
# Elastic Constant Matrix: (Units=GPa)
#
#
# Indices 1 2 3 4 5 6 
#
# 1 159.3281 78.0230 54.9593 0.0000 0.0000 0.0000
# 2 78.0230 180.6795 38.9550 0.0000 0.0000 0.0000
# 3 54.9593 38.9550 121.7649 0.0000 0.0000 0.0000
# 4 0.0000 0.0000 0.0000 11.1987 0.0000 0.0000
# 5 0.0000 0.0000 0.0000 0.0000 1.3593 0.0000
# 6 0.0000 0.0000 0.0000 0.0000 0.0000 40.2536
#
#
#
# Elastic Compliance Matrix: (Units=1/GPa)
#
#
# Indices 1 2 3 4 5 6 
#
# 1 0.008865 -0.003185 -0.002982 0.000000 0.000000 0.000000
# 2 -0.003185 0.007089 -0.000830 0.000000 0.000000 0.000000
# 3 -0.002982 -0.000830 0.009824 0.000000 0.000000 0.000000
# 4 0.000000 0.000000 0.000000 0.089296 0.000000 0.000000
# 5 0.000000 0.000000 0.000000 0.000000 0.735677 0.000000
# 6 0.000000 0.000000 0.000000 0.000000 0.000000 0.024843
#
#
# Mechanical properties :
#
#
# Convention : Reuss Voigt Hill
#
# Bulk Modulus (GPa) = 84.86916 89.51635 87.19275
# Shear Modulus (GPa) = 5.59587 29.88467 17.74027
#
# Velocity S-wave (km/s) = 1.70248 3.93435 3.03130
# Velocity P-wave (km/s) = 6.91545 8.18564 7.57721
#
# Compressibility (1/GPa) = 0.01178284
#
# Stress axis : x y z
#
# Youngs Moduli (GPa) = 112.80567 141.06127 101.78932
#
# Poissons Ratio (x) = 0.44930 0.30356
# Poissons Ratio (y) = 0.35930 0.08452
# Poissons Ratio (z) = 0.33641 0.11713
#
# Static dielectric constant tensor:
#      x y z
#    x 3.481810 0.000000 0.000000 
#    y 0.000000 3.578520 0.000000 
#    z 0.000000 0.000000 3.434270 
# 
# 
# High freq. dielectric constant tensor:
#      x y z
#    x 1.749700 0.000000 0.000000 
#    y 0.000000 1.772300 0.000000 
#    z 0.000000 0.000000 1.737900 
# 
# From -- ./inp_files/18144.got.cif
#   From: 2010.03.12/outbox.cif.g09.slc.cpg/sg72_10_cif.got.tgz:18144.got - 2010.04.16 14:54:00.
