data_PCOD8294430
_publ_section_title
;
Structure prediction by ZEFSAII (Michael W. Deem and Ramdas Pophale) SiO2 
 PCOD8294430
Probable space group: I B A M
;
_chemical_formula_sum "Si O2"
_cell_formula_units_Z 72
_cell_length_a 18.309667
_cell_length_b 8.212787
_cell_length_c 24.009831
_cell_angle_alpha 90.000000
_cell_angle_beta 90.000000
_cell_angle_gamma 90.000000
_cell_volume 3610.439804
_symmetry_space_group_name_H-M "I B A M"
_symmetry_group_IT_number 72
_symmetry_cell_setting 'orthorhombic'
loop_
_space_group_symop_operation_xyz
x,y,z
-x,-y,z
x,-y,1/2-z
-x,y,1/2-z
-x,-y,-z
x,y,-z
-x,y,1/2+z
x,-y,1/2+z
1/2+x,1/2+y,1/2+z
1/2-x,1/2-y,1/2+z
1/2+x,1/2-y,-z
1/2-x,1/2+y,-z
1/2-x,1/2-y,1/2-z
1/2+x,1/2+y,1/2-z
1/2-x,1/2+y,z
1/2+x,1/2-y,z
loop_
_atom_site_type_symbol
_atom_site_label
_atom_site_fract_x
_atom_site_fract_y
_atom_site_fract_z
Si Si1 0.196755 0.897952 0.198341
Si Si2 0.932921 0.666152 0.717767
Si Si3 0.729546 0.339512 0.878581
Si Si4 0.848588 0.442671 0.564422
Si Si5 0.500000 0.000000 0.383196
O O1 0.126723 0.804230 0.219573
O O2 0.255971 0.769628 0.176308
O O3 0.230326 0.000000 0.250000
O O4 0.178792 0.015119 0.145237
O O5 0.908122 0.500000 0.750000
O O6 0.959670 0.633449 0.654961
O O7 0.000000 0.746283 0.750000
O O8 0.805581 0.414862 0.902184
O O9 0.687127 0.234767 0.924575
O O10 0.840199 0.484616 0.500000
O O11 0.934470 0.428527 0.579208
#
# Coordination Sequence:
#
# PCOD8294430 Si02
#       5
#    16  16  16  16   8
#     4  11  22  37  60  89 122 165 195 240 307 368
#     4   9  21  38  60  84 123 163 198 240 301 372
#     4  10  24  40  60  92 125 154 208 257 297 375
#     4  11  22  42  67  88 116 164 209 259 309 353
#     4  10  20  40  66  88 124 152 212 252 308 362
#
# _framework density 19.942167999999999
#
# number of rings (size 3 to 8) (size 9 to 14) (size 15 to 20)
#    0.000    2.000    2.222    1.667    6.222    1.333 
#    0.000    0.000    0.000    1.333    0.000    0.000 
#    0.000    0.000    0.000    0.000    0.000    0.000 
#
# Total GULP energy -446103.493501 kJ/mol
# GULP energy per Si atom -12391.763708 kJ/mol
# Density = 1.989678 g / cm^3
# Si number density = 19.942168 Si / 1000 Ang^3
#
#
#
# Elastic Constant Matrix: (Units=GPa)
#
#
# Indices 1 2 3 4 5 6 
#
# 1 105.1943 53.6582 38.0467 0.0000 0.0000 0.0000
# 2 53.6582 99.0692 45.1263 0.0000 0.0000 0.0000
# 3 38.0467 45.1263 105.2507 0.0000 0.0000 0.0000
# 4 0.0000 0.0000 0.0000 26.6021 0.0000 0.0000
# 5 0.0000 0.0000 0.0000 0.0000 24.0296 0.0000
# 6 0.0000 0.0000 0.0000 0.0000 0.0000 28.7388
#
#
#
# Elastic Compliance Matrix: (Units=1/GPa)
#
#
# Indices 1 2 3 4 5 6 
#
# 1 0.013523 -0.006335 -0.002172 0.000000 0.000000 0.000000
# 2 -0.006335 0.015511 -0.004360 0.000000 0.000000 0.000000
# 3 -0.002172 -0.004360 0.012156 0.000000 0.000000 0.000000
# 4 0.000000 0.000000 0.000000 0.037591 0.000000 0.000000
# 5 0.000000 0.000000 0.000000 0.000000 0.041615 0.000000
# 6 0.000000 0.000000 0.000000 0.000000 0.000000 0.034796
#
#
# Mechanical properties :
#
#
# Convention : Reuss Voigt Hill
#
# Bulk Modulus (GPa) = 64.70429 64.79739 64.75084
# Shear Modulus (GPa) = 26.87007 27.38629 27.12818
#
# Velocity S-wave (km/s) = 3.67468 3.70981 3.69228
# Velocity P-wave (km/s) = 7.10779 7.13536 7.12159
#
# Compressibility (1/GPa) = 0.01545492
#
# Stress axis : x y z
#
# Youngs Moduli (GPa) = 73.94629 64.46881 82.26421
#
# Poissons Ratio (x) = 0.40841 0.17871
# Poissons Ratio (y) = 0.46845 0.35871
# Poissons Ratio (z) = 0.16064 0.28111
#
# Static dielectric constant tensor:
#      x y z
#    x 3.541990 0.000000 0.000000 
#    y 0.000000 3.738450 0.000000 
#    z 0.000000 0.000000 3.637520 
# 
# 
# High freq. dielectric constant tensor:
#      x y z
#    x 1.767610 0.000000 0.000000 
#    y 0.000000 1.775900 0.000000 
#    z 0.000000 0.000000 1.779560 
# 
# From -- ./inp_files/44684.got.cif
#   From: 2010.03.12/outbox.cif.g09.slc.cpg/sg72_23_cif.got.tgz:44684.got - 2010.04.16 14:54:00.
