data_PCOD8294168
_publ_section_title
;
Structure prediction by ZEFSAII (Michael W. Deem and Ramdas Pophale) SiO2 
 PCOD8294168
Probable space group: I B A M
;
_chemical_formula_sum "Si O2"
_cell_formula_units_Z 112
_cell_length_a 22.054606
_cell_length_b 11.102441
_cell_length_c 24.593890
_cell_angle_alpha 90.000000
_cell_angle_beta 90.000000
_cell_angle_gamma 90.000000
_cell_volume 6022.058968
_symmetry_space_group_name_H-M "I B A M"
_symmetry_group_IT_number 72
_symmetry_cell_setting 'orthorhombic'
loop_
_space_group_symop_operation_xyz
x,y,z
-x,-y,z
x,-y,1/2-z
-x,y,1/2-z
-x,-y,-z
x,y,-z
-x,y,1/2+z
x,-y,1/2+z
1/2+x,1/2+y,1/2+z
1/2-x,1/2-y,1/2+z
1/2+x,1/2-y,-z
1/2-x,1/2+y,-z
1/2-x,1/2-y,1/2-z
1/2+x,1/2+y,1/2-z
1/2-x,1/2+y,z
1/2+x,1/2-y,z
loop_
_atom_site_type_symbol
_atom_site_label
_atom_site_fract_x
_atom_site_fract_y
_atom_site_fract_z
Si Si1 0.432542 0.029674 0.812596
Si Si2 0.790496 0.945698 0.690244
Si Si3 0.171182 0.122562 0.902431
Si Si4 0.877177 0.239281 0.140119
Si Si5 0.298910 0.101157 0.060063
Si Si6 0.434097 0.548379 0.562421
Si Si7 0.171372 0.611585 0.631152
O O1 0.418104 0.169471 0.825031
O O2 0.500000 0.000000 0.832109
O O3 0.423329 0.000000 0.750000
O O4 0.389337 0.944844 0.846274
O O5 0.840660 0.841273 0.683654
O O6 0.724509 0.890871 0.676393
O O7 0.790384 0.000000 0.750000
O O8 0.806260 0.055189 0.651158
O O9 0.227355 0.128093 0.943903
O O10 0.152137 0.255958 0.886157
O O11 0.114491 0.057945 0.930366
O O12 0.828939 0.307077 0.102249
O O13 0.920132 0.159825 0.101794
O O14 0.307956 0.963108 0.078185
O O15 0.326958 0.119065 0.000000
O O16 0.500000 0.500000 0.578739
O O17 0.432934 0.592839 0.500000
#
# Coordination Sequence:
#
# PCOD8294168 Si02
#       7
#    16  16  16  16  16  16  16
#     4  10  23  40  60  84 111 159 199 236 291 343
#     4  10  21  36  58  89 118 153 186 232 299 350
#     4  10  21  36  56  88 117 146 193 236 283 342
#     4  10  21  40  58  85 118 149 192 243 287 351
#     4  10  20  36  58  84 115 150 182 232 299 348
#     4  10  22  39  60  84 113 157 198 237 291 341
#     4  10  21  37  57  87 119 147 192 240 286 350
#
# _framework density 18.598289000000001
#
# number of rings (size 3 to 8) (size 9 to 14) (size 15 to 20)
#    0.000    2.000    1.429    1.286    4.000    1.714 
#    0.000    0.000    0.000    6.000    0.000    0.000 
#    0.000    0.000    0.000    0.000    0.000    0.000 
#
# Total GULP energy -694506.348113 kJ/mol
# GULP energy per Si atom -12401.899073 kJ/mol
# Density = 1.855596 g / cm^3
# Si number density = 18.598289 Si / 1000 Ang^3
#
#
#
# Elastic Constant Matrix: (Units=GPa)
#
#
# Indices 1 2 3 4 5 6 
#
# 1 112.0560 47.2993 40.2118 0.0000 0.0000 0.0000
# 2 47.2993 133.6280 40.7312 0.0000 0.0000 0.0000
# 3 40.2118 40.7312 101.0193 0.0000 0.0000 0.0000
# 4 0.0000 0.0000 0.0000 18.2917 0.0000 0.0000
# 5 0.0000 0.0000 0.0000 0.0000 9.3721 0.0000
# 6 0.0000 0.0000 0.0000 0.0000 0.0000 12.6204
#
#
#
# Elastic Compliance Matrix: (Units=1/GPa)
#
#
# Indices 1 2 3 4 5 6 
#
# 1 0.011389 -0.003021 -0.003316 0.000000 0.000000 0.000000
# 2 -0.003021 0.009333 -0.002561 0.000000 0.000000 0.000000
# 3 -0.003316 -0.002561 0.012251 0.000000 0.000000 0.000000
# 4 0.000000 0.000000 0.000000 0.054670 0.000000 0.000000
# 5 0.000000 0.000000 0.000000 0.000000 0.106699 0.000000
# 6 0.000000 0.000000 0.000000 0.000000 0.000000 0.079237
#
#
# Mechanical properties :
#
#
# Convention : Reuss Voigt Hill
#
# Bulk Modulus (GPa) = 65.87787 67.02088 66.44938
# Shear Modulus (GPa) = 16.86724 22.62093 19.74408
#
# Velocity S-wave (km/s) = 3.01479 3.49132 3.26177
# Velocity P-wave (km/s) = 6.90050 7.23648 7.07049
#
# Compressibility (1/GPa) = 0.01517960
#
# Stress axis : x y z
#
# Youngs Moduli (GPa) = 87.80453 107.14431 81.62338
#
# Poissons Ratio (x) = 0.32364 0.27063
# Poissons Ratio (y) = 0.26523 0.20902
# Poissons Ratio (z) = 0.29112 0.27437
#
# Static dielectric constant tensor:
#      x y z
#    x 3.481420 0.000000 0.000000 
#    y 0.000000 3.539590 0.000000 
#    z 0.000000 0.000000 3.309540 
# 
# 
# High freq. dielectric constant tensor:
#      x y z
#    x 1.723240 0.000000 0.000000 
#    y 0.000000 1.731380 0.000000 
#    z 0.000000 0.000000 1.719110 
# 
# From -- ./inp_files/43511.got.cif
#   From: 2010.03.12/outbox.cif.g09.slc.cpg/sg72_22_cif.got.tgz:43511.got - 2010.04.16 14:54:00.
