data_PCOD8294999
_publ_section_title
;
Structure prediction by ZEFSAII (Michael W. Deem and Ramdas Pophale) SiO2 
 PCOD8294999
Probable space group: I B A M
;
_chemical_formula_sum "Si O2"
_cell_formula_units_Z 100
_cell_length_a 26.325929
_cell_length_b 19.143599
_cell_length_c 9.607510
_cell_angle_alpha 90.000000
_cell_angle_beta 90.000000
_cell_angle_gamma 90.000000
_cell_volume 4841.925907
_symmetry_space_group_name_H-M "I B A M"
_symmetry_group_IT_number 72
_symmetry_cell_setting 'orthorhombic'
loop_
_space_group_symop_operation_xyz
x,y,z
-x,-y,z
x,-y,1/2-z
-x,y,1/2-z
-x,-y,-z
x,y,-z
-x,y,1/2+z
x,-y,1/2+z
1/2+x,1/2+y,1/2+z
1/2-x,1/2-y,1/2+z
1/2+x,1/2-y,-z
1/2-x,1/2+y,-z
1/2-x,1/2-y,1/2-z
1/2+x,1/2+y,1/2-z
1/2-x,1/2+y,z
1/2+x,1/2-y,z
loop_
_atom_site_type_symbol
_atom_site_label
_atom_site_fract_x
_atom_site_fract_y
_atom_site_fract_z
Si Si1 0.955973 0.774176 0.154624
Si Si2 0.548397 0.882726 0.338373
Si Si3 0.260315 0.181542 0.659929
Si Si4 0.815928 0.939743 0.339452
Si Si5 0.591706 0.585978 0.347417
Si Si6 0.500000 0.500000 0.250000
Si Si7 0.841279 0.433275 0.336334
O O1 0.938394 0.697271 0.202242
O O2 0.910667 0.829693 0.163473
O O3 0.000000 0.804044 0.250000
O O4 0.978416 0.769169 0.000000
O O5 0.500000 0.910340 0.250000
O O6 0.534445 0.891663 0.500000
O O7 0.599232 0.924632 0.300751
O O8 0.266713 0.204909 0.500000
O O9 0.250000 0.250000 0.750000
O O10 0.210974 0.133822 0.681014
O O11 0.309744 0.136408 0.706911
O O12 0.817246 0.961692 0.500000
O O13 0.873242 0.937593 0.280142
O O14 0.786985 0.000000 0.250000
O O15 0.615085 0.567630 0.500000
O O16 0.536251 0.550224 0.341148
O O17 0.821396 0.500000 0.250000
O O18 0.831930 0.447321 0.500000
#
# Coordination Sequence:
#
# PCOD8294999 Si02
#       7
#    16  16  16  16  16   4  16
#     4   9  18  33  52  77 108 152 198 241 297 352
#     4   9  19  36  59  88 123 160 202 249 298 363
#     4  10  24  44  67  96 126 160 205 261 314 372
#     4  11  24  41  61  89 122 160 207 255 311 371
#     4  11  23  36  56  83 117 162 205 254 313 367
#     4  12  22  36  56  86 126 156 216 260 304 376
#     4  10  22  41  65  92 126 165 207 253 308 370
#
# _framework density 20.652937999999999
#
# number of rings (size 3 to 8) (size 9 to 14) (size 15 to 20)
#    0.000    1.920    1.600    1.200    2.240    4.160 
#    0.000    1.600    0.000    0.000    0.000    0.000 
#    0.000    0.000    0.000    0.000    0.000    0.000 
#
# Total GULP energy -619690.198014 kJ/mol
# GULP energy per Si atom -12393.803960 kJ/mol
# Density = 2.060593 g / cm^3
# Si number density = 20.652938 Si / 1000 Ang^3
#
#
#
# Elastic Constant Matrix: (Units=GPa)
#
#
# Indices 1 2 3 4 5 6 
#
# 1 107.7159 39.0551 47.0182 0.0000 0.0000 0.0000
# 2 39.0551 117.4615 65.2548 0.0000 0.0000 0.0000
# 3 47.0182 65.2548 120.9856 0.0000 0.0000 0.0000
# 4 0.0000 0.0000 0.0000 36.2069 0.0000 0.0000
# 5 0.0000 0.0000 0.0000 0.0000 26.5519 0.0000
# 6 0.0000 0.0000 0.0000 0.0000 0.0000 28.9857
#
#
#
# Elastic Compliance Matrix: (Units=1/GPa)
#
#
# Indices 1 2 3 4 5 6 
#
# 1 0.011473 -0.001910 -0.003428 0.000000 0.000000 0.000000
# 2 -0.001910 0.012474 -0.005986 0.000000 0.000000 0.000000
# 3 -0.003428 -0.005986 0.012826 0.000000 0.000000 0.000000
# 4 0.000000 0.000000 0.000000 0.027619 0.000000 0.000000
# 5 0.000000 0.000000 0.000000 0.000000 0.037662 0.000000
# 6 0.000000 0.000000 0.000000 0.000000 0.000000 0.034500
#
#
# Mechanical properties :
#
#
# Convention : Reuss Voigt Hill
#
# Bulk Modulus (GPa) = 70.79794 72.09101 71.44448
# Shear Modulus (GPa) = 30.50461 31.33789 30.92125
#
# Velocity S-wave (km/s) = 3.84736 3.89955 3.87354
# Velocity P-wave (km/s) = 7.35462 7.43351 7.39417
#
# Compressibility (1/GPa) = 0.01412470
#
# Stress axis : x y z
#
# Youngs Moduli (GPa) = 87.16340 80.16867 77.96539
#
# Poissons Ratio (x) = 0.15312 0.26730
# Poissons Ratio (y) = 0.16648 0.46667
# Poissons Ratio (z) = 0.29884 0.47985
#
# Static dielectric constant tensor:
#      x y z
#    x 3.646620 0.000000 0.000000 
#    y 0.000000 3.915160 0.000000 
#    z 0.000000 0.000000 3.773370 
# 
# 
# High freq. dielectric constant tensor:
#      x y z
#    x 1.796640 0.000000 0.000000 
#    y 0.000000 1.821140 0.000000 
#    z 0.000000 0.000000 1.803460 
# 
# From -- ./inp_files/8182.got.cif
#   From: 2010.03.12/outbox.cif.g09.slc.cpg/sg72_5_cif.got.tgz:8182.got - 2010.04.16 14:54:00.
