data_PCOD8294267
_publ_section_title
;
Structure prediction by ZEFSAII (Michael W. Deem and Ramdas Pophale) SiO2 
 PCOD8294267
Probable space group: I B A M
;
_chemical_formula_sum "Si O2"
_cell_formula_units_Z 120
_cell_length_a 11.046865
_cell_length_b 21.124439
_cell_length_c 23.814976
_cell_angle_alpha 90.000000
_cell_angle_beta 90.000000
_cell_angle_gamma 90.000000
_cell_volume 5557.434837
_symmetry_space_group_name_H-M "I B A M"
_symmetry_group_IT_number 72
_symmetry_cell_setting 'orthorhombic'
loop_
_space_group_symop_operation_xyz
x,y,z
-x,-y,z
x,-y,1/2-z
-x,y,1/2-z
-x,-y,-z
x,y,-z
-x,y,1/2+z
x,-y,1/2+z
1/2+x,1/2+y,1/2+z
1/2-x,1/2-y,1/2+z
1/2+x,1/2-y,-z
1/2-x,1/2+y,-z
1/2-x,1/2-y,1/2-z
1/2+x,1/2+y,1/2-z
1/2-x,1/2+y,z
1/2+x,1/2-y,z
loop_
_atom_site_type_symbol
_atom_site_label
_atom_site_fract_x
_atom_site_fract_y
_atom_site_fract_z
Si Si1 0.206843 0.974837 0.936990
Si Si2 0.500000 0.500000 0.355810
Si Si3 0.529937 0.169433 0.142686
Si Si4 0.921498 0.437630 0.064138
Si Si5 0.233024 0.664912 0.562057
Si Si6 0.075863 0.799388 0.138232
Si Si7 0.730797 0.179337 0.772644
Si Si8 0.409376 0.619916 0.799583
O O1 0.286929 0.911073 0.932596
O O2 0.284718 0.037927 0.922950
O O3 0.154660 0.980543 0.000000
O O4 0.096540 0.964430 0.894464
O O5 0.574319 0.547344 0.316290
O O6 0.461924 0.109988 0.113864
O O7 0.631900 0.197377 0.100971
O O8 0.431790 0.224607 0.151195
O O9 0.596722 0.159472 0.203836
O O10 0.000000 0.500000 0.066786
O O11 0.929423 0.408723 0.000000
O O12 0.206045 0.688759 0.500000
O O13 0.370451 0.687422 0.576214
O O14 0.177632 0.832482 0.176490
O O15 0.946352 0.833876 0.148370
O O16 0.750000 0.250000 0.750000
O O17 0.771217 0.132453 0.721382
O O18 0.500000 0.639807 0.750000
#
# Coordination Sequence:
#
# PCOD8294267 Si02
#       8
#    16   8  16  16  16  16  16  16
#     4  10  21  38  61  88 122 165 207 248 312 394
#     4  12  22  38  64  90 122 162 204 272 322 372
#     4  11  21  36  63  89 120 166 214 264 320 382
#     4  10  20  37  61  89 124 169 215 256 315 392
#     4  10  20  37  59  85 122 163 203 252 316 384
#     4  10  21  37  59  87 118 157 209 251 311 385
#     4  10  21  38  62  88 119 160 210 260 322 389
#     4  10  21  38  57  86 116 156 208 256 313 380
#
# _framework density 21.592694999999999
#
# number of rings (size 3 to 8) (size 9 to 14) (size 15 to 20)
#    0.000    1.733    4.000    0.800    0.000    2.133 
#    0.000    0.000    0.000    0.000    3.467    0.000 
#    0.000    0.000    0.000    0.000    0.000    0.000 
#
# Total GULP energy -743427.091904 kJ/mol
# GULP energy per Si atom -12390.451532 kJ/mol
# Density = 2.154355 g / cm^3
# Si number density = 21.592695 Si / 1000 Ang^3
#
#
#
# Elastic Constant Matrix: (Units=GPa)
#
#
# Indices 1 2 3 4 5 6 
#
# 1 57.5354 22.4914 34.2119 0.0000 0.0000 0.0000
# 2 22.4914 89.3778 22.1212 0.0000 0.0000 0.0000
# 3 34.2119 22.1212 62.5820 0.0000 0.0000 0.0000
# 4 0.0000 0.0000 0.0000 34.2653 0.0000 0.0000
# 5 0.0000 0.0000 0.0000 0.0000 32.0604 0.0000
# 6 0.0000 0.0000 0.0000 0.0000 0.0000 36.1377
#
#
#
# Elastic Compliance Matrix: (Units=1/GPa)
#
#
# Indices 1 2 3 4 5 6 
#
# 1 0.026662 -0.003399 -0.013374 0.000000 0.000000 0.000000
# 2 -0.003399 0.012695 -0.002629 0.000000 0.000000 0.000000
# 3 -0.013374 -0.002629 0.024219 0.000000 0.000000 0.000000
# 4 0.000000 0.000000 0.000000 0.029184 0.000000 0.000000
# 5 0.000000 0.000000 0.000000 0.000000 0.031191 0.000000
# 6 0.000000 0.000000 0.000000 0.000000 0.000000 0.027672
#
#
# Mechanical properties :
#
#
# Convention : Reuss Voigt Hill
#
# Bulk Modulus (GPa) = 40.36841 40.79380 40.58110
# Shear Modulus (GPa) = 25.16564 29.20407 27.18485
#
# Velocity S-wave (km/s) = 3.41760 3.68162 3.55207
# Velocity P-wave (km/s) = 5.85742 6.08324 5.97140
#
# Compressibility (1/GPa) = 0.02477185
#
# Stress axis : x y z
#
# Youngs Moduli (GPa) = 37.50701 78.77410 41.28935
#
# Poissons Ratio (x) = 0.26777 0.55219
# Poissons Ratio (y) = 0.12750 0.10855
# Poissons Ratio (z) = 0.50161 0.20709
#
# Static dielectric constant tensor:
#      x y z
#    x 3.974140 0.000000 0.000000 
#    y 0.000000 3.601390 0.000000 
#    z 0.000000 0.000000 4.130540 
# 
# 
# High freq. dielectric constant tensor:
#      x y z
#    x 1.839730 0.000000 0.000000 
#    y 0.000000 1.824730 0.000000 
#    z 0.000000 0.000000 1.848200 
# 
# From -- ./inp_files/43577.got.cif
#   From: 2010.03.12/outbox.cif.g09.slc.cpg/sg72_22_cif.got.tgz:43577.got - 2010.04.16 14:54:00.
