data_PCOD8294407
_publ_section_title
;
Structure prediction by ZEFSAII (Michael W. Deem and Ramdas Pophale) SiO2 
 PCOD8294407
Probable space group: I B A M
;
_chemical_formula_sum "Si O2"
_cell_formula_units_Z 112
_cell_length_a 10.800880
_cell_length_b 30.894896
_cell_length_c 16.512757
_cell_angle_alpha 90.000000
_cell_angle_beta 90.000000
_cell_angle_gamma 90.000000
_cell_volume 5510.175971
_symmetry_space_group_name_H-M "I B A M"
_symmetry_group_IT_number 72
_symmetry_cell_setting 'orthorhombic'
loop_
_space_group_symop_operation_xyz
x,y,z
-x,-y,z
x,-y,1/2-z
-x,y,1/2-z
-x,-y,-z
x,y,-z
-x,y,1/2+z
x,-y,1/2+z
1/2+x,1/2+y,1/2+z
1/2-x,1/2-y,1/2+z
1/2+x,1/2-y,-z
1/2-x,1/2+y,-z
1/2-x,1/2-y,1/2-z
1/2+x,1/2+y,1/2-z
1/2-x,1/2+y,z
1/2+x,1/2-y,z
loop_
_atom_site_type_symbol
_atom_site_label
_atom_site_fract_x
_atom_site_fract_y
_atom_site_fract_z
Si Si1 0.072254 0.042106 0.405964
Si Si2 0.958926 0.436114 0.907455
Si Si3 0.465679 0.372235 0.659792
Si Si4 0.791856 0.642429 0.403501
Si Si5 0.676486 0.012765 0.842226
Si Si6 0.252999 0.236181 0.158364
Si Si7 0.012087 0.782299 0.091311
O O1 0.046038 0.050462 0.500000
O O2 0.214659 0.036871 0.387189
O O3 0.034064 0.083347 0.355073
O O4 0.000000 0.000000 0.374355
O O5 0.913033 0.387311 0.888398
O O6 0.846417 0.469615 0.894905
O O7 0.064485 0.452322 0.845515
O O8 0.005971 0.438955 0.000000
O O9 0.500000 0.356590 0.750000
O O10 0.321203 0.380997 0.642446
O O11 0.509359 0.333982 0.600789
O O12 0.766363 0.647674 0.500000
O O13 0.808651 0.688696 0.360585
O O14 0.705113 0.000000 0.750000
O O15 0.250000 0.250000 0.250000
O O16 0.108556 0.239878 0.132597
O O17 0.351014 0.268224 0.117849
O O18 0.996120 0.768502 0.000000
#
# Coordination Sequence:
#
# PCOD8294407 Si02
#       7
#    16  16  16  16  16  16  16
#     4  11  24  40  61  87 121 163 209 255 310 377
#     4  10  20  39  64  85 117 166 210 252 307 376
#     4  11  23  38  61  91 126 160 205 261 319 373
#     4  10  21  40  66  91 122 167 217 256 315 393
#     4  11  23  38  58  89 127 161 206 260 318 370
#     4  11  22  41  65  96 130 168 214 270 328 386
#     4  11  22  42  67  93 128 171 215 261 325 394
#
# _framework density 20.326029999999999
#
# number of rings (size 3 to 8) (size 9 to 14) (size 15 to 20)
#    0.000    1.286    0.000    9.000    4.000    2.286 
#    2.571    1.429    0.000    0.000    0.000    0.000 
#    0.000    0.000    0.000    0.000    0.000    0.000 
#
# Total GULP energy -694159.207605 kJ/mol
# GULP energy per Si atom -12395.700136 kJ/mol
# Density = 2.027977 g / cm^3
# Si number density = 20.326030 Si / 1000 Ang^3
#
#
#
# Elastic Constant Matrix: (Units=GPa)
#
#
# Indices 1 2 3 4 5 6 
#
# 1 75.1175 43.7550 19.3926 0.0000 0.0000 0.0000
# 2 43.7550 91.1329 21.8151 -0.0002 -0.0001 0.0000
# 3 19.3926 21.8151 104.2130 -0.0008 0.0000 0.0002
# 4 0.0000 -0.0002 -0.0008 29.4420 0.0000 0.0001
# 5 0.0000 -0.0001 0.0000 0.0000 27.1975 -0.0001
# 6 0.0000 0.0000 0.0002 0.0001 -0.0001 31.3999
#
#
#
# Elastic Compliance Matrix: (Units=1/GPa)
#
#
# Indices 1 2 3 4 5 6 
#
# 1 0.018760 -0.008602 -0.001690 0.000000 0.000000 0.000000
# 2 -0.008602 0.015497 -0.001643 0.000000 0.000000 0.000000
# 3 -0.001690 -0.001643 0.010254 0.000000 0.000000 0.000000
# 4 0.000000 0.000000 0.000000 0.033965 0.000000 0.000000
# 5 0.000000 0.000000 0.000000 0.000000 0.036768 0.000000
# 6 0.000000 0.000000 0.000000 0.000000 0.000000 0.031847
#
#
# Mechanical properties :
#
#
# Convention : Reuss Voigt Hill
#
# Bulk Modulus (GPa) = 48.45188 48.93210 48.69199
# Shear Modulus (GPa) = 28.11491 29.97460 29.04475
#
# Velocity S-wave (km/s) = 3.72317 3.84434 3.78424
# Velocity P-wave (km/s) = 6.50936 6.62051 6.56517
#
# Compressibility (1/GPa) = 0.02063904
#
# Stress axis : x y z
#
# Youngs Moduli (GPa) = 53.30611 64.53070 97.52098
#
# Poissons Ratio (x) = 0.55511 0.16482
# Poissons Ratio (y) = 0.45856 0.16024
# Poissons Ratio (z) = 0.09010 0.10603
#
# Static dielectric constant tensor:
#      x y z
#    x 3.909600 0.000000 0.000000 
#    y 0.000000 3.754770 0.000000 
#    z 0.000000 0.000000 3.750020 
# 
# 
# High freq. dielectric constant tensor:
#      x y z
#    x 1.796120 0.000000 0.000000 
#    y 0.000000 1.794770 0.000000 
#    z 0.000000 0.000000 1.802380 
# 
# From -- ./inp_files/20738.got.cif
#   From: 2010.03.12/outbox.cif.g09.slc.cpg/sg72_11_cif.got.tgz:20738.got - 2010.04.16 14:54:00.
