data_PCOD8294938
_publ_section_title
;
Structure prediction by ZEFSAII (Michael W. Deem and Ramdas Pophale) SiO2 
 PCOD8294938
Probable space group: I B A M
;
_chemical_formula_sum "Si O2"
_cell_formula_units_Z 112
_cell_length_a 11.918382
_cell_length_b 14.702640
_cell_length_c 28.915357
_cell_angle_alpha 90.000000
_cell_angle_beta 90.000000
_cell_angle_gamma 90.000000
_cell_volume 5066.886583
_symmetry_space_group_name_H-M "I B A M"
_symmetry_group_IT_number 72
_symmetry_cell_setting 'orthorhombic'
loop_
_space_group_symop_operation_xyz
x,y,z
-x,-y,z
x,-y,1/2-z
-x,y,1/2-z
-x,-y,-z
x,y,-z
-x,y,1/2+z
x,-y,1/2+z
1/2+x,1/2+y,1/2+z
1/2-x,1/2-y,1/2+z
1/2+x,1/2-y,-z
1/2-x,1/2+y,-z
1/2-x,1/2-y,1/2-z
1/2+x,1/2+y,1/2-z
1/2-x,1/2+y,z
1/2+x,1/2-y,z
loop_
_atom_site_type_symbol
_atom_site_label
_atom_site_fract_x
_atom_site_fract_y
_atom_site_fract_z
Si Si1 0.632293 0.021162 0.396609
Si Si2 0.764834 0.295847 0.700923
Si Si3 0.375168 0.965958 0.202789
Si Si4 0.044216 0.103053 0.703416
Si Si5 0.238809 0.193901 0.105053
Si Si6 0.716422 0.627351 0.945438
Si Si7 0.010403 0.106146 0.893582
O O1 0.655319 0.128315 0.406789
O O2 0.500000 0.000000 0.403869
O O3 0.677123 0.006380 0.344335
O O4 0.709270 0.957481 0.428631
O O5 0.750000 0.250000 0.750000
O O6 0.879001 0.355034 0.699159
O O7 0.677260 0.381581 0.698539
O O8 0.755582 0.224546 0.659013
O O9 0.500000 0.000000 0.205568
O O10 0.312061 0.000000 0.250000
O O11 0.000000 0.153700 0.750000
O O12 0.997424 0.152513 0.657421
O O13 0.000000 0.000000 0.705657
O O14 0.228239 0.280324 0.072218
O O15 0.131340 0.135509 0.088734
O O16 0.588616 0.633566 0.927870
O O17 0.713728 0.623387 0.000000
O O18 0.000000 0.000000 0.886174
#
# Coordination Sequence:
#
# PCOD8294938 Si02
#       7
#    16  16  16  16  16  16  16
#     4  11  25  49  76 104 149 193 240 306 373 443
#     4  12  24  42  68 106 147 189 247 299 362 438
#     4  10  22  41  67  98 143 193 236 283 361 437
#     4  10  22  39  68 100 139 190 236 286 358 434
#     4  12  26  46  75 108 145 187 243 306 365 435
#     4  12  28  50  75 108 146 192 248 309 371 439
#     4  11  23  47  75 102 146 188 242 299 362 439
#
# _framework density 22.104303000000002
#
# number of rings (size 3 to 8) (size 9 to 14) (size 15 to 20)
#    0.000    0.857    4.286    1.714    6.000    1.714 
#   12.857    0.000    0.000    0.000    0.000    0.000 
#    0.000    0.000    0.000    0.000    0.000    0.000 
#
# Total GULP energy -693776.023165 kJ/mol
# GULP energy per Si atom -12388.857557 kJ/mol
# Density = 2.205399 g / cm^3
# Si number density = 22.104303 Si / 1000 Ang^3
#
#
#
# Elastic Constant Matrix: (Units=GPa)
#
#
# Indices 1 2 3 4 5 6 
#
# 1 112.9054 49.1152 34.5945 0.0000 0.0000 0.0000
# 2 49.1152 130.1793 37.6642 0.0000 0.0000 0.0000
# 3 34.5945 37.6642 171.4506 0.0000 0.0000 0.0000
# 4 0.0000 0.0000 0.0000 29.2471 0.0000 0.0000
# 5 0.0000 0.0000 0.0000 0.0000 28.7149 0.0000
# 6 0.0000 0.0000 0.0000 0.0000 0.0000 43.3830
#
#
#
# Elastic Compliance Matrix: (Units=1/GPa)
#
#
# Indices 1 2 3 4 5 6 
#
# 1 0.010895 -0.003710 -0.001383 0.000000 0.000000 0.000000
# 2 -0.003710 0.009467 -0.001331 0.000000 0.000000 0.000000
# 3 -0.001383 -0.001331 0.006404 0.000000 0.000000 0.000000
# 4 0.000000 0.000000 0.000000 0.034191 0.000000 0.000000
# 5 0.000000 0.000000 0.000000 0.000000 0.034825 0.000000
# 6 0.000000 0.000000 0.000000 0.000000 0.000000 0.023051
#
#
# Mechanical properties :
#
#
# Convention : Reuss Voigt Hill
#
# Bulk Modulus (GPa) = 71.85697 73.03146 72.44422
# Shear Modulus (GPa) = 36.67829 39.81309 38.24569
#
# Velocity S-wave (km/s) = 4.07790 4.24860 4.16412
# Velocity P-wave (km/s) = 7.39940 7.56166 7.48097
#
# Compressibility (1/GPa) = 0.01391653
#
# Stress axis : x y z
#
# Youngs Moduli (GPa) = 91.78671 105.63396 156.15051
#
# Poissons Ratio (x) = 0.39193 0.21599
# Poissons Ratio (y) = 0.34056 0.20783
# Poissons Ratio (z) = 0.12696 0.14060
#
# Static dielectric constant tensor:
#      x y z
#    x 4.004410 0.000000 0.000000 
#    y 0.000000 3.852230 0.000000 
#    z 0.000000 0.000000 4.574870 
# 
# 
# High freq. dielectric constant tensor:
#      x y z
#    x 1.870630 0.000000 0.000000 
#    y 0.000000 1.870950 0.000000 
#    z 0.000000 0.000000 1.865700 
# 
# From -- ./inp_files/51477.got.cif
#   From: 2010.03.12/outbox.cif.g09.slc.cpg/sg72_26_cif.got.tgz:51477.got - 2010.04.16 14:54:00.
