data_PCOD8294976
_publ_section_title
;
Structure prediction by ZEFSAII (Michael W. Deem and Ramdas Pophale) SiO2 
 PCOD8294976
Probable space group: I B A M
;
_chemical_formula_sum "Si O2"
_cell_formula_units_Z 52
_cell_length_a 16.379901
_cell_length_b 10.544876
_cell_length_c 13.577957
_cell_angle_alpha 90.000000
_cell_angle_beta 90.000000
_cell_angle_gamma 90.000000
_cell_volume 2345.239383
_symmetry_space_group_name_H-M "I B A M"
_symmetry_group_IT_number 72
_symmetry_cell_setting 'orthorhombic'
loop_
_space_group_symop_operation_xyz
x,y,z
-x,-y,z
x,-y,1/2-z
-x,y,1/2-z
-x,-y,-z
x,y,-z
-x,y,1/2+z
x,-y,1/2+z
1/2+x,1/2+y,1/2+z
1/2-x,1/2-y,1/2+z
1/2+x,1/2-y,-z
1/2-x,1/2+y,-z
1/2-x,1/2-y,1/2-z
1/2+x,1/2+y,1/2-z
1/2-x,1/2+y,z
1/2+x,1/2-y,z
loop_
_atom_site_type_symbol
_atom_site_label
_atom_site_fract_x
_atom_site_fract_y
_atom_site_fract_z
Si Si1 0.085125 0.463622 0.138247
Si Si2 0.000000 0.000000 0.750000
Si Si3 0.197564 0.680934 0.108703
Si Si4 0.369464 0.302944 0.300986
O O1 0.078431 0.500000 0.250000
O O2 0.157447 0.543651 0.090096
O O3 0.102839 0.314401 0.130913
O O4 0.000000 0.500000 0.084927
O O5 0.939688 0.909331 0.812934
O O6 0.285159 0.646839 0.154677
O O7 0.144547 0.766254 0.185240
O O8 0.203497 0.746755 0.000000
#
# Coordination Sequence:
#
# PCOD8294976 Si02
#       4
#    16   4  16  16
#     4   9  18  38  63  89 119 165 215 260 313 381
#     4  12  24  44  68  96 134 182 212 266 342 392
#     4  10  22  40  66  94 126 171 220 270 324 387
#     4  10  23  40  64  96 132 168 216 270 326 392
#
# _framework density 22.172575999999999
#
# number of rings (size 3 to 8) (size 9 to 14) (size 15 to 20)
#    0.000    2.154    0.000    3.692   10.769    1.846 
#    0.000    6.154    0.000    0.000    0.000    0.000 
#    0.000    0.000    0.000    0.000    0.000    0.000 
#
# Total GULP energy -322133.902603 kJ/mol
# GULP energy per Si atom -12389.765485 kJ/mol
# Density = 2.212211 g / cm^3
# Si number density = 22.172576 Si / 1000 Ang^3
#
#
#
# Elastic Constant Matrix: (Units=GPa)
#
#
# Indices 1 2 3 4 5 6 
#
# 1 177.8940 80.7613 27.3632 0.0000 0.0000 0.0000
# 2 80.7613 135.0247 22.3645 0.0000 0.0000 0.0000
# 3 27.3632 22.3645 125.7453 0.0000 0.0000 0.0000
# 4 0.0000 0.0000 0.0000 -2.3418 0.0000 0.0000
# 5 0.0000 0.0000 0.0000 0.0000 280.0598 0.0000
# 6 0.0000 0.0000 0.0000 0.0000 0.0000 46.2017
#
#
#
# Elastic Compliance Matrix: (Units=1/GPa)
#
#
# Indices 1 2 3 4 5 6 
#
# 1 0.007813 -0.004525 -0.000895 0.000000 0.000000 0.000000
# 2 -0.004525 0.010251 -0.000839 0.000000 0.000000 0.000000
# 3 -0.000895 -0.000839 0.008297 0.000000 0.000000 0.000000
# 4 0.000000 0.000000 0.000000 -0.427016 0.000000 0.000000
# 5 0.000000 0.000000 0.000000 0.000000 0.003571 0.000000
# 6 0.000000 0.000000 0.000000 0.000000 0.000000 0.021644
#
#
# Mechanical properties :
#
#
# Convention : Reuss Voigt Hill
#
# Bulk Modulus (GPa) = 72.23728 77.73801 74.98764
# Shear Modulus (GPa) = -13.95450 85.32893 35.68722
#
# Velocity S-wave (km/s) = -2.51142 6.21028 4.01624
# Velocity P-wave (km/s) = 4.92348 9.30376 7.44314
#
# Compressibility (1/GPa) = 0.01384327
#
# Stress axis : x y z
#
# Youngs Moduli (GPa) = 127.98591 97.54693 120.53142
#
# Poissons Ratio (x) = 0.44140 0.10793
# Poissons Ratio (y) = 0.57914 0.10108
# Poissons Ratio (z) = 0.11460 0.08180
#
# Static dielectric constant tensor:
#      x y z
#    x 4.633370 0.000000 0.000000 
#    y 0.000000 4.129840 0.000000 
#    z 0.000000 0.000000 4.200770 
# 
# 
# High freq. dielectric constant tensor:
#      x y z
#    x 1.890310 0.000000 0.000000 
#    y 0.000000 1.856220 0.000000 
#    z 0.000000 0.000000 1.856940 
# 
# From -- ./inp_files/22676.got.cif
#   From: 2010.03.12/outbox.cif.g09.slc.cpg/sg72_12_cif.got.tgz:22676.got - 2010.04.16 14:54:00.
