data_PCOD8294594
_publ_section_title
;
Structure prediction by ZEFSAII (Michael W. Deem and Ramdas Pophale) SiO2 
 PCOD8294594
Probable space group: I B A M
;
_chemical_formula_sum "Si O2"
_cell_formula_units_Z 80
_cell_length_a 16.232046
_cell_length_b 9.794585
_cell_length_c 25.745056
_cell_angle_alpha 90.000000
_cell_angle_beta 90.000000
_cell_angle_gamma 90.000000
_cell_volume 4093.107445
_symmetry_space_group_name_H-M "I B A M"
_symmetry_group_IT_number 72
_symmetry_cell_setting 'orthorhombic'
loop_
_space_group_symop_operation_xyz
x,y,z
-x,-y,z
x,-y,1/2-z
-x,y,1/2-z
-x,-y,-z
x,y,-z
-x,y,1/2+z
x,-y,1/2+z
1/2+x,1/2+y,1/2+z
1/2-x,1/2-y,1/2+z
1/2+x,1/2-y,-z
1/2-x,1/2+y,-z
1/2-x,1/2-y,1/2-z
1/2+x,1/2+y,1/2-z
1/2-x,1/2+y,z
1/2+x,1/2-y,z
loop_
_atom_site_type_symbol
_atom_site_label
_atom_site_fract_x
_atom_site_fract_y
_atom_site_fract_z
Si Si1 0.597076 0.976686 0.856679
Si Si2 0.234959 0.622393 0.214242
Si Si3 0.906140 0.983657 0.056030
Si Si4 0.674258 0.268410 0.118410
Si Si5 0.659599 0.231093 0.438712
O O1 0.641069 0.901521 0.807328
O O2 0.609357 0.887152 0.908570
O O3 0.500000 0.000000 0.845344
O O4 0.643449 0.120581 0.864234
O O5 0.265089 0.500000 0.250000
O O6 0.250000 0.750000 0.250000
O O7 0.294734 0.639784 0.165769
O O8 0.899510 0.853855 0.093555
O O9 0.871828 0.122353 0.081430
O O10 0.861581 0.959521 0.000000
O O11 0.000000 0.000000 0.044425
O O12 0.744253 0.266311 0.074455
O O13 0.644827 0.208146 0.500000
#
# Coordination Sequence:
#
# PCOD8294594 Si02
#       5
#    16  16  16  16  16
#     4  11  24  40  63  93 125 161 203 263 319 369
#     4  11  23  44  65  88 117 158 205 257 314 372
#     4  10  21  37  58  86 124 162 195 242 302 361
#     4  11  22  38  62  89 119 159 206 255 300 368
#     4  10  21  37  60  90 124 164 206 244 296 369
#
# _framework density 19.545052999999999
#
# number of rings (size 3 to 8) (size 9 to 14) (size 15 to 20)
#    0.000    1.400    2.000    4.200    2.800    4.000 
#    0.000    0.000    0.000    0.000    0.000    0.000 
#    0.000    0.000    0.000    0.000    0.000    0.000 
#
# Total GULP energy -495755.312622 kJ/mol
# GULP energy per Si atom -12393.882816 kJ/mol
# Density = 1.950057 g / cm^3
# Si number density = 19.545053 Si / 1000 Ang^3
#
#
#
# Elastic Constant Matrix: (Units=GPa)
#
#
# Indices 1 2 3 4 5 6 
#
# 1 93.0131 46.1816 43.1331 0.0000 0.0000 0.0000
# 2 46.1816 133.7445 62.9556 0.0000 0.0000 0.0000
# 3 43.1331 62.9556 102.9500 0.0000 0.0000 0.0000
# 4 0.0000 0.0000 0.0000 48.0339 0.0000 0.0000
# 5 0.0000 0.0000 0.0000 0.0000 25.3191 0.0000
# 6 0.0000 0.0000 0.0000 0.0000 0.0000 34.4505
#
#
#
# Elastic Compliance Matrix: (Units=1/GPa)
#
#
# Indices 1 2 3 4 5 6 
#
# 1 0.014120 -0.002936 -0.004120 0.000000 0.000000 0.000000
# 2 -0.002936 0.011110 -0.005564 0.000000 0.000000 0.000000
# 3 -0.004120 -0.005564 0.014842 0.000000 0.000000 0.000000
# 4 0.000000 0.000000 0.000000 0.020819 0.000000 0.000000
# 5 0.000000 0.000000 0.000000 0.000000 0.039496 0.000000
# 6 0.000000 0.000000 0.000000 0.000000 0.000000 0.029027
#
#
# Mechanical properties :
#
#
# Convention : Reuss Voigt Hill
#
# Bulk Modulus (GPa) = 67.42451 70.47203 68.94827
# Shear Modulus (GPa) = 31.32899 33.38985 32.35942
#
# Velocity S-wave (km/s) = 4.00798 4.13771 4.07336
# Velocity P-wave (km/s) = 7.48267 7.67867 7.58130
#
# Compressibility (1/GPa) = 0.01483140
#
# Stress axis : x y z
#
# Youngs Moduli (GPa) = 70.82341 90.01217 67.37636
#
# Poissons Ratio (x) = 0.26427 0.27761
# Poissons Ratio (y) = 0.20793 0.37486
# Poissons Ratio (z) = 0.29182 0.50079
#
# Static dielectric constant tensor:
#      x y z
#    x 3.500070 0.000000 0.000000 
#    y 0.000000 3.471130 0.000000 
#    z 0.000000 0.000000 3.743420 
# 
# 
# High freq. dielectric constant tensor:
#      x y z
#    x 1.749940 0.000000 0.000000 
#    y 0.000000 1.777160 0.000000 
#    z 0.000000 0.000000 1.768860 
# 
# From -- ./inp_files/47167.got.cif
#   From: 2010.03.12/outbox.cif.g09.slc.cpg/sg72_24_cif.got.tgz:47167.got - 2010.04.16 14:54:00.
