data_PCOD8294544
_publ_section_title
;
Structure prediction by ZEFSAII (Michael W. Deem and Ramdas Pophale) SiO2 
 PCOD8294544
Probable space group: I B A M
;
_chemical_formula_sum "Si O2"
_cell_formula_units_Z 104
_cell_length_a 26.466188
_cell_length_b 8.947632
_cell_length_c 21.798647
_cell_angle_alpha 90.000000
_cell_angle_beta 90.000000
_cell_angle_gamma 90.000000
_cell_volume 5162.131289
_symmetry_space_group_name_H-M "I B A M"
_symmetry_group_IT_number 72
_symmetry_cell_setting 'orthorhombic'
loop_
_space_group_symop_operation_xyz
x,y,z
-x,-y,z
x,-y,1/2-z
-x,y,1/2-z
-x,-y,-z
x,y,-z
-x,y,1/2+z
x,-y,1/2+z
1/2+x,1/2+y,1/2+z
1/2-x,1/2-y,1/2+z
1/2+x,1/2-y,-z
1/2-x,1/2+y,-z
1/2-x,1/2-y,1/2-z
1/2+x,1/2+y,1/2-z
1/2-x,1/2+y,z
1/2+x,1/2-y,z
loop_
_atom_site_type_symbol
_atom_site_label
_atom_site_fract_x
_atom_site_fract_y
_atom_site_fract_z
Si Si1 0.163170 0.889236 0.000000
Si Si2 0.627139 0.891789 0.694609
Si Si3 0.443670 0.323593 0.236251
Si Si4 0.413401 0.151885 0.000000
Si Si5 0.727668 0.470820 0.601533
Si Si6 0.302556 0.926871 0.500000
Si Si7 0.230543 0.241899 0.818905
Si Si8 0.550873 0.907263 0.869104
O O1 0.106297 0.825748 0.000000
O O2 0.176360 0.984982 0.939124
O O3 0.204768 0.753302 0.000000
O O4 0.594359 0.751958 0.716779
O O5 0.679825 0.834775 0.668981
O O6 0.639725 0.000000 0.750000
O O7 0.597573 0.981727 0.642408
O O8 0.435408 0.500000 0.250000
O O9 0.500000 0.275664 0.250000
O O10 0.438471 0.249367 0.167892
O O11 0.449069 0.129377 0.058778
O O12 0.363673 0.043592 0.000000
O O13 0.777027 0.504482 0.560566
O O14 0.729551 0.307163 0.632133
O O15 0.722305 0.572224 0.661836
O O16 0.250000 0.250000 0.750000
O O17 0.500000 0.000000 0.851027
#
# Coordination Sequence:
#
# PCOD8294544 Si02
#       8
#     8  16  16   8  16   8  16  16
#     4   9  21  38  61  85 109 164 210 257 294 359
#     4  10  22  37  60  89 117 162 212 252 307 376
#     4  10  21  39  64  89 116 156 206 256 308 374
#     4  10  21  36  58  95 123 153 201 261 319 359
#     4  11  21  39  61  82 121 165 210 249 302 365
#     4   9  19  40  61  83 110 162 213 253 288 358
#     4  12  24  37  56  90 131 162 197 256 317 374
#     4  11  21  39  66  89 123 156 209 262 315 375
#
# _framework density 20.146719000000001
#
# number of rings (size 3 to 8) (size 9 to 14) (size 15 to 20)
#    0.462    1.077    3.077    2.538    0.000    6.154 
#    0.000    0.769    0.000    2.769    0.000    0.000 
#    0.000    0.000    0.000    0.000    0.000    0.000 
#
# Total GULP energy -644212.248629 kJ/mol
# GULP energy per Si atom -12388.697089 kJ/mol
# Density = 2.010086 g / cm^3
# Si number density = 20.146719 Si / 1000 Ang^3
#
#
#
# Elastic Constant Matrix: (Units=GPa)
#
#
# Indices 1 2 3 4 5 6 
#
# 1 60.1216 20.4242 14.5463 0.0000 0.0000 0.0000
# 2 20.4242 84.2677 44.3147 0.0000 0.0000 0.0000
# 3 14.5463 44.3147 129.4798 0.0000 0.0000 0.0000
# 4 0.0000 0.0000 0.0000 26.9529 0.0000 0.0000
# 5 0.0000 0.0000 0.0000 0.0000 22.9599 0.0000
# 6 0.0000 0.0000 0.0000 0.0000 0.0000 30.2141
#
#
#
# Elastic Compliance Matrix: (Units=1/GPa)
#
#
# Indices 1 2 3 4 5 6 
#
# 1 0.018170 -0.004061 -0.000651 0.000000 0.000000 0.000000
# 2 -0.004061 0.015379 -0.004807 0.000000 0.000000 0.000000
# 3 -0.000651 -0.004807 0.009442 0.000000 0.000000 0.000000
# 4 0.000000 0.000000 0.000000 0.037102 0.000000 0.000000
# 5 0.000000 0.000000 0.000000 0.000000 0.043554 0.000000
# 6 0.000000 0.000000 0.000000 0.000000 0.000000 0.033097
#
#
# Mechanical properties :
#
#
# Convention : Reuss Voigt Hill
#
# Bulk Modulus (GPa) = 41.75159 48.04883 44.90021
# Shear Modulus (GPa) = 27.20814 28.99763 28.10289
#
# Velocity S-wave (km/s) = 3.67890 3.79796 3.73890
# Velocity P-wave (km/s) = 6.23013 6.56764 6.40111
#
# Compressibility (1/GPa) = 0.02395118
#
# Stress axis : x y z
#
# Youngs Moduli (GPa) = 55.03488 65.02195 105.91316
#
# Poissons Ratio (x) = 0.26409 0.06898
# Poissons Ratio (y) = 0.22352 0.50916
# Poissons Ratio (z) = 0.03584 0.31258
#
# Static dielectric constant tensor:
#      x y z
#    x 3.524030 0.000000 0.000000 
#    y 0.000000 3.704760 0.000000 
#    z 0.000000 0.000000 3.516010 
# 
# 
# High freq. dielectric constant tensor:
#      x y z
#    x 1.771350 0.000000 0.000000 
#    y 0.000000 1.782350 0.000000 
#    z 0.000000 0.000000 1.792290 
# 
# From -- ./inp_files/41095.got.cif
#   From: 2010.03.12/outbox.cif.g09.slc.cpg/sg72_21_cif.got.tgz:41095.got - 2010.04.16 14:54:00.
