data_PCOD8294512
_publ_section_title
;
Structure prediction by ZEFSAII (Michael W. Deem and Ramdas Pophale) SiO2 
 PCOD8294512
Probable space group: I B A M
;
_chemical_formula_sum "Si O2"
_cell_formula_units_Z 60
_cell_length_a 24.996248
_cell_length_b 11.886407
_cell_length_c 8.997665
_cell_angle_alpha 90.000000
_cell_angle_beta 90.000000
_cell_angle_gamma 90.000000
_cell_volume 2673.346430
_symmetry_space_group_name_H-M "I B A M"
_symmetry_group_IT_number 72
_symmetry_cell_setting 'orthorhombic'
loop_
_space_group_symop_operation_xyz
x,y,z
-x,-y,z
x,-y,1/2-z
-x,y,1/2-z
-x,-y,-z
x,y,-z
-x,y,1/2+z
x,-y,1/2+z
1/2+x,1/2+y,1/2+z
1/2-x,1/2-y,1/2+z
1/2+x,1/2-y,-z
1/2-x,1/2+y,-z
1/2-x,1/2-y,1/2-z
1/2+x,1/2+y,1/2-z
1/2-x,1/2+y,z
1/2+x,1/2-y,z
loop_
_atom_site_type_symbol
_atom_site_label
_atom_site_fract_x
_atom_site_fract_y
_atom_site_fract_z
Si Si1 0.378178 0.346541 0.500000
Si Si2 0.962646 0.655153 0.000000
Si Si3 0.218169 0.000000 0.250000
Si Si4 0.073807 0.000000 0.750000
Si Si5 0.500000 0.000000 0.750000
Si Si6 0.754503 0.149023 0.500000
Si Si7 0.672747 0.649749 0.000000
Si Si8 0.449481 0.656244 0.500000
O O1 0.409975 0.230086 0.500000
O O2 0.390043 0.420774 0.355140
O O3 0.316180 0.311451 0.500000
O O4 0.962342 0.577581 0.146726
O O5 0.015098 0.733118 0.000000
O O6 0.179820 0.074223 0.354381
O O7 0.256894 0.923673 0.351756
O O8 0.037300 0.080930 0.645936
O O9 0.715443 0.252490 0.500000
O O10 0.612434 0.695807 0.000000
#
# Coordination Sequence:
#
# PCOD8294512 Si02
#       8
#     8   8   8   8   4   8   8   8
#     4  11  21  37  58  87 114 147 179 225 281 341
#     4  11  24  41  62  80 110 149 194 227 272 322
#     4  10  21  38  56  81 120 151 174 230 291 320
#     4  10  21  35  59  89 124 141 167 223 295 344
#     4  10  24  46  58  74 112 156 186 242 280 294
#     4  11  21  37  58  82 113 149 187 226 276 332
#     4  11  21  37  58  82 113 149 187 226 276 332
#     4  11  21  37  58  87 114 147 179 225 281 341
#
# _framework density 22.443781000000001
#
# number of rings (size 3 to 8) (size 9 to 14) (size 15 to 20)
#    0.000    1.333    0.000    8.800    0.000    3.200 
#    0.000    8.000    0.000    0.000    0.000    0.000 
#    0.000    0.000    0.000    0.000    0.000    0.000 
#
# Total GULP energy -372023.527853 kJ/mol
# GULP energy per Si atom -12400.784262 kJ/mol
# Density = 2.239270 g / cm^3
# Si number density = 22.443781 Si / 1000 Ang^3
#
#
#
# Elastic Constant Matrix: (Units=GPa)
#
#
# Indices 1 2 3 4 5 6 
#
# 1 93.1117 81.5049 40.7572 0.0000 0.0000 0.0000
# 2 81.5049 166.6444 82.4330 0.0000 0.0000 0.0000
# 3 40.7572 82.4330 190.3653 0.0000 0.0000 0.0000
# 4 0.0000 0.0000 0.0000 92.1897 0.0000 0.0000
# 5 0.0000 0.0000 0.0000 0.0000 18.1305 0.0000
# 6 0.0000 0.0000 0.0000 0.0000 0.0000 37.5176
#
#
#
# Elastic Compliance Matrix: (Units=1/GPa)
#
#
# Indices 1 2 3 4 5 6 
#
# 1 0.018780 -0.009158 -0.000055 0.000000 0.000000 0.000000
# 2 -0.009158 0.012102 -0.003280 0.000000 0.000000 0.000000
# 3 -0.000055 -0.003280 0.006685 0.000000 0.000000 0.000000
# 4 0.000000 0.000000 0.000000 0.010847 0.000000 0.000000
# 5 0.000000 0.000000 0.000000 0.000000 0.055156 0.000000
# 6 0.000000 0.000000 0.000000 0.000000 0.000000 0.026654
#
#
# Mechanical properties :
#
#
# Convention : Reuss Voigt Hill
#
# Bulk Modulus (GPa) = 79.48107 95.50129 87.49118
# Shear Modulus (GPa) = 31.36653 45.92929 38.64791
#
# Velocity S-wave (km/s) = 3.74245 4.52864 4.15419
# Velocity P-wave (km/s) = 7.35968 8.36591 7.87888
#
# Compressibility (1/GPa) = 0.01258161
#
# Stress axis : x y z
#
# Youngs Moduli (GPa) = 53.24676 82.62786 149.58496
#
# Poissons Ratio (x) = 0.75672 0.00826
# Poissons Ratio (y) = 0.48764 0.49063
# Poissons Ratio (z) = 0.00294 0.27101
#
# Static dielectric constant tensor:
#      x y z
#    x 3.602280 0.000000 0.000000 
#    y 0.000000 4.156740 0.000000 
#    z 0.000000 0.000000 4.639650 
# 
# 
# High freq. dielectric constant tensor:
#      x y z
#    x 1.861660 0.000000 0.000000 
#    y 0.000000 1.880060 0.000000 
#    z 0.000000 0.000000 1.922540 
# 
# From -- ./inp_files/2465.got.cif
#   From: 2010.03.12/outbox.cif.g09.slc.cpg/sg72_2_cif.got.tgz:2465.got - 2010.04.16 14:54:00.
