data_PCOD8294003
_publ_section_title
;
Structure prediction by ZEFSAII (Michael W. Deem and Ramdas Pophale) SiO2 
 PCOD8294003
Probable space group: I B A M
;
_chemical_formula_sum "Si O2"
_cell_formula_units_Z 96
_cell_length_a 18.831236
_cell_length_b 26.697509
_cell_length_c 9.885130
_cell_angle_alpha 90.000000
_cell_angle_beta 90.000000
_cell_angle_gamma 90.000000
_cell_volume 4969.720367
_symmetry_space_group_name_H-M "I B A M"
_symmetry_group_IT_number 72
_symmetry_cell_setting 'orthorhombic'
loop_
_space_group_symop_operation_xyz
x,y,z
-x,-y,z
x,-y,1/2-z
-x,y,1/2-z
-x,-y,-z
x,y,-z
-x,y,1/2+z
x,-y,1/2+z
1/2+x,1/2+y,1/2+z
1/2-x,1/2-y,1/2+z
1/2+x,1/2-y,-z
1/2-x,1/2+y,-z
1/2-x,1/2-y,1/2-z
1/2+x,1/2+y,1/2-z
1/2-x,1/2+y,z
1/2+x,1/2-y,z
loop_
_atom_site_type_symbol
_atom_site_label
_atom_site_fract_x
_atom_site_fract_y
_atom_site_fract_z
Si Si1 0.715786 0.287686 0.852301
Si Si2 0.195334 0.048286 0.662740
Si Si3 0.919622 0.773036 0.286595
Si Si4 0.708646 0.110157 0.343569
Si Si5 0.434176 0.164450 0.149849
Si Si6 0.064170 0.118617 0.646144
O O1 0.750000 0.250000 0.750000
O O2 0.630299 0.282642 0.843403
O O3 0.737944 0.343988 0.821101
O O4 0.740904 0.271177 0.000000
O O5 0.206456 0.038781 0.500000
O O6 0.267702 0.068581 0.733796
O O7 0.132230 0.087182 0.691288
O O8 0.173288 0.000000 0.750000
O O9 0.898512 0.720236 0.355958
O O10 0.913116 0.823234 0.375426
O O11 0.000000 0.764222 0.250000
O O12 0.713793 0.090923 0.500000
O O13 0.628116 0.126100 0.308525
O O14 0.500000 0.157997 0.250000
O O15 0.462251 0.151788 0.000000
O O16 0.037511 0.099173 0.500000
O O17 0.000000 0.111810 0.750000
#
# Coordination Sequence:
#
# PCOD8294003 Si02
#       6
#    16  16  16  16  16  16
#     4  11  22  36  56  83 117 158 199 242 291 340
#     4  11  24  42  63  88 112 146 191 246 302 357
#     4  10  20  35  52  82 119 160 204 234 277 328
#     4  10  21  39  60  85 116 153 192 240 293 347
#     4  10  21  36  57  86 122 160 195 234 279 336
#     4  10  22  37  57  83 116 156 200 243 287 339
#
# _framework density 19.316980999999998
#
# number of rings (size 3 to 8) (size 9 to 14) (size 15 to 20)
#    0.000    1.667    3.333    1.000    0.000    9.000 
#    0.000    1.667    0.000    0.500    0.000    3.500 
#    0.000    0.000    0.000    0.000    0.000    0.000 
#
# Total GULP energy -594676.896558 kJ/mol
# GULP energy per Si atom -12389.102012 kJ/mol
# Density = 1.927302 g / cm^3
# Si number density = 19.316981 Si / 1000 Ang^3
#
#
#
# Elastic Constant Matrix: (Units=GPa)
#
#
# Indices 1 2 3 4 5 6 
#
# 1 92.7526 26.6551 48.7201 0.0000 0.0000 0.0000
# 2 26.6551 63.9971 38.8588 0.0000 0.0000 0.0000
# 3 48.7201 38.8588 122.8357 0.0000 0.0000 0.0000
# 4 0.0000 0.0000 0.0000 24.9052 0.0000 0.0000
# 5 0.0000 0.0000 0.0000 0.0000 34.2723 0.0000
# 6 0.0000 0.0000 0.0000 0.0000 0.0000 24.9908
#
#
#
# Elastic Compliance Matrix: (Units=1/GPa)
#
#
# Indices 1 2 3 4 5 6 
#
# 1 0.014088 -0.003063 -0.004619 0.000000 0.000000 0.000000
# 2 -0.003063 0.020007 -0.005114 0.000000 0.000000 0.000000
# 3 -0.004619 -0.005114 0.011591 0.000000 0.000000 0.000000
# 4 0.000000 0.000000 0.000000 0.040152 0.000000 0.000000
# 5 0.000000 0.000000 0.000000 0.000000 0.029178 0.000000
# 6 0.000000 0.000000 0.000000 0.000000 0.000000 0.040015
#
#
# Mechanical properties :
#
#
# Convention : Reuss Voigt Hill
#
# Bulk Modulus (GPa) = 49.76776 56.45038 53.10907
# Shear Modulus (GPa) = 26.69234 27.85711 27.27472
#
# Velocity S-wave (km/s) = 3.72130 3.80162 3.76168
# Velocity P-wave (km/s) = 6.65460 6.96824 6.81323
#
# Compressibility (1/GPa) = 0.02009333
#
# Stress axis : x y z
#
# Youngs Moduli (GPa) = 70.98422 49.98288 86.27660
#
# Poissons Ratio (x) = 0.15311 0.39847
# Poissons Ratio (y) = 0.21744 0.44123
# Poissons Ratio (z) = 0.32784 0.25562
#
# Static dielectric constant tensor:
#      x y z
#    x 3.596850 0.000000 0.000000 
#    y 0.000000 3.454450 0.000000 
#    z 0.000000 0.000000 3.565850 
# 
# 
# High freq. dielectric constant tensor:
#      x y z
#    x 1.754350 0.000000 0.000000 
#    y 0.000000 1.731950 0.000000 
#    z 0.000000 0.000000 1.754680 
# 
# From -- ./inp_files/5965.got.cif
#   From: 2010.03.12/outbox.cif.g09.slc.cpg/sg72_3_cif.got.tgz:5965.got - 2010.04.16 14:54:00.
