data_PCOD8294014
_publ_section_title
;
Structure prediction by ZEFSAII (Michael W. Deem and Ramdas Pophale) SiO2 
 PCOD8294014
Probable space group: I B A M
;
_chemical_formula_sum "Si O2"
_cell_formula_units_Z 96
_cell_length_a 27.194030
_cell_length_b 13.777148
_cell_length_c 14.007777
_cell_angle_alpha 90.000000
_cell_angle_beta 90.000000
_cell_angle_gamma 90.000000
_cell_volume 5248.100165
_symmetry_space_group_name_H-M "I B A M"
_symmetry_group_IT_number 72
_symmetry_cell_setting 'orthorhombic'
loop_
_space_group_symop_operation_xyz
x,y,z
-x,-y,z
x,-y,1/2-z
-x,y,1/2-z
-x,-y,-z
x,y,-z
-x,y,1/2+z
x,-y,1/2+z
1/2+x,1/2+y,1/2+z
1/2-x,1/2-y,1/2+z
1/2+x,1/2-y,-z
1/2-x,1/2+y,-z
1/2-x,1/2-y,1/2-z
1/2+x,1/2+y,1/2-z
1/2-x,1/2+y,z
1/2+x,1/2-y,z
loop_
_atom_site_type_symbol
_atom_site_label
_atom_site_fract_x
_atom_site_fract_y
_atom_site_fract_z
Si Si1 0.162497 0.356611 0.500000
Si Si2 0.634591 0.463369 0.000000
Si Si3 0.629874 0.898624 0.794087
Si Si4 0.198703 0.256367 0.199015
Si Si5 0.221402 0.826499 0.500000
Si Si6 0.948829 0.232872 0.200126
Si Si7 0.120609 0.099917 0.203464
Si Si8 0.409898 0.680088 0.500000
O O1 0.146569 0.413390 0.404212
O O2 0.220970 0.346003 0.500000
O O3 0.136481 0.252012 0.500000
O O4 0.693241 0.432426 0.000000
O O5 0.611885 0.410706 0.091215
O O6 0.618762 0.576363 0.000000
O O7 0.674366 0.858621 0.728177
O O8 0.583431 0.828535 0.786602
O O9 0.613122 0.000000 0.750000
O O10 0.250000 0.250000 0.250000
O O11 0.163692 0.171383 0.237774
O O12 0.205619 0.242592 0.086804
O O13 0.930515 0.139760 0.258341
O O14 0.000000 0.259530 0.250000
O O15 0.946485 0.198444 0.089432
O O16 0.136343 0.000000 0.250000
#
# Coordination Sequence:
#
# PCOD8294014 Si02
#       8
#     8   8  16  16   8  16  16   8
#     4  10  20  39  56  85 117 152 201 242 285 351
#     4  10  20  35  53  86 119 158 190 234 290 343
#     4  10  22  40  60  83 119 154 194 250 295 343
#     4  10  20  35  54  82 117 157 192 238 283 340
#     4  10  20  35  55  86 121 156 206 232 275 357
#     4  10  22  40  62  86 112 151 196 242 303 357
#     4  10  20  35  55  81 119 150 188 238 289 349
#     4  10  20  39  62  83 119 154 191 249 301 345
#
# _framework density 18.292332999999999
#
# number of rings (size 3 to 8) (size 9 to 14) (size 15 to 20)
#    0.000    2.000    3.333    0.000    0.000    2.667 
#    3.000    3.333    0.000    3.000    0.000    0.000 
#    0.000    0.000    0.000    0.000    0.000    0.000 
#
# Total GULP energy -594836.101738 kJ/mol
# GULP energy per Si atom -12392.418786 kJ/mol
# Density = 1.825070 g / cm^3
# Si number density = 18.292333 Si / 1000 Ang^3
#
#
#
# Elastic Constant Matrix: (Units=GPa)
#
#
# Indices 1 2 3 4 5 6 
#
# 1 105.6701 29.1132 57.2852 0.0000 0.0000 0.0000
# 2 29.1132 91.9687 51.1158 0.0000 0.0000 0.0000
# 3 57.2852 51.1158 149.0391 0.0000 0.0000 0.0000
# 4 0.0000 0.0000 0.0000 27.2280 0.0000 0.0000
# 5 0.0000 0.0000 0.0000 0.0000 28.7181 0.0000
# 6 0.0000 0.0000 0.0000 0.0000 0.0000 14.1189
#
#
#
# Elastic Compliance Matrix: (Units=1/GPa)
#
#
# Indices 1 2 3 4 5 6 
#
# 1 0.012129 -0.001542 -0.004133 0.000000 0.000000 0.000000
# 2 -0.001542 0.013630 -0.004082 0.000000 0.000000 0.000000
# 3 -0.004133 -0.004082 0.009698 0.000000 0.000000 0.000000
# 4 0.000000 0.000000 0.000000 0.036727 0.000000 0.000000
# 5 0.000000 0.000000 0.000000 0.000000 0.034821 0.000000
# 6 0.000000 0.000000 0.000000 0.000000 0.000000 0.070827
#
#
# Mechanical properties :
#
#
# Convention : Reuss Voigt Hill
#
# Bulk Modulus (GPa) = 62.72414 69.07848 65.90131
# Shear Modulus (GPa) = 24.67173 27.95724 26.31449
#
# Velocity S-wave (km/s) = 3.67651 3.91366 3.79694
# Velocity P-wave (km/s) = 7.23786 7.63335 7.43823
#
# Compressibility (1/GPa) = 0.01594283
#
# Stress axis : x y z
#
# Youngs Moduli (GPa) = 82.44793 73.36633 103.11248
#
# Poissons Ratio (x) = 0.11316 0.42615
# Poissons Ratio (y) = 0.12717 0.42089
# Poissons Ratio (z) = 0.34075 0.29947
#
# Static dielectric constant tensor:
#      x y z
#    x 3.282360 0.000000 0.000000 
#    y 0.000000 3.408190 0.000000 
#    z 0.000000 0.000000 3.984410 
# 
# 
# High freq. dielectric constant tensor:
#      x y z
#    x 1.697820 0.000000 0.000000 
#    y 0.000000 1.700340 0.000000 
#    z 0.000000 0.000000 1.730790 
# 
# From -- ./inp_files/25156.got.cif
#   From: 2010.03.12/outbox.cif.g09.slc.cpg/sg72_13_cif.got.tgz:25156.got - 2010.04.16 14:54:00.
