data_PCOD8294201
_publ_section_title
;
Structure prediction by ZEFSAII (Michael W. Deem and Ramdas Pophale) SiO2 
 PCOD8294201
Probable space group: I B A M
;
_chemical_formula_sum "Si O2"
_cell_formula_units_Z 112
_cell_length_a 21.389536
_cell_length_b 16.266404
_cell_length_c 15.324132
_cell_angle_alpha 90.000000
_cell_angle_beta 90.000000
_cell_angle_gamma 90.000000
_cell_volume 5331.738026
_symmetry_space_group_name_H-M "I B A M"
_symmetry_group_IT_number 72
_symmetry_cell_setting 'orthorhombic'
loop_
_space_group_symop_operation_xyz
x,y,z
-x,-y,z
x,-y,1/2-z
-x,y,1/2-z
-x,-y,-z
x,y,-z
-x,y,1/2+z
x,-y,1/2+z
1/2+x,1/2+y,1/2+z
1/2-x,1/2-y,1/2+z
1/2+x,1/2-y,-z
1/2-x,1/2+y,-z
1/2-x,1/2-y,1/2-z
1/2+x,1/2+y,1/2-z
1/2-x,1/2+y,z
1/2+x,1/2-y,z
loop_
_atom_site_type_symbol
_atom_site_label
_atom_site_fract_x
_atom_site_fract_y
_atom_site_fract_z
Si Si1 0.863434 0.409269 0.265779
Si Si2 0.138202 0.851631 0.099523
Si Si3 0.448248 0.844842 0.900291
Si Si4 0.428052 0.488339 0.395711
Si Si5 0.269350 0.212607 0.660178
Si Si6 0.591874 0.180610 0.400785
Si Si7 0.879173 0.184219 0.400170
O O1 0.839214 0.500000 0.250000
O O2 0.925368 0.410358 0.327418
O O3 0.813328 0.364902 0.326266
O O4 0.868794 0.369617 0.169904
O O5 0.114269 0.936396 0.144494
O O6 0.209924 0.823944 0.110463
O O7 0.094605 0.775744 0.129320
O O8 0.125803 0.869584 0.000000
O O9 0.521977 0.851061 0.899428
O O10 0.424833 0.756059 0.864983
O O11 0.423788 0.862338 0.000000
O O12 0.500000 0.500000 0.364329
O O13 0.425797 0.486310 0.500000
O O14 0.397436 0.403613 0.356371
O O15 0.250000 0.250000 0.750000
O O16 0.306901 0.286685 0.611823
O O17 0.619400 0.170032 0.500000
O O18 0.894233 0.172172 0.500000
#
# Coordination Sequence:
#
# PCOD8294201 Si02
#       7
#    16  16  16  16  16  16  16
#     4  11  24  40  59  86 117 155 197 251 300 347
#     4  10  20  36  60  88 117 155 199 245 298 358
#     4   9  19  36  61  87 118 157 196 238 294 361
#     4   9  17  32  59  94 123 145 182 242 307 363
#     4  11  22  39  58  75 111 157 201 238 291 349
#     4  10  20  37  60  87 118 156 197 242 298 359
#     4   9  18  34  57  85 113 148 190 236 289 351
#
# _framework density 21.006284000000001
#
# number of rings (size 3 to 8) (size 9 to 14) (size 15 to 20)
#    0.000    2.143    1.429    1.714    0.000    6.857 
#    0.000    1.429    0.000    0.857    0.000    0.000 
#    0.000    0.000    0.000    0.000    0.000    0.000 
#
# Total GULP energy -693801.408365 kJ/mol
# GULP energy per Si atom -12389.310864 kJ/mol
# Density = 2.095847 g / cm^3
# Si number density = 21.006284 Si / 1000 Ang^3
#
#
#
# Elastic Constant Matrix: (Units=GPa)
#
#
# Indices 1 2 3 4 5 6 
#
# 1 87.6144 31.6901 -5.5674 0.0000 0.0000 0.0000
# 2 31.6901 121.5189 17.9725 0.0000 0.0000 0.0000
# 3 -5.5674 17.9725 43.3016 0.0000 0.0000 0.0000
# 4 0.0000 0.0000 0.0000 23.8760 0.0000 0.0000
# 5 0.0000 0.0000 0.0000 0.0000 16.6150 0.0000
# 6 0.0000 0.0000 0.0000 0.0000 0.0000 30.6051
#
#
#
# Elastic Compliance Matrix: (Units=1/GPa)
#
#
# Indices 1 2 3 4 5 6 
#
# 1 0.013027 -0.003883 0.003287 0.000000 0.000000 0.000000
# 2 -0.003883 0.009925 -0.004619 0.000000 0.000000 0.000000
# 3 0.003287 -0.004619 0.025433 0.000000 0.000000 0.000000
# 4 0.000000 0.000000 0.000000 0.041883 0.000000 0.000000
# 5 0.000000 0.000000 0.000000 0.000000 0.060187 0.000000
# 6 0.000000 0.000000 0.000000 0.000000 0.000000 0.032674
#
#
# Mechanical properties :
#
#
# Convention : Reuss Voigt Hill
#
# Bulk Modulus (GPa) = 26.34707 37.84726 32.09716
# Shear Modulus (GPa) = 24.24691 28.10852 26.17772
#
# Velocity S-wave (km/s) = 3.40114 3.66197 3.53396
# Velocity P-wave (km/s) = 5.29088 5.99469 5.65375
#
# Compressibility (1/GPa) = 0.03795489
#
# Stress axis : x y z
#
# Youngs Moduli (GPa) = 76.76297 100.75572 39.31833
#
# Poissons Ratio (x) = 0.39127 -0.12923
# Poissons Ratio (y) = 0.29810 0.18160
# Poissons Ratio (z) = -0.25230 0.46536
#
# Static dielectric constant tensor:
#      x y z
#    x 3.845310 0.000000 0.000000 
#    y 0.000000 4.154570 0.000000 
#    z 0.000000 0.000000 3.733830 
# 
# 
# High freq. dielectric constant tensor:
#      x y z
#    x 1.815300 0.000000 0.000000 
#    y 0.000000 1.821470 0.000000 
#    z 0.000000 0.000000 1.813490 
# 
# From -- ./inp_files/25225.got.cif
#   From: 2010.03.12/outbox.cif.g09.slc.cpg/sg72_13_cif.got.tgz:25225.got - 2010.04.16 14:54:00.
