data_PCOD8294182
_publ_section_title
;
Structure prediction by ZEFSAII (Michael W. Deem and Ramdas Pophale) SiO2 
 PCOD8294182
Probable space group: I B A M
;
_chemical_formula_sum "Si O2"
_cell_formula_units_Z 96
_cell_length_a 25.271676
_cell_length_b 23.280785
_cell_length_c 8.564289
_cell_angle_alpha 90.000000
_cell_angle_beta 90.000000
_cell_angle_gamma 90.000000
_cell_volume 5038.751949
_symmetry_space_group_name_H-M "I B A M"
_symmetry_group_IT_number 72
_symmetry_cell_setting 'orthorhombic'
loop_
_space_group_symop_operation_xyz
x,y,z
-x,-y,z
x,-y,1/2-z
-x,y,1/2-z
-x,-y,-z
x,y,-z
-x,y,1/2+z
x,-y,1/2+z
1/2+x,1/2+y,1/2+z
1/2-x,1/2-y,1/2+z
1/2+x,1/2-y,-z
1/2-x,1/2+y,-z
1/2-x,1/2-y,1/2-z
1/2+x,1/2+y,1/2-z
1/2-x,1/2+y,z
1/2+x,1/2-y,z
loop_
_atom_site_type_symbol
_atom_site_label
_atom_site_fract_x
_atom_site_fract_y
_atom_site_fract_z
Si Si1 0.943611 0.437950 0.184483
Si Si2 0.308459 0.744404 0.816977
Si Si3 0.056731 0.939116 0.683293
Si Si4 0.849268 0.872076 0.317075
Si Si5 0.652502 0.858256 0.818807
Si Si6 0.747968 0.561328 0.681906
O O1 0.927436 0.500000 0.250000
O O2 0.899856 0.391794 0.236540
O O3 0.000000 0.417249 0.250000
O O4 0.946848 0.443239 0.000000
O O5 0.250000 0.750000 0.750000
O O6 0.337178 0.692462 0.732042
O O7 0.342530 0.801325 0.784817
O O8 0.304829 0.731744 0.000000
O O9 0.052129 0.944953 0.500000
O O10 0.097640 0.889879 0.728740
O O11 0.000000 0.921454 0.750000
O O12 0.076488 0.000000 0.750000
O O13 0.859101 0.875487 0.500000
O O14 0.802338 0.914854 0.272496
O O15 0.703011 0.897417 0.786518
O O16 0.648968 0.840965 0.000000
O O17 0.763813 0.500000 0.750000
O O18 0.734139 0.556732 0.500000
#
# Coordination Sequence:
#
# PCOD8294182 Si02
#       6
#    16  16  16  16  16  16
#     4  10  20  36  59  87 119 157 197 243 294 350
#     4  12  24  40  62  87 117 157 200 244 298 358
#     4  11  22  40  64  92 124 160 201 246 299 357
#     4  12  24  40  61  87 119 157 201 247 297 353
#     4  10  22  39  59  84 117 155 199 245 295 354
#     4  11  22  36  56  84 119 153 192 242 299 358
#
# _framework density 19.052336
#
# number of rings (size 3 to 8) (size 9 to 14) (size 15 to 20)
#    0.000    1.000    1.667    7.500    0.000    2.000 
#    0.000    0.833    0.000    2.000    0.000    0.000 
#    0.000    0.000    0.000    0.000    0.000    0.000 
#
# Total GULP energy -595517.290266 kJ/mol
# GULP energy per Si atom -12406.610214 kJ/mol
# Density = 1.900897 g / cm^3
# Si number density = 19.052336 Si / 1000 Ang^3
#
#
#
# Elastic Constant Matrix: (Units=GPa)
#
#
# Indices 1 2 3 4 5 6 
#
# 1 117.6445 47.1532 37.2221 0.0000 0.0000 0.0000
# 2 47.1532 95.8998 25.2968 0.0000 0.0000 0.0000
# 3 37.2221 25.2968 113.9696 0.0000 0.0000 0.0000
# 4 0.0000 0.0000 0.0000 35.6130 0.0000 0.0000
# 5 0.0000 0.0000 0.0000 0.0000 32.0680 0.0000
# 6 0.0000 0.0000 0.0000 0.0000 0.0000 30.4043
#
#
#
# Elastic Compliance Matrix: (Units=1/GPa)
#
#
# Indices 1 2 3 4 5 6 
#
# 1 0.011270 -0.004854 -0.002603 0.000000 0.000000 0.000000
# 2 -0.004854 0.013167 -0.001337 0.000000 0.000000 0.000000
# 3 -0.002603 -0.001337 0.009921 0.000000 0.000000 0.000000
# 4 0.000000 0.000000 0.000000 0.028080 0.000000 0.000000
# 5 0.000000 0.000000 0.000000 0.000000 0.031184 0.000000
# 6 0.000000 0.000000 0.000000 0.000000 0.000000 0.032890
#
#
# Mechanical properties :
#
#
# Convention : Reuss Voigt Hill
#
# Bulk Modulus (GPa) = 59.63564 60.76203 60.19883
# Shear Modulus (GPa) = 33.40231 34.13986 33.77109
#
# Velocity S-wave (km/s) = 4.19165 4.23767 4.21473
# Velocity P-wave (km/s) = 7.40240 7.47698 7.43978
#
# Compressibility (1/GPa) = 0.01676850
#
# Stress axis : x y z
#
# Youngs Moduli (GPa) = 88.73498 75.94643 100.79408
#
# Poissons Ratio (x) = 0.36868 0.26238
# Poissons Ratio (y) = 0.43076 0.13478
# Poissons Ratio (z) = 0.23098 0.10155
#
# Static dielectric constant tensor:
#      x y z
#    x 3.611630 0.000000 0.000000 
#    y 0.000000 3.632910 0.000000 
#    z 0.000000 0.000000 3.639220 
# 
# 
# High freq. dielectric constant tensor:
#      x y z
#    x 1.744840 0.000000 0.000000 
#    y 0.000000 1.743410 0.000000 
#    z 0.000000 0.000000 1.757790 
# 
# From -- ./inp_files/6972.got.cif
#   From: 2010.03.12/outbox.cif.g09.slc.cpg/sg72_4_cif.got.tgz:6972.got - 2010.04.16 14:54:00.
