data_PCOD8294972
_publ_section_title
;
Structure prediction by ZEFSAII (Michael W. Deem and Ramdas Pophale) SiO2 
 PCOD8294972
Probable space group: I B A M
;
_chemical_formula_sum "Si O2"
_cell_formula_units_Z 120
_cell_length_a 23.203046
_cell_length_b 11.315205
_cell_length_c 20.556689
_cell_angle_alpha 90.000000
_cell_angle_beta 90.000000
_cell_angle_gamma 90.000000
_cell_volume 5397.101593
_symmetry_space_group_name_H-M "I B A M"
_symmetry_group_IT_number 72
_symmetry_cell_setting 'orthorhombic'
loop_
_space_group_symop_operation_xyz
x,y,z
-x,-y,z
x,-y,1/2-z
-x,y,1/2-z
-x,-y,-z
x,y,-z
-x,y,1/2+z
x,-y,1/2+z
1/2+x,1/2+y,1/2+z
1/2-x,1/2-y,1/2+z
1/2+x,1/2-y,-z
1/2-x,1/2+y,-z
1/2-x,1/2-y,1/2-z
1/2+x,1/2+y,1/2-z
1/2-x,1/2+y,z
1/2+x,1/2-y,z
loop_
_atom_site_type_symbol
_atom_site_label
_atom_site_fract_x
_atom_site_fract_y
_atom_site_fract_z
Si Si1 0.557304 0.719299 0.778381
Si Si2 0.221750 0.468578 0.179585
Si Si3 0.900635 0.082698 0.573295
Si Si4 0.563491 0.039819 0.927612
Si Si5 0.000000 0.000000 0.658069
Si Si6 0.870707 0.279205 0.658799
Si Si7 0.689513 0.389383 0.572979
Si Si8 0.137605 0.345222 0.377544
O O1 0.500000 0.784071 0.750000
O O2 0.539885 0.585981 0.798646
O O3 0.604144 0.711882 0.721240
O O4 0.584748 0.791135 0.837060
O O5 0.249946 0.500000 0.250000
O O6 0.187421 0.344764 0.180268
O O7 0.269480 0.455657 0.123985
O O8 0.178743 0.576695 0.167538
O O9 0.914535 0.121461 0.500000
O O10 0.857162 0.179034 0.604913
O O11 0.960315 0.082468 0.612802
O O12 0.871859 0.954133 0.575160
O O13 0.583326 0.131403 0.872864
O O14 0.500000 0.000000 0.907504
O O15 0.607251 0.928456 0.930634
O O16 0.563647 0.096561 0.000000
O O17 0.716370 0.397993 0.500000
O O18 0.677698 0.253369 0.589564
#
# Coordination Sequence:
#
# PCOD8294972 Si02
#       8
#    16  16  16  16   8  16  16  16
#     4  12  23  40  70 103 142 183 232 278 355 429
#     4  11  26  48  73 102 136 187 245 296 365 421
#     4  11  25  44  66  99 139 182 230 286 353 424
#     4  10  22  40  65  98 137 185 236 286 352 428
#     4  12  24  42  66 104 141 189 226 282 346 435
#     4  11  24  42  67  98 137 180 229 295 353 416
#     4  11  27  47  72 104 141 190 243 299 361 425
#     4  11  24  46  70 102 141 190 239 300 355 423
#
# _framework density 22.234157
#
# number of rings (size 3 to 8) (size 9 to 14) (size 15 to 20)
#    0.000    0.933    4.000    2.000    1.867    4.800 
#    0.000    2.000    0.000    0.000    0.000    0.000 
#    0.000    0.000    0.000    0.000    0.000    0.000 
#
# Total GULP energy -743967.246045 kJ/mol
# GULP energy per Si atom -12399.454101 kJ/mol
# Density = 2.218355 g / cm^3
# Si number density = 22.234157 Si / 1000 Ang^3
#
#
#
# Elastic Constant Matrix: (Units=GPa)
#
#
# Indices 1 2 3 4 5 6 
#
# 1 69.9014 19.7760 38.6906 0.0000 0.0000 0.0000
# 2 19.7760 106.3536 40.6047 0.0000 0.0000 0.0000
# 3 38.6906 40.6047 143.4716 0.0000 0.0000 0.0000
# 4 0.0000 0.0000 0.0000 24.2908 0.0000 0.0000
# 5 0.0000 0.0000 0.0000 0.0000 24.3274 0.0000
# 6 0.0000 0.0000 0.0000 0.0000 0.0000 35.7523
#
#
#
# Elastic Compliance Matrix: (Units=1/GPa)
#
#
# Indices 1 2 3 4 5 6 
#
# 1 0.017051 -0.001586 -0.004149 0.000000 0.000000 0.000000
# 2 -0.001586 0.010689 -0.002597 0.000000 0.000000 0.000000
# 3 -0.004149 -0.002597 0.008824 0.000000 0.000000 0.000000
# 4 0.000000 0.000000 0.000000 0.041168 0.000000 0.000000
# 5 0.000000 0.000000 0.000000 0.000000 0.041106 0.000000
# 6 0.000000 0.000000 0.000000 0.000000 0.000000 0.027970
#
#
# Mechanical properties :
#
#
# Convention : Reuss Voigt Hill
#
# Bulk Modulus (GPa) = 50.25545 57.54104 53.89825
# Shear Modulus (GPa) = 29.39313 31.58446 30.48879
#
# Velocity S-wave (km/s) = 3.63985 3.77309 3.70707
# Velocity P-wave (km/s) = 6.34953 6.70204 6.52817
#
# Compressibility (1/GPa) = 0.01989834
#
# Stress axis : x y z
#
# Youngs Moduli (GPa) = 58.64635 93.55193 113.32618
#
# Poissons Ratio (x) = 0.14842 0.47023
# Poissons Ratio (y) = 0.09304 0.29435
# Poissons Ratio (z) = 0.24334 0.24299
#
# Static dielectric constant tensor:
#      x y z
#    x 3.844640 0.000000 0.000000 
#    y 0.000000 4.012210 0.000000 
#    z 0.000000 0.000000 4.118410 
# 
# 
# High freq. dielectric constant tensor:
#      x y z
#    x 1.862210 0.000000 0.000000 
#    y 0.000000 1.879580 0.000000 
#    z 0.000000 0.000000 1.890330 
# 
# From -- ./inp_files/40404.got.cif
#   From: 2010.03.12/outbox.cif.g09.slc.cpg/sg72_21_cif.got.tgz:40404.got - 2010.04.16 14:54:00.
