data_PCOD8294032
_publ_section_title
;
Structure prediction by ZEFSAII (Michael W. Deem and Ramdas Pophale) SiO2 
 PCOD8294032
Probable space group: I B A M
;
_chemical_formula_sum "Si O2"
_cell_formula_units_Z 72
_cell_length_a 10.624378
_cell_length_b 23.835953
_cell_length_c 13.962841
_cell_angle_alpha 90.000000
_cell_angle_beta 90.000000
_cell_angle_gamma 90.000000
_cell_volume 3535.980219
_symmetry_space_group_name_H-M "I B A M"
_symmetry_group_IT_number 72
_symmetry_cell_setting 'orthorhombic'
loop_
_space_group_symop_operation_xyz
x,y,z
-x,-y,z
x,-y,1/2-z
-x,y,1/2-z
-x,-y,-z
x,y,-z
-x,y,1/2+z
x,-y,1/2+z
1/2+x,1/2+y,1/2+z
1/2-x,1/2-y,1/2+z
1/2+x,1/2-y,-z
1/2-x,1/2+y,-z
1/2-x,1/2-y,1/2-z
1/2+x,1/2+y,1/2-z
1/2-x,1/2+y,z
1/2+x,1/2-y,z
loop_
_atom_site_type_symbol
_atom_site_label
_atom_site_fract_x
_atom_site_fract_y
_atom_site_fract_z
Si Si1 0.000000 0.321819 0.250000
Si Si2 0.870521 0.148083 0.604243
Si Si3 0.749692 0.865714 0.299412
Si Si4 0.575148 0.552462 0.892331
Si Si5 0.917841 0.769492 0.609953
O O1 0.901537 0.360209 0.310468
O O2 0.914764 0.285183 0.176751
O O3 0.803773 0.145263 0.500000
O O4 0.770552 0.136909 0.685594
O O5 0.982303 0.104095 0.609806
O O6 0.939183 0.207769 0.618760
O O7 0.799503 0.926637 0.336312
O O8 0.816047 0.814781 0.354793
O O9 0.500000 0.500000 0.844544
O O10 0.616252 0.535787 0.000000
O O11 0.884897 0.754113 0.500000
#
# Coordination Sequence:
#
# PCOD8294032 Si02
#       5
#     8  16  16  16  16
#     4  12  24  36  50  81 121 168 196 232 298 354
#     4   9  18  33  54  80 110 146 195 249 292 343
#     4  11  21  36  54  81 120 153 199 244 287 360
#     4   9  18  35  62  89 108 137 188 251 309 350
#     4  10  20  35  55  78 110 158 208 247 288 343
#
# _framework density 20.362105
#
# number of rings (size 3 to 8) (size 9 to 14) (size 15 to 20)
#    0.000    2.000    2.222    4.667    0.000    4.444 
#    0.000    0.000    0.000    2.667    0.000    4.667 
#    0.000    0.000    0.000    0.000    0.000    0.000 
#
# Total GULP energy -446154.075571 kJ/mol
# GULP energy per Si atom -12393.168766 kJ/mol
# Density = 2.031576 g / cm^3
# Si number density = 20.362105 Si / 1000 Ang^3
#
#
#
# Elastic Constant Matrix: (Units=GPa)
#
#
# Indices 1 2 3 4 5 6 
#
# 1 93.3180 46.3102 34.5871 0.0000 0.0000 0.0000
# 2 46.3102 85.7780 26.0711 0.0000 0.0000 0.0000
# 3 34.5871 26.0711 112.3793 0.0001 -0.0001 0.0000
# 4 0.0000 0.0000 0.0001 21.7390 0.0000 0.0000
# 5 0.0000 0.0000 -0.0001 0.0000 10.6909 0.0000
# 6 0.0000 0.0000 0.0000 0.0000 0.0000 22.6142
#
#
#
# Elastic Compliance Matrix: (Units=1/GPa)
#
#
# Indices 1 2 3 4 5 6 
#
# 1 0.015555 -0.007470 -0.003055 0.000000 0.000000 0.000000
# 2 -0.007470 0.016129 -0.001443 0.000000 0.000000 0.000000
# 3 -0.003055 -0.001443 0.010173 0.000000 0.000000 0.000000
# 4 0.000000 0.000000 0.000000 0.046000 0.000000 0.000000
# 5 0.000000 0.000000 0.000000 0.000000 0.093538 0.000000
# 6 0.000000 0.000000 0.000000 0.000000 0.000000 0.044220
#
#
# Mechanical properties :
#
#
# Convention : Reuss Voigt Hill
#
# Bulk Modulus (GPa) = 55.79252 56.15692 55.97472
# Shear Modulus (GPa) = 19.56764 23.30927 21.43845
#
# Velocity S-wave (km/s) = 3.10334 3.38707 3.24830
# Velocity P-wave (km/s) = 6.34827 6.55250 6.45120
#
# Compressibility (1/GPa) = 0.01792355
#
# Stress axis : x y z
#
# Youngs Moduli (GPa) = 64.28796 61.99912 98.29666
#
# Poissons Ratio (x) = 0.46310 0.30025
# Poissons Ratio (y) = 0.48020 0.14184
# Poissons Ratio (z) = 0.19637 0.08946
#
# Static dielectric constant tensor:
#      x y z
#    x 3.555280 0.000000 0.000000 
#    y 0.000000 3.707470 0.000000 
#    z 0.000000 0.000000 4.059460 
# 
# 
# High freq. dielectric constant tensor:
#      x y z
#    x 1.760520 0.000000 0.000000 
#    y 0.000000 1.768860 0.000000 
#    z 0.000000 0.000000 1.810130 
# 
# From -- ./inp_files/18878.got.cif
#   From: 2010.03.12/outbox.cif.g09.slc.cpg/sg72_10_cif.got.tgz:18878.got - 2010.04.16 14:54:00.
