data_PCOD8294385
_publ_section_title
;
Structure prediction by ZEFSAII (Michael W. Deem and Ramdas Pophale) SiO2 
 PCOD8294385
Probable space group: I B A M
;
_chemical_formula_sum "Si O2"
_cell_formula_units_Z 64
_cell_length_a 8.165878
_cell_length_b 22.411237
_cell_length_c 13.591917
_cell_angle_alpha 90.000000
_cell_angle_beta 90.000000
_cell_angle_gamma 90.000000
_cell_volume 2487.421760
_symmetry_space_group_name_H-M "I B A M"
_symmetry_group_IT_number 72
_symmetry_cell_setting 'orthorhombic'
loop_
_space_group_symop_operation_xyz
x,y,z
-x,-y,z
x,-y,1/2-z
-x,y,1/2-z
-x,-y,-z
x,y,-z
-x,y,1/2+z
x,-y,1/2+z
1/2+x,1/2+y,1/2+z
1/2-x,1/2-y,1/2+z
1/2+x,1/2-y,-z
1/2-x,1/2+y,-z
1/2-x,1/2-y,1/2-z
1/2+x,1/2+y,1/2-z
1/2-x,1/2+y,z
1/2+x,1/2-y,z
loop_
_atom_site_type_symbol
_atom_site_label
_atom_site_fract_x
_atom_site_fract_y
_atom_site_fract_z
Si Si1 0.044532 0.392092 0.387750
Si Si2 0.231322 0.932574 0.767885
Si Si3 0.549657 0.663517 0.882093
Si Si4 0.778506 0.720318 0.387458
O O1 0.039787 0.412793 0.500000
O O2 0.219014 0.411791 0.341641
O O3 0.054171 0.319610 0.376714
O O4 0.892447 0.423018 0.335102
O O5 0.084680 0.897688 0.823182
O O6 0.176026 0.000000 0.750000
O O7 0.379503 0.689235 0.837370
O O8 0.688121 0.712370 0.851206
O O9 0.550743 0.651975 0.000000
O O10 0.726026 0.723883 0.500000
#
# Coordination Sequence:
#
# PCOD8294385 Si02
#       4
#    16  16  16  16
#     4  10  21  40  63  89 124 162 212 275 325 379
#     4  11  24  39  60  92 125 173 225 259 316 388
#     4  10  20  38  65  98 135 168 209 268 324 386
#     4   9  19  37  66 101 131 167 212 264 336 396
#
# _framework density 25.729451999999998
#
# number of rings (size 3 to 8) (size 9 to 14) (size 15 to 20)
#    0.000    2.000    0.000    3.750    0.000    9.000 
#    0.000    3.750    0.000    4.500    0.000    0.000 
#    0.000    0.000    0.000    0.000    0.000    0.000 
#
# Total GULP energy -396470.147113 kJ/mol
# GULP energy per Si atom -12389.692097 kJ/mol
# Density = 2.567089 g / cm^3
# Si number density = 25.729452 Si / 1000 Ang^3
#
#
#
# Elastic Constant Matrix: (Units=GPa)
#
#
# Indices 1 2 3 4 5 6 
#
# 1 108.0344 50.1528 40.8145 0.0003 0.0000 -0.0001
# 2 50.1528 195.3632 56.9663 0.0004 0.0000 -0.0001
# 3 40.8145 56.9663 122.1208 0.0019 -0.0001 -0.0006
# 4 0.0003 0.0004 0.0019 13.9133 -0.0004 -0.0007
# 5 0.0000 0.0000 -0.0001 -0.0004 35.8176 0.0001
# 6 -0.0001 -0.0001 -0.0006 -0.0007 0.0001 -21.3971
#
#
#
# Elastic Compliance Matrix: (Units=1/GPa)
#
#
# Indices 1 2 3 4 5 6 
#
# 1 0.011279 -0.002079 -0.002800 0.000000 0.000000 0.000000
# 2 -0.002079 0.006308 -0.002248 0.000000 0.000000 0.000000
# 3 -0.002800 -0.002248 0.010173 -0.000001 0.000000 0.000000
# 4 0.000000 0.000000 -0.000001 0.071874 0.000001 -0.000002
# 5 0.000000 0.000000 0.000000 0.000001 0.027919 0.000000
# 6 0.000000 0.000000 0.000000 -0.000002 0.000000 -0.046735
#
#
# Mechanical properties :
#
#
# Convention : Reuss Voigt Hill
#
# Bulk Modulus (GPa) = 74.03681 80.15397 77.09539
# Shear Modulus (GPa) = 50.21441 24.17240 37.19341
#
# Velocity S-wave (km/s) = 4.42252 3.06843 3.80617
# Velocity P-wave (km/s) = 7.41052 6.61618 7.02459
#
# Compressibility (1/GPa) = 0.01350679
#
# Stress axis : x y z
#
# Youngs Moduli (GPa) = 88.65828 158.53415 98.30165
#
# Poissons Ratio (x) = 0.32962 0.27523
# Poissons Ratio (y) = 0.18433 0.22094
# Poissons Ratio (z) = 0.24823 0.35631
#
# Static dielectric constant tensor:
#      x y z
#    x 4.704290 0.000000 0.000000 
#    y 0.000000 4.569460 0.000000 
#    z 0.000000 0.000000 4.727040 
# 
# 
# High freq. dielectric constant tensor:
#      x y z
#    x 2.033040 0.000000 0.000000 
#    y 0.000000 2.015750 0.000000 
#    z 0.000000 0.000000 2.041970 
# 
# From -- ./inp_files/18665.got.cif
#   From: 2010.03.12/outbox.cif.g09.slc.cpg/sg72_10_cif.got.tgz:18665.got - 2010.04.16 14:54:00.
