data_PCOD8294422
_publ_section_title
;
Structure prediction by ZEFSAII (Michael W. Deem and Ramdas Pophale) SiO2 
 PCOD8294422
Probable space group: I B A M
;
_chemical_formula_sum "Si O2"
_cell_formula_units_Z 72
_cell_length_a 19.666074
_cell_length_b 12.255613
_cell_length_c 14.865542
_cell_angle_alpha 90.000000
_cell_angle_beta 90.000000
_cell_angle_gamma 90.000000
_cell_volume 3582.889843
_symmetry_space_group_name_H-M "I B A M"
_symmetry_group_IT_number 72
_symmetry_cell_setting 'orthorhombic'
loop_
_space_group_symop_operation_xyz
x,y,z
-x,-y,z
x,-y,1/2-z
-x,y,1/2-z
-x,-y,-z
x,y,-z
-x,y,1/2+z
x,-y,1/2+z
1/2+x,1/2+y,1/2+z
1/2-x,1/2-y,1/2+z
1/2+x,1/2-y,-z
1/2-x,1/2+y,-z
1/2-x,1/2-y,1/2-z
1/2+x,1/2+y,1/2-z
1/2-x,1/2+y,z
1/2+x,1/2-y,z
loop_
_atom_site_type_symbol
_atom_site_label
_atom_site_fract_x
_atom_site_fract_y
_atom_site_fract_z
Si Si1 0.308855 0.888411 0.697011
Si Si2 0.148816 0.330801 0.000000
Si Si3 0.861022 0.417873 0.000000
Si Si4 0.479219 0.378848 0.650341
Si Si5 0.666584 0.294575 0.827724
Si Si6 0.008288 0.280390 0.500000
O O1 0.329732 0.875357 0.593094
O O2 0.348133 0.789843 0.746873
O O3 0.227512 0.874059 0.701237
O O4 0.328624 0.000000 0.750000
O O5 0.160317 0.457743 0.000000
O O6 0.185663 0.277905 0.085625
O O7 0.067878 0.322221 0.000000
O O8 0.940614 0.383356 0.000000
O O9 0.500000 0.500000 0.620729
O O10 0.500000 0.349892 0.750000
O O11 0.397730 0.368541 0.645409
O O12 0.519308 0.294479 0.587515
#
# Coordination Sequence:
#
# PCOD8294422 Si02
#       6
#    16   8   8  16  16   8
#     4  11  23  39  64  88 122 163 203 250 301 363
#     4  10  20  40  62  84 121 158 196 251 308 355
#     4  12  22  40  60  92 117 157 210 241 302 367
#     4  10  21  38  62  89 120 160 201 249 307 361
#     4  10  22  41  60  89 125 157 199 253 305 360
#     4  10  22  38  60  86 123 155 198 255 298 361
#
# _framework density 20.095510000000001
#
# number of rings (size 3 to 8) (size 9 to 14) (size 15 to 20)
#    0.000    1.556    2.222    2.667    3.111    0.000 
#    0.000    0.000    0.000    0.000    0.000    0.000 
#    0.000    0.000    0.000    0.000    0.000    0.000 
#
# Total GULP energy -446246.785718 kJ/mol
# GULP energy per Si atom -12395.744048 kJ/mol
# Density = 2.004977 g / cm^3
# Si number density = 20.095510 Si / 1000 Ang^3
#
#
#
# Elastic Constant Matrix: (Units=GPa)
#
#
# Indices 1 2 3 4 5 6 
#
# 1 58.2933 24.0207 -1.0286 0.0000 0.0000 0.0000
# 2 24.0207 62.8171 18.1084 0.0000 0.0000 0.0000
# 3 -1.0286 18.1084 124.6671 0.0000 0.0000 0.0000
# 4 0.0000 0.0000 0.0000 15.1118 0.0000 0.0000
# 5 0.0000 0.0000 0.0000 0.0000 95.8922 0.0000
# 6 0.0000 0.0000 0.0000 0.0000 0.0000 27.9232
#
#
#
# Elastic Compliance Matrix: (Units=1/GPa)
#
#
# Indices 1 2 3 4 5 6 
#
# 1 0.020585 -0.008267 0.001371 0.000000 0.000000 0.000000
# 2 -0.008267 0.019935 -0.002964 0.000000 0.000000 0.000000
# 3 0.001371 -0.002964 0.008463 0.000000 0.000000 0.000000
# 4 0.000000 0.000000 0.000000 0.066173 0.000000 0.000000
# 5 0.000000 0.000000 0.000000 0.000000 0.010428 0.000000
# 6 0.000000 0.000000 0.000000 0.000000 0.000000 0.035812
#
#
# Mechanical properties :
#
#
# Convention : Reuss Voigt Hill
#
# Bulk Modulus (GPa) = 34.17248 36.44207 35.30728
# Shear Modulus (GPa) = 26.19559 41.43056 33.81307
#
# Velocity S-wave (km/s) = 3.61439 4.54550 4.10642
# Velocity P-wave (km/s) = 5.87030 6.76185 6.33178
#
# Compressibility (1/GPa) = 0.02926332
#
# Stress axis : x y z
#
# Youngs Moduli (GPa) = 48.57845 50.16363 118.15892
#
# Poissons Ratio (x) = 0.41469 -0.16195
# Poissons Ratio (y) = 0.40159 0.35020
# Poissons Ratio (z) = -0.06658 0.14868
#
# Static dielectric constant tensor:
#      x y z
#    x 3.419620 0.000000 0.000000 
#    y 0.000000 3.616210 0.000000 
#    z 0.000000 0.000000 4.263950 
# 
# 
# High freq. dielectric constant tensor:
#      x y z
#    x 1.768530 0.000000 0.000000 
#    y 0.000000 1.784950 0.000000 
#    z 0.000000 0.000000 1.807530 
# 
# From -- ./inp_files/20146.got.cif
#   From: 2010.03.12/outbox.cif.g09.slc.cpg/sg72_11_cif.got.tgz:20146.got - 2010.04.16 14:54:00.
