data_PCOD8294997
_publ_section_title
;
Structure prediction by ZEFSAII (Michael W. Deem and Ramdas Pophale) SiO2 
 PCOD8294997
Probable space group: I B A M
;
_chemical_formula_sum "Si O2"
_cell_formula_units_Z 64
_cell_length_a 9.316108
_cell_length_b 26.053451
_cell_length_c 12.482272
_cell_angle_alpha 90.000000
_cell_angle_beta 90.000000
_cell_angle_gamma 90.000000
_cell_volume 3029.656658
_symmetry_space_group_name_H-M "I B A M"
_symmetry_group_IT_number 72
_symmetry_cell_setting 'orthorhombic'
loop_
_space_group_symop_operation_xyz
x,y,z
-x,-y,z
x,-y,1/2-z
-x,y,1/2-z
-x,-y,-z
x,y,-z
-x,y,1/2+z
x,-y,1/2+z
1/2+x,1/2+y,1/2+z
1/2-x,1/2-y,1/2+z
1/2+x,1/2-y,-z
1/2-x,1/2+y,-z
1/2-x,1/2-y,1/2-z
1/2+x,1/2+y,1/2-z
1/2-x,1/2+y,z
1/2+x,1/2-y,z
loop_
_atom_site_type_symbol
_atom_site_label
_atom_site_fract_x
_atom_site_fract_y
_atom_site_fract_z
Si Si1 0.641770 0.649118 0.681963
Si Si2 0.606443 0.431264 0.000000
Si Si3 0.730070 0.723647 0.500000
Si Si4 0.118901 0.394560 0.172722
Si Si5 0.776122 0.960568 0.500000
Si Si6 0.461295 0.183248 0.500000
O O1 0.500000 0.659178 0.750000
O O2 0.634099 0.599111 0.608302
O O3 0.667815 0.698331 0.607655
O O4 0.768160 0.640209 0.764981
O O5 0.440927 0.445371 0.000000
O O6 0.721862 0.477753 0.000000
O O7 0.684112 0.783136 0.500000
O O8 0.902293 0.720931 0.500000
O O9 0.032036 0.354130 0.101099
O O10 0.000000 0.420617 0.250000
O O11 0.197105 0.439236 0.105523
#
# Coordination Sequence:
#
# PCOD8294997 Si02
#       6
#    16   8   8  16   8   8
#     4  11  23  42  66  93 132 175 216 266 327 390
#     4  10  22  41  65 101 128 164 225 274 314 385
#     4  11  26  42  64  98 131 170 219 277 320 395
#     4  11  23  44  66  93 135 176 212 266 331 388
#     4  10  22  41  67  97 132 167 218 274 322 380
#     4  11  26  42  66  96 133 168 222 271 328 389
#
# _framework density 21.124504000000002
#
# number of rings (size 3 to 8) (size 9 to 14) (size 15 to 20)
#    0.000    1.250    5.000    0.000    3.500    3.000 
#    0.000    3.750    0.000    0.000    0.000    0.000 
#    0.000    0.000    0.000    0.000    0.000    0.000 
#
# Total GULP energy -396854.864529 kJ/mol
# GULP energy per Si atom -12401.714517 kJ/mol
# Density = 2.107642 g / cm^3
# Si number density = 21.124504 Si / 1000 Ang^3
#
#
#
# Elastic Constant Matrix: (Units=GPa)
#
#
# Indices 1 2 3 4 5 6 
#
# 1 113.8080 10.9788 41.4757 0.0002 0.0000 0.0000
# 2 10.9788 53.8885 9.0034 0.0004 0.0000 0.0000
# 3 41.4757 9.0034 117.0754 0.0009 0.0001 0.0001
# 4 0.0002 0.0004 0.0009 17.5963 0.0000 -0.0001
# 5 0.0000 0.0000 0.0001 0.0000 40.1402 0.0000
# 6 0.0000 0.0000 0.0001 -0.0001 0.0000 30.1232
#
#
#
# Elastic Compliance Matrix: (Units=1/GPa)
#
#
# Indices 1 2 3 4 5 6 
#
# 1 0.010207 -0.001495 -0.003501 0.000000 0.000000 0.000000
# 2 -0.001495 0.019017 -0.000933 0.000000 0.000000 0.000000
# 3 -0.003501 -0.000933 0.009854 0.000000 0.000000 0.000000
# 4 0.000000 0.000000 0.000000 0.056830 0.000000 0.000000
# 5 0.000000 0.000000 0.000000 0.000000 0.024913 0.000000
# 6 0.000000 0.000000 0.000000 0.000000 0.000000 0.033197
#
#
# Mechanical properties :
#
#
# Convention : Reuss Voigt Hill
#
# Bulk Modulus (GPa) = 36.73702 45.29862 41.01782
# Shear Modulus (GPa) = 28.57996 32.45955 30.51976
#
# Velocity S-wave (km/s) = 3.68221 3.92418 3.80512
# Velocity P-wave (km/s) = 5.95875 6.48247 6.22612
#
# Compressibility (1/GPa) = 0.02722050
#
# Stress axis : x y z
#
# Youngs Moduli (GPa) = 97.97412 52.58398 101.48653
#
# Poissons Ratio (x) = 0.07859 0.35530
# Poissons Ratio (y) = 0.14642 0.09469
# Poissons Ratio (z) = 0.34300 0.04906
#
# Static dielectric constant tensor:
#      x y z
#    x 3.923130 0.000000 0.000000 
#    y 0.000000 3.657470 0.000000 
#    z 0.000000 0.000000 4.043330 
# 
# 
# High freq. dielectric constant tensor:
#      x y z
#    x 1.843880 0.000000 0.000000 
#    y 0.000000 1.812620 0.000000 
#    z 0.000000 0.000000 1.847260 
# 
# From -- ./inp_files/10574.got.cif
#   From: 2010.03.12/outbox.cif.g09.slc.cpg/sg72_6_cif.got.tgz:10574.got - 2010.04.16 14:54:00.
