data_PCOD8294766
_publ_section_title
;
Structure prediction by ZEFSAII (Michael W. Deem and Ramdas Pophale) SiO2 
 PCOD8294766
Probable space group: I B A M
;
_chemical_formula_sum "Si O2"
_cell_formula_units_Z 64
_cell_length_a 19.105003
_cell_length_b 10.628234
_cell_length_c 13.541387
_cell_angle_alpha 90.000000
_cell_angle_beta 90.000000
_cell_angle_gamma 90.000000
_cell_volume 2749.611705
_symmetry_space_group_name_H-M "I B A M"
_symmetry_group_IT_number 72
_symmetry_cell_setting 'orthorhombic'
loop_
_space_group_symop_operation_xyz
x,y,z
-x,-y,z
x,-y,1/2-z
-x,y,1/2-z
-x,-y,-z
x,y,-z
-x,y,1/2+z
x,-y,1/2+z
1/2+x,1/2+y,1/2+z
1/2-x,1/2-y,1/2+z
1/2+x,1/2-y,-z
1/2-x,1/2+y,-z
1/2-x,1/2-y,1/2-z
1/2+x,1/2+y,1/2-z
1/2-x,1/2+y,z
1/2+x,1/2-y,z
loop_
_atom_site_type_symbol
_atom_site_label
_atom_site_fract_x
_atom_site_fract_y
_atom_site_fract_z
Si Si1 0.454941 0.113200 0.614088
Si Si2 0.166996 0.868689 0.213959
Si Si3 0.473869 0.636509 0.383589
Si Si4 0.695175 0.819755 0.613894
O O1 0.475612 0.115497 0.500000
O O2 0.473114 0.253765 0.654944
O O3 0.371981 0.088505 0.630107
O O4 0.500000 0.000000 0.664716
O O5 0.101879 0.813729 0.153042
O O6 0.233204 0.890603 0.140859
O O7 0.189247 0.796193 0.312251
O O8 0.138457 0.000000 0.250000
O O9 0.500000 0.500000 0.342688
O O10 0.470807 0.628225 0.500000
O O11 0.696690 0.772441 0.500000
#
# Coordination Sequence:
#
# PCOD8294766 Si02
#       4
#    16  16  16  16
#     4   9  19  37  62  90 120 159 205 252 308 371
#     4  11  24  40  62  92 122 162 213 260 314 382
#     4  10  21  39  64  94 128 165 207 260 318 376
#     4  10  23  42  61  87 125 164 205 259 318 377
#
# _framework density 23.276015000000001
#
# number of rings (size 3 to 8) (size 9 to 14) (size 15 to 20)
#    0.000    2.000    0.000    2.250    0.000   11.500 
#    0.000    3.750    0.000    0.750    0.000    0.000 
#    0.000    1.000    0.000    0.000    0.000    0.000 
#
# Total GULP energy -396532.724199 kJ/mol
# GULP energy per Si atom -12391.647631 kJ/mol
# Density = 2.322304 g / cm^3
# Si number density = 23.276015 Si / 1000 Ang^3
#
#
#
# Elastic Constant Matrix: (Units=GPa)
#
#
# Indices 1 2 3 4 5 6 
#
# 1 174.4400 27.3366 50.7052 0.0000 0.0000 0.0000
# 2 27.3366 109.2905 11.0116 0.0000 0.0000 0.0000
# 3 50.7052 11.0116 102.6404 0.0000 0.0000 0.0000
# 4 0.0000 0.0000 0.0000 -8.2191 0.0000 0.0000
# 5 0.0000 0.0000 0.0000 0.0000 36.2465 0.0000
# 6 0.0000 0.0000 0.0000 0.0000 0.0000 37.0380
#
#
#
# Elastic Compliance Matrix: (Units=1/GPa)
#
#
# Indices 1 2 3 4 5 6 
#
# 1 0.006899 -0.001397 -0.003258 0.000000 0.000000 0.000000
# 2 -0.001397 0.009533 -0.000332 0.000000 0.000000 0.000000
# 3 -0.003258 -0.000332 0.011388 0.000000 0.000000 0.000000
# 4 0.000000 0.000000 0.000000 -0.121667 0.000000 0.000000
# 5 0.000000 0.000000 0.000000 0.000000 0.027589 0.000000
# 6 0.000000 0.000000 0.000000 0.000000 0.000000 0.026999
#
#
# Mechanical properties :
#
#
# Convention : Reuss Voigt Hill
#
# Bulk Modulus (GPa) = 56.04167 62.71977 59.38072
# Shear Modulus (GPa) = -214.26049 32.83423 -90.71313
#
# Velocity S-wave (km/s) = -9.60478 3.75993 -6.24959
# Velocity P-wave (km/s) = 9.94350 6.77156 5.14875
#
# Compressibility (1/GPa) = 0.01784386
#
# Stress axis : x y z
#
# Youngs Moduli (GPa) = 144.95613 104.89965 87.81223
#
# Poissons Ratio (x) = 0.14657 0.28610
# Poissons Ratio (y) = 0.20254 0.02919
# Poissons Ratio (z) = 0.47228 0.03488
#
# Static dielectric constant tensor:
#      x y z
#    x 4.279830 0.000000 0.000000 
#    y 0.000000 4.142450 0.000000 
#    z 0.000000 0.000000 4.233120 
# 
# 
# High freq. dielectric constant tensor:
#      x y z
#    x 1.936230 0.000000 0.000000 
#    y 0.000000 1.893180 0.000000 
#    z 0.000000 0.000000 1.935520 
# 
# From -- ./inp_files/19705.got.cif
#   From: 2010.03.12/outbox.cif.g09.slc.cpg/sg72_10_cif.got.tgz:19705.got - 2010.04.16 14:54:00.
