data_PCOD8294519
_publ_section_title
;
Structure prediction by ZEFSAII (Michael W. Deem and Ramdas Pophale) SiO2 
 PCOD8294519
Probable space group: I B A M
;
_chemical_formula_sum "Si O2"
_cell_formula_units_Z 112
_cell_length_a 12.135198
_cell_length_b 28.403649
_cell_length_c 15.902945
_cell_angle_alpha 90.000000
_cell_angle_beta 90.000000
_cell_angle_gamma 90.000000
_cell_volume 5481.489176
_symmetry_space_group_name_H-M "I B A M"
_symmetry_group_IT_number 72
_symmetry_cell_setting 'orthorhombic'
loop_
_space_group_symop_operation_xyz
x,y,z
-x,-y,z
x,-y,1/2-z
-x,y,1/2-z
-x,-y,-z
x,y,-z
-x,y,1/2+z
x,-y,1/2+z
1/2+x,1/2+y,1/2+z
1/2-x,1/2-y,1/2+z
1/2+x,1/2-y,-z
1/2-x,1/2+y,-z
1/2-x,1/2-y,1/2-z
1/2+x,1/2+y,1/2-z
1/2-x,1/2+y,z
1/2+x,1/2-y,z
loop_
_atom_site_type_symbol
_atom_site_label
_atom_site_fract_x
_atom_site_fract_y
_atom_site_fract_z
Si Si1 0.891820 0.659697 0.400108
Si Si2 0.264332 0.580942 0.094670
Si Si3 0.634340 0.172326 0.096544
Si Si4 0.666836 0.613452 0.899556
Si Si5 0.122719 0.990327 0.100753
Si Si6 0.943806 0.158153 0.404154
Si Si7 0.716608 0.731544 0.659413
O O1 0.894014 0.655939 0.500000
O O2 0.832412 0.612580 0.361914
O O3 0.823608 0.706464 0.378694
O O4 0.014197 0.665281 0.360707
O O5 0.292122 0.530180 0.136833
O O6 0.378113 0.609429 0.095742
O O7 0.225370 0.571262 0.000000
O O8 0.721782 0.136278 0.138073
O O9 0.680539 0.224715 0.102923
O O10 0.621546 0.158934 0.000000
O O11 0.660655 0.560402 0.864583
O O12 0.565137 0.645993 0.869045
O O13 0.664771 0.612992 0.000000
O O14 0.123010 0.992219 0.000000
O O15 0.000000 0.000000 0.134709
O O16 0.946504 0.178429 0.500000
O O17 0.887017 0.195704 0.341656
O O18 0.750000 0.750000 0.750000
#
# Coordination Sequence:
#
# PCOD8294519 Si02
#       7
#    16  16  16  16  16  16  16
#     4   9  19  36  54  74 104 142 180 214 257 322
#     4   8  13  24  45  72 103 135 166 207 258 312
#     4  10  21  36  52  71 102 143 181 216 259 316
#     4   9  17  28  47  77 108 137 173 214 258 314
#     4   9  13  21  42  76 111 135 159 206 265 313
#     4   9  16  30  51  75 103 137 179 217 261 320
#     4  11  23  36  53  76 101 132 178 231 273 316
#
# _framework density 20.432403999999998
#
# number of rings (size 3 to 8) (size 9 to 14) (size 15 to 20)
#    0.000    2.714    1.429    2.143    2.000    0.571 
#    0.000    0.714    0.000    4.286    0.000    4.000 
#    0.000    4.571    0.000    0.000    0.000    0.000 
#
# Total GULP energy -693919.945934 kJ/mol
# GULP energy per Si atom -12391.427606 kJ/mol
# Density = 2.038590 g / cm^3
# Si number density = 20.432404 Si / 1000 Ang^3
#
#
#
# Elastic Constant Matrix: (Units=GPa)
#
#
# Indices 1 2 3 4 5 6 
#
# 1 193.3479 102.3889 14.0878 0.0003 0.0000 0.0000
# 2 102.3889 168.1128 13.7881 0.0004 -0.0002 -0.0001
# 3 14.0878 13.7881 21.2105 0.0041 -0.0014 -0.0001
# 4 0.0003 0.0004 0.0041 4.1778 -0.0006 -0.0001
# 5 0.0000 -0.0002 -0.0014 -0.0006 7.1024 0.0001
# 6 0.0000 -0.0001 -0.0001 -0.0001 0.0001 30.5377
#
#
#
# Elastic Compliance Matrix: (Units=1/GPa)
#
#
# Indices 1 2 3 4 5 6 
#
# 1 0.007729 -0.004528 -0.002190 0.000002 -0.000001 0.000000
# 2 -0.004528 0.008936 -0.002801 0.000002 0.000000 0.000000
# 3 -0.002190 -0.002801 0.050422 -0.000049 0.000010 0.000000
# 4 0.000002 0.000002 -0.000049 0.239361 0.000021 0.000001
# 5 -0.000001 0.000000 0.000010 0.000021 0.140797 0.000000
# 6 0.000000 0.000000 0.000000 0.000001 0.000000 0.032746
#
#
# Mechanical properties :
#
#
# Convention : Reuss Voigt Hill
#
# Bulk Modulus (GPa) = 20.81243 71.46678 46.13960
# Shear Modulus (GPa) = 9.70783 25.19066 17.44925
#
# Velocity S-wave (km/s) = 2.18209 3.51505 2.92550
# Velocity P-wave (km/s) = 4.06900 7.17824 5.83455
#
# Compressibility (1/GPa) = 0.04804822
#
# Stress axis : x y z
#
# Youngs Moduli (GPa) = 129.37561 111.90816 19.83243
#
# Poissons Ratio (x) = 0.50671 0.04344
# Poissons Ratio (y) = 0.58581 0.05556
# Poissons Ratio (z) = 0.28338 0.31351
#
# Static dielectric constant tensor:
#      x y z
#    x 4.145760 0.000000 0.000000 
#    y 0.000000 4.010910 0.000000 
#    z 0.000000 0.000000 3.065840 
# 
# 
# High freq. dielectric constant tensor:
#      x y z
#    x 1.797200 0.000000 0.000000 
#    y 0.000000 1.804020 0.000000 
#    z 0.000000 0.000000 1.740610 
# 
# From -- ./inp_files/20681.got.cif
#   From: 2010.03.12/outbox.cif.g09.slc.cpg/sg72_11_cif.got.tgz:20681.got - 2010.04.16 14:54:00.
