data_PCOD8294336
_publ_section_title
;
Structure prediction by ZEFSAII (Michael W. Deem and Ramdas Pophale) SiO2 
 PCOD8294336
Probable space group: I B A M
;
_chemical_formula_sum "Si O2"
_cell_formula_units_Z 80
_cell_length_a 15.412611
_cell_length_b 15.537278
_cell_length_c 17.055523
_cell_angle_alpha 90.000000
_cell_angle_beta 90.000000
_cell_angle_gamma 90.000000
_cell_volume 4084.286465
_symmetry_space_group_name_H-M "I B A M"
_symmetry_group_IT_number 72
_symmetry_cell_setting 'orthorhombic'
loop_
_space_group_symop_operation_xyz
x,y,z
-x,-y,z
x,-y,1/2-z
-x,y,1/2-z
-x,-y,-z
x,y,-z
-x,y,1/2+z
x,-y,1/2+z
1/2+x,1/2+y,1/2+z
1/2-x,1/2-y,1/2+z
1/2+x,1/2-y,-z
1/2-x,1/2+y,-z
1/2-x,1/2-y,1/2-z
1/2+x,1/2+y,1/2-z
1/2-x,1/2+y,z
1/2+x,1/2-y,z
loop_
_atom_site_type_symbol
_atom_site_label
_atom_site_fract_x
_atom_site_fract_y
_atom_site_fract_z
Si Si1 0.318320 0.093918 0.756933
Si Si2 0.390373 0.251858 0.332773
Si Si3 0.557471 0.304618 0.587370
Si Si4 0.874241 0.908516 0.281315
Si Si5 0.222488 0.684065 0.912075
O O1 0.380541 0.167137 0.721464
O O2 0.229517 0.092261 0.706739
O O3 0.294758 0.109528 0.848415
O O4 0.363594 0.000000 0.750000
O O5 0.478271 0.245097 0.382485
O O6 0.401730 0.334106 0.278030
O O7 0.308515 0.262602 0.389982
O O8 0.535664 0.335723 0.500000
O O9 0.575791 0.390566 0.637474
O O10 0.643135 0.248347 0.590619
O O11 0.907256 0.000000 0.250000
O O12 0.232798 0.644725 0.000000
#
# Coordination Sequence:
#
# PCOD8294336 Si02
#       5
#    16  16  16  16  16
#     4  10  20  38  63  90 116 161 213 247 298 374
#     4  11  20  38  60  85 118 160 201 245 300 372
#     4  11  22  36  59  89 120 157 199 250 312 366
#     4  10  20  38  62  88 117 156 200 250 305 364
#     4  10  20  38  58  84 120 155 194 255 307 356
#
# _framework density 19.587264999999999
#
# number of rings (size 3 to 8) (size 9 to 14) (size 15 to 20)
#    0.000    1.600    4.000    2.400    0.000    1.600 
#    0.000   15.000    0.000    2.400    0.000    0.000 
#    0.000    0.000    0.000    0.000    0.000    0.000 
#
# Total GULP energy -495937.572829 kJ/mol
# GULP energy per Si atom -12398.439321 kJ/mol
# Density = 1.954268 g / cm^3
# Si number density = 19.587265 Si / 1000 Ang^3
#
#
#
# Elastic Constant Matrix: (Units=GPa)
#
#
# Indices 1 2 3 4 5 6 
#
# 1 95.2348 36.6912 57.8706 0.0000 0.0000 0.0000
# 2 36.6912 138.4017 71.1230 0.0000 0.0000 0.0000
# 3 57.8706 71.1230 156.2964 0.0000 0.0000 0.0000
# 4 0.0000 0.0000 0.0000 24.7505 0.0000 0.0000
# 5 0.0000 0.0000 0.0000 0.0000 24.1312 0.0000
# 6 0.0000 0.0000 0.0000 0.0000 0.0000 4.0337
#
#
#
# Elastic Compliance Matrix: (Units=1/GPa)
#
#
# Indices 1 2 3 4 5 6 
#
# 1 0.013737 -0.001342 -0.004476 0.000000 0.000000 0.000000
# 2 -0.001342 0.009562 -0.003854 0.000000 0.000000 0.000000
# 3 -0.004476 -0.003854 0.009809 0.000000 0.000000 0.000000
# 4 0.000000 0.000000 0.000000 0.040403 0.000000 0.000000
# 5 0.000000 0.000000 0.000000 0.000000 0.041440 0.000000
# 6 0.000000 0.000000 0.000000 0.000000 0.000000 0.247909
#
#
# Mechanical properties :
#
#
# Convention : Reuss Voigt Hill
#
# Bulk Modulus (GPa) = 72.65112 80.14473 76.39793
# Shear Modulus (GPa) = 12.92684 25.53295 19.22989
#
# Velocity S-wave (km/s) = 2.57176 3.61439 3.13670
# Velocity P-wave (km/s) = 6.78160 7.64356 7.22544
#
# Compressibility (1/GPa) = 0.01376441
#
# Stress axis : x y z
#
# Youngs Moduli (GPa) = 72.79589 104.58374 101.94520
#
# Poissons Ratio (x) = 0.14033 0.45628
# Poissons Ratio (y) = 0.09767 0.39292
# Poissons Ratio (z) = 0.32582 0.40309
#
# Static dielectric constant tensor:
#      x y z
#    x 3.651760 0.000000 0.000000 
#    y 0.000000 3.440190 0.000000 
#    z 0.000000 0.000000 4.021000 
# 
# 
# High freq. dielectric constant tensor:
#      x y z
#    x 1.772420 0.000000 0.000000 
#    y 0.000000 1.740480 0.000000 
#    z 0.000000 0.000000 1.762620 
# 
# From -- ./inp_files/30467.got.cif
#   From: 2010.03.12/outbox.cif.g09.slc.cpg/sg72_16_cif.got.tgz:30467.got - 2010.04.16 14:54:00.
