data_PCOD8294170
_publ_section_title
;
Structure prediction by ZEFSAII (Michael W. Deem and Ramdas Pophale) SiO2 
 PCOD8294170
Probable space group: I B A M
;
_chemical_formula_sum "Si O2"
_cell_formula_units_Z 112
_cell_length_a 28.882209
_cell_length_b 11.085762
_cell_length_c 17.353661
_cell_angle_alpha 90.000000
_cell_angle_beta 90.000000
_cell_angle_gamma 90.000000
_cell_volume 5556.317652
_symmetry_space_group_name_H-M "I B A M"
_symmetry_group_IT_number 72
_symmetry_cell_setting 'orthorhombic'
loop_
_space_group_symop_operation_xyz
x,y,z
-x,-y,z
x,-y,1/2-z
-x,y,1/2-z
-x,-y,-z
x,y,-z
-x,y,1/2+z
x,-y,1/2+z
1/2+x,1/2+y,1/2+z
1/2-x,1/2-y,1/2+z
1/2+x,1/2-y,-z
1/2-x,1/2+y,-z
1/2-x,1/2-y,1/2-z
1/2+x,1/2+y,1/2-z
1/2-x,1/2+y,z
1/2+x,1/2-y,z
loop_
_atom_site_type_symbol
_atom_site_label
_atom_site_fract_x
_atom_site_fract_y
_atom_site_fract_z
Si Si1 0.427656 0.665498 0.909352
Si Si2 0.879503 0.937448 0.413209
Si Si3 0.547552 0.049944 0.336385
Si Si4 0.298713 0.123063 0.297285
Si Si5 0.121786 0.597327 0.589862
Si Si6 0.970704 0.213660 0.087211
Si Si7 0.692747 0.371086 0.708542
O O1 0.391563 0.567471 0.874712
O O2 0.410790 0.794892 0.880085
O O3 0.481466 0.649117 0.886428
O O4 0.422156 0.651798 0.000000
O O5 0.859117 0.944958 0.500000
O O6 0.930038 0.880749 0.415213
O O7 0.842189 0.864860 0.363254
O O8 0.542753 0.192924 0.345304
O O9 0.500000 0.000000 0.373860
O O10 0.553211 0.000000 0.250000
O O11 0.593695 0.020460 0.384414
O O12 0.327465 0.106826 0.374857
O O13 0.315590 0.248053 0.257042
O O14 0.245326 0.133382 0.321729
O O15 0.307614 0.000000 0.250000
O O16 0.129929 0.596216 0.500000
O O17 0.977093 0.269704 0.000000
O O18 0.684483 0.500000 0.750000
#
# Coordination Sequence:
#
# PCOD8294170 Si02
#       7
#    16  16  16  16  16  16  16
#     4   9  18  35  57  84 119 157 193 235 291 353
#     4  10  21  36  61  91 116 151 202 252 296 352
#     4  11  23  37  54  82 120 161 199 243 291 352
#     4  10  23  42  64  88 120 157 200 250 313 371
#     4  11  22  36  61  88 117 157 199 245 298 357
#     4  10  20  36  58  84 120 159 198 239 290 354
#     4  10  22  43  65  86 118 164 198 245 315 374
#
# _framework density 20.157233999999999
#
# number of rings (size 3 to 8) (size 9 to 14) (size 15 to 20)
#    0.000    1.857    1.429    2.143    4.000    2.857 
#    0.000    0.000    0.000    6.000    0.000    0.000 
#    0.000    0.000    0.000    0.000    0.000    0.000 
#
# Total GULP energy -693908.277695 kJ/mol
# GULP energy per Si atom -12391.219245 kJ/mol
# Density = 2.011136 g / cm^3
# Si number density = 20.157234 Si / 1000 Ang^3
#
#
#
# Elastic Constant Matrix: (Units=GPa)
#
#
# Indices 1 2 3 4 5 6 
#
# 1 121.0360 20.2491 53.2555 0.0000 0.0000 0.0000
# 2 20.2491 92.2548 23.7285 0.0000 0.0000 0.0000
# 3 53.2555 23.7285 73.6056 0.0000 0.0000 0.0000
# 4 0.0000 0.0000 0.0000 24.1634 0.0000 0.0000
# 5 0.0000 0.0000 0.0000 0.0000 25.1235 0.0000
# 6 0.0000 0.0000 0.0000 0.0000 0.0000 29.6008
#
#
#
# Elastic Compliance Matrix: (Units=1/GPa)
#
#
# Indices 1 2 3 4 5 6 
#
# 1 0.012137 -0.000442 -0.008639 0.000000 0.000000 0.000000
# 2 -0.000442 0.011836 -0.003496 0.000000 0.000000 0.000000
# 3 -0.008639 -0.003496 0.020963 0.000000 0.000000 0.000000
# 4 0.000000 0.000000 0.000000 0.041385 0.000000 0.000000
# 5 0.000000 0.000000 0.000000 0.000000 0.039803 0.000000
# 6 0.000000 0.000000 0.000000 0.000000 0.000000 0.033783
#
#
# Mechanical properties :
#
#
# Convention : Reuss Voigt Hill
#
# Bulk Modulus (GPa) = 50.54913 53.48473 52.01693
# Shear Modulus (GPa) = 26.08853 28.42175 27.25514
#
# Velocity S-wave (km/s) = 3.60147 3.75907 3.68112
# Velocity P-wave (km/s) = 6.51352 6.74034 6.62790
#
# Compressibility (1/GPa) = 0.01978273
#
# Stress axis : x y z
#
# Youngs Moduli (GPa) = 82.39202 84.49034 47.70222
#
# Poissons Ratio (x) = 0.03734 0.41210
# Poissons Ratio (y) = 0.03642 0.16675
# Poissons Ratio (z) = 0.71179 0.29535
#
# Static dielectric constant tensor:
#      x y z
#    x 3.708890 0.000000 0.000000 
#    y 0.000000 3.949500 0.000000 
#    z 0.000000 0.000000 3.373260 
# 
# 
# High freq. dielectric constant tensor:
#      x y z
#    x 1.796900 0.000000 0.000000 
#    y 0.000000 1.795680 0.000000 
#    z 0.000000 0.000000 1.759280 
# 
# From -- ./inp_files/26422.got.cif
#   From: 2010.03.12/outbox.cif.g09.slc.cpg/sg72_14_cif.got.tgz:26422.got - 2010.04.16 14:54:00.
