data_PCOD8294099
_publ_section_title
;
Structure prediction by ZEFSAII (Michael W. Deem and Ramdas Pophale) SiO2 
 PCOD8294099
Probable space group: I B A M
;
_chemical_formula_sum "Si O2"
_cell_formula_units_Z 80
_cell_length_a 24.214980
_cell_length_b 9.308749
_cell_length_c 17.894254
_cell_angle_alpha 90.000000
_cell_angle_beta 90.000000
_cell_angle_gamma 90.000000
_cell_volume 4033.564746
_symmetry_space_group_name_H-M "I B A M"
_symmetry_group_IT_number 72
_symmetry_cell_setting 'orthorhombic'
loop_
_space_group_symop_operation_xyz
x,y,z
-x,-y,z
x,-y,1/2-z
-x,y,1/2-z
-x,-y,-z
x,y,-z
-x,y,1/2+z
x,-y,1/2+z
1/2+x,1/2+y,1/2+z
1/2-x,1/2-y,1/2+z
1/2+x,1/2-y,-z
1/2-x,1/2+y,-z
1/2-x,1/2-y,1/2-z
1/2+x,1/2+y,1/2-z
1/2-x,1/2+y,z
1/2+x,1/2-y,z
loop_
_atom_site_type_symbol
_atom_site_label
_atom_site_fract_x
_atom_site_fract_y
_atom_site_fract_z
Si Si1 0.056640 0.081046 0.583126
Si Si2 0.869506 0.813533 0.083893
Si Si3 0.942730 0.416760 0.649658
Si Si4 0.590426 0.198082 0.300034
Si Si5 0.195126 0.165898 0.768980
O O1 0.063429 0.146546 0.500000
O O2 0.054758 0.208408 0.642458
O O3 0.105380 0.969676 0.599812
O O4 0.000000 0.000000 0.590966
O O5 0.917846 0.691250 0.087988
O O6 0.820968 0.797803 0.144891
O O7 0.844736 0.804919 0.000000
O O8 0.947330 0.324528 0.726264
O O9 0.897449 0.542986 0.662533
O O10 0.000000 0.500000 0.628769
O O11 0.647448 0.276586 0.284722
O O12 0.250000 0.250000 0.750000
O O13 0.204559 0.000000 0.750000
#
# Coordination Sequence:
#
# PCOD8294099 Si02
#       5
#    16  16  16  16  16
#     4  10  20  35  58  89 126 164 199 245 308 373
#     4  10  22  41  62  92 130 160 202 256 310 370
#     4  10  21  35  57  91 128 169 205 243 291 366
#     4  10  20  37  56  85 122 158 211 259 295 363
#     4  11  24  42  66  88 115 158 208 267 319 366
#
# _framework density 19.833573000000001
#
# number of rings (size 3 to 8) (size 9 to 14) (size 15 to 20)
#    0.000    1.800    2.000    2.400    5.600    2.800 
#    0.000    4.000    0.000    1.800    0.000    0.000 
#    0.000    0.000    0.000    0.000    0.000    0.000 
#
# Total GULP energy -495741.255245 kJ/mol
# GULP energy per Si atom -12393.531381 kJ/mol
# Density = 1.978843 g / cm^3
# Si number density = 19.833573 Si / 1000 Ang^3
#
#
#
# Elastic Constant Matrix: (Units=GPa)
#
#
# Indices 1 2 3 4 5 6 
#
# 1 89.3475 30.3337 36.9005 0.0000 0.0000 0.0000
# 2 30.3337 111.6852 52.4428 0.0000 0.0000 0.0000
# 3 36.9005 52.4428 114.4253 0.0000 0.0000 0.0000
# 4 0.0000 0.0000 0.0000 20.8035 0.0000 0.0000
# 5 0.0000 0.0000 0.0000 0.0000 23.6331 0.0000
# 6 0.0000 0.0000 0.0000 0.0000 0.0000 26.2099
#
#
#
# Elastic Compliance Matrix: (Units=1/GPa)
#
#
# Indices 1 2 3 4 5 6 
#
# 1 0.013264 -0.002031 -0.003347 0.000000 0.000000 0.000000
# 2 -0.002031 0.011720 -0.004716 0.000000 0.000000 0.000000
# 3 -0.003347 -0.004716 0.011980 0.000000 0.000000 0.000000
# 4 0.000000 0.000000 0.000000 0.048069 0.000000 0.000000
# 5 0.000000 0.000000 0.000000 0.000000 0.042313 0.000000
# 6 0.000000 0.000000 0.000000 0.000000 0.000000 0.038153
#
#
# Mechanical properties :
#
#
# Convention : Reuss Voigt Hill
#
# Bulk Modulus (GPa) = 59.60918 61.64577 60.62748
# Shear Modulus (GPa) = 26.13966 27.18137 26.66052
#
# Velocity S-wave (km/s) = 3.63430 3.70601 3.67033
# Velocity P-wave (km/s) = 6.90874 7.03290 6.97110
#
# Compressibility (1/GPa) = 0.01677594
#
# Stress axis : x y z
#
# Youngs Moduli (GPa) = 75.39238 85.32389 83.47128
#
# Poissons Ratio (x) = 0.17330 0.27934
# Poissons Ratio (y) = 0.15313 0.39369
# Poissons Ratio (z) = 0.25230 0.40243
#
# Static dielectric constant tensor:
#      x y z
#    x 3.440320 0.000000 0.000000 
#    y 0.000000 6.252310 0.000000 
#    z 0.000000 0.000000 3.701970 
# 
# 
# High freq. dielectric constant tensor:
#      x y z
#    x 1.744630 0.000000 0.000000 
#    y 0.000000 1.793580 0.000000 
#    z 0.000000 0.000000 1.769500 
# 
# From -- ./inp_files/33774.got.cif
#   From: 2010.03.12/outbox.cif.g09.slc.cpg/sg72_17_cif.got.tgz:33774.got - 2010.04.16 14:54:00.
