data_PCOD8294362
_publ_section_title
;
Structure prediction by ZEFSAII (Michael W. Deem and Ramdas Pophale) SiO2 
 PCOD8294362
Probable space group: I B A M
;
_chemical_formula_sum "Si O2"
_cell_formula_units_Z 116
_cell_length_a 11.912109
_cell_length_b 25.482924
_cell_length_c 18.996763
_cell_angle_alpha 90.000000
_cell_angle_beta 90.000000
_cell_angle_gamma 90.000000
_cell_volume 5766.569389
_symmetry_space_group_name_H-M "I B A M"
_symmetry_group_IT_number 72
_symmetry_cell_setting 'orthorhombic'
loop_
_space_group_symop_operation_xyz
x,y,z
-x,-y,z
x,-y,1/2-z
-x,y,1/2-z
-x,-y,-z
x,y,-z
-x,y,1/2+z
x,-y,1/2+z
1/2+x,1/2+y,1/2+z
1/2-x,1/2-y,1/2+z
1/2+x,1/2-y,-z
1/2-x,1/2+y,-z
1/2-x,1/2-y,1/2-z
1/2+x,1/2+y,1/2-z
1/2-x,1/2+y,z
1/2+x,1/2-y,z
loop_
_atom_site_type_symbol
_atom_site_label
_atom_site_fract_x
_atom_site_fract_y
_atom_site_fract_z
Si Si1 0.479026 0.338051 0.333197
Si Si2 0.308576 0.319033 0.920875
Si Si3 0.778055 0.203294 0.581231
Si Si4 0.500000 0.000000 0.750000
Si Si5 0.360516 0.089881 0.416865
Si Si6 0.602317 0.880793 0.919756
Si Si7 0.313242 0.977414 0.649158
Si Si8 0.936428 0.953486 0.176175
O O1 0.500000 0.332955 0.250000
O O2 0.589141 0.315864 0.368538
O O3 0.376995 0.303900 0.362572
O O4 0.452470 0.397238 0.359929
O O5 0.243826 0.264682 0.916491
O O6 0.229200 0.366316 0.896506
O O7 0.351947 0.329031 0.000000
O O8 0.808569 0.186709 0.500000
O O9 0.671635 0.169195 0.609951
O O10 0.585002 0.035255 0.703312
O O11 0.367724 0.079177 0.500000
O O12 0.479184 0.110689 0.385688
O O13 0.324852 0.035985 0.379853
O O14 0.675175 0.934076 0.911990
O O15 0.579993 0.868204 0.000000
O O16 0.193761 0.968627 0.686654
O O17 0.000000 0.950078 0.250000
O O18 0.000000 0.000000 0.132003
#
# Coordination Sequence:
#
# PCOD8294362 Si02
#       8
#    16  16  16   4  16  16  16  16
#     4  11  23  41  64  91 127 165 205 254 309 366
#     4  10  23  41  66  93 123 163 210 259 303 363
#     4  10  22  41  67  92 120 162 212 259 304 366
#     4  12  24  32  56  88 124 164 200 252 304 366
#     4  10  21  39  62  91 122 155 198 255 312 358
#     4  10  20  38  62  88 118 156 200 253 310 360
#     4  12  21  38  58  88 123 156 203 249 303 370
#     4  10  21  38  58  82 119 170 203 241 294 366
#
# _framework density 20.115946999999998
#
# number of rings (size 3 to 8) (size 9 to 14) (size 15 to 20)
#    0.000    1.517    2.759    2.483    1.931    2.759 
#    0.000    0.000    3.034    3.310    0.000    0.000 
#    0.000    0.000    0.000    0.000    0.000    0.000 
#
# Total GULP energy -718820.891828 kJ/mol
# GULP energy per Si atom -12393.463652 kJ/mol
# Density = 2.007016 g / cm^3
# Si number density = 20.115947 Si / 1000 Ang^3
#
#
#
# Elastic Constant Matrix: (Units=GPa)
#
#
# Indices 1 2 3 4 5 6 
#
# 1 126.2613 22.2776 37.4970 0.0000 0.0000 0.0000
# 2 22.2776 103.1440 25.7177 0.0000 0.0000 0.0000
# 3 37.4970 25.7177 58.6614 0.0000 0.0000 0.0000
# 4 0.0000 0.0000 0.0000 25.4537 0.0000 0.0000
# 5 0.0000 0.0000 0.0000 0.0000 27.9557 0.0000
# 6 0.0000 0.0000 0.0000 0.0000 0.0000 22.3203
#
#
#
# Elastic Compliance Matrix: (Units=1/GPa)
#
#
# Indices 1 2 3 4 5 6 
#
# 1 0.009811 -0.000624 -0.005998 0.000000 0.000000 0.000000
# 2 -0.000624 0.010925 -0.004391 0.000000 0.000000 0.000000
# 3 -0.005998 -0.004391 0.022806 0.000000 0.000000 0.000000
# 4 0.000000 0.000000 0.000000 0.039287 0.000000 0.000000
# 5 0.000000 0.000000 0.000000 0.000000 0.035771 0.000000
# 6 0.000000 0.000000 0.000000 0.000000 0.000000 0.044802
#
#
# Mechanical properties :
#
#
# Convention : Reuss Voigt Hill
#
# Bulk Modulus (GPa) = 46.47507 51.00572 48.74040
# Shear Modulus (GPa) = 25.96054 28.65090 27.30572
#
# Velocity S-wave (km/s) = 3.59631 3.77807 3.68831
# Velocity P-wave (km/s) = 6.35597 6.66653 6.51310
#
# Compressibility (1/GPa) = 0.02151691
#
# Stress axis : x y z
#
# Youngs Moduli (GPa) = 101.92172 91.53589 43.84789
#
# Poissons Ratio (x) = 0.05708 0.26301
# Poissons Ratio (y) = 0.06355 0.19253
# Poissons Ratio (z) = 0.61135 0.40192
#
# Static dielectric constant tensor:
#      x y z
#    x 3.932730 0.000000 0.000000 
#    y 0.000000 4.164530 0.000000 
#    z 0.000000 0.000000 3.617430 
# 
# 
# High freq. dielectric constant tensor:
#      x y z
#    x 1.799810 0.000000 0.000000 
#    y 0.000000 1.794010 0.000000 
#    z 0.000000 0.000000 1.759180 
# 
# From -- ./inp_files/29696.got.cif
#   From: 2010.03.12/outbox.cif.g09.slc.cpg/sg72_15_cif.got.tgz:29696.got - 2010.04.16 14:54:00.
