data_PCOD8294501
_publ_section_title
;
Structure prediction by ZEFSAII (Michael W. Deem and Ramdas Pophale) SiO2 
 PCOD8294501
Probable space group: I B A M
;
_chemical_formula_sum "Si O2"
_cell_formula_units_Z 96
_cell_length_a 12.149685
_cell_length_b 23.419976
_cell_length_c 14.770996
_cell_angle_alpha 90.000000
_cell_angle_beta 90.000000
_cell_angle_gamma 90.000000
_cell_volume 4203.017948
_symmetry_space_group_name_H-M "I B A M"
_symmetry_group_IT_number 72
_symmetry_cell_setting 'orthorhombic'
loop_
_space_group_symop_operation_xyz
x,y,z
-x,-y,z
x,-y,1/2-z
-x,y,1/2-z
-x,-y,-z
x,y,-z
-x,y,1/2+z
x,-y,1/2+z
1/2+x,1/2+y,1/2+z
1/2-x,1/2-y,1/2+z
1/2+x,1/2-y,-z
1/2-x,1/2+y,-z
1/2-x,1/2-y,1/2-z
1/2+x,1/2+y,1/2-z
1/2-x,1/2+y,z
1/2+x,1/2-y,z
loop_
_atom_site_type_symbol
_atom_site_label
_atom_site_fract_x
_atom_site_fract_y
_atom_site_fract_z
Si Si1 0.805675 0.086718 0.608509
Si Si2 0.390110 0.839339 0.602636
Si Si3 0.217267 0.960509 0.104576
Si Si4 0.697457 0.277033 0.660855
Si Si5 0.461191 0.630500 0.605630
Si Si6 0.627015 0.135644 0.104383
O O1 0.809298 0.085389 0.500000
O O2 0.704136 0.122600 0.650207
O O3 0.915882 0.118762 0.642043
O O4 0.792779 0.023045 0.650186
O O5 0.398866 0.859820 0.500000
O O6 0.354917 0.773743 0.603063
O O7 0.508468 0.851083 0.650776
O O8 0.100598 0.929695 0.115297
O O9 0.313233 0.920131 0.148386
O O10 0.246642 0.969671 0.000000
O O11 0.750000 0.250000 0.750000
O O12 0.596868 0.322310 0.670177
O O13 0.797284 0.308215 0.610215
O O14 0.458065 0.650752 0.500000
O O15 0.608299 0.122746 0.000000
#
# Coordination Sequence:
#
# PCOD8294501 Si02
#       6
#    16  16  16  16  16  16
#     4   9  17  29  52  86 115 140 180 231 282 339
#     4  10  21  35  53  80 112 149 187 228 279 341
#     4   8  14  28  52  83 114 141 175 226 284 337
#     4  11  23  37  54  76 108 149 196 243 282 328
#     4   9  17  32  55  82 111 149 188 231 288 342
#     4   9  19  36  57  80 112 151 187 226 284 348
#
# _framework density 22.840731000000002
#
# number of rings (size 3 to 8) (size 9 to 14) (size 15 to 20)
#    0.000    2.667    0.000    3.000    2.333    3.333 
#    0.000    3.333    0.000    4.000    0.000    9.333 
#    0.000    0.000    0.000    0.000    0.000    5.333 
#
# Total GULP energy -594758.391479 kJ/mol
# GULP energy per Si atom -12390.799822 kJ/mol
# Density = 2.278874 g / cm^3
# Si number density = 22.840731 Si / 1000 Ang^3
#
#
#
# Elastic Constant Matrix: (Units=GPa)
#
#
# Indices 1 2 3 4 5 6 
#
# 1 233.5174 100.1271 10.8430 -0.0001 0.0000 0.0000
# 2 100.1271 161.5992 11.6272 -0.0003 0.0001 0.0000
# 3 10.8430 11.6272 15.5041 0.0000 0.0001 0.0000
# 4 -0.0001 -0.0003 0.0000 11.0642 0.0001 0.0000
# 5 0.0000 0.0001 0.0001 0.0001 6.8370 0.0000
# 6 0.0000 0.0000 0.0000 0.0000 0.0000 30.4226
#
#
#
# Elastic Compliance Matrix: (Units=1/GPa)
#
#
# Indices 1 2 3 4 5 6 
#
# 1 0.005862 -0.003528 -0.001454 0.000000 0.000000 0.000000
# 2 -0.003528 0.008664 -0.004030 0.000000 0.000000 0.000000
# 3 -0.001454 -0.004030 0.068539 0.000000 -0.000001 0.000000
# 4 0.000000 0.000000 0.000000 0.090381 -0.000002 0.000000
# 5 0.000000 0.000000 -0.000001 -0.000002 0.146263 0.000000
# 6 0.000000 0.000000 0.000000 0.000000 0.000000 0.032870
#
#
# Mechanical properties :
#
#
# Convention : Reuss Voigt Hill
#
# Bulk Modulus (GPa) = 15.37507 72.86837 44.12172
# Shear Modulus (GPa) = 12.74583 28.86632 20.80607
#
# Velocity S-wave (km/s) = 2.36483 3.55887 3.02142
# Velocity P-wave (km/s) = 3.76863 6.98995 5.61525
#
# Compressibility (1/GPa) = 0.06504037
#
# Stress axis : x y z
#
# Youngs Moduli (GPa) = 170.57573 115.42091 14.59027
#
# Poissons Ratio (x) = 0.40718 0.02122
# Poissons Ratio (y) = 0.60175 0.05880
# Poissons Ratio (z) = 0.24809 0.46518
#
# Static dielectric constant tensor:
#      x y z
#    x 4.593850 0.000000 0.000000 
#    y 0.000000 4.357590 0.000000 
#    z 0.000000 0.000000 3.509600 
# 
# 
# High freq. dielectric constant tensor:
#      x y z
#    x 1.911830 0.000000 0.000000 
#    y 0.000000 1.905410 0.000000 
#    z 0.000000 0.000000 1.858640 
# 
# From -- ./inp_files/29444.got.cif
#   From: 2010.03.12/outbox.cif.g09.slc.cpg/sg72_15_cif.got.tgz:29444.got - 2010.04.16 14:54:00.
