data_PCOD8294986
_publ_section_title
;
Structure prediction by ZEFSAII (Michael W. Deem and Ramdas Pophale) SiO2 
 PCOD8294986
Probable space group: I B A M
;
_chemical_formula_sum "Si O2"
_cell_formula_units_Z 116
_cell_length_a 16.693757
_cell_length_b 17.636842
_cell_length_c 21.141980
_cell_angle_alpha 90.000000
_cell_angle_beta 90.000000
_cell_angle_gamma 90.000000
_cell_volume 6224.730730
_symmetry_space_group_name_H-M "I B A M"
_symmetry_group_IT_number 72
_symmetry_cell_setting 'orthorhombic'
loop_
_space_group_symop_operation_xyz
x,y,z
-x,-y,z
x,-y,1/2-z
-x,y,1/2-z
-x,-y,-z
x,y,-z
-x,y,1/2+z
x,-y,1/2+z
1/2+x,1/2+y,1/2+z
1/2-x,1/2-y,1/2+z
1/2+x,1/2-y,-z
1/2-x,1/2+y,-z
1/2-x,1/2-y,1/2-z
1/2+x,1/2+y,1/2-z
1/2-x,1/2+y,z
1/2+x,1/2-y,z
loop_
_atom_site_type_symbol
_atom_site_label
_atom_site_fract_x
_atom_site_fract_y
_atom_site_fract_z
Si Si1 0.996492 0.783985 0.680557
Si Si2 0.654327 0.356894 0.858062
Si Si3 0.406726 0.502666 0.071084
Si Si4 0.253613 0.838548 0.760047
Si Si5 0.307087 0.187101 0.928206
Si Si6 0.092942 0.630405 0.813157
Si Si7 0.344324 0.348889 0.117388
Si Si8 0.000000 0.500000 0.250000
O O1 0.080843 0.797288 0.645334
O O2 0.000000 0.818875 0.750000
O O3 0.975251 0.694881 0.684898
O O4 0.928987 0.833450 0.648660
O O5 0.630058 0.439406 0.880112
O O6 0.693097 0.374936 0.790163
O O7 0.715155 0.320498 0.908049
O O8 0.500000 0.500000 0.087675
O O9 0.357495 0.424059 0.076448
O O10 0.395188 0.532568 0.000000
O O11 0.250000 0.750000 0.750000
O O12 0.345306 0.860519 0.745493
O O13 0.226394 0.860955 0.830726
O O14 0.361072 0.135686 0.880707
O O15 0.325801 0.276555 0.926189
O O16 0.320701 0.158244 0.000000
O O17 0.051703 0.550114 0.799260
#
# Coordination Sequence:
#
# PCOD8294986 Si02
#       8
#    16  16  16  16  16  16  16   4
#     4  11  18  34  59  89 118 152 195 251 307 367
#     4  11  21  36  61  85 119 159 202 250 309 366
#     4  11  24  39  53  83 126 163 199 248 308 367
#     4  11  19  38  59  90 118 148 200 256 310 358
#     4  10  22  41  62  86 118 168 218 252 299 370
#     4  10  23  37  63  89 126 161 198 258 311 379
#     4  11  21  36  62  87 122 160 199 257 312 371
#     4  12  24  40  62  96 128 164 204 258 336 360
#
# _framework density 18.635345000000001
#
# number of rings (size 3 to 8) (size 9 to 14) (size 15 to 20)
#    0.000    1.241    7.586    0.828    0.000    2.759 
#    0.000    2.414    0.000    0.000    0.000    0.000 
#    0.000    0.000    0.000    0.000    0.000    0.000 
#
# Total GULP energy -718956.499616 kJ/mol
# GULP energy per Si atom -12395.801718 kJ/mol
# Density = 1.859293 g / cm^3
# Si number density = 18.635345 Si / 1000 Ang^3
#
#
#
# Elastic Constant Matrix: (Units=GPa)
#
#
# Indices 1 2 3 4 5 6 
#
# 1 103.0279 51.8647 39.6067 0.0000 0.0000 0.0000
# 2 51.8647 97.7364 27.9719 0.0000 0.0000 0.0000
# 3 39.6067 27.9719 91.7900 0.0000 0.0000 0.0000
# 4 0.0000 0.0000 0.0000 45.4354 0.0000 0.0000
# 5 0.0000 0.0000 0.0000 0.0000 22.3139 0.0000
# 6 0.0000 0.0000 0.0000 0.0000 0.0000 46.7348
#
#
#
# Elastic Compliance Matrix: (Units=1/GPa)
#
#
# Indices 1 2 3 4 5 6 
#
# 1 0.014666 -0.006542 -0.004335 0.000000 0.000000 0.000000
# 2 -0.006542 0.014127 -0.001482 0.000000 0.000000 0.000000
# 3 -0.004335 -0.001482 0.013216 0.000000 0.000000 0.000000
# 4 0.000000 0.000000 0.000000 0.022009 0.000000 0.000000
# 5 0.000000 0.000000 0.000000 0.000000 0.044815 0.000000
# 6 0.000000 0.000000 0.000000 0.000000 0.000000 0.021397
#
#
# Mechanical properties :
#
#
# Convention : Reuss Voigt Hill
#
# Bulk Modulus (GPa) = 57.83067 59.04899 58.43983
# Shear Modulus (GPa) = 31.11137 34.43754 32.77446
#
# Velocity S-wave (km/s) = 4.09036 4.30346 4.19827
# Velocity P-wave (km/s) = 7.30809 7.51322 7.41136
#
# Compressibility (1/GPa) = 0.01729186
#
# Stress axis : x y z
#
# Youngs Moduli (GPa) = 68.18643 70.78446 75.66312
#
# Poissons Ratio (x) = 0.46307 0.32797
# Poissons Ratio (y) = 0.44607 0.11216
# Poissons Ratio (z) = 0.29556 0.10493
#
# Static dielectric constant tensor:
#      x y z
#    x 3.394620 0.000000 0.000000 
#    y 0.000000 3.192410 0.000000 
#    z 0.000000 0.000000 3.319390 
# 
# 
# High freq. dielectric constant tensor:
#      x y z
#    x 1.734650 0.000000 0.000000 
#    y 0.000000 1.709720 0.000000 
#    z 0.000000 0.000000 1.717000 
# 
# From -- ./inp_files/44503.got.cif
#   From: 2010.03.12/outbox.cif.g09.slc.cpg/sg72_23_cif.got.tgz:44503.got - 2010.04.16 14:54:00.
