data_PCOD8294832
_publ_section_title
;
Structure prediction by ZEFSAII (Michael W. Deem and Ramdas Pophale) SiO2 
 PCOD8294832
Probable space group: I B A M
;
_chemical_formula_sum "Si O2"
_cell_formula_units_Z 96
_cell_length_a 13.134200
_cell_length_b 14.200056
_cell_length_c 23.247342
_cell_angle_alpha 90.000000
_cell_angle_beta 90.000000
_cell_angle_gamma 90.000000
_cell_volume 4335.777497
_symmetry_space_group_name_H-M "I B A M"
_symmetry_group_IT_number 72
_symmetry_cell_setting 'orthorhombic'
loop_
_space_group_symop_operation_xyz
x,y,z
-x,-y,z
x,-y,1/2-z
-x,y,1/2-z
-x,-y,-z
x,y,-z
-x,y,1/2+z
x,-y,1/2+z
1/2+x,1/2+y,1/2+z
1/2-x,1/2-y,1/2+z
1/2+x,1/2-y,-z
1/2-x,1/2+y,-z
1/2-x,1/2-y,1/2-z
1/2+x,1/2+y,1/2-z
1/2-x,1/2+y,z
1/2+x,1/2-y,z
loop_
_atom_site_type_symbol
_atom_site_label
_atom_site_fract_x
_atom_site_fract_y
_atom_site_fract_z
Si Si1 0.240811 0.628618 0.200338
Si Si2 0.597032 0.442103 0.878430
Si Si3 0.014092 0.224432 0.564709
Si Si4 0.292547 0.598991 0.436353
Si Si5 0.978096 0.606576 0.644795
Si Si6 0.688191 0.162369 0.176940
O O1 0.322113 0.557532 0.173296
O O2 0.276456 0.730825 0.179716
O O3 0.243436 0.611863 0.269075
O O4 0.127618 0.609720 0.178311
O O5 0.500000 0.500000 0.855624
O O6 0.566337 0.337371 0.898676
O O7 0.649318 0.498974 0.930910
O O8 0.972783 0.227790 0.500000
O O9 0.023492 0.330126 0.587670
O O10 0.125924 0.181736 0.568442
O O11 0.240473 0.601355 0.500000
O O12 0.212816 0.614642 0.384782
O O13 0.066960 0.649048 0.685752
O O14 0.000000 0.500000 0.625949
#
# Coordination Sequence:
#
# PCOD8294832 Si02
#       6
#    16  16  16  16  16  16
#     4  11  24  45  71 101 139 179 234 281 342 417
#     4  10  21  42  72 104 133 173 226 284 350 404
#     4  10  21  41  66  97 140 182 227 285 345 404
#     4  10  21  41  69 100 133 174 227 282 347 412
#     4  12  25  43  66  98 139 185 229 274 351 413
#     4  11  24  44  71  97 136 185 228 280 344 410
#
# _framework density 22.141356999999999
#
# number of rings (size 3 to 8) (size 9 to 14) (size 15 to 20)
#    0.000    1.333    3.333    2.000    0.000    6.333 
#    0.000    9.167    0.000    0.000    0.000    0.000 
#    0.000    0.000    0.000    0.000    0.000    0.000 
#
# Total GULP energy -595083.192691 kJ/mol
# GULP energy per Si atom -12397.566514 kJ/mol
# Density = 2.209096 g / cm^3
# Si number density = 22.141357 Si / 1000 Ang^3
#
#
#
# Elastic Constant Matrix: (Units=GPa)
#
#
# Indices 1 2 3 4 5 6 
#
# 1 129.2799 34.3007 74.3443 0.0000 0.0000 0.0000
# 2 34.3007 113.2330 53.0954 0.0000 0.0000 0.0000
# 3 74.3443 53.0954 166.8824 0.0000 0.0000 0.0000
# 4 0.0000 0.0000 0.0000 19.8706 0.0000 0.0000
# 5 0.0000 0.0000 0.0000 0.0000 28.4305 0.0000
# 6 0.0000 0.0000 0.0000 0.0000 0.0000 29.8079
#
#
#
# Elastic Compliance Matrix: (Units=1/GPa)
#
#
# Indices 1 2 3 4 5 6 
#
# 1 0.010528 -0.001164 -0.004320 0.000000 0.000000 0.000000
# 2 -0.001164 0.010508 -0.002825 0.000000 0.000000 0.000000
# 3 -0.004320 -0.002825 0.008816 0.000000 0.000000 0.000000
# 4 0.000000 0.000000 0.000000 0.050326 0.000000 0.000000
# 5 0.000000 0.000000 0.000000 0.000000 0.035174 0.000000
# 6 0.000000 0.000000 0.000000 0.000000 0.000000 0.033548
#
#
# Mechanical properties :
#
#
# Convention : Reuss Voigt Hill
#
# Bulk Modulus (GPa) = 75.55688 81.43067 78.49378
# Shear Modulus (GPa) = 29.42417 32.13211 30.77814
#
# Velocity S-wave (km/s) = 3.64940 3.81363 3.73242
# Velocity P-wave (km/s) = 7.20807 7.49994 7.35546
#
# Compressibility (1/GPa) = 0.01323506
#
# Stress axis : x y z
#
# Youngs Moduli (GPa) = 94.98357 95.16121 113.43580
#
# Poissons Ratio (x) = 0.11072 0.49004
# Poissons Ratio (y) = 0.11052 0.32046
# Poissons Ratio (z) = 0.41033 0.26883
#
# Static dielectric constant tensor:
#      x y z
#    x 4.076680 0.000000 0.000000 
#    y 0.000000 4.027060 0.000000 
#    z 0.000000 0.000000 3.983530 
# 
# 
# High freq. dielectric constant tensor:
#      x y z
#    x 1.874320 0.000000 0.000000 
#    y 0.000000 1.880260 0.000000 
#    z 0.000000 0.000000 1.864100 
# 
# From -- ./inp_files/38061.got.cif
#   From: 2010.03.12/outbox.cif.g09.slc.cpg/sg72_20_cif.got.tgz:38061.got - 2010.04.16 14:54:00.
