data_PCOD8294173
_publ_section_title
;
Structure prediction by ZEFSAII (Michael W. Deem and Ramdas Pophale) SiO2 
 PCOD8294173
Probable space group: I B A M
;
_chemical_formula_sum "Si O2"
_cell_formula_units_Z 112
_cell_length_a 14.283779
_cell_length_b 28.915846
_cell_length_c 14.475269
_cell_angle_alpha 90.000000
_cell_angle_beta 90.000000
_cell_angle_gamma 90.000000
_cell_volume 5978.684947
_symmetry_space_group_name_H-M "I B A M"
_symmetry_group_IT_number 72
_symmetry_cell_setting 'orthorhombic'
loop_
_space_group_symop_operation_xyz
x,y,z
-x,-y,z
x,-y,1/2-z
-x,y,1/2-z
-x,-y,-z
x,y,-z
-x,y,1/2+z
x,-y,1/2+z
1/2+x,1/2+y,1/2+z
1/2-x,1/2-y,1/2+z
1/2+x,1/2-y,-z
1/2-x,1/2+y,-z
1/2-x,1/2-y,1/2-z
1/2+x,1/2+y,1/2-z
1/2-x,1/2+y,z
1/2+x,1/2-y,z
loop_
_atom_site_type_symbol
_atom_site_label
_atom_site_fract_x
_atom_site_fract_y
_atom_site_fract_z
Si Si1 0.552314 0.046055 0.894040
Si Si2 0.895000 0.115788 0.234940
Si Si3 0.569776 0.701709 0.892543
Si Si4 0.665136 0.207823 0.393476
Si Si5 0.864770 0.820275 0.104109
Si Si6 0.725939 0.947193 0.737862
Si Si7 0.623211 0.106246 0.392956
O O1 0.644726 0.058323 0.837674
O O2 0.483468 0.089553 0.882836
O O3 0.500000 0.000000 0.855678
O O4 0.581512 0.037600 0.000000
O O5 0.894045 0.156636 0.159948
O O6 0.857874 0.134782 0.332408
O O7 0.821277 0.077224 0.202242
O O8 0.000000 0.095487 0.250000
O O9 0.617012 0.747339 0.847345
O O10 0.458933 0.708482 0.876309
O O11 0.595548 0.695245 0.000000
O O12 0.635998 0.208836 0.500000
O O13 0.776543 0.213182 0.378354
O O14 0.629352 0.158673 0.353238
O O15 0.862911 0.839579 0.000000
O O16 0.691564 0.926792 0.835273
O O17 0.753546 0.000000 0.750000
O O18 0.656089 0.104014 0.500000
#
# Coordination Sequence:
#
# PCOD8294173 Si02
#       7
#    16  16  16  16  16  16  16
#     4  10  21  38  58  82 116 152 183 225 284 348
#     4  10  22  39  56  81 110 148 195 239 287 334
#     4   9  19  36  56  79 112 149 183 231 286 341
#     4   9  17  33  57  83 108 142 189 229 274 336
#     4   9  17  34  57  76 104 146 187 227 278 338
#     4  12  23  36  59  84 112 149 192 236 283 340
#     4  10  20  36  58  86 115 146 186 231 276 339
#
# _framework density 18.733217
#
# number of rings (size 3 to 8) (size 9 to 14) (size 15 to 20)
#    0.000    2.143    2.857    0.429    0.000    1.429 
#    2.571    2.857    0.000    0.000    0.000    6.000 
#    0.000    0.000    0.000    0.000    0.000    0.000 
#
# Total GULP energy -694271.590979 kJ/mol
# GULP energy per Si atom -12397.706982 kJ/mol
# Density = 1.869058 g / cm^3
# Si number density = 18.733217 Si / 1000 Ang^3
#
#
#
# Elastic Constant Matrix: (Units=GPa)
#
#
# Indices 1 2 3 4 5 6 
#
# 1 138.3555 88.6915 45.4387 0.0000 0.0001 0.0000
# 2 88.6915 138.9386 42.7176 -0.0001 0.0000 0.0000
# 3 45.4387 42.7176 64.1714 -0.0005 0.0000 0.0001
# 4 0.0000 -0.0001 -0.0005 18.1375 0.0001 0.0000
# 5 0.0001 0.0000 0.0000 0.0001 21.1280 0.0000
# 6 0.0000 0.0000 0.0001 0.0000 0.0000 38.2343
#
#
#
# Elastic Compliance Matrix: (Units=1/GPa)
#
#
# Indices 1 2 3 4 5 6 
#
# 1 0.013285 -0.007027 -0.004730 0.000000 0.000000 0.000000
# 2 -0.007027 0.012766 -0.003523 0.000000 0.000000 0.000000
# 3 -0.004730 -0.003523 0.021277 0.000001 0.000000 0.000000
# 4 0.000000 0.000000 0.000001 0.055134 0.000000 0.000000
# 5 0.000000 0.000000 0.000000 0.000000 0.047331 0.000000
# 6 0.000000 0.000000 0.000000 0.000000 0.000000 0.026155
#
#
# Mechanical properties :
#
#
# Convention : Reuss Voigt Hill
#
# Bulk Modulus (GPa) = 59.62768 77.24011 68.43389
# Shear Modulus (GPa) = 23.57423 26.47448 25.02435
#
# Velocity S-wave (km/s) = 3.55127 3.76338 3.65886
# Velocity P-wave (km/s) = 6.97957 7.75920 7.37969
#
# Compressibility (1/GPa) = 0.01677074
#
# Stress axis : x y z
#
# Youngs Moduli (GPa) = 75.27056 78.33386 46.99855
#
# Poissons Ratio (x) = 0.55042 0.22229
# Poissons Ratio (y) = 0.52889 0.16556
# Poissons Ratio (z) = 0.35601 0.27594
#
# Static dielectric constant tensor:
#      x y z
#    x 3.534500 0.000000 0.000000 
#    y 0.000000 3.472680 0.000000 
#    z 0.000000 0.000000 3.437930 
# 
# 
# High freq. dielectric constant tensor:
#      x y z
#    x 1.731430 0.000000 0.000000 
#    y 0.000000 1.712790 0.000000 
#    z 0.000000 0.000000 1.723020 
# 
# From -- ./inp_files/22131.got.cif
#   From: 2010.03.12/outbox.cif.g09.slc.cpg/sg72_12_cif.got.tgz:22131.got - 2010.04.16 14:54:00.
