data_PCOD8294293
_publ_section_title
;
Structure prediction by ZEFSAII (Michael W. Deem and Ramdas Pophale) SiO2 
 PCOD8294293
Probable space group: I B A M
;
_chemical_formula_sum "Si O2"
_cell_formula_units_Z 80
_cell_length_a 10.134956
_cell_length_b 14.757477
_cell_length_c 26.631544
_cell_angle_alpha 90.000000
_cell_angle_beta 90.000000
_cell_angle_gamma 90.000000
_cell_volume 3983.183632
_symmetry_space_group_name_H-M "I B A M"
_symmetry_group_IT_number 72
_symmetry_cell_setting 'orthorhombic'
loop_
_space_group_symop_operation_xyz
x,y,z
-x,-y,z
x,-y,1/2-z
-x,y,1/2-z
-x,-y,-z
x,y,-z
-x,y,1/2+z
x,-y,1/2+z
1/2+x,1/2+y,1/2+z
1/2-x,1/2-y,1/2+z
1/2+x,1/2-y,-z
1/2-x,1/2+y,-z
1/2-x,1/2-y,1/2-z
1/2+x,1/2+y,1/2-z
1/2-x,1/2+y,z
1/2+x,1/2-y,z
loop_
_atom_site_type_symbol
_atom_site_label
_atom_site_fract_x
_atom_site_fract_y
_atom_site_fract_z
Si Si1 0.156668 0.502649 0.558293
Si Si2 0.236842 0.854654 0.867914
Si Si3 0.230333 0.643487 0.868404
Si Si4 0.989484 0.351532 0.695350
Si Si5 0.491388 0.640767 0.193820
O O1 0.190728 0.505312 0.500000
O O2 0.220257 0.592635 0.582299
O O3 0.232111 0.414730 0.580646
O O4 0.000000 0.500000 0.567598
O O5 0.223731 0.749146 0.883136
O O6 0.344638 0.868820 0.824932
O O7 0.103649 0.897243 0.843982
O O8 0.100209 0.605964 0.840378
O O9 0.351489 0.621330 0.831652
O O10 0.023461 0.246000 0.699538
O O11 0.000000 0.397039 0.750000
O O12 0.500000 0.596950 0.250000
#
# Coordination Sequence:
#
# PCOD8294293 Si02
#       5
#    16  16  16  16  16
#     4  11  24  43  64  85 113 153 205 257 298 341
#     4  10  20  37  61  89 121 156 195 240 292 351
#     4  10  20  37  61  89 121 156 195 240 292 351
#     4   9  16  31  57  88 121 159 198 230 278 352
#     4   9  18  33  57  88 125 161 186 228 292 352
#
# _framework density 20.084437000000001
#
# number of rings (size 3 to 8) (size 9 to 14) (size 15 to 20)
#    0.000    2.200    2.000    1.200    0.000    6.400 
#    0.000    8.000    0.000    0.000    0.000    0.000 
#    0.000    0.000    0.000    0.000    0.000    0.000 
#
# Total GULP energy -495909.966314 kJ/mol
# GULP energy per Si atom -12397.749158 kJ/mol
# Density = 2.003872 g / cm^3
# Si number density = 20.084437 Si / 1000 Ang^3
#
#
#
# Elastic Constant Matrix: (Units=GPa)
#
#
# Indices 1 2 3 4 5 6 
#
# 1 83.0848 19.3015 33.0250 0.0000 0.0000 0.0000
# 2 19.3015 79.7563 53.1844 0.0000 0.0000 0.0000
# 3 33.0250 53.1844 152.1432 0.0000 0.0000 0.0000
# 4 0.0000 0.0000 0.0000 69.2379 0.0000 0.0000
# 5 0.0000 0.0000 0.0000 0.0000 32.6681 0.0000
# 6 0.0000 0.0000 0.0000 0.0000 0.0000 16.9832
#
#
#
# Elastic Compliance Matrix: (Units=1/GPa)
#
#
# Indices 1 2 3 4 5 6 
#
# 1 0.013345 -0.001692 -0.002305 0.000000 0.000000 0.000000
# 2 -0.001692 0.016564 -0.005423 0.000000 0.000000 0.000000
# 3 -0.002305 -0.005423 0.008969 0.000000 0.000000 0.000000
# 4 0.000000 0.000000 0.000000 0.014443 0.000000 0.000000
# 5 0.000000 0.000000 0.000000 0.000000 0.030611 0.000000
# 6 0.000000 0.000000 0.000000 0.000000 0.000000 0.058882
#
#
# Mechanical properties :
#
#
# Convention : Reuss Voigt Hill
#
# Bulk Modulus (GPa) = 49.90751 58.44513 54.17632
# Shear Modulus (GPa) = 29.70289 37.74272 33.72281
#
# Velocity S-wave (km/s) = 3.84982 4.33968 4.10207
# Velocity P-wave (km/s) = 6.68313 7.36704 7.03341
#
# Compressibility (1/GPa) = 0.02003706
#
# Stress axis : x y z
#
# Youngs Moduli (GPa) = 74.93247 60.37212 111.49790
#
# Poissons Ratio (x) = 0.10218 0.25702
# Poissons Ratio (y) = 0.12682 0.60464
# Poissons Ratio (z) = 0.17273 0.32739
#
# Static dielectric constant tensor:
#      x y z
#    x 3.685770 0.000000 0.000000 
#    y 0.000000 3.528910 0.000000 
#    z 0.000000 0.000000 3.568020 
# 
# 
# High freq. dielectric constant tensor:
#      x y z
#    x 1.792350 0.000000 0.000000 
#    y 0.000000 1.773660 0.000000 
#    z 0.000000 0.000000 1.772450 
# 
# From -- ./inp_files/43091.got.cif
#   From: 2010.03.12/outbox.cif.g09.slc.cpg/sg72_22_cif.got.tgz:43091.got - 2010.04.16 14:54:00.
