data_PCOD8294630
_publ_section_title
;
Structure prediction by ZEFSAII (Michael W. Deem and Ramdas Pophale) SiO2 
 PCOD8294630
Probable space group: I B A M
;
_chemical_formula_sum "Si O2"
_cell_formula_units_Z 88
_cell_length_a 19.854001
_cell_length_b 14.275067
_cell_length_c 15.036486
_cell_angle_alpha 90.000000
_cell_angle_beta 90.000000
_cell_angle_gamma 90.000000
_cell_volume 4261.598677
_symmetry_space_group_name_H-M "I B A M"
_symmetry_group_IT_number 72
_symmetry_cell_setting 'orthorhombic'
loop_
_space_group_symop_operation_xyz
x,y,z
-x,-y,z
x,-y,1/2-z
-x,y,1/2-z
-x,-y,-z
x,y,-z
-x,y,1/2+z
x,-y,1/2+z
1/2+x,1/2+y,1/2+z
1/2-x,1/2-y,1/2+z
1/2+x,1/2-y,-z
1/2-x,1/2+y,-z
1/2-x,1/2-y,1/2-z
1/2+x,1/2+y,1/2-z
1/2-x,1/2+y,z
1/2+x,1/2-y,z
loop_
_atom_site_type_symbol
_atom_site_label
_atom_site_fract_x
_atom_site_fract_y
_atom_site_fract_z
Si Si1 0.536799 0.085228 0.843135
Si Si2 0.883483 0.905325 0.898101
Si Si3 0.770234 0.144115 0.261026
Si Si4 0.503181 0.714150 0.100869
Si Si5 0.134225 0.118105 0.398259
Si Si6 0.658351 0.000000 0.750000
O O1 0.500000 0.102228 0.750000
O O2 0.525822 0.180528 0.896359
O O3 0.500000 0.000000 0.895279
O O4 0.613571 0.051362 0.826423
O O5 0.820380 0.871011 0.841936
O O6 0.948073 0.853471 0.854653
O O7 0.898343 0.015376 0.892761
O O8 0.870567 0.873735 0.000000
O O9 0.750000 0.250000 0.250000
O O10 0.801319 0.115182 0.165851
O O11 0.705455 0.082237 0.287785
O O12 0.578585 0.693957 0.139065
O O13 0.510401 0.681716 0.000000
O O14 0.157236 0.140855 0.500000
#
# Coordination Sequence:
#
# PCOD8294630 Si02
#       6
#    16  16  16  16  16   8
#     4   9  21  38  62  84 118 156 203 255 307 359
#     4  10  21  40  60  89 125 160 202 256 312 372
#     4  12  24  38  64  88 126 168 208 252 309 381
#     4  10  21  37  61  91 119 157 205 259 315 361
#     4  10  22  40  62  91 126 158 205 261 312 369
#     4  10  21  42  56  91 120 162 210 248 304 379
#
# _framework density 20.649528
#
# number of rings (size 3 to 8) (size 9 to 14) (size 15 to 20)
#    0.000    2.000    1.818    1.636    7.636    3.273 
#    0.000    3.636    0.000    1.091    0.000    0.000 
#    0.000    0.000    0.000    0.000    0.000    0.000 
#
# Total GULP energy -545204.306035 kJ/mol
# GULP energy per Si atom -12391.006955 kJ/mol
# Density = 2.060253 g / cm^3
# Si number density = 20.649528 Si / 1000 Ang^3
#
#
#
# Elastic Constant Matrix: (Units=GPa)
#
#
# Indices 1 2 3 4 5 6 
#
# 1 120.2902 37.5175 32.6238 0.0000 0.0000 0.0000
# 2 37.5175 125.3804 13.5603 0.0000 0.0000 0.0000
# 3 32.6238 13.5603 70.9653 0.0000 0.0000 0.0000
# 4 0.0000 0.0000 0.0000 29.9716 0.0000 0.0000
# 5 0.0000 0.0000 0.0000 0.0000 5.3226 0.0000
# 6 0.0000 0.0000 0.0000 0.0000 0.0000 41.9901
#
#
#
# Elastic Compliance Matrix: (Units=1/GPa)
#
#
# Indices 1 2 3 4 5 6 
#
# 1 0.010275 -0.002618 -0.004223 0.000000 0.000000 0.000000
# 2 -0.002618 0.008811 -0.000480 0.000000 0.000000 0.000000
# 3 -0.004223 -0.000480 0.016125 0.000000 0.000000 0.000000
# 4 0.000000 0.000000 0.000000 0.033365 0.000000 0.000000
# 5 0.000000 0.000000 0.000000 0.000000 0.187877 0.000000
# 6 0.000000 0.000000 0.000000 0.000000 0.000000 0.023815
#
#
# Mechanical properties :
#
#
# Convention : Reuss Voigt Hill
#
# Bulk Modulus (GPa) = 48.61923 53.78213 51.20068
# Shear Modulus (GPa) = 16.56907 30.98583 23.77745
#
# Velocity S-wave (km/s) = 2.83573 3.87791 3.39702
# Velocity P-wave (km/s) = 5.85815 6.79357 6.34313
#
# Compressibility (1/GPa) = 0.02056799
#
# Stress axis : x y z
#
# Youngs Moduli (GPa) = 97.32225 113.49451 62.01659
#
# Poissons Ratio (x) = 0.29711 0.26192
# Poissons Ratio (y) = 0.25478 0.02978
# Poissons Ratio (z) = 0.41103 0.05450
#
# Static dielectric constant tensor:
#      x y z
#    x 3.841280 0.000000 0.000000 
#    y 0.000000 3.828410 0.000000 
#    z 0.000000 0.000000 3.702240 
# 
# 
# High freq. dielectric constant tensor:
#      x y z
#    x 1.810720 0.000000 0.000000 
#    y 0.000000 1.822890 0.000000 
#    z 0.000000 0.000000 1.785730 
# 
# From -- ./inp_files/24053.got.cif
#   From: 2010.03.12/outbox.cif.g09.slc.cpg/sg72_13_cif.got.tgz:24053.got - 2010.04.16 14:54:00.
