data_PCOD8294029
_publ_section_title
;
Structure prediction by ZEFSAII (Michael W. Deem and Ramdas Pophale) SiO2 
 PCOD8294029
Probable space group: I B A M
;
_chemical_formula_sum "Si O2"
_cell_formula_units_Z 68
_cell_length_a 19.946469
_cell_length_b 20.544086
_cell_length_c 9.083559
_cell_angle_alpha 90.000000
_cell_angle_beta 90.000000
_cell_angle_gamma 90.000000
_cell_volume 3722.278743
_symmetry_space_group_name_H-M "I B A M"
_symmetry_group_IT_number 72
_symmetry_cell_setting 'orthorhombic'
loop_
_space_group_symop_operation_xyz
x,y,z
-x,-y,z
x,-y,1/2-z
-x,y,1/2-z
-x,-y,-z
x,y,-z
-x,y,1/2+z
x,-y,1/2+z
1/2+x,1/2+y,1/2+z
1/2-x,1/2-y,1/2+z
1/2+x,1/2-y,-z
1/2-x,1/2+y,-z
1/2-x,1/2-y,1/2-z
1/2+x,1/2+y,1/2-z
1/2-x,1/2+y,z
1/2+x,1/2-y,z
loop_
_atom_site_type_symbol
_atom_site_label
_atom_site_fract_x
_atom_site_fract_y
_atom_site_fract_z
Si Si1 0.561500 0.623635 0.837810
Si Si2 0.171833 0.682247 0.829897
Si Si3 0.569731 0.932168 0.824186
Si Si4 0.000000 0.000000 0.250000
Si Si5 0.825870 0.814008 0.829195
O O1 0.500000 0.658522 0.750000
O O2 0.546915 0.546223 0.850688
O O3 0.630452 0.631415 0.750456
O O4 0.567171 0.654438 0.000000
O O5 0.126491 0.620747 0.785866
O O6 0.151483 0.744081 0.733102
O O7 0.249346 0.666652 0.796280
O O8 0.161664 0.700766 0.000000
O O9 0.500000 0.909322 0.750000
O O10 0.592492 0.000000 0.750000
O O11 0.560767 0.940804 0.000000
O O12 0.842419 0.814326 0.000000
#
# Coordination Sequence:
#
# PCOD8294029 Si02
#       5
#    16  16  16   4  16
#     4  10  20  35  55  78 108 144 183 224 268 316
#     4   9  20  38  56  78 110 145 181 224 272 324
#     4  10  20  36  57  80 108 139 176 222 270 324
#     4   8  22  36  58  76 110 148 182 220 266 316
#     4  10  20  35  57  81 110 144 183 226 271 320
#
# _framework density 18.268378999999999
#
# number of rings (size 3 to 8) (size 9 to 14) (size 15 to 20)
#    0.706    1.647    0.000    3.176    0.000    3.765 
#    2.118    2.353    0.000    0.000    0.000    0.000 
#    0.000    0.000    0.000    0.000    0.000    0.000 
#
# Total GULP energy -421419.049186 kJ/mol
# GULP energy per Si atom -12394.677917 kJ/mol
# Density = 1.822680 g / cm^3
# Si number density = 18.268379 Si / 1000 Ang^3
#
#
#
# Elastic Constant Matrix: (Units=GPa)
#
#
# Indices 1 2 3 4 5 6 
#
# 1 114.0231 75.4300 61.8671 0.0000 0.0000 0.0000
# 2 75.4300 104.4617 52.1954 0.0000 0.0000 0.0000
# 3 61.8671 52.1954 114.2695 0.0000 0.0000 0.0000
# 4 0.0000 0.0000 0.0000 27.2123 0.0000 0.0000
# 5 0.0000 0.0000 0.0000 0.0000 28.5645 0.0000
# 6 0.0000 0.0000 0.0000 0.0000 0.0000 40.7103
#
#
#
# Elastic Compliance Matrix: (Units=1/GPa)
#
#
# Indices 1 2 3 4 5 6 
#
# 1 0.018894 -0.011055 -0.005180 0.000000 0.000000 0.000000
# 2 -0.011055 0.018872 -0.002635 0.000000 0.000000 0.000000
# 3 -0.005180 -0.002635 0.012759 0.000000 0.000000 0.000000
# 4 0.000000 0.000000 0.000000 0.036748 0.000000 0.000000
# 5 0.000000 0.000000 0.000000 0.000000 0.035009 0.000000
# 6 0.000000 0.000000 0.000000 0.000000 0.000000 0.024564
#
#
# Mechanical properties :
#
#
# Convention : Reuss Voigt Hill
#
# Bulk Modulus (GPa) = 78.21169 79.08214 78.64692
# Shear Modulus (GPa) = 26.47656 28.84819 27.66237
#
# Velocity S-wave (km/s) = 3.81111 3.97814 3.89552
# Velocity P-wave (km/s) = 7.89124 8.03018 7.96101
#
# Compressibility (1/GPa) = 0.01278581
#
# Stress axis : x y z
#
# Youngs Moduli (GPa) = 52.92787 52.98883 78.37431
#
# Poissons Ratio (x) = 0.58577 0.40596
# Poissons Ratio (y) = 0.58510 0.20652
# Poissons Ratio (z) = 0.27416 0.13963
#
# Static dielectric constant tensor:
#      x y z
#    x 3.385360 0.000000 0.000000 
#    y 0.000000 3.170550 0.000000 
#    z 0.000000 0.000000 3.416910 
# 
# 
# High freq. dielectric constant tensor:
#      x y z
#    x 1.708350 0.000000 0.000000 
#    y 0.000000 1.691280 0.000000 
#    z 0.000000 0.000000 1.720380 
# 
# From -- ./inp_files/5488.got.cif
#   From: 2010.03.12/outbox.cif.g09.slc.cpg/sg72_3_cif.got.tgz:5488.got - 2010.04.16 14:54:00.
