data_PCOD8294290
_publ_section_title
;
Structure prediction by ZEFSAII (Michael W. Deem and Ramdas Pophale) SiO2 
 PCOD8294290
Probable space group: I B A M
;
_chemical_formula_sum "Si O2"
_cell_formula_units_Z 116
_cell_length_a 25.033476
_cell_length_b 9.760603
_cell_length_c 23.685718
_cell_angle_alpha 90.000000
_cell_angle_beta 90.000000
_cell_angle_gamma 90.000000
_cell_volume 5787.411467
_symmetry_space_group_name_H-M "I B A M"
_symmetry_group_IT_number 72
_symmetry_cell_setting 'orthorhombic'
loop_
_space_group_symop_operation_xyz
x,y,z
-x,-y,z
x,-y,1/2-z
-x,y,1/2-z
-x,-y,-z
x,y,-z
-x,y,1/2+z
x,-y,1/2+z
1/2+x,1/2+y,1/2+z
1/2-x,1/2-y,1/2+z
1/2+x,1/2-y,-z
1/2-x,1/2+y,-z
1/2-x,1/2-y,1/2-z
1/2+x,1/2+y,1/2-z
1/2-x,1/2+y,z
1/2+x,1/2-y,z
loop_
_atom_site_type_symbol
_atom_site_label
_atom_site_fract_x
_atom_site_fract_y
_atom_site_fract_z
Si Si1 0.002353 0.662529 0.436077
Si Si2 0.765557 0.917999 0.628412
Si Si3 0.108549 0.225764 0.121273
Si Si4 0.876237 0.956320 0.687136
Si Si5 0.071369 0.319540 0.334904
Si Si6 0.344109 0.972400 0.184456
Si Si7 0.000000 0.500000 0.750000
Si Si8 0.216566 0.820232 0.563926
O O1 0.993978 0.718553 0.500000
O O2 0.057448 0.719160 0.411405
O O3 0.000000 0.500000 0.436123
O O4 0.955564 0.712176 0.395116
O O5 0.819396 0.909094 0.663542
O O6 0.717749 0.969763 0.668213
O O7 0.754240 0.768346 0.604389
O O8 0.771839 0.021463 0.576235
O O9 0.126317 0.329799 0.170573
O O10 0.154905 0.215865 0.074752
O O11 0.097999 0.078829 0.150233
O O12 0.916705 0.829757 0.689772
O O13 0.864738 0.000000 0.750000
O O14 0.125311 0.404776 0.347806
O O15 0.034943 0.403375 0.290648
O O16 0.349768 0.000000 0.250000
O O17 0.231051 0.787080 0.500000
#
# Coordination Sequence:
#
# PCOD8294290 Si02
#       8
#    16  16  16  16  16  16   4  16
#     4  11  23  43  67  91 121 161 215 268 314 382
#     4  10  22  39  60  91 128 163 215 255 311 387
#     4  10  22  41  59  92 125 163 210 256 326 387
#     4  11  25  41  62  94 134 170 209 262 327 396
#     4  12  24  42  67  97 125 165 218 261 325 376
#     4  11  20  37  65  90 124 164 206 256 310 371
#     4  12  24  44  68  92 132 160 214 282 316 378
#     4  10  20  37  61  87 122 166 210 264 314 369
#
# _framework density 20.043503000000001
#
# number of rings (size 3 to 8) (size 9 to 14) (size 15 to 20)
#    0.000    1.241    2.759    2.897    1.931    0.552 
#    0.000   12.414    0.000    0.000    0.000    0.000 
#    0.000    0.000    0.000    0.000    0.000    0.000 
#
# Total GULP energy -719288.041553 kJ/mol
# GULP energy per Si atom -12401.517958 kJ/mol
# Density = 1.999788 g / cm^3
# Si number density = 20.043503 Si / 1000 Ang^3
#
#
#
# Elastic Constant Matrix: (Units=GPa)
#
#
# Indices 1 2 3 4 5 6 
#
# 1 94.5700 43.3701 58.8133 0.0000 0.0000 0.0000
# 2 43.3701 110.5530 38.6863 0.0000 0.0000 0.0000
# 3 58.8133 38.6863 132.6571 0.0000 0.0000 0.0000
# 4 0.0000 0.0000 0.0000 -55.5527 0.0000 0.0000
# 5 0.0000 0.0000 0.0000 0.0000 8.0999 0.0000
# 6 0.0000 0.0000 0.0000 0.0000 0.0000 24.2679
#
#
#
# Elastic Compliance Matrix: (Units=1/GPa)
#
#
# Indices 1 2 3 4 5 6 
#
# 1 0.016242 -0.004290 -0.005950 0.000000 0.000000 0.000000
# 2 -0.004290 0.011206 -0.001366 0.000000 0.000000 0.000000
# 3 -0.005950 -0.001366 0.010574 0.000000 0.000000 0.000000
# 4 0.000000 0.000000 0.000000 -0.018001 0.000000 0.000000
# 5 0.000000 0.000000 0.000000 0.000000 0.123459 0.000000
# 6 0.000000 0.000000 0.000000 0.000000 0.000000 0.041207
#
#
# Mechanical properties :
#
#
# Convention : Reuss Voigt Hill
#
# Bulk Modulus (GPa) = 67.51639 68.83550 68.17595
# Shear Modulus (GPa) = 23.49241 8.49038 15.99139
#
# Velocity S-wave (km/s) = 3.42727 2.06038 2.82766
# Velocity P-wave (km/s) = 7.02991 6.33071 6.68945
#
# Compressibility (1/GPa) = 0.01481122
#
# Stress axis : x y z
#
# Youngs Moduli (GPa) = 61.57065 89.23507 94.56748
#
# Poissons Ratio (x) = 0.38278 0.56265
# Poissons Ratio (y) = 0.26411 0.12921
# Poissons Ratio (z) = 0.36633 0.12192
#
# Static dielectric constant tensor:
#      x y z
#    x 3.771030 0.000000 0.000000 
#    y 0.000000 3.701310 0.000000 
#    z 0.000000 0.000000 3.674370 
# 
# 
# High freq. dielectric constant tensor:
#      x y z
#    x 1.787020 0.000000 0.000000 
#    y 0.000000 1.789440 0.000000 
#    z 0.000000 0.000000 1.783670 
# 
# From -- ./inp_files/46008.got.cif
#   From: 2010.03.12/outbox.cif.g09.slc.cpg/sg72_24_cif.got.tgz:46008.got - 2010.04.16 14:54:00.
