data_PCOD8294883
_publ_section_title
;
Structure prediction by ZEFSAII (Michael W. Deem and Ramdas Pophale) SiO2 
 PCOD8294883
Probable space group: I B A M
;
_chemical_formula_sum "Si O2"
_cell_formula_units_Z 112
_cell_length_a 13.976972
_cell_length_b 24.321083
_cell_length_c 17.345326
_cell_angle_alpha 90.000000
_cell_angle_beta 90.000000
_cell_angle_gamma 90.000000
_cell_volume 5896.285061
_symmetry_space_group_name_H-M "I B A M"
_symmetry_group_IT_number 72
_symmetry_cell_setting 'orthorhombic'
loop_
_space_group_symop_operation_xyz
x,y,z
-x,-y,z
x,-y,1/2-z
-x,y,1/2-z
-x,-y,-z
x,y,-z
-x,y,1/2+z
x,-y,1/2+z
1/2+x,1/2+y,1/2+z
1/2-x,1/2-y,1/2+z
1/2+x,1/2-y,-z
1/2-x,1/2+y,-z
1/2-x,1/2-y,1/2-z
1/2+x,1/2+y,1/2-z
1/2-x,1/2+y,z
1/2+x,1/2-y,z
loop_
_atom_site_type_symbol
_atom_site_label
_atom_site_fract_x
_atom_site_fract_y
_atom_site_fract_z
Si Si1 0.390084 0.007915 0.589380
Si Si2 0.239986 0.223447 0.334198
Si Si3 0.813176 0.603949 0.354347
Si Si4 0.457155 0.284579 0.086575
Si Si5 0.014941 0.661002 0.915018
Si Si6 0.841356 0.823024 0.910154
Si Si7 0.146901 0.387358 0.821828
O O1 0.391759 0.022407 0.500000
O O2 0.332138 0.056556 0.632110
O O3 0.500000 0.000000 0.619319
O O4 0.327452 0.953777 0.603724
O O5 0.250000 0.250000 0.250000
O O6 0.128424 0.213736 0.352686
O O7 0.291340 0.264441 0.393039
O O8 0.283201 0.162671 0.342281
O O9 0.873472 0.650895 0.398517
O O10 0.704771 0.626580 0.361388
O O11 0.847414 0.598140 0.267222
O O12 0.506213 0.225026 0.086781
O O13 0.545614 0.323508 0.111753
O O14 0.420545 0.299009 0.000000
O O15 0.959372 0.630016 0.847248
O O16 0.987919 0.637077 0.000000
O O17 0.828021 0.834893 0.000000
#
# Coordination Sequence:
#
# PCOD8294883 Si02
#       7
#    16  16  16  16  16  16  16
#     4  11  24  40  61  88 121 165 211 259 318 381
#     4  12  23  39  59  92 127 164 200 256 316 370
#     4  12  23  39  58  86 123 166 207 254 316 379
#     4  10  22  37  58  88 123 164 208 253 306 375
#     4  11  20  33  56  85 121 163 205 253 306 378
#     4  11  22  38  61  87 120 166 209 249 310 382
#     4  12  24  37  58  91 124 161 207 257 319 377
#
# _framework density 18.995011000000002
#
# number of rings (size 3 to 8) (size 9 to 14) (size 15 to 20)
#    0.000    0.714    5.714    3.000    0.000    2.857 
#    0.000    0.000    0.000    0.857    0.000    5.000 
#    0.000    0.000    0.000    0.000    0.000    0.000 
#
# Total GULP energy -694317.389197 kJ/mol
# GULP energy per Si atom -12398.524807 kJ/mol
# Density = 1.895178 g / cm^3
# Si number density = 18.995011 Si / 1000 Ang^3
#
#
#
# Elastic Constant Matrix: (Units=GPa)
#
#
# Indices 1 2 3 4 5 6 
#
# 1 112.1565 44.0699 48.7508 0.0000 0.0000 0.0000
# 2 44.0699 101.0549 32.5413 -0.0006 0.0001 0.0000
# 3 48.7508 32.5413 110.6255 -0.0007 0.0001 0.0000
# 4 0.0000 -0.0006 -0.0007 29.5136 0.0001 0.0000
# 5 0.0000 0.0001 0.0001 0.0001 27.0777 0.0000
# 6 0.0000 0.0000 0.0000 0.0000 0.0000 30.6643
#
#
#
# Elastic Compliance Matrix: (Units=1/GPa)
#
#
# Indices 1 2 3 4 5 6 
#
# 1 0.012344 -0.004011 -0.004260 0.000000 0.000000 0.000000
# 2 -0.004011 0.012235 -0.001831 0.000000 0.000000 0.000000
# 3 -0.004260 -0.001831 0.011455 0.000000 0.000000 0.000000
# 4 0.000000 0.000000 0.000000 0.033883 0.000000 0.000000
# 5 0.000000 0.000000 0.000000 0.000000 0.036931 0.000000
# 6 0.000000 0.000000 0.000000 0.000000 0.000000 0.032611
#
#
# Mechanical properties :
#
#
# Convention : Reuss Voigt Hill
#
# Bulk Modulus (GPa) = 63.17428 63.84013 63.50720
# Shear Modulus (GPa) = 30.31409 30.68276 30.49842
#
# Velocity S-wave (km/s) = 3.99920 4.02345 4.01134
# Velocity P-wave (km/s) = 7.39293 7.43411 7.41355
#
# Compressibility (1/GPa) = 0.01582923
#
# Stress axis : x y z
#
# Youngs Moduli (GPa) = 81.01153 81.73502 87.29544
#
# Poissons Ratio (x) = 0.32788 0.37186
# Poissons Ratio (y) = 0.32497 0.15985
# Poissons Ratio (z) = 0.34509 0.14967
#
# Static dielectric constant tensor:
#      x y z
#    x 3.379830 0.000000 0.000000 
#    y 0.000000 3.447000 0.000000 
#    z 0.000000 0.000000 3.530250 
# 
# 
# High freq. dielectric constant tensor:
#      x y z
#    x 1.719750 0.000000 0.000000 
#    y 0.000000 1.727280 0.000000 
#    z 0.000000 0.000000 1.749170 
# 
# From -- ./inp_files/22134.got.cif
#   From: 2010.03.12/outbox.cif.g09.slc.cpg/sg72_12_cif.got.tgz:22134.got - 2010.04.16 14:54:00.
