data_PCOD8294440
_publ_section_title
;
Structure prediction by ZEFSAII (Michael W. Deem and Ramdas Pophale) SiO2 
 PCOD8294440
Probable space group: I B A M
;
_chemical_formula_sum "Si O2"
_cell_formula_units_Z 52
_cell_length_a 27.142934
_cell_length_b 10.261559
_cell_length_c 10.098784
_cell_angle_alpha 90.000000
_cell_angle_beta 90.000000
_cell_angle_gamma 90.000000
_cell_volume 2812.802378
_symmetry_space_group_name_H-M "I B A M"
_symmetry_group_IT_number 72
_symmetry_cell_setting 'orthorhombic'
loop_
_space_group_symop_operation_xyz
x,y,z
-x,-y,z
x,-y,1/2-z
-x,y,1/2-z
-x,-y,-z
x,y,-z
-x,y,1/2+z
x,-y,1/2+z
1/2+x,1/2+y,1/2+z
1/2-x,1/2-y,1/2+z
1/2+x,1/2-y,-z
1/2-x,1/2+y,-z
1/2-x,1/2-y,1/2-z
1/2+x,1/2+y,1/2-z
1/2-x,1/2+y,z
1/2+x,1/2-y,z
loop_
_atom_site_type_symbol
_atom_site_label
_atom_site_fract_x
_atom_site_fract_y
_atom_site_fract_z
Si Si1 0.785388 0.384559 0.500000
Si Si2 0.500000 0.500000 0.250000
Si Si3 0.142249 0.352696 0.763325
Si Si4 0.302304 0.815644 0.500000
Si Si5 0.540021 0.252675 0.149443
O O1 0.814809 0.341645 0.629384
O O2 0.735072 0.304587 0.500000
O O3 0.775857 0.541474 0.500000
O O4 0.533530 0.409185 0.155368
O O5 0.123787 0.500000 0.750000
O O6 0.162842 0.298057 0.626231
O O7 0.095464 0.270354 0.805738
O O8 0.500000 0.185747 0.250000
O O9 0.531102 0.201060 0.000000
#
# Coordination Sequence:
#
# PCOD8294440 Si02
#       5
#     8   4  16   8  16
#     4  10  20  42  57  84 117 151 194 247 297 340
#     4   8  22  36  60  80 126 144 190 242 282 340
#     4  10  21  38  60  82 117 154 192 241 292 349
#     4  10  22  38  61  86 117 151 200 243 293 348
#     4  10  21  39  59  84 118 153 189 238 291 340
#
# _framework density 18.486901
#
# number of rings (size 3 to 8) (size 9 to 14) (size 15 to 20)
#    0.923    1.231    1.538    1.385    2.154    0.615 
#    5.538    1.538    0.000    0.000    0.000    0.000 
#    0.000    0.000    0.000    0.000    0.000    0.000 
#
# Total GULP energy -322271.939441 kJ/mol
# GULP energy per Si atom -12395.074594 kJ/mol
# Density = 1.844482 g / cm^3
# Si number density = 18.486901 Si / 1000 Ang^3
#
#
#
# Elastic Constant Matrix: (Units=GPa)
#
#
# Indices 1 2 3 4 5 6 
#
# 1 98.8700 50.7247 56.8308 0.0000 0.0000 0.0000
# 2 50.7247 68.5188 29.4786 0.0000 0.0000 0.0000
# 3 56.8308 29.4786 168.1821 0.0000 0.0000 0.0000
# 4 0.0000 0.0000 0.0000 26.7583 0.0000 0.0000
# 5 0.0000 0.0000 0.0000 0.0000 10.3936 0.0000
# 6 0.0000 0.0000 0.0000 0.0000 0.0000 38.0918
#
#
#
# Elastic Compliance Matrix: (Units=1/GPa)
#
#
# Indices 1 2 3 4 5 6 
#
# 1 0.018714 -0.012041 -0.004213 0.000000 0.000000 0.000000
# 2 -0.012041 0.023533 -0.000056 0.000000 0.000000 0.000000
# 3 -0.004213 -0.000056 0.007379 0.000000 0.000000 0.000000
# 4 0.000000 0.000000 0.000000 0.037372 0.000000 0.000000
# 5 0.000000 0.000000 0.000000 0.000000 0.096213 0.000000
# 6 0.000000 0.000000 0.000000 0.000000 0.000000 0.026252
#
#
# Mechanical properties :
#
#
# Convention : Reuss Voigt Hill
#
# Bulk Modulus (GPa) = 58.80455 67.73770 63.27112
# Shear Modulus (GPa) = 20.18153 28.28454 24.23304
#
# Velocity S-wave (km/s) = 3.30762 3.91574 3.62446
# Velocity P-wave (km/s) = 6.81652 7.56072 7.19824
#
# Compressibility (1/GPa) = 0.01700549
#
# Stress axis : x y z
#
# Youngs Moduli (GPa) = 53.43704 42.49398 135.51317
#
# Poissons Ratio (x) = 0.51168 0.57092
# Poissons Ratio (y) = 0.64345 0.00758
# Poissons Ratio (z) = 0.22513 0.00238
#
# Static dielectric constant tensor:
#      x y z
#    x 3.154570 0.000000 0.000000 
#    y 0.000000 3.244020 0.000000 
#    z 0.000000 0.000000 3.517110 
# 
# 
# High freq. dielectric constant tensor:
#      x y z
#    x 1.710530 0.000000 0.000000 
#    y 0.000000 1.699670 0.000000 
#    z 0.000000 0.000000 1.737630 
# 
# From -- ./inp_files/2331.got.cif
#   From: 2010.03.12/outbox.cif.g09.slc.cpg/sg72_2_cif.got.tgz:2331.got - 2010.04.16 14:54:00.
