data_PCOD8294487
_publ_section_title
;
Structure prediction by ZEFSAII (Michael W. Deem and Ramdas Pophale) SiO2 
 PCOD8294487
Probable space group: I B A M
;
_chemical_formula_sum "Si O2"
_cell_formula_units_Z 96
_cell_length_a 18.349973
_cell_length_b 11.385401
_cell_length_c 23.834556
_cell_angle_alpha 90.000000
_cell_angle_beta 90.000000
_cell_angle_gamma 90.000000
_cell_volume 4979.558364
_symmetry_space_group_name_H-M "I B A M"
_symmetry_group_IT_number 72
_symmetry_cell_setting 'orthorhombic'
loop_
_space_group_symop_operation_xyz
x,y,z
-x,-y,z
x,-y,1/2-z
-x,y,1/2-z
-x,-y,-z
x,y,-z
-x,y,1/2+z
x,-y,1/2+z
1/2+x,1/2+y,1/2+z
1/2-x,1/2-y,1/2+z
1/2+x,1/2-y,-z
1/2-x,1/2+y,-z
1/2-x,1/2-y,1/2-z
1/2+x,1/2+y,1/2-z
1/2-x,1/2+y,z
1/2+x,1/2-y,z
loop_
_atom_site_type_symbol
_atom_site_label
_atom_site_fract_x
_atom_site_fract_y
_atom_site_fract_z
Si Si1 0.107645 0.203857 0.115857
Si Si2 0.023074 0.783407 0.191809
Si Si3 0.258029 0.221923 0.330566
Si Si4 0.047780 0.827675 0.500000
Si Si5 0.604676 0.590218 0.000000
Si Si6 0.347329 0.132650 0.770645
Si Si7 0.863730 0.069248 0.123424
O O1 0.187438 0.262411 0.117411
O O2 0.078927 0.235465 0.054542
O O3 0.050195 0.259117 0.160139
O O4 0.118808 0.066843 0.129292
O O5 0.071619 0.671064 0.210923
O O6 0.065427 0.868378 0.149462
O O7 0.000000 0.848522 0.250000
O O8 0.313262 0.212268 0.278299
O O9 0.206803 0.337976 0.323098
O O10 0.207710 0.107207 0.341291
O O11 0.960570 0.815453 0.500000
O O12 0.070646 0.962120 0.500000
O O13 0.649521 0.606837 0.941967
O O14 0.347268 0.000000 0.750000
#
# Coordination Sequence:
#
# PCOD8294487 Si02
#       7
#    16  16  16   8   8  16  16
#     4  11  20  36  55  83 110 140 189 229 276 327
#     4  11  21  35  52  85 107 140 189 224 268 334
#     4  10  21  36  53  82 111 147 187 215 276 340
#     4   9  18  31  56  78 108 141 174 239 280 318
#     4   9  16  33  52  82 107 140 187 218 288 328
#     4  10  21  38  54  75 116 149 176 222 274 328
#     4  10  21  34  57  78 114 148 176 235 277 325
#
# _framework density 19.278818999999999
#
# number of rings (size 3 to 8) (size 9 to 14) (size 15 to 20)
#    0.000    1.833    3.333    1.500    0.000    2.333 
#    0.000    0.000    0.000    0.000    0.000    3.500 
#    0.000    0.000    0.000    0.000    0.000    0.000 
#
# Total GULP energy -594768.510070 kJ/mol
# GULP energy per Si atom -12391.010626 kJ/mol
# Density = 1.923494 g / cm^3
# Si number density = 19.278819 Si / 1000 Ang^3
#
#
#
# Elastic Constant Matrix: (Units=GPa)
#
#
# Indices 1 2 3 4 5 6 
#
# 1 121.8298 29.9557 41.8182 0.0000 0.0000 0.0000
# 2 29.9557 63.6220 8.8148 0.0000 0.0000 0.0000
# 3 41.8182 8.8148 108.2002 0.0000 0.0000 0.0000
# 4 0.0000 0.0000 0.0000 17.0252 0.0000 0.0000
# 5 0.0000 0.0000 0.0000 0.0000 27.8276 0.0000
# 6 0.0000 0.0000 0.0000 0.0000 0.0000 21.2188
#
#
#
# Elastic Compliance Matrix: (Units=1/GPa)
#
#
# Indices 1 2 3 4 5 6 
#
# 1 0.010586 -0.004468 -0.003727 0.000000 0.000000 0.000000
# 2 -0.004468 0.017783 0.000278 0.000000 0.000000 0.000000
# 3 -0.003727 0.000278 0.010660 0.000000 0.000000 0.000000
# 4 0.000000 0.000000 0.000000 0.058736 0.000000 0.000000
# 5 0.000000 0.000000 0.000000 0.000000 0.035936 0.000000
# 6 0.000000 0.000000 0.000000 0.000000 0.000000 0.047128
#
#
# Mechanical properties :
#
#
# Convention : Reuss Voigt Hill
#
# Bulk Modulus (GPa) = 43.11342 50.53658 46.82500
# Shear Modulus (GPa) = 24.46240 27.41856 25.94048
#
# Velocity S-wave (km/s) = 3.56599 3.77531 3.67214
# Velocity P-wave (km/s) = 6.27429 6.72863 6.50543
#
# Compressibility (1/GPa) = 0.02319463
#
# Stress axis : x y z
#
# Youngs Moduli (GPa) = 94.46245 56.23349 93.80775
#
# Poissons Ratio (x) = 0.25125 0.34967
# Poissons Ratio (y) = 0.42205 -0.02609
# Poissons Ratio (z) = 0.35211 -0.01564
#
# Static dielectric constant tensor:
#      x y z
#    x 3.769150 0.000000 0.000000 
#    y 0.000000 2.978370 0.000000 
#    z 0.000000 0.000000 3.809590 
# 
# 
# High freq. dielectric constant tensor:
#      x y z
#    x 1.765520 0.000000 0.000000 
#    y 0.000000 1.699880 0.000000 
#    z 0.000000 0.000000 1.754620 
# 
# From -- ./inp_files/43410.got.cif
#   From: 2010.03.12/outbox.cif.g09.slc.cpg/sg72_22_cif.got.tgz:43410.got - 2010.04.16 14:54:00.
