data_PCOD8294722
_publ_section_title
;
Structure prediction by ZEFSAII (Michael W. Deem and Ramdas Pophale) SiO2 
 PCOD8294722
Probable space group: I B A M
;
_chemical_formula_sum "Si O2"
_cell_formula_units_Z 64
_cell_length_a 8.827886
_cell_length_b 26.975686
_cell_length_c 12.720302
_cell_angle_alpha 90.000000
_cell_angle_beta 90.000000
_cell_angle_gamma 90.000000
_cell_volume 3029.190849
_symmetry_space_group_name_H-M "I B A M"
_symmetry_group_IT_number 72
_symmetry_cell_setting 'orthorhombic'
loop_
_space_group_symop_operation_xyz
x,y,z
-x,-y,z
x,-y,1/2-z
-x,y,1/2-z
-x,-y,-z
x,y,-z
-x,y,1/2+z
x,-y,1/2+z
1/2+x,1/2+y,1/2+z
1/2-x,1/2-y,1/2+z
1/2+x,1/2-y,-z
1/2-x,1/2+y,-z
1/2-x,1/2-y,1/2-z
1/2+x,1/2+y,1/2-z
1/2-x,1/2+y,z
1/2+x,1/2-y,z
loop_
_atom_site_type_symbol
_atom_site_label
_atom_site_fract_x
_atom_site_fract_y
_atom_site_fract_z
Si Si1 0.377935 0.306869 0.500000
Si Si2 0.875062 0.629531 0.173458
Si Si3 0.871628 0.880343 0.174277
Si Si4 0.786047 0.554154 0.500000
Si Si5 0.986586 0.301246 0.000000
Si Si6 0.647257 0.942047 0.500000
O O1 0.438165 0.337272 0.600428
O O2 0.460047 0.254858 0.500000
O O3 0.194853 0.304863 0.500000
O O4 0.744488 0.649077 0.250071
O O5 0.946043 0.673392 0.104034
O O6 0.000000 0.605450 0.250000
O O7 0.798550 0.586161 0.104100
O O8 0.791491 0.923302 0.104374
O O9 0.000000 0.903936 0.250000
O O10 0.771776 0.494890 0.500000
O O11 0.964804 0.564282 0.500000
#
# Coordination Sequence:
#
# PCOD8294722 Si02
#       6
#     8  16  16   8   8   8
#     4  11  25  43  61  98 131 170 216 275 322 383
#     4  11  20  42  64  92 126 172 216 263 317 382
#     4  11  24  42  66  92 136 174 208 268 330 388
#     4  10  21  42  62 100 127 159 220 267 317 385
#     4  11  25  39  65  96 133 163 224 273 315 389
#     4  10  21  38  70  94 125 163 216 275 312 376
#
# _framework density 21.127756000000002
#
# number of rings (size 3 to 8) (size 9 to 14) (size 15 to 20)
#    0.000    1.250    5.000    1.500    3.500    6.000 
#    0.000    3.750    0.000    0.000    0.000    0.000 
#    0.000    0.000    0.000    0.000    0.000    0.000 
#
# Total GULP energy -396574.783263 kJ/mol
# GULP energy per Si atom -12392.961977 kJ/mol
# Density = 2.107967 g / cm^3
# Si number density = 21.127756 Si / 1000 Ang^3
#
#
#
# Elastic Constant Matrix: (Units=GPa)
#
#
# Indices 1 2 3 4 5 6 
#
# 1 73.6291 15.7691 46.1750 -0.0001 -0.0002 0.0000
# 2 15.7691 139.5408 58.3889 -0.0001 -0.0002 0.0000
# 3 46.1750 58.3889 155.3796 -0.0003 -0.0006 0.0000
# 4 -0.0001 -0.0001 -0.0003 15.4196 -0.0002 0.0001
# 5 -0.0002 -0.0002 -0.0006 -0.0002 29.1702 0.0001
# 6 0.0000 0.0000 0.0000 0.0001 0.0001 33.0210
#
#
#
# Elastic Compliance Matrix: (Units=1/GPa)
#
#
# Indices 1 2 3 4 5 6 
#
# 1 0.016698 0.000225 -0.005047 0.000000 0.000000 0.000000
# 2 0.000225 0.008506 -0.003263 0.000000 0.000000 0.000000
# 3 -0.005047 -0.003263 0.009162 0.000000 0.000000 0.000000
# 4 0.000000 0.000000 0.000000 0.064852 0.000000 0.000000
# 5 0.000000 0.000000 0.000000 0.000000 0.034282 0.000000
# 6 0.000000 0.000000 0.000000 0.000000 0.000000 0.030284
#
#
# Mechanical properties :
#
#
# Convention : Reuss Voigt Hill
#
# Bulk Modulus (GPa) = 54.95721 67.69063 61.32392
# Shear Modulus (GPa) = 26.87871 32.06994 29.47433
#
# Velocity S-wave (km/s) = 3.57066 3.90026 3.73909
# Velocity P-wave (km/s) = 6.56261 7.23816 6.90865
#
# Compressibility (1/GPa) = 0.01819598
#
# Stress axis : x y z
#
# Youngs Moduli (GPa) = 59.88575 117.55744 109.14701
#
# Poissons Ratio (x) = -0.02642 0.55084
# Poissons Ratio (y) = -0.01346 0.35619
# Poissons Ratio (z) = 0.30223 0.38363
#
# Static dielectric constant tensor:
#      x y z
#    x 3.884420 0.000000 0.000000 
#    y 0.000000 3.633170 0.000000 
#    z 0.000000 0.000000 4.196060 
# 
# 
# High freq. dielectric constant tensor:
#      x y z
#    x 1.826740 0.000000 0.000000 
#    y 0.000000 1.802720 0.000000 
#    z 0.000000 0.000000 1.857000 
# 
# From -- ./inp_files/10590.got.cif
#   From: 2010.03.12/outbox.cif.g09.slc.cpg/sg72_6_cif.got.tgz:10590.got - 2010.04.16 14:54:00.
