data_PCOD8294649
_publ_section_title
;
Structure prediction by ZEFSAII (Michael W. Deem and Ramdas Pophale) SiO2 
 PCOD8294649
Probable space group: I B A M
;
_chemical_formula_sum "Si O2"
_cell_formula_units_Z 72
_cell_length_a 9.742056
_cell_length_b 12.606530
_cell_length_c 28.373220
_cell_angle_alpha 90.000000
_cell_angle_beta 90.000000
_cell_angle_gamma 90.000000
_cell_volume 3484.615057
_symmetry_space_group_name_H-M "I B A M"
_symmetry_group_IT_number 72
_symmetry_cell_setting 'orthorhombic'
loop_
_space_group_symop_operation_xyz
x,y,z
-x,-y,z
x,-y,1/2-z
-x,y,1/2-z
-x,-y,-z
x,y,-z
-x,y,1/2+z
x,-y,1/2+z
1/2+x,1/2+y,1/2+z
1/2-x,1/2-y,1/2+z
1/2+x,1/2-y,-z
1/2-x,1/2+y,-z
1/2-x,1/2-y,1/2-z
1/2+x,1/2+y,1/2-z
1/2-x,1/2+y,z
1/2+x,1/2-y,z
loop_
_atom_site_type_symbol
_atom_site_label
_atom_site_fract_x
_atom_site_fract_y
_atom_site_fract_z
Si Si1 0.354899 0.956319 0.422972
Si Si2 0.769271 0.382628 0.500000
Si Si3 0.745431 0.641329 0.331176
Si Si4 0.437511 0.204766 0.000000
Si Si5 0.813064 0.000000 0.250000
Si Si6 0.543956 0.306754 0.701321
O O1 0.264392 0.926374 0.378204
O O2 0.380046 0.852494 0.453885
O O3 0.500000 0.000000 0.404655
O O4 0.276842 0.045271 0.453405
O O5 0.622456 0.323790 0.500000
O O6 0.896199 0.298254 0.500000
O O7 0.779076 0.570222 0.285108
O O8 0.588642 0.680509 0.331774
O O9 0.844985 0.742714 0.328838
O O10 0.903215 0.922996 0.283404
O O11 0.500000 0.246546 0.750000
#
# Coordination Sequence:
#
# PCOD8294649 Si02
#       6
#    16   8  16   8   8  16
#     4   9  21  38  58  87 119 153 196 243 295 360
#     4   9  19  41  64  86 116 153 195 245 301 357
#     4  11  22  37  59  86 115 153 198 242 292 351
#     4   9  19  39  62  82 116 153 189 243 298 349
#     4  10  21  40  59  82 123 162 197 250 297 344
#     4  10  21  38  56  81 116 154 196 242 291 346
#
# _framework density 20.662254000000001
#
# number of rings (size 3 to 8) (size 9 to 14) (size 15 to 20)
#    0.000    2.222    0.000    7.000    0.000    8.889 
#    0.000    5.556    0.000    0.000    0.000    0.000 
#    0.000    0.000    0.000    0.000    0.000    0.000 
#
# Total GULP energy -446267.519308 kJ/mol
# GULP energy per Si atom -12396.319981 kJ/mol
# Density = 2.061523 g / cm^3
# Si number density = 20.662254 Si / 1000 Ang^3
#
#
#
# Elastic Constant Matrix: (Units=GPa)
#
#
# Indices 1 2 3 4 5 6 
#
# 1 102.9865 64.0659 73.5207 0.0000 0.0000 0.0000
# 2 64.0659 110.8399 50.3917 0.0000 0.0000 0.0000
# 3 73.5207 50.3917 116.7130 0.0000 0.0000 0.0000
# 4 0.0000 0.0000 0.0000 21.5571 0.0000 0.0000
# 5 0.0000 0.0000 0.0000 0.0000 34.4563 0.0000
# 6 0.0000 0.0000 0.0000 0.0000 0.0000 32.5254
#
#
#
# Elastic Compliance Matrix: (Units=1/GPa)
#
#
# Indices 1 2 3 4 5 6 
#
# 1 0.022249 -0.008073 -0.010530 0.000000 0.000000 0.000000
# 2 -0.008073 0.014155 -0.001026 0.000000 0.000000 0.000000
# 3 -0.010530 -0.001026 0.015644 0.000000 0.000000 0.000000
# 4 0.000000 0.000000 0.000000 0.046388 0.000000 0.000000
# 5 0.000000 0.000000 0.000000 0.000000 0.029022 0.000000
# 6 0.000000 0.000000 0.000000 0.000000 0.000000 0.030745
#
#
# Mechanical properties :
#
#
# Convention : Reuss Voigt Hill
#
# Bulk Modulus (GPa) = 78.18389 78.49955 78.34172
# Shear Modulus (GPa) = 24.78629 27.21182 25.99906
#
# Velocity S-wave (km/s) = 3.46727 3.63296 3.55108
# Velocity P-wave (km/s) = 7.34510 7.46138 7.40346
#
# Compressibility (1/GPa) = 0.01279036
#
# Stress axis : x y z
#
# Youngs Moduli (GPa) = 44.94585 70.64826 63.92212
#
# Poissons Ratio (x) = 0.57033 0.67308
# Poissons Ratio (y) = 0.36284 0.06559
# Poissons Ratio (z) = 0.47327 0.07249
#
# Static dielectric constant tensor:
#      x y z
#    x 3.639000 0.000000 0.000000 
#    y 0.000000 3.656410 0.000000 
#    z 0.000000 0.000000 3.664230 
# 
# 
# High freq. dielectric constant tensor:
#      x y z
#    x 1.798510 0.000000 0.000000 
#    y 0.000000 1.806050 0.000000 
#    z 0.000000 0.000000 1.801980 
# 
# From -- ./inp_files/50723.got.cif
#   From: 2010.03.12/outbox.cif.g09.slc.cpg/sg72_26_cif.got.tgz:50723.got - 2010.04.16 14:54:00.
