data_PCOD8294625
_publ_section_title
;
Structure prediction by ZEFSAII (Michael W. Deem and Ramdas Pophale) SiO2 
 PCOD8294625
Probable space group: I B A M
;
_chemical_formula_sum "Si O2"
_cell_formula_units_Z 52
_cell_length_a 5.070337
_cell_length_b 28.739554
_cell_length_c 14.025483
_cell_angle_alpha 90.000000
_cell_angle_beta 90.000000
_cell_angle_gamma 90.000000
_cell_volume 2043.782499
_symmetry_space_group_name_H-M "I B A M"
_symmetry_group_IT_number 72
_symmetry_cell_setting 'orthorhombic'
loop_
_space_group_symop_operation_xyz
x,y,z
-x,-y,z
x,-y,1/2-z
-x,y,1/2-z
-x,-y,-z
x,y,-z
-x,y,1/2+z
x,-y,1/2+z
1/2+x,1/2+y,1/2+z
1/2-x,1/2-y,1/2+z
1/2+x,1/2-y,-z
1/2-x,1/2+y,-z
1/2-x,1/2-y,1/2-z
1/2+x,1/2+y,1/2-z
1/2-x,1/2+y,z
1/2+x,1/2-y,z
loop_
_atom_site_type_symbol
_atom_site_label
_atom_site_fract_x
_atom_site_fract_y
_atom_site_fract_z
Si Si1 0.693368 0.632207 0.108397
Si Si2 0.797534 0.572405 0.610136
Si Si3 0.000000 0.500000 0.250000
Si Si4 0.895076 0.269778 0.647987
O O1 0.417990 0.610348 0.145937
O O2 0.788719 0.678072 0.163270
O O3 0.911870 0.592938 0.119575
O O4 0.660117 0.648247 0.000000
O O5 0.736453 0.557488 0.500000
O O6 0.800638 0.528799 0.681526
O O7 0.677367 0.236701 0.593900
O O8 0.000000 0.248781 0.750000
#
# Coordination Sequence:
#
# PCOD8294625 Si02
#       4
#    16  16   4  16
#     4  10  22  42  65  94 135 178 217 277 338 391
#     4  10  24  44  67  99 136 169 222 285 338 412
#     4  12  26  46  72 104 124 182 222 278 368 420
#     4  10  21  37  60  95 134 173 219 273 318 381
#
# _framework density 25.443021999999999
#
# number of rings (size 3 to 8) (size 9 to 14) (size 15 to 20)
#    0.000    1.846    0.000    2.308    2.154    4.923 
#    0.000    4.615    0.000    0.000    0.000    0.000 
#    0.000    0.000    0.000    0.000    0.000    0.000 
#
# Total GULP energy -322102.776079 kJ/mol
# GULP energy per Si atom -12388.568311 kJ/mol
# Density = 2.538511 g / cm^3
# Si number density = 25.443022 Si / 1000 Ang^3
#
#
#
# Elastic Constant Matrix: (Units=GPa)
#
#
# Indices 1 2 3 4 5 6 
#
# 1 200.1468 64.0552 31.6036 0.0002 0.0000 0.0000
# 2 64.0552 147.4482 56.9863 0.0003 0.0000 0.0000
# 3 31.6036 56.9863 78.2128 -0.0015 0.0000 0.0000
# 4 0.0002 0.0003 -0.0015 -858.6596 0.0001 0.0002
# 5 0.0000 0.0000 0.0000 0.0001 20.4365 0.0000
# 6 0.0000 0.0000 0.0000 0.0002 0.0000 43.2001
#
#
#
# Elastic Compliance Matrix: (Units=1/GPa)
#
#
# Indices 1 2 3 4 5 6 
#
# 1 0.005831 -0.002259 -0.000711 0.000000 0.000000 0.000000
# 2 -0.002259 0.010315 -0.006603 0.000000 0.000000 0.000000
# 3 -0.000711 -0.006603 0.017884 0.000000 0.000000 0.000000
# 4 0.000000 0.000000 0.000000 -0.001165 0.000000 0.000000
# 5 0.000000 0.000000 0.000000 0.000000 0.048932 0.000000
# 6 0.000000 0.000000 0.000000 0.000000 0.000000 0.023148
#
#
# Mechanical properties :
#
#
# Convention : Reuss Voigt Hill
#
# Bulk Modulus (GPa) = 67.17850 81.23312 74.20581
# Shear Modulus (GPa) = 38.74387 -140.79375 -51.02494
#
# Velocity S-wave (km/s) = 3.90650 -7.44695 -4.48309
# Velocity P-wave (km/s) = 6.84167 6.47657 1.55926
#
# Compressibility (1/GPa) = 0.01488571
#
# Stress axis : x y z
#
# Youngs Moduli (GPa) = 171.48519 96.94384 55.91641
#
# Poissons Ratio (x) = 0.21896 0.03974
# Poissons Ratio (y) = 0.38733 0.36922
# Poissons Ratio (z) = 0.12186 0.64013
#
# Static dielectric constant tensor:
#      x y z
#    x 5.286230 0.000000 0.000000 
#    y 0.000000 4.179510 0.000000 
#    z 0.000000 0.000000 4.663200 
# 
# 
# High freq. dielectric constant tensor:
#      x y z
#    x 2.044180 0.000000 0.000000 
#    y 0.000000 1.997470 0.000000 
#    z 0.000000 0.000000 2.009520 
# 
# From -- ./inp_files/17547.got.cif
#   From: 2010.03.12/outbox.cif.g09.slc.cpg/sg72_9_cif.got.tgz:17547.got - 2010.04.16 14:54:00.
