data_PCOD8294536
_publ_section_title
;
Structure prediction by ZEFSAII (Michael W. Deem and Ramdas Pophale) SiO2 
 PCOD8294536
Probable space group: I B A M
;
_chemical_formula_sum "Si O2"
_cell_formula_units_Z 64
_cell_length_a 14.692100
_cell_length_b 27.446920
_cell_length_c 8.412987
_cell_angle_alpha 90.000000
_cell_angle_beta 90.000000
_cell_angle_gamma 90.000000
_cell_volume 3392.561349
_symmetry_space_group_name_H-M "I B A M"
_symmetry_group_IT_number 72
_symmetry_cell_setting 'orthorhombic'
loop_
_space_group_symop_operation_xyz
x,y,z
-x,-y,z
x,-y,1/2-z
-x,y,1/2-z
-x,-y,-z
x,y,-z
-x,y,1/2+z
x,-y,1/2+z
1/2+x,1/2+y,1/2+z
1/2-x,1/2-y,1/2+z
1/2+x,1/2-y,-z
1/2-x,1/2+y,-z
1/2-x,1/2-y,1/2-z
1/2+x,1/2+y,1/2-z
1/2-x,1/2+y,z
1/2+x,1/2-y,z
loop_
_atom_site_type_symbol
_atom_site_label
_atom_site_fract_x
_atom_site_fract_y
_atom_site_fract_z
Si Si1 0.094381 0.324623 0.314122
Si Si2 0.902150 0.781949 0.186464
Si Si3 0.727919 0.361388 0.313983
Si Si4 0.099313 0.052356 0.312342
O O1 0.086418 0.313458 0.500000
O O2 0.114118 0.274652 0.221270
O O3 0.175759 0.362017 0.277523
O O4 0.000000 0.347571 0.250000
O O5 0.824943 0.811753 0.277086
O O6 0.000000 0.799371 0.250000
O O7 0.895149 0.792115 0.000000
O O8 0.746861 0.365252 0.500000
O O9 0.670561 0.407474 0.250792
O O10 0.094789 0.051113 0.500000
O O11 0.000000 0.066593 0.250000
O O12 0.131703 0.000000 0.250000
#
# Coordination Sequence:
#
# PCOD8294536 Si02
#       4
#    16  16  16  16
#     4  11  22  37  55  76 105 142 179 221 264 310
#     4  11  21  34  52  77 109 144 179 219 262 312
#     4  11  22  36  54  79 107 140 179 219 262 314
#     4  10  21  36  57  81 110 140 171 212 260 313
#
# _framework density 18.864802000000001
#
# number of rings (size 3 to 8) (size 9 to 14) (size 15 to 20)
#    0.000    1.250    0.000    9.750    0.000    6.000 
#    0.000    0.000    0.000    0.750    0.000    5.250 
#    0.000    0.000    0.000    0.000    0.000    0.000 
#
# Total GULP energy -396977.230114 kJ/mol
# GULP energy per Si atom -12405.538441 kJ/mol
# Density = 1.882186 g / cm^3
# Si number density = 18.864802 Si / 1000 Ang^3
#
#
#
# Elastic Constant Matrix: (Units=GPa)
#
#
# Indices 1 2 3 4 5 6 
#
# 1 148.6879 63.5220 22.6430 -0.0001 -0.0007 -0.0006
# 2 63.5220 75.3815 17.4378 0.0007 0.0007 0.0008
# 3 22.6430 17.4378 69.7153 -0.0138 0.0023 0.0018
# 4 -0.0001 0.0007 -0.0138 24.0150 0.0009 0.0010
# 5 -0.0007 0.0007 0.0023 0.0009 34.0368 0.0016
# 6 -0.0006 0.0008 0.0018 0.0010 0.0016 28.1128
#
#
#
# Elastic Compliance Matrix: (Units=1/GPa)
#
#
# Indices 1 2 3 4 5 6 
#
# 1 0.010616 -0.008649 -0.001285 0.000000 0.000000 0.000001
# 2 -0.008649 0.021126 -0.002475 -0.000002 0.000000 -0.000001
# 3 -0.001285 -0.002475 0.015380 0.000009 -0.000001 -0.000001
# 4 0.000000 -0.000002 0.000009 0.041641 -0.000001 -0.000001
# 5 0.000000 0.000000 -0.000001 -0.000001 0.029380 -0.000002
# 6 0.000001 -0.000001 -0.000001 -0.000001 -0.000002 0.035571
#
#
# Mechanical properties :
#
#
# Convention : Reuss Voigt Hill
#
# Bulk Modulus (GPa) = 44.83186 55.66559 50.24873
# Shear Modulus (GPa) = 26.88651 29.91172 28.39912
#
# Velocity S-wave (km/s) = 3.77931 3.98626 3.88416
# Velocity P-wave (km/s) = 6.54680 7.12452 6.84176
#
# Compressibility (1/GPa) = 0.02230556
#
# Stress axis : x y z
#
# Youngs Moduli (GPa) = 94.19769 47.33413 65.01750
#
# Poissons Ratio (x) = 0.40937 0.08353
# Poissons Ratio (y) = 0.81468 0.16094
# Poissons Ratio (z) = 0.12102 0.11717
#
# Static dielectric constant tensor:
#      x y z
#    x 3.772220 0.000000 0.000000 
#    y 0.000000 3.452740 0.000000 
#    z 0.000000 0.000000 3.527120 
# 
# 
# High freq. dielectric constant tensor:
#      x y z
#    x 1.739490 0.000000 0.000000 
#    y 0.000000 1.703810 0.000000 
#    z 0.000000 0.000000 1.751380 
# 
# From -- ./inp_files/3440.got.cif
#   From: 2010.03.12/outbox.cif.g09.slc.cpg/sg72_2_cif.got.tgz:3440.got - 2010.04.16 14:54:00.
