data_PCOD8294218
_publ_section_title
;
Structure prediction by ZEFSAII (Michael W. Deem and Ramdas Pophale) SiO2 
 PCOD8294218
Probable space group: I B A M
;
_chemical_formula_sum "Si O2"
_cell_formula_units_Z 104
_cell_length_a 17.522474
_cell_length_b 22.281807
_cell_length_c 13.944589
_cell_angle_alpha 90.000000
_cell_angle_beta 90.000000
_cell_angle_gamma 90.000000
_cell_volume 5444.419125
_symmetry_space_group_name_H-M "I B A M"
_symmetry_group_IT_number 72
_symmetry_cell_setting 'orthorhombic'
loop_
_space_group_symop_operation_xyz
x,y,z
-x,-y,z
x,-y,1/2-z
-x,y,1/2-z
-x,-y,-z
x,y,-z
-x,y,1/2+z
x,-y,1/2+z
1/2+x,1/2+y,1/2+z
1/2-x,1/2-y,1/2+z
1/2+x,1/2-y,-z
1/2-x,1/2+y,-z
1/2-x,1/2-y,1/2-z
1/2+x,1/2+y,1/2-z
1/2-x,1/2+y,z
1/2+x,1/2-y,z
loop_
_atom_site_type_symbol
_atom_site_label
_atom_site_fract_x
_atom_site_fract_y
_atom_site_fract_z
Si Si1 0.675934 0.034437 0.000000
Si Si2 0.145229 0.837451 0.611807
Si Si3 0.733913 0.557182 0.186234
Si Si4 0.106530 0.594774 0.000000
Si Si5 0.310337 0.850648 0.317477
Si Si6 0.561811 0.143063 0.000000
Si Si7 0.577032 0.221170 0.191569
Si Si8 0.416314 0.570228 0.242227
O O1 0.733528 0.033564 0.912103
O O2 0.628109 0.094532 0.000000
O O3 0.621525 0.976546 0.000000
O O4 0.134134 0.830372 0.500000
O O5 0.232615 0.823952 0.639591
O O6 0.091352 0.790096 0.665478
O O7 0.119804 0.904775 0.642457
O O8 0.715147 0.500000 0.250000
O O9 0.796044 0.598084 0.238662
O O10 0.649040 0.588905 0.177711
O O11 0.140781 0.623402 0.904605
O O12 0.016879 0.606830 0.000000
O O13 0.355133 0.798914 0.261924
O O14 0.571573 0.182808 0.094560
O O15 0.500000 0.214229 0.250000
O O16 0.430277 0.500000 0.250000
O O17 0.500000 0.601236 0.250000
#
# Coordination Sequence:
#
# PCOD8294218 Si02
#       8
#     8  16  16   8  16   8  16  16
#     4  12  23  38  64  94 134 169 225 273 312 394
#     4  11  23  40  66  96 120 165 219 263 319 385
#     4  10  20  36  61  89 122 169 211 263 324 371
#     4  12  23  39  65  96 124 172 224 262 325 392
#     4  11  22  39  63  90 123 167 215 264 317 389
#     4  12  25  41  61  97 129 171 221 267 327 373
#     4  12  24  42  66  87 131 170 211 269 324 383
#     4   9  20  41  62  89 128 160 202 258 322 382
#
# _framework density 19.102129999999999
#
# number of rings (size 3 to 8) (size 9 to 14) (size 15 to 20)
#    0.000    1.077    6.154    1.154    0.000    0.000 
#    1.385    0.769    0.000    0.000    0.000    0.000 
#    0.000    0.000    0.000    0.000    0.000    0.000 
#
# Total GULP energy -644413.470770 kJ/mol
# GULP energy per Si atom -12392.566746 kJ/mol
# Density = 1.905865 g / cm^3
# Si number density = 19.102130 Si / 1000 Ang^3
#
#
#
# Elastic Constant Matrix: (Units=GPa)
#
#
# Indices 1 2 3 4 5 6 
#
# 1 121.9865 27.0125 38.4595 0.0000 0.0000 0.0000
# 2 27.0125 87.0012 40.6383 0.0000 0.0000 0.0000
# 3 38.4595 40.6383 105.8268 0.0000 0.0000 0.0000
# 4 0.0000 0.0000 0.0000 34.4420 0.0000 0.0000
# 5 0.0000 0.0000 0.0000 0.0000 19.1898 0.0000
# 6 0.0000 0.0000 0.0000 0.0000 0.0000 26.1894
#
#
#
# Elastic Compliance Matrix: (Units=1/GPa)
#
#
# Indices 1 2 3 4 5 6 
#
# 1 0.009442 -0.001619 -0.002810 0.000000 0.000000 0.000000
# 2 -0.001619 0.014284 -0.004897 0.000000 0.000000 0.000000
# 3 -0.002810 -0.004897 0.012351 0.000000 0.000000 0.000000
# 4 0.000000 0.000000 0.000000 0.029034 0.000000 0.000000
# 5 0.000000 0.000000 0.000000 0.000000 0.052111 0.000000
# 6 0.000000 0.000000 0.000000 0.000000 0.000000 0.038183
#
#
# Mechanical properties :
#
#
# Convention : Reuss Voigt Hill
#
# Bulk Modulus (GPa) = 57.38618 58.55946 57.97282
# Shear Modulus (GPa) = 27.79858 29.87787 28.83823
#
# Velocity S-wave (km/s) = 3.81893 3.95918 3.88968
# Velocity P-wave (km/s) = 7.03936 7.18489 7.11250
#
# Compressibility (1/GPa) = 0.01742580
#
# Stress axis : x y z
#
# Youngs Moduli (GPa) = 105.90990 70.00788 80.96605
#
# Poissons Ratio (x) = 0.11336 0.22748
# Poissons Ratio (y) = 0.17149 0.39647
# Poissons Ratio (z) = 0.29757 0.34281
#
# Static dielectric constant tensor:
#      x y z
#    x 3.933840 0.000000 0.000000 
#    y 0.000000 3.452870 0.000000 
#    z 0.000000 0.000000 3.451800 
# 
# 
# High freq. dielectric constant tensor:
#      x y z
#    x 1.765850 0.000000 0.000000 
#    y 0.000000 1.740220 0.000000 
#    z 0.000000 0.000000 1.739360 
# 
# From -- ./inp_files/23406.got.cif
#   From: 2010.03.12/outbox.cif.g09.slc.cpg/sg72_12_cif.got.tgz:23406.got - 2010.04.16 14:54:00.
