data_PCOD8294550
_publ_section_title
;
Structure prediction by ZEFSAII (Michael W. Deem and Ramdas Pophale) SiO2 
 PCOD8294550
Probable space group: I B A M
;
_chemical_formula_sum "Si O2"
_cell_formula_units_Z 120
_cell_length_a 10.358211
_cell_length_b 26.251220
_cell_length_c 20.409600
_cell_angle_alpha 90.000000
_cell_angle_beta 90.000000
_cell_angle_gamma 90.000000
_cell_volume 5549.690176
_symmetry_space_group_name_H-M "I B A M"
_symmetry_group_IT_number 72
_symmetry_cell_setting 'orthorhombic'
loop_
_space_group_symop_operation_xyz
x,y,z
-x,-y,z
x,-y,1/2-z
-x,y,1/2-z
-x,-y,-z
x,y,-z
-x,y,1/2+z
x,-y,1/2+z
1/2+x,1/2+y,1/2+z
1/2-x,1/2-y,1/2+z
1/2+x,1/2-y,-z
1/2-x,1/2+y,-z
1/2-x,1/2-y,1/2-z
1/2+x,1/2+y,1/2-z
1/2-x,1/2+y,z
1/2+x,1/2-y,z
loop_
_atom_site_type_symbol
_atom_site_label
_atom_site_fract_x
_atom_site_fract_y
_atom_site_fract_z
Si Si1 0.759210 0.432413 0.425431
Si Si2 0.149339 0.488759 0.322238
Si Si3 0.000000 0.909328 0.750000
Si Si4 0.966209 0.651831 0.073047
Si Si5 0.015518 0.058023 0.107389
Si Si6 0.590412 0.782824 0.305131
Si Si7 0.819662 0.821313 0.227325
Si Si8 0.724785 0.111981 0.618365
O O1 0.788809 0.449540 0.500000
O O2 0.770715 0.480720 0.377089
O O3 0.861189 0.389739 0.403694
O O4 0.611410 0.412077 0.418989
O O5 0.204054 0.500000 0.250000
O O6 0.168874 0.429425 0.331955
O O7 0.000000 0.500000 0.328911
O O8 0.018467 0.944112 0.686397
O O9 0.879687 0.871612 0.740771
O O10 0.953705 0.698941 0.123072
O O11 0.109642 0.627020 0.068825
O O12 0.932777 0.671571 0.000000
O O13 0.144782 0.088716 0.083347
O O14 0.000000 0.000000 0.080555
O O15 0.500000 0.808733 0.250000
O O16 0.735550 0.798572 0.286606
O O17 0.579615 0.721376 0.299376
O O18 0.747597 0.837300 0.160603
#
# Coordination Sequence:
#
# PCOD8294550 Si02
#       8
#    16  16   8  16  16  16  16  16
#     4  11  25  43  61  88 131 181 222 264 325 399
#     4  11  24  38  64 100 134 171 223 278 327 383
#     4  10  21  36  60  92 132 156 208 271 324 390
#     4  11  25  44  68  95 129 174 222 276 332 392
#     4  11  23  37  59  94 131 178 216 265 330 384
#     4  11  21  40  70  95 127 160 218 271 333 396
#     4  10  22  37  65 101 124 164 208 272 335 389
#     4  11  23  40  64 100 133 171 218 275 327 388
#
# _framework density 21.622828999999999
#
# number of rings (size 3 to 8) (size 9 to 14) (size 15 to 20)
#    0.000    1.200    4.667    1.000    5.600    1.600 
#    0.000    0.667    0.000    0.800    0.000    0.000 
#    0.000    0.000    0.000    0.000    0.000    0.000 
#
# Total GULP energy -743695.535356 kJ/mol
# GULP energy per Si atom -12394.925589 kJ/mol
# Density = 2.157361 g / cm^3
# Si number density = 21.622829 Si / 1000 Ang^3
#
#
#
# Elastic Constant Matrix: (Units=GPa)
#
#
# Indices 1 2 3 4 5 6 
#
# 1 125.5795 22.4798 18.3010 0.0000 0.0000 0.0000
# 2 22.4798 80.5608 32.4263 0.0000 0.0000 0.0000
# 3 18.3010 32.4263 103.6541 0.0001 0.0000 0.0000
# 4 0.0000 0.0000 0.0001 15.1750 0.0000 0.0000
# 5 0.0000 0.0000 0.0000 0.0000 16.3382 0.0000
# 6 0.0000 0.0000 0.0000 0.0000 0.0000 29.2121
#
#
#
# Elastic Compliance Matrix: (Units=1/GPa)
#
#
# Indices 1 2 3 4 5 6 
#
# 1 0.008449 -0.002010 -0.000863 0.000000 0.000000 0.000000
# 2 -0.002010 0.014679 -0.004237 0.000000 0.000000 0.000000
# 3 -0.000863 -0.004237 0.011125 0.000000 0.000000 0.000000
# 4 0.000000 0.000000 0.000000 0.065898 0.000000 0.000000
# 5 0.000000 0.000000 0.000000 0.000000 0.061206 0.000000
# 6 0.000000 0.000000 0.000000 0.000000 0.000000 0.034232
#
#
# Mechanical properties :
#
#
# Convention : Reuss Voigt Hill
#
# Bulk Modulus (GPa) = 49.91807 50.68986 50.30396
# Shear Modulus (GPa) = 23.09593 27.91755 25.50674
#
# Velocity S-wave (km/s) = 3.27177 3.59711 3.43829
# Velocity P-wave (km/s) = 6.11625 6.38325 6.25118
#
# Compressibility (1/GPa) = 0.02003282
#
# Stress axis : x y z
#
# Youngs Moduli (GPa) = 118.36179 68.12241 89.88467
#
# Poissons Ratio (x) = 0.13694 0.07755
# Poissons Ratio (y) = 0.23794 0.38087
# Poissons Ratio (z) = 0.10212 0.28865
#
# Static dielectric constant tensor:
#      x y z
#    x 4.301020 0.000000 0.000000 
#    y 0.000000 3.741810 0.000000 
#    z 0.000000 0.000000 3.635250 
# 
# 
# High freq. dielectric constant tensor:
#      x y z
#    x 1.871450 0.000000 0.000000 
#    y 0.000000 1.831760 0.000000 
#    z 0.000000 0.000000 1.828360 
# 
# From -- ./inp_files/37356.got.cif
#   From: 2010.03.12/outbox.cif.g09.slc.cpg/sg72_19_cif.got.tgz:37356.got - 2010.04.16 14:54:00.
