data_PCOD8294580
_publ_section_title
;
Structure prediction by ZEFSAII (Michael W. Deem and Ramdas Pophale) SiO2 
 PCOD8294580
Probable space group: I B A M
;
_chemical_formula_sum "Si O2"
_cell_formula_units_Z 64
_cell_length_a 13.872554
_cell_length_b 27.885083
_cell_length_c 8.891239
_cell_angle_alpha 90.000000
_cell_angle_beta 90.000000
_cell_angle_gamma 90.000000
_cell_volume 3439.463064
_symmetry_space_group_name_H-M "I B A M"
_symmetry_group_IT_number 72
_symmetry_cell_setting 'orthorhombic'
loop_
_space_group_symop_operation_xyz
x,y,z
-x,-y,z
x,-y,1/2-z
-x,y,1/2-z
-x,-y,-z
x,y,-z
-x,y,1/2+z
x,-y,1/2+z
1/2+x,1/2+y,1/2+z
1/2-x,1/2-y,1/2+z
1/2+x,1/2-y,-z
1/2-x,1/2+y,-z
1/2-x,1/2-y,1/2-z
1/2+x,1/2+y,1/2-z
1/2-x,1/2+y,z
1/2+x,1/2-y,z
loop_
_atom_site_type_symbol
_atom_site_label
_atom_site_fract_x
_atom_site_fract_y
_atom_site_fract_z
Si Si1 0.600481 0.376636 0.675251
Si Si2 0.734572 0.550651 0.324957
Si Si3 0.100360 0.373482 0.324942
Si Si4 0.765399 0.300823 0.324713
O O1 0.500000 0.362632 0.750000
O O2 0.586158 0.386446 0.500000
O O3 0.641623 0.424881 0.749884
O O4 0.671059 0.332365 0.706648
O O5 0.754699 0.500000 0.250000
O O6 0.713043 0.544062 0.500000
O O7 0.828802 0.582303 0.294885
O O8 0.085702 0.363289 0.500000
O O9 0.141590 0.325442 0.249380
O O10 0.000000 0.387658 0.250000
O O11 0.785962 0.294374 0.500000
O O12 0.750000 0.250000 0.250000
#
# Coordination Sequence:
#
# PCOD8294580 Si02
#       4
#    16  16  16  16
#     4  10  21  37  57  81 109 142 180 223 270 320
#     4  10  21  37  57  81 110 143 180 223 269 320
#     4  10  21  37  57  81 110 144 182 225 272 322
#     4  10  21  37  57  81 111 145 182 225 271 322
#
# _framework density 18.607557
#
# number of rings (size 3 to 8) (size 9 to 14) (size 15 to 20)
#    0.000    2.000    0.000    3.000    0.000    8.000 
#    0.000    7.500    0.000    0.000    0.000    0.000 
#    0.000    0.000    0.000    0.000    0.000    0.000 
#
# Total GULP energy -396991.307550 kJ/mol
# GULP energy per Si atom -12405.978361 kJ/mol
# Density = 1.856521 g / cm^3
# Si number density = 18.607557 Si / 1000 Ang^3
#
#
#
# Elastic Constant Matrix: (Units=GPa)
#
#
# Indices 1 2 3 4 5 6 
#
# 1 102.0675 27.5995 62.2119 0.0001 0.0001 0.0000
# 2 27.5995 122.2921 68.4960 -0.0005 0.0001 0.0000
# 3 62.2119 68.4960 140.8765 -0.0067 0.0004 0.0007
# 4 0.0001 -0.0005 -0.0067 39.1553 0.0001 0.0001
# 5 0.0001 0.0001 0.0004 0.0001 38.9532 0.0004
# 6 0.0000 0.0000 0.0007 0.0001 0.0004 11.7163
#
#
#
# Elastic Compliance Matrix: (Units=1/GPa)
#
#
# Indices 1 2 3 4 5 6 
#
# 1 0.013420 0.000399 -0.006121 -0.000001 0.000000 0.000000
# 2 0.000399 0.011249 -0.005646 -0.000001 0.000000 0.000000
# 3 -0.006121 -0.005646 0.012546 0.000002 0.000000 -0.000001
# 4 -0.000001 -0.000001 0.000002 0.025539 0.000000 0.000000
# 5 0.000000 0.000000 0.000000 0.000000 0.025672 -0.000001
# 6 0.000000 0.000000 -0.000001 0.000000 -0.000001 0.085351
#
#
# Mechanical properties :
#
#
# Convention : Reuss Voigt Hill
#
# Bulk Modulus (GPa) = 69.05322 75.76122 72.40722
# Shear Modulus (GPa) = 24.83370 31.76021 28.29695
#
# Velocity S-wave (km/s) = 3.65718 4.13588 3.90388
# Velocity P-wave (km/s) = 7.41783 7.97565 7.70179
#
# Compressibility (1/GPa) = 0.01448158
#
# Stress axis : x y z
#
# Youngs Moduli (GPa) = 74.51557 88.89437 79.70386
#
# Poissons Ratio (x) = -0.03551 0.48783
# Poissons Ratio (y) = -0.02977 0.45001
# Poissons Ratio (z) = 0.45608 0.50189
#
# Static dielectric constant tensor:
#      x y z
#    x 3.444300 0.000000 0.000000 
#    y 0.000000 3.363850 0.000000 
#    z 0.000000 0.000000 3.675620 
# 
# 
# High freq. dielectric constant tensor:
#      x y z
#    x 1.724530 0.000000 0.000000 
#    y 0.000000 1.722840 0.000000 
#    z 0.000000 0.000000 1.743860 
# 
# From -- ./inp_files/2606.got.cif
#   From: 2010.03.12/outbox.cif.g09.slc.cpg/sg72_2_cif.got.tgz:2606.got - 2010.04.16 14:54:00.
