data_PCOD8294851
_publ_section_title
;
Structure prediction by ZEFSAII (Michael W. Deem and Ramdas Pophale) SiO2 
 PCOD8294851
Probable space group: I B A M
;
_chemical_formula_sum "Si O2"
_cell_formula_units_Z 112
_cell_length_a 24.297422
_cell_length_b 11.213147
_cell_length_c 19.755135
_cell_angle_alpha 90.000000
_cell_angle_beta 90.000000
_cell_angle_gamma 90.000000
_cell_volume 5382.297685
_symmetry_space_group_name_H-M "I B A M"
_symmetry_group_IT_number 72
_symmetry_cell_setting 'orthorhombic'
loop_
_space_group_symop_operation_xyz
x,y,z
-x,-y,z
x,-y,1/2-z
-x,y,1/2-z
-x,-y,-z
x,y,-z
-x,y,1/2+z
x,-y,1/2+z
1/2+x,1/2+y,1/2+z
1/2-x,1/2-y,1/2+z
1/2+x,1/2-y,-z
1/2-x,1/2+y,-z
1/2-x,1/2-y,1/2-z
1/2+x,1/2+y,1/2-z
1/2-x,1/2+y,z
1/2+x,1/2-y,z
loop_
_atom_site_type_symbol
_atom_site_label
_atom_site_fract_x
_atom_site_fract_y
_atom_site_fract_z
Si Si1 0.634668 0.555241 0.820857
Si Si2 0.311709 0.785012 0.261819
Si Si3 0.303239 0.392224 0.573844
Si Si4 0.018735 0.628410 0.420454
Si Si5 0.860358 0.337517 0.381840
Si Si6 0.822065 0.402965 0.892957
Si Si7 0.084173 0.214313 0.576387
O O1 0.611504 0.500000 0.750000
O O2 0.667176 0.671818 0.802026
O O3 0.674948 0.465947 0.861477
O O4 0.588167 0.599692 0.873605
O O5 0.250000 0.750000 0.250000
O O6 0.344794 0.817175 0.195566
O O7 0.317716 0.897674 0.311489
O O8 0.317514 0.450560 0.500000
O O9 0.330961 0.262448 0.573452
O O10 0.237703 0.376653 0.576463
O O11 0.029815 0.620601 0.500000
O O12 0.073898 0.673358 0.384402
O O13 0.000000 0.500000 0.392137
O O14 0.971363 0.720705 0.401062
O O15 0.841648 0.464487 0.411952
O O16 0.865006 0.306808 0.921764
O O17 0.079323 0.165496 0.500000
#
# Coordination Sequence:
#
# PCOD8294851 Si02
#       7
#    16  16  16  16  16  16  16
#     4  11  22  43  66  89 130 178 223 275 339 403
#     4  11  21  41  66  92 131 181 217 267 330 408
#     4  12  26  40  64 101 137 173 225 281 334 410
#     4  10  21  42  68  98 136 174 220 283 343 400
#     4  12  23  41  69 100 133 173 225 271 341 404
#     4  11  23  39  63  99 136 174 216 272 345 401
#     4  10  22  41  68  97 130 176 226 276 342 402
#
# _framework density 20.808956999999999
#
# number of rings (size 3 to 8) (size 9 to 14) (size 15 to 20)
#    0.000    1.000    4.286    2.571    2.000    1.714 
#    0.000    3.571    3.143    2.571    0.000    0.000 
#    0.000    0.000    0.000    0.000    0.000    0.000 
#
# Total GULP energy -694225.641094 kJ/mol
# GULP energy per Si atom -12396.886448 kJ/mol
# Density = 2.076159 g / cm^3
# Si number density = 20.808957 Si / 1000 Ang^3
#
#
#
# Elastic Constant Matrix: (Units=GPa)
#
#
# Indices 1 2 3 4 5 6 
#
# 1 151.4122 43.0621 39.6915 0.0000 0.0000 0.0000
# 2 43.0621 83.4681 23.9068 0.0000 0.0000 0.0000
# 3 39.6915 23.9068 126.5262 0.0000 0.0000 0.0000
# 4 0.0000 0.0000 0.0000 32.0610 0.0000 0.0000
# 5 0.0000 0.0000 0.0000 0.0000 31.3155 0.0000
# 6 0.0000 0.0000 0.0000 0.0000 0.0000 33.9332
#
#
#
# Elastic Compliance Matrix: (Units=1/GPa)
#
#
# Indices 1 2 3 4 5 6 
#
# 1 0.008134 -0.003664 -0.001859 0.000000 0.000000 0.000000
# 2 -0.003664 0.014316 -0.001556 0.000000 0.000000 0.000000
# 3 -0.001859 -0.001556 0.008781 0.000000 0.000000 0.000000
# 4 0.000000 0.000000 0.000000 0.031191 0.000000 0.000000
# 5 0.000000 0.000000 0.000000 0.000000 0.031933 0.000000
# 6 0.000000 0.000000 0.000000 0.000000 0.000000 0.029470
#
#
# Mechanical properties :
#
#
# Convention : Reuss Voigt Hill
#
# Bulk Modulus (GPa) = 58.57098 63.85859 61.21479
# Shear Modulus (GPa) = 34.80121 36.44501 35.62311
#
# Velocity S-wave (km/s) = 4.09395 4.18953 4.14202
# Velocity P-wave (km/s) = 7.11023 7.35918 7.23577
#
# Compressibility (1/GPa) = 0.01707330
#
# Stress axis : x y z
#
# Youngs Moduli (GPa) = 122.94214 69.84988 113.88578
#
# Poissons Ratio (x) = 0.25592 0.21175
# Poissons Ratio (y) = 0.45044 0.17717
# Poissons Ratio (z) = 0.22859 0.10867
#
# Static dielectric constant tensor:
#      x y z
#    x 3.611000 0.000000 0.000000 
#    y 0.000000 3.838470 0.000000 
#    z 0.000000 0.000000 3.972930 
# 
# 
# High freq. dielectric constant tensor:
#      x y z
#    x 1.805120 0.000000 0.000000 
#    y 0.000000 1.816680 0.000000 
#    z 0.000000 0.000000 1.827900 
# 
# From -- ./inp_files/40360.got.cif
#   From: 2010.03.12/outbox.cif.g09.slc.cpg/sg72_21_cif.got.tgz:40360.got - 2010.04.16 14:54:00.
