data_PCOD8294319
_publ_section_title
;
Structure prediction by ZEFSAII (Michael W. Deem and Ramdas Pophale) SiO2 
 PCOD8294319
Probable space group: I B A M
;
_chemical_formula_sum "Si O2"
_cell_formula_units_Z 68
_cell_length_a 23.062490
_cell_length_b 10.396170
_cell_length_c 14.578644
_cell_angle_alpha 90.000000
_cell_angle_beta 90.000000
_cell_angle_gamma 90.000000
_cell_volume 3495.398525
_symmetry_space_group_name_H-M "I B A M"
_symmetry_group_IT_number 72
_symmetry_cell_setting 'orthorhombic'
loop_
_space_group_symop_operation_xyz
x,y,z
-x,-y,z
x,-y,1/2-z
-x,y,1/2-z
-x,-y,-z
x,y,-z
-x,y,1/2+z
x,-y,1/2+z
1/2+x,1/2+y,1/2+z
1/2-x,1/2-y,1/2+z
1/2+x,1/2-y,-z
1/2-x,1/2+y,-z
1/2-x,1/2-y,1/2-z
1/2+x,1/2+y,1/2-z
1/2-x,1/2+y,z
1/2+x,1/2-y,z
loop_
_atom_site_type_symbol
_atom_site_label
_atom_site_fract_x
_atom_site_fract_y
_atom_site_fract_z
Si Si1 0.809917 0.205407 0.000000
Si Si2 0.000000 0.500000 0.250000
Si Si3 0.600018 0.333032 0.654139
Si Si4 0.887042 0.876955 0.860217
Si Si5 0.983658 0.688678 0.101504
Si Si6 0.210407 0.912018 0.500000
O O1 0.849575 0.220546 0.910406
O O2 0.776883 0.066521 0.000000
O O3 0.768173 0.328087 0.000000
O O4 0.962168 0.584909 0.177934
O O5 0.585859 0.480868 0.631944
O O6 0.622801 0.325213 0.757867
O O7 0.541969 0.251271 0.641728
O O8 0.933117 0.790428 0.912618
O O9 0.825098 0.873134 0.909438
O O10 0.995676 0.629321 0.000000
#
# Coordination Sequence:
#
# PCOD8294319 Si02
#       6
#     8   4  16  16  16   8
#     4  10  22  41  59  88 118 155 208 256 298 351
#     4  12  26  40  50  86 140 156 194 230 292 384
#     4  10  20  37  64  90 118 150 195 247 299 356
#     4  10  20  37  64  90 118 150 195 247 299 356
#     4  12  22  38  60  89 121 158 192 240 301 355
#     4  10  22  41  59  88 118 155 208 256 298 351
#
# _framework density 19.454146999999999
#
# number of rings (size 3 to 8) (size 9 to 14) (size 15 to 20)
#    0.000    1.412    4.706    1.059    0.000    3.765 
#    4.235    0.000    0.000    0.000    0.000    0.000 
#    0.000    0.000    0.000    0.000    0.000    0.000 
#
# Total GULP energy -421407.016573 kJ/mol
# GULP energy per Si atom -12394.324017 kJ/mol
# Density = 1.940987 g / cm^3
# Si number density = 19.454147 Si / 1000 Ang^3
#
#
#
# Elastic Constant Matrix: (Units=GPa)
#
#
# Indices 1 2 3 4 5 6 
#
# 1 67.0207 36.7681 13.3954 0.0000 0.0000 0.0000
# 2 36.7681 77.5362 25.1584 0.0000 0.0000 0.0000
# 3 13.3954 25.1584 140.8484 0.0000 0.0000 0.0000
# 4 0.0000 0.0000 0.0000 25.1686 0.0000 0.0000
# 5 0.0000 0.0000 0.0000 0.0000 16.4756 0.0000
# 6 0.0000 0.0000 0.0000 0.0000 0.0000 29.9499
#
#
#
# Elastic Compliance Matrix: (Units=1/GPa)
#
#
# Indices 1 2 3 4 5 6 
#
# 1 0.020174 -0.009494 -0.000223 0.000000 0.000000 0.000000
# 2 -0.009494 0.018159 -0.002341 0.000000 0.000000 0.000000
# 3 -0.000223 -0.002341 0.007539 0.000000 0.000000 0.000000
# 4 0.000000 0.000000 0.000000 0.039732 0.000000 0.000000
# 5 0.000000 0.000000 0.000000 0.000000 0.060696 0.000000
# 6 0.000000 0.000000 0.000000 0.000000 0.000000 0.033389
#
#
# Mechanical properties :
#
#
# Convention : Reuss Voigt Hill
#
# Bulk Modulus (GPa) = 45.96307 48.44992 47.20649
# Shear Modulus (GPa) = 23.69033 28.32437 26.00735
#
# Velocity S-wave (km/s) = 3.49342 3.81984 3.66027
# Velocity P-wave (km/s) = 6.32057 6.66435 6.49474
#
# Compressibility (1/GPa) = 0.02175660
#
# Stress axis : x y z
#
# Youngs Moduli (GPa) = 49.56886 55.06929 132.64191
#
# Poissons Ratio (x) = 0.52285 0.02955
# Poissons Ratio (y) = 0.47062 0.31046
# Poissons Ratio (z) = 0.01104 0.12890
#
# Static dielectric constant tensor:
#      x y z
#    x 3.165620 0.000000 0.000000 
#    y 0.000000 3.662100 0.000000 
#    z 0.000000 0.000000 3.979700 
# 
# 
# High freq. dielectric constant tensor:
#      x y z
#    x 1.718670 0.000000 0.000000 
#    y 0.000000 1.756980 0.000000 
#    z 0.000000 0.000000 1.789550 
# 
# From -- ./inp_files/25684.got.cif
#   From: 2010.03.12/outbox.cif.g09.slc.cpg/sg72_13_cif.got.tgz:25684.got - 2010.04.16 14:54:00.
