data_PCOD8294332
_publ_section_title
;
Structure prediction by ZEFSAII (Michael W. Deem and Ramdas Pophale) SiO2 
 PCOD8294332
Probable space group: I B A M
;
_chemical_formula_sum "Si O2"
_cell_formula_units_Z 64
_cell_length_a 9.459295
_cell_length_b 37.826350
_cell_length_c 9.649638
_cell_angle_alpha 90.000000
_cell_angle_beta 90.000000
_cell_angle_gamma 90.000000
_cell_volume 3452.742796
_symmetry_space_group_name_H-M "I B A M"
_symmetry_group_IT_number 72
_symmetry_cell_setting 'orthorhombic'
loop_
_space_group_symop_operation_xyz
x,y,z
-x,-y,z
x,-y,1/2-z
-x,y,1/2-z
-x,-y,-z
x,y,-z
-x,y,1/2+z
x,-y,1/2+z
1/2+x,1/2+y,1/2+z
1/2-x,1/2-y,1/2+z
1/2+x,1/2-y,-z
1/2-x,1/2+y,-z
1/2-x,1/2-y,1/2-z
1/2+x,1/2+y,1/2-z
1/2-x,1/2+y,z
1/2+x,1/2-y,z
loop_
_atom_site_type_symbol
_atom_site_label
_atom_site_fract_x
_atom_site_fract_y
_atom_site_fract_z
Si Si1 0.854059 0.030537 0.335414
Si Si2 0.214869 0.707431 0.500000
Si Si3 0.393875 0.775771 0.500000
Si Si4 0.840002 0.330429 0.230214
Si Si5 0.366354 0.608306 0.155108
O O1 0.869612 0.020982 0.500000
O O2 0.791923 0.070066 0.316421
O O3 0.000000 0.031959 0.250000
O O4 0.765057 0.000000 0.250000
O O5 0.338603 0.736010 0.500000
O O6 0.233767 0.681484 0.371037
O O7 0.063383 0.726772 0.500000
O O8 0.336898 0.796083 0.633536
O O9 0.754707 0.362732 0.167466
O O10 0.000000 0.343825 0.250000
O O11 0.500000 0.616963 0.250000
O O12 0.427425 0.608437 0.000000
#
# Coordination Sequence:
#
# PCOD8294332 Si02
#       5
#    16   8   8  16  16
#     4   9  16  28  47  73 105 139 171 212 264 310
#     4  10  22  34  56  82 101 138 177 217 268 321
#     4  10  20  38  56  76 107 136 175 221 268 317
#     4  10  21  38  56  77 108 145 179 215 266 321
#     4  10  21  35  54  81 111 141 179 224 265 312
#
# _framework density 18.535986999999999
#
# number of rings (size 3 to 8) (size 9 to 14) (size 15 to 20)
#    0.000    2.250    1.250    2.250    1.750    3.000 
#    0.000    0.000    0.000    0.750    0.000    3.500 
#    0.000    0.000    0.000    0.000    0.000    0.000 
#
# Total GULP energy -396493.036017 kJ/mol
# GULP energy per Si atom -12390.407376 kJ/mol
# Density = 1.849380 g / cm^3
# Si number density = 18.535987 Si / 1000 Ang^3
#
#
#
# Elastic Constant Matrix: (Units=GPa)
#
#
# Indices 1 2 3 4 5 6 
#
# 1 37.3112 26.8859 9.7981 -0.0178 -0.0072 -0.0061
# 2 26.8859 88.7353 18.3049 -0.0170 -0.0076 -0.0102
# 3 9.7981 18.3049 112.7241 -0.0262 -0.0177 -0.0184
# 4 -0.0178 -0.0170 -0.0262 55.5141 0.0067 0.0022
# 5 -0.0072 -0.0076 -0.0177 0.0067 31.9143 0.0080
# 6 -0.0061 -0.0102 -0.0184 0.0022 0.0080 11.9068
#
#
#
# Elastic Compliance Matrix: (Units=1/GPa)
#
#
# Indices 1 2 3 4 5 6 
#
# 1 0.034484 -0.010171 -0.001346 0.000007 0.000005 0.000007
# 2 -0.010171 0.014660 -0.001497 0.000001 0.000000 0.000005
# 3 -0.001346 -0.001497 0.009231 0.000003 0.000004 0.000012
# 4 0.000007 0.000001 0.000003 0.018013 -0.000004 -0.000003
# 5 0.000005 0.000000 0.000004 -0.000004 0.031334 -0.000021
# 6 0.000007 0.000005 0.000012 -0.000003 -0.000021 0.083985
#
#
# Mechanical properties :
#
#
# Convention : Reuss Voigt Hill
#
# Bulk Modulus (GPa) = 30.91288 38.74982 34.83135
# Shear Modulus (GPa) = 21.88026 32.11916 26.99971
#
# Velocity S-wave (km/s) = 3.43945 4.16721 3.82070
# Velocity P-wave (km/s) = 5.69970 6.64114 6.18835
#
# Compressibility (1/GPa) = 0.03234897
#
# Stress axis : x y z
#
# Youngs Moduli (GPa) = 28.99904 68.21381 108.32812
#
# Poissons Ratio (x) = 0.69378 0.14579
# Poissons Ratio (y) = 0.29494 0.16211
# Poissons Ratio (z) = 0.03903 0.10208
#
# Static dielectric constant tensor:
#      x y z
#    x 2.955260 -0.000010 0.000000 
#    y -0.000010 4.097650 -0.000030 
#    z 0.000000 -0.000030 3.720630 
# 
# 
# High freq. dielectric constant tensor:
#      x y z
#    x 1.666850 0.000000 0.000000 
#    y 0.000000 1.734840 0.000000 
#    z 0.000000 0.000000 1.744220 
# 
# From -- ./inp_files/2645.got.cif
#   From: 2010.03.12/outbox.cif.g09.slc.cpg/sg72_2_cif.got.tgz:2645.got - 2010.04.16 14:54:00.
