data_PCOD8294542
_publ_section_title
;
Structure prediction by ZEFSAII (Michael W. Deem and Ramdas Pophale) SiO2 
 PCOD8294542
Probable space group: I B A M
;
_chemical_formula_sum "Si O2"
_cell_formula_units_Z 88
_cell_length_a 20.851038
_cell_length_b 22.437399
_cell_length_c 9.365600
_cell_angle_alpha 90.000000
_cell_angle_beta 90.000000
_cell_angle_gamma 90.000000
_cell_volume 4381.630955
_symmetry_space_group_name_H-M "I B A M"
_symmetry_group_IT_number 72
_symmetry_cell_setting 'orthorhombic'
loop_
_space_group_symop_operation_xyz
x,y,z
-x,-y,z
x,-y,1/2-z
-x,y,1/2-z
-x,-y,-z
x,y,-z
-x,y,1/2+z
x,-y,1/2+z
1/2+x,1/2+y,1/2+z
1/2-x,1/2-y,1/2+z
1/2+x,1/2-y,-z
1/2-x,1/2+y,-z
1/2-x,1/2-y,1/2-z
1/2+x,1/2+y,1/2-z
1/2-x,1/2+y,z
1/2+x,1/2-y,z
loop_
_atom_site_type_symbol
_atom_site_label
_atom_site_fract_x
_atom_site_fract_y
_atom_site_fract_z
Si Si1 0.344542 0.338010 0.339144
Si Si2 0.000000 0.649369 0.750000
Si Si3 0.605878 0.235558 0.654859
Si Si4 0.295553 0.134084 0.834465
Si Si5 0.105604 0.441245 0.836226
Si Si6 0.441685 0.440248 0.664166
O O1 0.335080 0.315308 0.500000
O O2 0.390102 0.289047 0.266325
O O3 0.274786 0.350869 0.271063
O O4 0.379152 0.400707 0.331102
O O5 0.042766 0.693958 0.844243
O O6 0.047950 0.607065 0.660810
O O7 0.608236 0.265823 0.500000
O O8 0.667641 0.195610 0.681410
O O9 0.330228 0.083769 0.739359
O O10 0.293208 0.112295 0.000000
O O11 0.083222 0.500000 0.750000
O O12 0.121296 0.457877 0.000000
O O13 0.425350 0.500000 0.750000
O O14 0.500000 0.408363 0.750000
O O15 0.461422 0.453225 0.500000
#
# Coordination Sequence:
#
# PCOD8294542 Si02
#       6
#    16   8  16  16  16  16
#     4  10  22  38  59  86 117 151 189 236 291 350
#     4  10  23  40  58  86 121 160 202 244 294 350
#     4  10  21  36  58  85 115 153 196 240 286 341
#     4   9  20  40  59  82 118 155 194 240 289 344
#     4  11  23  39  62  89 120 158 202 249 298 353
#     4  10  21  38  58  81 109 143 181 228 282 338
#
# _framework density 20.083846000000001
#
# number of rings (size 3 to 8) (size 9 to 14) (size 15 to 20)
#    0.000    2.000    0.000    3.000    1.273    9.455 
#    0.000    1.818    0.000    0.000    0.000    0.000 
#    0.000    0.000    0.000    0.000    0.000    0.000 
#
# Total GULP energy -545345.150501 kJ/mol
# GULP energy per Si atom -12394.207966 kJ/mol
# Density = 2.003813 g / cm^3
# Si number density = 20.083846 Si / 1000 Ang^3
#
#
#
# Elastic Constant Matrix: (Units=GPa)
#
#
# Indices 1 2 3 4 5 6 
#
# 1 110.7134 56.8186 38.7173 0.0000 0.0000 0.0000
# 2 56.8186 79.9861 52.3523 0.0000 0.0000 0.0000
# 3 38.7173 52.3523 129.3910 0.0000 0.0000 0.0000
# 4 0.0000 0.0000 0.0000 29.1121 0.0000 0.0000
# 5 0.0000 0.0000 0.0000 0.0000 19.9172 0.0000
# 6 0.0000 0.0000 0.0000 0.0000 0.0000 23.8141
#
#
#
# Elastic Compliance Matrix: (Units=1/GPa)
#
#
# Indices 1 2 3 4 5 6 
#
# 1 0.014219 -0.009951 -0.000228 0.000000 0.000000 0.000000
# 2 -0.009951 0.023970 -0.006721 0.000000 0.000000 0.000000
# 3 -0.000228 -0.006721 0.010516 0.000000 0.000000 0.000000
# 4 0.000000 0.000000 0.000000 0.034350 0.000000 0.000000
# 5 0.000000 0.000000 0.000000 0.000000 0.050208 0.000000
# 6 0.000000 0.000000 0.000000 0.000000 0.000000 0.041992
#
#
# Mechanical properties :
#
#
# Convention : Reuss Voigt Hill
#
# Bulk Modulus (GPa) = 67.09369 68.42964 67.76166
# Shear Modulus (GPa) = 23.36190 26.04884 24.70537
#
# Velocity S-wave (km/s) = 3.41430 3.60530 3.51110
# Velocity P-wave (km/s) = 7.00161 7.17474 7.08870
#
# Compressibility (1/GPa) = 0.01490453
#
# Stress axis : x y z
#
# Youngs Moduli (GPa) = 70.32733 41.71910 95.09231
#
# Poissons Ratio (x) = 0.41515 0.02173
# Poissons Ratio (y) = 0.69984 0.63908
# Poissons Ratio (z) = 0.01607 0.28038
#
# Static dielectric constant tensor:
#      x y z
#    x 3.805820 0.000000 0.000000 
#    y 0.000000 3.508740 0.000000 
#    z 0.000000 0.000000 3.698790 
# 
# 
# High freq. dielectric constant tensor:
#      x y z
#    x 1.790790 0.000000 0.000000 
#    y 0.000000 1.779170 0.000000 
#    z 0.000000 0.000000 1.781320 
# 
# From -- ./inp_files/6853.got.cif
#   From: 2010.03.12/outbox.cif.g09.slc.cpg/sg72_4_cif.got.tgz:6853.got - 2010.04.16 14:54:00.
