data_PCOD8294320
_publ_section_title
;
Structure prediction by ZEFSAII (Michael W. Deem and Ramdas Pophale) SiO2 
 PCOD8294320
Probable space group: I B A M
;
_chemical_formula_sum "Si O2"
_cell_formula_units_Z 112
_cell_length_a 12.371097
_cell_length_b 15.694647
_cell_length_c 26.542361
_cell_angle_alpha 90.000000
_cell_angle_beta 90.000000
_cell_angle_gamma 90.000000
_cell_volume 5153.464823
_symmetry_space_group_name_H-M "I B A M"
_symmetry_group_IT_number 72
_symmetry_cell_setting 'orthorhombic'
loop_
_space_group_symop_operation_xyz
x,y,z
-x,-y,z
x,-y,1/2-z
-x,y,1/2-z
-x,-y,-z
x,y,-z
-x,y,1/2+z
x,-y,1/2+z
1/2+x,1/2+y,1/2+z
1/2-x,1/2-y,1/2+z
1/2+x,1/2-y,-z
1/2-x,1/2+y,-z
1/2-x,1/2-y,1/2-z
1/2+x,1/2+y,1/2-z
1/2-x,1/2+y,z
1/2+x,1/2-y,z
loop_
_atom_site_type_symbol
_atom_site_label
_atom_site_fract_x
_atom_site_fract_y
_atom_site_fract_z
Si Si1 0.843301 0.688854 0.294735
Si Si2 0.186205 0.337182 0.815029
Si Si3 0.519345 0.364967 0.443592
Si Si4 0.999873 0.298923 0.881172
Si Si5 0.659809 0.488385 0.911348
Si Si6 0.290817 0.516418 0.195815
Si Si7 0.099917 0.556888 0.059169
O O1 0.876743 0.692408 0.235943
O O2 0.792065 0.777496 0.314717
O O3 0.949920 0.679083 0.327214
O O4 0.766719 0.607724 0.303909
O O5 0.208249 0.438014 0.812599
O O6 0.124465 0.320946 0.868294
O O7 0.527516 0.325883 0.500000
O O8 0.507702 0.297014 0.399598
O O9 0.410495 0.421038 0.442227
O O10 0.627930 0.418872 0.432524
O O11 0.936434 0.349463 0.924583
O O12 0.627908 0.483545 0.851838
O O13 0.787831 0.472195 0.915899
O O14 0.349883 0.500000 0.250000
O O15 0.000000 0.500000 0.077996
O O16 0.116590 0.552692 0.000000
#
# Coordination Sequence:
#
# PCOD8294320 Si02
#       7
#    16  16  16  16  16  16  16
#     4  10  21  39  59  91 129 171 215 256 321 389
#     4  10  22  38  60  91 132 169 211 264 316 393
#     4  11  25  43  67  94 124 173 226 269 326 395
#     4  12  23  37  63  92 124 165 209 269 320 379
#     4  11  21  45  69  91 130 172 215 269 331 391
#     4  10  20  37  64  94 130 170 210 260 323 397
#     4  11  24  41  63  91 126 166 214 270 327 382
#
# _framework density 21.732952000000001
#
# number of rings (size 3 to 8) (size 9 to 14) (size 15 to 20)
#    0.000    1.286    1.429    5.143    0.000    0.000 
#    0.000    5.000    0.000    0.000    0.000    0.000 
#    0.000    0.000    0.000    0.000    0.000    0.000 
#
# Total GULP energy -693970.275624 kJ/mol
# GULP energy per Si atom -12392.326350 kJ/mol
# Density = 2.168349 g / cm^3
# Si number density = 21.732952 Si / 1000 Ang^3
#
#
#
# Elastic Constant Matrix: (Units=GPa)
#
#
# Indices 1 2 3 4 5 6 
#
# 1 59.2920 11.5053 12.1475 0.0000 0.0000 0.0000
# 2 11.5053 84.0199 14.3527 0.0000 0.0000 0.0000
# 3 12.1475 14.3527 94.5561 0.0000 0.0000 0.0000
# 4 0.0000 0.0000 0.0000 25.6877 0.0000 0.0000
# 5 0.0000 0.0000 0.0000 0.0000 26.4718 0.0000
# 6 0.0000 0.0000 0.0000 0.0000 0.0000 17.4661
#
#
#
# Elastic Compliance Matrix: (Units=1/GPa)
#
#
# Indices 1 2 3 4 5 6 
#
# 1 0.017671 -0.002086 -0.001953 0.000000 0.000000 0.000000
# 2 -0.002086 0.012465 -0.001624 0.000000 0.000000 0.000000
# 3 -0.001953 -0.001624 0.011073 0.000000 0.000000 0.000000
# 4 0.000000 0.000000 0.000000 0.038929 0.000000 0.000000
# 5 0.000000 0.000000 0.000000 0.000000 0.037776 0.000000
# 6 0.000000 0.000000 0.000000 0.000000 0.000000 0.057254
#
#
# Mechanical properties :
#
#
# Convention : Reuss Voigt Hill
#
# Bulk Modulus (GPa) = 33.46528 34.87545 34.17037
# Shear Modulus (GPa) = 25.45104 27.24930 26.35017
#
# Velocity S-wave (km/s) = 3.42582 3.54478 3.48581
# Velocity P-wave (km/s) = 5.57496 5.73027 5.65315
#
# Compressibility (1/GPa) = 0.02988172
#
# Stress axis : x y z
#
# Youngs Moduli (GPa) = 56.59089 80.22444 90.30804
#
# Poissons Ratio (x) = 0.16735 0.17642
# Poissons Ratio (y) = 0.11805 0.14667
# Poissons Ratio (z) = 0.11055 0.13029
#
# Static dielectric constant tensor:
#      x y z
#    x 3.762910 0.000000 0.000000 
#    y 0.000000 4.019850 0.000000 
#    z 0.000000 0.000000 3.936300 
# 
# 
# High freq. dielectric constant tensor:
#      x y z
#    x 1.829290 0.000000 0.000000 
#    y 0.000000 1.858690 0.000000 
#    z 0.000000 0.000000 1.874170 
# 
# From -- ./inp_files/51442.got.cif
#   From: 2010.03.12/outbox.cif.g09.slc.cpg/sg72_26_cif.got.tgz:51442.got - 2010.04.16 14:54:00.
