data_PCOD8294669
_publ_section_title
;
Structure prediction by ZEFSAII (Michael W. Deem and Ramdas Pophale) SiO2 
 PCOD8294669
Probable space group: I B A M
;
_chemical_formula_sum "Si O2"
_cell_formula_units_Z 96
_cell_length_a 12.509861
_cell_length_b 20.690817
_cell_length_c 17.003777
_cell_angle_alpha 90.000000
_cell_angle_beta 90.000000
_cell_angle_gamma 90.000000
_cell_volume 4401.244795
_symmetry_space_group_name_H-M "I B A M"
_symmetry_group_IT_number 72
_symmetry_cell_setting 'orthorhombic'
loop_
_space_group_symop_operation_xyz
x,y,z
-x,-y,z
x,-y,1/2-z
-x,y,1/2-z
-x,-y,-z
x,y,-z
-x,y,1/2+z
x,-y,1/2+z
1/2+x,1/2+y,1/2+z
1/2-x,1/2-y,1/2+z
1/2+x,1/2-y,-z
1/2-x,1/2+y,-z
1/2-x,1/2-y,1/2-z
1/2+x,1/2+y,1/2-z
1/2-x,1/2+y,z
1/2+x,1/2-y,z
loop_
_atom_site_type_symbol
_atom_site_label
_atom_site_fract_x
_atom_site_fract_y
_atom_site_fract_z
Si Si1 0.847468 0.820801 0.089337
Si Si2 0.389024 0.121322 0.587062
Si Si3 0.114128 0.652480 0.864826
Si Si4 0.389720 0.532052 0.091767
Si Si5 0.348316 0.782817 0.208609
Si Si6 0.327732 0.993512 0.659335
O O1 0.717736 0.814366 0.095712
O O2 0.890415 0.891720 0.110762
O O3 0.903276 0.772438 0.152979
O O4 0.879602 0.801751 0.000000
O O5 0.339677 0.126653 0.500000
O O6 0.504460 0.157391 0.586651
O O7 0.313266 0.159160 0.649335
O O8 0.397578 0.046546 0.612631
O O9 0.084518 0.684631 0.779936
O O10 0.138355 0.577014 0.865355
O O11 0.500000 0.500000 0.119378
O O12 0.297234 0.495695 0.139864
O O13 0.368115 0.520286 0.000000
O O14 0.250000 0.750000 0.250000
O O15 0.351560 0.000000 0.750000
#
# Coordination Sequence:
#
# PCOD8294669 Si02
#       6
#    16  16  16  16  16  16
#     4   9  18  36  62  88 120 161 206 254 307 362
#     4  12  24  38  62  95 127 158 203 255 304 368
#     4  10  21  38  61  87 126 165 199 244 309 373
#     4   9  19  38  62  88 120 156 202 257 310 363
#     4  10  21  38  59  83 119 166 207 248 299 364
#     4  11  22  37  61  88 124 161 200 249 310 370
#
# _framework density 21.812010999999998
#
# number of rings (size 3 to 8) (size 9 to 14) (size 15 to 20)
#    0.000    1.833    1.667    2.500    0.000    3.667 
#    0.000    5.000    0.000    2.000    0.000    0.000 
#    0.000    0.000    0.000    0.000    0.000    0.000 
#
# Total GULP energy -594768.614892 kJ/mol
# GULP energy per Si atom -12391.012810 kJ/mol
# Density = 2.176237 g / cm^3
# Si number density = 21.812011 Si / 1000 Ang^3
#
#
#
# Elastic Constant Matrix: (Units=GPa)
#
#
# Indices 1 2 3 4 5 6 
#
# 1 64.8069 17.2676 5.2115 0.0000 0.0000 0.0002
# 2 17.2676 94.0486 35.1348 0.0000 0.0000 -0.0015
# 3 5.2115 35.1348 115.3737 0.0000 0.0000 -0.0020
# 4 0.0000 0.0000 0.0000 38.4638 0.0000 -0.0012
# 5 0.0000 0.0000 0.0000 0.0000 39.9871 0.0020
# 6 0.0002 -0.0015 -0.0020 -0.0012 0.0020-1553.4004
#
#
#
# Elastic Compliance Matrix: (Units=1/GPa)
#
#
# Indices 1 2 3 4 5 6 
#
# 1 0.016228 -0.003053 0.000197 0.000000 0.000000 0.000000
# 2 -0.003053 0.012572 -0.003691 0.000000 0.000000 0.000000
# 3 0.000197 -0.003691 0.009783 0.000000 0.000000 0.000000
# 4 0.000000 0.000000 0.000000 0.025999 0.000000 0.000000
# 5 0.000000 0.000000 0.000000 0.000000 0.025008 0.000000
# 6 0.000000 0.000000 0.000000 0.000000 0.000000 -0.000644
#
#
# Mechanical properties :
#
#
# Convention : Reuss Voigt Hill
#
# Bulk Modulus (GPa) = 39.23298 43.27299 41.25299
# Shear Modulus (GPa) = 45.23423 -280.54887 -117.65732
#
# Velocity S-wave (km/s) = 4.55886 -11.35344 -7.35246
# Velocity P-wave (km/s) = 6.76291 12.32823 7.28863
#
# Compressibility (1/GPa) = 0.02548876
#
# Stress axis : x y z
#
# Youngs Moduli (GPa) = 61.62151 79.54117 102.22311
#
# Poissons Ratio (x) = 0.24284 -0.02011
# Poissons Ratio (y) = 0.18813 0.37727
# Poissons Ratio (z) = -0.01212 0.29356
#
# Static dielectric constant tensor:
#      x y z
#    x 3.838360 0.000000 0.000000 
#    y 0.000000 4.716470 0.000000 
#    z 0.000000 0.000000 4.298370 
# 
# 
# High freq. dielectric constant tensor:
#      x y z
#    x 1.829030 0.000000 0.000000 
#    y 0.000000 1.866380 0.000000 
#    z 0.000000 0.000000 1.865070 
# 
# From -- ./inp_files/21864.got.cif
#   From: 2010.03.12/outbox.cif.g09.slc.cpg/sg72_11_cif.got.tgz:21864.got - 2010.04.16 14:54:00.
