data_PCOD8294732
_publ_section_title
;
Structure prediction by ZEFSAII (Michael W. Deem and Ramdas Pophale) SiO2 
 PCOD8294732
Probable space group: I B A M
;
_chemical_formula_sum "Si O2"
_cell_formula_units_Z 88
_cell_length_a 21.486501
_cell_length_b 22.114938
_cell_length_c 9.675757
_cell_angle_alpha 90.000000
_cell_angle_beta 90.000000
_cell_angle_gamma 90.000000
_cell_volume 4597.654973
_symmetry_space_group_name_H-M "I B A M"
_symmetry_group_IT_number 72
_symmetry_cell_setting 'orthorhombic'
loop_
_space_group_symop_operation_xyz
x,y,z
-x,-y,z
x,-y,1/2-z
-x,y,1/2-z
-x,-y,-z
x,y,-z
-x,y,1/2+z
x,-y,1/2+z
1/2+x,1/2+y,1/2+z
1/2-x,1/2-y,1/2+z
1/2+x,1/2-y,-z
1/2-x,1/2+y,-z
1/2-x,1/2-y,1/2-z
1/2+x,1/2+y,1/2-z
1/2-x,1/2+y,z
1/2+x,1/2-y,z
loop_
_atom_site_type_symbol
_atom_site_label
_atom_site_fract_x
_atom_site_fract_y
_atom_site_fract_z
Si Si1 0.187163 0.378822 0.229241
Si Si2 0.356286 0.683959 0.000000
Si Si3 0.244037 0.548248 0.500000
Si Si4 0.429880 0.700029 0.727176
Si Si5 0.729707 0.210709 0.000000
Si Si6 0.149799 0.148077 0.500000
Si Si7 0.261109 0.407443 0.500000
Si Si8 0.940237 0.337528 0.841360
O O1 0.203422 0.320136 0.138859
O O2 0.228791 0.380459 0.365202
O O3 0.115463 0.376167 0.274298
O O4 0.202309 0.437735 0.135479
O O5 0.397571 0.703390 0.126823
O O6 0.333524 0.614392 0.000000
O O7 0.290967 0.720292 0.000000
O O8 0.307486 0.588149 0.500000
O O9 0.263078 0.479252 0.500000
O O10 0.500000 0.677224 0.750000
O O11 0.394251 0.650752 0.633811
O O12 0.427367 0.765896 0.658067
O O13 0.804632 0.206706 0.000000
O O14 0.000000 0.353615 0.750000
O O15 0.950751 0.357931 0.000000
#
# Coordination Sequence:
#
# PCOD8294732 Si02
#       8
#    16   8   8  16   8   8   8  16
#     4  10  21  39  60  87 121 154 195 251 302 364
#     4  12  23  34  60  89 126 156 199 250 291 372
#     4  10  24  43  63  82 116 160 202 257 314 349
#     4  11  23  36  57  88 127 162 194 237 299 369
#     4  10  22  34  57  92 126 156 187 243 321 358
#     4  10  21  40  58  83 121 159 193 259 296 357
#     4  12  24  39  62  90 111 160 208 249 304 358
#     4  11  23  36  60  91 128 162 197 237 295 375
#
# _framework density 19.140191999999999
#
# number of rings (size 3 to 8) (size 9 to 14) (size 15 to 20)
#    0.000    1.455    3.636    3.273    8.909    1.455 
#    0.000    0.000    0.000    6.545    0.000    0.000 
#    0.000    0.000    0.000    0.000    0.000    0.000 
#
# Total GULP energy -545582.031060 kJ/mol
# GULP energy per Si atom -12399.591615 kJ/mol
# Density = 1.909663 g / cm^3
# Si number density = 19.140192 Si / 1000 Ang^3
#
#
#
# Elastic Constant Matrix: (Units=GPa)
#
#
# Indices 1 2 3 4 5 6 
#
# 1 143.2579 42.5359 58.7036 0.0000 0.0000 0.0000
# 2 42.5359 75.5768 27.7391 0.0000 0.0000 0.0000
# 3 58.7036 27.7391 157.8324 0.0000 0.0000 0.0000
# 4 0.0000 0.0000 0.0000 0.7027 0.0000 0.0000
# 5 0.0000 0.0000 0.0000 0.0000 37.4178 0.0000
# 6 0.0000 0.0000 0.0000 0.0000 0.0000 15.1299
#
#
#
# Elastic Compliance Matrix: (Units=1/GPa)
#
#
# Indices 1 2 3 4 5 6 
#
# 1 0.009368 -0.004269 -0.002734 0.000000 0.000000 0.000000
# 2 -0.004269 0.016089 -0.001240 0.000000 0.000000 0.000000
# 3 -0.002734 -0.001240 0.007571 0.000000 0.000000 0.000000
# 4 0.000000 0.000000 0.000000 1.423096 0.000000 0.000000
# 5 0.000000 0.000000 0.000000 0.000000 0.026725 0.000000
# 6 0.000000 0.000000 0.000000 0.000000 0.000000 0.066094
#
#
# Mechanical properties :
#
#
# Convention : Reuss Voigt Hill
#
# Bulk Modulus (GPa) = 60.45172 70.51383 65.48277
# Shear Modulus (GPa) = 3.18280 27.16263 15.17272
#
# Velocity S-wave (km/s) = 1.29093 3.77124 2.81857
# Velocity P-wave (km/s) = 5.82016 7.47554 6.69917
#
# Compressibility (1/GPa) = 0.01654213
#
# Stress axis : x y z
#
# Youngs Moduli (GPa) = 106.74181 62.15263 132.08881
#
# Poissons Ratio (x) = 0.26534 0.36115
# Poissons Ratio (y) = 0.45570 0.16377
# Poissons Ratio (z) = 0.29185 0.07706
#
# Static dielectric constant tensor:
#      x y z
#    x 3.613540 0.000000 0.000000 
#    y 0.000000 3.113510 0.000000 
#    z 0.000000 0.000000 3.773230 
# 
# 
# High freq. dielectric constant tensor:
#      x y z
#    x 1.749010 0.000000 0.000000 
#    y 0.000000 1.702580 0.000000 
#    z 0.000000 0.000000 1.773190 
# 
# From -- ./inp_files/5823.got.cif
#   From: 2010.03.12/outbox.cif.g09.slc.cpg/sg72_3_cif.got.tgz:5823.got - 2010.04.16 14:54:00.
