data_PCOD8294405
_publ_section_title
;
Structure prediction by ZEFSAII (Michael W. Deem and Ramdas Pophale) SiO2 
 PCOD8294405
Probable space group: I B A M
;
_chemical_formula_sum "Si O2"
_cell_formula_units_Z 88
_cell_length_a 10.005159
_cell_length_b 15.484851
_cell_length_c 21.676852
_cell_angle_alpha 90.000000
_cell_angle_beta 90.000000
_cell_angle_gamma 90.000000
_cell_volume 3358.359918
_symmetry_space_group_name_H-M "I B A M"
_symmetry_group_IT_number 72
_symmetry_cell_setting 'orthorhombic'
loop_
_space_group_symop_operation_xyz
x,y,z
-x,-y,z
x,-y,1/2-z
-x,y,1/2-z
-x,-y,-z
x,y,-z
-x,y,1/2+z
x,-y,1/2+z
1/2+x,1/2+y,1/2+z
1/2-x,1/2-y,1/2+z
1/2+x,1/2-y,-z
1/2-x,1/2+y,-z
1/2-x,1/2-y,1/2-z
1/2+x,1/2+y,1/2-z
1/2-x,1/2+y,z
1/2+x,1/2-y,z
loop_
_atom_site_type_symbol
_atom_site_label
_atom_site_fract_x
_atom_site_fract_y
_atom_site_fract_z
Si Si1 0.962886 0.145017 0.643198
Si Si2 0.391406 0.063111 0.875727
Si Si3 0.918828 0.311060 0.427903
Si Si4 0.178658 0.159844 0.740747
Si Si5 0.327640 0.000000 0.750000
Si Si6 0.814681 0.944951 0.572538
O O1 0.058564 0.185476 0.695973
O O2 0.040616 0.072561 0.603781
O O3 0.897839 0.215695 0.598468
O O4 0.845530 0.115080 0.690421
O O5 0.441267 0.157007 0.897123
O O6 0.410070 0.053268 0.801664
O O7 0.500000 0.000000 0.908845
O O8 0.243697 0.037004 0.902288
O O9 0.942378 0.305735 0.500000
O O10 0.787855 0.367205 0.410957
O O11 0.250000 0.250000 0.750000
O O12 0.252664 0.076417 0.710519
O O13 0.838111 0.952101 0.500000
#
# Coordination Sequence:
#
# PCOD8294405 Si02
#       6
#    16  16  16  16   8  16
#     4  11  22  39  63  93 135 174 227 277 346 420
#     4  10  21  37  62  96 132 172 225 284 352 411
#     4  10  21  38  65  98 133 178 231 291 354 416
#     4  11  25  42  65  97 136 179 228 287 352 427
#     4  12  23  43  68  96 140 182 230 286 354 428
#     4  10  20  39  63  93 132 172 221 281 345 416
#
# _framework density 26.203265999999999
#
# number of rings (size 3 to 8) (size 9 to 14) (size 15 to 20)
#    0.000    1.455    1.818    3.545    2.545    3.636 
#    0.000    0.000    0.000    4.364    0.000    0.000 
#    0.000    0.000    0.000    0.000    0.000    0.000 
#
# Total GULP energy -545177.302060 kJ/mol
# GULP energy per Si atom -12390.393229 kJ/mol
# Density = 2.614363 g / cm^3
# Si number density = 26.203266 Si / 1000 Ang^3
#
#
#
# Elastic Constant Matrix: (Units=GPa)
#
#
# Indices 1 2 3 4 5 6 
#
# 1 36.5786 -2.2343 13.9374 0.0000 0.0000 0.0000
# 2 -2.2343 80.4849 9.2084 0.0000 0.0000 0.0000
# 3 13.9374 9.2084 148.5495 0.0000 0.0000 0.0000
# 4 0.0000 0.0000 0.0000 43.1038 0.0000 0.0000
# 5 0.0000 0.0000 0.0000 0.0000 34.5665 0.0000
# 6 0.0000 0.0000 0.0000 0.0000 0.0000 28.9462
#
#
#
# Elastic Compliance Matrix: (Units=1/GPa)
#
#
# Indices 1 2 3 4 5 6 
#
# 1 0.028449 0.001103 -0.002738 0.000000 0.000000 0.000000
# 2 0.001103 0.012556 -0.000882 0.000000 0.000000 0.000000
# 3 -0.002738 -0.000882 0.007043 0.000000 0.000000 0.000000
# 4 0.000000 0.000000 0.000000 0.023200 0.000000 0.000000
# 5 0.000000 0.000000 0.000000 0.000000 0.028930 0.000000
# 6 0.000000 0.000000 0.000000 0.000000 0.000000 0.034547
#
#
# Mechanical properties :
#
#
# Convention : Reuss Voigt Hill
#
# Bulk Modulus (GPa) = 23.24744 34.15956 28.70350
# Shear Modulus (GPa) = 32.44732 37.63675 35.04204
#
# Velocity S-wave (km/s) = 3.52276 3.79402 3.66090
# Velocity P-wave (km/s) = 5.04357 5.67956 5.37099
#
# Compressibility (1/GPa) = 0.04301549
#
# Stress axis : x y z
#
# Youngs Moduli (GPa) = 35.15087 79.64191 141.97955
#
# Poissons Ratio (x) = -0.08784 0.38867
# Poissons Ratio (y) = -0.03877 0.12520
# Poissons Ratio (z) = 0.09623 0.07023
#
# Static dielectric constant tensor:
#      x y z
#    x 5.018930 0.000000 0.000000 
#    y 0.000000 4.468060 0.000000 
#    z 0.000000 0.000000 4.775420 
# 
# 
# High freq. dielectric constant tensor:
#      x y z
#    x 2.055410 0.000000 0.000000 
#    y 0.000000 2.038630 0.000000 
#    z 0.000000 0.000000 2.069980 
# 
# From -- ./inp_files/36901.got.cif
#   From: 2010.03.12/outbox.cif.g09.slc.cpg/sg72_19_cif.got.tgz:36901.got - 2010.04.16 14:54:00.
