data_PCOD8294160
_publ_section_title
;
Structure prediction by ZEFSAII (Michael W. Deem and Ramdas Pophale) SiO2 
 PCOD8294160
Probable space group: I B A M
;
_chemical_formula_sum "Si O2"
_cell_formula_units_Z 128
_cell_length_a 23.615667
_cell_length_b 12.285072
_cell_length_c 23.085700
_cell_angle_alpha 90.000000
_cell_angle_beta 90.000000
_cell_angle_gamma 90.000000
_cell_volume 6697.627195
_symmetry_space_group_name_H-M "I B A M"
_symmetry_group_IT_number 72
_symmetry_cell_setting 'orthorhombic'
loop_
_space_group_symop_operation_xyz
x,y,z
-x,-y,z
x,-y,1/2-z
-x,y,1/2-z
-x,-y,-z
x,y,-z
-x,y,1/2+z
x,-y,1/2+z
1/2+x,1/2+y,1/2+z
1/2-x,1/2-y,1/2+z
1/2+x,1/2-y,-z
1/2-x,1/2+y,-z
1/2-x,1/2-y,1/2-z
1/2+x,1/2+y,1/2-z
1/2-x,1/2+y,z
1/2+x,1/2-y,z
loop_
_atom_site_type_symbol
_atom_site_label
_atom_site_fract_x
_atom_site_fract_y
_atom_site_fract_z
Si Si1 0.561120 0.202243 0.235047
Si Si2 0.951111 0.085430 0.339629
Si Si3 0.857077 0.731533 0.659973
Si Si4 0.111971 0.417099 0.869749
Si Si5 0.926927 0.630439 0.567067
Si Si6 0.838775 0.023889 0.816847
Si Si7 0.785709 0.528186 0.682259
Si Si8 0.544700 0.247257 0.065355
O O1 0.500000 0.157255 0.250000
O O2 0.557481 0.324774 0.210115
O O3 0.594985 0.203725 0.294075
O O4 0.586727 0.112790 0.192488
O O5 0.968983 0.143847 0.399084
O O6 0.891788 0.024697 0.351735
O O7 0.000000 0.000000 0.321462
O O8 0.885237 0.719597 0.596257
O O9 0.832133 0.849709 0.669612
O O10 0.805117 0.650369 0.669713
O O11 0.079881 0.518771 0.897961
O O12 0.178023 0.444714 0.858028
O O13 0.101665 0.312980 0.911441
O O14 0.909245 0.615509 0.500000
O O15 0.992105 0.665413 0.571891
O O16 0.850665 0.000000 0.750000
O O17 0.779622 0.972298 0.837333
O O18 0.791693 0.500000 0.750000
O O19 0.555053 0.283452 0.000000
#
# Coordination Sequence:
#
# PCOD8294160 Si02
#       8
#    16  16  16  16  16  16  16  16
#     4  11  21  33  55  85 122 153 186 240 300 358
#     4  11  23  38  57  87 119 151 195 241 300 351
#     4  11  21  38  59  87 118 154 195 240 288 348
#     4  10  20  36  57  84 121 153 194 243 287 348
#     4  10  21  38  59  85 118 159 200 238 288 347
#     4  11  23  38  62  85 117 160 189 235 292 357
#     4  10  22  38  57  86 120 154 194 234 288 349
#     4  10  21  37  59  85 116 157 202 242 288 346
#
# _framework density 19.111246000000001
#
# number of rings (size 3 to 8) (size 9 to 14) (size 15 to 20)
#    0.000    1.500    2.500    3.750    0.000    6.250 
#    0.000    1.875    0.000   10.500    0.000    0.000 
#    0.000    0.000    0.000    0.000    0.000    0.000 
#
# Total GULP energy -793571.594182 kJ/mol
# GULP energy per Si atom -12399.556159 kJ/mol
# Density = 1.906775 g / cm^3
# Si number density = 19.111246 Si / 1000 Ang^3
#
#
#
# Elastic Constant Matrix: (Units=GPa)
#
#
# Indices 1 2 3 4 5 6 
#
# 1 129.7403 37.7083 32.9252 0.0000 0.0000 0.0000
# 2 37.7083 89.3865 28.3267 0.0000 0.0000 0.0000
# 3 32.9252 28.3267 78.2429 0.0000 0.0000 0.0000
# 4 0.0000 0.0000 0.0000 13.5378 0.0000 0.0000
# 5 0.0000 0.0000 0.0000 0.0000 -2.5500 0.0000
# 6 0.0000 0.0000 0.0000 0.0000 0.0000 24.9674
#
#
#
# Elastic Compliance Matrix: (Units=1/GPa)
#
#
# Indices 1 2 3 4 5 6 
#
# 1 0.009304 -0.003032 -0.002817 0.000000 0.000000 0.000000
# 2 -0.003032 0.013625 -0.003657 0.000000 0.000000 0.000000
# 3 -0.002817 -0.003657 0.015290 0.000000 0.000000 0.000000
# 4 0.000000 0.000000 0.000000 0.073867 0.000000 0.000000
# 5 0.000000 0.000000 0.000000 0.000000 -0.392156 0.000000
# 6 0.000000 0.000000 0.000000 0.000000 0.000000 0.040052
#
#
# Mechanical properties :
#
#
# Convention : Reuss Voigt Hill
#
# Bulk Modulus (GPa) = 52.06534 55.03222 53.54878
# Shear Modulus (GPa) = -23.29900 20.41833 -1.44033
#
# Velocity S-wave (km/s) = -3.49538 3.27218 -0.86908
# Velocity P-wave (km/s) = 3.31846 6.56768 5.20320
#
# Compressibility (1/GPa) = 0.01920664
#
# Stress axis : x y z
#
# Youngs Moduli (GPa) = 107.48093 73.39249 65.40110
#
# Poissons Ratio (x) = 0.22253 0.18426
# Poissons Ratio (y) = 0.32589 0.23917
# Poissons Ratio (z) = 0.30282 0.26839
#
# Static dielectric constant tensor:
#      x y z
#    x 3.509790 0.000000 0.000000 
#    y 0.000000 3.602820 0.000000 
#    z 0.000000 0.000000 3.526180 
# 
# 
# High freq. dielectric constant tensor:
#      x y z
#    x 1.737800 0.000000 0.000000 
#    y 0.000000 1.750170 0.000000 
#    z 0.000000 0.000000 1.730340 
# 
# From -- ./inp_files/43674.got.cif
#   From: 2010.03.12/outbox.cif.g09.slc.cpg/sg72_22_cif.got.tgz:43674.got - 2010.04.16 14:54:00.
