data_PCOD8294390
_publ_section_title
;
Structure prediction by ZEFSAII (Michael W. Deem and Ramdas Pophale) SiO2 
 PCOD8294390
Probable space group: I B A M
;
_chemical_formula_sum "Si O2"
_cell_formula_units_Z 96
_cell_length_a 21.000502
_cell_length_b 13.242557
_cell_length_c 14.907419
_cell_angle_alpha 90.000000
_cell_angle_beta 90.000000
_cell_angle_gamma 90.000000
_cell_volume 4145.758363
_symmetry_space_group_name_H-M "I B A M"
_symmetry_group_IT_number 72
_symmetry_cell_setting 'orthorhombic'
loop_
_space_group_symop_operation_xyz
x,y,z
-x,-y,z
x,-y,1/2-z
-x,y,1/2-z
-x,-y,-z
x,y,-z
-x,y,1/2+z
x,-y,1/2+z
1/2+x,1/2+y,1/2+z
1/2-x,1/2-y,1/2+z
1/2+x,1/2-y,-z
1/2-x,1/2+y,-z
1/2-x,1/2-y,1/2-z
1/2+x,1/2+y,1/2-z
1/2-x,1/2+y,z
1/2+x,1/2-y,z
loop_
_atom_site_type_symbol
_atom_site_label
_atom_site_fract_x
_atom_site_fract_y
_atom_site_fract_z
Si Si1 0.788420 0.652602 0.775248
Si Si2 0.685072 0.603615 0.901220
Si Si3 0.649358 0.833626 0.100032
Si Si4 0.604719 0.245396 0.900511
Si Si5 0.430937 0.530503 0.852128
Si Si6 0.508288 0.882098 0.852580
O O1 0.750000 0.750000 0.750000
O O2 0.740385 0.576918 0.828237
O O3 0.814843 0.604630 0.681054
O O4 0.845767 0.686109 0.838955
O O5 0.659532 0.715601 0.882959
O O6 0.626257 0.527216 0.900316
O O7 0.716122 0.596833 0.000000
O O8 0.575340 0.852647 0.106774
O O9 0.673691 0.866223 0.000000
O O10 0.582746 0.351034 0.858429
O O11 0.543576 0.174912 0.911574
O O12 0.633851 0.263056 0.000000
O O13 0.500000 0.500000 0.894657
O O14 0.430915 0.500000 0.750000
O O15 0.500000 0.846900 0.750000
O O16 0.500000 0.000000 0.863331
#
# Coordination Sequence:
#
# PCOD8294390 Si02
#       6
#    16  16  16  16  16  16
#     4  10  21  41  64  90 133 178 225 280 338 408
#     4  10  21  40  65  95 133 176 223 276 343 416
#     4  10  20  38  67  98 131 174 224 284 347 411
#     4  12  25  42  69 101 138 180 234 290 350 423
#     4  11  24  40  67 101 138 185 228 289 354 428
#     4  11  24  43  69  99 133 176 225 281 346 414
#
# _framework density 23.156196000000001
#
# number of rings (size 3 to 8) (size 9 to 14) (size 15 to 20)
#    0.000    1.333    1.667    4.500    2.333    4.667 
#    0.000    6.667    0.000    6.000    0.000    0.000 
#    0.000    0.000    0.000    0.000    0.000    0.000 
#
# Total GULP energy -595029.558350 kJ/mol
# GULP energy per Si atom -12396.449132 kJ/mol
# Density = 2.310349 g / cm^3
# Si number density = 23.156196 Si / 1000 Ang^3
#
#
#
# Elastic Constant Matrix: (Units=GPa)
#
#
# Indices 1 2 3 4 5 6 
#
# 1 155.9256 32.4413 67.3293 0.0000 0.0000 0.0000
# 2 32.4413 63.2144 35.5966 0.0000 0.0000 0.0000
# 3 67.3293 35.5966 173.5246 0.0000 0.0000 0.0000
# 4 0.0000 0.0000 0.0000 19.3947 0.0000 0.0000
# 5 0.0000 0.0000 0.0000 0.0000 29.2067 0.0000
# 6 0.0000 0.0000 0.0000 0.0000 0.0000 29.7485
#
#
#
# Elastic Compliance Matrix: (Units=1/GPa)
#
#
# Indices 1 2 3 4 5 6 
#
# 1 0.008091 -0.002696 -0.002586 0.000000 0.000000 0.000000
# 2 -0.002696 0.018783 -0.002807 0.000000 0.000000 0.000000
# 3 -0.002586 -0.002807 0.007342 0.000000 0.000000 0.000000
# 4 0.000000 0.000000 0.000000 0.051561 0.000000 0.000000
# 5 0.000000 0.000000 0.000000 0.000000 0.034239 0.000000
# 6 0.000000 0.000000 0.000000 0.000000 0.000000 0.033615
#
#
# Mechanical properties :
#
#
# Convention : Reuss Voigt Hill
#
# Bulk Modulus (GPa) = 55.43886 73.71102 64.57494
# Shear Modulus (GPa) = 28.43775 32.82313 30.63044
#
# Velocity S-wave (km/s) = 3.50820 3.76901 3.64094
# Velocity P-wave (km/s) = 6.35635 7.13034 6.75444
#
# Compressibility (1/GPa) = 0.01803789
#
# Stress axis : x y z
#
# Youngs Moduli (GPa) = 123.59395 53.23833 136.19763
#
# Poissons Ratio (x) = 0.14352 0.35226
# Poissons Ratio (y) = 0.33319 0.38233
# Poissons Ratio (z) = 0.31966 0.14945
#
# Static dielectric constant tensor:
#      x y z
#    x 5.719870 0.000000 0.000000 
#    y 0.000000 3.898890 0.000000 
#    z 0.000000 0.000000 5.260030 
# 
# 
# High freq. dielectric constant tensor:
#      x y z
#    x 1.923490 0.000000 0.000000 
#    y 0.000000 1.898350 0.000000 
#    z 0.000000 0.000000 1.937620 
# 
# From -- ./inp_files/24131.got.cif
#   From: 2010.03.12/outbox.cif.g09.slc.cpg/sg72_13_cif.got.tgz:24131.got - 2010.04.16 14:54:00.
