data_PCOD8294555
_publ_section_title
;
Structure prediction by ZEFSAII (Michael W. Deem and Ramdas Pophale) SiO2 
 PCOD8294555
Probable space group: I B A M
;
_chemical_formula_sum "Si O2"
_cell_formula_units_Z 72
_cell_length_a 22.456900
_cell_length_b 9.625759
_cell_length_c 15.087035
_cell_angle_alpha 90.000000
_cell_angle_beta 90.000000
_cell_angle_gamma 90.000000
_cell_volume 3261.284505
_symmetry_space_group_name_H-M "I B A M"
_symmetry_group_IT_number 72
_symmetry_cell_setting 'orthorhombic'
loop_
_space_group_symop_operation_xyz
x,y,z
-x,-y,z
x,-y,1/2-z
-x,y,1/2-z
-x,-y,-z
x,y,-z
-x,y,1/2+z
x,-y,1/2+z
1/2+x,1/2+y,1/2+z
1/2-x,1/2-y,1/2+z
1/2+x,1/2-y,-z
1/2-x,1/2+y,-z
1/2-x,1/2-y,1/2-z
1/2+x,1/2+y,1/2-z
1/2-x,1/2+y,z
1/2+x,1/2-y,z
loop_
_atom_site_type_symbol
_atom_site_label
_atom_site_fract_x
_atom_site_fract_y
_atom_site_fract_z
Si Si1 0.278570 0.630817 0.806165
Si Si2 0.887007 0.939218 0.000000
Si Si3 0.359091 0.883060 0.000000
Si Si4 0.918729 0.885859 0.181912
Si Si5 0.759715 0.043059 0.500000
Si Si6 0.438990 0.924307 0.836567
O O1 0.257962 0.500000 0.750000
O O2 0.250000 0.750000 0.750000
O O3 0.349585 0.647968 0.803537
O O4 0.254466 0.630671 0.907938
O O5 0.927052 0.962390 0.913368
O O6 0.861737 0.781644 0.000000
O O7 0.825847 0.030572 0.000000
O O8 0.391404 0.944924 0.913884
O O9 0.290237 0.924922 0.000000
O O10 0.953154 0.738701 0.184375
O O11 0.944577 0.000000 0.250000
O O12 0.500000 0.000000 0.864749
O O13 0.412497 0.000000 0.750000
#
# Coordination Sequence:
#
# PCOD8294555 Si02
#       6
#    16   8   8  16   8  16
#     4  10  23  35  56  88 131 169 204 250 297 374
#     4   8  18  37  55  85 128 166 197 239 300 363
#     4  10  21  36  62  87 121 163 204 262 300 368
#     4   9  19  38  59  87 124 161 199 246 311 371
#     4  10  22  33  55  88 123 172 206 239 305 363
#     4  10  22  40  63  89 116 154 209 267 320 358
#
# _framework density 22.077190000000002
#
# number of rings (size 3 to 8) (size 9 to 14) (size 15 to 20)
#    0.000    2.444    0.000    0.333   12.444    0.000 
#    0.000    3.333    0.000    0.000    0.000   20.222 
#    0.000    0.000    0.000    0.000    0.000    0.000 
#
# Total GULP energy -446095.900083 kJ/mol
# GULP energy per Si atom -12391.552780 kJ/mol
# Density = 2.202694 g / cm^3
# Si number density = 22.077190 Si / 1000 Ang^3
#
#
#
# Elastic Constant Matrix: (Units=GPa)
#
#
# Indices 1 2 3 4 5 6 
#
# 1 63.1229 35.9256 27.5223 0.0000 0.0000 0.0000
# 2 35.9256 105.7507 46.6032 0.0000 0.0000 0.0000
# 3 27.5223 46.6032 187.9487 0.0000 0.0000 0.0000
# 4 0.0000 0.0000 0.0000 36.3301 0.0000 0.0000
# 5 0.0000 0.0000 0.0000 0.0000 10.2817 0.0000
# 6 0.0000 0.0000 0.0000 0.0000 0.0000 29.6686
#
#
#
# Elastic Compliance Matrix: (Units=1/GPa)
#
#
# Indices 1 2 3 4 5 6 
#
# 1 0.019959 -0.006166 -0.001394 0.000000 0.000000 0.000000
# 2 -0.006166 0.012521 -0.002202 0.000000 0.000000 0.000000
# 3 -0.001394 -0.002202 0.006071 0.000000 0.000000 0.000000
# 4 0.000000 0.000000 0.000000 0.027525 0.000000 0.000000
# 5 0.000000 0.000000 0.000000 0.000000 0.097260 0.000000
# 6 0.000000 0.000000 0.000000 0.000000 0.000000 0.033706
#
#
# Mechanical properties :
#
#
# Convention : Reuss Voigt Hill
#
# Bulk Modulus (GPa) = 52.55552 64.10273 58.32912
# Shear Modulus (GPa) = 22.43067 31.70749 27.06908
#
# Velocity S-wave (km/s) = 3.19095 3.79385 3.50538
# Velocity P-wave (km/s) = 6.11827 6.94909 6.54687
#
# Compressibility (1/GPa) = 0.01902750
#
# Stress axis : x y z
#
# Youngs Moduli (GPa) = 50.10195 79.86371 164.72732
#
# Poissons Ratio (x) = 0.49247 0.22959
# Poissons Ratio (y) = 0.30895 0.36269
# Poissons Ratio (z) = 0.06983 0.17584
#
# Static dielectric constant tensor:
#      x y z
#    x 3.739310 0.000000 0.000000 
#    y 0.000000 3.718170 0.000000 
#    z 0.000000 0.000000 4.672040 
# 
# 
# High freq. dielectric constant tensor:
#      x y z
#    x 1.855870 0.000000 0.000000 
#    y 0.000000 1.847690 0.000000 
#    z 0.000000 0.000000 1.895980 
# 
# From -- ./inp_files/25738.got.cif
#   From: 2010.03.12/outbox.cif.g09.slc.cpg/sg72_13_cif.got.tgz:25738.got - 2010.04.16 14:54:00.
