data_PCOD8294219
_publ_section_title
;
Structure prediction by ZEFSAII (Michael W. Deem and Ramdas Pophale) SiO2 
 PCOD8294219
Probable space group: I B A M
;
_chemical_formula_sum "Si O2"
_cell_formula_units_Z 64
_cell_length_a 19.066183
_cell_length_b 9.702145
_cell_length_c 14.443822
_cell_angle_alpha 90.000000
_cell_angle_beta 90.000000
_cell_angle_gamma 90.000000
_cell_volume 2671.859677
_symmetry_space_group_name_H-M "I B A M"
_symmetry_group_IT_number 72
_symmetry_cell_setting 'orthorhombic'
loop_
_space_group_symop_operation_xyz
x,y,z
-x,-y,z
x,-y,1/2-z
-x,y,1/2-z
-x,-y,-z
x,y,-z
-x,y,1/2+z
x,-y,1/2+z
1/2+x,1/2+y,1/2+z
1/2-x,1/2-y,1/2+z
1/2+x,1/2-y,-z
1/2-x,1/2+y,-z
1/2-x,1/2-y,1/2-z
1/2+x,1/2+y,1/2-z
1/2-x,1/2+y,z
1/2+x,1/2-y,z
loop_
_atom_site_type_symbol
_atom_site_label
_atom_site_fract_x
_atom_site_fract_y
_atom_site_fract_z
Si Si1 0.439596 0.414922 0.154788
Si Si2 0.208577 0.992420 0.104464
Si Si3 0.323306 0.211053 0.389249
Si Si4 0.018845 0.654462 0.390335
O O1 0.500000 0.500000 0.097628
O O2 0.430722 0.500000 0.250000
O O3 0.365224 0.411102 0.103792
O O4 0.466331 0.257278 0.164241
O O5 0.269925 0.902775 0.152502
O O6 0.199627 0.140900 0.153649
O O7 0.232664 0.017433 0.000000
O O8 0.319463 0.216086 0.500000
O O9 0.401930 0.181303 0.356696
O O10 0.009655 0.677468 0.500000
O O11 0.000000 0.500000 0.361126
#
# Coordination Sequence:
#
# PCOD8294219 Si02
#       4
#    16  16  16  16
#     4  11  23  40  62  86 127 173 217 257 309 386
#     4  10  20  36  61  89 124 162 208 267 324 380
#     4   9  19  34  57  91 122 155 201 263 329 379
#     4  10  21  38  66  98 124 158 215 279 333 377
#
# _framework density 23.953354000000001
#
# number of rings (size 3 to 8) (size 9 to 14) (size 15 to 20)
#    0.000    2.000    2.500    0.750    3.500    1.000 
#    0.000    3.750    0.000    0.000    0.000    0.000 
#    0.000    0.000    0.000    0.000    0.000    0.000 
#
# Total GULP energy -396603.942282 kJ/mol
# GULP energy per Si atom -12393.873196 kJ/mol
# Density = 2.389884 g / cm^3
# Si number density = 23.953354 Si / 1000 Ang^3
#
#
#
# Elastic Constant Matrix: (Units=GPa)
#
#
# Indices 1 2 3 4 5 6 
#
# 1 147.4029 100.2012 13.8881 0.0000 0.0000 0.0000
# 2 100.2012 245.4752 15.8441 0.0000 0.0000 0.0000
# 3 13.8881 15.8441 34.6331 0.0000 0.0000 0.0000
# 4 0.0000 0.0000 0.0000 12.5029 0.0000 0.0000
# 5 0.0000 0.0000 0.0000 0.0000 12.0538 0.0000
# 6 0.0000 0.0000 0.0000 0.0000 0.0000 59.2259
#
#
#
# Elastic Compliance Matrix: (Units=1/GPa)
#
#
# Indices 1 2 3 4 5 6 
#
# 1 0.009536 -0.003757 -0.002105 0.000000 0.000000 0.000000
# 2 -0.003757 0.005678 -0.001091 0.000000 0.000000 0.000000
# 3 -0.002105 -0.001091 0.030218 0.000000 0.000000 0.000000
# 4 0.000000 0.000000 0.000000 0.079982 0.000000 0.000000
# 5 0.000000 0.000000 0.000000 0.000000 0.082961 0.000000
# 6 0.000000 0.000000 0.000000 0.000000 0.000000 0.016885
#
#
# Mechanical properties :
#
#
# Convention : Reuss Voigt Hill
#
# Bulk Modulus (GPa) = 31.72075 76.37535 54.04805
# Shear Modulus (GPa) = 20.02615 36.59502 28.31059
#
# Velocity S-wave (km/s) = 2.89459 3.91290 3.44161
# Velocity P-wave (km/s) = 4.94398 7.23662 6.19724
#
# Compressibility (1/GPa) = 0.03152510
#
# Stress axis : x y z
#
# Youngs Moduli (GPa) = 104.86315 176.13034 33.09338
#
# Poissons Ratio (x) = 0.66167 0.06968
# Poissons Ratio (y) = 0.39394 0.03610
# Poissons Ratio (z) = 0.22078 0.19215
#
# Static dielectric constant tensor:
#      x y z
#    x 4.662840 0.000000 0.000000 
#    y 0.000000 4.598090 0.000000 
#    z 0.000000 0.000000 3.735670 
# 
# 
# High freq. dielectric constant tensor:
#      x y z
#    x 1.956440 0.000000 0.000000 
#    y 0.000000 1.959150 0.000000 
#    z 0.000000 0.000000 1.912710 
# 
# From -- ./inp_files/32218.got.cif
#   From: 2010.03.12/outbox.cif.g09.slc.cpg/sg72_17_cif.got.tgz:32218.got - 2010.04.16 14:54:00.
