data_PCOD8294046
_publ_section_title
;
Structure prediction by ZEFSAII (Michael W. Deem and Ramdas Pophale) SiO2 
 PCOD8294046
Probable space group: I B A M
;
_chemical_formula_sum "Si O2"
_cell_formula_units_Z 116
_cell_length_a 25.668558
_cell_length_b 25.049929
_cell_length_c 9.278510
_cell_angle_alpha 90.000000
_cell_angle_beta 90.000000
_cell_angle_gamma 90.000000
_cell_volume 5966.040691
_symmetry_space_group_name_H-M "I B A M"
_symmetry_group_IT_number 72
_symmetry_cell_setting 'orthorhombic'
loop_
_space_group_symop_operation_xyz
x,y,z
-x,-y,z
x,-y,1/2-z
-x,y,1/2-z
-x,-y,-z
x,y,-z
-x,y,1/2+z
x,-y,1/2+z
1/2+x,1/2+y,1/2+z
1/2-x,1/2-y,1/2+z
1/2+x,1/2-y,-z
1/2-x,1/2+y,-z
1/2-x,1/2-y,1/2-z
1/2+x,1/2+y,1/2-z
1/2-x,1/2+y,z
1/2+x,1/2-y,z
loop_
_atom_site_type_symbol
_atom_site_label
_atom_site_fract_x
_atom_site_fract_y
_atom_site_fract_z
Si Si1 0.546993 0.303891 0.160940
Si Si2 0.090706 0.292415 0.337025
Si Si3 0.303315 0.742736 0.332454
Si Si4 0.652944 0.644122 0.335534
Si Si5 0.083067 0.412243 0.659467
Si Si6 0.822570 0.553653 0.163950
Si Si7 0.000000 0.500000 0.750000
Si Si8 0.792115 0.055459 0.168137
O O1 0.500000 0.329549 0.250000
O O2 0.562821 0.247114 0.227879
O O3 0.591058 0.349042 0.160279
O O4 0.528715 0.290715 0.000000
O O5 0.081499 0.271981 0.500000
O O6 0.153885 0.290165 0.307987
O O7 0.064341 0.351085 0.317985
O O8 0.290597 0.734912 0.500000
O O9 0.250000 0.750000 0.250000
O O10 0.325822 0.689076 0.268105
O O11 0.675467 0.646596 0.500000
O O12 0.666366 0.589102 0.257773
O O13 0.107120 0.417802 0.500000
O O14 0.128958 0.413801 0.775433
O O15 0.038119 0.458222 0.667639
O O16 0.819932 0.500000 0.250000
O O17 0.766000 0.582329 0.177266
O O18 0.835856 0.540324 0.000000
O O19 0.790455 0.000000 0.250000
O O20 0.808407 0.048932 0.000000
#
# Coordination Sequence:
#
# PCOD8294046 Si02
#       8
#    16  16  16  16  16  16   4  16
#     4  10  21  38  61  88 116 151 193 238 291 349
#     4   9  21  39  57  81 111 150 195 242 297 357
#     4  10  20  35  55  83 118 154 192 239 297 362
#     4  10  21  37  58  86 119 156 196 240 290 351
#     4  11  24  41  59  80 110 148 193 248 308 360
#     4  10  21  37  57  81 109 145 189 234 283 345
#     4  12  26  40  60  86 114 148 202 264 318 364
#     4  10  21  37  59  90 122 158 197 239 288 345
#
# _framework density 19.443380000000001
#
# number of rings (size 3 to 8) (size 9 to 14) (size 15 to 20)
#    0.000    1.931    0.690    2.276    2.897    4.966 
#    0.000    0.000    0.000    0.414    0.000    2.897 
#    0.000    0.000    0.000    0.000    0.000    0.000 
#
# Total GULP energy -718509.890596 kJ/mol
# GULP energy per Si atom -12388.101562 kJ/mol
# Density = 1.939913 g / cm^3
# Si number density = 19.443380 Si / 1000 Ang^3
#
#
#
# Elastic Constant Matrix: (Units=GPa)
#
#
# Indices 1 2 3 4 5 6 
#
# 1 91.6229 36.5733 58.4481 0.0000 0.0000 0.0000
# 2 36.5733 77.2799 39.3549 0.0000 0.0000 0.0000
# 3 58.4481 39.3549 160.0820 0.0000 0.0000 0.0000
# 4 0.0000 0.0000 0.0000 30.7504 0.0000 0.0000
# 5 0.0000 0.0000 0.0000 0.0000 31.2176 0.0000
# 6 0.0000 0.0000 0.0000 0.0000 0.0000 25.6585
#
#
#
# Elastic Compliance Matrix: (Units=1/GPa)
#
#
# Indices 1 2 3 4 5 6 
#
# 1 0.015876 -0.005214 -0.004515 0.000000 0.000000 0.000000
# 2 -0.005214 0.016504 -0.002154 0.000000 0.000000 0.000000
# 3 -0.004515 -0.002154 0.008425 0.000000 0.000000 0.000000
# 4 0.000000 0.000000 0.000000 0.032520 0.000000 0.000000
# 5 0.000000 0.000000 0.000000 0.000000 0.032033 0.000000
# 6 0.000000 0.000000 0.000000 0.000000 0.000000 0.038973
#
#
# Mechanical properties :
#
#
# Convention : Reuss Voigt Hill
#
# Bulk Modulus (GPa) = 58.68642 66.41526 62.55084
# Shear Modulus (GPa) = 28.77268 30.49919 29.63594
#
# Velocity S-wave (km/s) = 3.85101 3.96487 3.90836
# Velocity P-wave (km/s) = 7.07266 7.42918 7.25311
#
# Compressibility (1/GPa) = 0.01703972
#
# Stress axis : x y z
#
# Youngs Moduli (GPa) = 62.98984 60.58985 118.70023
#
# Poissons Ratio (x) = 0.31593 0.53587
# Poissons Ratio (y) = 0.32844 0.25564
# Poissons Ratio (z) = 0.28437 0.13049
#
# Static dielectric constant tensor:
#      x y z
#    x 3.795940 0.000000 0.000000 
#    y 0.000000 3.394220 0.000000 
#    z 0.000000 0.000000 4.070140 
# 
# 
# High freq. dielectric constant tensor:
#      x y z
#    x 1.753890 0.000000 0.000000 
#    y 0.000000 1.736010 0.000000 
#    z 0.000000 0.000000 1.776510 
# 
# From -- ./inp_files/7254.got.cif
#   From: 2010.03.12/outbox.cif.g09.slc.cpg/sg72_4_cif.got.tgz:7254.got - 2010.04.16 14:54:00.
