data_PCOD8294295
_publ_section_title
;
Structure prediction by ZEFSAII (Michael W. Deem and Ramdas Pophale) SiO2 
 PCOD8294295
Probable space group: I B A M
;
_chemical_formula_sum "Si O2"
_cell_formula_units_Z 116
_cell_length_a 22.337165
_cell_length_b 27.670789
_cell_length_c 9.279044
_cell_angle_alpha 90.000000
_cell_angle_beta 90.000000
_cell_angle_gamma 90.000000
_cell_volume 5735.256279
_symmetry_space_group_name_H-M "I B A M"
_symmetry_group_IT_number 72
_symmetry_cell_setting 'orthorhombic'
loop_
_space_group_symop_operation_xyz
x,y,z
-x,-y,z
x,-y,1/2-z
-x,y,1/2-z
-x,-y,-z
x,y,-z
-x,y,1/2+z
x,-y,1/2+z
1/2+x,1/2+y,1/2+z
1/2-x,1/2-y,1/2+z
1/2+x,1/2-y,-z
1/2-x,1/2+y,-z
1/2-x,1/2-y,1/2-z
1/2+x,1/2+y,1/2-z
1/2-x,1/2+y,z
1/2+x,1/2-y,z
loop_
_atom_site_type_symbol
_atom_site_label
_atom_site_fract_x
_atom_site_fract_y
_atom_site_fract_z
Si Si1 0.902177 0.074912 0.160696
Si Si2 0.752365 0.201150 0.337223
Si Si3 0.176717 0.386299 0.667590
Si Si4 0.438486 0.867528 0.171312
Si Si5 0.874659 0.836358 0.834269
Si Si6 0.500000 0.500000 0.250000
Si Si7 0.943194 0.742643 0.835928
Si Si8 0.768759 0.952219 0.671768
O O1 0.914343 0.123098 0.253734
O O2 0.838963 0.052857 0.212021
O O3 0.955740 0.035442 0.162305
O O4 0.895766 0.094005 0.000000
O O5 0.766920 0.217029 0.500000
O O6 0.750000 0.250000 0.250000
O O7 0.690685 0.171259 0.326803
O O8 0.805121 0.164129 0.286369
O O9 0.173623 0.403696 0.500000
O O10 0.114456 0.397201 0.750184
O O11 0.229878 0.410487 0.756636
O O12 0.500000 0.882615 0.250000
O O13 0.423511 0.811573 0.203194
O O14 0.441504 0.879111 0.000000
O O15 0.892457 0.781222 0.798163
O O16 0.883945 0.849513 0.000000
O O17 0.000000 0.760191 0.750000
O O18 0.962787 0.744690 0.000000
O O19 0.758338 0.954337 0.500000
O O20 0.745086 0.000000 0.750000
#
# Coordination Sequence:
#
# PCOD8294295 Si02
#       8
#    16  16  16  16  16   4  16  16
#     4  11  25  42  63  88 114 153 204 258 317 377
#     4  10  21  35  55  84 120 162 204 251 307 368
#     4  11  22  38  61  91 123 161 205 252 310 371
#     4  10  20  37  61  89 125 164 206 251 297 359
#     4  10  21  38  56  79 117 158 198 252 311 364
#     4  12  26  48  64  90 122 156 210 274 334 388
#     4   9  19  34  53  78 113 158 204 249 299 355
#     4  11  23  42  66  92 121 157 202 255 314 375
#
# _framework density 20.225774000000001
#
# number of rings (size 3 to 8) (size 9 to 14) (size 15 to 20)
#    0.000    1.655    2.069    2.276    0.966    5.517 
#    0.000    0.000    0.000    0.414    0.000    2.897 
#    0.000    0.000    0.000    0.000    0.000    0.000 
#
# Total GULP energy -718825.343855 kJ/mol
# GULP energy per Si atom -12393.540411 kJ/mol
# Density = 2.017974 g / cm^3
# Si number density = 20.225774 Si / 1000 Ang^3
#
#
#
# Elastic Constant Matrix: (Units=GPa)
#
#
# Indices 1 2 3 4 5 6 
#
# 1 122.9867 30.2625 56.2970 0.0000 0.0000 0.0000
# 2 30.2625 66.8270 35.9951 0.0000 0.0000 0.0000
# 3 56.2970 35.9951 103.2057 0.0000 0.0000 0.0000
# 4 0.0000 0.0000 0.0000 32.2653 0.0000 0.0000
# 5 0.0000 0.0000 0.0000 0.0000 32.2922 0.0000
# 6 0.0000 0.0000 0.0000 0.0000 0.0000 10.5645
#
#
#
# Elastic Compliance Matrix: (Units=1/GPa)
#
#
# Indices 1 2 3 4 5 6 
#
# 1 0.011087 -0.002171 -0.005291 0.000000 0.000000 0.000000
# 2 -0.002171 0.018851 -0.005390 0.000000 0.000000 0.000000
# 3 -0.005291 -0.005390 0.014455 0.000000 0.000000 0.000000
# 4 0.000000 0.000000 0.000000 0.030993 0.000000 0.000000
# 5 0.000000 0.000000 0.000000 0.000000 0.030967 0.000000
# 6 0.000000 0.000000 0.000000 0.000000 0.000000 0.094657
#
#
# Mechanical properties :
#
#
# Convention : Reuss Voigt Hill
#
# Bulk Modulus (GPa) = 53.50728 59.79207 56.64967
# Shear Modulus (GPa) = 21.46450 26.38872 23.92661
#
# Velocity S-wave (km/s) = 3.26121 3.61599 3.44317
# Velocity P-wave (km/s) = 6.37911 6.86006 6.62395
#
# Compressibility (1/GPa) = 0.01868905
#
# Stress axis : x y z
#
# Youngs Moduli (GPa) = 90.19654 53.04894 69.17910
#
# Poissons Ratio (x) = 0.11517 0.36599
# Poissons Ratio (y) = 0.19582 0.37289
# Poissons Ratio (z) = 0.47719 0.28595
#
# Static dielectric constant tensor:
#      x y z
#    x 3.249630 0.000000 0.000000 
#    y 0.000000 3.484370 0.000000 
#    z 0.000000 0.000000 4.430300 
# 
# 
# High freq. dielectric constant tensor:
#      x y z
#    x 1.791110 0.000000 0.000000 
#    y 0.000000 1.773200 0.000000 
#    z 0.000000 0.000000 1.792400 
# 
# From -- ./inp_files/7563.got.cif
#   From: 2010.03.12/outbox.cif.g09.slc.cpg/sg72_4_cif.got.tgz:7563.got - 2010.04.16 14:54:00.
