data_PCOD8294535
_publ_section_title
;
Structure prediction by ZEFSAII (Michael W. Deem and Ramdas Pophale) SiO2 
 PCOD8294535
Probable space group: I B A M
;
_chemical_formula_sum "Si O2"
_cell_formula_units_Z 104
_cell_length_a 23.022933
_cell_length_b 23.454216
_cell_length_c 9.259762
_cell_angle_alpha 90.000000
_cell_angle_beta 90.000000
_cell_angle_gamma 90.000000
_cell_volume 5000.131135
_symmetry_space_group_name_H-M "I B A M"
_symmetry_group_IT_number 72
_symmetry_cell_setting 'orthorhombic'
loop_
_space_group_symop_operation_xyz
x,y,z
-x,-y,z
x,-y,1/2-z
-x,y,1/2-z
-x,-y,-z
x,y,-z
-x,y,1/2+z
x,-y,1/2+z
1/2+x,1/2+y,1/2+z
1/2-x,1/2-y,1/2+z
1/2+x,1/2-y,-z
1/2-x,1/2+y,-z
1/2-x,1/2-y,1/2-z
1/2+x,1/2+y,1/2-z
1/2-x,1/2+y,z
1/2+x,1/2-y,z
loop_
_atom_site_type_symbol
_atom_site_label
_atom_site_fract_x
_atom_site_fract_y
_atom_site_fract_z
Si Si1 0.500000 0.251582 0.750000
Si Si2 0.242518 0.588000 0.667803
Si Si3 0.352005 0.447409 0.327978
Si Si4 0.388954 0.055849 0.666348
Si Si5 0.051814 0.137273 0.159904
Si Si6 0.591732 0.165582 0.659336
Si Si7 0.718258 0.800011 0.830737
O O1 0.453874 0.293193 0.667121
O O2 0.538270 0.209761 0.651505
O O3 0.256699 0.600453 0.500000
O O4 0.291133 0.549860 0.742649
O O5 0.180345 0.557838 0.683056
O O6 0.245342 0.644214 0.762705
O O7 0.386382 0.500000 0.250000
O O8 0.343304 0.456268 0.500000
O O9 0.385872 0.388018 0.291643
O O10 0.408144 0.051813 0.500000
O O11 0.418337 0.113153 0.731010
O O12 0.412279 0.000000 0.750000
O O13 0.000000 0.108502 0.250000
O O14 0.040845 0.115788 0.000000
O O15 0.599730 0.138816 0.500000
O O16 0.649289 0.201253 0.700945
O O17 0.750000 0.750000 0.750000
O O18 0.732690 0.797505 0.000000
#
# Coordination Sequence:
#
# PCOD8294535 Si02
#       7
#     8  16  16  16  16  16  16
#     4  10  22  42  66  86 116 154 206 250 304 358
#     4  10  21  37  58  87 120 162 201 242 299 358
#     4  11  23  39  58  88 121 158 202 251 301 359
#     4  10  21  38  62  91 124 158 196 242 295 358
#     4   9  22  40  60  84 112 152 199 248 305 356
#     4  10  22  40  63  89 119 159 202 248 304 360
#     4  10  21  36  56  88 124 161 202 250 303 364
#
# _framework density 20.799454999999998
#
# number of rings (size 3 to 8) (size 9 to 14) (size 15 to 20)
#    0.462    1.538    0.000    2.769    2.154    6.462 
#    0.000    1.923    0.000    1.846    0.000    0.000 
#    0.000    0.000    0.000    0.000    0.000    0.000 
#
# Total GULP energy -644301.157719 kJ/mol
# GULP energy per Si atom -12390.406879 kJ/mol
# Density = 2.075211 g / cm^3
# Si number density = 20.799455 Si / 1000 Ang^3
#
#
#
# Elastic Constant Matrix: (Units=GPa)
#
#
# Indices 1 2 3 4 5 6 
#
# 1 58.7389 41.6946 27.2659 0.0000 0.0000 0.0000
# 2 41.6946 127.9270 58.4087 0.0000 0.0000 0.0000
# 3 27.2659 58.4087 125.7520 0.0000 0.0000 0.0000
# 4 0.0000 0.0000 0.0000 36.6913 0.0000 0.0000
# 5 0.0000 0.0000 0.0000 0.0000 23.7525 0.0000
# 6 0.0000 0.0000 0.0000 0.0000 0.0000 23.0301
#
#
#
# Elastic Compliance Matrix: (Units=1/GPa)
#
#
# Indices 1 2 3 4 5 6 
#
# 1 0.022489 -0.006477 -0.001868 0.000000 0.000000 0.000000
# 2 -0.006477 0.011786 -0.004070 0.000000 0.000000 0.000000
# 3 -0.001868 -0.004070 0.010248 0.000000 0.000000 0.000000
# 4 0.000000 0.000000 0.000000 0.027254 0.000000 0.000000
# 5 0.000000 0.000000 0.000000 0.000000 0.042101 0.000000
# 6 0.000000 0.000000 0.000000 0.000000 0.000000 0.043421
#
#
# Mechanical properties :
#
#
# Convention : Reuss Voigt Hill
#
# Bulk Modulus (GPa) = 50.77868 63.01734 56.89801
# Shear Modulus (GPa) = 26.49800 29.03136 27.76468
#
# Velocity S-wave (km/s) = 3.57315 3.74006 3.65756
# Velocity P-wave (km/s) = 6.44125 7.00101 6.72695
#
# Compressibility (1/GPa) = 0.01969330
#
# Stress axis : x y z
#
# Youngs Moduli (GPa) = 44.46619 84.84451 97.58406
#
# Poissons Ratio (x) = 0.54953 0.18226
# Poissons Ratio (y) = 0.28801 0.39717
# Poissons Ratio (z) = 0.08305 0.34532
#
# Static dielectric constant tensor:
#      x y z
#    x 3.647700 0.000000 0.000000 
#    y 0.000000 3.605810 0.000000 
#    z 0.000000 0.000000 3.753400 
# 
# 
# High freq. dielectric constant tensor:
#      x y z
#    x 1.798790 0.000000 0.000000 
#    y 0.000000 1.816590 0.000000 
#    z 0.000000 0.000000 1.820980 
# 
# From -- ./inp_files/8148.got.cif
#   From: 2010.03.12/outbox.cif.g09.slc.cpg/sg72_5_cif.got.tgz:8148.got - 2010.04.16 14:54:00.
