data_PCOD8294273
_publ_section_title
;
Structure prediction by ZEFSAII (Michael W. Deem and Ramdas Pophale) SiO2 
 PCOD8294273
Probable space group: I B A M
;
_chemical_formula_sum "Si O2"
_cell_formula_units_Z 80
_cell_length_a 25.446215
_cell_length_b 18.294945
_cell_length_c 8.530265
_cell_angle_alpha 90.000000
_cell_angle_beta 90.000000
_cell_angle_gamma 90.000000
_cell_volume 3971.154863
_symmetry_space_group_name_H-M "I B A M"
_symmetry_group_IT_number 72
_symmetry_cell_setting 'orthorhombic'
loop_
_space_group_symop_operation_xyz
x,y,z
-x,-y,z
x,-y,1/2-z
-x,y,1/2-z
-x,-y,-z
x,y,-z
-x,y,1/2+z
x,-y,1/2+z
1/2+x,1/2+y,1/2+z
1/2-x,1/2-y,1/2+z
1/2+x,1/2-y,-z
1/2-x,1/2+y,-z
1/2-x,1/2-y,1/2-z
1/2+x,1/2+y,1/2-z
1/2-x,1/2+y,z
1/2+x,1/2-y,z
loop_
_atom_site_type_symbol
_atom_site_label
_atom_site_fract_x
_atom_site_fract_y
_atom_site_fract_z
Si Si1 0.056235 0.338336 0.314943
Si Si2 0.253950 0.830902 0.686453
Si Si3 0.848513 0.919046 0.184980
Si Si4 0.151728 0.421917 0.184956
Si Si5 0.943405 0.180513 0.685872
O O1 0.053550 0.332023 0.500000
O O2 0.096900 0.399981 0.263390
O O3 0.073297 0.260048 0.246714
O O4 0.000000 0.362693 0.250000
O O5 0.260576 0.831827 0.500000
O O6 0.250000 0.750000 0.750000
O O7 0.202938 0.875874 0.742193
O O8 0.304567 0.864096 0.768351
O O9 0.900284 0.877164 0.247080
O O10 0.847644 0.000000 0.250000
O O11 0.849587 0.922868 0.000000
O O12 0.169590 0.500000 0.250000
O O13 0.144900 0.424684 0.000000
O O14 0.945687 0.183620 0.500000
O O15 0.000000 0.155857 0.750000
#
# Coordination Sequence:
#
# PCOD8294273 Si02
#       5
#    16  16  16  16  16
#     4  11  22  39  63  91 120 157 200 245 296 354
#     4  11  23  41  64  91 119 156 200 247 301 360
#     4  10  23  39  58  84 118 154 195 242 295 352
#     4  12  25  42  62  89 123 159 199 248 300 359
#     4  10  20  37  59  87 119 156 199 246 294 349
#
# _framework density 20.145274000000001
#
# number of rings (size 3 to 8) (size 9 to 14) (size 15 to 20)
#    0.000    1.200    0.000    7.800    0.000    7.200 
#    0.000    4.000    0.000    0.000    0.000    0.000 
#    0.000    0.000    0.000    0.000    0.000    0.000 
#
# Total GULP energy -496236.716976 kJ/mol
# GULP energy per Si atom -12405.917924 kJ/mol
# Density = 2.009942 g / cm^3
# Si number density = 20.145274 Si / 1000 Ang^3
#
#
#
# Elastic Constant Matrix: (Units=GPa)
#
#
# Indices 1 2 3 4 5 6 
#
# 1 121.4859 56.2543 36.3088 0.0000 0.0000 0.0000
# 2 56.2543 116.8747 16.6970 0.0000 0.0000 0.0000
# 3 36.3088 16.6970 83.9368 0.0000 0.0000 0.0000
# 4 0.0000 0.0000 0.0000 39.2768 0.0000 0.0000
# 5 0.0000 0.0000 0.0000 0.0000 35.7843 0.0000
# 6 0.0000 0.0000 0.0000 0.0000 0.0000 44.2544
#
#
#
# Elastic Compliance Matrix: (Units=1/GPa)
#
#
# Indices 1 2 3 4 5 6 
#
# 1 0.011819 -0.005103 -0.004097 0.000000 0.000000 0.000000
# 2 -0.005103 0.011010 0.000017 0.000000 0.000000 0.000000
# 3 -0.004097 0.000017 0.013683 0.000000 0.000000 0.000000
# 4 0.000000 0.000000 0.000000 0.025460 0.000000 0.000000
# 5 0.000000 0.000000 0.000000 0.000000 0.027945 0.000000
# 6 0.000000 0.000000 0.000000 0.000000 0.000000 0.022597
#
#
# Mechanical properties :
#
#
# Convention : Reuss Voigt Hill
#
# Bulk Modulus (GPa) = 55.11149 60.09086 57.60117
# Shear Modulus (GPa) = 36.51515 38.06558 37.29036
#
# Velocity S-wave (km/s) = 4.26207 4.35162 4.30708
# Velocity P-wave (km/s) = 7.18587 7.42578 7.30681
#
# Compressibility (1/GPa) = 0.01814504
#
# Stress axis : x y z
#
# Youngs Moduli (GPa) = 84.60811 90.82585 73.08491
#
# Poissons Ratio (x) = 0.46353 0.29946
# Poissons Ratio (y) = 0.43179 -0.00128
# Poissons Ratio (z) = 0.34668 -0.00159
#
# Static dielectric constant tensor:
#      x y z
#    x 3.993080 0.000000 0.000000 
#    y 0.000000 3.251750 0.000000 
#    z 0.000000 0.000000 3.717630 
# 
# 
# High freq. dielectric constant tensor:
#      x y z
#    x 1.803960 0.000000 0.000000 
#    y 0.000000 1.793220 0.000000 
#    z 0.000000 0.000000 1.798690 
# 
# From -- ./inp_files/4752.got.cif
#   From: 2010.03.12/outbox.cif.g09.slc.cpg/sg72_3_cif.got.tgz:4752.got - 2010.04.16 14:54:00.
