data_PCOD8294647
_publ_section_title
;
Structure prediction by ZEFSAII (Michael W. Deem and Ramdas Pophale) SiO2 
 PCOD8294647
Probable space group: I B A M
;
_chemical_formula_sum "Si O2"
_cell_formula_units_Z 64
_cell_length_a 5.239511
_cell_length_b 34.510156
_cell_length_c 15.532708
_cell_angle_alpha 90.000000
_cell_angle_beta 90.000000
_cell_angle_gamma 90.000000
_cell_volume 2808.567442
_symmetry_space_group_name_H-M "I B A M"
_symmetry_group_IT_number 72
_symmetry_cell_setting 'orthorhombic'
loop_
_space_group_symop_operation_xyz
x,y,z
-x,-y,z
x,-y,1/2-z
-x,y,1/2-z
-x,-y,-z
x,y,-z
-x,y,1/2+z
x,-y,1/2+z
1/2+x,1/2+y,1/2+z
1/2-x,1/2-y,1/2+z
1/2+x,1/2-y,-z
1/2-x,1/2+y,-z
1/2-x,1/2-y,1/2-z
1/2+x,1/2+y,1/2-z
1/2-x,1/2+y,z
1/2+x,1/2-y,z
loop_
_atom_site_type_symbol
_atom_site_label
_atom_site_fract_x
_atom_site_fract_y
_atom_site_fract_z
Si Si1 0.247560 0.983268 0.346114
Si Si2 0.433416 0.232963 0.346805
Si Si3 0.314465 0.149178 0.599768
Si Si4 0.821523 0.898581 0.899957
O O1 0.228144 0.937009 0.344609
O O2 0.500000 0.000000 0.393863
O O3 0.249824 0.000000 0.250000
O O4 0.000000 0.000000 0.395690
O O5 0.500000 0.246765 0.250000
O O6 0.709750 0.240730 0.392084
O O7 0.336390 0.188947 0.348210
O O8 0.274388 0.159186 0.500000
O O9 0.576370 0.127327 0.616708
O O10 0.074655 0.123773 0.633356
O O11 0.851788 0.909844 0.000000
#
# Coordination Sequence:
#
# PCOD8294647 Si02
#       4
#    16  16  16  16
#     4  10  21  38  56  81 115 147 187 245 282 347
#     4  10  21  38  58  84 120 155 194 236 284 338
#     4  10  21  38  59  88 117 150 195 239 286 345
#     4  10  21  38  59  83 117 152 190 239 293 345
#
# _framework density 22.787417999999999
#
# number of rings (size 3 to 8) (size 9 to 14) (size 15 to 20)
#    0.000    2.000    0.000    3.000    0.000    2.000 
#   13.500    0.000    0.000    0.000    0.000    0.000 
#    0.000    0.000    0.000    0.000    0.000    0.000 
#
# Total GULP energy -396599.031533 kJ/mol
# GULP energy per Si atom -12393.719735 kJ/mol
# Density = 2.273555 g / cm^3
# Si number density = 22.787418 Si / 1000 Ang^3
#
#
#
# Elastic Constant Matrix: (Units=GPa)
#
#
# Indices 1 2 3 4 5 6 
#
# 1 247.9749 81.7277 16.0611 0.0000 0.0000 0.0000
# 2 81.7277 167.5333 26.0987 0.0000 0.0000 0.0000
# 3 16.0611 26.0987 25.1772 0.0000 0.0000 0.0000
# 4 0.0000 0.0000 0.0000 20.2030 0.0000 0.0000
# 5 0.0000 0.0000 0.0000 0.0000 5.9338 0.0000
# 6 0.0000 0.0000 0.0000 0.0000 0.0000 38.6519
#
#
#
# Elastic Compliance Matrix: (Units=1/GPa)
#
#
# Indices 1 2 3 4 5 6 
#
# 1 0.004817 -0.002232 -0.000760 0.000000 0.000000 0.000000
# 2 -0.002232 0.008152 -0.007027 0.000000 0.000000 0.000000
# 3 -0.000760 -0.007027 0.047487 0.000000 0.000000 0.000000
# 4 0.000000 0.000000 0.000000 0.049498 0.000000 0.000000
# 5 0.000000 0.000000 0.000000 0.000000 0.168527 0.000000
# 6 0.000000 0.000000 0.000000 0.000000 0.000000 0.025872
#
#
# Mechanical properties :
#
#
# Convention : Reuss Voigt Hill
#
# Bulk Modulus (GPa) = 24.74014 76.49560 50.61787
# Shear Modulus (GPa) = 14.79886 34.07760 24.43823
#
# Velocity S-wave (km/s) = 2.55116 3.87131 3.27837
# Velocity P-wave (km/s) = 4.42249 7.32290 6.04910
#
# Compressibility (1/GPa) = 0.04042015
#
# Stress axis : x y z
#
# Youngs Moduli (GPa) = 207.58073 122.66396 21.05819
#
# Poissons Ratio (x) = 0.27375 0.01600
# Poissons Ratio (y) = 0.46326 0.14798
# Poissons Ratio (z) = 0.15771 0.86197
#
# Static dielectric constant tensor:
#      x y z
#    x 20.050010 0.000000 0.000000 
#    y 0.000000 3.996080 0.000000 
#    z 0.000000 0.000000 3.611730 
# 
# 
# High freq. dielectric constant tensor:
#      x y z
#    x 1.940770 0.000000 0.000000 
#    y 0.000000 1.900820 0.000000 
#    z 0.000000 0.000000 1.854590 
# 
# From -- ./inp_files/27016.got.cif
#   From: 2010.03.12/outbox.cif.g09.slc.cpg/sg72_14_cif.got.tgz:27016.got - 2010.04.16 14:54:00.
