data_PCOD8294034
_publ_section_title
;
Structure prediction by ZEFSAII (Michael W. Deem and Ramdas Pophale) SiO2 
 PCOD8294034
Probable space group: I B A M
;
_chemical_formula_sum "Si O2"
_cell_formula_units_Z 96
_cell_length_a 12.364659
_cell_length_b 22.010273
_cell_length_c 20.167391
_cell_angle_alpha 90.000000
_cell_angle_beta 90.000000
_cell_angle_gamma 90.000000
_cell_volume 5488.545783
_symmetry_space_group_name_H-M "I B A M"
_symmetry_group_IT_number 72
_symmetry_cell_setting 'orthorhombic'
loop_
_space_group_symop_operation_xyz
x,y,z
-x,-y,z
x,-y,1/2-z
-x,y,1/2-z
-x,-y,-z
x,y,-z
-x,y,1/2+z
x,-y,1/2+z
1/2+x,1/2+y,1/2+z
1/2-x,1/2-y,1/2+z
1/2+x,1/2-y,-z
1/2-x,1/2+y,-z
1/2-x,1/2-y,1/2-z
1/2+x,1/2+y,1/2-z
1/2-x,1/2+y,z
1/2+x,1/2-y,z
loop_
_atom_site_type_symbol
_atom_site_label
_atom_site_fract_x
_atom_site_fract_y
_atom_site_fract_z
Si Si1 0.125803 0.176616 0.263204
Si Si2 0.743243 0.235004 0.645153
Si Si3 0.894214 0.637815 0.574009
Si Si4 0.291400 0.919594 0.196078
Si Si5 0.608108 0.038930 0.321297
Si Si6 0.135832 0.662286 0.425117
O O1 0.176589 0.207034 0.198775
O O2 0.148510 0.223736 0.322859
O O3 0.178025 0.111039 0.282114
O O4 0.000000 0.166157 0.250000
O O5 0.695286 0.179202 0.606264
O O6 0.810097 0.273944 0.592270
O O7 0.858240 0.622409 0.500000
O O8 0.899907 0.573232 0.610015
O O9 0.007785 0.672496 0.576417
O O10 0.373084 0.913801 0.259864
O O11 0.336235 0.887112 0.130561
O O12 0.288838 0.991757 0.178369
O O13 0.500000 0.000000 0.310409
O O14 0.171699 0.641996 0.500000
#
# Coordination Sequence:
#
# PCOD8294034 Si02
#       6
#    16  16  16  16  16  16
#     4  10  20  35  57  85 110 142 191 235 277 331
#     4  10  20  36  54  80 117 147 179 228 286 332
#     4  11  22  35  56  85 115 148 185 226 276 336
#     4  10  20  35  55  79 110 145 179 228 282 326
#     4  11  21  35  57  83 114 145 185 232 284 328
#     4  10  21  34  52  81 113 147 182 220 273 338
#
# _framework density 17.490970999999998
#
# number of rings (size 3 to 8) (size 9 to 14) (size 15 to 20)
#    0.000    1.667    3.333    2.500    0.000    1.000 
#    0.000    1.667    0.000    1.000    0.000    1.167 
#    0.000    0.000    0.000    0.000    0.000    0.000 
#
# Total GULP energy -594794.602995 kJ/mol
# GULP energy per Si atom -12391.554229 kJ/mol
# Density = 1.745116 g / cm^3
# Si number density = 17.490971 Si / 1000 Ang^3
#
#
#
# Elastic Constant Matrix: (Units=GPa)
#
#
# Indices 1 2 3 4 5 6 
#
# 1 89.6883 43.9428 30.0790 0.0000 0.0000 0.0000
# 2 43.9428 81.2043 40.0523 0.0000 0.0000 0.0000
# 3 30.0790 40.0523 106.9981 0.0000 0.0000 0.0000
# 4 0.0000 0.0000 0.0000 10.5945 0.0000 0.0000
# 5 0.0000 0.0000 0.0000 0.0000 17.8288 0.0000
# 6 0.0000 0.0000 0.0000 0.0000 0.0000 25.5517
#
#
#
# Elastic Compliance Matrix: (Units=1/GPa)
#
#
# Indices 1 2 3 4 5 6 
#
# 1 0.015361 -0.007583 -0.001480 0.000000 0.000000 0.000000
# 2 -0.007583 0.018846 -0.004923 0.000000 0.000000 0.000000
# 3 -0.001480 -0.004923 0.011605 0.000000 0.000000 0.000000
# 4 0.000000 0.000000 0.000000 0.094389 0.000000 0.000000
# 5 0.000000 0.000000 0.000000 0.000000 0.056089 0.000000
# 6 0.000000 0.000000 0.000000 0.000000 0.000000 0.039136
#
#
# Mechanical properties :
#
#
# Convention : Reuss Voigt Hill
#
# Bulk Modulus (GPa) = 56.05070 56.22657 56.13863
# Shear Modulus (GPa) = 18.56363 21.71610 20.13986
#
# Velocity S-wave (km/s) = 3.26133 3.52740 3.39697
# Velocity P-wave (km/s) = 6.80418 6.98612 6.89575
#
# Compressibility (1/GPa) = 0.01784099
#
# Stress axis : x y z
#
# Youngs Moduli (GPa) = 65.09934 53.06168 86.17125
#
# Poissons Ratio (x) = 0.40234 0.12753
# Poissons Ratio (y) = 0.49362 0.42422
# Poissons Ratio (z) = 0.09634 0.26122
#
# Static dielectric constant tensor:
#      x y z
#    x 3.109490 0.000000 0.000000 
#    y 0.000000 3.419030 0.000000 
#    z 0.000000 0.000000 3.517470 
# 
# 
# High freq. dielectric constant tensor:
#      x y z
#    x 1.652100 0.000000 0.000000 
#    y 0.000000 1.674290 0.000000 
#    z 0.000000 0.000000 1.692120 
# 
# From -- ./inp_files/29426.got.cif
#   From: 2010.03.12/outbox.cif.g09.slc.cpg/sg72_15_cif.got.tgz:29426.got - 2010.04.16 14:54:00.
