data_PCOD8294508
_publ_section_title
;
Structure prediction by ZEFSAII (Michael W. Deem and Ramdas Pophale) SiO2 
 PCOD8294508
Probable space group: I B A M
;
_chemical_formula_sum "Si O2"
_cell_formula_units_Z 104
_cell_length_a 19.065430
_cell_length_b 26.560576
_cell_length_c 9.585925
_cell_angle_alpha 90.000000
_cell_angle_beta 90.000000
_cell_angle_gamma 90.000000
_cell_volume 4854.205081
_symmetry_space_group_name_H-M "I B A M"
_symmetry_group_IT_number 72
_symmetry_cell_setting 'orthorhombic'
loop_
_space_group_symop_operation_xyz
x,y,z
-x,-y,z
x,-y,1/2-z
-x,y,1/2-z
-x,-y,-z
x,y,-z
-x,y,1/2+z
x,-y,1/2+z
1/2+x,1/2+y,1/2+z
1/2-x,1/2-y,1/2+z
1/2+x,1/2-y,-z
1/2-x,1/2+y,-z
1/2-x,1/2-y,1/2-z
1/2+x,1/2+y,1/2-z
1/2-x,1/2+y,z
1/2+x,1/2-y,z
loop_
_atom_site_type_symbol
_atom_site_label
_atom_site_fract_x
_atom_site_fract_y
_atom_site_fract_z
Si Si1 0.218667 0.205665 0.340805
Si Si2 0.292471 0.045955 0.840797
Si Si3 0.902975 0.699747 0.500000
Si Si4 0.847266 0.351434 0.259562
Si Si5 0.869823 0.953476 0.160047
Si Si6 0.988857 0.220880 0.500000
Si Si7 0.553387 0.828859 0.500000
Si Si8 0.397336 0.656231 0.156146
O O1 0.201904 0.223311 0.500000
O O2 0.250000 0.250000 0.250000
O O3 0.277519 0.162055 0.345969
O O4 0.148712 0.184250 0.270807
O O5 0.339478 0.094433 0.810325
O O6 0.211520 0.057027 0.804518
O O7 0.321720 0.000000 0.750000
O O8 0.301459 0.030013 0.000000
O O9 0.857944 0.690698 0.361091
O O10 0.931700 0.757915 0.500000
O O11 0.969565 0.661136 0.500000
O O12 0.913735 0.352938 0.361615
O O13 0.910744 0.901914 0.199900
O O14 0.899660 0.000000 0.250000
O O15 0.881148 0.968589 0.000000
O O16 0.934096 0.268250 0.500000
O O17 0.971388 0.186557 0.637111
O O18 0.360146 0.655982 0.000000
#
# Coordination Sequence:
#
# PCOD8294508 Si02
#       8
#    16  16   8  16  16   8   8  16
#     4  12  25  36  55  89 122 163 202 248 317 394
#     4  10  21  35  56  86 119 160 210 258 320 379
#     4  10  24  39  66  82 110 157 221 265 312 382
#     4  12  22  40  61  87 119 159 211 259 319 376
#     4   9  17  30  50  82 119 166 203 238 297 375
#     4   8  20  39  61  83 114 162 214 257 323 353
#     4  10  22  40  55  85 111 155 194 272 310 369
#     4   9  18  36  58  79 128 161 199 253 312 375
#
# _framework density 21.424724000000001
#
# number of rings (size 3 to 8) (size 9 to 14) (size 15 to 20)
#    0.923    0.923    3.077    1.846    3.231    0.615 
#    0.000    0.000    0.000    2.769    0.000    0.000 
#    0.000    0.000    0.000   24.923    0.308    0.000 
#
# Total GULP energy -644597.337034 kJ/mol
# GULP energy per Si atom -12396.102635 kJ/mol
# Density = 2.137596 g / cm^3
# Si number density = 21.424724 Si / 1000 Ang^3
#
#
#
# Elastic Constant Matrix: (Units=GPa)
#
#
# Indices 1 2 3 4 5 6 
#
# 1 28.8638 24.6645 12.0709 0.0000 0.0000 0.0000
# 2 24.6645 150.4760 54.4087 0.0000 0.0000 0.0000
# 3 12.0709 54.4087 126.4844 0.0000 0.0000 0.0000
# 4 0.0000 0.0000 0.0000 43.6083 0.0000 0.0000
# 5 0.0000 0.0000 0.0000 0.0000 24.5152 0.0000
# 6 0.0000 0.0000 0.0000 0.0000 0.0000 26.0300
#
#
#
# Elastic Compliance Matrix: (Units=1/GPa)
#
#
# Indices 1 2 3 4 5 6 
#
# 1 0.040440 -0.006197 -0.001194 0.000000 0.000000 0.000000
# 2 -0.006197 0.008819 -0.003202 0.000000 0.000000 0.000000
# 3 -0.001194 -0.003202 0.009398 0.000000 0.000000 0.000000
# 4 0.000000 0.000000 0.000000 0.022931 0.000000 0.000000
# 5 0.000000 0.000000 0.000000 0.000000 0.040791 0.000000
# 6 0.000000 0.000000 0.000000 0.000000 0.000000 0.038417
#
#
# Mechanical properties :
#
#
# Convention : Reuss Voigt Hill
#
# Bulk Modulus (GPa) = 26.68733 54.23471 40.46102
# Shear Modulus (GPa) = 25.71061 33.14273 29.42667
#
# Velocity S-wave (km/s) = 3.46792 3.93738 3.71008
# Velocity P-wave (km/s) = 5.34029 6.78525 6.10567
#
# Compressibility (1/GPa) = 0.03747096
#
# Stress axis : x y z
#
# Youngs Moduli (GPa) = 24.72801 113.38921 106.41103
#
# Poissons Ratio (x) = 0.70266 0.12702
# Poissons Ratio (y) = 0.15324 0.34076
# Poissons Ratio (z) = 0.02952 0.36310
#
# Static dielectric constant tensor:
#      x y z
#    x 3.576090 0.000000 0.000000 
#    y 0.000000 3.813030 0.000000 
#    z 0.000000 0.000000 3.816850 
# 
# 
# High freq. dielectric constant tensor:
#      x y z
#    x 1.814060 0.000000 0.000000 
#    y 0.000000 1.833950 0.000000 
#    z 0.000000 0.000000 1.847110 
# 
# From -- ./inp_files/7230.got.cif
#   From: 2010.03.12/outbox.cif.g09.slc.cpg/sg72_4_cif.got.tgz:7230.got - 2010.04.16 14:54:00.
