data_PCOD8294683
_publ_section_title
;
Structure prediction by ZEFSAII (Michael W. Deem and Ramdas Pophale) SiO2 
 PCOD8294683
Probable space group: I B A M
;
_chemical_formula_sum "Si O2"
_cell_formula_units_Z 84
_cell_length_a 12.421255
_cell_length_b 18.147105
_cell_length_c 17.488043
_cell_angle_alpha 90.000000
_cell_angle_beta 90.000000
_cell_angle_gamma 90.000000
_cell_volume 3941.976602
_symmetry_space_group_name_H-M "I B A M"
_symmetry_group_IT_number 72
_symmetry_cell_setting 'orthorhombic'
loop_
_space_group_symop_operation_xyz
x,y,z
-x,-y,z
x,-y,1/2-z
-x,y,1/2-z
-x,-y,-z
x,y,-z
-x,y,1/2+z
x,-y,1/2+z
1/2+x,1/2+y,1/2+z
1/2-x,1/2-y,1/2+z
1/2+x,1/2-y,-z
1/2-x,1/2+y,-z
1/2-x,1/2-y,1/2-z
1/2+x,1/2+y,1/2-z
1/2-x,1/2+y,z
1/2+x,1/2-y,z
loop_
_atom_site_type_symbol
_atom_site_label
_atom_site_fract_x
_atom_site_fract_y
_atom_site_fract_z
Si Si1 0.395039 0.197600 0.157433
Si Si2 0.785488 0.055925 0.086661
Si Si3 0.888976 0.630682 0.821298
Si Si4 0.027495 0.840830 0.087423
Si Si5 0.500000 0.000000 0.750000
Si Si6 0.702150 0.391715 0.910195
O O1 0.368901 0.181797 0.246650
O O2 0.510753 0.164399 0.131812
O O3 0.405443 0.284011 0.140208
O O4 0.301060 0.161520 0.107665
O O5 0.717169 0.120243 0.128688
O O6 0.909239 0.081721 0.090271
O O7 0.778245 0.974002 0.124119
O O8 0.742429 0.053226 0.000000
O O9 0.921375 0.548097 0.800956
O O10 0.908077 0.855186 0.121818
O O11 0.022381 0.811066 0.000000
O O12 0.686594 0.400841 0.000000
#
# Coordination Sequence:
#
# PCOD8294683 Si02
#       6
#    16  16  16  16   4  16
#     4  10  22  39  60  87 121 161 199 245 306 357
#     4  10  21  38  62  89 119 159 202 252 306 361
#     4  10  21  38  60  87 120 155 198 248 297 364
#     4  10  22  39  60  87 123 160 199 248 305 361
#     4   8  16  36  58  80 122 156 186 234 304 342
#     4  10  21  39  63  90 121 157 204 250 300 364
#
# _framework density 21.309108999999999
#
# number of rings (size 3 to 8) (size 9 to 14) (size 15 to 20)
#    0.000    2.286    0.000    3.429    2.667    4.571 
#    3.429    2.381    0.000    2.286    0.000    0.000 
#    0.000    0.000    0.000    0.000    0.000    0.000 
#
# Total GULP energy -520599.256035 kJ/mol
# GULP energy per Si atom -12395.220382 kJ/mol
# Density = 2.126061 g / cm^3
# Si number density = 21.309109 Si / 1000 Ang^3
#
#
#
# Elastic Constant Matrix: (Units=GPa)
#
#
# Indices 1 2 3 4 5 6 
#
# 1 124.0393 47.0231 26.6451 0.0000 0.0000 0.0000
# 2 47.0231 112.7921 31.7543 0.0000 0.0000 0.0000
# 3 26.6451 31.7543 52.0956 0.0000 0.0000 0.0000
# 4 0.0000 0.0000 0.0000 23.3318 0.0000 0.0000
# 5 0.0000 0.0000 0.0000 0.0000 14.2475 0.0000
# 6 0.0000 0.0000 0.0000 0.0000 0.0000 34.1568
#
#
#
# Elastic Compliance Matrix: (Units=1/GPa)
#
#
# Indices 1 2 3 4 5 6 
#
# 1 0.009973 -0.003286 -0.003098 0.000000 0.000000 0.000000
# 2 -0.003286 0.011785 -0.005503 0.000000 0.000000 0.000000
# 3 -0.003098 -0.005503 0.024134 0.000000 0.000000 0.000000
# 4 0.000000 0.000000 0.000000 0.042860 0.000000 0.000000
# 5 0.000000 0.000000 0.000000 0.000000 0.070188 0.000000
# 6 0.000000 0.000000 0.000000 0.000000 0.000000 0.029277
#
#
# Mechanical properties :
#
#
# Convention : Reuss Voigt Hill
#
# Bulk Modulus (GPa) = 45.21009 55.53021 50.37015
# Shear Modulus (GPa) = 22.79327 26.58085 24.68706
#
# Velocity S-wave (km/s) = 3.27410 3.53568 3.40740
# Velocity P-wave (km/s) = 5.96283 6.54095 6.25857
#
# Compressibility (1/GPa) = 0.02211896
#
# Stress axis : x y z
#
# Youngs Moduli (GPa) = 100.27051 84.85484 41.43481
#
# Poissons Ratio (x) = 0.27879 0.12837
# Poissons Ratio (y) = 0.32944 0.22801
# Poissons Ratio (z) = 0.31066 0.46695
#
# Static dielectric constant tensor:
#      x y z
#    x 3.890170 0.000000 0.000000 
#    y 0.000000 3.677010 0.000000 
#    z 0.000000 0.000000 3.548450 
# 
# 
# High freq. dielectric constant tensor:
#      x y z
#    x 1.847150 0.000000 0.000000 
#    y 0.000000 1.842950 0.000000 
#    z 0.000000 0.000000 1.804180 
# 
# From -- ./inp_files/37048.got.cif
#   From: 2010.03.12/outbox.cif.g09.slc.cpg/sg72_19_cif.got.tgz:37048.got - 2010.04.16 14:54:00.
