data_PCOD8294569
_publ_section_title
;
Structure prediction by ZEFSAII (Michael W. Deem and Ramdas Pophale) SiO2 
 PCOD8294569
Probable space group: I B A M
;
_chemical_formula_sum "Si O2"
_cell_formula_units_Z 72
_cell_length_a 19.790897
_cell_length_b 13.191043
_cell_length_c 14.058826
_cell_angle_alpha 90.000000
_cell_angle_beta 90.000000
_cell_angle_gamma 90.000000
_cell_volume 3670.233294
_symmetry_space_group_name_H-M "I B A M"
_symmetry_group_IT_number 72
_symmetry_cell_setting 'orthorhombic'
loop_
_space_group_symop_operation_xyz
x,y,z
-x,-y,z
x,-y,1/2-z
-x,y,1/2-z
-x,-y,-z
x,y,-z
-x,y,1/2+z
x,-y,1/2+z
1/2+x,1/2+y,1/2+z
1/2-x,1/2-y,1/2+z
1/2+x,1/2-y,-z
1/2-x,1/2+y,-z
1/2-x,1/2-y,1/2-z
1/2+x,1/2+y,1/2-z
1/2-x,1/2+y,z
1/2+x,1/2-y,z
loop_
_atom_site_type_symbol
_atom_site_label
_atom_site_fract_x
_atom_site_fract_y
_atom_site_fract_z
Si Si1 0.144655 0.652660 0.779904
Si Si2 0.804322 0.456470 0.389996
Si Si3 0.172177 0.843568 0.106431
Si Si4 0.500000 0.772887 0.750000
Si Si5 0.482049 0.608586 0.392116
O O1 0.160920 0.634575 0.668995
O O2 0.172423 0.562565 0.845959
O O3 0.181672 0.753866 0.816890
O O4 0.062918 0.658782 0.784654
O O5 0.826907 0.451310 0.500000
O O6 0.723983 0.436926 0.377240
O O7 0.098015 0.886510 0.118021
O O8 0.182897 0.798598 0.000000
O O9 0.520635 0.698370 0.663366
O O10 0.500000 0.500000 0.347935
O O11 0.507275 0.617400 0.500000
#
# Coordination Sequence:
#
# PCOD8294569 Si02
#       5
#    16  16  16   8  16
#     4  10  21  38  57  82 111 150 190 234 279 335
#     4  10  21  37  56  82 112 149 189 230 280 335
#     4   9  18  36  59  82 113 146 181 228 285 339
#     4  10  21  37  56  80 112 150 190 230 280 330
#     4   9  18  35  57  83 111 143 183 232 285 334
#
# _framework density 19.617281999999999
#
# number of rings (size 3 to 8) (size 9 to 14) (size 15 to 20)
#    0.000    2.444    0.000    1.667    0.000    3.556 
#   20.000    1.111    0.000    0.000    0.000    0.000 
#    0.000    0.000    0.000    0.000    0.000    0.000 
#
# Total GULP energy -446184.576318 kJ/mol
# GULP energy per Si atom -12394.016009 kJ/mol
# Density = 1.957263 g / cm^3
# Si number density = 19.617282 Si / 1000 Ang^3
#
#
#
# Elastic Constant Matrix: (Units=GPa)
#
#
# Indices 1 2 3 4 5 6 
#
# 1 72.5313 52.1108 36.3374 0.0000 0.0000 0.0000
# 2 52.1108 109.3649 57.9586 0.0000 0.0000 0.0000
# 3 36.3374 57.9586 130.1572 0.0000 0.0000 0.0000
# 4 0.0000 0.0000 0.0000 31.1599 0.0000 0.0000
# 5 0.0000 0.0000 0.0000 0.0000 27.5984 0.0000
# 6 0.0000 0.0000 0.0000 0.0000 0.0000 35.0822
#
#
#
# Elastic Compliance Matrix: (Units=1/GPa)
#
#
# Indices 1 2 3 4 5 6 
#
# 1 0.021305 -0.009162 -0.001868 0.000000 0.000000 0.000000
# 2 -0.009162 0.015908 -0.004526 0.000000 0.000000 0.000000
# 3 -0.001868 -0.004526 0.010220 0.000000 0.000000 0.000000
# 4 0.000000 0.000000 0.000000 0.032093 0.000000 0.000000
# 5 0.000000 0.000000 0.000000 0.000000 0.036234 0.000000
# 6 0.000000 0.000000 0.000000 0.000000 0.000000 0.028504
#
#
# Mechanical properties :
#
#
# Convention : Reuss Voigt Hill
#
# Bulk Modulus (GPa) = 61.26971 67.20742 64.23856
# Shear Modulus (GPa) = 27.65242 29.81121 28.73181
#
# Velocity S-wave (km/s) = 3.75853 3.90249 3.83118
# Velocity P-wave (km/s) = 7.08066 7.39186 7.23793
#
# Compressibility (1/GPa) = 0.01632128
#
# Stress axis : x y z
#
# Youngs Moduli (GPa) = 46.93643 62.86327 97.84730
#
# Poissons Ratio (x) = 0.57592 0.18282
# Poissons Ratio (y) = 0.43001 0.44284
# Poissons Ratio (z) = 0.08770 0.28451
#
# Static dielectric constant tensor:
#      x y z
#    x 3.471070 0.000000 0.000000 
#    y 0.000000 3.514960 0.000000 
#    z 0.000000 0.000000 3.925070 
# 
# 
# High freq. dielectric constant tensor:
#      x y z
#    x 1.755200 0.000000 0.000000 
#    y 0.000000 1.755900 0.000000 
#    z 0.000000 0.000000 1.777990 
# 
# From -- ./inp_files/23015.got.cif
#   From: 2010.03.12/outbox.cif.g09.slc.cpg/sg72_12_cif.got.tgz:23015.got - 2010.04.16 14:54:00.
