data_PCOD8294755
_publ_section_title
;
Structure prediction by ZEFSAII (Michael W. Deem and Ramdas Pophale) SiO2 
 PCOD8294755
Probable space group: I B A M
;
_chemical_formula_sum "Si O2"
_cell_formula_units_Z 104
_cell_length_a 27.724701
_cell_length_b 20.541863
_cell_length_c 9.114500
_cell_angle_alpha 90.000000
_cell_angle_beta 90.000000
_cell_angle_gamma 90.000000
_cell_volume 5190.862785
_symmetry_space_group_name_H-M "I B A M"
_symmetry_group_IT_number 72
_symmetry_cell_setting 'orthorhombic'
loop_
_space_group_symop_operation_xyz
x,y,z
-x,-y,z
x,-y,1/2-z
-x,y,1/2-z
-x,-y,-z
x,y,-z
-x,y,1/2+z
x,-y,1/2+z
1/2+x,1/2+y,1/2+z
1/2-x,1/2-y,1/2+z
1/2+x,1/2-y,-z
1/2-x,1/2+y,-z
1/2-x,1/2-y,1/2-z
1/2+x,1/2+y,1/2-z
1/2-x,1/2+y,z
1/2+x,1/2-y,z
loop_
_atom_site_type_symbol
_atom_site_label
_atom_site_fract_x
_atom_site_fract_y
_atom_site_fract_z
Si Si1 0.873588 0.500000 0.750000
Si Si2 0.952801 0.398479 0.165383
Si Si3 0.792605 0.590406 0.836102
Si Si4 0.451280 0.247753 0.173541
Si Si5 0.305958 0.562910 0.174899
Si Si6 0.708341 0.214698 0.662298
Si Si7 0.136663 0.829176 0.162093
O O1 0.907783 0.447975 0.830058
O O2 0.836809 0.539652 0.854553
O O3 0.937384 0.326407 0.223159
O O4 0.000000 0.425181 0.250000
O O5 0.970506 0.392732 0.000000
O O6 0.748197 0.566042 0.737549
O O7 0.812067 0.654745 0.756416
O O8 0.773333 0.606049 0.000000
O O9 0.500000 0.269536 0.250000
O O10 0.413970 0.303508 0.225832
O O11 0.456566 0.250636 0.000000
O O12 0.330723 0.500000 0.250000
O O13 0.337708 0.624832 0.220009
O O14 0.304342 0.556150 0.000000
O O15 0.726821 0.191669 0.500000
O O16 0.750000 0.250000 0.750000
O O17 0.665158 0.263063 0.639284
O O18 0.132203 0.862764 0.000000
#
# Coordination Sequence:
#
# PCOD8294755 Si02
#       7
#     8  16  16  16  16  16  16
#     4  12  25  38  60  84 120 168 219 260 306 360
#     4  10  22  41  62  87 119 160 208 258 312 365
#     4  12  25  39  57  83 119 161 209 259 306 362
#     4   9  19  38  64  92 122 156 196 251 307 365
#     4  12  25  41  62  86 119 160 201 245 298 363
#     4  11  22  37  59  85 117 156 202 255 310 363
#     4  10  21  39  63  88 120 159 199 245 305 368
#
# _framework density 20.035205000000001
#
# number of rings (size 3 to 8) (size 9 to 14) (size 15 to 20)
#    0.000    1.231    2.308    3.923    0.000    6.154 
#    0.000    3.077    0.000    0.462    0.000    3.231 
#    0.000    0.000    0.000    0.000    0.000    0.000 
#
# Total GULP energy -644459.342809 kJ/mol
# GULP energy per Si atom -12393.448900 kJ/mol
# Density = 1.998960 g / cm^3
# Si number density = 20.035205 Si / 1000 Ang^3
#
#
#
# Elastic Constant Matrix: (Units=GPa)
#
#
# Indices 1 2 3 4 5 6 
#
# 1 124.8215 55.5235 43.3117 0.0000 0.0000 0.0000
# 2 55.5235 105.0733 51.9306 0.0000 0.0000 0.0000
# 3 43.3117 51.9306 134.5650 0.0000 0.0000 0.0000
# 4 0.0000 0.0000 0.0000 22.8256 0.0000 0.0000
# 5 0.0000 0.0000 0.0000 0.0000 24.9900 0.0000
# 6 0.0000 0.0000 0.0000 0.0000 0.0000 33.2100
#
#
#
# Elastic Compliance Matrix: (Units=1/GPa)
#
#
# Indices 1 2 3 4 5 6 
#
# 1 0.010733 -0.004899 -0.001564 0.000000 0.000000 0.000000
# 2 -0.004899 0.013996 -0.003825 0.000000 0.000000 0.000000
# 3 -0.001564 -0.003825 0.009411 0.000000 0.000000 0.000000
# 4 0.000000 0.000000 0.000000 0.043810 0.000000 0.000000
# 5 0.000000 0.000000 0.000000 0.000000 0.040016 0.000000
# 6 0.000000 0.000000 0.000000 0.000000 0.000000 0.030111
#
#
# Mechanical properties :
#
#
# Convention : Reuss Voigt Hill
#
# Bulk Modulus (GPa) = 73.71812 73.99904 73.85858
# Shear Modulus (GPa) = 28.87264 30.45138 29.66201
#
# Velocity S-wave (km/s) = 3.80029 3.90281 3.85189
# Velocity P-wave (km/s) = 7.49203 7.57126 7.53175
#
# Compressibility (1/GPa) = 0.01356519
#
# Stress axis : x y z
#
# Youngs Moduli (GPa) = 93.16852 71.44917 106.26145
#
# Poissons Ratio (x) = 0.35001 0.16621
# Poissons Ratio (y) = 0.45640 0.40640
# Poissons Ratio (z) = 0.14573 0.27326
#
# Static dielectric constant tensor:
#      x y z
#    x 4.814550 0.000000 0.000000 
#    y 0.000000 3.958190 0.000000 
#    z 0.000000 0.000000 3.641030 
# 
# 
# High freq. dielectric constant tensor:
#      x y z
#    x 1.767960 0.000000 0.000000 
#    y 0.000000 1.782490 0.000000 
#    z 0.000000 0.000000 1.783910 
# 
# From -- ./inp_files/8157.got.cif
#   From: 2010.03.12/outbox.cif.g09.slc.cpg/sg72_5_cif.got.tgz:8157.got - 2010.04.16 14:54:00.
