data_PCOD8294488
_publ_section_title
;
Structure prediction by ZEFSAII (Michael W. Deem and Ramdas Pophale) SiO2 
 PCOD8294488
Probable space group: I B A M
;
_chemical_formula_sum "Si O2"
_cell_formula_units_Z 96
_cell_length_a 19.853317
_cell_length_b 9.484000
_cell_length_c 24.734515
_cell_angle_alpha 90.000000
_cell_angle_beta 90.000000
_cell_angle_gamma 90.000000
_cell_volume 4657.233593
_symmetry_space_group_name_H-M "I B A M"
_symmetry_group_IT_number 72
_symmetry_cell_setting 'orthorhombic'
loop_
_space_group_symop_operation_xyz
x,y,z
-x,-y,z
x,-y,1/2-z
-x,y,1/2-z
-x,-y,-z
x,y,-z
-x,y,1/2+z
x,-y,1/2+z
1/2+x,1/2+y,1/2+z
1/2-x,1/2-y,1/2+z
1/2+x,1/2-y,-z
1/2-x,1/2+y,-z
1/2-x,1/2-y,1/2-z
1/2+x,1/2+y,1/2-z
1/2-x,1/2+y,z
1/2+x,1/2-y,z
loop_
_atom_site_type_symbol
_atom_site_label
_atom_site_fract_x
_atom_site_fract_y
_atom_site_fract_z
Si Si1 0.919504 0.340233 0.748669
Si Si2 0.437208 0.096688 0.564124
Si Si3 0.069091 0.828248 0.648262
Si Si4 0.179591 0.815373 0.938616
Si Si5 0.913473 0.141564 0.844940
Si Si6 0.294593 0.006062 0.939238
O O1 0.890703 0.500000 0.750000
O O2 0.896578 0.275867 0.691432
O O3 0.886638 0.240677 0.795753
O O4 0.000000 0.344339 0.750000
O O5 0.443289 0.113720 0.500000
O O6 0.433306 0.253520 0.589474
O O7 0.368933 0.021086 0.584579
O O8 0.500000 0.000000 0.585598
O O9 0.992403 0.856684 0.662467
O O10 0.109214 0.976435 0.653384
O O11 0.113048 0.798259 0.902056
O O12 0.231607 0.926778 0.911357
O O13 0.221112 0.670580 0.937812
O O14 0.156171 0.852833 0.000000
O O15 0.295298 0.945223 0.000000
#
# Coordination Sequence:
#
# PCOD8294488 Si02
#       6
#    16  16  16  16  16  16
#     4   9  19  34  57  83 111 149 197 243 287 351
#     4  10  21  35  57  88 121 153 193 245 300 357
#     4  10  21  34  57  84 120 152 189 241 300 353
#     4  10  21  37  58  83 116 155 198 240 285 349
#     4  10  21  36  54  87 119 151 191 245 297 344
#     4   9  20  36  55  79 111 154 197 235 280 344
#
# _framework density 20.613095999999999
#
# number of rings (size 3 to 8) (size 9 to 14) (size 15 to 20)
#    0.000    2.333    0.000    1.500    9.333    4.667 
#    0.000    1.667    0.000    1.000    0.000    0.000 
#    0.000    0.000    0.000    0.000    0.000    0.000 
#
# Total GULP energy -594629.308507 kJ/mol
# GULP energy per Si atom -12388.110594 kJ/mol
# Density = 2.056618 g / cm^3
# Si number density = 20.613096 Si / 1000 Ang^3
#
#
#
# Elastic Constant Matrix: (Units=GPa)
#
#
# Indices 1 2 3 4 5 6 
#
# 1 41.9524 16.8496 25.5410 0.0000 0.0000 0.0000
# 2 16.8496 158.8497 57.3774 0.0000 0.0000 0.0000
# 3 25.5410 57.3774 98.7266 0.0000 0.0000 0.0000
# 4 0.0000 0.0000 0.0000 36.0732 0.0000 0.0000
# 5 0.0000 0.0000 0.0000 0.0000 11.1247 0.0000
# 6 0.0000 0.0000 0.0000 0.0000 0.0000 21.1951
#
#
#
# Elastic Compliance Matrix: (Units=1/GPa)
#
#
# Indices 1 2 3 4 5 6 
#
# 1 0.028318 -0.000453 -0.007063 0.000000 0.000000 0.000000
# 2 -0.000453 0.007975 -0.004518 0.000000 0.000000 0.000000
# 3 -0.007063 -0.004518 0.014582 0.000000 0.000000 0.000000
# 4 0.000000 0.000000 0.000000 0.027721 0.000000 0.000000
# 5 0.000000 0.000000 0.000000 0.000000 0.089890 0.000000
# 6 0.000000 0.000000 0.000000 0.000000 0.000000 0.047181
#
#
# Mechanical properties :
#
#
# Convention : Reuss Voigt Hill
#
# Bulk Modulus (GPa) = 37.30177 55.45162 46.37670
# Shear Modulus (GPa) = 20.10695 26.99600 23.55147
#
# Velocity S-wave (km/s) = 3.12660 3.62284 3.38383
# Velocity P-wave (km/s) = 5.58297 6.66780 6.14935
#
# Compressibility (1/GPa) = 0.02680838
#
# Stress axis : x y z
#
# Youngs Moduli (GPa) = 35.31283 125.38959 68.57827
#
# Poissons Ratio (x) = 0.05675 0.48437
# Poissons Ratio (y) = 0.01598 0.30983
# Poissons Ratio (z) = 0.24942 0.56649
#
# Static dielectric constant tensor:
#      x y z
#    x 3.404160 0.000000 0.000000 
#    y 0.000000 4.094850 0.000000 
#    z 0.000000 0.000000 3.617660 
# 
# 
# High freq. dielectric constant tensor:
#      x y z
#    x 1.762630 0.000000 0.000000 
#    y 0.000000 1.824970 0.000000 
#    z 0.000000 0.000000 1.787870 
# 
# From -- ./inp_files/49363.got.cif
#   From: 2010.03.12/outbox.cif.g09.slc.cpg/sg72_25_cif.got.tgz:49363.got - 2010.04.16 14:54:00.
