data_PCOD8294144
_publ_section_title
;
Structure prediction by ZEFSAII (Michael W. Deem and Ramdas Pophale) SiO2 
 PCOD8294144
Probable space group: I B A M
;
_chemical_formula_sum "Si O2"
_cell_formula_units_Z 96
_cell_length_a 26.352673
_cell_length_b 20.140361
_cell_length_c 8.694185
_cell_angle_alpha 90.000000
_cell_angle_beta 90.000000
_cell_angle_gamma 90.000000
_cell_volume 4614.459099
_symmetry_space_group_name_H-M "I B A M"
_symmetry_group_IT_number 72
_symmetry_cell_setting 'orthorhombic'
loop_
_space_group_symop_operation_xyz
x,y,z
-x,-y,z
x,-y,1/2-z
-x,y,1/2-z
-x,-y,-z
x,y,-z
-x,y,1/2+z
x,-y,1/2+z
1/2+x,1/2+y,1/2+z
1/2-x,1/2-y,1/2+z
1/2+x,1/2-y,-z
1/2-x,1/2+y,-z
1/2-x,1/2-y,1/2-z
1/2+x,1/2+y,1/2-z
1/2-x,1/2+y,z
1/2+x,1/2-y,z
loop_
_atom_site_type_symbol
_atom_site_label
_atom_site_fract_x
_atom_site_fract_y
_atom_site_fract_z
Si Si1 0.881679 0.433536 0.679790
Si Si2 0.053735 0.684390 0.817865
Si Si3 0.110091 0.201209 0.178711
Si Si4 0.699381 0.766763 0.832276
Si Si5 0.719539 0.915713 0.832263
Si Si6 0.664885 0.430696 0.182605
O O1 0.908256 0.500000 0.750000
O O2 0.892518 0.429507 0.500000
O O3 0.904130 0.367276 0.757719
O O4 0.821072 0.443618 0.710454
O O5 0.064508 0.761538 0.768350
O O6 0.000000 0.662189 0.750000
O O7 0.052996 0.681241 0.000000
O O8 0.157505 0.248649 0.207683
O O9 0.126415 0.127645 0.240068
O O10 0.095930 0.198742 0.000000
O O11 0.750000 0.750000 0.750000
O O12 0.699931 0.843252 0.866030
O O13 0.691899 0.730896 0.000000
O O14 0.776804 0.918743 0.761509
O O15 0.718224 0.952427 0.000000
O O16 0.644320 0.500000 0.250000
O O17 0.663848 0.431619 0.000000
#
# Coordination Sequence:
#
# PCOD8294144 Si02
#       6
#    16  16  16  16  16  16
#     4  12  25  41  62  90 125 168 209 253 301 355
#     4  12  26  46  69  95 120 151 198 253 311 373
#     4  11  22  40  62  88 121 159 202 254 310 365
#     4  11  20  32  54  84 120 159 204 251 299 356
#     4  10  20  36  55  84 124 167 210 252 293 350
#     4  10  22  38  57  86 126 166 207 249 297 358
#
# _framework density 20.804171
#
# number of rings (size 3 to 8) (size 9 to 14) (size 15 to 20)
#    0.000    1.000    3.333    4.500    0.000    4.333 
#    0.000    1.667    0.000    0.500    0.000    3.500 
#    0.000    0.000    0.000    0.000    0.000    0.000 
#
# Total GULP energy -594654.078191 kJ/mol
# GULP energy per Si atom -12388.626629 kJ/mol
# Density = 2.075682 g / cm^3
# Si number density = 20.804171 Si / 1000 Ang^3
#
#
#
# Elastic Constant Matrix: (Units=GPa)
#
#
# Indices 1 2 3 4 5 6 
#
# 1 65.6003 26.7809 28.8405 0.0000 0.0000 0.0000
# 2 26.7809 135.6731 46.1694 0.0000 0.0000 0.0000
# 3 28.8405 46.1694 117.7751 0.0000 0.0000 0.0000
# 4 0.0000 0.0000 0.0000 32.9081 0.0000 0.0000
# 5 0.0000 0.0000 0.0000 0.0000 25.4523 0.0000
# 6 0.0000 0.0000 0.0000 0.0000 0.0000 5.9421
#
#
#
# Elastic Compliance Matrix: (Units=1/GPa)
#
#
# Indices 1 2 3 4 5 6 
#
# 1 0.017699 -0.002330 -0.003421 0.000000 0.000000 0.000000
# 2 -0.002330 0.008812 -0.002884 0.000000 0.000000 0.000000
# 3 -0.003421 -0.002884 0.010459 0.000000 0.000000 0.000000
# 4 0.000000 0.000000 0.000000 0.030388 0.000000 0.000000
# 5 0.000000 0.000000 0.000000 0.000000 0.039289 0.000000
# 6 0.000000 0.000000 0.000000 0.000000 0.000000 0.168290
#
#
# Mechanical properties :
#
#
# Convention : Reuss Voigt Hill
#
# Bulk Modulus (GPa) = 50.75862 58.07003 54.41433
# Shear Modulus (GPa) = 16.73516 27.34436 22.03976
#
# Velocity S-wave (km/s) = 2.83930 3.62936 3.25836
# Velocity P-wave (km/s) = 5.93296 6.74806 6.35359
#
# Compressibility (1/GPa) = 0.01970109
#
# Stress axis : x y z
#
# Youngs Moduli (GPa) = 56.50112 113.48310 95.61160
#
# Poissons Ratio (x) = 0.26436 0.32707
# Poissons Ratio (y) = 0.13162 0.27574
# Poissons Ratio (z) = 0.19328 0.32728
#
# Static dielectric constant tensor:
#      x y z
#    x 3.592100 0.000000 0.000000 
#    y 0.000000 4.051080 0.000000 
#    z 0.000000 0.000000 3.786630 
# 
# 
# High freq. dielectric constant tensor:
#      x y z
#    x 1.782000 0.000000 0.000000 
#    y 0.000000 1.820760 0.000000 
#    z 0.000000 0.000000 1.820070 
# 
# From -- ./inp_files/8060.got.cif
#   From: 2010.03.12/outbox.cif.g09.slc.cpg/sg72_5_cif.got.tgz:8060.got - 2010.04.16 14:54:00.
