data_PCOD8294582
_publ_section_title
;
Structure prediction by ZEFSAII (Michael W. Deem and Ramdas Pophale) SiO2 
 PCOD8294582
Probable space group: I B A M
;
_chemical_formula_sum "Si O2"
_cell_formula_units_Z 104
_cell_length_a 26.490671
_cell_length_b 21.407725
_cell_length_c 9.180686
_cell_angle_alpha 90.000000
_cell_angle_beta 90.000000
_cell_angle_gamma 90.000000
_cell_volume 5206.412933
_symmetry_space_group_name_H-M "I B A M"
_symmetry_group_IT_number 72
_symmetry_cell_setting 'orthorhombic'
loop_
_space_group_symop_operation_xyz
x,y,z
-x,-y,z
x,-y,1/2-z
-x,y,1/2-z
-x,-y,-z
x,y,-z
-x,y,1/2+z
x,-y,1/2+z
1/2+x,1/2+y,1/2+z
1/2-x,1/2-y,1/2+z
1/2+x,1/2-y,-z
1/2-x,1/2+y,-z
1/2-x,1/2-y,1/2-z
1/2+x,1/2+y,1/2-z
1/2-x,1/2+y,z
1/2+x,1/2-y,z
loop_
_atom_site_type_symbol
_atom_site_label
_atom_site_fract_x
_atom_site_fract_y
_atom_site_fract_z
Si Si1 0.447002 0.181735 0.172155
Si Si2 0.288111 0.573050 0.154176
Si Si3 0.616014 0.559160 0.829763
Si Si4 0.642442 0.877987 0.332712
Si Si5 0.551714 0.676469 0.169404
Si Si6 0.303820 0.000000 0.250000
Si Si7 0.271154 0.192315 0.834741
O O1 0.500000 0.170857 0.250000
O O2 0.409336 0.131919 0.244603
O O3 0.428534 0.253272 0.201923
O O4 0.451647 0.168471 0.000000
O O5 0.324294 0.556440 0.289161
O O6 0.234541 0.536856 0.144769
O O7 0.275677 0.645549 0.164268
O O8 0.316435 0.559564 0.000000
O O9 0.589195 0.500000 0.750000
O O10 0.592599 0.625126 0.777204
O O11 0.609682 0.550607 0.000000
O O12 0.635314 0.857591 0.500000
O O13 0.682348 0.833633 0.255911
O O14 0.659915 0.950385 0.330169
O O15 0.500000 0.662066 0.250000
O O16 0.540534 0.668274 0.000000
O O17 0.250000 0.250000 0.750000
O O18 0.288672 0.208786 0.000000
#
# Coordination Sequence:
#
# PCOD8294582 Si02
#       7
#    16  16  16  16  16   8  16
#     4  10  21  41  66  93 123 158 199 251 309 371
#     4  10  21  37  57  82 113 154 200 243 293 351
#     4  11  23  37  56  84 116 154 201 247 298 354
#     4  11  23  39  63  93 123 162 206 253 309 368
#     4   9  21  40  61  86 115 153 195 244 303 361
#     4  10  22  40  63  86 121 160 206 246 300 360
#     4  10  22  38  56  85 121 157 200 249 302 360
#
# _framework density 19.975365
#
# number of rings (size 3 to 8) (size 9 to 14) (size 15 to 20)
#    0.000    1.846    0.769    2.308    2.154    7.077 
#    0.000    1.923    0.000    1.846    0.000    0.000 
#    0.000    0.000    0.000    0.000    0.000    0.000 
#
# Total GULP energy -644519.747329 kJ/mol
# GULP energy per Si atom -12394.610526 kJ/mol
# Density = 1.992990 g / cm^3
# Si number density = 19.975365 Si / 1000 Ang^3
#
#
#
# Elastic Constant Matrix: (Units=GPa)
#
#
# Indices 1 2 3 4 5 6 
#
# 1 92.7990 52.2732 43.5980 0.0000 0.0000 0.0000
# 2 52.2732 118.2202 48.4243 0.0000 0.0000 0.0000
# 3 43.5980 48.4243 133.7825 0.0000 0.0000 0.0000
# 4 0.0000 0.0000 0.0000 25.1658 0.0000 0.0000
# 5 0.0000 0.0000 0.0000 0.0000 32.6736 0.0000
# 6 0.0000 0.0000 0.0000 0.0000 0.0000 28.3890
#
#
#
# Elastic Compliance Matrix: (Units=1/GPa)
#
#
# Indices 1 2 3 4 5 6 
#
# 1 0.015299 -0.005544 -0.002979 0.000000 0.000000 0.000000
# 2 -0.005544 0.011941 -0.002515 0.000000 0.000000 0.000000
# 3 -0.002979 -0.002515 0.009356 0.000000 0.000000 0.000000
# 4 0.000000 0.000000 0.000000 0.039736 0.000000 0.000000
# 5 0.000000 0.000000 0.000000 0.000000 0.030606 0.000000
# 6 0.000000 0.000000 0.000000 0.000000 0.000000 0.035225
#
#
# Mechanical properties :
#
#
# Convention : Reuss Voigt Hill
#
# Bulk Modulus (GPa) = 68.87799 70.37698 69.62748
# Shear Modulus (GPa) = 29.57208 30.61276 30.09242
#
# Velocity S-wave (km/s) = 3.85181 3.91900 3.88555
# Velocity P-wave (km/s) = 7.37145 7.46903 7.42040
#
# Compressibility (1/GPa) = 0.01451843
#
# Stress axis : x y z
#
# Youngs Moduli (GPa) = 65.36564 83.74773 106.88378
#
# Poissons Ratio (x) = 0.46433 0.31838
# Poissons Ratio (y) = 0.36241 0.26884
# Poissons Ratio (z) = 0.19471 0.21064
#
# Static dielectric constant tensor:
#      x y z
#    x 3.496940 0.000000 0.000000 
#    y 0.000000 3.889810 0.000000 
#    z 0.000000 0.000000 3.669940 
# 
# 
# High freq. dielectric constant tensor:
#      x y z
#    x 1.761480 0.000000 0.000000 
#    y 0.000000 1.789120 0.000000 
#    z 0.000000 0.000000 1.788870 
# 
# From -- ./inp_files/8166.got.cif
#   From: 2010.03.12/outbox.cif.g09.slc.cpg/sg72_5_cif.got.tgz:8166.got - 2010.04.16 14:54:00.
