data_PCOD8294181
_publ_section_title
;
Structure prediction by ZEFSAII (Michael W. Deem and Ramdas Pophale) SiO2 
 PCOD8294181
Probable space group: I B A M
;
_chemical_formula_sum "Si O2"
_cell_formula_units_Z 96
_cell_length_a 21.601023
_cell_length_b 13.525213
_cell_length_c 14.271577
_cell_angle_alpha 90.000000
_cell_angle_beta 90.000000
_cell_angle_gamma 90.000000
_cell_volume 4169.561631
_symmetry_space_group_name_H-M "I B A M"
_symmetry_group_IT_number 72
_symmetry_cell_setting 'orthorhombic'
loop_
_space_group_symop_operation_xyz
x,y,z
-x,-y,z
x,-y,1/2-z
-x,y,1/2-z
-x,-y,-z
x,y,-z
-x,y,1/2+z
x,-y,1/2+z
1/2+x,1/2+y,1/2+z
1/2-x,1/2-y,1/2+z
1/2+x,1/2-y,-z
1/2-x,1/2+y,-z
1/2-x,1/2-y,1/2-z
1/2+x,1/2+y,1/2-z
1/2-x,1/2+y,z
1/2+x,1/2-y,z
loop_
_atom_site_type_symbol
_atom_site_label
_atom_site_fract_x
_atom_site_fract_y
_atom_site_fract_z
Si Si1 0.401805 0.254649 0.388395
Si Si2 0.213016 0.843832 0.281625
Si Si3 0.823508 0.396185 0.893484
Si Si4 0.147084 0.165644 0.395463
Si Si5 0.432985 0.035037 0.611432
Si Si6 0.508778 0.607729 0.890940
O O1 0.397939 0.255201 0.500000
O O2 0.339866 0.305272 0.351075
O O3 0.412769 0.143139 0.351644
O O4 0.458946 0.317665 0.347080
O O5 0.250000 0.750000 0.250000
O O6 0.260497 0.917514 0.334610
O O7 0.185575 0.892551 0.185409
O O8 0.841385 0.281751 0.888692
O O9 0.880543 0.459242 0.851911
O O10 0.810240 0.428935 0.000000
O O11 0.164242 0.125789 0.500000
O O12 0.076056 0.149617 0.371616
O O13 0.436503 0.034244 0.500000
O O14 0.500000 0.000000 0.651371
O O15 0.500000 0.500000 0.844337
O O16 0.494126 0.600012 0.000000
#
# Coordination Sequence:
#
# PCOD8294181 Si02
#       6
#    16  16  16  16  16  16
#     4  10  20  36  59  86 119 154 191 242 300 361
#     4  10  21  37  55  80 116 156 197 238 288 356
#     4   9  17  33  58  86 119 154 190 236 291 351
#     4   9  18  35  58  82 111 149 193 245 296 344
#     4   9  17  32  59  92 121 156 200 245 300 362
#     4   9  18  35  59  85 113 147 190 240 294 348
#
# _framework density 23.024004000000001
#
# number of rings (size 3 to 8) (size 9 to 14) (size 15 to 20)
#    0.000    2.667    0.000    1.500    0.000    5.333 
#    0.000   10.000    0.000   16.000    0.000    1.167 
#    0.000    0.667    0.000    0.000    0.000    0.000 
#
# Total GULP energy -594922.170851 kJ/mol
# GULP energy per Si atom -12394.211893 kJ/mol
# Density = 2.297160 g / cm^3
# Si number density = 23.024004 Si / 1000 Ang^3
#
#
#
# Elastic Constant Matrix: (Units=GPa)
#
#
# Indices 1 2 3 4 5 6 
#
# 1 198.6133 63.0818 67.7434 0.0000 0.0000 0.0000
# 2 63.0818 63.0843 32.2987 0.0000 0.0000 0.0000
# 3 67.7434 32.2987 88.6980 0.0000 0.0000 0.0000
# 4 0.0000 0.0000 0.0000 4.4896 0.0000 0.0000
# 5 0.0000 0.0000 0.0000 0.0000 11.0648 0.0000
# 6 0.0000 0.0000 0.0000 0.0000 0.0000 40.7925
#
#
#
# Elastic Compliance Matrix: (Units=1/GPa)
#
#
# Indices 1 2 3 4 5 6 
#
# 1 0.008466 -0.006336 -0.004158 0.000000 0.000000 0.000000
# 2 -0.006336 0.024227 -0.003983 0.000000 0.000000 0.000000
# 3 -0.004158 -0.003983 0.015900 0.000000 0.000000 0.000000
# 4 0.000000 0.000000 0.000000 0.222736 0.000000 0.000000
# 5 0.000000 0.000000 0.000000 0.000000 0.090377 0.000000
# 6 0.000000 0.000000 0.000000 0.000000 0.000000 0.024514
#
#
# Mechanical properties :
#
#
# Convention : Reuss Voigt Hill
#
# Bulk Modulus (GPa) = 50.92073 75.18259 63.05166
# Shear Modulus (GPa) = 11.85617 23.75416 17.80517
#
# Velocity S-wave (km/s) = 2.27171 3.21551 2.78390
# Velocity P-wave (km/s) = 5.38937 6.81989 6.14639
#
# Compressibility (1/GPa) = 0.01963837
#
# Stress axis : x y z
#
# Youngs Moduli (GPa) = 118.12274 41.27627 62.89119
#
# Poissons Ratio (x) = 0.26154 0.26153
# Poissons Ratio (y) = 0.74847 0.25047
# Poissons Ratio (z) = 0.49121 0.16439
#
# Static dielectric constant tensor:
#      x y z
#    x 4.628670 0.000000 0.000000 
#    y 0.000000 4.072630 0.000000 
#    z 0.000000 0.000000 4.585620 
# 
# 
# High freq. dielectric constant tensor:
#      x y z
#    x 1.920330 0.000000 0.000000 
#    y 0.000000 1.891690 0.000000 
#    z 0.000000 0.000000 1.910300 
# 
# From -- ./inp_files/24167.got.cif
#   From: 2010.03.12/outbox.cif.g09.slc.cpg/sg72_13_cif.got.tgz:24167.got - 2010.04.16 14:54:00.
