data_PCOD8294082
_publ_section_title
;
Structure prediction by ZEFSAII (Michael W. Deem and Ramdas Pophale) SiO2 
 PCOD8294082
Probable space group: I B A M
;
_chemical_formula_sum "Si O2"
_cell_formula_units_Z 112
_cell_length_a 21.368189
_cell_length_b 17.655306
_cell_length_c 15.080776
_cell_angle_alpha 90.000000
_cell_angle_beta 90.000000
_cell_angle_gamma 90.000000
_cell_volume 5689.402440
_symmetry_space_group_name_H-M "I B A M"
_symmetry_group_IT_number 72
_symmetry_cell_setting 'orthorhombic'
loop_
_space_group_symop_operation_xyz
x,y,z
-x,-y,z
x,-y,1/2-z
-x,y,1/2-z
-x,-y,-z
x,y,-z
-x,y,1/2+z
x,-y,1/2+z
1/2+x,1/2+y,1/2+z
1/2-x,1/2-y,1/2+z
1/2+x,1/2-y,-z
1/2-x,1/2+y,-z
1/2-x,1/2-y,1/2-z
1/2+x,1/2+y,1/2-z
1/2-x,1/2+y,z
1/2+x,1/2-y,z
loop_
_atom_site_type_symbol
_atom_site_label
_atom_site_fract_x
_atom_site_fract_y
_atom_site_fract_z
Si Si1 0.852141 0.415324 0.267665
Si Si2 0.132546 0.822314 0.097693
Si Si3 0.447753 0.856282 0.898150
Si Si4 0.427187 0.589338 0.247486
Si Si5 0.267311 0.210312 0.660119
Si Si6 0.591089 0.157491 0.400084
Si Si7 0.884346 0.201691 0.399635
O O1 0.829398 0.500000 0.250000
O O2 0.913386 0.413558 0.330856
O O3 0.798081 0.370788 0.319167
O O4 0.863666 0.380268 0.170949
O O5 0.109861 0.884081 0.166389
O O6 0.206086 0.803967 0.102334
O O7 0.092392 0.747136 0.115175
O O8 0.118394 0.854409 0.000000
O O9 0.520807 0.871199 0.885403
O O10 0.431244 0.769640 0.872035
O O11 0.426963 0.872086 0.000000
O O12 0.417456 0.500000 0.250000
O O13 0.500000 0.611257 0.250000
O O14 0.395900 0.628820 0.161986
O O15 0.250000 0.250000 0.750000
O O16 0.314021 0.266119 0.608054
O O17 0.613959 0.137273 0.500000
O O18 0.896567 0.174997 0.500000
#
# Coordination Sequence:
#
# PCOD8294082 Si02
#       7
#    16  16  16  16  16  16  16
#     4  11  23  37  58  84 119 158 192 233 291 355
#     4  11  22  40  65  89 116 153 203 253 301 354
#     4   9  19  35  58  86 117 151 195 240 284 345
#     4  11  24  39  58  88 127 161 196 247 306 364
#     4  11  20  40  63  86 114 153 198 250 296 343
#     4  10  20  35  57  87 116 150 195 242 288 345
#     4  10  20  37  63  88 114 153 203 249 295 352
#
# _framework density 19.685721999999998
#
# number of rings (size 3 to 8) (size 9 to 14) (size 15 to 20)
#    0.000    1.571    2.857    2.571    0.000    5.143 
#    0.000    2.857    0.000    0.000    0.000    0.000 
#    0.000    0.000    0.000    0.000    0.000    0.000 
#
# Total GULP energy -694490.708167 kJ/mol
# GULP energy per Si atom -12401.619789 kJ/mol
# Density = 1.964092 g / cm^3
# Si number density = 19.685722 Si / 1000 Ang^3
#
#
#
# Elastic Constant Matrix: (Units=GPa)
#
#
# Indices 1 2 3 4 5 6 
#
# 1 76.5795 21.8397 20.4829 0.0000 0.0000 0.0000
# 2 21.8397 81.6882 40.5170 0.0000 0.0000 0.0000
# 3 20.4829 40.5170 111.1057 0.0000 0.0000 0.0000
# 4 0.0000 0.0000 0.0000 7.9355 0.0000 0.0000
# 5 0.0000 0.0000 0.0000 0.0000 23.2476 0.0000
# 6 0.0000 0.0000 0.0000 0.0000 0.0000 20.4212
#
#
#
# Elastic Compliance Matrix: (Units=1/GPa)
#
#
# Indices 1 2 3 4 5 6 
#
# 1 0.014344 -0.003080 -0.001521 0.000000 0.000000 0.000000
# 2 -0.003080 0.015606 -0.005123 0.000000 0.000000 0.000000
# 3 -0.001521 -0.005123 0.011149 0.000000 0.000000 0.000000
# 4 0.000000 0.000000 0.000000 0.126015 0.000000 0.000000
# 5 0.000000 0.000000 0.000000 0.000000 0.043015 0.000000
# 6 0.000000 0.000000 0.000000 0.000000 0.000000 0.048969
#
#
# Mechanical properties :
#
#
# Convention : Reuss Voigt Hill
#
# Bulk Modulus (GPa) = 46.18990 48.33918 47.26454
# Shear Modulus (GPa) = 17.49693 22.75646 20.12669
#
# Velocity S-wave (km/s) = 2.98453 3.40367 3.20097
# Velocity P-wave (km/s) = 5.94905 6.32893 6.14193
#
# Compressibility (1/GPa) = 0.02164975
#
# Stress axis : x y z
#
# Youngs Moduli (GPa) = 69.71727 64.07644 89.69297
#
# Poissons Ratio (x) = 0.19738 0.13642
# Poissons Ratio (y) = 0.21476 0.45952
# Poissons Ratio (z) = 0.10604 0.32828
#
# Static dielectric constant tensor:
#      x y z
#    x 1.966380 0.000000 0.000000 
#    y 0.000000 3.350240 0.000000 
#    z 0.000000 0.000000 3.589350 
# 
# 
# High freq. dielectric constant tensor:
#      x y z
#    x 1.767620 0.000000 0.000000 
#    y 0.000000 1.744690 0.000000 
#    z 0.000000 0.000000 1.784050 
# 
# From -- ./inp_files/25226.got.cif
#   From: 2010.03.12/outbox.cif.g09.slc.cpg/sg72_13_cif.got.tgz:25226.got - 2010.04.16 14:54:00.
