data_PCOD8294564
_publ_section_title
;
Structure prediction by ZEFSAII (Michael W. Deem and Ramdas Pophale) SiO2 
 PCOD8294564
Probable space group: I B A M
;
_chemical_formula_sum "Si O2"
_cell_formula_units_Z 116
_cell_length_a 26.606035
_cell_length_b 26.170272
_cell_length_c 8.875484
_cell_angle_alpha 90.000000
_cell_angle_beta 90.000000
_cell_angle_gamma 90.000000
_cell_volume 6179.885662
_symmetry_space_group_name_H-M "I B A M"
_symmetry_group_IT_number 72
_symmetry_cell_setting 'orthorhombic'
loop_
_space_group_symop_operation_xyz
x,y,z
-x,-y,z
x,-y,1/2-z
-x,y,1/2-z
-x,-y,-z
x,y,-z
-x,y,1/2+z
x,-y,1/2+z
1/2+x,1/2+y,1/2+z
1/2-x,1/2-y,1/2+z
1/2+x,1/2-y,-z
1/2-x,1/2+y,-z
1/2-x,1/2-y,1/2-z
1/2+x,1/2+y,1/2-z
1/2-x,1/2+y,z
1/2+x,1/2-y,z
loop_
_atom_site_type_symbol
_atom_site_label
_atom_site_fract_x
_atom_site_fract_y
_atom_site_fract_z
Si Si1 0.209582 0.311933 0.330777
Si Si2 0.000000 0.500000 0.750000
Si Si3 0.214740 0.948989 0.822107
Si Si4 0.051271 0.316886 0.677753
Si Si5 0.680004 0.924684 0.828874
Si Si6 0.580934 0.921871 0.331990
Si Si7 0.132292 0.248925 0.172870
Si Si8 0.316743 0.351498 0.325956
O O1 0.208427 0.289044 0.500000
O O2 0.176290 0.363393 0.327198
O O3 0.186707 0.272534 0.211250
O O4 0.265800 0.323108 0.276583
O O5 0.036418 0.463504 0.847020
O O6 0.271117 0.943070 0.759974
O O7 0.178088 0.902346 0.774078
O O8 0.191053 0.000000 0.750000
O O9 0.216158 0.953256 0.000000
O O10 0.045861 0.321430 0.500000
O O11 0.063296 0.372676 0.740211
O O12 0.092025 0.273655 0.716282
O O13 0.000000 0.296639 0.750000
O O14 0.629820 0.946213 0.749176
O O15 0.682815 0.945491 0.000000
O O16 0.595747 0.904492 0.500000
O O17 0.136701 0.187499 0.198830
O O18 0.118580 0.260894 0.000000
O O19 0.311914 0.368312 0.500000
#
# Coordination Sequence:
#
# PCOD8294564 Si02
#       8
#    16   4  16  16  16  16  16  16
#     4   9  17  31  51  77 110 144 177 220 270 324
#     4  12  30  44  60  78 110 132 182 252 300 348
#     4  11  22  37  57  80 110 149 189 228 273 325
#     4  12  25  42  62  82 108 142 184 234 287 344
#     4  10  21  37  56  78 106 139 181 231 280 333
#     4  12  25  42  61  79 102 136 182 234 296 349
#     4  11  21  34  56  83 112 146 181 224 279 338
#     4   9  20  36  53  79 115 148 184 226 270 328
#
# _framework density 18.770574
#
# number of rings (size 3 to 8) (size 9 to 14) (size 15 to 20)
#    0.000    1.379    2.069    5.172    0.966    4.966 
#    0.000    0.000    0.000    0.000    0.000    0.000 
#    0.000    0.552    0.000    5.793    0.000    2.483 
#
# Total GULP energy -719202.757341 kJ/mol
# GULP energy per Si atom -12400.047540 kJ/mol
# Density = 1.872785 g / cm^3
# Si number density = 18.770574 Si / 1000 Ang^3
#
#
#
# Elastic Constant Matrix: (Units=GPa)
#
#
# Indices 1 2 3 4 5 6 
#
# 1 47.0063 36.7050 26.8457 0.0000 0.0000 0.0000
# 2 36.7050 104.3431 53.0718 0.0000 0.0000 0.0000
# 3 26.8457 53.0718 143.8222 0.0000 0.0000 0.0000
# 4 0.0000 0.0000 0.0000 27.7800 0.0000 0.0000
# 5 0.0000 0.0000 0.0000 0.0000 20.2373 0.0000
# 6 0.0000 0.0000 0.0000 0.0000 0.0000 18.7906
#
#
#
# Elastic Compliance Matrix: (Units=1/GPa)
#
#
# Indices 1 2 3 4 5 6 
#
# 1 0.029831 -0.009432 -0.002088 0.000000 0.000000 0.000000
# 2 -0.009432 0.014780 -0.003694 0.000000 0.000000 0.000000
# 3 -0.002088 -0.003694 0.008706 0.000000 0.000000 0.000000
# 4 0.000000 0.000000 0.000000 0.035997 0.000000 0.000000
# 5 0.000000 0.000000 0.000000 0.000000 0.049414 0.000000
# 6 0.000000 0.000000 0.000000 0.000000 0.000000 0.053218
#
#
# Mechanical properties :
#
#
# Convention : Reuss Voigt Hill
#
# Bulk Modulus (GPa) = 43.68593 58.71294 51.19944
# Shear Modulus (GPa) = 21.73892 25.26485 23.50189
#
# Velocity S-wave (km/s) = 3.40684 3.67274 3.54228
# Velocity P-wave (km/s) = 6.22893 7.02371 6.63822
#
# Compressibility (1/GPa) = 0.02289066
#
# Stress axis : x y z
#
# Youngs Moduli (GPa) = 33.52223 67.65793 114.86752
#
# Poissons Ratio (x) = 0.63814 0.23982
# Poissons Ratio (y) = 0.31617 0.42427
# Poissons Ratio (z) = 0.06999 0.24990
#
# Static dielectric constant tensor:
#      x y z
#    x 3.349490 0.000000 0.000000 
#    y 0.000000 3.537770 0.000000 
#    z 0.000000 0.000000 3.459410 
# 
# 
# High freq. dielectric constant tensor:
#      x y z
#    x 1.689600 0.000000 0.000000 
#    y 0.000000 1.723770 0.000000 
#    z 0.000000 0.000000 1.739560 
# 
# From -- ./inp_files/8718.got.cif
#   From: 2010.03.12/outbox.cif.g09.slc.cpg/sg72_5_cif.got.tgz:8718.got - 2010.04.16 14:54:00.
