data_PCOD8294150
_publ_section_title
;
Structure prediction by ZEFSAII (Michael W. Deem and Ramdas Pophale) SiO2 
 PCOD8294150
Probable space group: I B A M
;
_chemical_formula_sum "Si O2"
_cell_formula_units_Z 112
_cell_length_a 20.265720
_cell_length_b 10.610322
_cell_length_c 27.526184
_cell_angle_alpha 90.000000
_cell_angle_beta 90.000000
_cell_angle_gamma 90.000000
_cell_volume 5918.840142
_symmetry_space_group_name_H-M "I B A M"
_symmetry_group_IT_number 72
_symmetry_cell_setting 'orthorhombic'
loop_
_space_group_symop_operation_xyz
x,y,z
-x,-y,z
x,-y,1/2-z
-x,y,1/2-z
-x,-y,-z
x,y,-z
-x,y,1/2+z
x,-y,1/2+z
1/2+x,1/2+y,1/2+z
1/2-x,1/2-y,1/2+z
1/2+x,1/2-y,-z
1/2-x,1/2+y,-z
1/2-x,1/2-y,1/2-z
1/2+x,1/2+y,1/2-z
1/2-x,1/2+y,z
1/2+x,1/2-y,z
loop_
_atom_site_type_symbol
_atom_site_label
_atom_site_fract_x
_atom_site_fract_y
_atom_site_fract_z
Si Si1 0.387717 0.745905 0.362495
Si Si2 0.315278 0.178455 0.695595
Si Si3 0.826571 0.121489 0.223661
Si Si4 0.706951 0.510909 0.054867
Si Si5 0.426847 0.013283 0.192692
Si Si6 0.750449 0.760422 0.897637
Si Si7 0.059295 0.095698 0.555413
O O1 0.364306 0.630847 0.327868
O O2 0.411181 0.848051 0.324614
O O3 0.325052 0.802293 0.390609
O O4 0.442545 0.704642 0.402876
O O5 0.251334 0.099902 0.713196
O O6 0.340342 0.259065 0.741499
O O7 0.292516 0.269703 0.651900
O O8 0.373212 0.088855 0.674485
O O9 0.855882 0.000000 0.250000
O O10 0.750514 0.614904 0.083703
O O11 0.720989 0.365163 0.066546
O O12 0.628983 0.527274 0.063223
O O13 0.727019 0.535257 0.000000
O O14 0.500000 0.000000 0.171046
O O15 0.426286 0.000000 0.250000
O O16 0.053542 0.149894 0.500000
O O17 0.000000 0.000000 0.565684
#
# Coordination Sequence:
#
# PCOD8294150 Si02
#       7
#    16  16  16  16  16  16  16
#     4  10  21  38  56  83 112 147 188 235 287 337
#     4  10  21  34  55  79 112 147 191 231 278 342
#     4  10  21  33  56  82 111 146 185 240 281 330
#     4  10  20  36  56  83 115 145 184 237 295 347
#     4  11  22  38  54  75 113 156 191 222 277 345
#     4  10  21  33  57  85 111 144 185 237 291 343
#     4   9  20  39  61  83 111 150 194 240 288 347
#
# _framework density 18.922626000000001
#
# number of rings (size 3 to 8) (size 9 to 14) (size 15 to 20)
#    0.000    2.000    1.429    1.714   10.000    1.714 
#    0.000    0.000    0.000    0.429    0.000    0.000 
#    0.000    0.000    0.000    0.000    0.000    0.000 
#
# Total GULP energy -693935.755395 kJ/mol
# GULP energy per Si atom -12391.709918 kJ/mol
# Density = 1.887956 g / cm^3
# Si number density = 18.922626 Si / 1000 Ang^3
#
#
#
# Elastic Constant Matrix: (Units=GPa)
#
#
# Indices 1 2 3 4 5 6 
#
# 1 68.7867 35.5339 29.3092 0.0000 0.0000 0.0000
# 2 35.5339 89.9836 39.1893 0.0000 0.0000 0.0000
# 3 29.3092 39.1893 107.0812 0.0000 0.0000 0.0000
# 4 0.0000 0.0000 0.0000 36.3674 0.0000 0.0000
# 5 0.0000 0.0000 0.0000 0.0000 19.5121 0.0000
# 6 0.0000 0.0000 0.0000 0.0000 0.0000 19.2008
#
#
#
# Elastic Compliance Matrix: (Units=1/GPa)
#
#
# Indices 1 2 3 4 5 6 
#
# 1 0.019001 -0.006232 -0.002920 0.000000 0.000000 0.000000
# 2 -0.006232 0.015264 -0.003881 0.000000 0.000000 0.000000
# 3 -0.002920 -0.003881 0.011558 0.000000 0.000000 0.000000
# 4 0.000000 0.000000 0.000000 0.027497 0.000000 0.000000
# 5 0.000000 0.000000 0.000000 0.000000 0.051250 0.000000
# 6 0.000000 0.000000 0.000000 0.000000 0.000000 0.052081
#
#
# Mechanical properties :
#
#
# Convention : Reuss Voigt Hill
#
# Bulk Modulus (GPa) = 50.61112 52.65736 51.63424
# Shear Modulus (GPa) = 23.88884 25.80402 24.84643
#
# Velocity S-wave (km/s) = 3.55695 3.69678 3.62754
# Velocity P-wave (km/s) = 6.60860 6.79041 6.70012
#
# Compressibility (1/GPa) = 0.01975850
#
# Stress axis : x y z
#
# Youngs Moduli (GPa) = 52.62862 65.51343 86.51868
#
# Poissons Ratio (x) = 0.40826 0.25265
# Poissons Ratio (y) = 0.32796 0.33575
# Poissons Ratio (z) = 0.15368 0.25423
#
# Static dielectric constant tensor:
#      x y z
#    x 3.567130 0.000000 0.000000 
#    y 0.000000 3.281870 0.000000 
#    z 0.000000 0.000000 3.655490 
# 
# 
# High freq. dielectric constant tensor:
#      x y z
#    x 1.717600 0.000000 0.000000 
#    y 0.000000 1.720640 0.000000 
#    z 0.000000 0.000000 1.746020 
# 
# From -- ./inp_files/45413.got.cif
#   From: 2010.03.12/outbox.cif.g09.slc.cpg/sg72_23_cif.got.tgz:45413.got - 2010.04.16 14:54:00.
