data_PCOD8294271
_publ_section_title
;
Structure prediction by ZEFSAII (Michael W. Deem and Ramdas Pophale) SiO2 
 PCOD8294271
Probable space group: I B A M
;
_chemical_formula_sum "Si O2"
_cell_formula_units_Z 112
_cell_length_a 19.554662
_cell_length_b 16.098326
_cell_length_c 19.049505
_cell_angle_alpha 90.000000
_cell_angle_beta 90.000000
_cell_angle_gamma 90.000000
_cell_volume 5996.733192
_symmetry_space_group_name_H-M "I B A M"
_symmetry_group_IT_number 72
_symmetry_cell_setting 'orthorhombic'
loop_
_space_group_symop_operation_xyz
x,y,z
-x,-y,z
x,-y,1/2-z
-x,y,1/2-z
-x,-y,-z
x,y,-z
-x,y,1/2+z
x,-y,1/2+z
1/2+x,1/2+y,1/2+z
1/2-x,1/2-y,1/2+z
1/2+x,1/2-y,-z
1/2-x,1/2+y,-z
1/2-x,1/2-y,1/2-z
1/2+x,1/2+y,1/2-z
1/2-x,1/2+y,z
1/2+x,1/2-y,z
loop_
_atom_site_type_symbol
_atom_site_label
_atom_site_fract_x
_atom_site_fract_y
_atom_site_fract_z
Si Si1 0.856307 0.180878 0.419057
Si Si2 0.998072 0.251172 0.919344
Si Si3 0.820686 0.547025 0.821889
Si Si4 0.025535 0.411601 0.169930
Si Si5 0.141946 0.167374 0.580793
Si Si6 0.243512 0.716365 0.326587
Si Si7 0.291617 0.507108 0.080928
O O1 0.837896 0.200135 0.500000
O O2 0.936142 0.194511 0.404261
O O3 0.818513 0.244783 0.369015
O O4 0.836079 0.087361 0.398267
O O5 0.994640 0.334689 0.873160
O O6 0.935966 0.189308 0.900628
O O7 0.995368 0.280345 0.000000
O O8 0.833076 0.500000 0.750000
O O9 0.893220 0.586014 0.843438
O O10 0.767172 0.619948 0.813119
O O11 0.781995 0.489114 0.879046
O O12 0.000000 0.500000 0.140047
O O13 0.000000 0.400647 0.250000
O O14 0.158629 0.187260 0.500000
O O15 0.187799 0.228767 0.628207
O O16 0.159518 0.071443 0.597901
O O17 0.250000 0.750000 0.250000
O O18 0.270794 0.507565 0.000000
#
# Coordination Sequence:
#
# PCOD8294271 Si02
#       7
#    16  16  16  16  16  16  16
#     4  10  20  37  59  87 116 150 194 238 288 345
#     4  10  22  38  60  87 117 151 191 238 290 346
#     4  11  21  38  56  82 113 150 193 239 284 343
#     4  11  23  39  59  78 113 154 193 236 292 344
#     4   9  20  38  57  84 119 153 189 237 287 344
#     4  11  22  34  57  84 112 152 195 240 290 336
#     4   9  20  37  60  86 116 152 190 236 288 341
#
# _framework density 18.676835000000001
#
# number of rings (size 3 to 8) (size 9 to 14) (size 15 to 20)
#    0.000    1.857    2.857    1.286    2.000    3.143 
#    0.000    4.286    0.000    0.000    0.000    4.000 
#    0.000    0.000    0.000    0.000    0.000    0.000 
#
# Total GULP energy -694167.084915 kJ/mol
# GULP energy per Si atom -12395.840802 kJ/mol
# Density = 1.863433 g / cm^3
# Si number density = 18.676835 Si / 1000 Ang^3
#
#
#
# Elastic Constant Matrix: (Units=GPa)
#
#
# Indices 1 2 3 4 5 6 
#
# 1 114.4352 27.8978 41.0850 0.0000 0.0000 0.0000
# 2 27.8978 77.2617 35.9368 0.0000 0.0000 0.0000
# 3 41.0850 35.9368 71.7482 0.0000 0.0000 0.0000
# 4 0.0000 0.0000 0.0000 28.3120 0.0000 0.0000
# 5 0.0000 0.0000 0.0000 0.0000 24.8060 0.0000
# 6 0.0000 0.0000 0.0000 0.0000 0.0000 31.3419
#
#
#
# Elastic Compliance Matrix: (Units=1/GPa)
#
#
# Indices 1 2 3 4 5 6 
#
# 1 0.011111 -0.001372 -0.005675 0.000000 0.000000 0.000000
# 2 -0.001372 0.017044 -0.007751 0.000000 0.000000 0.000000
# 3 -0.005675 -0.007751 0.021069 0.000000 0.000000 0.000000
# 4 0.000000 0.000000 0.000000 0.035321 0.000000 0.000000
# 5 0.000000 0.000000 0.000000 0.000000 0.040313 0.000000
# 6 0.000000 0.000000 0.000000 0.000000 0.000000 0.031906
#
#
# Mechanical properties :
#
#
# Convention : Reuss Voigt Hill
#
# Bulk Modulus (GPa) = 50.94878 52.58713 51.76796
# Shear Modulus (GPa) = 25.91989 27.46036 26.69013
#
# Velocity S-wave (km/s) = 3.72937 3.83860 3.78438
# Velocity P-wave (km/s) = 6.77367 6.91837 6.84641
#
# Compressibility (1/GPa) = 0.01962755
#
# Stress axis : x y z
#
# Youngs Moduli (GPa) = 90.00473 58.67260 47.46204
#
# Poissons Ratio (x) = 0.08051 0.26934
# Poissons Ratio (y) = 0.12351 0.36788
# Poissons Ratio (z) = 0.51077 0.45477
#
# Static dielectric constant tensor:
#      x y z
#    x 3.363420 0.000000 0.000000 
#    y 0.000000 3.527080 0.000000 
#    z 0.000000 0.000000 3.222620 
# 
# 
# High freq. dielectric constant tensor:
#      x y z
#    x 1.731330 0.000000 0.000000 
#    y 0.000000 1.729450 0.000000 
#    z 0.000000 0.000000 1.721860 
# 
# From -- ./inp_files/32741.got.cif
#   From: 2010.03.12/outbox.cif.g09.slc.cpg/sg72_17_cif.got.tgz:32741.got - 2010.04.16 14:54:00.
