data_PCOD8294607
_publ_section_title
;
Structure prediction by ZEFSAII (Michael W. Deem and Ramdas Pophale) SiO2 
 PCOD8294607
Probable space group: I B A M
;
_chemical_formula_sum "Si O2"
_cell_formula_units_Z 96
_cell_length_a 11.813959
_cell_length_b 22.449661
_cell_length_c 18.575140
_cell_angle_alpha 90.000000
_cell_angle_beta 90.000000
_cell_angle_gamma 90.000000
_cell_volume 4926.487014
_symmetry_space_group_name_H-M "I B A M"
_symmetry_group_IT_number 72
_symmetry_cell_setting 'orthorhombic'
loop_
_space_group_symop_operation_xyz
x,y,z
-x,-y,z
x,-y,1/2-z
-x,y,1/2-z
-x,-y,-z
x,y,-z
-x,y,1/2+z
x,-y,1/2+z
1/2+x,1/2+y,1/2+z
1/2-x,1/2-y,1/2+z
1/2+x,1/2-y,-z
1/2-x,1/2+y,-z
1/2-x,1/2-y,1/2-z
1/2+x,1/2+y,1/2-z
1/2-x,1/2+y,z
1/2+x,1/2-y,z
loop_
_atom_site_type_symbol
_atom_site_label
_atom_site_fract_x
_atom_site_fract_y
_atom_site_fract_z
Si Si1 0.817018 0.095695 0.582827
Si Si2 0.395553 0.823842 0.581981
Si Si3 0.193769 0.960244 0.083542
Si Si4 0.694252 0.278474 0.678961
Si Si5 0.474053 0.613800 0.673904
Si Si6 0.646832 0.144618 0.082956
O O1 0.856420 0.099157 0.500000
O O2 0.698549 0.127074 0.595392
O O3 0.910162 0.129519 0.631484
O O4 0.793135 0.028179 0.608320
O O5 0.393910 0.799902 0.500000
O O6 0.376261 0.769884 0.635376
O O7 0.514188 0.855541 0.599931
O O8 0.087455 0.933705 0.124491
O O9 0.305940 0.921475 0.101428
O O10 0.164170 0.956546 0.000000
O O11 0.750000 0.250000 0.750000
O O12 0.601268 0.328908 0.694754
O O13 0.794685 0.304737 0.630642
O O14 0.500000 0.582560 0.750000
O O15 0.672218 0.160683 0.000000
#
# Coordination Sequence:
#
# PCOD8294607 Si02
#       6
#    16  16  16  16  16  16
#     4  10  21  37  59  89 119 148 188 237 291 350
#     4  10  22  37  58  86 115 151 192 238 286 344
#     4   9  19  38  61  85 117 152 188 235 290 347
#     4  11  24  39  58  79 115 156 197 243 291 341
#     4  11  23  37  57  85 113 154 193 238 292 339
#     4   9  20  39  60  84 113 151 195 236 288 347
#
# _framework density 19.486501000000001
#
# number of rings (size 3 to 8) (size 9 to 14) (size 15 to 20)
#    0.000    2.000    0.000    2.500    4.667    5.333 
#    0.000    3.333    0.000    0.000    0.000    4.667 
#    0.000    0.000    0.000    0.000    0.000    0.000 
#
# Total GULP energy -595198.930658 kJ/mol
# GULP energy per Si atom -12399.977722 kJ/mol
# Density = 1.944215 g / cm^3
# Si number density = 19.486501 Si / 1000 Ang^3
#
#
#
# Elastic Constant Matrix: (Units=GPa)
#
#
# Indices 1 2 3 4 5 6 
#
# 1 129.3988 27.1090 48.0520 0.0000 0.0000 0.0000
# 2 27.1090 77.0396 29.3613 0.0000 0.0000 0.0000
# 3 48.0520 29.3613 73.7997 0.0000 0.0000 0.0000
# 4 0.0000 0.0000 0.0000 12.6438 0.0000 0.0000
# 5 0.0000 0.0000 0.0000 0.0000 24.2353 0.0000
# 6 0.0000 0.0000 0.0000 0.0000 0.0000 19.6532
#
#
#
# Elastic Compliance Matrix: (Units=1/GPa)
#
#
# Indices 1 2 3 4 5 6 
#
# 1 0.010295 -0.001259 -0.006202 0.000000 0.000000 0.000000
# 2 -0.001259 0.015454 -0.005329 0.000000 0.000000 0.000000
# 3 -0.006202 -0.005329 0.019709 0.000000 0.000000 0.000000
# 4 0.000000 0.000000 0.000000 0.079090 0.000000 0.000000
# 5 0.000000 0.000000 0.000000 0.000000 0.041262 0.000000
# 6 0.000000 0.000000 0.000000 0.000000 0.000000 0.050882
#
#
# Mechanical properties :
#
#
# Convention : Reuss Voigt Hill
#
# Bulk Modulus (GPa) = 50.30724 54.36476 52.33600
# Shear Modulus (GPa) = 20.08847 23.02083 21.55465
#
# Velocity S-wave (km/s) = 3.21423 3.44084 3.32947
# Velocity P-wave (km/s) = 6.29663 6.61401 6.45727
#
# Compressibility (1/GPa) = 0.01987785
#
# Stress axis : x y z
#
# Youngs Moduli (GPa) = 97.13434 64.70725 50.73879
#
# Poissons Ratio (x) = 0.08145 0.31470
# Poissons Ratio (y) = 0.12227 0.27038
# Poissons Ratio (z) = 0.60247 0.34482
#
# Static dielectric constant tensor:
#      x y z
#    x 3.687130 0.000000 0.000000 
#    y 0.000000 3.640640 0.000000 
#    z 0.000000 0.000000 3.588060 
# 
# 
# High freq. dielectric constant tensor:
#      x y z
#    x 1.768940 0.000000 0.000000 
#    y 0.000000 1.756740 0.000000 
#    z 0.000000 0.000000 1.760740 
# 
# From -- ./inp_files/29443.got.cif
#   From: 2010.03.12/outbox.cif.g09.slc.cpg/sg72_15_cif.got.tgz:29443.got - 2010.04.16 14:54:00.
