data_PCOD8294885
_publ_section_title
;
Structure prediction by ZEFSAII (Michael W. Deem and Ramdas Pophale) SiO2 
 PCOD8294885
Probable space group: I B A M
;
_chemical_formula_sum "Si O2"
_cell_formula_units_Z 96
_cell_length_a 8.689556
_cell_length_b 25.682346
_cell_length_c 19.414305
_cell_angle_alpha 90.000000
_cell_angle_beta 90.000000
_cell_angle_gamma 90.000000
_cell_volume 4332.655186
_symmetry_space_group_name_H-M "I B A M"
_symmetry_group_IT_number 72
_symmetry_cell_setting 'orthorhombic'
loop_
_space_group_symop_operation_xyz
x,y,z
-x,-y,z
x,-y,1/2-z
-x,y,1/2-z
-x,-y,-z
x,y,-z
-x,y,1/2+z
x,-y,1/2+z
1/2+x,1/2+y,1/2+z
1/2-x,1/2-y,1/2+z
1/2+x,1/2-y,-z
1/2-x,1/2+y,-z
1/2-x,1/2-y,1/2-z
1/2+x,1/2+y,1/2-z
1/2-x,1/2+y,z
1/2+x,1/2-y,z
loop_
_atom_site_type_symbol
_atom_site_label
_atom_site_fract_x
_atom_site_fract_y
_atom_site_fract_z
Si Si1 0.636672 0.102231 0.199520
Si Si2 0.457705 0.150169 0.920729
Si Si3 0.328917 0.299994 0.218848
Si Si4 0.059534 0.945175 0.825816
Si Si5 0.072338 0.769658 0.076568
Si Si6 0.386308 0.367642 0.576639
O O1 0.500000 0.083166 0.250000
O O2 0.575955 0.119465 0.125685
O O3 0.729260 0.149022 0.237610
O O4 0.754631 0.055562 0.180805
O O5 0.474423 0.211247 0.904495
O O6 0.290098 0.127727 0.901102
O O7 0.496915 0.138744 0.000000
O O8 0.500000 0.306385 0.250000
O O9 0.250000 0.250000 0.250000
O O10 0.320192 0.293199 0.136064
O O11 0.000000 0.936120 0.750000
O O12 0.999747 0.898007 0.872516
O O13 0.000000 0.000000 0.856605
O O14 0.919854 0.805646 0.076868
O O15 0.151659 0.772240 0.000000
O O16 0.412386 0.390421 0.500000
#
# Coordination Sequence:
#
# PCOD8294885 Si02
#       6
#    16  16  16  16  16  16
#     4  12  25  41  65  98 137 173 215 282 344 406
#     4  10  23  40  62  96 139 179 223 270 329 404
#     4  12  25  39  60  93 136 184 229 276 330 402
#     4  11  25  47  72  95 123 169 229 285 347 413
#     4  10  22  37  61  93 133 185 231 269 321 401
#     4  10  22  42  67  94 131 177 224 279 335 398
#
# _framework density 22.157315000000001
#
# number of rings (size 3 to 8) (size 9 to 14) (size 15 to 20)
#    0.000    1.167    1.667    4.000    7.000    1.667 
#    0.000    5.833    0.000    2.000    0.000    0.000 
#    0.000    0.000    0.000    0.000    0.000    0.000 
#
# Total GULP energy -595152.497687 kJ/mol
# GULP energy per Si atom -12399.010368 kJ/mol
# Density = 2.210688 g / cm^3
# Si number density = 22.157315 Si / 1000 Ang^3
#
#
#
# Elastic Constant Matrix: (Units=GPa)
#
#
# Indices 1 2 3 4 5 6 
#
# 1 142.5136 50.3438 43.9574 0.0000 0.0000 0.0000
# 2 50.3438 89.1269 30.2325 0.0001 0.0000 0.0000
# 3 43.9574 30.2325 106.6150 0.0001 -0.0001 0.0000
# 4 0.0000 0.0001 0.0001 7.2133 0.0000 0.0000
# 5 0.0000 0.0000 -0.0001 0.0000 39.0262 0.0000
# 6 0.0000 0.0000 0.0000 0.0000 0.0000 32.5126
#
#
#
# Elastic Compliance Matrix: (Units=1/GPa)
#
#
# Indices 1 2 3 4 5 6 
#
# 1 0.009383 -0.004412 -0.002617 0.000000 0.000000 0.000000
# 2 -0.004412 0.014489 -0.002289 0.000000 0.000000 0.000000
# 3 -0.002617 -0.002289 0.011108 0.000000 0.000000 0.000000
# 4 0.000000 0.000000 0.000000 0.138633 0.000000 0.000000
# 5 0.000000 0.000000 0.000000 0.000000 0.025624 0.000000
# 6 0.000000 0.000000 0.000000 0.000000 0.000000 0.030757
#
#
# Mechanical properties :
#
#
# Convention : Reuss Voigt Hill
#
# Bulk Modulus (GPa) = 61.19350 65.25812 63.22581
# Shear Modulus (GPa) = 19.67893 29.99855 24.83874
#
# Velocity S-wave (km/s) = 2.98341 3.68352 3.35179
# Velocity P-wave (km/s) = 6.28851 6.89979 6.60123
#
# Compressibility (1/GPa) = 0.01634161
#
# Stress axis : x y z
#
# Youngs Moduli (GPa) = 106.57815 69.01918 90.02595
#
# Poissons Ratio (x) = 0.30452 0.23564
# Poissons Ratio (y) = 0.47023 0.20611
# Poissons Ratio (z) = 0.27896 0.15801
#
# Static dielectric constant tensor:
#      x y z
#    x 4.059700 0.000000 0.000000 
#    y 0.000000 3.885010 0.000000 
#    z 0.000000 0.000000 4.239890 
# 
# 
# High freq. dielectric constant tensor:
#      x y z
#    x 1.876850 0.000000 0.000000 
#    y 0.000000 1.839160 0.000000 
#    z 0.000000 0.000000 1.889020 
# 
# From -- ./inp_files/36044.got.cif
#   From: 2010.03.12/outbox.cif.g09.slc.cpg/sg72_19_cif.got.tgz:36044.got - 2010.04.16 14:54:00.
