data_PCOD8294786
_publ_section_title
;
Structure prediction by ZEFSAII (Michael W. Deem and Ramdas Pophale) SiO2 
 PCOD8294786
Probable space group: I B A M
;
_chemical_formula_sum "Si O2"
_cell_formula_units_Z 80
_cell_length_a 12.005070
_cell_length_b 34.178288
_cell_length_c 10.299322
_cell_angle_alpha 90.000000
_cell_angle_beta 90.000000
_cell_angle_gamma 90.000000
_cell_volume 4225.943029
_symmetry_space_group_name_H-M "I B A M"
_symmetry_group_IT_number 72
_symmetry_cell_setting 'orthorhombic'
loop_
_space_group_symop_operation_xyz
x,y,z
-x,-y,z
x,-y,1/2-z
-x,y,1/2-z
-x,-y,-z
x,y,-z
-x,y,1/2+z
x,-y,1/2+z
1/2+x,1/2+y,1/2+z
1/2-x,1/2-y,1/2+z
1/2+x,1/2-y,-z
1/2-x,1/2+y,-z
1/2-x,1/2-y,1/2-z
1/2+x,1/2+y,1/2-z
1/2-x,1/2+y,z
1/2+x,1/2-y,z
loop_
_atom_site_type_symbol
_atom_site_label
_atom_site_fract_x
_atom_site_fract_y
_atom_site_fract_z
Si Si1 0.656574 0.890291 0.147392
Si Si2 0.908602 0.286121 0.500000
Si Si3 0.673366 0.326075 0.500000
Si Si4 0.616942 0.023055 0.359802
Si Si5 0.069465 0.803531 0.500000
Si Si6 0.122219 0.861789 0.270102
Si Si7 0.500000 0.173024 0.250000
O O1 0.602338 0.932019 0.184521
O O2 0.790320 0.892424 0.168463
O O3 0.606423 0.855236 0.232719
O O4 0.626807 0.880288 0.000000
O O5 0.784250 0.301426 0.500000
O O6 0.885679 0.240102 0.500000
O O7 0.977413 0.299551 0.626500
O O8 0.563978 0.299025 0.500000
O O9 0.671618 0.351719 0.629800
O O10 0.677643 0.021748 0.500000
O O11 0.500000 0.000000 0.369812
O O12 0.688813 0.000000 0.250000
O O13 0.111465 0.825040 0.368906
O O14 0.000000 0.881165 0.250000
#
# Coordination Sequence:
#
# PCOD8294786 Si02
#       7
#    16   8   8  16   8  16   8
#     4  11  21  38  62  87 123 160 193 248 290 360
#     4  12  26  38  56  84 119 157 201 255 316 358
#     4  10  22  40  56  82 113 146 200 252 303 351
#     4   9  18  34  55  85 118 153 184 218 283 352
#     4  10  24  40  60  82 111 157 202 257 306 364
#     4  10  21  40  61  84 111 151 207 248 296 348
#     4  12  24  38  53  88 122 152 206 248 311 348
#
# _framework density 18.930685
#
# number of rings (size 3 to 8) (size 9 to 14) (size 15 to 20)
#    0.000    1.600    4.000    1.200    4.200    2.400 
#    3.600    0.000    0.000    0.600    0.000    2.800 
#    0.000    0.000    0.000    0.000    0.000    0.000 
#
# Total GULP energy -495631.118829 kJ/mol
# GULP energy per Si atom -12390.777971 kJ/mol
# Density = 1.888760 g / cm^3
# Si number density = 18.930685 Si / 1000 Ang^3
#
#
#
# Elastic Constant Matrix: (Units=GPa)
#
#
# Indices 1 2 3 4 5 6 
#
# 1 94.7183 34.6176 13.4157 0.0013 0.0005 0.0001
# 2 34.6176 87.6397 38.8995 0.0001 -0.0005 0.0007
# 3 13.4157 38.8995 133.6848 0.0001 0.0041 0.0008
# 4 0.0013 0.0001 0.0001 25.6424 0.0007 0.0011
# 5 0.0005 -0.0005 0.0041 0.0007 21.4197 0.0011
# 6 0.0001 0.0007 0.0008 0.0011 0.0011 20.8549
#
#
#
# Elastic Compliance Matrix: (Units=1/GPa)
#
#
# Indices 1 2 3 4 5 6 
#
# 1 0.012344 -0.004968 0.000207 -0.000001 0.000000 0.000000
# 2 -0.004968 0.015102 -0.003896 0.000000 0.000001 0.000000
# 3 0.000207 -0.003896 0.008593 0.000000 -0.000002 0.000000
# 4 -0.000001 0.000000 0.000000 0.038998 -0.000001 -0.000002
# 5 0.000000 0.000001 -0.000002 -0.000001 0.046686 -0.000002
# 6 0.000000 0.000000 0.000000 -0.000002 -0.000002 0.047950
#
#
# Mechanical properties :
#
#
# Convention : Reuss Voigt Hill
#
# Bulk Modulus (GPa) = 53.40323 54.43425 53.91874
# Shear Modulus (GPa) = 25.87614 28.85739 27.36676
#
# Velocity S-wave (km/s) = 3.70116 3.90855 3.80627
# Velocity P-wave (km/s) = 6.82172 7.01327 6.91816
#
# Compressibility (1/GPa) = 0.01872546
#
# Stress axis : x y z
#
# Youngs Moduli (GPa) = 81.01168 66.21762 116.37205
#
# Poissons Ratio (x) = 0.32894 -0.02406
# Poissons Ratio (y) = 0.40243 0.45336
# Poissons Ratio (z) = -0.01675 0.25797
#
# Static dielectric constant tensor:
#      x y z
#    x 3.416660 0.000000 -0.000010 
#    y 0.000000 3.254370 -0.000010 
#    z -0.000010 -0.000010 4.714550 
# 
# 
# High freq. dielectric constant tensor:
#      x y z
#    x 1.719010 0.000000 0.000000 
#    y 0.000000 1.709060 0.000000 
#    z 0.000000 0.000000 1.766310 
# 
# From -- ./inp_files/11711.got.cif
#   From: 2010.03.12/outbox.cif.g09.slc.cpg/sg72_6_cif.got.tgz:11711.got - 2010.04.16 14:54:00.
