data_PCOD8294978
_publ_section_title
;
Structure prediction by ZEFSAII (Michael W. Deem and Ramdas Pophale) SiO2 
 PCOD8294978
Probable space group: I B A M
;
_chemical_formula_sum "Si O2"
_cell_formula_units_Z 112
_cell_length_a 14.660426
_cell_length_b 10.929199
_cell_length_c 31.815857
_cell_angle_alpha 90.000000
_cell_angle_beta 90.000000
_cell_angle_gamma 90.000000
_cell_volume 5097.750194
_symmetry_space_group_name_H-M "I B A M"
_symmetry_group_IT_number 72
_symmetry_cell_setting 'orthorhombic'
loop_
_space_group_symop_operation_xyz
x,y,z
-x,-y,z
x,-y,1/2-z
-x,y,1/2-z
-x,-y,-z
x,y,-z
-x,y,1/2+z
x,-y,1/2+z
1/2+x,1/2+y,1/2+z
1/2-x,1/2-y,1/2+z
1/2+x,1/2-y,-z
1/2-x,1/2+y,-z
1/2-x,1/2-y,1/2-z
1/2+x,1/2+y,1/2-z
1/2-x,1/2+y,z
1/2+x,1/2-y,z
loop_
_atom_site_type_symbol
_atom_site_label
_atom_site_fract_x
_atom_site_fract_y
_atom_site_fract_z
Si Si1 0.533361 0.870883 0.876022
Si Si2 0.602983 0.477635 0.614901
Si Si3 0.665755 0.284629 0.327453
Si Si4 0.358213 0.721503 0.851003
Si Si5 0.336911 0.099923 0.048481
Si Si6 0.780134 0.135795 0.047818
Si Si7 0.105636 0.860154 0.743070
O O1 0.615123 0.835433 0.844656
O O2 0.444619 0.784889 0.872667
O O3 0.572876 0.876710 0.923510
O O4 0.500000 0.000000 0.859494
O O5 0.500000 0.500000 0.604343
O O6 0.607508 0.402389 0.658424
O O7 0.660514 0.601410 0.620848
O O8 0.634328 0.394297 0.576603
O O9 0.765037 0.299837 0.349950
O O10 0.665351 0.281495 0.276772
O O11 0.373139 0.684429 0.803137
O O12 0.264210 0.216055 0.054282
O O13 0.298592 0.963372 0.060486
O O14 0.368708 0.098652 0.000000
O O15 0.807019 0.108539 0.000000
O O16 0.000000 0.835423 0.750000
O O17 0.133498 0.000000 0.750000
#
# Coordination Sequence:
#
# PCOD8294978 Si02
#       7
#    16  16  16  16  16  16  16
#     4  12  27  44  66  99 139 179 223 279 343 415
#     4  12  22  42  69  97 131 177 232 280 337 400
#     4  12  25  44  66 100 133 174 222 283 338 409
#     4  12  26  43  69 101 133 178 228 282 344 406
#     4  10  22  44  71 103 143 184 233 289 349 415
#     4  10  22  40  67 102 140 181 229 287 343 406
#     4  11  21  42  71  98 130 170 228 287 339 408
#
# _framework density 21.970476000000001
#
# number of rings (size 3 to 8) (size 9 to 14) (size 15 to 20)
#    0.000    0.714    5.714    1.286    4.000    0.571 
#    0.000    2.143    0.000    0.857    0.000    0.000 
#    0.000    0.000    0.000    0.000    0.000    0.000 
#
# Total GULP energy -693898.950234 kJ/mol
# GULP energy per Si atom -12391.052683 kJ/mol
# Density = 2.192047 g / cm^3
# Si number density = 21.970476 Si / 1000 Ang^3
#
#
#
# Elastic Constant Matrix: (Units=GPa)
#
#
# Indices 1 2 3 4 5 6 
#
# 1 99.6662 32.3607 27.6963 0.0000 0.0000 0.0000
# 2 32.3607 104.0887 27.1830 0.0000 0.0000 0.0000
# 3 27.6963 27.1830 80.9500 0.0000 0.0000 0.0000
# 4 0.0000 0.0000 0.0000 23.4802 0.0000 0.0000
# 5 0.0000 0.0000 0.0000 0.0000 35.6186 0.0000
# 6 0.0000 0.0000 0.0000 0.0000 0.0000 72.9731
#
#
#
# Elastic Compliance Matrix: (Units=1/GPa)
#
#
# Indices 1 2 3 4 5 6 
#
# 1 0.011822 -0.002871 -0.003081 0.000000 0.000000 0.000000
# 2 -0.002871 0.011228 -0.002788 0.000000 0.000000 0.000000
# 3 -0.003081 -0.002788 0.014344 0.000000 0.000000 0.000000
# 4 0.000000 0.000000 0.000000 0.042589 0.000000 0.000000
# 5 0.000000 0.000000 0.000000 0.000000 0.028075 0.000000
# 6 0.000000 0.000000 0.000000 0.000000 0.000000 0.013704
#
#
# Mechanical properties :
#
#
# Convention : Reuss Voigt Hill
#
# Bulk Modulus (GPa) = 50.21597 51.02056 50.61826
# Shear Modulus (GPa) = 34.27516 39.57869 36.92692
#
# Velocity S-wave (km/s) = 3.95404 4.24895 4.10415
# Velocity P-wave (km/s) = 6.61450 6.88071 6.74892
#
# Compressibility (1/GPa) = 0.01991398
#
# Stress axis : x y z
#
# Youngs Moduli (GPa) = 84.59017 89.06445 69.71759
#
# Poissons Ratio (x) = 0.25569 0.21478
# Poissons Ratio (y) = 0.24284 0.19438
# Poissons Ratio (z) = 0.26060 0.24832
#
# Static dielectric constant tensor:
#      x y z
#    x 11.773830 0.000000 0.000000 
#    y 0.000000 4.448850 0.000000 
#    z 0.000000 0.000000 4.115620 
# 
# 
# High freq. dielectric constant tensor:
#      x y z
#    x 1.848140 0.000000 0.000000 
#    y 0.000000 1.873950 0.000000 
#    z 0.000000 0.000000 1.878250 
# 
# From -- ./inp_files/51786.got.cif
#   From: 2010.03.12/outbox.cif.g09.slc.cpg/sg72_26_cif.got.tgz:51786.got - 2010.04.16 14:54:00.
