data_PCOD8294152
_publ_section_title
;
Structure prediction by ZEFSAII (Michael W. Deem and Ramdas Pophale) SiO2 
 PCOD8294152
Probable space group: I B A M
;
_chemical_formula_sum "Si O2"
_cell_formula_units_Z 80
_cell_length_a 8.376355
_cell_length_b 20.355404
_cell_length_c 21.392763
_cell_angle_alpha 90.000000
_cell_angle_beta 90.000000
_cell_angle_gamma 90.000000
_cell_volume 3647.553589
_symmetry_space_group_name_H-M "I B A M"
_symmetry_group_IT_number 72
_symmetry_cell_setting 'orthorhombic'
loop_
_space_group_symop_operation_xyz
x,y,z
-x,-y,z
x,-y,1/2-z
-x,y,1/2-z
-x,-y,-z
x,y,-z
-x,y,1/2+z
x,-y,1/2+z
1/2+x,1/2+y,1/2+z
1/2-x,1/2-y,1/2+z
1/2+x,1/2-y,-z
1/2-x,1/2+y,-z
1/2-x,1/2-y,1/2-z
1/2+x,1/2+y,1/2-z
1/2-x,1/2+y,z
1/2+x,1/2-y,z
loop_
_atom_site_type_symbol
_atom_site_label
_atom_site_fract_x
_atom_site_fract_y
_atom_site_fract_z
Si Si1 0.278792 0.232446 0.500000
Si Si2 0.601009 0.697286 0.125191
Si Si3 0.080620 0.933079 0.927982
Si Si4 0.945186 0.570922 0.107902
Si Si5 0.914212 0.307156 0.685655
Si Si6 0.586887 0.850837 0.000000
O O1 0.202102 0.201751 0.561778
O O2 0.463426 0.211004 0.500000
O O3 0.258003 0.312492 0.500000
O O4 0.515969 0.625926 0.117334
O O5 0.721652 0.700020 0.185231
O O6 0.474019 0.755240 0.132931
O O7 0.272135 0.935566 0.923128
O O8 0.030935 0.921748 0.000000
O O9 0.000000 0.000000 0.902913
O O10 0.952399 0.618030 0.167917
O O11 0.000000 0.500000 0.130877
O O12 0.070705 0.601532 0.059014
O O13 0.000000 0.289582 0.750000
#
# Coordination Sequence:
#
# PCOD8294152 Si02
#       6
#     8  16  16  16  16   8
#     4  12  18  38  62  92 119 156 187 256 316 355
#     4  11  20  39  61  88 124 151 205 255 306 366
#     4  10  20  36  56  89 127 158 187 239 309 376
#     4  11  22  39  58  84 124 159 199 253 301 371
#     4  11  24  40  61  85 116 163 208 255 300 361
#     4  12  21  38  58  94 129 151 199 248 323 367
#
# _framework density 21.932509
#
# number of rings (size 3 to 8) (size 9 to 14) (size 15 to 20)
#    0.000    1.000    8.000    0.900    0.000    2.000 
#    3.600    0.000    0.000    3.000    0.000    0.000 
#    0.000    0.000    0.000    0.000    0.000    0.000 
#
# Total GULP energy -495838.836982 kJ/mol
# GULP energy per Si atom -12395.970925 kJ/mol
# Density = 2.188259 g / cm^3
# Si number density = 21.932509 Si / 1000 Ang^3
#
#
#
# Elastic Constant Matrix: (Units=GPa)
#
#
# Indices 1 2 3 4 5 6 
#
# 1 35.6900 52.7856 16.2953 0.0000 0.0000 0.0000
# 2 52.7856 188.9993 22.7378 0.0000 0.0000 0.0000
# 3 16.2953 22.7378 55.3146 0.0000 0.0000 0.0000
# 4 0.0000 0.0000 0.0000 22.1078 0.0000 0.0000
# 5 0.0000 0.0000 0.0000 0.0000 21.6058 0.0000
# 6 0.0000 0.0000 0.0000 0.0000 0.0000 42.7084
#
#
#
# Elastic Compliance Matrix: (Units=1/GPa)
#
#
# Indices 1 2 3 4 5 6 
#
# 1 0.052448 -0.013455 -0.009920 0.000000 0.000000 0.000000
# 2 -0.013455 0.009018 0.000257 0.000000 0.000000 0.000000
# 3 -0.009920 0.000257 0.020895 0.000000 0.000000 0.000000
# 4 0.000000 0.000000 0.000000 0.045233 0.000000 0.000000
# 5 0.000000 0.000000 0.000000 0.000000 0.046284 0.000000
# 6 0.000000 0.000000 0.000000 0.000000 0.000000 0.023415
#
#
# Mechanical properties :
#
#
# Convention : Reuss Voigt Hill
#
# Bulk Modulus (GPa) = 27.68164 51.51569 39.59866
# Shear Modulus (GPa) = 19.56410 29.83006 24.69708
#
# Velocity S-wave (km/s) = 2.98990 3.69193 3.35931
# Velocity P-wave (km/s) = 4.95661 6.45857 5.75678
#
# Compressibility (1/GPa) = 0.03612503
#
# Stress axis : x y z
#
# Youngs Moduli (GPa) = 19.06655 110.89044 47.85784
#
# Poissons Ratio (x) = 1.49200 0.47475
# Poissons Ratio (y) = 0.25654 -0.01229
# Poissons Ratio (z) = 0.18914 -0.02847
#
# Static dielectric constant tensor:
#      x y z
#    x 3.849700 0.000000 0.000000 
#    y 0.000000 4.389610 0.000000 
#    z 0.000000 0.000000 3.533730 
# 
# 
# High freq. dielectric constant tensor:
#      x y z
#    x 1.849570 0.000000 0.000000 
#    y 0.000000 1.881900 0.000000 
#    z 0.000000 0.000000 1.828520 
# 
# From -- ./inp_files/42216.got.cif
#   From: 2010.03.12/outbox.cif.g09.slc.cpg/sg72_22_cif.got.tgz:42216.got - 2010.04.16 14:54:00.
