data_PCOD8294998
_publ_section_title
;
Structure prediction by ZEFSAII (Michael W. Deem and Ramdas Pophale) SiO2 
 PCOD8294998
Probable space group: I B A M
;
_chemical_formula_sum "Si O2"
_cell_formula_units_Z 112
_cell_length_a 11.302040
_cell_length_b 28.082124
_cell_length_c 16.414045
_cell_angle_alpha 90.000000
_cell_angle_beta 90.000000
_cell_angle_gamma 90.000000
_cell_volume 5209.576412
_symmetry_space_group_name_H-M "I B A M"
_symmetry_group_IT_number 72
_symmetry_cell_setting 'orthorhombic'
loop_
_space_group_symop_operation_xyz
x,y,z
-x,-y,z
x,-y,1/2-z
-x,y,1/2-z
-x,-y,-z
x,y,-z
-x,y,1/2+z
x,-y,1/2+z
1/2+x,1/2+y,1/2+z
1/2-x,1/2-y,1/2+z
1/2+x,1/2-y,-z
1/2-x,1/2+y,-z
1/2-x,1/2-y,1/2-z
1/2+x,1/2+y,1/2-z
1/2-x,1/2+y,z
1/2+x,1/2-y,z
loop_
_atom_site_type_symbol
_atom_site_label
_atom_site_fract_x
_atom_site_fract_y
_atom_site_fract_z
Si Si1 0.874280 0.983259 0.595698
Si Si2 0.797719 0.562669 0.403250
Si Si3 0.989633 0.381661 0.655460
Si Si4 0.946888 0.189187 0.161867
Si Si5 0.892462 0.288697 0.094346
Si Si6 0.729098 0.617192 0.095962
Si Si7 0.677201 0.655631 0.407420
O O1 0.878880 0.993178 0.500000
O O2 0.854491 0.927894 0.614694
O O3 0.763396 0.014285 0.630292
O O4 0.000000 0.000000 0.634204
O O5 0.812386 0.560886 0.500000
O O6 0.710005 0.604382 0.370192
O O7 0.927370 0.572845 0.365698
O O8 0.857437 0.395301 0.630377
O O9 0.000000 0.369478 0.750000
O O10 0.024183 0.334640 0.604589
O O11 0.935224 0.245391 0.149994
O O12 0.823113 0.162538 0.145077
O O13 0.000000 0.178145 0.250000
O O14 0.040181 0.167688 0.098294
O O15 0.761185 0.302396 0.128102
O O16 0.894051 0.272368 0.000000
O O17 0.734736 0.628710 0.000000
O O18 0.716785 0.651908 0.500000
#
# Coordination Sequence:
#
# PCOD8294998 Si02
#       7
#    16  16  16  16  16  16  16
#     4   9  18  36  66  98 123 161 220 274 317 376
#     4   9  18  37  66  91 119 164 213 260 316 385
#     4  11  24  41  64  90 134 167 210 268 327 387
#     4  12  26  38  61  91 132 166 209 264 330 386
#     4  10  22  41  65  90 118 167 218 263 321 388
#     4  11  24  42  65  95 129 170 221 275 325 383
#     4   9  19  37  61  86 118 162 212 255 313 383
#
# _framework density 21.498868999999999
#
# number of rings (size 3 to 8) (size 9 to 14) (size 15 to 20)
#    0.000    1.857    0.000    4.714    6.000    3.429 
#    0.000    3.571    0.000    0.000    0.000    0.000 
#    0.000    0.000    0.000    0.000    0.000    0.000 
#
# Total GULP energy -694301.504022 kJ/mol
# GULP energy per Si atom -12398.241143 kJ/mol
# Density = 2.144994 g / cm^3
# Si number density = 21.498869 Si / 1000 Ang^3
#
#
#
# Elastic Constant Matrix: (Units=GPa)
#
#
# Indices 1 2 3 4 5 6 
#
# 1 119.1802 29.3014 19.4955 0.0000 0.0000 0.0000
# 2 29.3014 80.5814 29.3372 -0.0001 0.0001 0.0000
# 3 19.4955 29.3372 60.7736 -0.0007 0.0004 0.0002
# 4 0.0000 -0.0001 -0.0007 16.4266 0.0000 0.0000
# 5 0.0000 0.0001 0.0004 0.0000 26.6857 -0.0001
# 6 0.0000 0.0000 0.0002 0.0000 -0.0001 34.8489
#
#
#
# Elastic Compliance Matrix: (Units=1/GPa)
#
#
# Indices 1 2 3 4 5 6 
#
# 1 0.009348 -0.002800 -0.001647 0.000000 0.000000 0.000000
# 2 -0.002800 0.015894 -0.006775 0.000000 0.000000 0.000000
# 3 -0.001647 -0.006775 0.020253 0.000001 0.000000 0.000000
# 4 0.000000 0.000000 0.000001 0.060877 0.000000 0.000000
# 5 0.000000 0.000000 0.000000 0.000000 0.037473 0.000000
# 6 0.000000 0.000000 0.000000 0.000000 0.000000 0.028695
#
#
# Mechanical properties :
#
#
# Convention : Reuss Voigt Hill
#
# Bulk Modulus (GPa) = 43.37861 46.31149 44.84505
# Shear Modulus (GPa) = 24.67082 27.75232 26.21157
#
# Velocity S-wave (km/s) = 3.39121 3.59677 3.49550
# Velocity P-wave (km/s) = 5.96278 6.23194 6.09885
#
# Compressibility (1/GPa) = 0.02305284
#
# Stress axis : x y z
#
# Youngs Moduli (GPa) = 106.96975 62.91613 49.37477
#
# Poissons Ratio (x) = 0.17614 0.08134
# Poissons Ratio (y) = 0.29946 0.33449
# Poissons Ratio (z) = 0.17623 0.42623
#
# Static dielectric constant tensor:
#      x y z
#    x 3.993630 0.000000 0.000000 
#    y 0.000000 3.826480 0.000000 
#    z 0.000000 0.000000 3.563690 
# 
# 
# High freq. dielectric constant tensor:
#      x y z
#    x 1.851820 0.000000 0.000000 
#    y 0.000000 1.843200 0.000000 
#    z 0.000000 0.000000 1.818710 
# 
# From -- ./inp_files/20743.got.cif
#   From: 2010.03.12/outbox.cif.g09.slc.cpg/sg72_11_cif.got.tgz:20743.got - 2010.04.16 14:54:00.
