data_PCOD8294902
_publ_section_title
;
Structure prediction by ZEFSAII (Michael W. Deem and Ramdas Pophale) SiO2 
 PCOD8294902
Probable space group: I B A M
;
_chemical_formula_sum "Si O2"
_cell_formula_units_Z 112
_cell_length_a 13.197188
_cell_length_b 23.895870
_cell_length_c 17.566368
_cell_angle_alpha 90.000000
_cell_angle_beta 90.000000
_cell_angle_gamma 90.000000
_cell_volume 5539.699753
_symmetry_space_group_name_H-M "I B A M"
_symmetry_group_IT_number 72
_symmetry_cell_setting 'orthorhombic'
loop_
_space_group_symop_operation_xyz
x,y,z
-x,-y,z
x,-y,1/2-z
-x,y,1/2-z
-x,-y,-z
x,y,-z
-x,y,1/2+z
x,-y,1/2+z
1/2+x,1/2+y,1/2+z
1/2-x,1/2-y,1/2+z
1/2+x,1/2-y,-z
1/2-x,1/2+y,-z
1/2-x,1/2-y,1/2-z
1/2+x,1/2+y,1/2-z
1/2-x,1/2+y,z
1/2+x,1/2-y,z
loop_
_atom_site_type_symbol
_atom_site_label
_atom_site_fract_x
_atom_site_fract_y
_atom_site_fract_z
Si Si1 0.194746 0.269667 0.589397
Si Si2 0.884121 0.838134 0.088552
Si Si3 0.930047 0.637505 0.675038
Si Si4 0.941723 0.443275 0.411577
Si Si5 0.607911 0.344693 0.588359
Si Si6 0.731918 0.430764 0.822143
Si Si7 0.273760 0.445658 0.847771
O O1 0.166818 0.279395 0.500000
O O2 0.313393 0.283844 0.603673
O O3 0.121186 0.305837 0.643782
O O4 0.182654 0.205057 0.615584
O O5 0.833341 0.889478 0.129313
O O6 0.996580 0.832194 0.123991
O O7 0.887954 0.852483 0.000000
O O8 0.846133 0.590270 0.691383
O O9 0.000000 0.648496 0.750000
O O10 0.992293 0.611632 0.604791
O O11 0.912727 0.446680 0.500000
O O12 0.842597 0.430793 0.361982
O O13 0.000000 0.500000 0.385983
O O14 0.593017 0.338922 0.500000
O O15 0.651599 0.406136 0.604272
O O16 0.720577 0.488735 0.868715
O O17 0.688171 0.436978 0.737904
#
# Coordination Sequence:
#
# PCOD8294902 Si02
#       7
#    16  16  16  16  16  16  16
#     4   9  20  40  63  88 120 160 209 258 308 367
#     4   9  20  40  63  86 116 158 203 251 308 367
#     4  11  20  37  60  89 125 165 204 248 312 374
#     4  11  22  34  57  92 126 162 204 254 307 371
#     4  10  22  41  63  89 122 160 206 263 311 360
#     4  10  22  38  59  85 122 162 198 252 314 366
#     4  11  22  38  58  87 123 160 202 253 312 372
#
# _framework density 20.217703
#
# number of rings (size 3 to 8) (size 9 to 14) (size 15 to 20)
#    0.000    1.857    2.857    0.857    0.000    4.286 
#    2.571    7.143    0.000    0.000    0.000    0.000 
#    0.000    0.000    0.000    0.000    0.000    0.000 
#
# Total GULP energy -693926.633236 kJ/mol
# GULP energy per Si atom -12391.547022 kJ/mol
# Density = 2.017169 g / cm^3
# Si number density = 20.217703 Si / 1000 Ang^3
#
#
#
# Elastic Constant Matrix: (Units=GPa)
#
#
# Indices 1 2 3 4 5 6 
#
# 1 130.2114 58.2356 25.4478 0.0000 0.0000 0.0000
# 2 58.2356 104.1964 28.8483 0.0000 0.0000 0.0000
# 3 25.4478 28.8483 38.3908 0.0000 0.0000 0.0000
# 4 0.0000 0.0000 0.0000 -2.1929 0.0000 0.0000
# 5 0.0000 0.0000 0.0000 0.0000 25.3550 0.0000
# 6 0.0000 0.0000 0.0000 0.0000 0.0000 22.8851
#
#
#
# Elastic Compliance Matrix: (Units=1/GPa)
#
#
# Indices 1 2 3 4 5 6 
#
# 1 0.010548 -0.005000 -0.003235 0.000000 0.000000 0.000000
# 2 -0.005000 0.014488 -0.007573 0.000000 0.000000 0.000000
# 3 -0.003235 -0.007573 0.033883 0.000000 0.000000 0.000000
# 4 0.000000 0.000000 0.000000 -0.456019 0.000000 0.000000
# 5 0.000000 0.000000 0.000000 0.000000 0.039440 0.000000
# 6 0.000000 0.000000 0.000000 0.000000 0.000000 0.043697
#
#
# Mechanical properties :
#
#
# Convention : Reuss Voigt Hill
#
# Bulk Modulus (GPa) = 36.62466 55.31800 45.97133
# Shear Modulus (GPa) = -18.29851 19.89389 0.79769
#
# Velocity S-wave (km/s) = -3.01171 3.14025 0.62881
# Velocity P-wave (km/s) = 2.46183 6.36937 4.82853
#
# Compressibility (1/GPa) = 0.02730401
#
# Stress axis : x y z
#
# Youngs Moduli (GPa) = 94.80367 69.02128 29.51348
#
# Poissons Ratio (x) = 0.34509 0.09548
# Poissons Ratio (y) = 0.47399 0.22350
# Poissons Ratio (z) = 0.30669 0.52269
#
# Static dielectric constant tensor:
#      x y z
#    x 3.843180 0.000000 0.000000 
#    y 0.000000 3.867300 0.000000 
#    z 0.000000 0.000000 3.491670 
# 
# 
# High freq. dielectric constant tensor:
#      x y z
#    x 1.790110 0.000000 0.000000 
#    y 0.000000 1.789680 0.000000 
#    z 0.000000 0.000000 1.780430 
# 
# From -- ./inp_files/37316.got.cif
#   From: 2010.03.12/outbox.cif.g09.slc.cpg/sg72_19_cif.got.tgz:37316.got - 2010.04.16 14:54:00.
