data_PCOD8294065
_publ_section_title
;
Structure prediction by ZEFSAII (Michael W. Deem and Ramdas Pophale) SiO2 
 PCOD8294065
Probable space group: I B A M
;
_chemical_formula_sum "Si O2"
_cell_formula_units_Z 96
_cell_length_a 24.165637
_cell_length_b 24.257980
_cell_length_c 8.647945
_cell_angle_alpha 90.000000
_cell_angle_beta 90.000000
_cell_angle_gamma 90.000000
_cell_volume 5069.507852
_symmetry_space_group_name_H-M "I B A M"
_symmetry_group_IT_number 72
_symmetry_cell_setting 'orthorhombic'
loop_
_space_group_symop_operation_xyz
x,y,z
-x,-y,z
x,-y,1/2-z
-x,y,1/2-z
-x,-y,-z
x,y,-z
-x,y,1/2+z
x,-y,1/2+z
1/2+x,1/2+y,1/2+z
1/2-x,1/2-y,1/2+z
1/2+x,1/2-y,-z
1/2-x,1/2+y,-z
1/2-x,1/2-y,1/2-z
1/2+x,1/2+y,1/2-z
1/2-x,1/2+y,z
1/2+x,1/2-y,z
loop_
_atom_site_type_symbol
_atom_site_label
_atom_site_fract_x
_atom_site_fract_y
_atom_site_fract_z
Si Si1 0.941857 0.764414 0.316392
Si Si2 0.440576 0.058586 0.816613
Si Si3 0.270671 0.847565 0.680379
Si Si4 0.212502 0.942338 0.175252
Si Si5 0.884522 0.661202 0.182376
Si Si6 0.661295 0.333406 0.675107
O O1 0.944985 0.760299 0.500000
O O2 0.928456 0.705093 0.245350
O O3 0.895368 0.808079 0.259276
O O4 0.000000 0.785624 0.250000
O O5 0.500000 0.075961 0.750000
O O6 0.395778 0.102981 0.763515
O O7 0.421470 0.000000 0.750000
O O8 0.444054 0.055375 0.000000
O O9 0.282253 0.843923 0.500000
O O10 0.262602 0.911800 0.733219
O O11 0.322550 0.820897 0.769926
O O12 0.285082 0.686554 0.774056
O O13 0.159321 0.900725 0.181093
O O14 0.195577 0.000000 0.250000
O O15 0.232029 0.952417 0.000000
O O16 0.890753 0.656164 0.000000
O O17 0.670491 0.312623 0.500000
#
# Coordination Sequence:
#
# PCOD8294065 Si02
#       6
#    16  16  16  16  16  16
#     4  11  23  41  62  86 114 151 194 242 291 343
#     4  11  22  39  59  81 109 147 192 240 290 340
#     4  10  20  35  56  84 113 147 186 230 281 338
#     4   9  17  33  55  84 115 151 188 229 280 340
#     4  12  24  39  57  83 116 152 193 239 287 342
#     4   8  19  38  58  82 117 153 190 234 287 345
#
# _framework density 18.936748999999999
#
# number of rings (size 3 to 8) (size 9 to 14) (size 15 to 20)
#    1.000    0.833    0.000    6.000    0.000    2.667 
#    0.000    3.333    0.000    0.500    0.000    3.500 
#    0.000    0.000    0.000    0.000    0.000    0.000 
#
# Total GULP energy -594999.364291 kJ/mol
# GULP energy per Si atom -12395.820089 kJ/mol
# Density = 1.889365 g / cm^3
# Si number density = 18.936749 Si / 1000 Ang^3
#
#
#
# Elastic Constant Matrix: (Units=GPa)
#
#
# Indices 1 2 3 4 5 6 
#
# 1 107.0519 24.7038 33.2819 0.0000 0.0000 0.0000
# 2 24.7038 34.3777 19.6240 0.0000 0.0000 0.0000
# 3 33.2819 19.6240 129.0332 0.0000 0.0000 0.0000
# 4 0.0000 0.0000 0.0000 28.9308 0.0000 0.0000
# 5 0.0000 0.0000 0.0000 0.0000 31.5092 0.0000
# 6 0.0000 0.0000 0.0000 0.0000 0.0000 28.9598
#
#
#
# Elastic Compliance Matrix: (Units=1/GPa)
#
#
# Indices 1 2 3 4 5 6 
#
# 1 0.011604 -0.007260 -0.001889 0.000000 0.000000 0.000000
# 2 -0.007260 0.036397 -0.003663 0.000000 0.000000 0.000000
# 3 -0.001889 -0.003663 0.008794 0.000000 0.000000 0.000000
# 4 0.000000 0.000000 0.000000 0.034565 0.000000 0.000000
# 5 0.000000 0.000000 0.000000 0.000000 0.031737 0.000000
# 6 0.000000 0.000000 0.000000 0.000000 0.000000 0.034531
#
#
# Mechanical properties :
#
#
# Convention : Reuss Voigt Hill
#
# Bulk Modulus (GPa) = 32.08112 47.29803 39.68958
# Shear Modulus (GPa) = 25.82092 30.73685 28.27889
#
# Velocity S-wave (km/s) = 3.69661 4.03318 3.86856
# Velocity P-wave (km/s) = 5.93278 6.83519 6.39991
#
# Compressibility (1/GPa) = 0.03117098
#
# Stress axis : x y z
#
# Youngs Moduli (GPa) = 86.17771 27.47505 113.71156
#
# Poissons Ratio (x) = 0.19948 0.21478
# Poissons Ratio (y) = 0.62568 0.41649
# Poissons Ratio (z) = 0.16278 0.10063
#
# Static dielectric constant tensor:
#      x y z
#    x 3.383510 0.000000 0.000000 
#    y 0.000000 3.393190 0.000000 
#    z 0.000000 0.000000 3.478530 
# 
# 
# High freq. dielectric constant tensor:
#      x y z
#    x 1.720150 0.000000 0.000000 
#    y 0.000000 1.724120 0.000000 
#    z 0.000000 0.000000 1.750080 
# 
# From -- ./inp_files/8068.got.cif
#   From: 2010.03.12/outbox.cif.g09.slc.cpg/sg72_5_cif.got.tgz:8068.got - 2010.04.16 14:54:00.
