data_PCOD8294270
_publ_section_title
;
Structure prediction by ZEFSAII (Michael W. Deem and Ramdas Pophale) SiO2 
 PCOD8294270
Probable space group: I B A M
;
_chemical_formula_sum "Si O2"
_cell_formula_units_Z 112
_cell_length_a 11.630916
_cell_length_b 30.123503
_cell_length_c 17.354909
_cell_angle_alpha 90.000000
_cell_angle_beta 90.000000
_cell_angle_gamma 90.000000
_cell_volume 6080.534174
_symmetry_space_group_name_H-M "I B A M"
_symmetry_group_IT_number 72
_symmetry_cell_setting 'orthorhombic'
loop_
_space_group_symop_operation_xyz
x,y,z
-x,-y,z
x,-y,1/2-z
-x,y,1/2-z
-x,-y,-z
x,y,-z
-x,y,1/2+z
x,-y,1/2+z
1/2+x,1/2+y,1/2+z
1/2-x,1/2-y,1/2+z
1/2+x,1/2-y,-z
1/2-x,1/2+y,-z
1/2-x,1/2-y,1/2-z
1/2+x,1/2+y,1/2-z
1/2-x,1/2+y,z
1/2+x,1/2-y,z
loop_
_atom_site_type_symbol
_atom_site_label
_atom_site_fract_x
_atom_site_fract_y
_atom_site_fract_z
Si Si1 0.843522 0.901957 0.915134
Si Si2 0.812707 0.669791 0.347015
Si Si3 0.354734 0.734635 0.911262
Si Si4 0.247976 0.868324 0.815481
Si Si5 0.134625 0.949821 0.263125
Si Si6 0.956816 0.165835 0.912604
Si Si7 0.436396 0.832431 0.910489
O O1 0.743446 0.866117 0.903805
O O2 0.835083 0.940383 0.851990
O O3 0.966036 0.878115 0.907497
O O4 0.829782 0.923369 0.000000
O O5 0.756117 0.717858 0.363721
O O6 0.789701 0.657927 0.259052
O O7 0.947246 0.670655 0.362688
O O8 0.470174 0.708609 0.885304
O O9 0.368272 0.786629 0.897940
O O10 0.331549 0.722939 0.000000
O O11 0.205654 0.917734 0.793949
O O12 0.147240 0.839737 0.854051
O O13 0.355419 0.871131 0.874897
O O14 0.000000 0.942840 0.250000
O O15 0.174501 0.000000 0.250000
O O16 0.910084 0.172413 0.000000
O O17 0.461185 0.842165 0.000000
#
# Coordination Sequence:
#
# PCOD8294270 Si02
#       7
#    16  16  16  16  16  16  16
#     4   9  17  33  59  82 107 149 190 221 268 342
#     4  10  21  37  55  77 110 147 195 232 278 330
#     4   9  20  35  54  76 106 151 195 233 274 325
#     4  11  22  36  56  83 112 147 185 233 290 343
#     4  10  20  37  59  86 119 147 174 229 298 352
#     4   9  17  33  53  79 111 147 189 228 277 333
#     4  11  23  38  55  78 111 152 194 237 279 325
#
# _framework density 18.419435
#
# number of rings (size 3 to 8) (size 9 to 14) (size 15 to 20)
#    0.000    2.143    1.429    3.000    2.000    0.571 
#    2.571    2.857    0.000    6.857    0.000    5.000 
#    0.000    0.000    0.000    0.000    0.000    0.000 
#
# Total GULP energy -694429.639440 kJ/mol
# GULP energy per Si atom -12400.529276 kJ/mol
# Density = 1.837751 g / cm^3
# Si number density = 18.419435 Si / 1000 Ang^3
#
#
#
# Elastic Constant Matrix: (Units=GPa)
#
#
# Indices 1 2 3 4 5 6 
#
# 1 102.3601 35.2636 42.0431 0.0001 0.0000 -0.0001
# 2 35.2636 78.4735 45.6311 0.0000 0.0000 0.0000
# 3 42.0431 45.6311 96.0161 -0.0006 0.0003 0.0002
# 4 0.0001 0.0000 -0.0006 23.6114 0.0001 0.0001
# 5 0.0000 0.0000 0.0003 0.0001 33.0864 -0.0001
# 6 -0.0001 0.0000 0.0002 0.0001 -0.0001 16.8992
#
#
#
# Elastic Compliance Matrix: (Units=1/GPa)
#
#
# Indices 1 2 3 4 5 6 
#
# 1 0.012525 -0.003371 -0.003883 0.000000 0.000000 0.000000
# 2 -0.003371 0.018517 -0.007324 0.000000 0.000000 0.000000
# 3 -0.003883 -0.007324 0.015596 0.000000 0.000000 0.000000
# 4 0.000000 0.000000 0.000000 0.042352 0.000000 0.000000
# 5 0.000000 0.000000 0.000000 0.000000 0.030224 0.000000
# 6 0.000000 0.000000 0.000000 0.000000 0.000000 0.059174
#
#
# Mechanical properties :
#
#
# Convention : Reuss Voigt Hill
#
# Bulk Modulus (GPa) = 57.19844 58.08058 57.63951
# Shear Modulus (GPa) = 23.43338 24.98020 24.20679
#
# Velocity S-wave (km/s) = 3.57067 3.68664 3.62912
# Velocity P-wave (km/s) = 6.93688 7.05141 6.99438
#
# Compressibility (1/GPa) = 0.01748299
#
# Stress axis : x y z
#
# Youngs Moduli (GPa) = 79.83751 54.00545 64.12045
#
# Poissons Ratio (x) = 0.18205 0.24895
# Poissons Ratio (y) = 0.26912 0.46961
# Poissons Ratio (z) = 0.30998 0.39553
#
# Static dielectric constant tensor:
#      x y z
#    x 3.359080 0.000000 0.000000 
#    y 0.000000 3.150580 0.000000 
#    z 0.000000 0.000000 3.541800 
# 
# 
# High freq. dielectric constant tensor:
#      x y z
#    x 1.712350 0.000000 0.000000 
#    y 0.000000 1.681540 0.000000 
#    z 0.000000 0.000000 1.726110 
# 
# From -- ./inp_files/20658.got.cif
#   From: 2010.03.12/outbox.cif.g09.slc.cpg/sg72_11_cif.got.tgz:20658.got - 2010.04.16 14:54:00.
