data_PCOD8294762
_publ_section_title
;
Structure prediction by ZEFSAII (Michael W. Deem and Ramdas Pophale) SiO2 
 PCOD8294762
Probable space group: I B A M
;
_chemical_formula_sum "Si O2"
_cell_formula_units_Z 96
_cell_length_a 14.265597
_cell_length_b 14.253779
_cell_length_c 23.432579
_cell_angle_alpha 90.000000
_cell_angle_beta 90.000000
_cell_angle_gamma 90.000000
_cell_volume 4764.749377
_symmetry_space_group_name_H-M "I B A M"
_symmetry_group_IT_number 72
_symmetry_cell_setting 'orthorhombic'
loop_
_space_group_symop_operation_xyz
x,y,z
-x,-y,z
x,-y,1/2-z
-x,y,1/2-z
-x,-y,-z
x,y,-z
-x,y,1/2+z
x,-y,1/2+z
1/2+x,1/2+y,1/2+z
1/2-x,1/2-y,1/2+z
1/2+x,1/2-y,-z
1/2-x,1/2+y,-z
1/2-x,1/2-y,1/2-z
1/2+x,1/2+y,1/2-z
1/2-x,1/2+y,z
1/2+x,1/2-y,z
loop_
_atom_site_type_symbol
_atom_site_label
_atom_site_fract_x
_atom_site_fract_y
_atom_site_fract_z
Si Si1 0.540012 0.764277 0.303572
Si Si2 0.715246 0.868706 0.341243
Si Si3 0.948029 0.148034 0.000000
Si Si4 0.379663 0.249711 0.109458
Si Si5 0.854214 0.948575 0.000000
Si Si6 0.834199 0.899377 0.231293
Si Si7 0.765687 0.570644 0.386406
O O1 0.500000 0.826093 0.250000
O O2 0.614065 0.820566 0.341129
O O3 0.455055 0.729658 0.342142
O O4 0.583959 0.675901 0.269421
O O5 0.785488 0.807551 0.378773
O O6 0.751497 0.875399 0.276129
O O7 0.698015 0.966741 0.372883
O O8 0.927123 0.214107 0.947288
O O9 0.056153 0.118674 0.000000
O O10 0.882423 0.057064 0.000000
O O11 0.354422 0.139466 0.105201
O O12 0.795708 0.926213 0.943473
O O13 0.794975 0.896098 0.167278
O O14 0.876414 0.000000 0.250000
#
# Coordination Sequence:
#
# PCOD8294762 Si02
#       7
#    16  16   8  16   8  16  16
#     4  12  23  39  67  97 135 177 217 276 332 409
#     4  11  23  43  65  97 135 173 222 277 333 402
#     4  11  25  42  68 103 132 167 222 288 341 393
#     4  12  24  44  66  97 135 176 227 268 347 403
#     4  11  23  44  70  99 128 171 227 283 338 393
#     4  10  21  39  63  99 131 172 217 273 338 393
#     4  11  23  43  69  93 132 180 219 273 334 404
#
# _framework density 20.147964999999999
#
# number of rings (size 3 to 8) (size 9 to 14) (size 15 to 20)
#    0.000    0.833    5.000    3.000    0.000    1.000 
#    0.000    1.667    0.000    2.000    0.000    0.000 
#    0.000    0.000    0.000    0.000    0.000    0.000 
#
# Total GULP energy -595199.542978 kJ/mol
# GULP energy per Si atom -12399.990479 kJ/mol
# Density = 2.010211 g / cm^3
# Si number density = 20.147965 Si / 1000 Ang^3
#
#
#
# Elastic Constant Matrix: (Units=GPa)
#
#
# Indices 1 2 3 4 5 6 
#
# 1 92.5333 52.4720 36.6319 0.0000 0.0000 0.0000
# 2 52.4720 122.6780 31.7971 0.0000 0.0000 0.0000
# 3 36.6319 31.7971 139.7378 0.0000 0.0000 0.0000
# 4 0.0000 0.0000 0.0000 30.4094 0.0000 0.0000
# 5 0.0000 0.0000 0.0000 0.0000 26.9940 0.0000
# 6 0.0000 0.0000 0.0000 0.0000 0.0000 18.7237
#
#
#
# Elastic Compliance Matrix: (Units=1/GPa)
#
#
# Indices 1 2 3 4 5 6 
#
# 1 0.015139 -0.005788 -0.002652 0.000000 0.000000 0.000000
# 2 -0.005788 0.010875 -0.000957 0.000000 0.000000 0.000000
# 3 -0.002652 -0.000957 0.008069 0.000000 0.000000 0.000000
# 4 0.000000 0.000000 0.000000 0.032885 0.000000 0.000000
# 5 0.000000 0.000000 0.000000 0.000000 0.037045 0.000000
# 6 0.000000 0.000000 0.000000 0.000000 0.000000 0.053408
#
#
# Mechanical properties :
#
#
# Convention : Reuss Voigt Hill
#
# Bulk Modulus (GPa) = 65.40436 66.30568 65.85502
# Shear Modulus (GPa) = 27.57691 30.82862 29.20276
#
# Velocity S-wave (km/s) = 3.70363 3.91591 3.81125
# Velocity P-wave (km/s) = 7.12893 7.30935 7.21970
#
# Compressibility (1/GPa) = 0.01528950
#
# Stress axis : x y z
#
# Youngs Moduli (GPa) = 66.05594 91.95267 123.92807
#
# Poissons Ratio (x) = 0.53221 0.32860
# Poissons Ratio (y) = 0.38232 0.11864
# Poissons Ratio (z) = 0.17515 0.08803
#
# Static dielectric constant tensor:
#      x y z
#    x 3.545360 0.000000 0.000000 
#    y 0.000000 3.862580 0.000000 
#    z 0.000000 0.000000 3.428740 
# 
# 
# High freq. dielectric constant tensor:
#      x y z
#    x 1.783400 0.000000 0.000000 
#    y 0.000000 1.789800 0.000000 
#    z 0.000000 0.000000 1.800360 
# 
# From -- ./inp_files/38073.got.cif
#   From: 2010.03.12/outbox.cif.g09.slc.cpg/sg72_20_cif.got.tgz:38073.got - 2010.04.16 14:54:00.
