data_PCOD8294609
_publ_section_title
;
Structure prediction by ZEFSAII (Michael W. Deem and Ramdas Pophale) SiO2 
 PCOD8294609
Probable space group: I B A M
;
_chemical_formula_sum "Si O2"
_cell_formula_units_Z 64
_cell_length_a 8.160023
_cell_length_b 12.337380
_cell_length_c 25.859344
_cell_angle_alpha 90.000000
_cell_angle_beta 90.000000
_cell_angle_gamma 90.000000
_cell_volume 2603.345614
_symmetry_space_group_name_H-M "I B A M"
_symmetry_group_IT_number 72
_symmetry_cell_setting 'orthorhombic'
loop_
_space_group_symop_operation_xyz
x,y,z
-x,-y,z
x,-y,1/2-z
-x,y,1/2-z
-x,-y,-z
x,y,-z
-x,y,1/2+z
x,-y,1/2+z
1/2+x,1/2+y,1/2+z
1/2-x,1/2-y,1/2+z
1/2+x,1/2-y,-z
1/2-x,1/2+y,-z
1/2-x,1/2-y,1/2-z
1/2+x,1/2+y,1/2-z
1/2-x,1/2+y,z
1/2+x,1/2-y,z
loop_
_atom_site_type_symbol
_atom_site_label
_atom_site_fract_x
_atom_site_fract_y
_atom_site_fract_z
Si Si1 0.075092 0.393344 0.059141
Si Si2 0.430781 0.333229 0.059483
Si Si3 0.125491 0.304269 0.288394
Si Si4 0.076329 0.110686 0.159273
O O1 0.251513 0.361446 0.082753
O O2 0.000000 0.500000 0.087055
O O3 0.946571 0.296241 0.064295
O O4 0.112195 0.421539 0.000000
O O5 0.563745 0.391660 0.096428
O O6 0.461771 0.369805 0.000000
O O7 0.250000 0.250000 0.250000
O O8 0.230758 0.382852 0.325754
O O9 0.000000 0.368588 0.250000
O O10 0.026936 0.214222 0.321142
O O11 0.000000 0.000000 0.182614
#
# Coordination Sequence:
#
# PCOD8294609 Si02
#       4
#    16  16  16  16
#     4   9  19  36  57  82 121 178 235 282 328 375
#     4  10  21  37  59  92 136 183 230 277 323 389
#     4   9  21  43  67  94 127 161 213 283 343 402
#     4  11  23  41  66  98 134 175 223 273 334 408
#
# _framework density 24.583750999999999
#
# number of rings (size 3 to 8) (size 9 to 14) (size 15 to 20)
#    0.000    2.250    0.000    1.500    0.000    9.000 
#    0.000   13.750    0.000    0.000    0.000    0.000 
#    0.000    0.000    0.000    0.000    0.000    1.250 
#
# Total GULP energy -396529.982603 kJ/mol
# GULP energy per Si atom -12391.561956 kJ/mol
# Density = 2.452780 g / cm^3
# Si number density = 24.583751 Si / 1000 Ang^3
#
#
#
# Elastic Constant Matrix: (Units=GPa)
#
#
# Indices 1 2 3 4 5 6 
#
# 1 176.7464 67.4655 73.5157 0.0000 0.0000 0.0000
# 2 67.4655 110.5426 28.9704 0.0000 0.0000 0.0000
# 3 73.5157 28.9704 112.0200 0.0000 0.0000 0.0000
# 4 0.0000 0.0000 0.0000 9.1218 0.0000 0.0000
# 5 0.0000 0.0000 0.0000 0.0000 39.8081 0.0000
# 6 0.0000 0.0000 0.0000 0.0000 0.0000 38.2926
#
#
#
# Elastic Compliance Matrix: (Units=1/GPa)
#
#
# Indices 1 2 3 4 5 6 
#
# 1 0.009459 -0.004448 -0.005058 0.000000 0.000000 0.000000
# 2 -0.004448 0.011795 -0.000132 0.000000 0.000000 0.000000
# 3 -0.005058 -0.000132 0.012280 0.000000 0.000000 0.000000
# 4 0.000000 0.000000 0.000000 0.109628 0.000000 0.000000
# 5 0.000000 0.000000 0.000000 0.000000 0.025121 0.000000
# 6 0.000000 0.000000 0.000000 0.000000 0.000000 0.026115
#
#
# Mechanical properties :
#
#
# Convention : Reuss Voigt Hill
#
# Bulk Modulus (GPa) = 70.12145 82.13470 76.12808
# Shear Modulus (GPa) = 22.89118 32.73500 27.81309
#
# Velocity S-wave (km/s) = 3.05479 3.65303 3.36722
# Velocity P-wave (km/s) = 6.40529 7.16069 6.79350
#
# Compressibility (1/GPa) = 0.01426097
#
# Stress axis : x y z
#
# Youngs Moduli (GPa) = 105.71807 84.78036 81.43226
#
# Poissons Ratio (x) = 0.37707 0.41185
# Poissons Ratio (y) = 0.47019 0.01072
# Poissons Ratio (z) = 0.53467 0.01116
#
# Static dielectric constant tensor:
#      x y z
#    x 5.245030 0.000000 0.000000 
#    y 0.000000 4.235930 0.000000 
#    z 0.000000 0.000000 4.852270 
# 
# 
# High freq. dielectric constant tensor:
#      x y z
#    x 1.983830 0.000000 0.000000 
#    y 0.000000 1.954280 0.000000 
#    z 0.000000 0.000000 1.973130 
# 
# From -- ./inp_files/50599.got.cif
#   From: 2010.03.12/outbox.cif.g09.slc.cpg/sg72_26_cif.got.tgz:50599.got - 2010.04.16 14:54:00.
