data_PCOD8294139
_publ_section_title
;
Structure prediction by ZEFSAII (Michael W. Deem and Ramdas Pophale) SiO2 
 PCOD8294139
Probable space group: I B A M
;
_chemical_formula_sum "Si O2"
_cell_formula_units_Z 104
_cell_length_a 8.251078
_cell_length_b 21.902295
_cell_length_c 27.706552
_cell_angle_alpha 90.000000
_cell_angle_beta 90.000000
_cell_angle_gamma 90.000000
_cell_volume 5007.060042
_symmetry_space_group_name_H-M "I B A M"
_symmetry_group_IT_number 72
_symmetry_cell_setting 'orthorhombic'
loop_
_space_group_symop_operation_xyz
x,y,z
-x,-y,z
x,-y,1/2-z
-x,y,1/2-z
-x,-y,-z
x,y,-z
-x,y,1/2+z
x,-y,1/2+z
1/2+x,1/2+y,1/2+z
1/2-x,1/2-y,1/2+z
1/2+x,1/2-y,-z
1/2-x,1/2+y,-z
1/2-x,1/2-y,1/2-z
1/2+x,1/2+y,1/2-z
1/2-x,1/2+y,z
1/2+x,1/2-y,z
loop_
_atom_site_type_symbol
_atom_site_label
_atom_site_fract_x
_atom_site_fract_y
_atom_site_fract_z
Si Si1 0.770500 0.514620 0.500000
Si Si2 0.561768 0.667060 0.301414
Si Si3 0.025395 0.392698 0.000000
Si Si4 0.825054 0.018897 0.103711
Si Si5 0.000000 0.377105 0.750000
Si Si6 0.784468 0.709057 0.184507
Si Si7 0.322857 0.918523 0.660620
Si Si8 0.390225 0.135268 0.602002
O O1 0.838588 0.584716 0.500000
O O2 0.669895 0.507218 0.549210
O O3 0.897026 0.459588 0.500000
O O4 0.500000 0.640631 0.250000
O O5 0.404268 0.696730 0.325272
O O6 0.692163 0.722281 0.295936
O O7 0.648472 0.616131 0.334293
O O8 0.078609 0.352023 0.954391
O O9 0.764505 0.088981 0.107401
O O10 0.701089 0.985938 0.140105
O O11 0.000000 0.000000 0.124736
O O12 0.865326 0.336800 0.722874
O O13 0.906056 0.420708 0.787003
O O14 0.856723 0.697774 0.130869
O O15 0.439236 0.888269 0.621648
#
# Coordination Sequence:
#
# PCOD8294139 Si02
#       8
#     8  16   8  16   8  16  16  16
#     4   9  17  32  58  89 111 144 194 244 287 337
#     4  12  22  38  62  86 116 150 199 255 285 340
#     4   9  16  34  60  85 111 150 192 236 287 348
#     4  11  21  37  58  87 121 153 192 245 294 357
#     4  10  20  36  55  78 106 150 191 240 288 342
#     4  11  21  37  59  87 114 146 195 242 295 340
#     4  11  22  36  59  82 115 153 198 239 296 342
#     4  10  21  37  61  86 116 154 193 238 293 355
#
# _framework density 20.770671
#
# number of rings (size 3 to 8) (size 9 to 14) (size 15 to 20)
#    0.000    1.385    3.846    3.923    0.000    0.000 
#    0.000    6.154    0.000    4.615    0.000    0.000 
#    0.000    0.000    0.000    0.000    0.000    0.000 
#
# Total GULP energy -644261.347862 kJ/mol
# GULP energy per Si atom -12389.641305 kJ/mol
# Density = 2.072340 g / cm^3
# Si number density = 20.770671 Si / 1000 Ang^3
#
#
#
# Elastic Constant Matrix: (Units=GPa)
#
#
# Indices 1 2 3 4 5 6 
#
# 1 88.1276 -1.4484 9.5145 0.0000 0.0000 0.0000
# 2 -1.4484 30.2316 14.7016 0.0000 0.0000 0.0000
# 3 9.5145 14.7016 117.1558 0.0000 0.0000 0.0000
# 4 0.0000 0.0000 0.0000 -3.1610 0.0000 0.0000
# 5 0.0000 0.0000 0.0000 0.0000 23.0070 0.0000
# 6 0.0000 0.0000 0.0000 0.0000 0.0000 29.8885
#
#
#
# Elastic Compliance Matrix: (Units=1/GPa)
#
#
# Indices 1 2 3 4 5 6 
#
# 1 0.011480 0.001069 -0.001066 0.000000 0.000000 0.000000
# 2 0.001069 0.035327 -0.004520 0.000000 0.000000 0.000000
# 3 -0.001066 -0.004520 0.009189 0.000000 0.000000 0.000000
# 4 0.000000 0.000000 0.000000 -0.316354 0.000000 0.000000
# 5 0.000000 0.000000 0.000000 0.000000 0.043465 0.000000
# 6 0.000000 0.000000 0.000000 0.000000 0.000000 0.033458
#
#
# Mechanical properties :
#
#
# Convention : Reuss Voigt Hill
#
# Bulk Modulus (GPa) = 21.29424 31.22783 26.26103
# Shear Modulus (GPa) = -31.49692 24.13005 -3.68343
#
# Velocity S-wave (km/s) = -3.89834 3.41212 -1.33313
# Velocity P-wave (km/s) = 3.16044 5.53088 3.20954
#
# Compressibility (1/GPa) = 0.04696105
#
# Stress axis : x y z
#
# Youngs Moduli (GPa) = 87.10894 28.30683 108.82060
#
# Poissons Ratio (x) = -0.03025 0.11605
# Poissons Ratio (y) = -0.09308 0.49186
# Poissons Ratio (z) = 0.09289 0.12794
#
# Static dielectric constant tensor:
#      x y z
#    x 3.928660 0.000000 0.000000 
#    y 0.000000 3.410550 0.000000 
#    z 0.000000 0.000000 3.906990 
# 
# 
# High freq. dielectric constant tensor:
#      x y z
#    x 1.828310 0.000000 0.000000 
#    y 0.000000 1.767010 0.000000 
#    z 0.000000 0.000000 1.814980 
# 
# From -- ./inp_files/47583.got.cif
#   From: 2010.03.12/outbox.cif.g09.slc.cpg/sg72_24_cif.got.tgz:47583.got - 2010.04.16 14:54:00.
