data_PCOD8294992
_publ_section_title
;
Structure prediction by ZEFSAII (Michael W. Deem and Ramdas Pophale) SiO2 
 PCOD8294992
Probable space group: I B A M
;
_chemical_formula_sum "Si O2"
_cell_formula_units_Z 56
_cell_length_a 22.281283
_cell_length_b 5.413309
_cell_length_c 19.821880
_cell_angle_alpha 90.000000
_cell_angle_beta 90.000000
_cell_angle_gamma 90.000000
_cell_volume 2390.825368
_symmetry_space_group_name_H-M "I B A M"
_symmetry_group_IT_number 72
_symmetry_cell_setting 'orthorhombic'
loop_
_space_group_symop_operation_xyz
x,y,z
-x,-y,z
x,-y,1/2-z
-x,y,1/2-z
-x,-y,-z
x,y,-z
-x,y,1/2+z
x,-y,1/2+z
1/2+x,1/2+y,1/2+z
1/2-x,1/2-y,1/2+z
1/2+x,1/2-y,-z
1/2-x,1/2+y,-z
1/2-x,1/2-y,1/2-z
1/2+x,1/2+y,1/2-z
1/2-x,1/2+y,z
1/2+x,1/2-y,z
loop_
_atom_site_type_symbol
_atom_site_label
_atom_site_fract_x
_atom_site_fract_y
_atom_site_fract_z
Si Si1 0.563545 0.872223 0.425697
Si Si2 0.894546 0.687785 0.310108
Si Si3 0.000000 0.000000 0.839902
Si Si4 0.773698 0.052425 0.176093
O O1 0.592170 0.825602 0.500000
O O2 0.551668 0.616679 0.387063
O O3 0.500000 0.000000 0.434435
O O4 0.607115 0.042332 0.381069
O O5 0.879898 0.500000 0.250000
O O6 0.960699 0.807149 0.295144
O O7 0.844710 0.901456 0.316495
O O8 0.740486 0.287563 0.139317
O O9 0.744239 0.000000 0.250000
#
# Coordination Sequence:
#
# PCOD8294992 Si02
#       4
#    16  16   8  16
#     4   9  20  39  59  84 121 168 213 252 312 396
#     4  11  24  38  60  94 129 162 207 271 331 383
#     4  10  23  37  58  90 131 171 206 264 327 403
#     4  10  22  41  64  90 125 169 219 266 317 383
#
# _framework density 23.422875000000001
#
# number of rings (size 3 to 8) (size 9 to 14) (size 15 to 20)
#    0.000    2.000    0.000    3.000    8.000    7.429 
#    0.000    0.000    0.000    1.714    0.000    0.000 
#    0.000    0.000    0.000    0.000    0.000    0.000 
#
# Total GULP energy -346953.416365 kJ/mol
# GULP energy per Si atom -12391.193442 kJ/mol
# Density = 2.336956 g / cm^3
# Si number density = 23.422875 Si / 1000 Ang^3
#
#
#
# Elastic Constant Matrix: (Units=GPa)
#
#
# Indices 1 2 3 4 5 6 
#
# 1 105.8441 55.9844 32.8725 0.0000 0.0000 0.0000
# 2 55.9844 156.0535 19.6312 0.0000 0.0000 0.0000
# 3 32.8725 19.6312 73.3400 0.0000 0.0000 0.0000
# 4 0.0000 0.0000 0.0000 17.1801 0.0000 0.0000
# 5 0.0000 0.0000 0.0000 0.0000 13.2391 0.0000
# 6 0.0000 0.0000 0.0000 0.0000 0.0000 57.2098
#
#
#
# Elastic Compliance Matrix: (Units=1/GPa)
#
#
# Indices 1 2 3 4 5 6 
#
# 1 0.013098 -0.004099 -0.004774 0.000000 0.000000 0.000000
# 2 -0.004099 0.007914 -0.000281 0.000000 0.000000 0.000000
# 3 -0.004774 -0.000281 0.015850 0.000000 0.000000 0.000000
# 4 0.000000 0.000000 0.000000 0.058207 0.000000 0.000000
# 5 0.000000 0.000000 0.000000 0.000000 0.075534 0.000000
# 6 0.000000 0.000000 0.000000 0.000000 0.000000 0.017480
#
#
# Mechanical properties :
#
#
# Convention : Reuss Voigt Hill
#
# Bulk Modulus (GPa) = 53.89393 61.35708 57.62551
# Shear Modulus (GPa) = 23.52112 32.64244 28.08178
#
# Velocity S-wave (km/s) = 3.17234 3.73716 3.46628
# Velocity P-wave (km/s) = 6.03965 6.69881 6.37775
#
# Compressibility (1/GPa) = 0.01855496
#
# Stress axis : x y z
#
# Youngs Moduli (GPa) = 76.34560 126.36179 63.09084
#
# Poissons Ratio (x) = 0.51789 0.30119
# Poissons Ratio (y) = 0.31290 0.01775
# Poissons Ratio (z) = 0.36446 0.03554
#
# Static dielectric constant tensor:
#      x y z
#    x 3.859930 0.000000 0.000000 
#    y 0.000000 4.819060 0.000000 
#    z 0.000000 0.000000 4.308760 
# 
# 
# High freq. dielectric constant tensor:
#      x y z
#    x 1.909040 0.000000 0.000000 
#    y 0.000000 1.951800 0.000000 
#    z 0.000000 0.000000 1.873070 
# 
# From -- ./inp_files/39998.got.cif
#   From: 2010.03.12/outbox.cif.g09.slc.cpg/sg72_20_cif.got.tgz:39998.got - 2010.04.16 14:54:00.
