data_PCOD8294337
_publ_section_title
;
Structure prediction by ZEFSAII (Michael W. Deem and Ramdas Pophale) SiO2 
 PCOD8294337
Probable space group: I B A M
;
_chemical_formula_sum "Si O2"
_cell_formula_units_Z 104
_cell_length_a 9.200851
_cell_length_b 19.101198
_cell_length_c 29.904589
_cell_angle_alpha 90.000000
_cell_angle_beta 90.000000
_cell_angle_gamma 90.000000
_cell_volume 5255.650078
_symmetry_space_group_name_H-M "I B A M"
_symmetry_group_IT_number 72
_symmetry_cell_setting 'orthorhombic'
loop_
_space_group_symop_operation_xyz
x,y,z
-x,-y,z
x,-y,1/2-z
-x,y,1/2-z
-x,-y,-z
x,y,-z
-x,y,1/2+z
x,-y,1/2+z
1/2+x,1/2+y,1/2+z
1/2-x,1/2-y,1/2+z
1/2+x,1/2-y,-z
1/2-x,1/2+y,-z
1/2-x,1/2-y,1/2-z
1/2+x,1/2+y,1/2-z
1/2-x,1/2+y,z
1/2+x,1/2-y,z
loop_
_atom_site_type_symbol
_atom_site_label
_atom_site_fract_x
_atom_site_fract_y
_atom_site_fract_z
Si Si1 0.834004 0.980649 0.608218
Si Si2 0.338764 0.528864 0.705606
Si Si3 0.500000 0.777620 0.750000
Si Si4 0.728440 0.316698 0.301646
Si Si5 0.498479 0.790063 0.447608
Si Si6 0.385003 0.941588 0.552580
Si Si7 0.704912 0.318827 0.404723
O O1 0.762693 0.989874 0.658052
O O2 0.818017 0.901961 0.589470
O O3 0.765383 0.037714 0.575519
O O4 0.000000 0.000000 0.611745
O O5 0.500000 0.500000 0.706333
O O6 0.254171 0.500000 0.750000
O O7 0.351157 0.611481 0.708539
O O8 0.381903 0.737153 0.720584
O O9 0.394499 0.821032 0.783050
O O10 0.741758 0.299285 0.353892
O O11 0.474408 0.777527 0.500000
O O12 0.428808 0.863912 0.431810
O O13 0.435917 0.724523 0.420151
O O14 0.668544 0.793410 0.437525
O O15 0.363088 0.944618 0.500000
O O16 0.500000 0.000000 0.568681
#
# Coordination Sequence:
#
# PCOD8294337 Si02
#       7
#    16  16   8  16  16  16  16
#     4  10  22  39  62  92 121 160 206 255 304 366
#     4   9  18  37  59  85 117 156 199 243 300 358
#     4  10  20  38  58  86 120 154 204 240 296 362
#     4  10  21  38  61  87 119 161 199 248 305 361
#     4  11  24  41  63  89 121 163 206 255 315 374
#     4  10  21  41  62  84 117 161 202 247 313 372
#     4  11  23  41  61  90 127 157 208 255 309 372
#
# _framework density 19.788226999999999
#
# number of rings (size 3 to 8) (size 9 to 14) (size 15 to 20)
#    0.000    1.846    1.538    2.308    2.154    0.923 
#   11.077    0.385    0.000    0.000    0.000    0.000 
#    0.000    0.000    0.000    0.000    0.000    0.000 
#
# Total GULP energy -644517.313934 kJ/mol
# GULP energy per Si atom -12394.563730 kJ/mol
# Density = 1.974319 g / cm^3
# Si number density = 19.788227 Si / 1000 Ang^3
#
#
#
# Elastic Constant Matrix: (Units=GPa)
#
#
# Indices 1 2 3 4 5 6 
#
# 1 85.0710 26.1584 25.1675 0.0000 0.0000 0.0000
# 2 26.1584 74.3892 33.5137 0.0000 0.0000 0.0000
# 3 25.1675 33.5137 71.7809 0.0000 0.0000 0.0000
# 4 0.0000 0.0000 0.0000 27.9353 0.0000 0.0000
# 5 0.0000 0.0000 0.0000 0.0000 17.1747 0.0000
# 6 0.0000 0.0000 0.0000 0.0000 0.0000 2.4247
#
#
#
# Elastic Compliance Matrix: (Units=1/GPa)
#
#
# Indices 1 2 3 4 5 6 
#
# 1 0.013753 -0.003373 -0.003247 0.000000 0.000000 0.000000
# 2 -0.003373 0.017851 -0.007152 0.000000 0.000000 0.000000
# 3 -0.003247 -0.007152 0.018409 0.000000 0.000000 0.000000
# 4 0.000000 0.000000 0.000000 0.035797 0.000000 0.000000
# 5 0.000000 0.000000 0.000000 0.000000 0.058225 0.000000
# 6 0.000000 0.000000 0.000000 0.000000 0.000000 0.412422
#
#
# Mechanical properties :
#
#
# Convention : Reuss Voigt Hill
#
# Bulk Modulus (GPa) = 44.50653 44.54669 44.52661
# Shear Modulus (GPa) = 8.45323 19.26705 13.86014
#
# Velocity S-wave (km/s) = 2.06909 3.12374 2.64942
# Velocity P-wave (km/s) = 5.31492 5.96414 5.64886
#
# Compressibility (1/GPa) = 0.02246861
#
# Stress axis : x y z
#
# Youngs Moduli (GPa) = 72.71293 56.01941 54.32188
#
# Poissons Ratio (x) = 0.18896 0.17638
# Poissons Ratio (y) = 0.24528 0.38849
# Poissons Ratio (z) = 0.23610 0.40063
#
# Static dielectric constant tensor:
#      x y z
#    x 3.442680 0.000000 0.000000 
#    y 0.000000 3.789990 0.000000 
#    z 0.000000 0.000000 4.023080 
# 
# 
# High freq. dielectric constant tensor:
#      x y z
#    x 1.759110 0.000000 0.000000 
#    y 0.000000 1.773090 0.000000 
#    z 0.000000 0.000000 1.787890 
# 
# From -- ./inp_files/47425.got.cif
#   From: 2010.03.12/outbox.cif.g09.slc.cpg/sg72_24_cif.got.tgz:47425.got - 2010.04.16 14:54:00.
