data_PCOD8294806
_publ_section_title
;
Structure prediction by ZEFSAII (Michael W. Deem and Ramdas Pophale) SiO2 
 PCOD8294806
Probable space group: I B A M
;
_chemical_formula_sum "Si O2"
_cell_formula_units_Z 116
_cell_length_a 22.484598
_cell_length_b 13.480978
_cell_length_c 19.486801
_cell_angle_alpha 90.000000
_cell_angle_beta 90.000000
_cell_angle_gamma 90.000000
_cell_volume 5906.729427
_symmetry_space_group_name_H-M "I B A M"
_symmetry_group_IT_number 72
_symmetry_cell_setting 'orthorhombic'
loop_
_space_group_symop_operation_xyz
x,y,z
-x,-y,z
x,-y,1/2-z
-x,y,1/2-z
-x,-y,-z
x,y,-z
-x,y,1/2+z
x,-y,1/2+z
1/2+x,1/2+y,1/2+z
1/2-x,1/2-y,1/2+z
1/2+x,1/2-y,-z
1/2-x,1/2+y,-z
1/2-x,1/2-y,1/2-z
1/2+x,1/2+y,1/2-z
1/2-x,1/2+y,z
1/2+x,1/2-y,z
loop_
_atom_site_type_symbol
_atom_site_label
_atom_site_fract_x
_atom_site_fract_y
_atom_site_fract_z
Si Si1 0.934699 0.958491 0.419241
Si Si2 0.652851 0.431306 0.813954
Si Si3 0.054802 0.730565 0.123685
Si Si4 0.626968 0.773639 0.743113
Si Si5 0.000000 0.500000 0.750000
Si Si6 0.873520 0.448813 0.925664
Si Si7 0.215276 0.417017 0.307605
Si Si8 0.562596 0.878944 0.362915
O O1 0.920151 0.972232 0.500000
O O2 0.932474 0.842692 0.399711
O O3 0.886062 0.020170 0.375152
O O4 0.000000 0.000000 0.401533
O O5 0.663177 0.500000 0.750000
O O6 0.622317 0.340045 0.776868
O O7 0.718992 0.399304 0.839183
O O8 0.072612 0.711773 0.203036
O O9 0.093171 0.656256 0.077562
O O10 0.985885 0.701089 0.110979
O O11 0.688047 0.813304 0.778167
O O12 0.619790 0.823989 0.668337
O O13 0.957922 0.564202 0.796171
O O14 0.823470 0.459866 0.869156
O O15 0.920114 0.540753 0.920306
O O16 0.843150 0.456096 0.000000
O O17 0.213829 0.500000 0.250000
#
# Coordination Sequence:
#
# PCOD8294806 Si02
#       8
#    16  16  16  16   4  16  16  16
#     4  11  25  44  62  86 125 167 203 251 307 364
#     4  11  23  41  66  93 116 156 210 258 302 358
#     4  11  21  36  60  89 122 162 209 249 303 368
#     4  11  20  37  62  96 121 156 200 261 306 363
#     4  12  16  32  50  84 122 160 194 236 314 364
#     4  11  23  38  58  89 127 163 203 253 308 375
#     4  10  21  40  66  90 120 156 199 256 311 363
#     4  12  20  33  58  88 129 162 200 252 314 370
#
# _framework density 19.638615999999999
#
# number of rings (size 3 to 8) (size 9 to 14) (size 15 to 20)
#    0.000    0.966    5.517    2.483    0.000    2.483 
#    0.000    0.690    0.000    0.000    0.000    0.000 
#    0.000    0.000    0.000    0.000    0.000    0.000 
#
# Total GULP energy -718668.606214 kJ/mol
# GULP energy per Si atom -12390.838038 kJ/mol
# Density = 1.959392 g / cm^3
# Si number density = 19.638616 Si / 1000 Ang^3
#
#
#
# Elastic Constant Matrix: (Units=GPa)
#
#
# Indices 1 2 3 4 5 6 
#
# 1 109.2800 27.9365 42.0854 0.0000 0.0000 0.0000
# 2 27.9365 102.3155 29.9873 0.0000 0.0000 0.0000
# 3 42.0854 29.9873 105.9594 0.0000 0.0000 0.0000
# 4 0.0000 0.0000 0.0000 17.2698 0.0000 0.0000
# 5 0.0000 0.0000 0.0000 0.0000 16.2135 0.0000
# 6 0.0000 0.0000 0.0000 0.0000 0.0000 -36.4964
#
#
#
# Elastic Compliance Matrix: (Units=1/GPa)
#
#
# Indices 1 2 3 4 5 6 
#
# 1 0.011133 -0.001901 -0.003884 0.000000 0.000000 0.000000
# 2 -0.001901 0.010982 -0.002353 0.000000 0.000000 0.000000
# 3 -0.003884 -0.002353 0.011646 0.000000 0.000000 0.000000
# 4 0.000000 0.000000 0.000000 0.057905 0.000000 0.000000
# 5 0.000000 0.000000 0.000000 0.000000 0.061677 0.000000
# 6 0.000000 0.000000 0.000000 0.000000 0.000000 -0.027400
#
#
# Mechanical properties :
#
#
# Convention : Reuss Voigt Hill
#
# Bulk Modulus (GPa) = 57.19130 57.50813 57.34971
# Shear Modulus (GPa) = 33.77308 13.90041 23.83675
#
# Velocity S-wave (km/s) = 4.15146 2.66336 3.48770
# Velocity P-wave (km/s) = 7.22250 6.22934 6.74423
#
# Compressibility (1/GPa) = 0.01748518
#
# Stress axis : x y z
#
# Youngs Moduli (GPa) = 89.82708 91.05420 85.86678
#
# Poissons Ratio (x) = 0.17313 0.33347
# Poissons Ratio (y) = 0.17080 0.20204
# Poissons Ratio (z) = 0.34885 0.21424
#
# Static dielectric constant tensor:
#      x y z
#    x 3.937420 0.000000 0.000000 
#    y 0.000000 3.496380 0.000000 
#    z 0.000000 0.000000 3.435230 
# 
# 
# High freq. dielectric constant tensor:
#      x y z
#    x 1.756000 0.000000 0.000000 
#    y 0.000000 1.778130 0.000000 
#    z 0.000000 0.000000 1.755580 
# 
# From -- ./inp_files/33459.got.cif
#   From: 2010.03.12/outbox.cif.g09.slc.cpg/sg72_17_cif.got.tgz:33459.got - 2010.04.16 14:54:00.
