data_PCOD8294520
_publ_section_title
;
Structure prediction by ZEFSAII (Michael W. Deem and Ramdas Pophale) SiO2 
 PCOD8294520
Probable space group: I B A M
;
_chemical_formula_sum "Si O2"
_cell_formula_units_Z 96
_cell_length_a 26.877558
_cell_length_b 10.580252
_cell_length_c 18.501691
_cell_angle_alpha 90.000000
_cell_angle_beta 90.000000
_cell_angle_gamma 90.000000
_cell_volume 5261.350602
_symmetry_space_group_name_H-M "I B A M"
_symmetry_group_IT_number 72
_symmetry_cell_setting 'orthorhombic'
loop_
_space_group_symop_operation_xyz
x,y,z
-x,-y,z
x,-y,1/2-z
-x,y,1/2-z
-x,-y,-z
x,y,-z
-x,y,1/2+z
x,-y,1/2+z
1/2+x,1/2+y,1/2+z
1/2-x,1/2-y,1/2+z
1/2+x,1/2-y,-z
1/2-x,1/2+y,-z
1/2-x,1/2-y,1/2-z
1/2+x,1/2+y,1/2-z
1/2-x,1/2+y,z
1/2+x,1/2-y,z
loop_
_atom_site_type_symbol
_atom_site_label
_atom_site_fract_x
_atom_site_fract_y
_atom_site_fract_z
Si Si1 0.503522 0.646419 0.578463
Si Si2 0.703999 0.286797 0.914775
Si Si3 0.283604 0.003123 0.084315
Si Si4 0.121016 0.514219 0.169621
Si Si5 0.900046 0.234691 0.348022
Si Si6 0.450891 0.227984 0.793133
O O1 0.500000 0.500000 0.568874
O O2 0.490654 0.709311 0.500000
O O3 0.560098 0.678088 0.597702
O O4 0.464813 0.681192 0.641192
O O5 0.725743 0.145761 0.895226
O O6 0.740150 0.401119 0.890706
O O7 0.654456 0.315444 0.868737
O O8 0.692132 0.292730 0.000000
O O9 0.333621 0.057731 0.119786
O O10 0.291287 0.016490 0.000000
O O11 0.143215 0.500000 0.250000
O O12 0.097785 0.384882 0.140677
O O13 0.075540 0.610776 0.168858
O O14 0.913957 0.202120 0.264078
O O15 0.500000 0.181942 0.750000
#
# Coordination Sequence:
#
# PCOD8294520 Si02
#       6
#    16  16  16  16  16  16
#     4  10  21  36  52  73 105 141 176 218 261 309
#     4   9  17  33  55  79 106 141 178 218 267 319
#     4   9  18  33  54  78 108 140 176 222 269 317
#     4   9  18  34  54  78 106 137 169 216 265 312
#     4   9  18  33  55  76 102 141 174 207 262 320
#     4   9  19  34  54  77 104 136 174 215 259 310
#
# _framework density 18.246265000000001
#
# number of rings (size 3 to 8) (size 9 to 14) (size 15 to 20)
#    0.000    2.833    0.000    0.500    0.000   12.000 
#    3.000    8.333    0.000    0.000    0.000    0.000 
#    0.000    0.000    0.000    0.000    0.000    0.000 
#
# Total GULP energy -594836.757920 kJ/mol
# GULP energy per Si atom -12392.432457 kJ/mol
# Density = 1.820474 g / cm^3
# Si number density = 18.246265 Si / 1000 Ang^3
#
#
#
# Elastic Constant Matrix: (Units=GPa)
#
#
# Indices 1 2 3 4 5 6 
#
# 1 125.1291 64.1630 67.0582 0.0000 0.0000 0.0000
# 2 64.1630 77.2935 48.6988 0.0000 0.0000 0.0000
# 3 67.0582 48.6988 92.8366 0.0000 0.0000 0.0000
# 4 0.0000 0.0000 0.0000 15.8602 0.0000 0.0000
# 5 0.0000 0.0000 0.0000 0.0000 49.1130 0.0000
# 6 0.0000 0.0000 0.0000 0.0000 0.0000 31.3649
#
#
#
# Elastic Compliance Matrix: (Units=1/GPa)
#
#
# Indices 1 2 3 4 5 6 
#
# 1 0.016541 -0.009266 -0.007088 0.000000 0.000000 0.000000
# 2 -0.009266 0.024515 -0.006167 0.000000 0.000000 0.000000
# 3 -0.007088 -0.006167 0.019126 0.000000 0.000000 0.000000
# 4 0.000000 0.000000 0.000000 0.063051 0.000000 0.000000
# 5 0.000000 0.000000 0.000000 0.000000 0.020361 0.000000
# 6 0.000000 0.000000 0.000000 0.000000 0.000000 0.031883
#
#
# Mechanical properties :
#
#
# Convention : Reuss Voigt Hill
#
# Bulk Modulus (GPa) = 66.04223 72.78881 69.41552
# Shear Modulus (GPa) = 22.16658 26.95690 24.56174
#
# Velocity S-wave (km/s) = 3.48926 3.84786 3.67294
# Velocity P-wave (km/s) = 7.24615 7.72790 7.49090
#
# Compressibility (1/GPa) = 0.01514183
#
# Stress axis : x y z
#
# Youngs Moduli (GPa) = 60.45433 40.79191 52.28442
#
# Poissons Ratio (x) = 0.37797 0.37058
# Poissons Ratio (y) = 0.56015 0.32242
# Poissons Ratio (z) = 0.42849 0.25155
#
# Static dielectric constant tensor:
#      x y z
#    x 3.433420 0.000000 0.000000 
#    y 0.000000 3.369990 0.000000 
#    z 0.000000 0.000000 3.608440 
# 
# 
# High freq. dielectric constant tensor:
#      x y z
#    x 1.701520 0.000000 0.000000 
#    y 0.000000 1.696050 0.000000 
#    z 0.000000 0.000000 1.711270 
# 
# From -- ./inp_files/33239.got.cif
#   From: 2010.03.12/outbox.cif.g09.slc.cpg/sg72_17_cif.got.tgz:33239.got - 2010.04.16 14:54:00.
