data_PCOD8294962
_publ_section_title
;
Structure prediction by ZEFSAII (Michael W. Deem and Ramdas Pophale) SiO2 
 PCOD8294962
Probable space group: I B A M
;
_chemical_formula_sum "Si O2"
_cell_formula_units_Z 96
_cell_length_a 28.431859
_cell_length_b 19.030360
_cell_length_c 8.443924
_cell_angle_alpha 90.000000
_cell_angle_beta 90.000000
_cell_angle_gamma 90.000000
_cell_volume 4568.741396
_symmetry_space_group_name_H-M "I B A M"
_symmetry_group_IT_number 72
_symmetry_cell_setting 'orthorhombic'
loop_
_space_group_symop_operation_xyz
x,y,z
-x,-y,z
x,-y,1/2-z
-x,y,1/2-z
-x,-y,-z
x,y,-z
-x,y,1/2+z
x,-y,1/2+z
1/2+x,1/2+y,1/2+z
1/2-x,1/2-y,1/2+z
1/2+x,1/2-y,-z
1/2-x,1/2+y,-z
1/2-x,1/2-y,1/2-z
1/2+x,1/2+y,1/2-z
1/2-x,1/2+y,z
1/2+x,1/2-y,z
loop_
_atom_site_type_symbol
_atom_site_label
_atom_site_fract_x
_atom_site_fract_y
_atom_site_fract_z
Si Si1 0.450893 0.265044 0.312456
Si Si2 0.359800 0.930120 0.818045
Si Si3 0.853750 0.187062 0.813297
Si Si4 0.549044 0.889951 0.185813
Si Si5 0.280029 0.577804 0.682695
Si Si6 0.798775 0.678206 0.319742
O O1 0.500000 0.300919 0.250000
O O2 0.454365 0.252596 0.500000
O O3 0.404081 0.310618 0.274865
O O4 0.445008 0.192473 0.220429
O O5 0.415345 0.935306 0.792360
O O6 0.346001 0.866139 0.704272
O O7 0.334653 0.000000 0.750000
O O8 0.345545 0.918235 0.000000
O O9 0.831061 0.110859 0.773918
O O10 0.814220 0.244636 0.755160
O O11 0.862129 0.198437 0.000000
O O12 0.500000 0.917954 0.250000
O O13 0.555721 0.904346 0.000000
O O14 0.273170 0.500000 0.750000
O O15 0.274994 0.566017 0.500000
O O16 0.241088 0.636157 0.725728
O O17 0.782525 0.683013 0.500000
#
# Coordination Sequence:
#
# PCOD8294962 Si02
#       6
#    16  16  16  16  16  16
#     4  11  21  35  60  91 124 160 199 247 302 360
#     4  12  24  38  55  79 111 154 201 249 303 357
#     4  10  22  40  64  92 124 160 204 253 304 359
#     4  11  21  36  55  78 110 149 195 246 300 357
#     4  11  24  42  63  90 125 164 203 251 305 366
#     4  11  22  39  62  88 119 158 202 253 301 355
#
# _framework density 21.012350999999999
#
# number of rings (size 3 to 8) (size 9 to 14) (size 15 to 20)
#    0.000    1.000    1.667    7.500    0.000    2.333 
#    0.000    1.667    0.000    0.500    0.000    3.500 
#    0.000    0.000    0.000    0.000    0.000    0.000 
#
# Total GULP energy -594822.083813 kJ/mol
# GULP energy per Si atom -12392.126746 kJ/mol
# Density = 2.096453 g / cm^3
# Si number density = 21.012351 Si / 1000 Ang^3
#
#
#
# Elastic Constant Matrix: (Units=GPa)
#
#
# Indices 1 2 3 4 5 6 
#
# 1 103.5220 54.3191 29.3549 0.0000 0.0000 0.0000
# 2 54.3191 76.8360 27.6061 0.0000 0.0000 0.0000
# 3 29.3549 27.6061 82.5685 0.0000 0.0000 0.0000
# 4 0.0000 0.0000 0.0000 21.2957 0.0000 0.0000
# 5 0.0000 0.0000 0.0000 0.0000 32.7989 0.0000
# 6 0.0000 0.0000 0.0000 0.0000 0.0000 -6.6358
#
#
#
# Elastic Compliance Matrix: (Units=1/GPa)
#
#
# Indices 1 2 3 4 5 6 
#
# 1 0.015677 -0.010320 -0.002123 0.000000 0.000000 0.000000
# 2 -0.010320 0.021585 -0.003548 0.000000 0.000000 0.000000
# 3 -0.002123 -0.003548 0.014052 0.000000 0.000000 0.000000
# 4 0.000000 0.000000 0.000000 0.046958 0.000000 0.000000
# 5 0.000000 0.000000 0.000000 0.000000 0.030489 0.000000
# 6 0.000000 0.000000 0.000000 0.000000 0.000000 -0.150697
#
#
# Mechanical properties :
#
#
# Convention : Reuss Voigt Hill
#
# Bulk Modulus (GPa) = 51.72669 53.94298 52.83483
# Shear Modulus (GPa) = 303.23107 19.60152 161.41629
#
# Velocity S-wave (km/s) = 12.02598 3.05758 8.77419
# Velocity P-wave (km/s) = 14.74798 6.18004 11.30698
#
# Compressibility (1/GPa) = 0.01933238
#
# Stress axis : x y z
#
# Youngs Moduli (GPa) = 63.78885 46.32843 71.16351
#
# Poissons Ratio (x) = 0.47810 0.15108
# Poissons Ratio (y) = 0.65829 0.25248
# Poissons Ratio (z) = 0.13543 0.16437
#
# Static dielectric constant tensor:
#      x y z
#    x 4.157850 0.000000 0.000000 
#    y 0.000000 3.803670 0.000000 
#    z 0.000000 0.000000 3.667070 
# 
# 
# High freq. dielectric constant tensor:
#      x y z
#    x 1.836010 0.000000 0.000000 
#    y 0.000000 1.798080 0.000000 
#    z 0.000000 0.000000 1.827190 
# 
# From -- ./inp_files/8080.got.cif
#   From: 2010.03.12/outbox.cif.g09.slc.cpg/sg72_5_cif.got.tgz:8080.got - 2010.04.16 14:54:00.
