data_PCOD8294038
_publ_section_title
;
Structure prediction by ZEFSAII (Michael W. Deem and Ramdas Pophale) SiO2 
 PCOD8294038
Probable space group: I B A M
;
_chemical_formula_sum "Si O2"
_cell_formula_units_Z 116
_cell_length_a 22.796103
_cell_length_b 27.553733
_cell_length_c 9.537609
_cell_angle_alpha 90.000000
_cell_angle_beta 90.000000
_cell_angle_gamma 90.000000
_cell_volume 5990.741367
_symmetry_space_group_name_H-M "I B A M"
_symmetry_group_IT_number 72
_symmetry_cell_setting 'orthorhombic'
loop_
_space_group_symop_operation_xyz
x,y,z
-x,-y,z
x,-y,1/2-z
-x,y,1/2-z
-x,-y,-z
x,y,-z
-x,y,1/2+z
x,-y,1/2+z
1/2+x,1/2+y,1/2+z
1/2-x,1/2-y,1/2+z
1/2+x,1/2-y,-z
1/2-x,1/2+y,-z
1/2-x,1/2-y,1/2-z
1/2+x,1/2+y,1/2-z
1/2-x,1/2+y,z
1/2+x,1/2-y,z
loop_
_atom_site_type_symbol
_atom_site_label
_atom_site_fract_x
_atom_site_fract_y
_atom_site_fract_z
Si Si1 0.939309 0.047832 0.670301
Si Si2 0.759612 0.146956 0.158139
Si Si3 0.557539 0.737966 0.662741
Si Si4 0.500000 0.000000 0.750000
Si Si5 0.632013 0.172712 0.833582
Si Si6 0.369973 0.355503 0.339633
Si Si7 0.901376 0.429166 0.659528
Si Si8 0.778695 0.540111 0.156521
O O1 0.947944 0.040453 0.500000
O O2 0.894531 0.091616 0.700894
O O3 0.000000 0.060390 0.750000
O O4 0.913946 0.000000 0.750000
O O5 0.699042 0.168414 0.222057
O O6 0.814471 0.162398 0.251142
O O7 0.758075 0.088924 0.160786
O O8 0.769808 0.165804 0.000000
O O9 0.500000 0.746925 0.750000
O O10 0.543782 0.747383 0.500000
O O11 0.604368 0.777303 0.720799
O O12 0.579350 0.683577 0.688654
O O13 0.541157 0.036785 0.835892
O O14 0.592406 0.126104 0.780434
O O15 0.635169 0.172788 0.000000
O O16 0.349735 0.354603 0.500000
O O17 0.882956 0.422008 0.500000
O O18 0.843596 0.453011 0.727755
O O19 0.745464 0.500000 0.250000
O O20 0.782927 0.519352 0.000000
#
# Coordination Sequence:
#
# PCOD8294038 Si02
#       8
#    16  16  16   4  16  16  16  16
#     4  10  20  35  55  80 112 146 180 219 267 322
#     4   9  19  35  56  77 102 142 184 220 265 323
#     4  10  21  38  60  83 110 143 177 218 270 321
#     4  12  18  24  48  74 100 140 182 220 262 308
#     4   8  17  36  56  74 104 143 180 221 270 320
#     4  10  22  37  54  82 115 141 172 222 273 317
#     4   9  18  30  44  69 103 137 175 217 263 314
#     4   9  17  32  49  69  99 136 176 217 263 310
#
# _framework density 19.363212000000001
#
# number of rings (size 3 to 8) (size 9 to 14) (size 15 to 20)
#    0.000    2.621    0.690    3.103    0.966    3.310 
#    0.000    3.448    0.000    0.828    0.000    0.000 
#    0.000    0.000    0.000    0.000    0.000    0.000 
#
# Total GULP energy -718551.486063 kJ/mol
# GULP energy per Si atom -12388.818725 kJ/mol
# Density = 1.931914 g / cm^3
# Si number density = 19.363212 Si / 1000 Ang^3
#
#
#
# Elastic Constant Matrix: (Units=GPa)
#
#
# Indices 1 2 3 4 5 6 
#
# 1 98.4137 40.8937 40.3509 0.0000 0.0000 0.0000
# 2 40.8937 106.6971 38.0312 0.0000 0.0000 0.0000
# 3 40.3509 38.0312 67.4786 0.0000 0.0000 0.0000
# 4 0.0000 0.0000 0.0000 21.9858 0.0000 0.0000
# 5 0.0000 0.0000 0.0000 0.0000 25.8060 0.0000
# 6 0.0000 0.0000 0.0000 0.0000 0.0000 16.5412
#
#
#
# Elastic Compliance Matrix: (Units=1/GPa)
#
#
# Indices 1 2 3 4 5 6 
#
# 1 0.014200 -0.003023 -0.006788 0.000000 0.000000 0.000000
# 2 -0.003023 0.012372 -0.005165 0.000000 0.000000 0.000000
# 3 -0.006788 -0.005165 0.021790 0.000000 0.000000 0.000000
# 4 0.000000 0.000000 0.000000 0.045484 0.000000 0.000000
# 5 0.000000 0.000000 0.000000 0.000000 0.038751 0.000000
# 6 0.000000 0.000000 0.000000 0.000000 0.000000 0.060455
#
#
# Mechanical properties :
#
#
# Convention : Reuss Voigt Hill
#
# Bulk Modulus (GPa) = 54.31836 56.79343 55.55590
# Shear Modulus (GPa) = 21.82066 23.08750 22.45408
#
# Velocity S-wave (km/s) = 3.36059 3.45677 3.40902
# Velocity P-wave (km/s) = 6.57049 6.73250 6.65199
#
# Compressibility (1/GPa) = 0.01840998
#
# Stress axis : x y z
#
# Youngs Moduli (GPa) = 70.42028 80.82715 45.89353
#
# Poissons Ratio (x) = 0.24435 0.31151
# Poissons Ratio (y) = 0.21289 0.23705
# Poissons Ratio (z) = 0.47799 0.41749
#
# Static dielectric constant tensor:
#      x y z
#    x 3.370760 0.000000 0.000000 
#    y 0.000000 3.738570 0.000000 
#    z 0.000000 0.000000 3.318790 
# 
# 
# High freq. dielectric constant tensor:
#      x y z
#    x 1.745320 0.000000 0.000000 
#    y 0.000000 1.763610 0.000000 
#    z 0.000000 0.000000 1.725510 
# 
# From -- ./inp_files/7307.got.cif
#   From: 2010.03.12/outbox.cif.g09.slc.cpg/sg72_4_cif.got.tgz:7307.got - 2010.04.16 14:54:00.
