data_PCOD8294774
_publ_section_title
;
Structure prediction by ZEFSAII (Michael W. Deem and Ramdas Pophale) SiO2 
 PCOD8294774
Probable space group: I B A M
;
_chemical_formula_sum "Si O2"
_cell_formula_units_Z 116
_cell_length_a 16.527706
_cell_length_b 18.604942
_cell_length_c 18.148890
_cell_angle_alpha 90.000000
_cell_angle_beta 90.000000
_cell_angle_gamma 90.000000
_cell_volume 5580.729437
_symmetry_space_group_name_H-M "I B A M"
_symmetry_group_IT_number 72
_symmetry_cell_setting 'orthorhombic'
loop_
_space_group_symop_operation_xyz
x,y,z
-x,-y,z
x,-y,1/2-z
-x,y,1/2-z
-x,-y,-z
x,y,-z
-x,y,1/2+z
x,-y,1/2+z
1/2+x,1/2+y,1/2+z
1/2-x,1/2-y,1/2+z
1/2+x,1/2-y,-z
1/2-x,1/2+y,-z
1/2-x,1/2-y,1/2-z
1/2+x,1/2+y,1/2-z
1/2-x,1/2+y,z
1/2+x,1/2-y,z
loop_
_atom_site_type_symbol
_atom_site_label
_atom_site_fract_x
_atom_site_fract_y
_atom_site_fract_z
Si Si1 0.070380 0.354923 0.418640
Si Si2 0.892757 0.356315 0.589861
Si Si3 0.944835 0.813450 0.420009
Si Si4 0.759821 0.405799 0.086829
Si Si5 0.374396 0.614646 0.288623
Si Si6 0.217093 0.463541 0.820364
Si Si7 0.119394 0.195266 0.861220
Si Si8 0.000000 0.000000 0.250000
O O1 0.072973 0.387975 0.500000
O O2 0.151442 0.384159 0.379157
O O3 0.983953 0.377437 0.384118
O O4 0.072070 0.270050 0.421531
O O5 0.884781 0.352330 0.500000
O O6 0.839290 0.418362 0.625436
O O7 0.867788 0.280417 0.626711
O O8 0.928606 0.847470 0.500000
O O9 0.037241 0.830823 0.399414
O O10 0.878549 0.844956 0.365695
O O11 0.736015 0.478824 0.128407
O O12 0.695314 0.343865 0.102331
O O13 0.763188 0.418978 0.000000
O O14 0.284612 0.584529 0.279965
O O15 0.390101 0.672712 0.224166
O O16 0.441114 0.551627 0.296256
O O17 0.170636 0.500000 0.750000
#
# Coordination Sequence:
#
# PCOD8294774 Si02
#       8
#    16  16  16  16  16  16  16   4
#     4   8  19  40  65  95 126 159 209 271 330 379
#     4  10  23  44  70  98 131 168 219 284 332 380
#     4  10  21  39  65  99 129 163 221 274 322 390
#     4  11  22  40  67  93 126 172 222 267 323 396
#     4  12  24  41  66  89 134 179 214 263 331 398
#     4  12  26  43  59  93 135 176 220 264 325 394
#     4  11  21  42  69  97 129 169 217 274 338 391
#     4  12  20  44  62  88 132 186 208 252 336 396
#
# _framework density 20.785813000000001
#
# number of rings (size 3 to 8) (size 9 to 14) (size 15 to 20)
#    0.000    1.379    3.448    2.483    1.931    3.310 
#    0.000    5.172    0.000    0.000    0.000    0.000 
#    0.000    0.000    0.000    0.000    0.000    0.000 
#
# Total GULP energy -718782.175647 kJ/mol
# GULP energy per Si atom -12392.796132 kJ/mol
# Density = 2.073850 g / cm^3
# Si number density = 20.785813 Si / 1000 Ang^3
#
#
#
# Elastic Constant Matrix: (Units=GPa)
#
#
# Indices 1 2 3 4 5 6 
#
# 1 66.8284 40.0839 28.5776 0.0000 0.0000 0.0000
# 2 40.0839 62.5266 47.1194 0.0000 0.0000 0.0000
# 3 28.5776 47.1194 136.4790 0.0000 0.0000 0.0000
# 4 0.0000 0.0000 0.0000 30.9854 0.0000 0.0000
# 5 0.0000 0.0000 0.0000 0.0000 28.7188 0.0000
# 6 0.0000 0.0000 0.0000 0.0000 0.0000 26.7884
#
#
#
# Elastic Compliance Matrix: (Units=1/GPa)
#
#
# Indices 1 2 3 4 5 6 
#
# 1 0.024328 -0.015892 0.000393 0.000000 0.000000 0.000000
# 2 -0.015892 0.031998 -0.007720 0.000000 0.000000 0.000000
# 3 0.000393 -0.007720 0.009910 0.000000 0.000000 0.000000
# 4 0.000000 0.000000 0.000000 0.032273 0.000000 0.000000
# 5 0.000000 0.000000 0.000000 0.000000 0.034820 0.000000
# 6 0.000000 0.000000 0.000000 0.000000 0.000000 0.037330
#
#
# Mechanical properties :
#
#
# Convention : Reuss Voigt Hill
#
# Bulk Modulus (GPa) = 50.50882 55.26617 52.88750
# Shear Modulus (GPa) = 22.35170 27.30208 24.82689
#
# Velocity S-wave (km/s) = 3.28279 3.62815 3.45978
# Velocity P-wave (km/s) = 6.22265 6.64811 6.43890
#
# Compressibility (1/GPa) = 0.01979852
#
# Stress axis : x y z
#
# Youngs Moduli (GPa) = 41.10554 31.25155 100.90573
#
# Poissons Ratio (x) = 0.49663 -0.03961
# Poissons Ratio (y) = 0.65323 0.77898
# Poissons Ratio (z) = -0.01614 0.24126
#
# Static dielectric constant tensor:
#      x y z
#    x 3.935530 0.000000 0.000000 
#    y 0.000000 3.800840 0.000000 
#    z 0.000000 0.000000 3.856400 
# 
# 
# High freq. dielectric constant tensor:
#      x y z
#    x 1.818770 0.000000 0.000000 
#    y 0.000000 1.810870 0.000000 
#    z 0.000000 0.000000 1.811840 
# 
# From -- ./inp_files/31743.got.cif
#   From: 2010.03.12/outbox.cif.g09.slc.cpg/sg72_16_cif.got.tgz:31743.got - 2010.04.16 14:54:00.
