data_PCOD8294118
_publ_section_title
;
Structure prediction by ZEFSAII (Michael W. Deem and Ramdas Pophale) SiO2 
 PCOD8294118
Probable space group: I B A M
;
_chemical_formula_sum "Si O2"
_cell_formula_units_Z 96
_cell_length_a 10.479981
_cell_length_b 24.398469
_cell_length_c 16.727833
_cell_angle_alpha 90.000000
_cell_angle_beta 90.000000
_cell_angle_gamma 90.000000
_cell_volume 4277.231481
_symmetry_space_group_name_H-M "I B A M"
_symmetry_group_IT_number 72
_symmetry_cell_setting 'orthorhombic'
loop_
_space_group_symop_operation_xyz
x,y,z
-x,-y,z
x,-y,1/2-z
-x,y,1/2-z
-x,-y,-z
x,y,-z
-x,y,1/2+z
x,-y,1/2+z
1/2+x,1/2+y,1/2+z
1/2-x,1/2-y,1/2+z
1/2+x,1/2-y,-z
1/2-x,1/2+y,-z
1/2-x,1/2-y,1/2-z
1/2+x,1/2+y,1/2-z
1/2-x,1/2+y,z
1/2+x,1/2-y,z
loop_
_atom_site_type_symbol
_atom_site_label
_atom_site_fract_x
_atom_site_fract_y
_atom_site_fract_z
Si Si1 0.211947 0.690446 0.909066
Si Si2 0.077761 0.422639 0.591227
Si Si3 0.795191 0.947423 0.801818
Si Si4 0.547394 0.374754 0.905568
Si Si5 0.794709 0.810298 0.405718
Si Si6 0.884860 0.621330 0.805882
O O1 0.109637 0.642239 0.898263
O O2 0.349467 0.670470 0.877844
O O3 0.172123 0.749264 0.871405
O O4 0.230627 0.705236 0.000000
O O5 0.061607 0.440973 0.500000
O O6 0.187827 0.460292 0.630318
O O7 0.943654 0.428049 0.638588
O O8 0.923064 0.927241 0.848574
O O9 0.733414 0.901260 0.745022
O O10 0.832199 0.000000 0.750000
O O11 0.408748 0.352015 0.885431
O O12 0.563583 0.390023 0.000000
O O13 0.767517 0.811524 0.500000
O O14 0.667112 0.829866 0.361078
O O15 0.000000 0.643684 0.750000
#
# Coordination Sequence:
#
# PCOD8294118 Si02
#       6
#    16  16  16  16  16  16
#     4   8  16  31  58  88 113 153 199 246 302 350
#     4   9  18  36  61  88 119 154 204 257 293 355
#     4  10  21  40  62  82 117 166 201 245 316 375
#     4   9  19  38  62  91 120 155 210 260 296 359
#     4  10  20  35  61  90 121 159 204 253 299 353
#     4  10  22  37  55  84 125 160 199 248 303 366
#
# _framework density 22.444424000000001
#
# number of rings (size 3 to 8) (size 9 to 14) (size 15 to 20)
#    0.000    2.667    0.000    2.000    2.333    3.667 
#    0.000   13.333    0.000    2.000    0.000    0.000 
#    0.000    0.000    0.000    0.000    0.000    0.000 
#
# Total GULP energy -594666.925314 kJ/mol
# GULP energy per Si atom -12388.894277 kJ/mol
# Density = 2.239334 g / cm^3
# Si number density = 22.444424 Si / 1000 Ang^3
#
#
#
# Elastic Constant Matrix: (Units=GPa)
#
#
# Indices 1 2 3 4 5 6 
#
# 1 81.6099 40.2561 42.4957 0.0000 0.0000 0.0000
# 2 40.2561 100.0673 42.0366 0.0000 0.0000 0.0000
# 3 42.4957 42.0366 118.0430 0.0004 0.0000 0.0000
# 4 0.0000 0.0000 0.0004 31.5420 0.0000 0.0000
# 5 0.0000 0.0000 0.0000 0.0000 35.3088 0.0000
# 6 0.0000 0.0000 0.0000 0.0000 0.0000 17.8436
#
#
#
# Elastic Compliance Matrix: (Units=1/GPa)
#
#
# Indices 1 2 3 4 5 6 
#
# 1 0.016980 -0.005013 -0.004328 0.000000 0.000000 0.000000
# 2 -0.005013 0.013231 -0.002907 0.000000 0.000000 0.000000
# 3 -0.004328 -0.002907 0.011065 0.000000 0.000000 0.000000
# 4 0.000000 0.000000 0.000000 0.031704 0.000000 0.000000
# 5 0.000000 0.000000 0.000000 0.000000 0.028322 0.000000
# 6 0.000000 0.000000 0.000000 0.000000 0.000000 0.056042
#
#
# Mechanical properties :
#
#
# Convention : Reuss Voigt Hill
#
# Bulk Modulus (GPa) = 59.59345 61.03301 60.31323
# Shear Modulus (GPa) = 26.67641 28.60100 27.63870
#
# Velocity S-wave (km/s) = 3.45128 3.57361 3.51298
# Velocity P-wave (km/s) = 6.51851 6.65429 6.58675
#
# Compressibility (1/GPa) = 0.01678037
#
# Stress axis : x y z
#
# Youngs Moduli (GPa) = 58.89445 75.57940 90.37755
#
# Poissons Ratio (x) = 0.37886 0.39111
# Poissons Ratio (y) = 0.29522 0.26274
# Poissons Ratio (z) = 0.25487 0.21972
#
# Static dielectric constant tensor:
#      x y z
#    x 3.922790 0.000000 0.000000 
#    y 0.000000 4.026920 0.000000 
#    z 0.000000 0.000000 4.299410 
# 
# 
# High freq. dielectric constant tensor:
#      x y z
#    x 1.877390 0.000000 0.000000 
#    y 0.000000 1.854190 0.000000 
#    z 0.000000 0.000000 1.893060 
# 
# From -- ./inp_files/29490.got.cif
#   From: 2010.03.12/outbox.cif.g09.slc.cpg/sg72_15_cif.got.tgz:29490.got - 2010.04.16 14:54:00.
