data_PCOD8294745
_publ_section_title
;
Structure prediction by ZEFSAII (Michael W. Deem and Ramdas Pophale) SiO2 
 PCOD8294745
Probable space group: I B A M
;
_chemical_formula_sum "Si O2"
_cell_formula_units_Z 96
_cell_length_a 11.323886
_cell_length_b 18.126348
_cell_length_c 22.902511
_cell_angle_alpha 90.000000
_cell_angle_beta 90.000000
_cell_angle_gamma 90.000000
_cell_volume 4700.985402
_symmetry_space_group_name_H-M "I B A M"
_symmetry_group_IT_number 72
_symmetry_cell_setting 'orthorhombic'
loop_
_space_group_symop_operation_xyz
x,y,z
-x,-y,z
x,-y,1/2-z
-x,y,1/2-z
-x,-y,-z
x,y,-z
-x,y,1/2+z
x,-y,1/2+z
1/2+x,1/2+y,1/2+z
1/2-x,1/2-y,1/2+z
1/2+x,1/2-y,-z
1/2-x,1/2+y,-z
1/2-x,1/2-y,1/2-z
1/2+x,1/2+y,1/2-z
1/2-x,1/2+y,z
1/2+x,1/2-y,z
loop_
_atom_site_type_symbol
_atom_site_label
_atom_site_fract_x
_atom_site_fract_y
_atom_site_fract_z
Si Si1 0.884303 0.833445 0.638926
Si Si2 0.670155 0.862191 0.435588
Si Si3 0.386343 0.695448 0.932583
Si Si4 0.764678 0.913283 0.737294
Si Si5 0.306330 0.826864 0.343590
Si Si6 0.039798 0.420329 0.165348
O O1 0.804840 0.852497 0.583226
O O2 0.867230 0.893869 0.690374
O O3 0.840075 0.757665 0.668911
O O4 0.014838 0.834353 0.612122
O O5 0.668445 0.894712 0.500000
O O6 0.603084 0.783871 0.431384
O O7 0.606497 0.923536 0.396423
O O8 0.261120 0.667899 0.906096
O O9 0.398149 0.667287 0.000000
O O10 0.779897 0.862577 0.794699
O O11 0.633644 0.891317 0.713186
O O12 0.775132 0.000000 0.750000
O O13 0.428039 0.869679 0.343617
O O14 0.000000 0.500000 0.185895
#
# Coordination Sequence:
#
# PCOD8294745 Si02
#       6
#    16  16  16  16  16  16
#     4  10  21  39  62  92 124 163 209 253 303 365
#     4   9  19  35  59  89 121 161 205 250 305 362
#     4  10  21  39  62  88 122 161 205 260 304 354
#     4  11  23  40  64  89 125 163 202 252 309 372
#     4  11  22  38  61  97 123 158 211 250 309 368
#     4  11  21  37  63  91 125 159 199 254 312 368
#
# _framework density 20.421250000000001
#
# number of rings (size 3 to 8) (size 9 to 14) (size 15 to 20)
#    0.000    1.667    3.333    1.500    0.000    2.333 
#    3.000    1.667    0.000    1.000    0.000    0.000 
#    0.000    0.000    0.000    0.000    0.000    0.000 
#
# Total GULP energy -594972.458132 kJ/mol
# GULP energy per Si atom -12395.259544 kJ/mol
# Density = 2.037477 g / cm^3
# Si number density = 20.421250 Si / 1000 Ang^3
#
#
#
# Elastic Constant Matrix: (Units=GPa)
#
#
# Indices 1 2 3 4 5 6 
#
# 1 69.8201 22.4970 32.0572 0.0000 0.0000 0.0000
# 2 22.4970 62.6323 42.3622 0.0000 0.0000 0.0000
# 3 32.0572 42.3622 126.6564 0.0000 0.0000 0.0000
# 4 0.0000 0.0000 0.0000 26.0782 0.0000 0.0000
# 5 0.0000 0.0000 0.0000 0.0000 48.3554 0.0000
# 6 0.0000 0.0000 0.0000 0.0000 0.0000 27.9327
#
#
#
# Elastic Compliance Matrix: (Units=1/GPa)
#
#
# Indices 1 2 3 4 5 6 
#
# 1 0.016994 -0.004129 -0.002920 0.000000 0.000000 0.000000
# 2 -0.004129 0.021637 -0.006192 0.000000 0.000000 0.000000
# 3 -0.002920 -0.006192 0.010705 0.000000 0.000000 0.000000
# 4 0.000000 0.000000 0.000000 0.038346 0.000000 0.000000
# 5 0.000000 0.000000 0.000000 0.000000 0.020680 0.000000
# 6 0.000000 0.000000 0.000000 0.000000 0.000000 0.035800
#
#
# Mechanical properties :
#
#
# Convention : Reuss Voigt Hill
#
# Bulk Modulus (GPa) = 43.75511 50.32683 47.04097
# Shear Modulus (GPa) = 28.04842 31.28609 29.66726
#
# Velocity S-wave (km/s) = 3.71009 3.91837 3.81565
# Velocity P-wave (km/s) = 6.31077 6.72081 6.51901
#
# Compressibility (1/GPa) = 0.02285447
#
# Stress axis : x y z
#
# Youngs Moduli (GPa) = 58.84545 46.21667 93.41030
#
# Poissons Ratio (x) = 0.19082 0.27278
# Poissons Ratio (y) = 0.24297 0.57838
# Poissons Ratio (z) = 0.17184 0.28617
#
# Static dielectric constant tensor:
#      x y z
#    x 3.537080 0.000000 0.000000 
#    y 0.000000 43.992260 0.000000 
#    z 0.000000 0.000000 3.913060 
# 
# 
# High freq. dielectric constant tensor:
#      x y z
#    x 1.797710 0.000000 0.000000 
#    y 0.000000 1.772450 0.000000 
#    z 0.000000 0.000000 1.809670 
# 
# From -- ./inp_files/43368.got.cif
#   From: 2010.03.12/outbox.cif.g09.slc.cpg/sg72_22_cif.got.tgz:43368.got - 2010.04.16 14:54:00.
