data_PCOD8294162
_publ_section_title
;
Structure prediction by ZEFSAII (Michael W. Deem and Ramdas Pophale) SiO2 
 PCOD8294162
Probable space group: I B A M
;
_chemical_formula_sum "Si O2"
_cell_formula_units_Z 116
_cell_length_a 25.923758
_cell_length_b 8.817802
_cell_length_c 23.041310
_cell_angle_alpha 90.000000
_cell_angle_beta 90.000000
_cell_angle_gamma 90.000000
_cell_volume 5267.026074
_symmetry_space_group_name_H-M "I B A M"
_symmetry_group_IT_number 72
_symmetry_cell_setting 'orthorhombic'
loop_
_space_group_symop_operation_xyz
x,y,z
-x,-y,z
x,-y,1/2-z
-x,y,1/2-z
-x,-y,-z
x,y,-z
-x,y,1/2+z
x,-y,1/2+z
1/2+x,1/2+y,1/2+z
1/2-x,1/2-y,1/2+z
1/2+x,1/2-y,-z
1/2-x,1/2+y,-z
1/2-x,1/2-y,1/2-z
1/2+x,1/2+y,1/2-z
1/2-x,1/2+y,z
1/2+x,1/2-y,z
loop_
_atom_site_type_symbol
_atom_site_label
_atom_site_fract_x
_atom_site_fract_y
_atom_site_fract_z
Si Si1 0.761117 0.709834 0.139969
Si Si2 0.545956 0.113346 0.066998
Si Si3 0.227974 0.453966 0.436799
Si Si4 0.652810 0.171360 0.770729
Si Si5 0.882687 0.653706 0.437473
Si Si6 0.424572 0.664127 0.837513
Si Si7 0.500000 0.500000 0.250000
Si Si8 0.643197 0.632926 0.841607
O O1 0.789448 0.614085 0.089637
O O2 0.762884 0.878530 0.113590
O O3 0.791570 0.709103 0.200683
O O4 0.703794 0.640267 0.145223
O O5 0.547825 0.270807 0.104212
O O6 0.500000 0.000000 0.086478
O O7 0.597424 0.014677 0.077110
O O8 0.539328 0.163433 0.000000
O O9 0.255624 0.473011 0.500000
O O10 0.178439 0.350316 0.445243
O O11 0.605811 0.187100 0.815304
O O12 0.638237 0.292191 0.721397
O O13 0.655986 0.000000 0.750000
O O14 0.906755 0.707197 0.500000
O O15 0.893249 0.773100 0.386360
O O16 0.466679 0.607474 0.791649
O O17 0.380361 0.535659 0.845755
#
# Coordination Sequence:
#
# PCOD8294162 Si02
#       8
#    16  16  16  16  16  16   4  16
#     4  11  22  37  61  93 126 174 218 272 336 399
#     4  10  23  44  71 101 128 167 226 284 343 413
#     4  10  20  36  57  85 124 167 215 268 326 398
#     4  12  24  42  64  92 130 177 229 276 336 408
#     4   9  20  40  63  90 126 166 214 273 330 395
#     4  12  26  45  69  96 138 174 224 283 344 409
#     4  12  28  48  64  96 132 176 214 278 336 406
#     4  11  23  41  63  94 134 172 222 275 338 410
#
# _framework density 22.023813000000001
#
# number of rings (size 3 to 8) (size 9 to 14) (size 15 to 20)
#    0.000    1.241    1.379    4.966    1.931    3.310 
#    0.000    3.793    0.000    0.000    0.000    0.000 
#    0.000    0.000    0.000    0.000    0.000    0.000 
#
# Total GULP energy -718560.260165 kJ/mol
# GULP energy per Si atom -12388.970003 kJ/mol
# Density = 2.197369 g / cm^3
# Si number density = 22.023813 Si / 1000 Ang^3
#
#
#
# Elastic Constant Matrix: (Units=GPa)
#
#
# Indices 1 2 3 4 5 6 
#
# 1 80.1705 30.7928 46.3176 0.0000 0.0000 0.0000
# 2 30.7928 96.9326 70.3410 0.0000 0.0000 0.0000
# 3 46.3176 70.3410 144.8979 0.0000 0.0000 0.0000
# 4 0.0000 0.0000 0.0000 40.0346 0.0000 0.0000
# 5 0.0000 0.0000 0.0000 0.0000 18.3706 0.0000
# 6 0.0000 0.0000 0.0000 0.0000 0.0000 30.6060
#
#
#
# Elastic Compliance Matrix: (Units=1/GPa)
#
#
# Indices 1 2 3 4 5 6 
#
# 1 0.015560 -0.002059 -0.003974 0.000000 0.000000 0.000000
# 2 -0.002059 0.016200 -0.007206 0.000000 0.000000 0.000000
# 3 -0.003974 -0.007206 0.011670 0.000000 0.000000 0.000000
# 4 0.000000 0.000000 0.000000 0.024978 0.000000 0.000000
# 5 0.000000 0.000000 0.000000 0.000000 0.054435 0.000000
# 6 0.000000 0.000000 0.000000 0.000000 0.000000 0.032673
#
#
# Mechanical properties :
#
#
# Convention : Reuss Voigt Hill
#
# Bulk Modulus (GPa) = 58.99251 68.54486 63.76869
# Shear Modulus (GPa) = 26.64591 29.43889 28.04240
#
# Velocity S-wave (km/s) = 3.48209 3.66004 3.57217
# Velocity P-wave (km/s) = 6.55824 7.00370 6.78463
#
# Compressibility (1/GPa) = 0.01695130
#
# Stress axis : x y z
#
# Youngs Moduli (GPa) = 64.26541 61.72945 85.68930
#
# Poissons Ratio (x) = 0.12710 0.34057
# Poissons Ratio (y) = 0.13232 0.61748
# Poissons Ratio (z) = 0.25542 0.44482
#
# Static dielectric constant tensor:
#      x y z
#    x 3.870880 0.000000 0.000000 
#    y 0.000000 3.855950 0.000000 
#    z 0.000000 0.000000 4.413170 
# 
# 
# High freq. dielectric constant tensor:
#      x y z
#    x 1.854240 0.000000 0.000000 
#    y 0.000000 1.862730 0.000000 
#    z 0.000000 0.000000 1.882430 
# 
# From -- ./inp_files/46010.got.cif
#   From: 2010.03.12/outbox.cif.g09.slc.cpg/sg72_24_cif.got.tgz:46010.got - 2010.04.16 14:54:00.
