data_PCOD8294678
_publ_section_title
;
Structure prediction by ZEFSAII (Michael W. Deem and Ramdas Pophale) SiO2 
 PCOD8294678
Probable space group: I B A M
;
_chemical_formula_sum "Si O2"
_cell_formula_units_Z 72
_cell_length_a 5.078532
_cell_length_b 24.116095
_cell_length_c 26.139660
_cell_angle_alpha 90.000000
_cell_angle_beta 90.000000
_cell_angle_gamma 90.000000
_cell_volume 3201.438134
_symmetry_space_group_name_H-M "I B A M"
_symmetry_group_IT_number 72
_symmetry_cell_setting 'orthorhombic'
loop_
_space_group_symop_operation_xyz
x,y,z
-x,-y,z
x,-y,1/2-z
-x,y,1/2-z
-x,-y,-z
x,y,-z
-x,y,1/2+z
x,-y,1/2+z
1/2+x,1/2+y,1/2+z
1/2-x,1/2-y,1/2+z
1/2+x,1/2-y,-z
1/2-x,1/2+y,-z
1/2-x,1/2-y,1/2-z
1/2+x,1/2+y,1/2-z
1/2-x,1/2+y,z
1/2+x,1/2-y,z
loop_
_atom_site_type_symbol
_atom_site_label
_atom_site_fract_x
_atom_site_fract_y
_atom_site_fract_z
Si Si1 0.129999 0.595508 0.617679
Si Si2 0.101409 0.716896 0.500000
Si Si3 0.251907 0.938543 0.773390
Si Si4 0.993051 0.713017 0.888853
Si Si5 0.389247 0.561626 0.941182
O O1 0.232743 0.558710 0.665226
O O2 0.052983 0.656069 0.641818
O O3 0.379396 0.601875 0.579392
O O4 0.879987 0.566782 0.590834
O O5 0.414600 0.727798 0.500000
O O6 0.019651 0.687476 0.552918
O O7 0.500000 0.905833 0.750000
O O8 0.000000 0.906571 0.750000
O O9 0.248538 0.000000 0.750000
O O10 0.774855 0.759819 0.877544
O O11 0.500000 0.500000 0.935577
O O12 0.328375 0.576795 0.000000
#
# Coordination Sequence:
#
# PCOD8294678 Si02
#       5
#    16   8  16  16  16
#     4  12  24  41  71  93 132 186 218 274 347 386
#     4   8  16  30  50  78 113 156 209 262 296 340
#     4  10  23  40  65  97 123 156 217 289 336 393
#     4  10  21  38  59  91 130 173 224 271 317 389
#     4  11  26  42  61  96 141 180 222 262 324 419
#
# _framework density 22.489892000000001
#
# number of rings (size 3 to 8) (size 9 to 14) (size 15 to 20)
#    0.000    1.556    0.000    4.000   12.444    1.778 
#    4.000    0.000    0.000    4.000    0.000    0.000 
#    0.000    0.000    0.000    0.000    0.000    0.000 
#
# Total GULP energy -446058.909101 kJ/mol
# GULP energy per Si atom -12390.525253 kJ/mol
# Density = 2.243870 g / cm^3
# Si number density = 22.489892 Si / 1000 Ang^3
#
#
#
# Elastic Constant Matrix: (Units=GPa)
#
#
# Indices 1 2 3 4 5 6 
#
# 1 185.3991 4.0430 63.9229 0.0000 0.0000 0.0000
# 2 4.0430 60.6662 29.9146 0.0000 0.0000 0.0000
# 3 63.9229 29.9146 123.6161 0.0000 0.0000 0.0000
# 4 0.0000 0.0000 0.0000 15.1946 0.0000 0.0000
# 5 0.0000 0.0000 0.0000 0.0000 41.2653 0.0000
# 6 0.0000 0.0000 0.0000 0.0000 0.0000 27.3532
#
#
#
# Elastic Compliance Matrix: (Units=1/GPa)
#
#
# Indices 1 2 3 4 5 6 
#
# 1 0.006671 0.001427 -0.003795 0.000000 0.000000 0.000000
# 2 0.001427 0.019022 -0.005341 0.000000 0.000000 0.000000
# 3 -0.003795 -0.005341 0.011344 0.000000 0.000000 0.000000
# 4 0.000000 0.000000 0.000000 0.065813 0.000000 0.000000
# 5 0.000000 0.000000 0.000000 0.000000 0.024233 0.000000
# 6 0.000000 0.000000 0.000000 0.000000 0.000000 0.036559
#
#
# Mechanical properties :
#
#
# Convention : Reuss Voigt Hill
#
# Bulk Modulus (GPa) = 46.25513 62.82693 54.54103
# Shear Modulus (GPa) = 26.84306 34.88268 30.86287
#
# Velocity S-wave (km/s) = 3.45854 3.94259 3.70848
# Velocity P-wave (km/s) = 6.04652 6.98009 6.53001
#
# Compressibility (1/GPa) = 0.02161922
#
# Stress axis : x y z
#
# Youngs Moduli (GPa) = 149.90038 52.56997 88.14864
#
# Poissons Ratio (x) = -0.07500 0.33452
# Poissons Ratio (y) = -0.21386 0.47081
# Poissons Ratio (z) = 0.56886 0.28078
#
# Static dielectric constant tensor:
#      x y z
#    x 2.940010 0.000000 0.000000 
#    y 0.000000 3.659930 0.000000 
#    z 0.000000 0.000000 3.934800 
# 
# 
# High freq. dielectric constant tensor:
#      x y z
#    x 1.919130 0.000000 0.000000 
#    y 0.000000 1.854880 0.000000 
#    z 0.000000 0.000000 1.862840 
# 
# From -- ./inp_files/46636.got.cif
#   From: 2010.03.12/outbox.cif.g09.slc.cpg/sg72_24_cif.got.tgz:46636.got - 2010.04.16 14:54:00.
