data_PCOD8294307
_publ_section_title
;
Structure prediction by ZEFSAII (Michael W. Deem and Ramdas Pophale) SiO2 
 PCOD8294307
Probable space group: I B A M
;
_chemical_formula_sum "Si O2"
_cell_formula_units_Z 96
_cell_length_a 13.736140
_cell_length_b 21.626140
_cell_length_c 15.062537
_cell_angle_alpha 90.000000
_cell_angle_beta 90.000000
_cell_angle_gamma 90.000000
_cell_volume 4474.472522
_symmetry_space_group_name_H-M "I B A M"
_symmetry_group_IT_number 72
_symmetry_cell_setting 'orthorhombic'
loop_
_space_group_symop_operation_xyz
x,y,z
-x,-y,z
x,-y,1/2-z
-x,y,1/2-z
-x,-y,-z
x,y,-z
-x,y,1/2+z
x,-y,1/2+z
1/2+x,1/2+y,1/2+z
1/2-x,1/2-y,1/2+z
1/2+x,1/2-y,-z
1/2-x,1/2+y,-z
1/2-x,1/2-y,1/2-z
1/2+x,1/2+y,1/2-z
1/2-x,1/2+y,z
1/2+x,1/2-y,z
loop_
_atom_site_type_symbol
_atom_site_label
_atom_site_fract_x
_atom_site_fract_y
_atom_site_fract_z
Si Si1 0.340638 0.354998 0.902597
Si Si2 0.543479 0.672218 0.659870
Si Si3 0.852597 0.460940 0.105699
Si Si4 0.845863 0.287965 0.399569
Si Si5 0.171537 0.932459 0.272022
Si Si6 0.440810 0.089036 0.604893
O O1 0.453107 0.333687 0.907371
O O2 0.270831 0.295220 0.889161
O O3 0.312960 0.401675 0.824377
O O4 0.316564 0.384801 0.000000
O O5 0.500000 0.698379 0.750000
O O6 0.626306 0.720957 0.636011
O O7 0.590754 0.604756 0.672366
O O8 0.766700 0.434564 0.166481
O O9 0.874131 0.531359 0.136830
O O10 0.946728 0.419910 0.131214
O O11 0.828345 0.455976 0.000000
O O12 0.880748 0.288567 0.500000
O O13 0.900487 0.346716 0.353443
O O14 0.130238 0.000000 0.250000
O O15 0.431888 0.088818 0.500000
#
# Coordination Sequence:
#
# PCOD8294307 Si02
#       6
#    16  16  16  16  16  16
#     4  10  23  43  63  85 119 160 198 243 300 360
#     4  10  24  41  59  85 118 153 200 255 301 355
#     4   9  18  35  61  93 127 160 200 253 307 359
#     4  10  20  37  62  88 118 158 198 240 300 369
#     4  11  24  41  61  89 121 156 204 255 299 354
#     4   8  16  33  58  91 128 162 198 244 303 370
#
# _framework density 21.455041999999999
#
# number of rings (size 3 to 8) (size 9 to 14) (size 15 to 20)
#    0.000    2.333    0.000    2.500    0.000   11.667 
#    0.000    9.167    0.000    0.000    0.000    2.333 
#    0.000    0.000    0.000    0.000    0.000    0.000 
#
# Total GULP energy -594780.022187 kJ/mol
# GULP energy per Si atom -12391.250462 kJ/mol
# Density = 2.140621 g / cm^3
# Si number density = 21.455042 Si / 1000 Ang^3
#
#
#
# Elastic Constant Matrix: (Units=GPa)
#
#
# Indices 1 2 3 4 5 6 
#
# 1 152.3910 79.0615 55.4713 0.0001 0.0000 0.0000
# 2 79.0615 134.6504 42.7508 -0.0008 -0.0001 0.0000
# 3 55.4713 42.7508 85.2205 -0.0011 -0.0001 0.0001
# 4 0.0001 -0.0008 -0.0011 15.8135 -0.0001 0.0000
# 5 0.0000 -0.0001 -0.0001 -0.0001 31.0952 0.0000
# 6 0.0000 0.0000 0.0001 0.0000 0.0000 35.7938
#
#
#
# Elastic Compliance Matrix: (Units=1/GPa)
#
#
# Indices 1 2 3 4 5 6 
#
# 1 0.010742 -0.004861 -0.004553 -0.000001 0.000000 0.000000
# 2 -0.004861 0.011034 -0.002371 0.000000 0.000000 0.000000
# 3 -0.004553 -0.002371 0.015887 0.000001 0.000000 0.000000
# 4 -0.000001 0.000000 0.000001 0.063237 0.000000 0.000000
# 5 0.000000 0.000000 0.000000 0.000000 0.032159 0.000000
# 6 0.000000 0.000000 0.000000 0.000000 0.000000 0.027938
#
#
# Mechanical properties :
#
#
# Convention : Reuss Voigt Hill
#
# Bulk Modulus (GPa) = 70.96198 80.75879 75.86039
# Shear Modulus (GPa) = 26.41802 29.53905 27.97854
#
# Velocity S-wave (km/s) = 3.51282 3.71454 3.61509
# Velocity P-wave (km/s) = 7.04271 7.49131 7.27047
#
# Compressibility (1/GPa) = 0.01409205
#
# Stress axis : x y z
#
# Youngs Moduli (GPa) = 93.09615 90.63081 62.94373
#
# Poissons Ratio (x) = 0.44060 0.28659
# Poissons Ratio (y) = 0.45258 0.14922
# Poissons Ratio (z) = 0.42388 0.21486
#
# Static dielectric constant tensor:
#      x y z
#    x 4.098540 0.000000 0.000000 
#    y 0.000000 3.950950 0.000000 
#    z 0.000000 0.000000 3.868180 
# 
# 
# High freq. dielectric constant tensor:
#      x y z
#    x 1.851280 0.000000 0.000000 
#    y 0.000000 1.826840 0.000000 
#    z 0.000000 0.000000 1.837870 
# 
# From -- ./inp_files/21794.got.cif
#   From: 2010.03.12/outbox.cif.g09.slc.cpg/sg72_11_cif.got.tgz:21794.got - 2010.04.16 14:54:00.
