data_PCOD8294288
_publ_section_title
;
Structure prediction by ZEFSAII (Michael W. Deem and Ramdas Pophale) SiO2 
 PCOD8294288
Probable space group: I B A M
;
_chemical_formula_sum "Si O2"
_cell_formula_units_Z 112
_cell_length_a 22.779950
_cell_length_b 14.633862
_cell_length_c 15.961109
_cell_angle_alpha 90.000000
_cell_angle_beta 90.000000
_cell_angle_gamma 90.000000
_cell_volume 5320.773664
_symmetry_space_group_name_H-M "I B A M"
_symmetry_group_IT_number 72
_symmetry_cell_setting 'orthorhombic'
loop_
_space_group_symop_operation_xyz
x,y,z
-x,-y,z
x,-y,1/2-z
-x,y,1/2-z
-x,-y,-z
x,y,-z
-x,y,1/2+z
x,-y,1/2+z
1/2+x,1/2+y,1/2+z
1/2-x,1/2-y,1/2+z
1/2+x,1/2-y,-z
1/2-x,1/2+y,-z
1/2-x,1/2-y,1/2-z
1/2+x,1/2+y,1/2-z
1/2-x,1/2+y,z
1/2+x,1/2-y,z
loop_
_atom_site_type_symbol
_atom_site_label
_atom_site_fract_x
_atom_site_fract_y
_atom_site_fract_z
Si Si1 0.975204 0.253660 0.333963
Si Si2 0.151332 0.057447 0.672894
Si Si3 0.231608 0.906596 0.400612
Si Si4 0.464960 0.087701 0.095127
Si Si5 0.843803 0.778992 0.790186
Si Si6 0.347009 0.093308 0.801776
Si Si7 0.465092 0.586346 0.594625
O O1 0.908806 0.218229 0.330109
O O2 0.000000 0.300950 0.250000
O O3 0.987527 0.329494 0.404772
O O4 0.018515 0.169077 0.346263
O O5 0.166895 0.157994 0.707948
O O6 0.104048 0.066758 0.599420
O O7 0.123943 0.000000 0.750000
O O8 0.206342 0.002236 0.635581
O O9 0.224908 0.902644 0.500000
O O10 0.199311 0.817043 0.362390
O O11 0.299510 0.906709 0.375688
O O12 0.409823 0.108731 0.154996
O O13 0.500000 0.000000 0.128473
O O14 0.442813 0.073130 0.000000
O O15 0.831200 0.674955 0.763065
O O16 0.345953 0.000000 0.750000
O O17 0.500000 0.500000 0.628390
O O18 0.483179 0.609779 0.500000
#
# Coordination Sequence:
#
# PCOD8294288 Si02
#       7
#    16  16  16  16  16  16  16
#     4  12  22  38  63  95 128 168 212 257 311 385
#     4  10  20  37  61  86 121 164 213 257 310 381
#     4  11  25  44  65  94 132 169 214 271 331 382
#     4  11  25  43  67  98 131 166 212 273 333 380
#     4  11  23  41  67  95 126 170 220 262 314 386
#     4  12  24  44  70  95 128 170 223 271 322 394
#     4  11  22  33  53  87 126 165 205 254 311 367
#
# _framework density 21.049569999999999
#
# number of rings (size 3 to 8) (size 9 to 14) (size 15 to 20)
#    0.000    0.857    2.857    5.571    0.000    2.286 
#    0.000    5.000    0.000    0.000    0.000    0.000 
#    0.000    0.000    0.000    0.000    0.000    0.000 
#
# Total GULP energy -694354.248702 kJ/mol
# GULP energy per Si atom -12399.183013 kJ/mol
# Density = 2.100166 g / cm^3
# Si number density = 21.049570 Si / 1000 Ang^3
#
#
#
# Elastic Constant Matrix: (Units=GPa)
#
#
# Indices 1 2 3 4 5 6 
#
# 1 113.9976 39.2772 40.8860 0.0000 0.0000 0.0000
# 2 39.2772 149.8131 47.7308 0.0000 0.0000 0.0000
# 3 40.8860 47.7308 99.4511 0.0000 0.0000 0.0000
# 4 0.0000 0.0000 0.0000 27.3918 0.0000 0.0000
# 5 0.0000 0.0000 0.0000 0.0000 32.4530 0.0000
# 6 0.0000 0.0000 0.0000 0.0000 0.0000 26.3652
#
#
#
# Elastic Compliance Matrix: (Units=1/GPa)
#
#
# Indices 1 2 3 4 5 6 
#
# 1 0.010622 -0.001645 -0.003577 0.000000 0.000000 0.000000
# 2 -0.001645 0.008135 -0.003228 0.000000 0.000000 0.000000
# 3 -0.003577 -0.003228 0.013075 0.000000 0.000000 0.000000
# 4 0.000000 0.000000 0.000000 0.036507 0.000000 0.000000
# 5 0.000000 0.000000 0.000000 0.000000 0.030814 0.000000
# 6 0.000000 0.000000 0.000000 0.000000 0.000000 0.037929
#
#
# Mechanical properties :
#
#
# Convention : Reuss Voigt Hill
#
# Bulk Modulus (GPa) = 66.97384 68.78332 67.87858
# Shear Modulus (GPa) = 31.45463 32.93319 32.19391
#
# Velocity S-wave (km/s) = 3.86983 3.95974 3.91504
# Velocity P-wave (km/s) = 7.20095 7.32487 7.26318
#
# Compressibility (1/GPa) = 0.01493120
#
# Stress axis : x y z
#
# Youngs Moduli (GPa) = 94.14468 122.93043 76.48132
#
# Poissons Ratio (x) = 0.20223 0.27360
# Poissons Ratio (y) = 0.15487 0.24687
# Poissons Ratio (z) = 0.33679 0.39680
#
# Static dielectric constant tensor:
#      x y z
#    x 3.807730 0.000000 0.000000 
#    y 0.000000 3.873970 0.000000 
#    z 0.000000 0.000000 3.627530 
# 
# 
# High freq. dielectric constant tensor:
#      x y z
#    x 1.824570 0.000000 0.000000 
#    y 0.000000 1.835950 0.000000 
#    z 0.000000 0.000000 1.820310 
# 
# From -- ./inp_files/22139.got.cif
#   From: 2010.03.12/outbox.cif.g09.slc.cpg/sg72_12_cif.got.tgz:22139.got - 2010.04.16 14:54:00.
