data_PCOD8294825
_publ_section_title
;
Structure prediction by ZEFSAII (Michael W. Deem and Ramdas Pophale) SiO2 
 PCOD8294825
Probable space group: I B A M
;
_chemical_formula_sum "Si O2"
_cell_formula_units_Z 88
_cell_length_a 27.056216
_cell_length_b 10.952676
_cell_length_c 15.045730
_cell_angle_alpha 90.000000
_cell_angle_beta 90.000000
_cell_angle_gamma 90.000000
_cell_volume 4458.621050
_symmetry_space_group_name_H-M "I B A M"
_symmetry_group_IT_number 72
_symmetry_cell_setting 'orthorhombic'
loop_
_space_group_symop_operation_xyz
x,y,z
-x,-y,z
x,-y,1/2-z
-x,y,1/2-z
-x,-y,-z
x,y,-z
-x,y,1/2+z
x,-y,1/2+z
1/2+x,1/2+y,1/2+z
1/2-x,1/2-y,1/2+z
1/2+x,1/2-y,-z
1/2-x,1/2+y,-z
1/2-x,1/2-y,1/2-z
1/2+x,1/2+y,1/2-z
1/2-x,1/2+y,z
1/2+x,1/2-y,z
loop_
_atom_site_type_symbol
_atom_site_label
_atom_site_fract_x
_atom_site_fract_y
_atom_site_fract_z
Si Si1 0.294077 0.891907 0.500000
Si Si2 0.143717 0.151154 0.500000
Si Si3 0.820967 0.884409 0.000000
Si Si4 0.910273 0.246257 0.162146
Si Si5 0.004078 0.861601 0.600953
Si Si6 0.858255 0.506765 0.351050
Si Si7 0.389354 0.738205 0.138982
O O1 0.318196 0.760393 0.500000
O O2 0.236891 0.860566 0.500000
O O3 0.310778 0.967678 0.587146
O O4 0.110832 0.153956 0.411261
O O5 0.173999 0.028282 0.500000
O O6 0.844560 0.827921 0.911005
O O7 0.969439 0.224430 0.162834
O O8 0.899013 0.386647 0.137261
O O9 0.885728 0.211421 0.256084
O O10 0.984482 0.856496 0.500000
O O11 0.059431 0.811877 0.601884
O O12 0.000000 0.000000 0.637223
O O13 0.838647 0.500000 0.250000
O O14 0.885550 0.382797 0.379917
#
# Coordination Sequence:
#
# PCOD8294825 Si02
#       7
#     8   8   8  16  16  16  16
#     4  10  23  42  64  86 119 166 196 263 319 365
#     4  10  22  41  59  87 118 158 205 245 311 367
#     4  12  25  39  61  92 122 156 207 258 310 367
#     4  10  21  41  64  88 126 167 201 252 309 369
#     4  11  22  37  59  90 132 169 208 250 304 371
#     4   9  21  43  65  90 125 159 210 259 311 371
#     4  11  23  39  63  94 124 162 208 260 305 368
#
# _framework density 19.737044999999998
#
# number of rings (size 3 to 8) (size 9 to 14) (size 15 to 20)
#    0.000    1.636    1.818    2.182    2.545    4.364 
#    3.273    6.364    0.000    0.000    0.000    0.000 
#    0.000    0.000    0.000    0.000    0.000    0.000 
#
# Total GULP energy -545697.575334 kJ/mol
# GULP energy per Si atom -12402.217621 kJ/mol
# Density = 1.969212 g / cm^3
# Si number density = 19.737045 Si / 1000 Ang^3
#
#
#
# Elastic Constant Matrix: (Units=GPa)
#
#
# Indices 1 2 3 4 5 6 
#
# 1 143.6091 50.4766 51.0990 0.0000 0.0000 0.0000
# 2 50.4766 97.1052 46.1435 0.0000 0.0000 0.0000
# 3 51.0990 46.1435 119.9576 0.0000 0.0000 0.0000
# 4 0.0000 0.0000 0.0000 30.0082 0.0000 0.0000
# 5 0.0000 0.0000 0.0000 0.0000 26.2407 0.0000
# 6 0.0000 0.0000 0.0000 0.0000 0.0000 24.9176
#
#
#
# Elastic Compliance Matrix: (Units=1/GPa)
#
#
# Indices 1 2 3 4 5 6 
#
# 1 0.009102 -0.003535 -0.002517 0.000000 0.000000 0.000000
# 2 -0.003535 0.013974 -0.003870 0.000000 0.000000 0.000000
# 3 -0.002517 -0.003870 0.010897 0.000000 0.000000 0.000000
# 4 0.000000 0.000000 0.000000 0.033324 0.000000 0.000000
# 5 0.000000 0.000000 0.000000 0.000000 0.038109 0.000000
# 6 0.000000 0.000000 0.000000 0.000000 0.000000 0.040132
#
#
# Mechanical properties :
#
#
# Convention : Reuss Voigt Hill
#
# Bulk Modulus (GPa) = 70.77479 72.90113 71.83796
# Shear Modulus (GPa) = 29.39589 30.43016 29.91303
#
# Velocity S-wave (km/s) = 3.86343 3.93081 3.89727
# Velocity P-wave (km/s) = 7.47249 7.59066 7.53181
#
# Compressibility (1/GPa) = 0.01412933
#
# Stress axis : x y z
#
# Youngs Moduli (GPa) = 109.87187 71.55920 91.76742
#
# Poissons Ratio (x) = 0.25295 0.23100
# Poissons Ratio (y) = 0.38839 0.35511
# Poissons Ratio (z) = 0.27658 0.27691
#
# Static dielectric constant tensor:
#      x y z
#    x 3.399890 0.000000 0.000000 
#    y 0.000000 3.683270 0.000000 
#    z 0.000000 0.000000 3.811090 
# 
# 
# High freq. dielectric constant tensor:
#      x y z
#    x 1.752730 0.000000 0.000000 
#    y 0.000000 1.777480 0.000000 
#    z 0.000000 0.000000 1.784910 
# 
# From -- ./inp_files/20620.got.cif
#   From: 2010.03.12/outbox.cif.g09.slc.cpg/sg72_11_cif.got.tgz:20620.got - 2010.04.16 14:54:00.
