data_PCOD8294719
_publ_section_title
;
Structure prediction by ZEFSAII (Michael W. Deem and Ramdas Pophale) SiO2 
 PCOD8294719
Probable space group: I B A M
;
_chemical_formula_sum "Si O2"
_cell_formula_units_Z 72
_cell_length_a 14.605339
_cell_length_b 16.549041
_cell_length_c 14.415794
_cell_angle_alpha 90.000000
_cell_angle_beta 90.000000
_cell_angle_gamma 90.000000
_cell_volume 3484.360175
_symmetry_space_group_name_H-M "I B A M"
_symmetry_group_IT_number 72
_symmetry_cell_setting 'orthorhombic'
loop_
_space_group_symop_operation_xyz
x,y,z
-x,-y,z
x,-y,1/2-z
-x,y,1/2-z
-x,-y,-z
x,y,-z
-x,y,1/2+z
x,-y,1/2+z
1/2+x,1/2+y,1/2+z
1/2-x,1/2-y,1/2+z
1/2+x,1/2-y,-z
1/2-x,1/2+y,-z
1/2-x,1/2-y,1/2-z
1/2+x,1/2+y,1/2-z
1/2-x,1/2+y,z
1/2+x,1/2-y,z
loop_
_atom_site_type_symbol
_atom_site_label
_atom_site_fract_x
_atom_site_fract_y
_atom_site_fract_z
Si Si1 0.081315 0.894261 0.500000
Si Si2 0.623788 0.418539 0.500000
Si Si3 0.334722 0.306028 0.326782
Si Si4 0.000000 0.286370 0.750000
Si Si5 0.454605 0.084877 0.391243
Si Si6 0.741390 0.138480 0.155155
O O1 0.123658 0.857780 0.591952
O O2 0.973752 0.873635 0.500000
O O3 0.104698 0.987326 0.500000
O O4 0.678113 0.395145 0.591887
O O5 0.411398 0.269883 0.257662
O O6 0.278527 0.231869 0.371952
O O7 0.271158 0.363968 0.263458
O O8 0.009810 0.343351 0.659319
O O9 0.460766 0.102182 0.500000
O O10 0.348920 0.083893 0.358370
O O11 0.500000 0.000000 0.364125
#
# Coordination Sequence:
#
# PCOD8294719 Si02
#       6
#     8   8  16   8  16  16
#     4  11  25  42  66  92 131 172 220 275 329 396
#     4  11  23  42  65  98 126 173 222 270 337 379
#     4  10  22  42  65  97 129 173 224 267 329 389
#     4  10  21  38  66  97 128 176 214 270 324 385
#     4  10  21  41  64  97 139 172 212 266 330 397
#     4  10  21  43  66  94 131 171 218 272 316 395
#
# _framework density 20.663764
#
# number of rings (size 3 to 8) (size 9 to 14) (size 15 to 20)
#    0.000    1.778    1.111    2.333    4.667    0.889 
#   22.000    2.222    0.000    0.000    0.000    0.000 
#    0.000    0.000    0.000    0.000    0.000    0.000 
#
# Total GULP energy -446449.443021 kJ/mol
# GULP energy per Si atom -12401.373417 kJ/mol
# Density = 2.061673 g / cm^3
# Si number density = 20.663764 Si / 1000 Ang^3
#
#
#
# Elastic Constant Matrix: (Units=GPa)
#
#
# Indices 1 2 3 4 5 6 
#
# 1 106.7286 46.4563 66.8180 0.0000 0.0000 0.0000
# 2 46.4563 68.3698 51.9787 0.0000 0.0000 0.0000
# 3 66.8180 51.9787 116.9766 0.0000 0.0000 0.0000
# 4 0.0000 0.0000 0.0000 5.8990 0.0000 0.0000
# 5 0.0000 0.0000 0.0000 0.0000 53.9557 0.0000
# 6 0.0000 0.0000 0.0000 0.0000 0.0000 38.8862
#
#
#
# Elastic Compliance Matrix: (Units=1/GPa)
#
#
# Indices 1 2 3 4 5 6 
#
# 1 0.016038 -0.005939 -0.006522 0.000000 0.000000 0.000000
# 2 -0.005939 0.024288 -0.007400 0.000000 0.000000 0.000000
# 3 -0.006522 -0.007400 0.015562 0.000000 0.000000 0.000000
# 4 0.000000 0.000000 0.000000 0.169522 0.000000 0.000000
# 5 0.000000 0.000000 0.000000 0.000000 0.018534 0.000000
# 6 0.000000 0.000000 0.000000 0.000000 0.000000 0.025716
#
#
# Mechanical properties :
#
#
# Convention : Reuss Voigt Hill
#
# Bulk Modulus (GPa) = 61.85800 69.17567 65.51684
# Shear Modulus (GPa) = 15.88467 28.20297 22.04382
#
# Velocity S-wave (km/s) = 2.77559 3.69840 3.26971
# Velocity P-wave (km/s) = 6.34605 7.19632 6.78452
#
# Compressibility (1/GPa) = 0.01616606
#
# Stress axis : x y z
#
# Youngs Moduli (GPa) = 62.35292 41.17326 64.25855
#
# Poissons Ratio (x) = 0.24453 0.41908
# Poissons Ratio (y) = 0.37032 0.47550
# Poissons Ratio (z) = 0.40666 0.30467
#
# Static dielectric constant tensor:
#      x y z
#    x 4.006140 0.000000 0.000000 
#    y 0.000000 3.722350 0.000000 
#    z 0.000000 0.000000 3.730410 
# 
# 
# High freq. dielectric constant tensor:
#      x y z
#    x 1.819170 0.000000 0.000000 
#    y 0.000000 1.804050 0.000000 
#    z 0.000000 0.000000 1.814560 
# 
# From -- ./inp_files/21509.got.cif
#   From: 2010.03.12/outbox.cif.g09.slc.cpg/sg72_11_cif.got.tgz:21509.got - 2010.04.16 14:54:00.
