data_PCOD8294742
_publ_section_title
;
Structure prediction by ZEFSAII (Michael W. Deem and Ramdas Pophale) SiO2 
 PCOD8294742
Probable space group: I B A M
;
_chemical_formula_sum "Si O2"
_cell_formula_units_Z 80
_cell_length_a 26.416618
_cell_length_b 9.938268
_cell_length_c 15.387057
_cell_angle_alpha 90.000000
_cell_angle_beta 90.000000
_cell_angle_gamma 90.000000
_cell_volume 4039.647616
_symmetry_space_group_name_H-M "I B A M"
_symmetry_group_IT_number 72
_symmetry_cell_setting 'orthorhombic'
loop_
_space_group_symop_operation_xyz
x,y,z
-x,-y,z
x,-y,1/2-z
-x,y,1/2-z
-x,-y,-z
x,y,-z
-x,y,1/2+z
x,-y,1/2+z
1/2+x,1/2+y,1/2+z
1/2-x,1/2-y,1/2+z
1/2+x,1/2-y,-z
1/2-x,1/2+y,-z
1/2-x,1/2-y,1/2-z
1/2+x,1/2+y,1/2-z
1/2-x,1/2+y,z
1/2+x,1/2-y,z
loop_
_atom_site_type_symbol
_atom_site_label
_atom_site_fract_x
_atom_site_fract_y
_atom_site_fract_z
Si Si1 0.449204 0.089207 0.000000
Si Si2 0.598304 0.405093 0.322909
Si Si3 0.227453 0.688978 0.837979
Si Si4 0.799368 0.043028 0.903264
Si Si5 0.611866 0.894313 0.824402
Si Si6 0.954802 0.899408 0.500000
O O1 0.413744 0.060487 0.084234
O O2 0.469324 0.242235 0.000000
O O3 0.500000 0.000000 0.000000
O O4 0.572931 0.500000 0.250000
O O5 0.657144 0.443514 0.331094
O O6 0.589454 0.250355 0.295958
O O7 0.576302 0.438052 0.415856
O O8 0.250000 0.750000 0.750000
O O9 0.227898 0.811394 0.906396
O O10 0.262654 0.573208 0.873508
O O11 0.172290 0.620002 0.830625
O O12 0.819777 0.012094 0.000000
O O13 0.596642 0.000000 0.750000
O O14 0.000000 0.000000 0.500000
#
# Coordination Sequence:
#
# PCOD8294742 Si02
#       6
#     8  16  16  16  16   8
#     4  10  24  44  65  88 120 166 211 266 320 374
#     4  10  21  39  62  86 121 159 196 246 310 372
#     4  11  22  37  58  89 125 163 204 246 304 372
#     4  11  21  35  57  85 121 162 199 242 296 367
#     4  10  22  40  64  89 123 164 206 258 315 374
#     4  10  22  42  63  88 118 152 199 256 315 372
#
# _framework density 19.803705999999998
#
# number of rings (size 3 to 8) (size 9 to 14) (size 15 to 20)
#    0.000    1.600    1.000    4.800    5.600    2.400 
#    0.000    4.000    0.000    0.000    0.000    0.000 
#    0.000    0.000    0.000    0.000    0.000    0.000 
#
# Total GULP energy -495774.674142 kJ/mol
# GULP energy per Si atom -12394.366854 kJ/mol
# Density = 1.975863 g / cm^3
# Si number density = 19.803706 Si / 1000 Ang^3
#
#
#
# Elastic Constant Matrix: (Units=GPa)
#
#
# Indices 1 2 3 4 5 6 
#
# 1 87.7498 53.6532 48.4192 0.0000 0.0000 0.0000
# 2 53.6532 132.9547 83.1278 0.0000 0.0000 0.0000
# 3 48.4192 83.1278 158.6964 0.0000 0.0000 0.0000
# 4 0.0000 0.0000 0.0000 30.7521 0.0000 0.0000
# 5 0.0000 0.0000 0.0000 0.0000 -25.2062 0.0000
# 6 0.0000 0.0000 0.0000 0.0000 0.0000 38.2429
#
#
#
# Elastic Compliance Matrix: (Units=1/GPa)
#
#
# Indices 1 2 3 4 5 6 
#
# 1 0.015619 -0.004942 -0.002177 0.000000 0.000000 0.000000
# 2 -0.004942 0.012748 -0.005170 0.000000 0.000000 0.000000
# 3 -0.002177 -0.005170 0.009673 0.000000 0.000000 0.000000
# 4 0.000000 0.000000 0.000000 0.032518 0.000000 0.000000
# 5 0.000000 0.000000 0.000000 0.000000 -0.039673 0.000000
# 6 0.000000 0.000000 0.000000 0.000000 0.000000 0.026149
#
#
# Mechanical properties :
#
#
# Convention : Reuss Voigt Hill
#
# Bulk Modulus (GPa) = 74.27552 83.31123 78.79337
# Shear Modulus (GPa) = 58.07270 21.70446 39.88858
#
# Velocity S-wave (km/s) = 5.42105 3.31415 4.49285
# Velocity P-wave (km/s) = 8.76191 7.53688 8.17238
#
# Compressibility (1/GPa) = 0.01346339
#
# Stress axis : x y z
#
# Youngs Moduli (GPa) = 64.02547 78.44381 103.37528
#
# Poissons Ratio (x) = 0.38766 0.22502
# Poissons Ratio (y) = 0.31641 0.53443
# Poissons Ratio (z) = 0.13937 0.40554
#
# Static dielectric constant tensor:
#      x y z
#    x 5.184260 0.000000 0.000000 
#    y 0.000000 3.868590 0.000000 
#    z 0.000000 0.000000 3.285380 
# 
# 
# High freq. dielectric constant tensor:
#      x y z
#    x 1.758820 0.000000 0.000000 
#    y 0.000000 1.782920 0.000000 
#    z 0.000000 0.000000 1.783490 
# 
# From -- ./inp_files/33824.got.cif
#   From: 2010.03.12/outbox.cif.g09.slc.cpg/sg72_17_cif.got.tgz:33824.got - 2010.04.16 14:54:00.
