data_PCOD8294658
_publ_section_title
;
Structure prediction by ZEFSAII (Michael W. Deem and Ramdas Pophale) SiO2 
 PCOD8294658
Probable space group: I B A M
;
_chemical_formula_sum "Si O2"
_cell_formula_units_Z 104
_cell_length_a 8.856087
_cell_length_b 21.269135
_cell_length_c 28.238690
_cell_angle_alpha 90.000000
_cell_angle_beta 90.000000
_cell_angle_gamma 90.000000
_cell_volume 5319.076640
_symmetry_space_group_name_H-M "I B A M"
_symmetry_group_IT_number 72
_symmetry_cell_setting 'orthorhombic'
loop_
_space_group_symop_operation_xyz
x,y,z
-x,-y,z
x,-y,1/2-z
-x,y,1/2-z
-x,-y,-z
x,y,-z
-x,y,1/2+z
x,-y,1/2+z
1/2+x,1/2+y,1/2+z
1/2-x,1/2-y,1/2+z
1/2+x,1/2-y,-z
1/2-x,1/2+y,-z
1/2-x,1/2-y,1/2-z
1/2+x,1/2+y,1/2-z
1/2-x,1/2+y,z
1/2+x,1/2-y,z
loop_
_atom_site_type_symbol
_atom_site_label
_atom_site_fract_x
_atom_site_fract_y
_atom_site_fract_z
Si Si1 0.000000 0.500000 0.590290
Si Si2 0.638139 0.315954 0.553877
Si Si3 0.000000 0.000000 0.097179
Si Si4 0.247442 0.205135 0.685635
Si Si5 0.250036 0.586251 0.377693
Si Si6 0.744282 0.415097 0.946649
Si Si7 0.000000 0.252290 0.750000
Si Si8 0.319405 0.288598 0.403787
O O1 0.091178 0.549581 0.622450
O O2 0.115492 0.461995 0.557522
O O3 0.584473 0.325525 0.500000
O O4 0.718733 0.379727 0.571798
O O5 0.498473 0.298217 0.588377
O O6 0.759352 0.259930 0.556811
O O7 0.088541 0.049043 0.064032
O O8 0.884030 0.036467 0.131463
O O9 0.253731 0.136826 0.663317
O O10 0.374231 0.204215 0.725988
O O11 0.281154 0.261321 0.648220
O O12 0.082611 0.211259 0.709467
O O13 0.762688 0.355837 0.911090
O O14 0.736294 0.389243 0.000000
#
# Coordination Sequence:
#
# PCOD8294658 Si02
#       8
#     8  16   8  16  16  16   8  16
#     4  10  25  38  56  87 116 180 206 253 284 336
#     4  11  22  36  55  86 122 165 207 255 302 341
#     4  10  21  38  58  83 112 178 206 251 278 342
#     4  10  22  41  65  97 117 147 188 249 323 374
#     4  10  22  40  61  84 123 160 207 249 294 357
#     4  11  22  37  56  85 121 167 217 253 283 335
#     4  10  22  40  70  98 114 140 182 250 324 390
#     4  11  23  37  60  87 122 159 199 254 309 366
#
# _framework density 19.552265999999999
#
# number of rings (size 3 to 8) (size 9 to 14) (size 15 to 20)
#    0.000    1.538    1.538    3.692    6.462    3.077 
#    0.000    0.000    0.000    2.769    0.000    0.000 
#    0.000    0.000    0.000    0.000    0.000    0.000 
#
# Total GULP energy -644806.160801 kJ/mol
# GULP energy per Si atom -12400.118477 kJ/mol
# Density = 1.950776 g / cm^3
# Si number density = 19.552266 Si / 1000 Ang^3
#
#
#
# Elastic Constant Matrix: (Units=GPa)
#
#
# Indices 1 2 3 4 5 6 
#
# 1 113.4405 41.8441 33.0136 0.0000 0.0000 0.0000
# 2 41.8441 118.6669 41.8671 0.0000 0.0000 0.0000
# 3 33.0136 41.8671 98.4916 0.0000 0.0000 0.0000
# 4 0.0000 0.0000 0.0000 14.2843 0.0000 0.0000
# 5 0.0000 0.0000 0.0000 0.0000 26.7749 0.0000
# 6 0.0000 0.0000 0.0000 0.0000 0.0000 32.6707
#
#
#
# Elastic Compliance Matrix: (Units=1/GPa)
#
#
# Indices 1 2 3 4 5 6 
#
# 1 0.010559 -0.002911 -0.002302 0.000000 0.000000 0.000000
# 2 -0.002911 0.010716 -0.003580 0.000000 0.000000 0.000000
# 3 -0.002302 -0.003580 0.012446 0.000000 0.000000 0.000000
# 4 0.000000 0.000000 0.000000 0.070007 0.000000 0.000000
# 5 0.000000 0.000000 0.000000 0.000000 0.037348 0.000000
# 6 0.000000 0.000000 0.000000 0.000000 0.000000 0.030608
#
#
# Mechanical properties :
#
#
# Convention : Reuss Voigt Hill
#
# Bulk Modulus (GPa) = 61.97095 62.67207 62.32151
# Shear Modulus (GPa) = 25.68727 29.00428 27.34578
#
# Velocity S-wave (km/s) = 3.62854 3.85570 3.74384
# Velocity P-wave (km/s) = 7.02274 7.20730 7.11562
#
# Compressibility (1/GPa) = 0.01613659
#
# Stress axis : x y z
#
# Youngs Moduli (GPa) = 94.70700 93.31505 80.34522
#
# Poissons Ratio (x) = 0.27166 0.18494
# Poissons Ratio (y) = 0.27571 0.28760
# Poissons Ratio (z) = 0.21799 0.33403
#
# Static dielectric constant tensor:
#      x y z
#    x 3.794280 0.000000 0.000000 
#    y 0.000000 3.669460 0.000000 
#    z 0.000000 0.000000 3.314720 
# 
# 
# High freq. dielectric constant tensor:
#      x y z
#    x 1.781220 0.000000 0.000000 
#    y 0.000000 1.766580 0.000000 
#    z 0.000000 0.000000 1.732220 
# 
# From -- ./inp_files/50931.got.cif
#   From: 2010.03.12/outbox.cif.g09.slc.cpg/sg72_26_cif.got.tgz:50931.got - 2010.04.16 14:54:00.
