data_PCOD8294863
_publ_section_title
;
Structure prediction by ZEFSAII (Michael W. Deem and Ramdas Pophale) SiO2 
 PCOD8294863
Probable space group: I B A M
;
_chemical_formula_sum "Si O2"
_cell_formula_units_Z 80
_cell_length_a 8.983964
_cell_length_b 17.708481
_cell_length_c 24.587272
_cell_angle_alpha 90.000000
_cell_angle_beta 90.000000
_cell_angle_gamma 90.000000
_cell_volume 3911.647025
_symmetry_space_group_name_H-M "I B A M"
_symmetry_group_IT_number 72
_symmetry_cell_setting 'orthorhombic'
loop_
_space_group_symop_operation_xyz
x,y,z
-x,-y,z
x,-y,1/2-z
-x,y,1/2-z
-x,-y,-z
x,y,-z
-x,y,1/2+z
x,-y,1/2+z
1/2+x,1/2+y,1/2+z
1/2-x,1/2-y,1/2+z
1/2+x,1/2-y,-z
1/2-x,1/2+y,-z
1/2-x,1/2-y,1/2-z
1/2+x,1/2+y,1/2-z
1/2-x,1/2+y,z
1/2+x,1/2-y,z
loop_
_atom_site_type_symbol
_atom_site_label
_atom_site_fract_x
_atom_site_fract_y
_atom_site_fract_z
Si Si1 0.059556 0.198086 0.138024
Si Si2 0.175870 0.498952 0.854659
Si Si3 0.737381 0.161576 0.161578
Si Si4 0.118189 0.066152 0.063452
Si Si5 0.667564 0.403371 0.769758
O O1 0.111314 0.284765 0.136114
O O2 0.064376 0.149728 0.081991
O O3 0.160436 0.158561 0.183171
O O4 0.890432 0.205266 0.155701
O O5 0.228205 0.415523 0.872474
O O6 0.227428 0.551098 0.904746
O O7 0.259217 0.521791 0.797734
O O8 0.000000 0.500000 0.845895
O O9 0.723537 0.134235 0.224688
O O10 0.151576 0.068197 0.000000
O O11 0.000000 0.000000 0.078624
O O12 0.500000 0.423359 0.750000
#
# Coordination Sequence:
#
# PCOD8294863 Si02
#       5
#    16  16  16  16  16
#     4  10  22  38  60  91 124 166 208 261 317 374
#     4  11  24  40  64  95 128 162 216 271 314 371
#     4  11  22  38  59  90 131 167 204 252 315 383
#     4  10  21  44  71  89 115 165 221 269 321 378
#     4   9  21  39  62  87 125 174 219 249 301 378
#
# _framework density 20.451744000000001
#
# number of rings (size 3 to 8) (size 9 to 14) (size 15 to 20)
#    0.000    1.800    2.000    1.200    5.600    4.400 
#    0.000    2.000    0.000    0.000    0.000    0.000 
#    0.000    0.000    0.000    0.000    0.000    0.000 
#
# Total GULP energy -495787.278056 kJ/mol
# GULP energy per Si atom -12394.681951 kJ/mol
# Density = 2.040519 g / cm^3
# Si number density = 20.451744 Si / 1000 Ang^3
#
#
#
# Elastic Constant Matrix: (Units=GPa)
#
#
# Indices 1 2 3 4 5 6 
#
# 1 97.4099 43.9298 37.2135 0.0000 0.0000 0.0000
# 2 43.9298 126.3318 42.7094 0.0000 0.0000 0.0000
# 3 37.2135 42.7094 110.9086 0.0000 0.0000 0.0000
# 4 0.0000 0.0000 0.0000 22.1680 0.0000 0.0000
# 5 0.0000 0.0000 0.0000 0.0000 18.4531 0.0000
# 6 0.0000 0.0000 0.0000 0.0000 0.0000 35.3924
#
#
#
# Elastic Compliance Matrix: (Units=1/GPa)
#
#
# Indices 1 2 3 4 5 6 
#
# 1 0.012995 -0.003501 -0.003012 0.000000 0.000000 0.000000
# 2 -0.003501 0.010043 -0.002693 0.000000 0.000000 0.000000
# 3 -0.003012 -0.002693 0.011064 0.000000 0.000000 0.000000
# 4 0.000000 0.000000 0.000000 0.045110 0.000000 0.000000
# 5 0.000000 0.000000 0.000000 0.000000 0.054192 0.000000
# 6 0.000000 0.000000 0.000000 0.000000 0.000000 0.028255
#
#
# Mechanical properties :
#
#
# Convention : Reuss Voigt Hill
#
# Bulk Modulus (GPa) = 63.73031 64.70620 64.21825
# Shear Modulus (GPa) = 26.98307 29.25587 28.11947
#
# Velocity S-wave (km/s) = 3.63623 3.78628 3.71201
# Velocity P-wave (km/s) = 6.98989 7.12893 7.05975
#
# Compressibility (1/GPa) = 0.01569112
#
# Stress axis : x y z
#
# Youngs Moduli (GPa) = 76.95048 99.56835 90.38135
#
# Poissons Ratio (x) = 0.34854 0.27226
# Poissons Ratio (y) = 0.26937 0.24340
# Poissons Ratio (z) = 0.23180 0.26814
#
# Static dielectric constant tensor:
#      x y z
#    x 3.502500 0.000000 0.000000 
#    y 0.000000 3.831180 0.000000 
#    z 0.000000 0.000000 3.480730 
# 
# 
# High freq. dielectric constant tensor:
#      x y z
#    x 1.788290 0.000000 0.000000 
#    y 0.000000 1.811370 0.000000 
#    z 0.000000 0.000000 1.774170 
# 
# From -- ./inp_files/47132.got.cif
#   From: 2010.03.12/outbox.cif.g09.slc.cpg/sg72_24_cif.got.tgz:47132.got - 2010.04.16 14:54:00.
