data_PCOD8294559
_publ_section_title
;
Structure prediction by ZEFSAII (Michael W. Deem and Ramdas Pophale) SiO2 
 PCOD8294559
Probable space group: I B A M
;
_chemical_formula_sum "Si O2"
_cell_formula_units_Z 64
_cell_length_a 8.706594
_cell_length_b 14.402880
_cell_length_c 22.156684
_cell_angle_alpha 90.000000
_cell_angle_beta 90.000000
_cell_angle_gamma 90.000000
_cell_volume 2778.448807
_symmetry_space_group_name_H-M "I B A M"
_symmetry_group_IT_number 72
_symmetry_cell_setting 'orthorhombic'
loop_
_space_group_symop_operation_xyz
x,y,z
-x,-y,z
x,-y,1/2-z
-x,y,1/2-z
-x,-y,-z
x,y,-z
-x,y,1/2+z
x,-y,1/2+z
1/2+x,1/2+y,1/2+z
1/2-x,1/2-y,1/2+z
1/2+x,1/2-y,-z
1/2-x,1/2+y,-z
1/2-x,1/2-y,1/2-z
1/2+x,1/2+y,1/2-z
1/2-x,1/2+y,z
1/2+x,1/2-y,z
loop_
_atom_site_type_symbol
_atom_site_label
_atom_site_fract_x
_atom_site_fract_y
_atom_site_fract_z
Si Si1 0.781043 0.871851 0.881071
Si Si2 0.485212 0.223704 0.570320
Si Si3 0.182296 0.648929 0.750289
Si Si4 0.841227 0.552977 0.870184
O O1 0.655821 0.802918 0.910036
O O2 0.941102 0.819510 0.894180
O O3 0.748212 0.895668 0.811042
O O4 0.769612 0.978408 0.905761
O O5 0.477948 0.245015 0.500000
O O6 0.368842 0.140263 0.586052
O O7 0.250000 0.750000 0.750000
O O8 0.234434 0.589898 0.692134
O O9 0.000000 0.656051 0.750000
O O10 0.000000 0.500000 0.855100
#
# Coordination Sequence:
#
# PCOD8294559 Si02
#       4
#    16  16  16  16
#     4  11  22  39  62  88 122 157 201 255 305 361
#     4  11  23  39  60  88 121 163 209 249 296 355
#     4  12  20  37  65  94 125 157 193 253 312 371
#     4  10  21  36  63  92 119 156 205 246 303 362
#
# _framework density 23.034437
#
# number of rings (size 3 to 8) (size 9 to 14) (size 15 to 20)
#    0.000    1.000    7.500    1.500    0.000    5.500 
#    0.000    1.250    0.000    4.500    0.000    0.000 
#    0.000    0.000    0.000    0.000    0.000    0.000 
#
# Total GULP energy -396579.120454 kJ/mol
# GULP energy per Si atom -12393.097514 kJ/mol
# Density = 2.298201 g / cm^3
# Si number density = 23.034437 Si / 1000 Ang^3
#
#
#
# Elastic Constant Matrix: (Units=GPa)
#
#
# Indices 1 2 3 4 5 6 
#
# 1 18.8411 13.0103 10.5386 0.0000 0.0000 0.0000
# 2 13.0103 126.5766 5.9686 0.0000 0.0000 0.0000
# 3 10.5386 5.9686 101.9704 0.0000 0.0000 0.0000
# 4 0.0000 0.0000 0.0000 21.0863 0.0000 0.0000
# 5 0.0000 0.0000 0.0000 0.0000 17.3647 0.0000
# 6 0.0000 0.0000 0.0000 0.0000 0.0000 37.4686
#
#
#
# Elastic Compliance Matrix: (Units=1/GPa)
#
#
# Indices 1 2 3 4 5 6 
#
# 1 0.060477 -0.005938 -0.005903 0.000000 0.000000 0.000000
# 2 -0.005938 0.008505 0.000116 0.000000 0.000000 0.000000
# 3 -0.005903 0.000116 0.010410 0.000000 0.000000 0.000000
# 4 0.000000 0.000000 0.000000 0.047424 0.000000 0.000000
# 5 0.000000 0.000000 0.000000 0.000000 0.057588 0.000000
# 6 0.000000 0.000000 0.000000 0.000000 0.000000 0.026689
#
#
# Mechanical properties :
#
#
# Convention : Reuss Voigt Hill
#
# Bulk Modulus (GPa) = 17.87532 34.04701 25.96116
# Shear Modulus (GPa) = 19.74793 29.70863 24.72828
#
# Velocity S-wave (km/s) = 2.93118 3.59520 3.28004
# Velocity P-wave (km/s) = 4.38553 5.66101 5.06359
#
# Compressibility (1/GPa) = 0.05594307
#
# Stress axis : x y z
#
# Youngs Moduli (GPa) = 16.53510 117.57473 96.06125
#
# Poissons Ratio (x) = 0.69815 0.56702
# Poissons Ratio (y) = 0.09818 -0.01113
# Poissons Ratio (z) = 0.09760 -0.01362
#
# Static dielectric constant tensor:
#      x y z
#    x 3.720540 0.000000 0.000000 
#    y 0.000000 4.836730 0.000000 
#    z 0.000000 0.000000 4.418140 
# 
# 
# High freq. dielectric constant tensor:
#      x y z
#    x 1.871750 0.000000 0.000000 
#    y 0.000000 1.937940 0.000000 
#    z 0.000000 0.000000 1.897140 
# 
# From -- ./inp_files/36586.got.cif
#   From: 2010.03.12/outbox.cif.g09.slc.cpg/sg72_19_cif.got.tgz:36586.got - 2010.04.16 14:54:00.
