data_PCOD8294698
_publ_section_title
;
Structure prediction by ZEFSAII (Michael W. Deem and Ramdas Pophale) SiO2 
 PCOD8294698
Probable space group: I B A M
;
_chemical_formula_sum "Si O2"
_cell_formula_units_Z 116
_cell_length_a 28.455735
_cell_length_b 22.294386
_cell_length_c 8.931133
_cell_angle_alpha 90.000000
_cell_angle_beta 90.000000
_cell_angle_gamma 90.000000
_cell_volume 5665.938819
_symmetry_space_group_name_H-M "I B A M"
_symmetry_group_IT_number 72
_symmetry_cell_setting 'orthorhombic'
loop_
_space_group_symop_operation_xyz
x,y,z
-x,-y,z
x,-y,1/2-z
-x,y,1/2-z
-x,-y,-z
x,y,-z
-x,y,1/2+z
x,-y,1/2+z
1/2+x,1/2+y,1/2+z
1/2-x,1/2-y,1/2+z
1/2+x,1/2-y,-z
1/2-x,1/2+y,-z
1/2-x,1/2-y,1/2-z
1/2+x,1/2+y,1/2-z
1/2-x,1/2+y,z
1/2+x,1/2-y,z
loop_
_atom_site_type_symbol
_atom_site_label
_atom_site_fract_x
_atom_site_fract_y
_atom_site_fract_z
Si Si1 0.354530 0.558820 0.827009
Si Si2 0.200306 0.245574 0.328898
Si Si3 0.255435 0.439836 0.823411
Si Si4 0.619920 0.312787 0.171992
Si Si5 0.325801 0.878501 0.330689
Si Si6 0.000000 0.500000 0.750000
Si Si7 0.453734 0.229670 0.176506
Si Si8 0.427532 0.101210 0.831247
O O1 0.377695 0.500000 0.750000
O O2 0.305789 0.574884 0.746339
O O3 0.389559 0.615629 0.812282
O O4 0.343816 0.544471 0.000000
O O5 0.206932 0.222922 0.500000
O O6 0.250000 0.250000 0.250000
O O7 0.172747 0.197143 0.229779
O O8 0.169490 0.306587 0.328874
O O9 0.234922 0.500000 0.750000
O O10 0.217053 0.390302 0.781307
O O11 0.260312 0.445380 0.000000
O O12 0.587099 0.274694 0.279242
O O13 0.614333 0.292100 0.000000
O O14 0.314501 0.900952 0.500000
O O15 0.374512 0.909757 0.267608
O O16 0.036285 0.455408 0.666211
O O17 0.500000 0.257222 0.250000
O O18 0.447876 0.161695 0.244517
O O19 0.459335 0.229099 0.000000
O O20 0.417508 0.119811 0.000000
#
# Coordination Sequence:
#
# PCOD8294698 Si02
#       8
#    16  16  16  16  16   4  16  16
#     4  10  21  38  61  89 123 160 200 245 294 355
#     4  11  22  36  57  85 121 163 203 253 309 371
#     4  11  22  36  55  82 114 157 206 249 300 359
#     4  11  23  39  61  92 123 159 204 251 305 372
#     4  10  21  39  55  76 115 158 200 251 308 364
#     4  12  22  40  64  94 116 152 208 268 322 376
#     4  11  22  42  66  92 123 160 202 253 312 372
#     4  10  22  40  60  84 116 154 198 253 316 370
#
# _framework density 20.473219
#
# number of rings (size 3 to 8) (size 9 to 14) (size 15 to 20)
#    0.000    1.379    2.069    4.759    0.966    6.621 
#    0.000    0.690    0.000    0.414    0.000    2.897 
#    0.000    0.000    0.000    0.000    0.000    0.000 
#
# Total GULP energy -718717.935892 kJ/mol
# GULP energy per Si atom -12391.688550 kJ/mol
# Density = 2.042662 g / cm^3
# Si number density = 20.473219 Si / 1000 Ang^3
#
#
#
# Elastic Constant Matrix: (Units=GPa)
#
#
# Indices 1 2 3 4 5 6 
#
# 1 74.4190 35.5680 26.0013 0.0000 0.0000 0.0000
# 2 35.5680 108.4555 36.5165 0.0000 0.0000 0.0000
# 3 26.0013 36.5165 118.9751 0.0000 0.0000 0.0000
# 4 0.0000 0.0000 0.0000 29.0258 0.0000 0.0000
# 5 0.0000 0.0000 0.0000 0.0000 31.1528 0.0000
# 6 0.0000 0.0000 0.0000 0.0000 0.0000 31.0971
#
#
#
# Elastic Compliance Matrix: (Units=1/GPa)
#
#
# Indices 1 2 3 4 5 6 
#
# 1 0.016418 -0.004657 -0.002158 0.000000 0.000000 0.000000
# 2 -0.004657 0.011604 -0.002544 0.000000 0.000000 0.000000
# 3 -0.002158 -0.002544 0.009658 0.000000 0.000000 0.000000
# 4 0.000000 0.000000 0.000000 0.034452 0.000000 0.000000
# 5 0.000000 0.000000 0.000000 0.000000 0.032100 0.000000
# 6 0.000000 0.000000 0.000000 0.000000 0.000000 0.032157
#
#
# Mechanical properties :
#
#
# Convention : Reuss Voigt Hill
#
# Bulk Modulus (GPa) = 52.74247 55.33571 54.03909
# Shear Modulus (GPa) = 30.97355 31.83939 31.40647
#
# Velocity S-wave (km/s) = 3.89380 3.94785 3.92091
# Velocity P-wave (km/s) = 6.78477 6.91865 6.85204
#
# Compressibility (1/GPa) = 0.01896005
#
# Stress axis : x y z
#
# Youngs Moduli (GPa) = 60.91047 86.17535 103.54542
#
# Poissons Ratio (x) = 0.40135 0.22350
# Poissons Ratio (y) = 0.28368 0.26340
# Poissons Ratio (z) = 0.13147 0.21921
#
# Static dielectric constant tensor:
#      x y z
#    x 3.569260 0.000000 0.000000 
#    y 0.000000 3.837270 0.000000 
#    z 0.000000 0.000000 3.660630 
# 
# 
# High freq. dielectric constant tensor:
#      x y z
#    x 1.786770 0.000000 0.000000 
#    y 0.000000 1.803530 0.000000 
#    z 0.000000 0.000000 1.796420 
# 
# From -- ./inp_files/7333.got.cif
#   From: 2010.03.12/outbox.cif.g09.slc.cpg/sg72_4_cif.got.tgz:7333.got - 2010.04.16 14:54:00.
