data_PCOD8294773
_publ_section_title
;
Structure prediction by ZEFSAII (Michael W. Deem and Ramdas Pophale) SiO2 
 PCOD8294773
Probable space group: I B A M
;
_chemical_formula_sum "Si O2"
_cell_formula_units_Z 120
_cell_length_a 12.671558
_cell_length_b 20.087009
_cell_length_c 23.054397
_cell_angle_alpha 90.000000
_cell_angle_beta 90.000000
_cell_angle_gamma 90.000000
_cell_volume 5868.120960
_symmetry_space_group_name_H-M "I B A M"
_symmetry_group_IT_number 72
_symmetry_cell_setting 'orthorhombic'
loop_
_space_group_symop_operation_xyz
x,y,z
-x,-y,z
x,-y,1/2-z
-x,y,1/2-z
-x,-y,-z
x,y,-z
-x,y,1/2+z
x,-y,1/2+z
1/2+x,1/2+y,1/2+z
1/2-x,1/2-y,1/2+z
1/2+x,1/2-y,-z
1/2-x,1/2+y,-z
1/2-x,1/2-y,1/2-z
1/2+x,1/2+y,1/2-z
1/2-x,1/2+y,z
1/2+x,1/2-y,z
loop_
_atom_site_type_symbol
_atom_site_label
_atom_site_fract_x
_atom_site_fract_y
_atom_site_fract_z
Si Si1 0.984948 0.267580 0.650492
Si Si2 0.690661 0.597862 0.064666
Si Si3 0.919286 0.373977 0.566368
Si Si4 0.150774 0.706331 0.237520
Si Si5 0.466971 0.651176 0.934154
Si Si6 0.611725 0.526339 0.369033
Si Si7 0.500000 0.000000 0.124152
Si Si8 0.812047 0.444072 0.798180
O O1 0.992805 0.326454 0.604086
O O2 0.915165 0.289637 0.704137
O O3 0.937338 0.203945 0.616055
O O4 0.099617 0.259189 0.680076
O O5 0.795725 0.639041 0.081156
O O6 0.593457 0.648425 0.067958
O O7 0.675635 0.535419 0.105941
O O8 0.703260 0.568781 0.000000
O O9 0.946582 0.359081 0.500000
O O10 0.941442 0.449914 0.581582
O O11 0.250000 0.750000 0.250000
O O12 0.171914 0.628525 0.228454
O O13 0.415980 0.579906 0.919004
O O14 0.430504 0.671108 0.000000
O O15 0.500000 0.500000 0.341267
O O16 0.693576 0.558877 0.324473
O O17 0.410556 0.038919 0.160475
O O18 0.811901 0.500000 0.750000
#
# Coordination Sequence:
#
# PCOD8294773 Si02
#       8
#    16  16  16  16  16  16   8  16
#     4  11  24  42  64  92 123 171 224 262 325 391
#     4   9  19  36  62  93 127 171 207 252 323 389
#     4  11  22  39  64  96 133 166 209 267 328 393
#     4  11  26  44  65  90 129 175 219 277 331 389
#     4  10  21  40  66  96 133 174 216 266 326 395
#     4  10  21  39  65  98 132 166 212 272 321 388
#     4  12  22  42  66  94 134 165 223 266 330 392
#     4  12  25  41  69  97 128 176 226 279 329 389
#
# _framework density 20.449476000000001
#
# number of rings (size 3 to 8) (size 9 to 14) (size 15 to 20)
#    0.000    1.333    2.667    2.800    3.733    2.933 
#    0.000    0.000    0.000    0.000    0.000    0.000 
#    0.000    0.000    0.000    0.000    0.000    0.000 
#
# Total GULP energy -743671.953372 kJ/mol
# GULP energy per Si atom -12394.532556 kJ/mol
# Density = 2.040293 g / cm^3
# Si number density = 20.449476 Si / 1000 Ang^3
#
#
#
# Elastic Constant Matrix: (Units=GPa)
#
#
# Indices 1 2 3 4 5 6 
#
# 1 103.8704 20.8368 46.4564 0.0000 0.0000 0.0000
# 2 20.8368 90.8159 43.1097 0.0000 0.0000 0.0000
# 3 46.4564 43.1097 122.0635 0.0000 0.0000 0.0000
# 4 0.0000 0.0000 0.0000 37.7550 0.0000 0.0000
# 5 0.0000 0.0000 0.0000 0.0000 27.5377 0.0000
# 6 0.0000 0.0000 0.0000 0.0000 0.0000 28.9948
#
#
#
# Elastic Compliance Matrix: (Units=1/GPa)
#
#
# Indices 1 2 3 4 5 6 
#
# 1 0.011637 -0.000682 -0.004188 0.000000 0.000000 0.000000
# 2 -0.000682 0.013269 -0.004427 0.000000 0.000000 0.000000
# 3 -0.004188 -0.004427 0.011350 0.000000 0.000000 0.000000
# 4 0.000000 0.000000 0.000000 0.026487 0.000000 0.000000
# 5 0.000000 0.000000 0.000000 0.000000 0.036314 0.000000
# 6 0.000000 0.000000 0.000000 0.000000 0.000000 0.034489
#
#
# Mechanical properties :
#
#
# Convention : Reuss Voigt Hill
#
# Bulk Modulus (GPa) = 56.61725 59.72840 58.17282
# Shear Modulus (GPa) = 31.64014 32.61397 32.12705
#
# Velocity S-wave (km/s) = 3.93776 3.99790 3.96794
# Velocity P-wave (km/s) = 6.95853 7.11211 7.03574
#
# Compressibility (1/GPa) = 0.01766246
#
# Stress axis : x y z
#
# Youngs Moduli (GPa) = 85.92989 75.36295 88.10653
#
# Poissons Ratio (x) = 0.05139 0.36901
# Poissons Ratio (y) = 0.05860 0.39003
# Poissons Ratio (z) = 0.35990 0.33361
#
# Static dielectric constant tensor:
#      x y z
#    x 4.070170 0.000000 0.000000 
#    y 0.000000 3.538500 0.000000 
#    z 0.000000 0.000000 3.817310 
# 
# 
# High freq. dielectric constant tensor:
#      x y z
#    x 1.805410 0.000000 0.000000 
#    y 0.000000 1.798100 0.000000 
#    z 0.000000 0.000000 1.804830 
# 
# From -- ./inp_files/43578.got.cif
#   From: 2010.03.12/outbox.cif.g09.slc.cpg/sg72_22_cif.got.tgz:43578.got - 2010.04.16 14:54:00.
