data_PCOD8294351
_publ_section_title
;
Structure prediction by ZEFSAII (Michael W. Deem and Ramdas Pophale) SiO2 
 PCOD8294351
Probable space group: I B A M
;
_chemical_formula_sum "Si O2"
_cell_formula_units_Z 120
_cell_length_a 11.056000
_cell_length_b 25.496925
_cell_length_c 22.323050
_cell_angle_alpha 90.000000
_cell_angle_beta 90.000000
_cell_angle_gamma 90.000000
_cell_volume 6292.733919
_symmetry_space_group_name_H-M "I B A M"
_symmetry_group_IT_number 72
_symmetry_cell_setting 'orthorhombic'
loop_
_space_group_symop_operation_xyz
x,y,z
-x,-y,z
x,-y,1/2-z
-x,y,1/2-z
-x,-y,-z
x,y,-z
-x,y,1/2+z
x,-y,1/2+z
1/2+x,1/2+y,1/2+z
1/2-x,1/2-y,1/2+z
1/2+x,1/2-y,-z
1/2-x,1/2+y,-z
1/2-x,1/2-y,1/2-z
1/2+x,1/2+y,1/2-z
1/2-x,1/2+y,z
1/2+x,1/2-y,z
loop_
_atom_site_type_symbol
_atom_site_label
_atom_site_fract_x
_atom_site_fract_y
_atom_site_fract_z
Si Si1 0.948080 0.197227 0.649944
Si Si2 0.876606 0.549652 0.716015
Si Si3 0.500000 0.000000 0.391131
Si Si4 0.213379 0.837113 0.135830
Si Si5 0.258494 0.732748 0.931738
Si Si6 0.950586 0.691754 0.636262
Si Si7 0.104575 0.394735 0.069073
Si Si8 0.745322 0.846271 0.227635
O O1 0.859801 0.192153 0.592424
O O2 0.877547 0.173786 0.707365
O O3 0.067991 0.163258 0.637495
O O4 0.972433 0.258929 0.659600
O O5 0.821203 0.500000 0.750000
O O6 0.904754 0.532530 0.648415
O O7 0.770391 0.592012 0.715591
O O8 0.000000 0.568864 0.750000
O O9 0.568561 0.956137 0.430632
O O10 0.270255 0.787050 0.103350
O O11 0.260186 0.887397 0.097154
O O12 0.268931 0.835658 0.202229
O O13 0.126129 0.708415 0.922262
O O14 0.284121 0.744451 0.000000
O O15 0.862367 0.681718 0.692129
O O16 0.024182 0.640732 0.614949
O O17 0.097916 0.375459 0.000000
#
# Coordination Sequence:
#
# PCOD8294351 Si02
#       8
#    16  16   8  16  16  16  16  16
#     4  10  23  38  56  87 123 161 201 240 288 360
#     4   9  18  34  62  90 120 150 195 254 314 366
#     4  10  20  38  60  92 114 145 195 262 318 360
#     4  11  23  36  57  85 119 159 200 243 292 359
#     4  10  21  38  56  81 118 165 203 237 285 350
#     4  10  22  38  58  87 119 159 196 246 292 362
#     4  12  23  39  60  89 120 154 197 252 309 364
#     4  11  22  38  61  86 122 161 198 250 307 361
#
# _framework density 19.069614000000001
#
# number of rings (size 3 to 8) (size 9 to 14) (size 15 to 20)
#    0.000    1.733    2.667    3.000    0.000    8.533 
#    0.000    0.000    0.000    5.600    0.000    0.933 
#    0.000    0.000    0.000    0.000    0.000    0.000 
#
# Total GULP energy -743653.804196 kJ/mol
# GULP energy per Si atom -12394.230070 kJ/mol
# Density = 1.902621 g / cm^3
# Si number density = 19.069614 Si / 1000 Ang^3
#
#
#
# Elastic Constant Matrix: (Units=GPa)
#
#
# Indices 1 2 3 4 5 6 
#
# 1 83.0755 49.4962 34.1258 0.0000 0.0000 0.0000
# 2 49.4962 109.9303 33.3288 0.0000 0.0000 0.0000
# 3 34.1258 33.3288 125.0365 0.0000 0.0000 0.0000
# 4 0.0000 0.0000 0.0000 23.4177 0.0000 0.0000
# 5 0.0000 0.0000 0.0000 0.0000 13.9505 0.0000
# 6 0.0000 0.0000 0.0000 0.0000 0.0000 31.3125
#
#
#
# Elastic Compliance Matrix: (Units=1/GPa)
#
#
# Indices 1 2 3 4 5 6 
#
# 1 0.017358 -0.006940 -0.002888 0.000000 0.000000 0.000000
# 2 -0.006940 0.012671 -0.001483 0.000000 0.000000 0.000000
# 3 -0.002888 -0.001483 0.009181 0.000000 0.000000 0.000000
# 4 0.000000 0.000000 0.000000 0.042703 0.000000 0.000000
# 5 0.000000 0.000000 0.000000 0.000000 0.071682 0.000000
# 6 0.000000 0.000000 0.000000 0.000000 0.000000 0.031936
#
#
# Mechanical properties :
#
#
# Convention : Reuss Voigt Hill
#
# Bulk Modulus (GPa) = 60.28313 61.32712 60.80513
# Shear Modulus (GPa) = 23.39914 27.14227 25.27070
#
# Velocity S-wave (km/s) = 3.50671 3.77679 3.64425
# Velocity P-wave (km/s) = 6.93374 7.15879 7.04717
#
# Compressibility (1/GPa) = 0.01658839
#
# Stress axis : x y z
#
# Youngs Moduli (GPa) = 57.60924 78.91915 108.91838
#
# Poissons Ratio (x) = 0.54771 0.31452
# Poissons Ratio (y) = 0.39981 0.16157
# Poissons Ratio (z) = 0.16636 0.11707
#
# Static dielectric constant tensor:
#      x y z
#    x 3.602320 0.000000 0.000000 
#    y 0.000000 3.463840 0.000000 
#    z 0.000000 0.000000 3.489700 
# 
# 
# High freq. dielectric constant tensor:
#      x y z
#    x 1.732000 0.000000 0.000000 
#    y 0.000000 1.725470 0.000000 
#    z 0.000000 0.000000 1.746200 
# 
# From -- ./inp_files/37482.got.cif
#   From: 2010.03.12/outbox.cif.g09.slc.cpg/sg72_19_cif.got.tgz:37482.got - 2010.04.16 14:54:00.
