data_PCOD8294700
_publ_section_title
;
Structure prediction by ZEFSAII (Michael W. Deem and Ramdas Pophale) SiO2 
 PCOD8294700
Probable space group: I B A M
;
_chemical_formula_sum "Si O2"
_cell_formula_units_Z 80
_cell_length_a 19.418474
_cell_length_b 22.914135
_cell_length_c 8.944832
_cell_angle_alpha 90.000000
_cell_angle_beta 90.000000
_cell_angle_gamma 90.000000
_cell_volume 3980.070395
_symmetry_space_group_name_H-M "I B A M"
_symmetry_group_IT_number 72
_symmetry_cell_setting 'orthorhombic'
loop_
_space_group_symop_operation_xyz
x,y,z
-x,-y,z
x,-y,1/2-z
-x,y,1/2-z
-x,-y,-z
x,y,-z
-x,y,1/2+z
x,-y,1/2+z
1/2+x,1/2+y,1/2+z
1/2-x,1/2-y,1/2+z
1/2+x,1/2-y,-z
1/2-x,1/2+y,-z
1/2-x,1/2-y,1/2-z
1/2+x,1/2+y,1/2-z
1/2-x,1/2+y,z
1/2+x,1/2-y,z
loop_
_atom_site_type_symbol
_atom_site_label
_atom_site_fract_x
_atom_site_fract_y
_atom_site_fract_z
Si Si1 0.935842 0.938074 0.673549
Si Si2 0.574750 0.848684 0.321095
Si Si3 0.320619 0.751099 0.835085
Si Si4 0.818625 0.881920 0.835126
Si Si5 0.325978 0.937187 0.324103
O O1 0.949604 0.943317 0.500000
O O2 0.862620 0.909323 0.702991
O O3 0.000000 0.903108 0.750000
O O4 0.932920 0.000000 0.750000
O O5 0.500000 0.840701 0.250000
O O6 0.568488 0.852635 0.500000
O O7 0.620304 0.792879 0.266375
O O8 0.608613 0.907819 0.256536
O O9 0.250000 0.750000 0.750000
O O10 0.343997 0.684465 0.838655
O O11 0.305054 0.775303 0.000000
O O12 0.738608 0.893557 0.796731
O O13 0.833704 0.909406 0.000000
O O14 0.341128 0.945155 0.500000
O O15 0.311055 0.000000 0.250000
#
# Coordination Sequence:
#
# PCOD8294700 Si02
#       5
#    16  16  16  16  16
#     4  11  22  37  57  82 117 160 203 251 304 359
#     4  11  24  42  65  93 127 164 208 255 309 368
#     4  10  21  39  64  92 123 159 199 246 299 360
#     4  10  21  38  61  91 125 159 202 251 301 361
#     4  11  23  40  64  92 126 164 208 258 310 369
#
# _framework density 20.100147
#
# number of rings (size 3 to 8) (size 9 to 14) (size 15 to 20)
#    0.000    1.400    2.000    4.200    0.000    6.000 
#    0.000    4.000    0.000    0.000    0.000    0.000 
#    0.000    0.000    0.000    0.000    0.000    0.000 
#
# Total GULP energy -495810.478649 kJ/mol
# GULP energy per Si atom -12395.261966 kJ/mol
# Density = 2.005440 g / cm^3
# Si number density = 20.100147 Si / 1000 Ang^3
#
#
#
# Elastic Constant Matrix: (Units=GPa)
#
#
# Indices 1 2 3 4 5 6 
#
# 1 134.2527 39.7628 60.4782 0.0000 0.0000 0.0000
# 2 39.7628 87.9907 36.0808 0.0000 0.0000 0.0000
# 3 60.4782 36.0808 135.1544 0.0000 0.0000 0.0000
# 4 0.0000 0.0000 0.0000 12.4677 0.0000 0.0000
# 5 0.0000 0.0000 0.0000 0.0000 32.8627 0.0000
# 6 0.0000 0.0000 0.0000 0.0000 0.0000 35.7311
#
#
#
# Elastic Compliance Matrix: (Units=1/GPa)
#
#
# Indices 1 2 3 4 5 6 
#
# 1 0.009993 -0.003012 -0.003667 0.000000 0.000000 0.000000
# 2 -0.003012 0.013670 -0.002302 0.000000 0.000000 0.000000
# 3 -0.003667 -0.002302 0.009654 0.000000 0.000000 0.000000
# 4 0.000000 0.000000 0.000000 0.080208 0.000000 0.000000
# 5 0.000000 0.000000 0.000000 0.000000 0.030430 0.000000
# 6 0.000000 0.000000 0.000000 0.000000 0.000000 0.027987
#
#
# Mechanical properties :
#
#
# Convention : Reuss Voigt Hill
#
# Bulk Modulus (GPa) = 65.12457 70.00459 67.56458
# Shear Modulus (GPa) = 25.63826 30.95069 28.29448
#
# Velocity S-wave (km/s) = 3.57533 3.92832 3.75597
# Velocity P-wave (km/s) = 7.03664 7.44843 7.24546
#
# Compressibility (1/GPa) = 0.01535519
#
# Stress axis : x y z
#
# Youngs Moduli (GPa) = 100.07181 73.15490 103.57906
#
# Poissons Ratio (x) = 0.22033 0.37987
# Poissons Ratio (y) = 0.30140 0.23839
# Poissons Ratio (z) = 0.36701 0.16837
#
# Static dielectric constant tensor:
#      x y z
#    x 5.197950 0.000000 0.000000 
#    y 0.000000 3.985240 0.000000 
#    z 0.000000 0.000000 3.815870 
# 
# 
# High freq. dielectric constant tensor:
#      x y z
#    x 1.788770 0.000000 0.000000 
#    y 0.000000 1.779410 0.000000 
#    z 0.000000 0.000000 1.793580 
# 
# From -- ./inp_files/4813.got.cif
#   From: 2010.03.12/outbox.cif.g09.slc.cpg/sg72_3_cif.got.tgz:4813.got - 2010.04.16 14:54:00.
