data_PCOD8294813
_publ_section_title
;
Structure prediction by ZEFSAII (Michael W. Deem and Ramdas Pophale) SiO2 
 PCOD8294813
Probable space group: I B A M
;
_chemical_formula_sum "Si O2"
_cell_formula_units_Z 68
_cell_length_a 19.235984
_cell_length_b 12.301857
_cell_length_c 13.832300
_cell_angle_alpha 90.000000
_cell_angle_beta 90.000000
_cell_angle_gamma 90.000000
_cell_volume 3273.252295
_symmetry_space_group_name_H-M "I B A M"
_symmetry_group_IT_number 72
_symmetry_cell_setting 'orthorhombic'
loop_
_space_group_symop_operation_xyz
x,y,z
-x,-y,z
x,-y,1/2-z
-x,y,1/2-z
-x,-y,-z
x,y,-z
-x,y,1/2+z
x,-y,1/2+z
1/2+x,1/2+y,1/2+z
1/2-x,1/2-y,1/2+z
1/2+x,1/2-y,-z
1/2-x,1/2+y,-z
1/2-x,1/2-y,1/2-z
1/2+x,1/2+y,1/2-z
1/2-x,1/2+y,z
1/2+x,1/2-y,z
loop_
_atom_site_type_symbol
_atom_site_label
_atom_site_fract_x
_atom_site_fract_y
_atom_site_fract_z
Si Si1 0.056761 0.169556 0.394730
Si Si2 0.470042 0.881594 0.112701
Si Si3 0.209356 0.229966 0.605637
Si Si4 0.673670 0.121126 0.217038
Si Si5 0.000000 0.000000 0.250000
O O1 0.023662 0.140636 0.500000
O O2 0.138894 0.163604 0.404403
O O3 0.027862 0.289258 0.364436
O O4 0.044963 0.077356 0.316695
O O5 0.403136 0.851496 0.177261
O O6 0.500000 0.000000 0.142936
O O7 0.449130 0.883632 0.000000
O O8 0.226722 0.282507 0.500000
O O9 0.271878 0.149089 0.632852
O O10 0.196004 0.318591 0.686244
O O11 0.679552 0.000000 0.250000
#
# Coordination Sequence:
#
# PCOD8294813 Si02
#       5
#    16  16  16  16   4
#     4  10  22  39  61  89 122 163 208 250 307 368
#     4  10  21  40  68 100 129 158 201 263 326 379
#     4  10  23  42  59  85 125 164 204 256 309 370
#     4  11  23  38  64  94 123 158 209 252 316 375
#     4  12  22  36  62  82 124 164 212 258 292 346
#
# _framework density 20.774445
#
# number of rings (size 3 to 8) (size 9 to 14) (size 15 to 20)
#    0.000    1.647    0.000    3.882    1.647    6.118 
#    0.000    0.000    0.000    0.706    0.000    0.000 
#    0.000    0.000    0.000    0.000    0.000    0.000 
#
# Total GULP energy -421334.068706 kJ/mol
# GULP energy per Si atom -12392.178491 kJ/mol
# Density = 2.072716 g / cm^3
# Si number density = 20.774445 Si / 1000 Ang^3
#
#
#
# Elastic Constant Matrix: (Units=GPa)
#
#
# Indices 1 2 3 4 5 6 
#
# 1 119.8898 29.1770 50.5206 0.0000 0.0000 0.0000
# 2 29.1770 88.3951 39.7966 0.0000 0.0000 0.0000
# 3 50.5206 39.7966 134.6803 0.0000 0.0000 0.0000
# 4 0.0000 0.0000 0.0000 32.5829 0.0000 0.0000
# 5 0.0000 0.0000 0.0000 0.0000 33.2740 0.0000
# 6 0.0000 0.0000 0.0000 0.0000 0.0000 29.5742
#
#
#
# Elastic Compliance Matrix: (Units=1/GPa)
#
#
# Indices 1 2 3 4 5 6 
#
# 1 0.010174 -0.001892 -0.003257 0.000000 0.000000 0.000000
# 2 -0.001892 0.013400 -0.003250 0.000000 0.000000 0.000000
# 3 -0.003257 -0.003250 0.009607 0.000000 0.000000 0.000000
# 4 0.000000 0.000000 0.000000 0.030691 0.000000 0.000000
# 5 0.000000 0.000000 0.000000 0.000000 0.030053 0.000000
# 6 0.000000 0.000000 0.000000 0.000000 0.000000 0.033813
#
#
# Mechanical properties :
#
#
# Convention : Reuss Voigt Hill
#
# Bulk Modulus (GPa) = 61.03759 64.66150 62.84954
# Shear Modulus (GPa) = 33.33354 33.98429 33.65892
#
# Velocity S-wave (km/s) = 4.01002 4.04898 4.02955
# Velocity P-wave (km/s) = 7.13339 7.28368 7.20893
#
# Compressibility (1/GPa) = 0.01638335
#
# Stress axis : x y z
#
# Youngs Moduli (GPa) = 98.28954 74.62423 104.08762
#
# Poissons Ratio (x) = 0.14116 0.33906
# Poissons Ratio (y) = 0.18593 0.33830
# Poissons Ratio (z) = 0.32018 0.24254
#
# Static dielectric constant tensor:
#      x y z
#    x 3.887660 0.000000 0.000000 
#    y 0.000000 3.640950 0.000000 
#    z 0.000000 0.000000 4.740590 
# 
# 
# High freq. dielectric constant tensor:
#      x y z
#    x 1.813580 0.000000 0.000000 
#    y 0.000000 1.797000 0.000000 
#    z 0.000000 0.000000 1.847730 
# 
# From -- ./inp_files/23909.got.cif
#   From: 2010.03.12/outbox.cif.g09.slc.cpg/sg72_12_cif.got.tgz:23909.got - 2010.04.16 14:54:00.
