data_PCOD8294656
_publ_section_title
;
Structure prediction by ZEFSAII (Michael W. Deem and Ramdas Pophale) SiO2 
 PCOD8294656
Probable space group: I B A M
;
_chemical_formula_sum "Si O2"
_cell_formula_units_Z 104
_cell_length_a 25.279628
_cell_length_b 23.313154
_cell_length_c 8.851662
_cell_angle_alpha 90.000000
_cell_angle_beta 90.000000
_cell_angle_gamma 90.000000
_cell_volume 5216.708063
_symmetry_space_group_name_H-M "I B A M"
_symmetry_group_IT_number 72
_symmetry_cell_setting 'orthorhombic'
loop_
_space_group_symop_operation_xyz
x,y,z
-x,-y,z
x,-y,1/2-z
-x,y,1/2-z
-x,-y,-z
x,y,-z
-x,y,1/2+z
x,-y,1/2+z
1/2+x,1/2+y,1/2+z
1/2-x,1/2-y,1/2+z
1/2+x,1/2-y,-z
1/2-x,1/2+y,-z
1/2-x,1/2-y,1/2-z
1/2+x,1/2+y,1/2-z
1/2-x,1/2+y,z
1/2+x,1/2-y,z
loop_
_atom_site_type_symbol
_atom_site_label
_atom_site_fract_x
_atom_site_fract_y
_atom_site_fract_z
Si Si1 0.088610 0.770590 0.667681
Si Si2 0.382516 0.838317 0.678786
Si Si3 0.555665 0.061013 0.819245
Si Si4 0.227398 0.692996 0.676319
Si Si5 0.416958 0.556574 0.664379
Si Si6 0.163688 0.854476 0.174863
Si Si7 0.500000 0.354397 0.750000
O O1 0.101288 0.748464 0.500000
O O2 0.079505 0.714891 0.773162
O O3 0.140751 0.801825 0.729480
O O4 0.038223 0.812607 0.656108
O O5 0.386223 0.847566 0.500000
O O6 0.399954 0.894707 0.767710
O O7 0.322667 0.827023 0.728900
O O8 0.500000 0.081517 0.750000
O O9 0.571731 0.000000 0.750000
O O10 0.551893 0.057296 0.000000
O O11 0.213530 0.702669 0.500000
O O12 0.250000 0.750000 0.750000
O O13 0.273003 0.643938 0.692717
O O14 0.435537 0.500000 0.750000
O O15 0.403088 0.533684 0.500000
O O16 0.364046 0.586543 0.733835
O O17 0.463636 0.603757 0.649970
O O18 0.147039 0.844784 0.000000
#
# Coordination Sequence:
#
# PCOD8294656 Si02
#       7
#    16  16  16  16  16  16   8
#     4  11  22  36  57  85 117 155 201 250 304 361
#     4  12  25  40  60  91 128 164 203 249 300 360
#     4  11  23  44  70  96 126 162 203 248 302 365
#     4  11  21  37  61  89 121 160 203 249 307 369
#     4  10  21  38  58  82 113 154 200 246 296 352
#     4   9  20  38  58  81 116 155 193 246 307 361
#     4  10  23  38  56  82 119 156 200 250 306 354
#
# _framework density 19.935943999999999
#
# number of rings (size 3 to 8) (size 9 to 14) (size 15 to 20)
#    0.000    1.385    1.538    4.846    1.077    6.154 
#    0.000    0.769    0.000    1.846    0.000    0.000 
#    0.000    0.000    0.000    0.000    0.000    0.000 
#
# Total GULP energy -644564.653644 kJ/mol
# GULP energy per Si atom -12395.474109 kJ/mol
# Density = 1.989057 g / cm^3
# Si number density = 19.935944 Si / 1000 Ang^3
#
#
#
# Elastic Constant Matrix: (Units=GPa)
#
#
# Indices 1 2 3 4 5 6 
#
# 1 104.7120 62.3097 28.9158 0.0000 0.0000 0.0000
# 2 62.3097 110.3524 45.6765 0.0000 0.0000 0.0000
# 3 28.9158 45.6765 134.2718 0.0000 0.0000 0.0000
# 4 0.0000 0.0000 0.0000 26.8558 0.0000 0.0000
# 5 0.0000 0.0000 0.0000 0.0000 26.6958 0.0000
# 6 0.0000 0.0000 0.0000 0.0000 0.0000 28.0383
#
#
#
# Elastic Compliance Matrix: (Units=1/GPa)
#
#
# Indices 1 2 3 4 5 6 
#
# 1 0.014400 -0.007969 -0.000390 0.000000 0.000000 0.000000
# 2 -0.007969 0.014957 -0.003372 0.000000 0.000000 0.000000
# 3 -0.000390 -0.003372 0.008679 0.000000 0.000000 0.000000
# 4 0.000000 0.000000 0.000000 0.037236 0.000000 0.000000
# 5 0.000000 0.000000 0.000000 0.000000 0.037459 0.000000
# 6 0.000000 0.000000 0.000000 0.000000 0.000000 0.035665
#
#
# Mechanical properties :
#
#
# Convention : Reuss Voigt Hill
#
# Bulk Modulus (GPa) = 68.61898 69.23778 68.92838
# Shear Modulus (GPa) = 28.29382 30.48028 29.38705
#
# Velocity S-wave (km/s) = 3.77136 3.91437 3.84353
# Velocity P-wave (km/s) = 7.31155 7.43204 7.37204
#
# Compressibility (1/GPa) = 0.01457323
#
# Stress axis : x y z
#
# Youngs Moduli (GPa) = 69.44466 66.85633 115.22516
#
# Poissons Ratio (x) = 0.53280 0.04494
# Poissons Ratio (y) = 0.55343 0.38854
# Poissons Ratio (z) = 0.02709 0.22544
#
# Static dielectric constant tensor:
#      x y z
#    x 3.856690 0.000000 0.000000 
#    y 0.000000 3.659470 0.000000 
#    z 0.000000 0.000000 3.611540 
# 
# 
# High freq. dielectric constant tensor:
#      x y z
#    x 1.778380 0.000000 0.000000 
#    y 0.000000 1.769890 0.000000 
#    z 0.000000 0.000000 1.784570 
# 
# From -- ./inp_files/7192.got.cif
#   From: 2010.03.12/outbox.cif.g09.slc.cpg/sg72_4_cif.got.tgz:7192.got - 2010.04.16 14:54:00.
