data_PCOD8294521
_publ_section_title
;
Structure prediction by ZEFSAII (Michael W. Deem and Ramdas Pophale) SiO2 
 PCOD8294521
Probable space group: I B A M
;
_chemical_formula_sum "Si O2"
_cell_formula_units_Z 64
_cell_length_a 24.872239
_cell_length_b 4.909536
_cell_length_c 26.561857
_cell_angle_alpha 90.000000
_cell_angle_beta 90.000000
_cell_angle_gamma 90.000000
_cell_volume 3243.498978
_symmetry_space_group_name_H-M "I B A M"
_symmetry_group_IT_number 72
_symmetry_cell_setting 'orthorhombic'
loop_
_space_group_symop_operation_xyz
x,y,z
-x,-y,z
x,-y,1/2-z
-x,y,1/2-z
-x,-y,-z
x,y,-z
-x,y,1/2+z
x,-y,1/2+z
1/2+x,1/2+y,1/2+z
1/2-x,1/2-y,1/2+z
1/2+x,1/2-y,-z
1/2-x,1/2+y,-z
1/2-x,1/2-y,1/2-z
1/2+x,1/2+y,1/2-z
1/2-x,1/2+y,z
1/2+x,1/2-y,z
loop_
_atom_site_type_symbol
_atom_site_label
_atom_site_fract_x
_atom_site_fract_y
_atom_site_fract_z
Si Si1 0.606433 0.610836 0.147407
Si Si2 0.556466 0.909661 0.307178
Si Si3 0.213828 0.962601 0.306815
Si Si4 0.537140 0.245249 0.555363
O O1 0.567852 0.406516 0.179887
O O2 0.667689 0.509696 0.151482
O O3 0.586718 0.655679 0.090273
O O4 0.604843 0.912425 0.170523
O O5 0.500000 0.000000 0.332703
O O6 0.553634 0.000000 0.250000
O O7 0.264515 0.159458 0.314913
O O8 0.190086 0.000000 0.250000
O O9 0.500000 0.500000 0.548549
O O10 0.560039 0.159820 0.500000
O O11 0.500000 0.000000 0.577611
#
# Coordination Sequence:
#
# PCOD8294521 Si02
#       4
#    16  16  16  16
#     4  12  21  35  57  77 106 147 186 223 276 333
#     4  11  22  33  49  79 114 143 174 215 270 341
#     4  10  21  36  53  75 104 140 185 232 275 325
#     4  10  21  37  57  83 113 144 183 230 279 335
#
# _framework density 19.731774999999999
#
# number of rings (size 3 to 8) (size 9 to 14) (size 15 to 20)
#    0.000    1.250    0.000    8.250    0.000    4.000 
#    0.000    0.000    0.000    1.500    0.000    0.000 
#    0.000    0.000    0.000    0.000    0.000    0.000 
#
# Total GULP energy -396535.836020 kJ/mol
# GULP energy per Si atom -12391.744876 kJ/mol
# Density = 1.968686 g / cm^3
# Si number density = 19.731775 Si / 1000 Ang^3
#
#
#
# Elastic Constant Matrix: (Units=GPa)
#
#
# Indices 1 2 3 4 5 6 
#
# 1 92.2303 6.0754 43.3918 0.0000 0.0000 0.0000
# 2 6.0754 78.3464 19.0395 0.0000 0.0000 0.0000
# 3 43.3918 19.0395 121.0067 0.0000 0.0000 0.0000
# 4 0.0000 0.0000 0.0000 26.8126 0.0000 0.0000
# 5 0.0000 0.0000 0.0000 0.0000 29.9608 0.0000
# 6 0.0000 0.0000 0.0000 0.0000 0.0000 27.4303
#
#
#
# Elastic Compliance Matrix: (Units=1/GPa)
#
#
# Indices 1 2 3 4 5 6 
#
# 1 0.013044 0.000130 -0.004698 0.000000 0.000000 0.000000
# 2 0.000130 0.013273 -0.002135 0.000000 0.000000 0.000000
# 3 -0.004698 -0.002135 0.010285 0.000000 0.000000 0.000000
# 4 0.000000 0.000000 0.000000 0.037296 0.000000 0.000000
# 5 0.000000 0.000000 0.000000 0.000000 0.033377 0.000000
# 6 0.000000 0.000000 0.000000 0.000000 0.000000 0.036456
#
#
# Mechanical properties :
#
#
# Convention : Reuss Voigt Hill
#
# Bulk Modulus (GPa) = 43.11153 47.62186 45.36669
# Shear Modulus (GPa) = 30.32737 31.71253 31.01995
#
# Velocity S-wave (km/s) = 3.92469 4.01332 3.96925
# Velocity P-wave (km/s) = 6.51412 6.75741 6.63688
#
# Compressibility (1/GPa) = 0.02319565
#
# Stress axis : x y z
#
# Youngs Moduli (GPa) = 76.66288 75.34329 97.23293
#
# Poissons Ratio (x) = -0.00981 0.45680
# Poissons Ratio (y) = -0.00998 0.20759
# Poissons Ratio (z) = 0.36016 0.16086
#
# Static dielectric constant tensor:
#      x y z
#    x 3.380370 0.000000 0.000000 
#    y 0.000000 3.766990 0.000000 
#    z 0.000000 0.000000 3.872680 
# 
# 
# High freq. dielectric constant tensor:
#      x y z
#    x 1.741920 0.000000 0.000000 
#    y 0.000000 1.793860 0.000000 
#    z 0.000000 0.000000 1.749870 
# 
# From -- ./inp_files/41393.got.cif
#   From: 2010.03.12/outbox.cif.g09.slc.cpg/sg72_21_cif.got.tgz:41393.got - 2010.04.16 14:54:00.
