data_PCOD8294496
_publ_section_title
;
Structure prediction by ZEFSAII (Michael W. Deem and Ramdas Pophale) SiO2 
 PCOD8294496
Probable space group: I B A M
;
_chemical_formula_sum "Si O2"
_cell_formula_units_Z 96
_cell_length_a 26.732941
_cell_length_b 20.133952
_cell_length_c 10.007768
_cell_angle_alpha 90.000000
_cell_angle_beta 90.000000
_cell_angle_gamma 90.000000
_cell_volume 5386.578556
_symmetry_space_group_name_H-M "I B A M"
_symmetry_group_IT_number 72
_symmetry_cell_setting 'orthorhombic'
loop_
_space_group_symop_operation_xyz
x,y,z
-x,-y,z
x,-y,1/2-z
-x,y,1/2-z
-x,-y,-z
x,y,-z
-x,y,1/2+z
x,-y,1/2+z
1/2+x,1/2+y,1/2+z
1/2-x,1/2-y,1/2+z
1/2+x,1/2-y,-z
1/2-x,1/2+y,-z
1/2-x,1/2-y,1/2-z
1/2+x,1/2+y,1/2-z
1/2-x,1/2+y,z
1/2+x,1/2-y,z
loop_
_atom_site_type_symbol
_atom_site_label
_atom_site_fract_x
_atom_site_fract_y
_atom_site_fract_z
Si Si1 0.682400 0.802226 0.000000
Si Si2 0.319736 0.402398 0.265412
Si Si3 0.925734 0.944022 0.848368
Si Si4 0.542833 0.703901 0.347181
Si Si5 0.768747 0.067066 0.000000
Si Si6 0.254884 0.923162 0.500000
Si Si7 0.280061 0.209723 0.500000
Si Si8 0.350749 0.745735 0.234728
O O1 0.732843 0.758398 0.000000
O O2 0.649019 0.787881 0.129784
O O3 0.694271 0.880810 0.000000
O O4 0.366126 0.440137 0.331268
O O5 0.304015 0.439134 0.129565
O O6 0.274786 0.401200 0.368843
O O7 0.333069 0.327545 0.226923
O O8 0.949543 0.873421 0.811974
O O9 0.948385 0.000000 0.750000
O O10 0.937980 0.964981 0.000000
O O11 0.500000 0.732482 0.250000
O O12 0.525560 0.712601 0.500000
O O13 0.593650 0.745004 0.325765
O O14 0.735777 0.132984 0.000000
O O15 0.733146 0.001872 0.000000
O O16 0.312781 0.221756 0.369229
#
# Coordination Sequence:
#
# PCOD8294496 Si02
#       8
#     8  16  16  16   8   8   8  16
#     4  12  22  34  59  82 111 154 188 227 268 339
#     4  11  20  34  50  74 110 150 193 233 267 314
#     4  10  21  35  52  75 106 146 186 231 283 328
#     4  10  23  41  60  80 108 139 181 244 294 330
#     4  12  24  32  50  80 112 152 193 227 268 320
#     4  12  22  34  50  76 116 150 185 229 268 314
#     4  12  20  38  57  80 115 152 192 227 272 333
#     4  11  21  38  58  83 108 148 194 233 275 329
#
# _framework density 17.822074000000001
#
# number of rings (size 3 to 8) (size 9 to 14) (size 15 to 20)
#    0.000    1.000    5.000    3.000    2.333    1.000 
#    0.000    1.667    0.000    0.000    0.000    0.000 
#    0.000    4.000    0.000    0.000    0.000    0.000 
#
# Total GULP energy -595372.310391 kJ/mol
# GULP energy per Si atom -12403.589800 kJ/mol
# Density = 1.778151 g / cm^3
# Si number density = 17.822074 Si / 1000 Ang^3
#
#
#
# Elastic Constant Matrix: (Units=GPa)
#
#
# Indices 1 2 3 4 5 6 
#
# 1 61.1885 19.0292 26.9262 0.0000 0.0000 0.0000
# 2 19.0292 74.7805 11.4479 0.0000 0.0000 0.0000
# 3 26.9262 11.4479 117.8489 0.0000 0.0000 0.0000
# 4 0.0000 0.0000 0.0000 21.8559 0.0000 0.0000
# 5 0.0000 0.0000 0.0000 0.0000 27.9186 0.0000
# 6 0.0000 0.0000 0.0000 0.0000 0.0000 8.2685
#
#
#
# Elastic Compliance Matrix: (Units=1/GPa)
#
#
# Indices 1 2 3 4 5 6 
#
# 1 0.019463 -0.004336 -0.004026 0.000000 0.000000 0.000000
# 2 -0.004336 0.014540 -0.000422 0.000000 0.000000 0.000000
# 3 -0.004026 -0.000422 0.009446 0.000000 0.000000 0.000000
# 4 0.000000 0.000000 0.000000 0.045754 0.000000 0.000000
# 5 0.000000 0.000000 0.000000 0.000000 0.035818 0.000000
# 6 0.000000 0.000000 0.000000 0.000000 0.000000 0.120942
#
#
# Mechanical properties :
#
#
# Convention : Reuss Voigt Hill
#
# Bulk Modulus (GPa) = 38.63667 40.95829 39.79748
# Shear Modulus (GPa) = 18.37161 24.70289 21.53725
#
# Velocity S-wave (km/s) = 3.21414 3.72705 3.48006
# Velocity P-wave (km/s) = 5.95823 6.44615 6.20699
#
# Compressibility (1/GPa) = 0.02588215
#
# Stress axis : x y z
#
# Youngs Moduli (GPa) = 51.37939 68.77343 105.86276
#
# Poissons Ratio (x) = 0.29823 0.42617
# Poissons Ratio (y) = 0.22280 0.04464
# Poissons Ratio (z) = 0.20684 0.02900
#
# Static dielectric constant tensor:
#      x y z
#    x 3.097070 0.000000 0.000000 
#    y 0.000000 3.253590 0.000000 
#    z 0.000000 0.000000 3.406730 
# 
# 
# High freq. dielectric constant tensor:
#      x y z
#    x 1.661070 0.000000 0.000000 
#    y 0.000000 1.666890 0.000000 
#    z 0.000000 0.000000 1.712570 
# 
# From -- ./inp_files/8315.got.cif
#   From: 2010.03.12/outbox.cif.g09.slc.cpg/sg72_5_cif.got.tgz:8315.got - 2010.04.16 14:54:00.
