data_PCOD8294831
_publ_section_title
;
Structure prediction by ZEFSAII (Michael W. Deem and Ramdas Pophale) SiO2 
 PCOD8294831
Probable space group: I B A M
;
_chemical_formula_sum "Si O2"
_cell_formula_units_Z 116
_cell_length_a 16.254370
_cell_length_b 19.385527
_cell_length_c 18.319053
_cell_angle_alpha 90.000000
_cell_angle_beta 90.000000
_cell_angle_gamma 90.000000
_cell_volume 5772.324963
_symmetry_space_group_name_H-M "I B A M"
_symmetry_group_IT_number 72
_symmetry_cell_setting 'orthorhombic'
loop_
_space_group_symop_operation_xyz
x,y,z
-x,-y,z
x,-y,1/2-z
-x,y,1/2-z
-x,-y,-z
x,y,-z
-x,y,1/2+z
x,-y,1/2+z
1/2+x,1/2+y,1/2+z
1/2-x,1/2-y,1/2+z
1/2+x,1/2-y,-z
1/2-x,1/2+y,-z
1/2-x,1/2-y,1/2-z
1/2+x,1/2+y,1/2-z
1/2-x,1/2+y,z
1/2+x,1/2-y,z
loop_
_atom_site_type_symbol
_atom_site_label
_atom_site_fract_x
_atom_site_fract_y
_atom_site_fract_z
Si Si1 0.081020 0.335008 0.346744
Si Si2 0.895817 0.337915 0.679821
Si Si3 0.944481 0.810619 0.416245
Si Si4 0.768660 0.409124 0.086221
Si Si5 0.377694 0.606816 0.293464
Si Si6 0.213200 0.462338 0.818288
Si Si7 0.120436 0.183839 0.854539
Si Si8 0.000000 0.000000 0.250000
O O1 0.117893 0.324799 0.265969
O O2 0.075411 0.266621 0.393906
O O3 0.139673 0.386807 0.390539
O O4 0.987970 0.361906 0.339404
O O5 0.842846 0.401645 0.648859
O O6 0.866388 0.266619 0.642128
O O7 0.923980 0.822542 0.500000
O O8 0.879510 0.855396 0.370812
O O9 0.038696 0.832850 0.400768
O O10 0.755869 0.485531 0.119202
O O11 0.699693 0.355031 0.113338
O O12 0.762216 0.414862 0.000000
O O13 0.289765 0.574014 0.278677
O O14 0.398574 0.659531 0.227910
O O15 0.444385 0.546688 0.301747
O O16 0.166844 0.500000 0.750000
#
# Coordination Sequence:
#
# PCOD8294831 Si02
#       8
#    16  16  16  16  16  16  16   4
#     4  10  21  41  66  97 127 159 215 273 320 382
#     4  10  22  40  70 100 120 162 227 276 313 371
#     4  11  23  39  62  96 132 167 210 269 332 385
#     4  12  26  44  65  95 136 175 208 260 336 398
#     4  12  22  38  66  92 129 170 220 269 314 382
#     4  12  24  42  63  97 130 170 219 268 317 386
#     4  11  21  42  68  94 126 171 222 268 318 387
#     4  12  20  36  58  96 120 174 220 256 316 368
#
# _framework density 20.095889
#
# number of rings (size 3 to 8) (size 9 to 14) (size 15 to 20)
#    0.000    0.828    6.207    0.828    1.931    2.207 
#    0.000    5.172    0.000    0.000    0.000    0.000 
#    0.000    0.000    0.000    0.000    0.000    0.000 
#
# Total GULP energy -719145.605810 kJ/mol
# GULP energy per Si atom -12399.062169 kJ/mol
# Density = 2.005015 g / cm^3
# Si number density = 20.095889 Si / 1000 Ang^3
#
#
#
# Elastic Constant Matrix: (Units=GPa)
#
#
# Indices 1 2 3 4 5 6 
#
# 1 66.7790 40.2889 17.2728 0.0000 0.0000 0.0000
# 2 40.2889 99.5586 28.5727 0.0000 0.0000 0.0000
# 3 17.2728 28.5727 120.9486 0.0000 0.0000 0.0000
# 4 0.0000 0.0000 0.0000 23.6336 0.0000 0.0000
# 5 0.0000 0.0000 0.0000 0.0000 23.7319 0.0000
# 6 0.0000 0.0000 0.0000 0.0000 0.0000 26.5732
#
#
#
# Elastic Compliance Matrix: (Units=1/GPa)
#
#
# Indices 1 2 3 4 5 6 
#
# 1 0.019926 -0.007774 -0.001009 0.000000 0.000000 0.000000
# 2 -0.007774 0.013808 -0.002152 0.000000 0.000000 0.000000
# 3 -0.001009 -0.002152 0.008920 0.000000 0.000000 0.000000
# 4 0.000000 0.000000 0.000000 0.042313 0.000000 0.000000
# 5 0.000000 0.000000 0.000000 0.000000 0.042137 0.000000
# 6 0.000000 0.000000 0.000000 0.000000 0.000000 0.037632
#
#
# Mechanical properties :
#
#
# Convention : Reuss Voigt Hill
#
# Bulk Modulus (GPa) = 48.11268 51.06167 49.58718
# Shear Modulus (GPa) = 25.83529 28.19787 27.01658
#
# Velocity S-wave (km/s) = 3.58942 3.74995 3.67056
# Velocity P-wave (km/s) = 6.41655 6.64934 6.53398
#
# Compressibility (1/GPa) = 0.02078454
#
# Stress axis : x y z
#
# Youngs Moduli (GPa) = 50.18589 72.42298 112.10247
#
# Poissons Ratio (x) = 0.56301 0.11313
# Poissons Ratio (y) = 0.39014 0.24121
# Poissons Ratio (z) = 0.05065 0.15583
#
# Static dielectric constant tensor:
#      x y z
#    x 3.756780 0.000000 0.000000 
#    y 0.000000 3.781140 0.000000 
#    z 0.000000 0.000000 3.471770 
# 
# 
# High freq. dielectric constant tensor:
#      x y z
#    x 1.787940 0.000000 0.000000 
#    y 0.000000 1.792420 0.000000 
#    z 0.000000 0.000000 1.765770 
# 
# From -- ./inp_files/31744.got.cif
#   From: 2010.03.12/outbox.cif.g09.slc.cpg/sg72_16_cif.got.tgz:31744.got - 2010.04.16 14:54:00.
