data_PCOD8294611
_publ_section_title
;
Structure prediction by ZEFSAII (Michael W. Deem and Ramdas Pophale) SiO2 
 PCOD8294611
Probable space group: I B A M
;
_chemical_formula_sum "Si O2"
_cell_formula_units_Z 116
_cell_length_a 13.609547
_cell_length_b 28.318782
_cell_length_c 14.680846
_cell_angle_alpha 90.000000
_cell_angle_beta 90.000000
_cell_angle_gamma 90.000000
_cell_volume 5658.083118
_symmetry_space_group_name_H-M "I B A M"
_symmetry_group_IT_number 72
_symmetry_cell_setting 'orthorhombic'
loop_
_space_group_symop_operation_xyz
x,y,z
-x,-y,z
x,-y,1/2-z
-x,y,1/2-z
-x,-y,-z
x,y,-z
-x,y,1/2+z
x,-y,1/2+z
1/2+x,1/2+y,1/2+z
1/2-x,1/2-y,1/2+z
1/2+x,1/2-y,-z
1/2-x,1/2+y,-z
1/2-x,1/2-y,1/2-z
1/2+x,1/2+y,1/2-z
1/2-x,1/2+y,z
1/2+x,1/2-y,z
loop_
_atom_site_type_symbol
_atom_site_label
_atom_site_fract_x
_atom_site_fract_y
_atom_site_fract_z
Si Si1 0.197306 0.277060 0.169667
Si Si2 0.627120 0.334068 0.396818
Si Si3 0.416730 0.310553 0.394449
Si Si4 0.746612 0.421942 0.607084
Si Si5 0.887260 0.372623 0.263440
Si Si6 0.746153 0.618868 0.396725
Si Si7 0.500000 0.500000 0.250000
Si Si8 0.353128 0.478980 0.602719
O O1 0.250000 0.250000 0.250000
O O2 0.287206 0.295044 0.107684
O O3 0.124252 0.242025 0.117620
O O4 0.128357 0.320135 0.198682
O O5 0.599648 0.343287 0.500000
O O6 0.525475 0.316793 0.348276
O O7 0.665429 0.384079 0.357232
O O8 0.426093 0.321786 0.500000
O O9 0.341261 0.349150 0.352980
O O10 0.771608 0.415321 0.500000
O O11 0.843451 0.411927 0.667245
O O12 0.705879 0.473706 0.628476
O O13 0.841982 0.374298 0.162987
O O14 0.000000 0.384662 0.250000
O O15 0.769473 0.635290 0.500000
O O16 0.721276 0.563939 0.394083
O O17 0.564815 0.531225 0.320156
O O18 0.398592 0.483122 0.500000
#
# Coordination Sequence:
#
# PCOD8294611 Si02
#       8
#    16  16  16  16  16  16   4  16
#     4  11  22  37  55  83 119 152 195 246 301 361
#     4   9  20  37  58  83 113 154 200 244 296 359
#     4  10  21  37  60  85 116 159 201 245 301 360
#     4   9  20  42  64  88 125 162 202 253 305 365
#     4  11  24  41  63  92 119 154 209 258 311 367
#     4  10  22  42  61  88 126 161 203 255 304 360
#     4  12  22  32  56  94 130 164 210 240 308 350
#     4  10  22  39  62  90 128 168 208 254 304 368
#
# _framework density 20.501643000000001
#
# number of rings (size 3 to 8) (size 9 to 14) (size 15 to 20)
#    0.000    1.931    1.379    1.448    3.862    1.103 
#    0.000    1.379    0.000    2.483    0.000    0.000 
#    0.000    0.000    0.000    0.000    0.000    0.000 
#
# Total GULP energy -718970.918040 kJ/mol
# GULP energy per Si atom -12396.050311 kJ/mol
# Density = 2.045498 g / cm^3
# Si number density = 20.501643 Si / 1000 Ang^3
#
#
#
# Elastic Constant Matrix: (Units=GPa)
#
#
# Indices 1 2 3 4 5 6 
#
# 1 168.9771 58.0311 54.2117 0.0000 0.0000 0.0000
# 2 58.0311 129.1741 24.4428 -0.0002 0.0000 0.0000
# 3 54.2117 24.4428 77.5140 -0.0015 0.0001 0.0002
# 4 0.0000 -0.0002 -0.0015 26.5251 0.0000 0.0001
# 5 0.0000 0.0000 0.0001 0.0000 31.3635 -0.0001
# 6 0.0000 0.0000 0.0002 0.0001 -0.0001 9.1441
#
#
#
# Elastic Compliance Matrix: (Units=1/GPa)
#
#
# Indices 1 2 3 4 5 6 
#
# 1 0.008528 -0.002874 -0.005058 0.000000 0.000000 0.000000
# 2 -0.002874 0.009201 -0.000892 0.000000 0.000000 0.000000
# 3 -0.005058 -0.000892 0.016719 0.000001 0.000000 0.000000
# 4 0.000000 0.000000 0.000001 0.037700 0.000000 0.000000
# 5 0.000000 0.000000 0.000000 0.000000 0.031884 0.000000
# 6 0.000000 0.000000 0.000000 0.000000 0.000000 0.109360
#
#
# Mechanical properties :
#
#
# Convention : Reuss Voigt Hill
#
# Bulk Modulus (GPa) = 59.51754 72.11516 65.81635
# Shear Modulus (GPa) = 21.12915 29.33851 25.23383
#
# Velocity S-wave (km/s) = 3.21379 3.78700 3.51211
# Velocity P-wave (km/s) = 6.54713 7.37384 6.97275
#
# Compressibility (1/GPa) = 0.01680177
#
# Stress axis : x y z
#
# Youngs Moduli (GPa) = 117.26629 108.68036 59.81100
#
# Poissons Ratio (x) = 0.31234 0.30251
# Poissons Ratio (y) = 0.33702 0.05332
# Poissons Ratio (z) = 0.59311 0.09689
#
# Static dielectric constant tensor:
#      x y z
#    x 3.803230 0.000000 0.000000 
#    y 0.000000 3.783920 0.000010 
#    z 0.000000 0.000010 3.828980 
# 
# 
# High freq. dielectric constant tensor:
#      x y z
#    x 1.787430 0.000000 0.000000 
#    y 0.000000 1.802740 0.000000 
#    z 0.000000 0.000000 1.809450 
# 
# From -- ./inp_files/29729.got.cif
#   From: 2010.03.12/outbox.cif.g09.slc.cpg/sg72_15_cif.got.tgz:29729.got - 2010.04.16 14:54:00.
