data_PCOD8294213
_publ_section_title
;
Structure prediction by ZEFSAII (Michael W. Deem and Ramdas Pophale) SiO2 
 PCOD8294213
Probable space group: I B A M
;
_chemical_formula_sum "Si O2"
_cell_formula_units_Z 80
_cell_length_a 7.121928
_cell_length_b 25.551962
_cell_length_c 17.553129
_cell_angle_alpha 90.000000
_cell_angle_beta 90.000000
_cell_angle_gamma 90.000000
_cell_volume 3194.304963
_symmetry_space_group_name_H-M "I B A M"
_symmetry_group_IT_number 72
_symmetry_cell_setting 'orthorhombic'
loop_
_space_group_symop_operation_xyz
x,y,z
-x,-y,z
x,-y,1/2-z
-x,y,1/2-z
-x,-y,-z
x,y,-z
-x,y,1/2+z
x,-y,1/2+z
1/2+x,1/2+y,1/2+z
1/2-x,1/2-y,1/2+z
1/2+x,1/2-y,-z
1/2-x,1/2+y,-z
1/2-x,1/2-y,1/2-z
1/2+x,1/2+y,1/2-z
1/2-x,1/2+y,z
1/2+x,1/2-y,z
loop_
_atom_site_type_symbol
_atom_site_label
_atom_site_fract_x
_atom_site_fract_y
_atom_site_fract_z
Si Si1 0.075884 0.391906 0.163633
Si Si2 0.909841 0.178385 0.414776
Si Si3 0.979099 0.073656 0.837647
Si Si4 0.484650 0.792699 0.914867
Si Si5 0.669959 0.965860 0.088505
O O1 0.255126 0.430502 0.144764
O O2 0.132743 0.332050 0.140835
O O3 0.000000 0.396004 0.250000
O O4 0.905411 0.407565 0.106923
O O5 0.984570 0.164506 0.500000
O O6 0.961914 0.132449 0.357436
O O7 0.689925 0.184782 0.417101
O O8 0.995469 0.233287 0.384013
O O9 0.117878 0.030316 0.877260
O O10 0.000000 0.063482 0.750000
O O11 0.392709 0.792235 0.000000
O O12 0.500000 0.000000 0.126154
O O13 0.689190 0.977941 0.000000
#
# Coordination Sequence:
#
# PCOD8294213 Si02
#       5
#    16  16  16  16  16
#     4  12  24  43  69 103 146 192 239 301 370 430
#     4  10  20  36  61  97 142 192 246 296 354 428
#     4  12  24  44  70 104 142 190 239 296 372 436
#     4  10  20  36  60  96 142 193 245 298 354 425
#     4  11  26  49  75 105 141 185 243 304 366 440
#
# _framework density 25.04457
#
# number of rings (size 3 to 8) (size 9 to 14) (size 15 to 20)
#    0.000    1.000    4.000    2.400    0.000    6.800 
#    0.000    7.000    0.000    0.000    0.000    0.000 
#    0.000    0.000    0.000    0.000    0.000    0.000 
#
# Total GULP energy -495612.649759 kJ/mol
# GULP energy per Si atom -12390.316244 kJ/mol
# Density = 2.498757 g / cm^3
# Si number density = 25.044570 Si / 1000 Ang^3
#
#
#
# Elastic Constant Matrix: (Units=GPa)
#
#
# Indices 1 2 3 4 5 6 
#
# 1 137.1882 47.9787 53.0694 -0.0001 0.0002 0.0000
# 2 47.9787 50.6519 12.6737 -0.0005 0.0008 0.0000
# 3 53.0694 12.6737 83.4641 -0.0009 0.0031 0.0000
# 4 -0.0001 -0.0005 -0.0009 85.5582 0.0025 0.0000
# 5 0.0002 0.0008 0.0031 0.0025 189.6374 0.0000
# 6 0.0000 0.0000 0.0000 0.0000 0.0000 49.8661
#
#
#
# Elastic Compliance Matrix: (Units=1/GPa)
#
#
# Indices 1 2 3 4 5 6 
#
# 1 0.014136 -0.011581 -0.007230 0.000000 0.000000 0.000000
# 2 -0.011581 0.030010 0.002807 0.000000 0.000000 0.000000
# 3 -0.007230 0.002807 0.016152 0.000000 0.000000 0.000000
# 4 0.000000 0.000000 0.000000 0.011688 0.000000 0.000000
# 5 0.000000 0.000000 0.000000 0.000000 0.005273 0.000000
# 6 0.000000 0.000000 0.000000 0.000000 0.000000 0.020054
#
#
# Mechanical properties :
#
#
# Convention : Reuss Voigt Hill
#
# Bulk Modulus (GPa) = 35.34798 55.41642 45.38220
# Shear Modulus (GPa) = 36.03548 75.51783 55.77665
#
# Velocity S-wave (km/s) = 3.79734 5.49717 4.72433
# Velocity P-wave (km/s) = 5.77677 7.90360 6.92235
#
# Compressibility (1/GPa) = 0.02829016
#
# Stress axis : x y z
#
# Youngs Moduli (GPa) = 70.73969 33.32180 61.91200
#
# Poissons Ratio (x) = 0.38591 0.44761
# Poissons Ratio (y) = 0.81926 -0.17378
# Poissons Ratio (z) = 0.51143 -0.09353
#
# Static dielectric constant tensor:
#      x y z
#    x 5.019980 0.000000 0.000000 
#    y 0.000000 4.976630 0.000000 
#    z 0.000000 0.000000 4.245420 
# 
# 
# High freq. dielectric constant tensor:
#      x y z
#    x 2.024480 0.000000 0.000000 
#    y 0.000000 2.021440 0.000000 
#    z 0.000000 0.000000 1.960380 
# 
# From -- ./inp_files/28180.got.cif
#   From: 2010.03.12/outbox.cif.g09.slc.cpg/sg72_15_cif.got.tgz:28180.got - 2010.04.16 14:54:00.
