data_PCOD8294367
_publ_section_title
;
Structure prediction by ZEFSAII (Michael W. Deem and Ramdas Pophale) SiO2 
 PCOD8294367
Probable space group: I B A M
;
_chemical_formula_sum "Si O2"
_cell_formula_units_Z 96
_cell_length_a 22.222092
_cell_length_b 13.622205
_cell_length_c 14.190126
_cell_angle_alpha 90.000000
_cell_angle_beta 90.000000
_cell_angle_gamma 90.000000
_cell_volume 4295.548280
_symmetry_space_group_name_H-M "I B A M"
_symmetry_group_IT_number 72
_symmetry_cell_setting 'orthorhombic'
loop_
_space_group_symop_operation_xyz
x,y,z
-x,-y,z
x,-y,1/2-z
-x,y,1/2-z
-x,-y,-z
x,y,-z
-x,y,1/2+z
x,-y,1/2+z
1/2+x,1/2+y,1/2+z
1/2-x,1/2-y,1/2+z
1/2+x,1/2-y,-z
1/2-x,1/2+y,-z
1/2-x,1/2-y,1/2-z
1/2+x,1/2+y,1/2-z
1/2-x,1/2+y,z
1/2+x,1/2-y,z
loop_
_atom_site_type_symbol
_atom_site_label
_atom_site_fract_x
_atom_site_fract_y
_atom_site_fract_z
Si Si1 0.633316 0.154423 0.500000
Si Si2 0.170528 0.123525 0.500000
Si Si3 0.088065 0.093847 0.199864
Si Si4 0.930520 0.022017 0.500000
Si Si5 0.791220 0.871501 0.699530
Si Si6 0.493700 0.117560 0.500000
Si Si7 0.324905 0.146854 0.799885
Si Si8 0.056117 0.313917 0.805340
O O1 0.660953 0.261520 0.500000
O O2 0.560866 0.161558 0.500000
O O3 0.657321 0.102939 0.596591
O O4 0.205870 0.086049 0.592808
O O5 0.103029 0.081496 0.500000
O O6 0.088687 0.086309 0.088259
O O7 0.156080 0.088279 0.235442
O O8 0.057257 0.197936 0.221674
O O9 0.054339 0.000000 0.250000
O O10 0.000000 0.000000 0.500000
O O11 0.729596 0.909727 0.748121
O O12 0.799201 0.755567 0.689311
O O13 0.454289 0.159098 0.413741
O O14 0.500000 0.000000 0.500000
O O15 0.382384 0.137467 0.731279
O O16 0.000000 0.360684 0.750000
#
# Coordination Sequence:
#
# PCOD8294367 Si02
#       8
#     8   8  16   8  16   8  16  16
#     4  10  20  39  64  97 120 167 223 278 356 411
#     4  10  20  38  62  91 135 177 222 271 335 409
#     4  11  24  40  62 102 144 184 225 275 336 426
#     4  12  27  35  58  98 147 190 223 261 325 411
#     4   9  19  38  63  91 132 178 230 277 336 401
#     4  12  27  46  68  93 136 175 230 304 350 411
#     4   9  19  38  67  96 122 177 226 282 345 422
#     4  11  24  42  69  98 137 178 227 288 362 421
#
# _framework density 22.348718000000002
#
# number of rings (size 3 to 8) (size 9 to 14) (size 15 to 20)
#    0.000    1.667    3.333    0.500    4.667    1.667 
#    0.000    6.667    3.667    0.000    0.000    0.000 
#    0.000    0.000    0.000    0.000    0.000    0.000 
#
# Total GULP energy -594846.532855 kJ/mol
# GULP energy per Si atom -12392.636101 kJ/mol
# Density = 2.229785 g / cm^3
# Si number density = 22.348718 Si / 1000 Ang^3
#
#
#
# Elastic Constant Matrix: (Units=GPa)
#
#
# Indices 1 2 3 4 5 6 
#
# 1 169.3162 11.4741 106.5692 0.0000 0.0000 0.0000
# 2 11.4741 50.8334 8.6730 0.0000 0.0000 0.0000
# 3 106.5692 8.6730 216.4349 0.0000 0.0000 0.0000
# 4 0.0000 0.0000 0.0000 25.9448 0.0000 0.0000
# 5 0.0000 0.0000 0.0000 0.0000 26.0777 0.0000
# 6 0.0000 0.0000 0.0000 0.0000 0.0000 10.6362
#
#
#
# Elastic Compliance Matrix: (Units=1/GPa)
#
#
# Indices 1 2 3 4 5 6 
#
# 1 0.008634 -0.001232 -0.004202 0.000000 0.000000 0.000000
# 2 -0.001232 0.019983 -0.000194 0.000000 0.000000 0.000000
# 3 -0.004202 -0.000194 0.006697 0.000000 0.000000 0.000000
# 4 0.000000 0.000000 0.000000 0.038543 0.000000 0.000000
# 5 0.000000 0.000000 0.000000 0.000000 0.038347 0.000000
# 6 0.000000 0.000000 0.000000 0.000000 0.000000 0.094019
#
#
# Mechanical properties :
#
#
# Convention : Reuss Voigt Hill
#
# Bulk Modulus (GPa) = 41.56552 76.66857 59.11704
# Shear Modulus (GPa) = 22.17295 33.18960 27.68127
#
# Velocity S-wave (km/s) = 3.15323 3.85785 3.52320
# Velocity P-wave (km/s) = 5.64767 7.36370 6.56202
#
# Compressibility (1/GPa) = 0.02405840
#
# Stress axis : x y z
#
# Youngs Moduli (GPa) = 115.81533 50.04169 149.31725
#
# Poissons Ratio (x) = 0.06165 0.62744
# Poissons Ratio (y) = 0.14269 0.02899
# Poissons Ratio (z) = 0.48667 0.00972
#
# Static dielectric constant tensor:
#      x y z
#    x 4.079710 0.000000 0.000000 
#    y 0.000000 4.062220 0.000000 
#    z 0.000000 0.000000 4.722470 
# 
# 
# High freq. dielectric constant tensor:
#      x y z
#    x 1.880020 0.000000 0.000000 
#    y 0.000000 1.862780 0.000000 
#    z 0.000000 0.000000 1.896300 
# 
# From -- ./inp_files/24222.got.cif
#   From: 2010.03.12/outbox.cif.g09.slc.cpg/sg72_13_cif.got.tgz:24222.got - 2010.04.16 14:54:00.
