data_PCOD8294661
_publ_section_title
;
Structure prediction by ZEFSAII (Michael W. Deem and Ramdas Pophale) SiO2 
 PCOD8294661
Probable space group: I B A M
;
_chemical_formula_sum "Si O2"
_cell_formula_units_Z 96
_cell_length_a 25.115936
_cell_length_b 23.464635
_cell_length_c 8.661636
_cell_angle_alpha 90.000000
_cell_angle_beta 90.000000
_cell_angle_gamma 90.000000
_cell_volume 5104.616260
_symmetry_space_group_name_H-M "I B A M"
_symmetry_group_IT_number 72
_symmetry_cell_setting 'orthorhombic'
loop_
_space_group_symop_operation_xyz
x,y,z
-x,-y,z
x,-y,1/2-z
-x,y,1/2-z
-x,-y,-z
x,y,-z
-x,y,1/2+z
x,-y,1/2+z
1/2+x,1/2+y,1/2+z
1/2-x,1/2-y,1/2+z
1/2+x,1/2-y,-z
1/2-x,1/2+y,-z
1/2-x,1/2-y,1/2-z
1/2+x,1/2+y,1/2-z
1/2-x,1/2+y,z
1/2+x,1/2-y,z
loop_
_atom_site_type_symbol
_atom_site_label
_atom_site_fract_x
_atom_site_fract_y
_atom_site_fract_z
Si Si1 0.056921 0.439679 0.318474
Si Si2 0.191907 0.753297 0.318787
Si Si3 0.056765 0.939724 0.182154
Si Si4 0.848193 0.875409 0.817920
Si Si5 0.646623 0.865097 0.320964
Si Si6 0.750255 0.560351 0.819611
O O1 0.076522 0.500000 0.250000
O O2 0.051338 0.446526 0.500000
O O3 0.099254 0.390910 0.279802
O O4 0.000000 0.421810 0.250000
O O5 0.199756 0.751653 0.500000
O O6 0.250000 0.750000 0.250000
O O7 0.164017 0.811205 0.264008
O O8 0.155226 0.700138 0.267031
O O9 0.098220 0.891467 0.229504
O O10 0.000000 0.921853 0.250000
O O11 0.076174 0.000000 0.250000
O O12 0.052351 0.945171 0.000000
O O13 0.801204 0.917407 0.769269
O O14 0.857028 0.880230 0.000000
O O15 0.630624 0.869742 0.500000
O O16 0.701373 0.897397 0.287312
O O17 0.767084 0.500000 0.750000
O O18 0.737007 0.555114 0.000000
#
# Coordination Sequence:
#
# PCOD8294661 Si02
#       6
#    16  16  16  16  16  16
#     4  11  22  38  61  87 116 152 191 236 289 345
#     4  10  21  38  60  84 115 154 194 238 285 340
#     4  11  22  39  62  87 117 151 191 237 289 346
#     4  11  22  37  58  85 116 151 193 236 285 341
#     4  10  21  38  58  84 116 150 192 238 286 339
#     4  11  22  35  54  81 116 150 187 235 289 342
#
# _framework density 18.806508000000001
#
# number of rings (size 3 to 8) (size 9 to 14) (size 15 to 20)
#    0.000    1.333    1.667    6.000    0.000    4.000 
#    0.000    0.833    0.000    0.000    0.000    0.000 
#    0.000    0.000    0.000    0.000    0.000    0.000 
#
# Total GULP energy -595458.567575 kJ/mol
# GULP energy per Si atom -12405.386824 kJ/mol
# Density = 1.876370 g / cm^3
# Si number density = 18.806508 Si / 1000 Ang^3
#
#
#
# Elastic Constant Matrix: (Units=GPa)
#
#
# Indices 1 2 3 4 5 6 
#
# 1 112.6507 59.3500 50.7806 0.0000 0.0000 0.0000
# 2 59.3500 119.7227 44.9777 0.0000 0.0000 0.0000
# 3 50.7806 44.9777 112.2024 0.0000 0.0000 0.0000
# 4 0.0000 0.0000 0.0000 24.9670 0.0000 0.0000
# 5 0.0000 0.0000 0.0000 0.0000 35.4935 0.0000
# 6 0.0000 0.0000 0.0000 0.0000 0.0000 28.7389
#
#
#
# Elastic Compliance Matrix: (Units=1/GPa)
#
#
# Indices 1 2 3 4 5 6 
#
# 1 0.013384 -0.005132 -0.004000 0.000000 0.000000 0.000000
# 2 -0.005132 0.011801 -0.002408 0.000000 0.000000 0.000000
# 3 -0.004000 -0.002408 0.011688 0.000000 0.000000 0.000000
# 4 0.000000 0.000000 0.000000 0.040053 0.000000 0.000000
# 5 0.000000 0.000000 0.000000 0.000000 0.028174 0.000000
# 6 0.000000 0.000000 0.000000 0.000000 0.000000 0.034796
#
#
# Mechanical properties :
#
#
# Convention : Reuss Voigt Hill
#
# Bulk Modulus (GPa) = 72.50003 72.75471 72.62737
# Shear Modulus (GPa) = 29.83743 30.47104 30.15424
#
# Velocity S-wave (km/s) = 3.98747 4.02959 4.00858
# Velocity P-wave (km/s) = 7.73525 7.77303 7.75416
#
# Compressibility (1/GPa) = 0.01379310
#
# Stress axis : x y z
#
# Youngs Moduli (GPa) = 74.71612 84.73553 85.55692
#
# Poissons Ratio (x) = 0.43487 0.34223
# Poissons Ratio (y) = 0.38345 0.20603
# Poissons Ratio (z) = 0.29887 0.20405
#
# Static dielectric constant tensor:
#      x y z
#    x 3.403020 0.000000 0.000000 
#    y 0.000000 3.674090 0.000000 
#    z 0.000000 0.000000 3.533060 
# 
# 
# High freq. dielectric constant tensor:
#      x y z
#    x 1.731830 0.000000 0.000000 
#    y 0.000000 1.733900 0.000000 
#    z 0.000000 0.000000 1.740870 
# 
# From -- ./inp_files/5994.got.cif
#   From: 2010.03.12/outbox.cif.g09.slc.cpg/sg72_3_cif.got.tgz:5994.got - 2010.04.16 14:54:00.
