data_PCOD8294961
_publ_section_title
;
Structure prediction by ZEFSAII (Michael W. Deem and Ramdas Pophale) SiO2 
 PCOD8294961
Probable space group: I B A M
;
_chemical_formula_sum "Si O2"
_cell_formula_units_Z 116
_cell_length_a 17.072543
_cell_length_b 18.078312
_cell_length_c 17.996739
_cell_angle_alpha 90.000000
_cell_angle_beta 90.000000
_cell_angle_gamma 90.000000
_cell_volume 5554.563178
_symmetry_space_group_name_H-M "I B A M"
_symmetry_group_IT_number 72
_symmetry_cell_setting 'orthorhombic'
loop_
_space_group_symop_operation_xyz
x,y,z
-x,-y,z
x,-y,1/2-z
-x,y,1/2-z
-x,-y,-z
x,y,-z
-x,y,1/2+z
x,-y,1/2+z
1/2+x,1/2+y,1/2+z
1/2-x,1/2-y,1/2+z
1/2+x,1/2-y,-z
1/2-x,1/2+y,-z
1/2-x,1/2-y,1/2-z
1/2+x,1/2+y,1/2-z
1/2-x,1/2+y,z
1/2+x,1/2-y,z
loop_
_atom_site_type_symbol
_atom_site_label
_atom_site_fract_x
_atom_site_fract_y
_atom_site_fract_z
Si Si1 0.195493 0.855590 0.586557
Si Si2 0.309888 0.788315 0.692194
Si Si3 0.563009 0.442324 0.583768
Si Si4 0.427021 0.278061 0.916531
Si Si5 0.408838 0.222947 0.583528
Si Si6 0.294906 0.489914 0.832767
Si Si7 0.000000 0.500000 0.750000
Si Si8 0.136650 0.596579 0.307683
O O1 0.203454 0.870381 0.500000
O O2 0.270757 0.812741 0.615807
O O3 0.121381 0.804200 0.608059
O O4 0.192293 0.933215 0.626586
O O5 0.250000 0.750000 0.750000
O O6 0.373853 0.732375 0.657446
O O7 0.346026 0.861737 0.730029
O O8 0.500000 0.500000 0.619491
O O9 0.579612 0.469955 0.500000
O O10 0.531709 0.358677 0.585996
O O11 0.645399 0.435035 0.626838
O O12 0.497616 0.219558 0.908485
O O13 0.388022 0.268509 0.000000
O O14 0.380940 0.207654 0.500000
O O15 0.369626 0.158887 0.630688
O O16 0.325227 0.500000 0.750000
O O17 0.206245 0.458823 0.832009
O O18 0.056215 0.550432 0.698617
#
# Coordination Sequence:
#
# PCOD8294961 Si02
#       8
#    16  16  16  16  16  16   4  16
#     4  11  23  41  65  94 131 176 220 275 338 398
#     4  12  22  40  64  97 130 168 220 282 338 400
#     4  10  22  41  65  93 132 178 218 269 345 418
#     4  10  22  40  63  94 129 169 221 277 331 405
#     4  10  23  42  66  95 129 172 228 279 335 402
#     4  12  24  41  63  96 137 173 225 280 336 412
#     4  12  24  44  66  92 134 188 226 278 348 404
#     4  12  24  44  66  97 133 180 229 283 345 403
#
# _framework density 20.883731000000001
#
# number of rings (size 3 to 8) (size 9 to 14) (size 15 to 20)
#    0.000    0.966    3.448    3.310    0.000    3.586 
#    0.000    1.724    0.000    0.000    0.000    0.000 
#    0.000    0.000    0.000    0.000    0.000    0.000 
#
# Total GULP energy -718815.450682 kJ/mol
# GULP energy per Si atom -12393.369839 kJ/mol
# Density = 2.083620 g / cm^3
# Si number density = 20.883731 Si / 1000 Ang^3
#
#
#
# Elastic Constant Matrix: (Units=GPa)
#
#
# Indices 1 2 3 4 5 6 
#
# 1 108.9358 40.4031 54.0871 0.0000 0.0000 0.0000
# 2 40.4031 107.9052 64.2793 0.0000 0.0000 0.0000
# 3 54.0871 64.2793 116.7556 0.0000 0.0000 0.0000
# 4 0.0000 0.0000 0.0000 35.8997 0.0000 0.0000
# 5 0.0000 0.0000 0.0000 0.0000 44.4423 0.0000
# 6 0.0000 0.0000 0.0000 0.0000 0.0000 42.1217
#
#
#
# Elastic Compliance Matrix: (Units=1/GPa)
#
#
# Indices 1 2 3 4 5 6 
#
# 1 0.012147 -0.001780 -0.004647 0.000000 0.000000 0.000000
# 2 -0.001780 0.014051 -0.006911 0.000000 0.000000 0.000000
# 3 -0.004647 -0.006911 0.014523 0.000000 0.000000 0.000000
# 4 0.000000 0.000000 0.000000 0.027855 0.000000 0.000000
# 5 0.000000 0.000000 0.000000 0.000000 0.022501 0.000000
# 6 0.000000 0.000000 0.000000 0.000000 0.000000 0.023741
#
#
# Mechanical properties :
#
#
# Convention : Reuss Voigt Hill
#
# Bulk Modulus (GPa) = 71.20414 72.34840 71.77627
# Shear Modulus (GPa) = 34.20538 36.14788 35.17663
#
# Velocity S-wave (km/s) = 4.05148 4.16494 4.10860
# Velocity P-wave (km/s) = 7.48703 7.60576 7.54663
#
# Compressibility (1/GPa) = 0.01404413
#
# Stress axis : x y z
#
# Youngs Moduli (GPa) = 82.32300 71.17044 68.85806
#
# Poissons Ratio (x) = 0.12668 0.32000
# Poissons Ratio (y) = 0.14653 0.47588
# Poissons Ratio (z) = 0.38258 0.49186
#
# Static dielectric constant tensor:
#      x y z
#    x 3.868500 0.000000 0.000000 
#    y 0.000000 3.922450 0.000000 
#    z 0.000000 0.000000 3.848890 
# 
# 
# High freq. dielectric constant tensor:
#      x y z
#    x 1.816980 0.000000 0.000000 
#    y 0.000000 1.826570 0.000000 
#    z 0.000000 0.000000 1.818500 
# 
# From -- ./inp_files/31733.got.cif
#   From: 2010.03.12/outbox.cif.g09.slc.cpg/sg72_16_cif.got.tgz:31733.got - 2010.04.16 14:54:00.
