data_PCOD8294282
_publ_section_title
;
Structure prediction by ZEFSAII (Michael W. Deem and Ramdas Pophale) SiO2 
 PCOD8294282
Probable space group: I B A M
;
_chemical_formula_sum "Si O2"
_cell_formula_units_Z 96
_cell_length_a 18.227510
_cell_length_b 12.180005
_cell_length_c 22.917002
_cell_angle_alpha 90.000000
_cell_angle_beta 90.000000
_cell_angle_gamma 90.000000
_cell_volume 5087.830265
_symmetry_space_group_name_H-M "I B A M"
_symmetry_group_IT_number 72
_symmetry_cell_setting 'orthorhombic'
loop_
_space_group_symop_operation_xyz
x,y,z
-x,-y,z
x,-y,1/2-z
-x,y,1/2-z
-x,-y,-z
x,y,-z
-x,y,1/2+z
x,-y,1/2+z
1/2+x,1/2+y,1/2+z
1/2-x,1/2-y,1/2+z
1/2+x,1/2-y,-z
1/2-x,1/2+y,-z
1/2-x,1/2-y,1/2-z
1/2+x,1/2+y,1/2-z
1/2-x,1/2+y,z
1/2+x,1/2-y,z
loop_
_atom_site_type_symbol
_atom_site_label
_atom_site_fract_x
_atom_site_fract_y
_atom_site_fract_z
Si Si1 0.586373 0.122079 0.255972
Si Si2 0.844712 0.473417 0.933162
Si Si3 0.439043 0.202843 0.120083
Si Si4 0.930184 0.933539 0.566773
Si Si5 0.111912 0.310565 0.866646
Si Si6 0.187752 0.116351 0.066350
O O1 0.500000 0.113822 0.250000
O O2 0.601345 0.177118 0.318463
O O3 0.621085 0.193627 0.203574
O O4 0.620153 0.000000 0.250000
O O5 0.910675 0.386816 0.926039
O O6 0.855312 0.577522 0.891895
O O7 0.770299 0.410975 0.915204
O O8 0.841539 0.513745 0.000000
O O9 0.415049 0.324898 0.103568
O O10 0.526422 0.195384 0.118054
O O11 0.946655 0.900028 0.500000
O O12 0.857764 0.005157 0.572926
O O13 0.000000 0.000000 0.592074
O O14 0.155981 0.208404 0.891501
O O15 0.183414 0.160455 0.000000
#
# Coordination Sequence:
#
# PCOD8294282 Si02
#       6
#    16  16  16  16  16  16
#     4   9  18  36  60  86 114 151 188 244 306 344
#     4  11  24  36  57  90 121 153 195 246 297 358
#     4  11  21  37  64  91 115 152 203 248 295 351
#     4  10  20  37  60  86 120 158 195 241 299 357
#     4  11  21  39  64  85 115 155 201 247 296 353
#     4  10  23  40  57  84 124 163 190 236 307 362
#
# _framework density 18.868552999999999
#
# number of rings (size 3 to 8) (size 9 to 14) (size 15 to 20)
#    0.000    1.667    3.333    1.500    2.333    2.667 
#    0.000    1.667    3.667    0.000    0.000    0.000 
#    0.000    0.000    0.000    0.000    0.000    0.000 
#
# Total GULP energy -595257.686915 kJ/mol
# GULP energy per Si atom -12401.201811 kJ/mol
# Density = 1.882561 g / cm^3
# Si number density = 18.868553 Si / 1000 Ang^3
#
#
#
# Elastic Constant Matrix: (Units=GPa)
#
#
# Indices 1 2 3 4 5 6 
#
# 1 59.7377 35.5841 23.2121 0.0000 0.0000 0.0000
# 2 35.5841 122.1366 73.3561 0.0000 0.0000 0.0000
# 3 23.2121 73.3561 92.2967 0.0000 0.0000 0.0000
# 4 0.0000 0.0000 0.0000 33.5008 0.0000 0.0000
# 5 0.0000 0.0000 0.0000 0.0000 23.6381 0.0000
# 6 0.0000 0.0000 0.0000 0.0000 0.0000 20.5696
#
#
#
# Elastic Compliance Matrix: (Units=1/GPa)
#
#
# Indices 1 2 3 4 5 6 
#
# 1 0.020284 -0.005445 -0.000774 0.000000 0.000000 0.000000
# 2 -0.005445 0.017127 -0.012243 0.000000 0.000000 0.000000
# 3 -0.000774 -0.012243 0.020760 0.000000 0.000000 0.000000
# 4 0.000000 0.000000 0.000000 0.029850 0.000000 0.000000
# 5 0.000000 0.000000 0.000000 0.000000 0.042304 0.000000
# 6 0.000000 0.000000 0.000000 0.000000 0.000000 0.048616
#
#
# Mechanical properties :
#
#
# Convention : Reuss Voigt Hill
#
# Bulk Modulus (GPa) = 47.06449 59.83062 53.44755
# Shear Modulus (GPa) = 22.42685 25.00961 23.71823
#
# Velocity S-wave (km/s) = 3.45132 3.64464 3.54930
# Velocity P-wave (km/s) = 6.39372 7.03486 6.72194
#
# Compressibility (1/GPa) = 0.02124744
#
# Stress axis : x y z
#
# Youngs Moduli (GPa) = 49.30018 58.38663 48.16991
#
# Poissons Ratio (x) = 0.31791 0.03727
# Poissons Ratio (y) = 0.26844 0.58975
# Poissons Ratio (z) = 0.03814 0.71483
#
# Static dielectric constant tensor:
#      x y z
#    x 3.376840 0.000000 0.000000 
#    y 0.000000 3.411990 0.000000 
#    z 0.000000 0.000000 3.628870 
# 
# 
# High freq. dielectric constant tensor:
#      x y z
#    x 1.724470 0.000000 0.000000 
#    y 0.000000 1.736470 0.000000 
#    z 0.000000 0.000000 1.730190 
# 
# From -- ./inp_files/39687.got.cif
#   From: 2010.03.12/outbox.cif.g09.slc.cpg/sg72_20_cif.got.tgz:39687.got - 2010.04.16 14:54:00.
