data_PCOD8294135
_publ_section_title
;
Structure prediction by ZEFSAII (Michael W. Deem and Ramdas Pophale) SiO2 
 PCOD8294135
Probable space group: I B A M
;
_chemical_formula_sum "Si O2"
_cell_formula_units_Z 96
_cell_length_a 22.971712
_cell_length_b 25.547804
_cell_length_c 8.625235
_cell_angle_alpha 90.000000
_cell_angle_beta 90.000000
_cell_angle_gamma 90.000000
_cell_volume 5061.950279
_symmetry_space_group_name_H-M "I B A M"
_symmetry_group_IT_number 72
_symmetry_cell_setting 'orthorhombic'
loop_
_space_group_symop_operation_xyz
x,y,z
-x,-y,z
x,-y,1/2-z
-x,y,1/2-z
-x,-y,-z
x,y,-z
-x,y,1/2+z
x,-y,1/2+z
1/2+x,1/2+y,1/2+z
1/2-x,1/2-y,1/2+z
1/2+x,1/2-y,-z
1/2-x,1/2+y,-z
1/2-x,1/2-y,1/2-z
1/2+x,1/2+y,1/2-z
1/2-x,1/2+y,z
1/2+x,1/2-y,z
loop_
_atom_site_type_symbol
_atom_site_label
_atom_site_fract_x
_atom_site_fract_y
_atom_site_fract_z
Si Si1 0.063559 0.757685 0.684828
Si Si2 0.373037 0.153622 0.320422
Si Si3 0.671523 0.944390 0.183184
Si Si4 0.201850 0.055463 0.317500
Si Si5 0.642068 0.646869 0.329422
Si Si6 0.264990 0.196954 0.828987
O O1 0.064727 0.757173 0.500000
O O2 0.086769 0.701084 0.745682
O O3 0.103120 0.806345 0.745350
O O4 0.000000 0.767297 0.750000
O O5 0.386046 0.144370 0.500000
O O6 0.378583 0.097928 0.231637
O O7 0.306518 0.168891 0.292861
O O8 0.735585 0.928550 0.245297
O O9 0.651377 0.000000 0.250000
O O10 0.675350 0.947105 0.000000
O O11 0.210257 0.051512 0.500000
O O12 0.148775 0.095767 0.279146
O O13 0.181596 0.000000 0.250000
O O14 0.616825 0.631712 0.500000
O O15 0.707060 0.665295 0.352072
O O16 0.250000 0.250000 0.750000
O O17 0.294375 0.203867 0.000000
#
# Coordination Sequence:
#
# PCOD8294135 Si02
#       6
#    16  16  16  16  16  16
#     4  10  23  41  59  80 109 144 185 232 279 327
#     4  11  21  36  55  80 113 147 183 226 276 327
#     4  11  21  34  52  80 115 152 186 222 270 327
#     4  11  21  33  52  80 114 152 186 222 269 327
#     4  10  20  36  54  78 113 148 182 226 275 326
#     4  11  20  31  50  78 113 146 180 219 273 335
#
# _framework density 18.965022000000001
#
# number of rings (size 3 to 8) (size 9 to 14) (size 15 to 20)
#    0.000    1.333    3.333    5.000    0.000    2.667 
#    0.000    0.000    0.000    1.000    0.000    7.000 
#    0.000    0.000    0.000    0.000    0.000    0.000 
#
# Total GULP energy -594766.476803 kJ/mol
# GULP energy per Si atom -12390.968267 kJ/mol
# Density = 1.892186 g / cm^3
# Si number density = 18.965022 Si / 1000 Ang^3
#
#
#
# Elastic Constant Matrix: (Units=GPa)
#
#
# Indices 1 2 3 4 5 6 
#
# 1 55.8800 27.3375 15.0995 0.0000 0.0000 0.0000
# 2 27.3375 134.7098 40.8632 0.0000 0.0000 0.0000
# 3 15.0995 40.8632 99.9427 0.0000 0.0000 0.0000
# 4 0.0000 0.0000 0.0000 28.0212 0.0000 0.0000
# 5 0.0000 0.0000 0.0000 0.0000 21.3071 0.0000
# 6 0.0000 0.0000 0.0000 0.0000 0.0000 13.1201
#
#
#
# Elastic Compliance Matrix: (Units=1/GPa)
#
#
# Indices 1 2 3 4 5 6 
#
# 1 0.020079 -0.003601 -0.001561 0.000000 0.000000 0.000000
# 2 -0.003601 0.009120 -0.003185 0.000000 0.000000 0.000000
# 3 -0.001561 -0.003185 0.011544 0.000000 0.000000 0.000000
# 4 0.000000 0.000000 0.000000 0.035687 0.000000 0.000000
# 5 0.000000 0.000000 0.000000 0.000000 0.046933 0.000000
# 6 0.000000 0.000000 0.000000 0.000000 0.000000 0.076219
#
#
# Mechanical properties :
#
#
# Convention : Reuss Voigt Hill
#
# Bulk Modulus (GPa) = 41.58241 50.79255 46.18748
# Shear Modulus (GPa) = 22.29228 26.30517 24.29872
#
# Velocity S-wave (km/s) = 3.43219 3.72833 3.58332
# Velocity P-wave (km/s) = 6.13841 6.73605 6.44416
#
# Compressibility (1/GPa) = 0.02404863
#
# Stress axis : x y z
#
# Youngs Moduli (GPa) = 49.80297 109.64550 86.62655
#
# Poissons Ratio (x) = 0.39486 0.13524
# Poissons Ratio (y) = 0.17935 0.27590
# Poissons Ratio (z) = 0.07775 0.34921
#
# Static dielectric constant tensor:
#      x y z
#    x 3.199980 0.000000 0.000000 
#    y 0.000000 3.817590 0.000000 
#    z 0.000000 0.000000 3.635390 
# 
# 
# High freq. dielectric constant tensor:
#      x y z
#    x 1.680100 0.000000 0.000000 
#    y 0.000000 1.757950 0.000000 
#    z 0.000000 0.000000 1.742350 
# 
# From -- ./inp_files/5991.got.cif
#   From: 2010.03.12/outbox.cif.g09.slc.cpg/sg72_3_cif.got.tgz:5991.got - 2010.04.16 14:54:00.
