data_PCOD8294941
_publ_section_title
;
Structure prediction by ZEFSAII (Michael W. Deem and Ramdas Pophale) SiO2 
 PCOD8294941
Probable space group: I B A M
;
_chemical_formula_sum "Si O2"
_cell_formula_units_Z 72
_cell_length_a 11.760611
_cell_length_b 19.862628
_cell_length_c 13.482140
_cell_angle_alpha 90.000000
_cell_angle_beta 90.000000
_cell_angle_gamma 90.000000
_cell_volume 3149.382622
_symmetry_space_group_name_H-M "I B A M"
_symmetry_group_IT_number 72
_symmetry_cell_setting 'orthorhombic'
loop_
_space_group_symop_operation_xyz
x,y,z
-x,-y,z
x,-y,1/2-z
-x,y,1/2-z
-x,-y,-z
x,y,-z
-x,y,1/2+z
x,-y,1/2+z
1/2+x,1/2+y,1/2+z
1/2-x,1/2-y,1/2+z
1/2+x,1/2-y,-z
1/2-x,1/2+y,-z
1/2-x,1/2-y,1/2-z
1/2+x,1/2+y,1/2-z
1/2-x,1/2+y,z
1/2+x,1/2-y,z
loop_
_atom_site_type_symbol
_atom_site_label
_atom_site_fract_x
_atom_site_fract_y
_atom_site_fract_z
Si Si1 0.240231 0.113901 0.611458
Si Si2 0.545340 0.195720 0.110954
Si Si3 0.827570 0.614716 0.384537
Si Si4 0.119646 0.175131 0.775005
Si Si5 0.710562 0.000000 0.750000
O O1 0.192339 0.106311 0.500000
O O2 0.374885 0.129475 0.611828
O O3 0.181249 0.177467 0.667044
O O4 0.213866 0.046579 0.675555
O O5 0.418441 0.172755 0.141593
O O6 0.591576 0.250382 0.187379
O O7 0.544531 0.226847 0.000000
O O8 0.830015 0.596186 0.500000
O O9 0.699729 0.636965 0.354239
O O10 0.863240 0.548730 0.321190
O O11 0.000000 0.137316 0.750000
#
# Coordination Sequence:
#
# PCOD8294941 Si02
#       5
#    16  16  16  16   8
#     4  10  23  42  63  93 129 169 216 269 325 383
#     4  10  23  40  63  96 132 168 210 264 328 394
#     4  10  23  43  66  96 132 170 214 269 327 384
#     4  11  25  39  65  94 130 171 218 262 319 390
#     4  10  22  39  69  96 126 172 215 269 320 394
#
# _framework density 22.861622000000001
#
# number of rings (size 3 to 8) (size 9 to 14) (size 15 to 20)
#    0.000    1.778    0.000    2.000    9.333    3.556 
#    0.000   12.222    0.000   10.667    0.000    0.000 
#    0.000    0.000    0.000    0.000    0.000    0.000 
#
# Total GULP energy -446048.620248 kJ/mol
# GULP energy per Si atom -12390.239451 kJ/mol
# Density = 2.280959 g / cm^3
# Si number density = 22.861622 Si / 1000 Ang^3
#
#
#
# Elastic Constant Matrix: (Units=GPa)
#
#
# Indices 1 2 3 4 5 6 
#
# 1 115.2654 38.6979 53.5924 0.0001 0.0000 0.0000
# 2 38.6979 121.6786 98.3321 -0.0001 0.0000 0.0000
# 3 53.5924 98.3321 211.3488 0.0001 0.0000 -0.0001
# 4 0.0001 -0.0001 0.0001 42.7890 0.0000 0.0000
# 5 0.0000 0.0000 0.0000 0.0000 38.4328 0.0000
# 6 0.0000 0.0000 -0.0001 0.0000 0.0000 20.2768
#
#
#
# Elastic Compliance Matrix: (Units=1/GPa)
#
#
# Indices 1 2 3 4 5 6 
#
# 1 0.010083 -0.001828 -0.001706 0.000000 0.000000 0.000000
# 2 -0.001828 0.013502 -0.005818 0.000000 0.000000 0.000000
# 3 -0.001706 -0.005818 0.007871 0.000000 0.000000 0.000000
# 4 0.000000 0.000000 0.000000 0.023371 0.000000 0.000000
# 5 0.000000 0.000000 0.000000 0.000000 0.026019 0.000000
# 6 0.000000 0.000000 0.000000 0.000000 0.000000 0.049318
#
#
# Mechanical properties :
#
#
# Convention : Reuss Voigt Hill
#
# Bulk Modulus (GPa) = 78.42651 92.17082 85.29867
# Shear Modulus (GPa) = 32.65463 37.47774 35.06619
#
# Velocity S-wave (km/s) = 3.78347 4.05326 3.92068
# Velocity P-wave (km/s) = 7.31201 7.89364 7.60838
#
# Compressibility (1/GPa) = 0.01275079
#
# Stress axis : x y z
#
# Youngs Moduli (GPa) = 99.18093 74.06548 127.04521
#
# Poissons Ratio (x) = 0.13537 0.21678
# Poissons Ratio (y) = 0.18127 0.73919
# Poissons Ratio (z) = 0.16924 0.43093
#
# Static dielectric constant tensor:
#      x y z
#    x 4.258290 0.000000 0.000000 
#    y 0.000000 3.910170 0.000000 
#    z 0.000000 0.000000 4.529190 
# 
# 
# High freq. dielectric constant tensor:
#      x y z
#    x 1.884590 0.000000 0.000000 
#    y 0.000000 1.880810 0.000000 
#    z 0.000000 0.000000 1.932950 
# 
# From -- ./inp_files/21471.got.cif
#   From: 2010.03.12/outbox.cif.g09.slc.cpg/sg72_11_cif.got.tgz:21471.got - 2010.04.16 14:54:00.
