data_PCOD8294208
_publ_section_title
;
Structure prediction by ZEFSAII (Michael W. Deem and Ramdas Pophale) SiO2 
 PCOD8294208
Probable space group: I B A M
;
_chemical_formula_sum "Si O2"
_cell_formula_units_Z 116
_cell_length_a 22.348842
_cell_length_b 26.199723
_cell_length_c 9.161939
_cell_angle_alpha 90.000000
_cell_angle_beta 90.000000
_cell_angle_gamma 90.000000
_cell_volume 5364.621932
_symmetry_space_group_name_H-M "I B A M"
_symmetry_group_IT_number 72
_symmetry_cell_setting 'orthorhombic'
loop_
_space_group_symop_operation_xyz
x,y,z
-x,-y,z
x,-y,1/2-z
-x,y,1/2-z
-x,-y,-z
x,y,-z
-x,y,1/2+z
x,-y,1/2+z
1/2+x,1/2+y,1/2+z
1/2-x,1/2-y,1/2+z
1/2+x,1/2-y,-z
1/2-x,1/2+y,-z
1/2-x,1/2-y,1/2-z
1/2+x,1/2+y,1/2-z
1/2-x,1/2+y,z
1/2+x,1/2-y,z
loop_
_atom_site_type_symbol
_atom_site_label
_atom_site_fract_x
_atom_site_fract_y
_atom_site_fract_z
Si Si1 0.789653 0.591764 0.326750
Si Si2 0.439986 0.812772 0.325482
Si Si3 0.407781 0.083789 0.666125
Si Si4 0.388933 0.724353 0.162979
Si Si5 0.162001 0.050530 0.171716
Si Si6 0.257795 0.300764 0.662444
Si Si7 0.000000 0.500000 0.750000
Si Si8 0.942418 0.122051 0.669387
O O1 0.802761 0.588623 0.500000
O O2 0.844385 0.566770 0.236367
O O3 0.730106 0.562029 0.281913
O O4 0.779348 0.650787 0.277153
O O5 0.500000 0.791341 0.250000
O O6 0.444682 0.815002 0.500000
O O7 0.429725 0.869671 0.266547
O O8 0.388903 0.772199 0.276139
O O9 0.398365 0.102184 0.500000
O O10 0.455649 0.037293 0.659994
O O11 0.328837 0.689880 0.166162
O O12 0.439206 0.682767 0.202369
O O13 0.398214 0.747048 0.000000
O O14 0.117453 0.094529 0.226753
O O15 0.140011 0.000000 0.250000
O O16 0.158378 0.043318 0.000000
O O17 0.234510 0.290938 0.500000
O O18 0.250000 0.250000 0.750000
O O19 0.951000 0.111227 0.500000
O O20 0.000000 0.099257 0.750000
#
# Coordination Sequence:
#
# PCOD8294208 Si02
#       8
#    16  16  16  16  16  16   4  16
#     4  10  22  43  68  96 134 175 216 269 335 399
#     4  12  25  42  64  94 132 173 219 272 331 397
#     4  12  27  47  72 100 130 170 221 276 334 398
#     4  10  20  38  63  91 130 175 219 268 324 389
#     4  10  22  42  65  92 129 173 219 273 334 396
#     4  10  20  36  60  91 129 173 213 260 320 387
#     4  12  30  52  76  98 138 176 228 276 344 396
#     4  10  21  39  63  92 129 173 220 270 328 389
#
# _framework density 21.623145000000001
#
# number of rings (size 3 to 8) (size 9 to 14) (size 15 to 20)
#    0.000    1.379    2.069    3.103    0.966    8.000 
#    0.000    1.379    0.000    0.000    0.000    0.000 
#    0.000    0.000    0.000    0.000    0.000    0.000 
#
# Total GULP energy -718930.357488 kJ/mol
# GULP energy per Si atom -12395.350991 kJ/mol
# Density = 2.157393 g / cm^3
# Si number density = 21.623145 Si / 1000 Ang^3
#
#
#
# Elastic Constant Matrix: (Units=GPa)
#
#
# Indices 1 2 3 4 5 6 
#
# 1 115.7177 43.2074 48.4165 0.0000 0.0000 0.0000
# 2 43.2074 110.9254 49.6739 0.0000 0.0000 0.0000
# 3 48.4165 49.6739 106.8584 0.0000 0.0000 0.0000
# 4 0.0000 0.0000 0.0000 30.7128 0.0000 0.0000
# 5 0.0000 0.0000 0.0000 0.0000 29.2771 0.0000
# 6 0.0000 0.0000 0.0000 0.0000 0.0000 32.0584
#
#
#
# Elastic Compliance Matrix: (Units=1/GPa)
#
#
# Indices 1 2 3 4 5 6 
#
# 1 0.011248 -0.002651 -0.003864 0.000000 0.000000 0.000000
# 2 -0.002651 0.012010 -0.004382 0.000000 0.000000 0.000000
# 3 -0.003864 -0.004382 0.013146 0.000000 0.000000 0.000000
# 4 0.000000 0.000000 0.000000 0.032560 0.000000 0.000000
# 5 0.000000 0.000000 0.000000 0.000000 0.034156 0.000000
# 6 0.000000 0.000000 0.000000 0.000000 0.000000 0.031193
#
#
# Mechanical properties :
#
#
# Convention : Reuss Voigt Hill
#
# Bulk Modulus (GPa) = 68.44496 68.45522 68.45009
# Shear Modulus (GPa) = 31.06029 31.22324 31.14176
#
# Velocity S-wave (km/s) = 3.79415 3.80409 3.79912
# Velocity P-wave (km/s) = 7.13557 7.14295 7.13926
#
# Compressibility (1/GPa) = 0.01461028
#
# Stress axis : x y z
#
# Youngs Moduli (GPa) = 88.90200 83.26477 76.06942
#
# Poissons Ratio (x) = 0.22073 0.29395
# Poissons Ratio (y) = 0.23568 0.33332
# Poissons Ratio (z) = 0.34353 0.36485
#
# Static dielectric constant tensor:
#      x y z
#    x 4.667050 0.000000 0.000000 
#    y 0.000000 3.852830 0.000000 
#    z 0.000000 0.000000 3.669070 
# 
# 
# High freq. dielectric constant tensor:
#      x y z
#    x 1.864480 0.000000 0.000000 
#    y 0.000000 1.849590 0.000000 
#    z 0.000000 0.000000 1.831880 
# 
# From -- ./inp_files/7326.got.cif
#   From: 2010.03.12/outbox.cif.g09.slc.cpg/sg72_4_cif.got.tgz:7326.got - 2010.04.16 14:54:00.
