data_PCOD8294224
_publ_section_title
;
Structure prediction by ZEFSAII (Michael W. Deem and Ramdas Pophale) SiO2 
 PCOD8294224
Probable space group: I B A M
;
_chemical_formula_sum "Si O2"
_cell_formula_units_Z 96
_cell_length_a 13.171262
_cell_length_b 21.703669
_cell_length_c 14.722344
_cell_angle_alpha 90.000000
_cell_angle_beta 90.000000
_cell_angle_gamma 90.000000
_cell_volume 4208.598609
_symmetry_space_group_name_H-M "I B A M"
_symmetry_group_IT_number 72
_symmetry_cell_setting 'orthorhombic'
loop_
_space_group_symop_operation_xyz
x,y,z
-x,-y,z
x,-y,1/2-z
-x,y,1/2-z
-x,-y,-z
x,y,-z
-x,y,1/2+z
x,-y,1/2+z
1/2+x,1/2+y,1/2+z
1/2-x,1/2-y,1/2+z
1/2+x,1/2-y,-z
1/2-x,1/2+y,-z
1/2-x,1/2-y,1/2-z
1/2+x,1/2+y,1/2-z
1/2-x,1/2+y,z
1/2+x,1/2-y,z
loop_
_atom_site_type_symbol
_atom_site_label
_atom_site_fract_x
_atom_site_fract_y
_atom_site_fract_z
Si Si1 0.249556 0.737512 0.399211
Si Si2 0.956130 0.254640 0.655849
Si Si3 0.647723 0.619634 0.103341
Si Si4 0.423366 0.619062 0.898514
Si Si5 0.245651 0.571099 0.770166
Si Si6 0.121621 0.648039 0.101889
O O1 0.206422 0.724769 0.500000
O O2 0.349544 0.694723 0.384670
O O3 0.279843 0.808571 0.389208
O O4 0.158991 0.719159 0.329560
O O5 0.021254 0.310773 0.614897
O O6 0.000000 0.231685 0.750000
O O7 0.934944 0.193458 0.596598
O O8 0.536171 0.594543 0.128949
O O9 0.736643 0.596781 0.169229
O O10 0.675054 0.600600 0.000000
O O11 0.344036 0.588121 0.830492
O O12 0.394574 0.597017 0.000000
O O13 0.230549 0.500000 0.750000
O O14 0.142878 0.596091 0.820920
O O15 0.117033 0.619161 0.000000
#
# Coordination Sequence:
#
# PCOD8294224 Si02
#       6
#    16  16  16  16  16  16
#     4  10  20  36  61  94 131 167 214 280 352 411
#     4  12  22  34  63 101 139 177 217 281 353 420
#     4  10  22  39  60  89 127 170 221 283 344 407
#     4  11  22  38  61  94 133 176 223 278 345 411
#     4  12  26  42  62  91 131 186 236 274 327 411
#     4  11  23  40  66  99 137 180 228 283 348 413
#
# _framework density 22.810442999999999
#
# number of rings (size 3 to 8) (size 9 to 14) (size 15 to 20)
#    0.000    1.000    3.333    4.500    0.000    4.000 
#    0.000    1.667    0.000    4.500    0.000    7.000 
#    0.000    0.000    0.000    0.000    0.000    0.000 
#
# Total GULP energy -594684.197945 kJ/mol
# GULP energy per Si atom -12389.254124 kJ/mol
# Density = 2.275853 g / cm^3
# Si number density = 22.810443 Si / 1000 Ang^3
#
#
#
# Elastic Constant Matrix: (Units=GPa)
#
#
# Indices 1 2 3 4 5 6 
#
# 1 85.0731 16.6820 10.8066 0.0004 -0.0003 -0.0015
# 2 16.6820 104.6537 23.9073 -0.0025 0.0010 0.0079
# 3 10.8066 23.9073 88.8383 -0.0035 0.0011 0.0166
# 4 0.0004 -0.0025 -0.0035 16.9635 0.0013 0.0131
# 5 -0.0003 0.0010 0.0011 0.0013 30.1352 -0.0064
# 6 -0.0015 0.0079 0.0166 0.0131 -0.0064 -6.8941
#
#
#
# Elastic Compliance Matrix: (Units=1/GPa)
#
#
# Indices 1 2 3 4 5 6 
#
# 1 0.012221 -0.001714 -0.001025 -0.000001 0.000000 -0.000007
# 2 -0.001714 0.010422 -0.002596 0.000001 0.000000 0.000006
# 3 -0.001025 -0.002596 0.012080 0.000002 0.000000 0.000026
# 4 -0.000001 0.000001 0.000002 0.058950 -0.000002 0.000112
# 5 0.000000 0.000000 0.000000 -0.000002 0.033184 -0.000031
# 6 -0.000007 0.000006 0.000026 0.000112 -0.000031 -0.145052
#
#
# Mechanical properties :
#
#
# Convention : Reuss Voigt Hill
#
# Bulk Modulus (GPa) = 41.57710 42.37299 41.97504
# Shear Modulus (GPa) = 10162.13897 23.18553 5092.66225
#
# Velocity S-wave (km/s) = 66.81848 3.19163 47.30167
# Velocity P-wave (km/s) = 77.27362 5.67437 54.78782
#
# Compressibility (1/GPa) = 0.02405170
#
# Stress axis : x y z
#
# Youngs Moduli (GPa) = 81.82695 95.95490 82.78306
#
# Poissons Ratio (x) = 0.16445 0.08489
# Poissons Ratio (y) = 0.14023 0.21491
# Poissons Ratio (z) = 0.08390 0.24911
#
# Static dielectric constant tensor:
#      x y z
#    x 4.214660 0.000000 0.000000 
#    y 0.000000 3.737280 0.000000 
#    z 0.000000 0.000000 4.258780 
# 
# 
# High freq. dielectric constant tensor:
#      x y z
#    x 1.900170 0.000000 0.000000 
#    y 0.000000 1.851850 0.000000 
#    z 0.000000 0.000000 1.913940 
# 
# From -- ./inp_files/21789.got.cif
#   From: 2010.03.12/outbox.cif.g09.slc.cpg/sg72_11_cif.got.tgz:21789.got - 2010.04.16 14:54:00.
