data_PCOD8294458
_publ_section_title
;
Structure prediction by ZEFSAII (Michael W. Deem and Ramdas Pophale) SiO2 
 PCOD8294458
Probable space group: I B A M
;
_chemical_formula_sum "Si O2"
_cell_formula_units_Z 84
_cell_length_a 19.809924
_cell_length_b 10.033539
_cell_length_c 24.060004
_cell_angle_alpha 90.000000
_cell_angle_beta 90.000000
_cell_angle_gamma 90.000000
_cell_volume 4782.254095
_symmetry_space_group_name_H-M "I B A M"
_symmetry_group_IT_number 72
_symmetry_cell_setting 'orthorhombic'
loop_
_space_group_symop_operation_xyz
x,y,z
-x,-y,z
x,-y,1/2-z
-x,y,1/2-z
-x,-y,-z
x,y,-z
-x,y,1/2+z
x,-y,1/2+z
1/2+x,1/2+y,1/2+z
1/2-x,1/2-y,1/2+z
1/2+x,1/2-y,-z
1/2-x,1/2+y,-z
1/2-x,1/2-y,1/2-z
1/2+x,1/2+y,1/2-z
1/2-x,1/2+y,z
1/2+x,1/2-y,z
loop_
_atom_site_type_symbol
_atom_site_label
_atom_site_fract_x
_atom_site_fract_y
_atom_site_fract_z
Si Si1 0.000000 0.500000 0.750000
Si Si2 0.227239 0.355427 0.372277
Si Si3 0.842805 0.878128 0.212255
Si Si4 0.072499 0.957458 0.869329
Si Si5 0.703903 0.588209 0.065202
Si Si6 0.900344 0.697905 0.304864
O O1 0.955735 0.589216 0.709180
O O2 0.283138 0.322802 0.326001
O O3 0.243995 0.489328 0.405167
O O4 0.223856 0.235362 0.415894
O O5 0.155942 0.374417 0.342037
O O6 0.867274 0.754609 0.248719
O O7 0.814865 0.000000 0.250000
O O8 0.904851 0.932215 0.175494
O O9 0.127031 0.948209 0.918637
O O10 0.064550 0.815989 0.839093
O O11 0.000000 0.000000 0.894234
O O12 0.712422 0.575256 0.000000
#
# Coordination Sequence:
#
# PCOD8294458 Si02
#       6
#     4  16  16  16  16  16
#     4  12  24  28  46  76 118 152 166 194 252 332
#     4  10  21  35  56  79 107 139 177 224 267 311
#     4   9  18  32  55  79 106 140 178 212 251 313
#     4   9  18  35  54  75 104 140 178 216 257 308
#     4  10  21  37  57  81 102 134 181 232 275 305
#     4  10  21  32  47  78 112 145 170 206 256 315
#
# _framework density 17.564938999999999
#
# number of rings (size 3 to 8) (size 9 to 14) (size 15 to 20)
#    0.000    2.286    0.000    3.429    4.000    3.048 
#    0.000    0.000    0.000    0.000    0.000    3.333 
#    0.000    0.000    0.000    0.000    0.000    0.000 
#
# Total GULP energy -520905.674390 kJ/mol
# GULP energy per Si atom -12402.516057 kJ/mol
# Density = 1.752496 g / cm^3
# Si number density = 17.564939 Si / 1000 Ang^3
#
#
#
# Elastic Constant Matrix: (Units=GPa)
#
#
# Indices 1 2 3 4 5 6 
#
# 1 111.1010 48.4825 34.5818 0.0000 0.0000 0.0000
# 2 48.4825 72.0471 27.9872 0.0000 0.0000 0.0000
# 3 34.5818 27.9872 82.7201 0.0000 0.0000 0.0000
# 4 0.0000 0.0000 0.0000 21.7437 0.0000 0.0000
# 5 0.0000 0.0000 0.0000 0.0000 12.4690 0.0000
# 6 0.0000 0.0000 0.0000 0.0000 0.0000 25.4176
#
#
#
# Elastic Compliance Matrix: (Units=1/GPa)
#
#
# Indices 1 2 3 4 5 6 
#
# 1 0.013329 -0.007835 -0.002922 0.000000 0.000000 0.000000
# 2 -0.007835 0.020585 -0.003689 0.000000 0.000000 0.000000
# 3 -0.002922 -0.003689 0.014559 0.000000 0.000000 0.000000
# 4 0.000000 0.000000 0.000000 0.045990 0.000000 0.000000
# 5 0.000000 0.000000 0.000000 0.000000 0.080199 0.000000
# 6 0.000000 0.000000 0.000000 0.000000 0.000000 0.039343
#
#
# Mechanical properties :
#
#
# Convention : Reuss Voigt Hill
#
# Bulk Modulus (GPa) = 51.06819 54.21900 52.64359
# Shear Modulus (GPa) = 20.04626 22.24718 21.14672
#
# Velocity S-wave (km/s) = 3.38193 3.56275 3.47351
# Velocity P-wave (km/s) = 6.66235 6.91802 6.79139
#
# Compressibility (1/GPa) = 0.01958166
#
# Stress axis : x y z
#
# Youngs Moduli (GPa) = 75.02384 48.57883 68.68792
#
# Poissons Ratio (x) = 0.38060 0.20068
# Poissons Ratio (y) = 0.58778 0.25341
# Poissons Ratio (z) = 0.21919 0.17922
#
# Static dielectric constant tensor:
#      x y z
#    x 3.192620 0.000000 0.000000 
#    y 0.000000 3.250370 0.000000 
#    z 0.000000 0.000000 3.147110 
# 
# 
# High freq. dielectric constant tensor:
#      x y z
#    x 1.678300 0.000000 0.000000 
#    y 0.000000 1.682520 0.000000 
#    z 0.000000 0.000000 1.668060 
# 
# From -- ./inp_files/39669.got.cif
#   From: 2010.03.12/outbox.cif.g09.slc.cpg/sg72_20_cif.got.tgz:39669.got - 2010.04.16 14:54:00.
