data_PCOD8294638
_publ_section_title
;
Structure prediction by ZEFSAII (Michael W. Deem and Ramdas Pophale) SiO2 
 PCOD8294638
Probable space group: I B A M
;
_chemical_formula_sum "Si O2"
_cell_formula_units_Z 72
_cell_length_a 9.050999
_cell_length_b 22.658695
_cell_length_c 16.926726
_cell_angle_alpha 90.000000
_cell_angle_beta 90.000000
_cell_angle_gamma 90.000000
_cell_volume 3471.397726
_symmetry_space_group_name_H-M "I B A M"
_symmetry_group_IT_number 72
_symmetry_cell_setting 'orthorhombic'
loop_
_space_group_symop_operation_xyz
x,y,z
-x,-y,z
x,-y,1/2-z
-x,y,1/2-z
-x,-y,-z
x,y,-z
-x,y,1/2+z
x,-y,1/2+z
1/2+x,1/2+y,1/2+z
1/2-x,1/2-y,1/2+z
1/2+x,1/2-y,-z
1/2-x,1/2+y,-z
1/2-x,1/2-y,1/2-z
1/2+x,1/2+y,1/2-z
1/2-x,1/2+y,z
1/2+x,1/2-y,z
loop_
_atom_site_type_symbol
_atom_site_label
_atom_site_fract_x
_atom_site_fract_y
_atom_site_fract_z
Si Si1 0.667422 0.622888 0.500000
Si Si2 0.000000 0.500000 0.871703
Si Si3 0.500000 0.100549 0.250000
Si Si4 0.663979 0.179265 0.641526
Si Si5 0.258948 0.999410 0.500000
Si Si6 0.342730 0.781175 0.087730
Si Si7 0.835350 0.131931 0.000000
O O1 0.762107 0.637356 0.422681
O O2 0.637727 0.552268 0.500000
O O3 0.505678 0.652024 0.500000
O O4 0.956928 0.558315 0.822157
O O5 0.856931 0.488237 0.923026
O O6 0.638019 0.142948 0.276724
O O7 0.504604 0.200889 0.612936
O O8 0.769665 0.236568 0.651580
O O9 0.181188 0.062180 0.500000
O O10 0.242769 0.840327 0.078350
O O11 0.346116 0.749505 0.000000
#
# Coordination Sequence:
#
# PCOD8294638 Si02
#       7
#     8   8   8  16   8  16   8
#     4  12  20  37  62  95 124 164 210 264 309 377
#     4  10  22  40  64  98 122 168 208 274 312 388
#     4  11  24  38  60  94 134 164 209 256 330 394
#     4  12  22  40  63  94 128 170 212 260 322 379
#     4  11  21  38  70  92 120 160 219 262 314 369
#     4  10  21  37  62  91 122 161 212 267 301 374
#     4  10  22  35  60 103 126 149 210 277 310 354
#
# _framework density 20.740925000000001
#
# number of rings (size 3 to 8) (size 9 to 14) (size 15 to 20)
#    0.667    0.444    4.444    3.000    3.111    0.889 
#    0.000    0.000    0.000    4.000    0.000    0.000 
#    0.000    0.000    0.000    0.000    0.000    0.000 
#
# Total GULP energy -446099.770058 kJ/mol
# GULP energy per Si atom -12391.660279 kJ/mol
# Density = 2.069372 g / cm^3
# Si number density = 20.740925 Si / 1000 Ang^3
#
#
#
# Elastic Constant Matrix: (Units=GPa)
#
#
# Indices 1 2 3 4 5 6 
#
# 1 124.1500 49.6307 28.2388 0.0000 0.0000 0.0000
# 2 49.6307 135.7970 27.0033 0.0000 0.0000 0.0000
# 3 28.2388 27.0033 72.5269 -0.0002 0.0002 0.0000
# 4 0.0000 0.0000 -0.0002 38.6712 0.0001 0.0000
# 5 0.0000 0.0000 0.0002 0.0001 7.4159 0.0000
# 6 0.0000 0.0000 0.0000 0.0000 0.0000 39.4926
#
#
#
# Elastic Compliance Matrix: (Units=1/GPa)
#
#
# Indices 1 2 3 4 5 6 
#
# 1 0.009902 -0.003080 -0.002709 0.000000 0.000000 0.000000
# 2 -0.003080 0.008911 -0.002118 0.000000 0.000000 0.000000
# 3 -0.002709 -0.002118 0.015631 0.000000 0.000000 0.000000
# 4 0.000000 0.000000 0.000000 0.025859 0.000000 0.000000
# 5 0.000000 0.000000 0.000000 0.000000 0.134846 0.000000
# 6 0.000000 0.000000 0.000000 0.000000 0.000000 0.025321
#
#
# Mechanical properties :
#
#
# Convention : Reuss Voigt Hill
#
# Bulk Modulus (GPa) = 53.67751 60.24661 56.96206
# Shear Modulus (GPa) = 20.61891 32.28934 26.45412
#
# Velocity S-wave (km/s) = 3.15638 3.94990 3.57523
# Velocity P-wave (km/s) = 6.26258 7.06488 6.67579
#
# Compressibility (1/GPa) = 0.01862978
#
# Stress axis : x y z
#
# Youngs Moduli (GPa) = 100.98642 112.22077 63.97419
#
# Poissons Ratio (x) = 0.34569 0.17328
# Poissons Ratio (y) = 0.31108 0.13552
# Poissons Ratio (z) = 0.27353 0.23772
#
# Static dielectric constant tensor:
#      x y z
#    x 3.540900 0.000000 0.000000 
#    y 0.000000 4.071270 0.000000 
#    z 0.000000 0.000000 3.667380 
# 
# 
# High freq. dielectric constant tensor:
#      x y z
#    x 1.798360 0.000000 0.000000 
#    y 0.000000 1.839370 0.000000 
#    z 0.000000 0.000000 1.785980 
# 
# From -- ./inp_files/28023.got.cif
#   From: 2010.03.12/outbox.cif.g09.slc.cpg/sg72_15_cif.got.tgz:28023.got - 2010.04.16 14:54:00.
