data_PCOD8294459
_publ_section_title
;
Structure prediction by ZEFSAII (Michael W. Deem and Ramdas Pophale) SiO2 
 PCOD8294459
Probable space group: I B A M
;
_chemical_formula_sum "Si O2"
_cell_formula_units_Z 128
_cell_length_a 17.781931
_cell_length_b 23.880080
_cell_length_c 18.018680
_cell_angle_alpha 90.000000
_cell_angle_beta 90.000000
_cell_angle_gamma 90.000000
_cell_volume 7651.342989
_symmetry_space_group_name_H-M "I B A M"
_symmetry_group_IT_number 72
_symmetry_cell_setting 'orthorhombic'
loop_
_space_group_symop_operation_xyz
x,y,z
-x,-y,z
x,-y,1/2-z
-x,y,1/2-z
-x,-y,-z
x,y,-z
-x,y,1/2+z
x,-y,1/2+z
1/2+x,1/2+y,1/2+z
1/2-x,1/2-y,1/2+z
1/2+x,1/2-y,-z
1/2-x,1/2+y,-z
1/2-x,1/2-y,1/2-z
1/2+x,1/2+y,1/2-z
1/2-x,1/2+y,z
1/2+x,1/2-y,z
loop_
_atom_site_type_symbol
_atom_site_label
_atom_site_fract_x
_atom_site_fract_y
_atom_site_fract_z
Si Si1 0.860311 0.785324 0.085634
Si Si2 0.117738 0.708855 0.081292
Si Si3 0.636903 0.620087 0.163546
Si Si4 0.087992 0.009346 0.415767
Si Si5 0.256338 0.302973 0.082729
Si Si6 0.985569 0.783180 0.667138
Si Si7 0.263863 0.879012 0.414128
Si Si8 0.186034 0.948270 0.699307
O O1 0.818892 0.728003 0.113658
O O2 0.936132 0.798112 0.129011
O O3 0.806500 0.838059 0.097513
O O4 0.880637 0.778006 0.000000
O O5 0.179738 0.756684 0.077942
O O6 0.157962 0.651512 0.106621
O O7 0.049872 0.726630 0.133842
O O8 0.082620 0.700355 0.000000
O O9 0.612521 0.571405 0.107598
O O10 0.715861 0.647104 0.136062
O O11 0.569446 0.664089 0.161482
O O12 0.651233 0.599228 0.247229
O O13 0.116507 0.998404 0.500000
O O14 0.121260 0.965111 0.358163
O O15 0.000000 0.000000 0.411236
O O16 0.241763 0.327071 0.000000
O O17 0.000000 0.766034 0.750000
O O18 0.265685 0.900511 0.500000
O O19 0.255091 0.927837 0.352619
O O20 0.214347 0.000000 0.750000
#
# Coordination Sequence:
#
# PCOD8294459 Si02
#       8
#    16  16  16  16  16  16  16  16
#     4   9  18  30  48  70  93 121 159 199 227 266
#     4   8  16  31  48  66  91 122 157 195 231 274
#     4  10  21  32  48  65  96 134 158 188 246 292
#     4  10  22  35  48  65  88 123 169 211 236 265
#     4   8  15  31  49  67  89 119 160 197 229 277
#     4  11  21  29  43  71 101 129 156 189 234 293
#     4   9  17  32  52  68  87 124 165 196 228 272
#     4  10  21  34  46  65  93 122 156 202 243 276
#
# _framework density 16.729089999999999
#
# number of rings (size 3 to 8) (size 9 to 14) (size 15 to 20)
#    0.000    2.625    0.000    3.375    3.500    4.250 
#    0.000    3.750    0.000    0.000    0.000    0.000 
#    0.000   11.500    0.000   38.375    0.000    0.000 
#
# Total GULP energy -793206.502782 kJ/mol
# GULP energy per Si atom -12393.851606 kJ/mol
# Density = 1.669101 g / cm^3
# Si number density = 16.729090 Si / 1000 Ang^3
#
#
#
# Elastic Constant Matrix: (Units=GPa)
#
#
# Indices 1 2 3 4 5 6 
#
# 1 42.3596 27.0838 29.8120 0.0000 0.0000 0.0000
# 2 27.0838 69.3038 48.4512 0.0000 0.0000 0.0000
# 3 29.8120 48.4512 110.2158 0.0002 -0.0001 0.0000
# 4 0.0000 0.0000 0.0002 28.2642 0.0000 0.0000
# 5 0.0000 0.0000 -0.0001 0.0000 21.0183 0.0000
# 6 0.0000 0.0000 0.0000 0.0000 0.0000 27.3721
#
#
#
# Elastic Compliance Matrix: (Units=1/GPa)
#
#
# Indices 1 2 3 4 5 6 
#
# 1 0.033085 -0.009634 -0.004714 0.000000 0.000000 0.000000
# 2 -0.009634 0.023637 -0.007785 0.000000 0.000000 0.000000
# 3 -0.004714 -0.007785 0.013770 0.000000 0.000000 0.000000
# 4 0.000000 0.000000 0.000000 0.035380 0.000000 0.000000
# 5 0.000000 0.000000 0.000000 0.000000 0.047578 0.000000
# 6 0.000000 0.000000 0.000000 0.000000 0.000000 0.036533
#
#
# Mechanical properties :
#
#
# Convention : Reuss Voigt Hill
#
# Bulk Modulus (GPa) = 38.12955 48.06369 43.09662
# Shear Modulus (GPa) = 20.57692 23.09974 21.83833
#
# Velocity S-wave (km/s) = 3.51095 3.71996 3.61697
# Velocity P-wave (km/s) = 6.26718 6.87341 6.57728
#
# Compressibility (1/GPa) = 0.02622638
#
# Stress axis : x y z
#
# Youngs Moduli (GPa) = 30.22552 42.30720 72.61933
#
# Poissons Ratio (x) = 0.40758 0.34232
# Poissons Ratio (y) = 0.29119 0.56534
# Poissons Ratio (z) = 0.14248 0.32936
#
# Static dielectric constant tensor:
#      x y z
#    x 3.101560 0.000000 0.000000 
#    y 0.000000 3.158100 0.000000 
#    z 0.000000 0.000000 3.354060 
# 
# 
# High freq. dielectric constant tensor:
#      x y z
#    x 1.617750 0.000000 0.000000 
#    y 0.000000 1.625340 0.000000 
#    z 0.000000 0.000000 1.658320 
# 
# From -- ./inp_files/32046.got.cif
#   From: 2010.03.12/outbox.cif.g09.slc.cpg/sg72_17_cif.got.tgz:32046.got - 2010.04.16 14:54:00.
