data_PCOD8294384
_publ_section_title
;
Structure prediction by ZEFSAII (Michael W. Deem and Ramdas Pophale) SiO2 
 PCOD8294384
Probable space group: I B A M
;
_chemical_formula_sum "Si O2"
_cell_formula_units_Z 88
_cell_length_a 10.786041
_cell_length_b 27.121148
_cell_length_c 14.532923
_cell_angle_alpha 90.000000
_cell_angle_beta 90.000000
_cell_angle_gamma 90.000000
_cell_volume 4251.313266
_symmetry_space_group_name_H-M "I B A M"
_symmetry_group_IT_number 72
_symmetry_cell_setting 'orthorhombic'
loop_
_space_group_symop_operation_xyz
x,y,z
-x,-y,z
x,-y,1/2-z
-x,y,1/2-z
-x,-y,-z
x,y,-z
-x,y,1/2+z
x,-y,1/2+z
1/2+x,1/2+y,1/2+z
1/2-x,1/2-y,1/2+z
1/2+x,1/2-y,-z
1/2-x,1/2+y,-z
1/2-x,1/2-y,1/2-z
1/2+x,1/2+y,1/2-z
1/2-x,1/2+y,z
1/2+x,1/2-y,z
loop_
_atom_site_type_symbol
_atom_site_label
_atom_site_fract_x
_atom_site_fract_y
_atom_site_fract_z
Si Si1 0.544584 0.287232 0.608469
Si Si2 0.341722 0.110700 0.604002
Si Si3 0.427567 0.952504 0.396385
Si Si4 0.791664 0.944474 0.242423
Si Si5 0.500000 0.370351 0.250000
Si Si6 0.679596 0.220077 0.892649
O O1 0.529563 0.298659 0.500000
O O2 0.546382 0.338352 0.663565
O O3 0.428312 0.255432 0.648671
O O4 0.679111 0.260485 0.626002
O O5 0.289718 0.111081 0.500000
O O6 0.485117 0.095262 0.606305
O O7 0.260406 0.071041 0.658329
O O8 0.332804 0.165147 0.649012
O O9 0.382037 0.963921 0.500000
O O10 0.312422 0.940418 0.334058
O O11 0.500000 0.000000 0.356754
O O12 0.894613 0.905988 0.210376
O O13 0.844328 0.000000 0.250000
O O14 0.650576 0.216993 0.000000
#
# Coordination Sequence:
#
# PCOD8294384 Si02
#       6
#    16  16  16  16   8  16
#     4  10  22  43  66  91 126 165 213 269 321 382
#     4  10  20  38  65  93 122 160 205 259 326 383
#     4  10  21  38  63  93 123 160 211 268 322 373
#     4  12  24  40  62  90 128 169 214 261 312 376
#     4  12  27  42  60  92 128 178 215 254 314 384
#     4   9  19  39  66  90 120 164 208 260 321 380
#
# _framework density 20.699484999999999
#
# number of rings (size 3 to 8) (size 9 to 14) (size 15 to 20)
#    0.000    1.636    3.636    0.818    0.000    2.909 
#    3.273    3.636    0.000    3.273    0.000    0.000 
#    0.000    0.000    0.000    0.000    0.000    0.000 
#
# Total GULP energy -545543.689955 kJ/mol
# GULP energy per Si atom -12398.720226 kJ/mol
# Density = 2.065237 g / cm^3
# Si number density = 20.699485 Si / 1000 Ang^3
#
#
#
# Elastic Constant Matrix: (Units=GPa)
#
#
# Indices 1 2 3 4 5 6 
#
# 1 144.1771 64.8501 40.2469 -0.0001 0.0000 0.0000
# 2 64.8501 124.1144 32.1826 -0.0004 0.0001 0.0000
# 3 40.2469 32.1826 54.3736 -0.0022 0.0001 0.0003
# 4 -0.0001 -0.0004 -0.0022 26.9413 0.0001 0.0001
# 5 0.0000 0.0001 0.0001 0.0001 15.1498 0.0000
# 6 0.0000 0.0000 0.0003 0.0001 0.0000 42.6125
#
#
#
# Elastic Compliance Matrix: (Units=1/GPa)
#
#
# Indices 1 2 3 4 5 6 
#
# 1 0.010166 -0.003970 -0.005175 0.000000 0.000000 0.000000
# 2 -0.003970 0.011068 -0.003612 0.000000 0.000000 0.000000
# 3 -0.005175 -0.003612 0.024360 0.000002 0.000000 0.000000
# 4 0.000000 0.000000 0.000002 0.037118 0.000000 0.000000
# 5 0.000000 0.000000 0.000000 0.000000 0.066007 0.000000
# 6 0.000000 0.000000 0.000000 0.000000 0.000000 0.023467
#
#
# Mechanical properties :
#
#
# Convention : Reuss Voigt Hill
#
# Bulk Modulus (GPa) = 49.80294 66.35827 58.08060
# Shear Modulus (GPa) = 24.46242 29.29975 26.88109
#
# Velocity S-wave (km/s) = 3.44145 3.76637 3.60757
# Velocity P-wave (km/s) = 6.31693 7.14434 6.74334
#
# Compressibility (1/GPa) = 0.02007914
#
# Stress axis : x y z
#
# Youngs Moduli (GPa) = 98.36467 90.34971 41.05077
#
# Poissons Ratio (x) = 0.35869 0.21245
# Poissons Ratio (y) = 0.39050 0.14829
# Poissons Ratio (z) = 0.50906 0.32638
#
# Static dielectric constant tensor:
#      x y z
#    x 3.930750 0.000000 0.000000 
#    y 0.000000 4.032130 0.000000 
#    z 0.000000 0.000000 3.594950 
# 
# 
# High freq. dielectric constant tensor:
#      x y z
#    x 1.810700 0.000000 0.000000 
#    y 0.000000 1.808460 0.000000 
#    z 0.000000 0.000000 1.801290 
# 
# From -- ./inp_files/20321.got.cif
#   From: 2010.03.12/outbox.cif.g09.slc.cpg/sg72_11_cif.got.tgz:20321.got - 2010.04.16 14:54:00.
