data_PCOD8294291
_publ_section_title
;
Structure prediction by ZEFSAII (Michael W. Deem and Ramdas Pophale) SiO2 
 PCOD8294291
Probable space group: I B A M
;
_chemical_formula_sum "Si O2"
_cell_formula_units_Z 116
_cell_length_a 30.874708
_cell_length_b 21.949428
_cell_length_c 8.758579
_cell_angle_alpha 90.000000
_cell_angle_beta 90.000000
_cell_angle_gamma 90.000000
_cell_volume 5935.532913
_symmetry_space_group_name_H-M "I B A M"
_symmetry_group_IT_number 72
_symmetry_cell_setting 'orthorhombic'
loop_
_space_group_symop_operation_xyz
x,y,z
-x,-y,z
x,-y,1/2-z
-x,y,1/2-z
-x,-y,-z
x,y,-z
-x,y,1/2+z
x,-y,1/2+z
1/2+x,1/2+y,1/2+z
1/2-x,1/2-y,1/2+z
1/2+x,1/2-y,-z
1/2-x,1/2+y,-z
1/2-x,1/2-y,1/2-z
1/2+x,1/2+y,1/2-z
1/2-x,1/2+y,z
1/2+x,1/2-y,z
loop_
_atom_site_type_symbol
_atom_site_label
_atom_site_fract_x
_atom_site_fract_y
_atom_site_fract_z
Si Si1 0.839716 0.561925 0.679590
Si Si2 0.955331 0.727633 0.317937
Si Si3 0.000000 0.500000 0.250000
Si Si4 0.399385 0.329697 0.321842
Si Si5 0.067907 0.596294 0.831008
Si Si6 0.716535 0.835159 0.323746
Si Si7 0.546024 0.435101 0.681897
Si Si8 0.801620 0.197985 0.325474
O O1 0.820838 0.500000 0.750000
O O2 0.841620 0.553509 0.500000
O O3 0.888119 0.573204 0.750599
O O4 0.808459 0.616890 0.720675
O O5 0.956700 0.732616 0.500000
O O6 0.916423 0.767265 0.251066
O O7 0.949501 0.658400 0.253907
O O8 0.000000 0.753617 0.250000
O O9 0.968758 0.455836 0.154232
O O10 0.411889 0.332743 0.500000
O O11 0.418202 0.386755 0.230936
O O12 0.348024 0.332066 0.297529
O O13 0.081727 0.615738 0.000000
O O14 0.710770 0.852635 0.500000
O O15 0.767358 0.836377 0.281909
O O16 0.696352 0.769453 0.284572
O O17 0.559960 0.500000 0.750000
O O18 0.500000 0.414365 0.750000
O O19 0.542732 0.439139 0.500000
O O20 0.786406 0.190314 0.500000
#
# Coordination Sequence:
#
# PCOD8294291 Si02
#       8
#    16  16   4  16  16  16  16  16
#     4  11  22  38  57  82 113 149 192 238 288 341
#     4  11  22  37  54  80 115 154 198 244 293 340
#     4  12  18  40  56  78 112 156 208 248 298 340
#     4  11  22  38  59  87 119 152 190 234 286 341
#     4  10  22  36  55  80 111 154 201 248 295 343
#     4  10  20  37  61  88 114 145 186 233 287 344
#     4  11  22  39  62  88 118 155 194 233 278 335
#     4   9  20  38  61  87 115 148 185 230 284 343
#
# _framework density 19.543316000000001
#
# number of rings (size 3 to 8) (size 9 to 14) (size 15 to 20)
#    0.000    1.517    1.379    4.759    0.000    1.655 
#    0.000    2.759    0.000    3.310    0.000    0.000 
#    0.000    0.000    0.000    0.000    0.000    0.000 
#
# Total GULP energy -719264.386300 kJ/mol
# GULP energy per Si atom -12401.110109 kJ/mol
# Density = 1.949883 g / cm^3
# Si number density = 19.543316 Si / 1000 Ang^3
#
#
#
# Elastic Constant Matrix: (Units=GPa)
#
#
# Indices 1 2 3 4 5 6 
#
# 1 102.5404 57.6775 39.3558 0.0000 0.0000 0.0000
# 2 57.6775 111.9254 38.6663 0.0000 0.0000 0.0000
# 3 39.3558 38.6663 104.4111 0.0000 0.0000 0.0000
# 4 0.0000 0.0000 0.0000 29.2256 0.0000 0.0000
# 5 0.0000 0.0000 0.0000 0.0000 29.2754 0.0000
# 6 0.0000 0.0000 0.0000 0.0000 0.0000 21.3995
#
#
#
# Elastic Compliance Matrix: (Units=1/GPa)
#
#
# Indices 1 2 3 4 5 6 
#
# 1 0.014562 -0.006431 -0.003107 0.000000 0.000000 0.000000
# 2 -0.006431 0.013085 -0.002422 0.000000 0.000000 0.000000
# 3 -0.003107 -0.002422 0.011646 0.000000 0.000000 0.000000
# 4 0.000000 0.000000 0.000000 0.034217 0.000000 0.000000
# 5 0.000000 0.000000 0.000000 0.000000 0.034158 0.000000
# 6 0.000000 0.000000 0.000000 0.000000 0.000000 0.046730
#
#
# Mechanical properties :
#
#
# Convention : Reuss Voigt Hill
#
# Bulk Modulus (GPa) = 65.04937 65.58623 65.31780
# Shear Modulus (GPa) = 27.25659 28.19192 27.72425
#
# Velocity S-wave (km/s) = 3.73859 3.80219 3.77052
# Velocity P-wave (km/s) = 7.21062 7.27378 7.24227
#
# Compressibility (1/GPa) = 0.01537294
#
# Stress axis : x y z
#
# Youngs Moduli (GPa) = 68.67172 76.42333 85.86862
#
# Poissons Ratio (x) = 0.49145 0.26683
# Poissons Ratio (y) = 0.44160 0.20796
# Poissons Ratio (z) = 0.21339 0.18509
#
# Static dielectric constant tensor:
#      x y z
#    x 3.540350 0.000000 0.000000 
#    y 0.000000 3.556880 0.000000 
#    z 0.000000 0.000000 3.493260 
# 
# 
# High freq. dielectric constant tensor:
#      x y z
#    x 1.760840 0.000000 0.000000 
#    y 0.000000 1.762490 0.000000 
#    z 0.000000 0.000000 1.760960 
# 
# From -- ./inp_files/7509.got.cif
#   From: 2010.03.12/outbox.cif.g09.slc.cpg/sg72_4_cif.got.tgz:7509.got - 2010.04.16 14:54:00.
