data_PCOD8294178
_publ_section_title
;
Structure prediction by ZEFSAII (Michael W. Deem and Ramdas Pophale) SiO2 
 PCOD8294178
Probable space group: I B A M
;
_chemical_formula_sum "Si O2"
_cell_formula_units_Z 52
_cell_length_a 30.866650
_cell_length_b 10.206171
_cell_length_c 8.651482
_cell_angle_alpha 90.000000
_cell_angle_beta 90.000000
_cell_angle_gamma 90.000000
_cell_volume 2725.479040
_symmetry_space_group_name_H-M "I B A M"
_symmetry_group_IT_number 72
_symmetry_cell_setting 'orthorhombic'
loop_
_space_group_symop_operation_xyz
x,y,z
-x,-y,z
x,-y,1/2-z
-x,y,1/2-z
-x,-y,-z
x,y,-z
-x,y,1/2+z
x,-y,1/2+z
1/2+x,1/2+y,1/2+z
1/2-x,1/2-y,1/2+z
1/2+x,1/2-y,-z
1/2-x,1/2+y,-z
1/2-x,1/2-y,1/2-z
1/2+x,1/2+y,1/2-z
1/2-x,1/2+y,z
1/2+x,1/2-y,z
loop_
_atom_site_type_symbol
_atom_site_label
_atom_site_fract_x
_atom_site_fract_y
_atom_site_fract_z
Si Si1 0.916870 0.126227 0.829996
Si Si2 0.718847 0.859734 0.816092
Si Si3 0.874683 0.363399 0.317618
Si Si4 0.000000 0.000000 0.750000
O O1 0.909642 0.252343 0.722794
O O2 0.893723 0.000000 0.750000
O O3 0.896999 0.149841 0.000000
O O4 0.968398 0.095463 0.848657
O O5 0.750000 0.750000 0.750000
O O6 0.670560 0.825568 0.761240
O O7 0.733634 0.000000 0.750000
O O8 0.720990 0.862787 0.000000
O O9 0.892342 0.500000 0.250000
O O10 0.868345 0.375714 0.500000
#
# Coordination Sequence:
#
# PCOD8294178 Si02
#       4
#    16  16  16   4
#     4  10  20  36  59  86 115 150 190 236 288 344
#     4  11  22  39  60  85 117 153 194 240 290 345
#     4  11  22  38  59  85 117 154 193 239 291 346
#     4   8  22  36  64  84 122 148 196 236 302 340
#
# _framework density 19.079214
#
# number of rings (size 3 to 8) (size 9 to 14) (size 15 to 20)
#    0.923    0.615    0.000    8.769    0.000    1.231 
#    0.000    6.923    0.000    3.692    0.000    0.000 
#    0.000    0.000    0.000    0.000    0.000    0.000 
#
# Total GULP energy -322257.557981 kJ/mol
# GULP energy per Si atom -12394.521461 kJ/mol
# Density = 1.903579 g / cm^3
# Si number density = 19.079214 Si / 1000 Ang^3
#
#
#
# Elastic Constant Matrix: (Units=GPa)
#
#
# Indices 1 2 3 4 5 6 
#
# 1 67.7160 66.1039 31.2582 0.0000 0.0000 0.0000
# 2 66.1039 153.8511 58.7535 0.0000 0.0000 0.0000
# 3 31.2582 58.7535 187.4655 0.0000 0.0000 0.0000
# 4 0.0000 0.0000 0.0000 35.7530 0.0000 0.0000
# 5 0.0000 0.0000 0.0000 0.0000 24.7245 0.0000
# 6 0.0000 0.0000 0.0000 0.0000 0.0000 36.9927
#
#
#
# Elastic Compliance Matrix: (Units=1/GPa)
#
#
# Indices 1 2 3 4 5 6 
#
# 1 0.025579 -0.010634 -0.000932 0.000000 0.000000 0.000000
# 2 -0.010634 0.011805 -0.001927 0.000000 0.000000 0.000000
# 3 -0.000932 -0.001927 0.006094 0.000000 0.000000 0.000000
# 4 0.000000 0.000000 0.000000 0.027970 0.000000 0.000000
# 5 0.000000 0.000000 0.000000 0.000000 0.040446 0.000000
# 6 0.000000 0.000000 0.000000 0.000000 0.000000 0.027032
#
#
# Mechanical properties :
#
#
# Convention : Reuss Voigt Hill
#
# Bulk Modulus (GPa) = 60.63850 80.14041 70.38946
# Shear Modulus (GPa) = 29.17016 36.35518 32.76267
#
# Velocity S-wave (km/s) = 3.91435 4.36992 4.14840
# Velocity P-wave (km/s) = 7.23056 8.21930 7.74073
#
# Compressibility (1/GPa) = 0.01649117
#
# Stress axis : x y z
#
# Youngs Moduli (GPa) = 39.09452 84.71224 164.10840
#
# Poissons Ratio (x) = 0.90086 0.15298
# Poissons Ratio (y) = 0.41574 0.31616
# Poissons Ratio (z) = 0.03644 0.16320
#
# Static dielectric constant tensor:
#      x y z
#    x 3.200690 0.000000 0.000000 
#    y 0.000000 3.562080 0.000000 
#    z 0.000000 0.000000 3.656220 
# 
# 
# High freq. dielectric constant tensor:
#      x y z
#    x 1.714780 0.000000 0.000000 
#    y 0.000000 1.748950 0.000000 
#    z 0.000000 0.000000 1.763510 
# 
# From -- ./inp_files/2485.got.cif
#   From: 2010.03.12/outbox.cif.g09.slc.cpg/sg72_2_cif.got.tgz:2485.got - 2010.04.16 14:54:00.
