data_PCOD8294057
_publ_section_title
;
Structure prediction by ZEFSAII (Michael W. Deem and Ramdas Pophale) SiO2 
 PCOD8294057
Probable space group: I B A M
;
_chemical_formula_sum "Si O2"
_cell_formula_units_Z 116
_cell_length_a 30.987423
_cell_length_b 22.088234
_cell_length_c 8.828062
_cell_angle_alpha 90.000000
_cell_angle_beta 90.000000
_cell_angle_gamma 90.000000
_cell_volume 6042.432807
_symmetry_space_group_name_H-M "I B A M"
_symmetry_group_IT_number 72
_symmetry_cell_setting 'orthorhombic'
loop_
_space_group_symop_operation_xyz
x,y,z
-x,-y,z
x,-y,1/2-z
-x,y,1/2-z
-x,-y,-z
x,y,-z
-x,y,1/2+z
x,-y,1/2+z
1/2+x,1/2+y,1/2+z
1/2-x,1/2-y,1/2+z
1/2+x,1/2-y,-z
1/2-x,1/2+y,-z
1/2-x,1/2-y,1/2-z
1/2+x,1/2+y,1/2-z
1/2-x,1/2+y,z
1/2+x,1/2-y,z
loop_
_atom_site_type_symbol
_atom_site_label
_atom_site_fract_x
_atom_site_fract_y
_atom_site_fract_z
Si Si1 0.099613 0.178352 0.824832
Si Si2 0.344207 0.938443 0.680317
Si Si3 0.500000 0.000000 0.750000
Si Si4 0.567165 0.903703 0.330506
Si Si5 0.213787 0.670271 0.178248
Si Si6 0.546102 0.562154 0.320653
Si Si7 0.543817 0.221739 0.320305
Si Si8 0.194172 0.792513 0.674960
O O1 0.078245 0.115659 0.773678
O O2 0.082850 0.234267 0.725263
O O3 0.150699 0.169650 0.796372
O O4 0.089490 0.192758 0.000000
O O5 0.345308 0.942126 0.500000
O O6 0.392398 0.928193 0.738022
O O7 0.311886 0.887092 0.743256
O O8 0.325676 0.000000 0.750000
O O9 0.469239 0.044270 0.652938
O O10 0.581223 0.885210 0.500000
O O11 0.549606 0.845288 0.244015
O O12 0.190130 0.730105 0.235649
O O13 0.264087 0.669139 0.230914
O O14 0.209905 0.669243 0.000000
O O15 0.564435 0.500000 0.250000
O O16 0.500000 0.577929 0.250000
O O17 0.541613 0.554840 0.500000
O O18 0.500000 0.249584 0.250000
O O19 0.540237 0.218046 0.500000
O O20 0.200143 0.775626 0.500000
#
# Coordination Sequence:
#
# PCOD8294057 Si02
#       8
#    16  16   4  16  16  16  16  16
#     4  10  21  37  58  85 115 148 187 233 287 339
#     4  11  23  38  57  82 113 147 189 235 282 335
#     4  12  26  40  64  82 110 152 196 240 282 332
#     4  12  25  41  61  83 113 151 197 243 288 337
#     4   9  19  36  57  82 110 142 180 226 277 331
#     4  10  20  35  56  81 110 146 186 225 270 329
#     4  12  25  39  57  82 116 153 193 238 285 336
#     4   9  18  35  59  83 109 141 179 225 278 335
#
# _framework density 19.197564
#
# number of rings (size 3 to 8) (size 9 to 14) (size 15 to 20)
#    0.000    1.517    1.379    4.345    0.000    7.172 
#    0.000    0.690    0.000    0.000    0.000    0.000 
#    0.000    0.000    0.000    0.000    0.000    0.000 
#
# Total GULP energy -719243.658195 kJ/mol
# GULP energy per Si atom -12400.752727 kJ/mol
# Density = 1.915387 g / cm^3
# Si number density = 19.197564 Si / 1000 Ang^3
#
#
#
# Elastic Constant Matrix: (Units=GPa)
#
#
# Indices 1 2 3 4 5 6 
#
# 1 119.6689 79.3656 30.5629 0.0000 0.0000 0.0000
# 2 79.3656 131.5668 39.6681 0.0000 0.0000 0.0000
# 3 30.5629 39.6681 83.3433 0.0000 0.0000 0.0000
# 4 0.0000 0.0000 0.0000 28.6834 0.0000 0.0000
# 5 0.0000 0.0000 0.0000 0.0000 18.8210 0.0000
# 6 0.0000 0.0000 0.0000 0.0000 0.0000 26.5902
#
#
#
# Elastic Compliance Matrix: (Units=1/GPa)
#
#
# Indices 1 2 3 4 5 6 
#
# 1 0.014050 -0.008082 -0.001306 0.000000 0.000000 0.000000
# 2 -0.008082 0.013523 -0.003473 0.000000 0.000000 0.000000
# 3 -0.001306 -0.003473 0.014130 0.000000 0.000000 0.000000
# 4 0.000000 0.000000 0.000000 0.034863 0.000000 0.000000
# 5 0.000000 0.000000 0.000000 0.000000 0.053132 0.000000
# 6 0.000000 0.000000 0.000000 0.000000 0.000000 0.037608
#
#
# Mechanical properties :
#
#
# Convention : Reuss Voigt Hill
#
# Bulk Modulus (GPa) = 62.56720 70.41914 66.49317
# Shear Modulus (GPa) = 25.20754 27.15109 26.17932
#
# Velocity S-wave (km/s) = 3.62755 3.76480 3.69681
# Velocity P-wave (km/s) = 7.08572 7.46051 7.27553
#
# Compressibility (1/GPa) = 0.01598282
#
# Stress axis : x y z
#
# Youngs Moduli (GPa) = 71.17636 73.94906 70.77015
#
# Poissons Ratio (x) = 0.59762 0.09240
# Poissons Ratio (y) = 0.57522 0.24577
# Poissons Ratio (z) = 0.09293 0.25681
#
# Static dielectric constant tensor:
#      x y z
#    x 3.731630 0.000000 0.000000 
#    y 0.000000 3.680400 0.000000 
#    z 0.000000 0.000000 3.479250 
# 
# 
# High freq. dielectric constant tensor:
#      x y z
#    x 1.749850 0.000000 0.000000 
#    y 0.000000 1.744910 0.000000 
#    z 0.000000 0.000000 1.749280 
# 
# From -- ./inp_files/9355.got.cif
#   From: 2010.03.12/outbox.cif.g09.slc.cpg/sg72_5_cif.got.tgz:9355.got - 2010.04.16 14:54:00.
