data_PCOD8294772
_publ_section_title
;
Structure prediction by ZEFSAII (Michael W. Deem and Ramdas Pophale) SiO2 
 PCOD8294772
Probable space group: I B A M
;
_chemical_formula_sum "Si O2"
_cell_formula_units_Z 96
_cell_length_a 18.715891
_cell_length_b 9.633758
_cell_length_c 25.384721
_cell_angle_alpha 90.000000
_cell_angle_beta 90.000000
_cell_angle_gamma 90.000000
_cell_volume 4576.975992
_symmetry_space_group_name_H-M "I B A M"
_symmetry_group_IT_number 72
_symmetry_cell_setting 'orthorhombic'
loop_
_space_group_symop_operation_xyz
x,y,z
-x,-y,z
x,-y,1/2-z
-x,y,1/2-z
-x,-y,-z
x,y,-z
-x,y,1/2+z
x,-y,1/2+z
1/2+x,1/2+y,1/2+z
1/2-x,1/2-y,1/2+z
1/2+x,1/2-y,-z
1/2-x,1/2+y,-z
1/2-x,1/2-y,1/2-z
1/2+x,1/2+y,1/2-z
1/2-x,1/2+y,z
1/2+x,1/2-y,z
loop_
_atom_site_type_symbol
_atom_site_label
_atom_site_fract_x
_atom_site_fract_y
_atom_site_fract_z
Si Si1 0.794600 0.721507 0.301736
Si Si2 0.032203 0.153381 0.440846
Si Si3 0.166612 0.997003 0.561704
Si Si4 0.080789 0.838823 0.258271
Si Si5 0.787311 0.555475 0.865232
Si Si6 0.592894 0.746202 0.622674
O O1 0.750000 0.750000 0.250000
O O2 0.876075 0.754943 0.286152
O O3 0.790648 0.562822 0.320763
O O4 0.762845 0.819322 0.346318
O O5 0.025566 0.216419 0.500000
O O6 0.115702 0.131487 0.424468
O O7 0.989450 0.251170 0.398819
O O8 0.000000 0.000000 0.439629
O O9 0.168672 0.975430 0.500000
O O10 0.247700 0.009039 0.581601
O O11 0.134983 0.857809 0.585708
O O12 0.102079 0.803754 0.317625
O O13 0.000000 0.794740 0.250000
O O14 0.095074 0.000000 0.250000
O O15 0.867806 0.604166 0.880051
#
# Coordination Sequence:
#
# PCOD8294772 Si02
#       6
#    16  16  16  16  16  16
#     4  12  23  43  65  91 132 174 219 267 335 397
#     4   8  17  33  60  89 122 163 207 267 324 378
#     4  10  21  39  65  96 129 169 223 277 328 394
#     4  11  25  39  65  99 125 169 220 274 318 392
#     4  12  24  40  65  95 127 178 214 274 331 397
#     4  11  21  38  60  93 129 161 214 266 330 386
#
# _framework density 20.974547000000001
#
# number of rings (size 3 to 8) (size 9 to 14) (size 15 to 20)
#    0.000    1.333    3.333    4.000    9.333    1.333 
#    0.000    1.667    0.000    0.000    0.000    2.333 
#    0.000    0.000    0.000    0.000    0.000    0.000 
#
# Total GULP energy -594964.823001 kJ/mol
# GULP energy per Si atom -12395.100479 kJ/mol
# Density = 2.092681 g / cm^3
# Si number density = 20.974547 Si / 1000 Ang^3
#
#
#
# Elastic Constant Matrix: (Units=GPa)
#
#
# Indices 1 2 3 4 5 6 
#
# 1 109.6913 48.0367 43.0022 0.0000 0.0000 0.0000
# 2 48.0367 82.6692 32.6208 0.0000 0.0000 0.0000
# 3 43.0022 32.6208 91.8936 0.0000 0.0000 0.0000
# 4 0.0000 0.0000 0.0000 19.9281 0.0000 0.0000
# 5 0.0000 0.0000 0.0000 0.0000 25.4976 0.0000
# 6 0.0000 0.0000 0.0000 0.0000 0.0000 31.7428
#
#
#
# Elastic Compliance Matrix: (Units=1/GPa)
#
#
# Indices 1 2 3 4 5 6 
#
# 1 0.013430 -0.006191 -0.004087 0.000000 0.000000 0.000000
# 2 -0.006191 0.016921 -0.003109 0.000000 0.000000 0.000000
# 3 -0.004087 -0.003109 0.013898 0.000000 0.000000 0.000000
# 4 0.000000 0.000000 0.000000 0.050180 0.000000 0.000000
# 5 0.000000 0.000000 0.000000 0.000000 0.039219 0.000000
# 6 0.000000 0.000000 0.000000 0.000000 0.000000 0.031503
#
#
# Mechanical properties :
#
#
# Convention : Reuss Voigt Hill
#
# Bulk Modulus (GPa) = 57.22679 59.06371 58.14525
# Shear Modulus (GPa) = 25.28422 26.14000 25.71211
#
# Velocity S-wave (km/s) = 3.47576 3.53409 3.50504
# Velocity P-wave (km/s) = 6.59174 6.69880 6.64548
#
# Compressibility (1/GPa) = 0.01747433
#
# Stress axis : x y z
#
# Youngs Moduli (GPa) = 74.46072 59.09875 71.95050
#
# Poissons Ratio (x) = 0.36588 0.29405
# Poissons Ratio (y) = 0.46099 0.22373
# Poissons Ratio (z) = 0.30431 0.18377
#
# Static dielectric constant tensor:
#      x y z
#    x 4.410890 0.000000 0.000000 
#    y 0.000000 3.213180 0.000000 
#    z 0.000000 0.000000 4.190150 
# 
# 
# High freq. dielectric constant tensor:
#      x y z
#    x 1.831190 0.000000 0.000000 
#    y 0.000000 1.782720 0.000000 
#    z 0.000000 0.000000 1.831510 
# 
# From -- ./inp_files/49350.got.cif
#   From: 2010.03.12/outbox.cif.g09.slc.cpg/sg72_25_cif.got.tgz:49350.got - 2010.04.16 14:54:00.
