data_PCOD8294249
_publ_section_title
;
Structure prediction by ZEFSAII (Michael W. Deem and Ramdas Pophale) SiO2 
 PCOD8294249
Probable space group: I B A M
;
_chemical_formula_sum "Si O2"
_cell_formula_units_Z 72
_cell_length_a 23.586570
_cell_length_b 16.672168
_cell_length_c 9.002522
_cell_angle_alpha 90.000000
_cell_angle_beta 90.000000
_cell_angle_gamma 90.000000
_cell_volume 3540.145068
_symmetry_space_group_name_H-M "I B A M"
_symmetry_group_IT_number 72
_symmetry_cell_setting 'orthorhombic'
loop_
_space_group_symop_operation_xyz
x,y,z
-x,-y,z
x,-y,1/2-z
-x,y,1/2-z
-x,-y,-z
x,y,-z
-x,y,1/2+z
x,-y,1/2+z
1/2+x,1/2+y,1/2+z
1/2-x,1/2-y,1/2+z
1/2+x,1/2-y,-z
1/2-x,1/2+y,-z
1/2-x,1/2-y,1/2-z
1/2+x,1/2+y,1/2-z
1/2-x,1/2+y,z
1/2+x,1/2-y,z
loop_
_atom_site_type_symbol
_atom_site_label
_atom_site_fract_x
_atom_site_fract_y
_atom_site_fract_z
Si Si1 0.353017 0.500000 0.250000
Si Si2 0.552745 0.612554 0.834218
Si Si3 0.286842 0.350709 0.335463
Si Si4 0.166243 0.296804 0.671158
Si Si5 0.942565 0.279669 0.323591
O O1 0.394356 0.447359 0.146392
O O2 0.312395 0.440028 0.339611
O O3 0.500000 0.569739 0.750000
O O4 0.568089 0.689090 0.733111
O O5 0.534561 0.640183 0.000000
O O6 0.294759 0.312836 0.500000
O O7 0.219525 0.355480 0.299303
O O8 0.317238 0.294083 0.216660
O O9 0.147833 0.294179 0.500000
O O10 0.112558 0.328909 0.766724
O O11 0.946956 0.283888 0.500000
O O12 0.000000 0.314828 0.250000
#
# Coordination Sequence:
#
# PCOD8294249 Si02
#       5
#     8  16  16  16  16
#     4  12  23  34  56  80 111 148 190 226 270 322
#     4  11  23  36  51  74 108 148 188 224 266 314
#     4  10  22  37  55  78 108 146 187 229 273 322
#     4  10  20  37  57  79 107 142 184 229 277 325
#     4  11  21  35  57  81 109 141 182 225 273 325
#
# _framework density 20.338149000000001
#
# number of rings (size 3 to 8) (size 9 to 14) (size 15 to 20)
#    0.000    1.333    2.222    5.667    0.000    5.333 
#    0.000    0.000    0.000    0.000    0.000    0.778 
#    0.000    5.333    0.000    0.000    0.000    0.222 
#
# Total GULP energy -446162.021181 kJ/mol
# GULP energy per Si atom -12393.389477 kJ/mol
# Density = 2.029186 g / cm^3
# Si number density = 20.338149 Si / 1000 Ang^3
#
#
#
# Elastic Constant Matrix: (Units=GPa)
#
#
# Indices 1 2 3 4 5 6 
#
# 1 177.4495 30.5415 67.5745 0.0000 0.0000 0.0000
# 2 30.5415 31.7771 8.2684 0.0000 0.0000 0.0000
# 3 67.5745 8.2684 158.3497 0.0000 0.0000 0.0000
# 4 0.0000 0.0000 0.0000 11.5869 0.0000 0.0000
# 5 0.0000 0.0000 0.0000 0.0000 30.7974 0.0000
# 6 0.0000 0.0000 0.0000 0.0000 0.0000 39.5504
#
#
#
# Elastic Compliance Matrix: (Units=1/GPa)
#
#
# Indices 1 2 3 4 5 6 
#
# 1 0.007979 -0.006876 -0.003046 0.000000 0.000000 0.000000
# 2 -0.006876 0.037828 0.000959 0.000000 0.000000 0.000000
# 3 -0.003046 0.000959 0.007565 0.000000 0.000000 0.000000
# 4 0.000000 0.000000 0.000000 0.086304 0.000000 0.000000
# 5 0.000000 0.000000 0.000000 0.000000 0.032470 0.000000
# 6 0.000000 0.000000 0.000000 0.000000 0.000000 0.025284
#
#
# Mechanical properties :
#
#
# Convention : Reuss Voigt Hill
#
# Bulk Modulus (GPa) = 28.21172 64.48277 46.34724
# Shear Modulus (GPa) = 22.00980 33.79973 27.90477
#
# Velocity S-wave (km/s) = 3.29324 4.08105 3.70813
# Velocity P-wave (km/s) = 5.32560 7.34716 6.41649
#
# Compressibility (1/GPa) = 0.03544627
#
# Stress axis : x y z
#
# Youngs Moduli (GPa) = 125.33317 26.43530 132.19043
#
# Poissons Ratio (x) = 0.18177 0.40263
# Poissons Ratio (y) = 0.86179 -0.12677
# Poissons Ratio (z) = 0.38174 -0.02535
#
# Static dielectric constant tensor:
#      x y z
#    x 4.425320 0.000000 0.000000 
#    y 0.000000 3.108080 0.000000 
#    z 0.000000 0.000000 3.666560 
# 
# 
# High freq. dielectric constant tensor:
#      x y z
#    x 1.823480 0.000000 0.000000 
#    y 0.000000 1.719710 0.000000 
#    z 0.000000 0.000000 1.803350 
# 
# From -- ./inp_files/4608.got.cif
#   From: 2010.03.12/outbox.cif.g09.slc.cpg/sg72_3_cif.got.tgz:4608.got - 2010.04.16 14:54:00.
