data_PCOD8294865
_publ_section_title
;
Structure prediction by ZEFSAII (Michael W. Deem and Ramdas Pophale) SiO2 
 PCOD8294865
Probable space group: I B A M
;
_chemical_formula_sum "Si O2"
_cell_formula_units_Z 64
_cell_length_a 5.121798
_cell_length_b 23.472123
_cell_length_c 24.975992
_cell_angle_alpha 90.000000
_cell_angle_beta 90.000000
_cell_angle_gamma 90.000000
_cell_volume 3002.600587
_symmetry_space_group_name_H-M "I B A M"
_symmetry_group_IT_number 72
_symmetry_cell_setting 'orthorhombic'
loop_
_space_group_symop_operation_xyz
x,y,z
-x,-y,z
x,-y,1/2-z
-x,y,1/2-z
-x,-y,-z
x,y,-z
-x,y,1/2+z
x,-y,1/2+z
1/2+x,1/2+y,1/2+z
1/2-x,1/2-y,1/2+z
1/2+x,1/2-y,-z
1/2-x,1/2+y,-z
1/2-x,1/2-y,1/2-z
1/2+x,1/2+y,1/2-z
1/2-x,1/2+y,z
1/2+x,1/2-y,z
loop_
_atom_site_type_symbol
_atom_site_label
_atom_site_fract_x
_atom_site_fract_y
_atom_site_fract_z
Si Si1 0.097546 0.395921 0.118912
Si Si2 0.517945 0.785987 0.811498
Si Si3 0.751244 0.437050 0.273733
Si Si4 0.075384 0.934664 0.561196
O O1 0.049249 0.335728 0.146793
O O2 0.227399 0.439016 0.162425
O O3 0.324844 0.394222 0.074011
O O4 0.826136 0.419989 0.097015
O O5 0.500000 0.806717 0.750000
O O6 0.808962 0.763913 0.823041
O O7 0.743561 0.500000 0.250000
O O8 0.500000 0.403525 0.250000
O O9 0.000000 0.403602 0.250000
O O10 0.154921 0.923426 0.500000
O O11 0.000000 0.000000 0.570694
#
# Coordination Sequence:
#
# PCOD8294865 Si02
#       4
#    16  16  16  16
#     4  12  23  40  70  91 126 177 213 264 331 374
#     4  10  22  41  65  95 131 167 213 259 314 395
#     4  10  22  34  52  88 128 159 196 251 306 379
#     4  11  26  44  64  93 129 172 223 268 321 390
#
# _framework density 21.314855000000001
#
# number of rings (size 3 to 8) (size 9 to 14) (size 15 to 20)
#    0.000    1.250    0.000    5.250   10.500    5.000 
#    0.000    0.000    0.000   15.000    0.000    0.000 
#    0.000    0.000    0.000    0.000    0.000    0.000 
#
# Total GULP energy -396614.545946 kJ/mol
# GULP energy per Si atom -12394.204561 kJ/mol
# Density = 2.126634 g / cm^3
# Si number density = 21.314855 Si / 1000 Ang^3
#
#
#
# Elastic Constant Matrix: (Units=GPa)
#
#
# Indices 1 2 3 4 5 6 
#
# 1 186.1416 25.3817 53.1718 0.0000 0.0000 0.0000
# 2 25.3817 83.4319 52.9659 0.0000 0.0000 0.0000
# 3 53.1718 52.9659 115.2047 0.0000 0.0000 0.0000
# 4 0.0000 0.0000 0.0000 30.5867 0.0000 0.0000
# 5 0.0000 0.0000 0.0000 0.0000 46.1420 0.0000
# 6 0.0000 0.0000 0.0000 0.0000 0.0000 15.9786
#
#
#
# Elastic Compliance Matrix: (Units=1/GPa)
#
#
# Indices 1 2 3 4 5 6 
#
# 1 0.006189 -0.000098 -0.002811 0.000000 0.000000 0.000000
# 2 -0.000098 0.016928 -0.007737 0.000000 0.000000 0.000000
# 3 -0.002811 -0.007737 0.013535 0.000000 0.000000 0.000000
# 4 0.000000 0.000000 0.000000 0.032694 0.000000 0.000000
# 5 0.000000 0.000000 0.000000 0.000000 0.021672 0.000000
# 6 0.000000 0.000000 0.000000 0.000000 0.000000 0.062584
#
#
# Mechanical properties :
#
#
# Convention : Reuss Voigt Hill
#
# Bulk Modulus (GPa) = 65.11233 71.97965 68.54599
# Shear Modulus (GPa) = 27.77566 35.42536 31.60051
#
# Velocity S-wave (km/s) = 3.61378 4.08119 3.85458
# Velocity P-wave (km/s) = 6.93013 7.48673 7.21380
#
# Compressibility (1/GPa) = 0.01535807
#
# Stress axis : x y z
#
# Youngs Moduli (GPa) = 161.58575 59.07513 73.88263
#
# Poissons Ratio (x) = 0.00579 0.20770
# Poissons Ratio (y) = 0.01584 0.57165
# Poissons Ratio (z) = 0.45426 0.45708
#
# Static dielectric constant tensor:
#      x y z
#    x 3.869460 0.000000 0.000000 
#    y 0.000000 3.280720 0.000000 
#    z 0.000000 0.000000 4.008130 
# 
# 
# High freq. dielectric constant tensor:
#      x y z
#    x 1.871060 0.000000 0.000000 
#    y 0.000000 1.814550 0.000000 
#    z 0.000000 0.000000 1.829250 
# 
# From -- ./inp_files/41334.got.cif
#   From: 2010.03.12/outbox.cif.g09.slc.cpg/sg72_21_cif.got.tgz:41334.got - 2010.04.16 14:54:00.
