data_PCOD8294692
_publ_section_title
;
Structure prediction by ZEFSAII (Michael W. Deem and Ramdas Pophale) SiO2 
 PCOD8294692
Probable space group: I B A M
;
_chemical_formula_sum "Si O2"
_cell_formula_units_Z 116
_cell_length_a 27.721471
_cell_length_b 23.016060
_cell_length_c 8.585706
_cell_angle_alpha 90.000000
_cell_angle_beta 90.000000
_cell_angle_gamma 90.000000
_cell_volume 5478.015612
_symmetry_space_group_name_H-M "I B A M"
_symmetry_group_IT_number 72
_symmetry_cell_setting 'orthorhombic'
loop_
_space_group_symop_operation_xyz
x,y,z
-x,-y,z
x,-y,1/2-z
-x,y,1/2-z
-x,-y,-z
x,y,-z
-x,y,1/2+z
x,-y,1/2+z
1/2+x,1/2+y,1/2+z
1/2-x,1/2-y,1/2+z
1/2+x,1/2-y,-z
1/2-x,1/2+y,-z
1/2-x,1/2-y,1/2-z
1/2+x,1/2+y,1/2-z
1/2-x,1/2+y,z
1/2+x,1/2-y,z
loop_
_atom_site_type_symbol
_atom_site_label
_atom_site_fract_x
_atom_site_fract_y
_atom_site_fract_z
Si Si1 0.930363 0.099559 0.327214
Si Si2 0.263321 0.937461 0.815951
Si Si3 0.667775 0.625064 0.182446
Si Si4 0.551815 0.063031 0.684095
Si Si5 0.857748 0.374041 0.683710
Si Si6 0.000000 0.000000 0.750000
Si Si7 0.855221 0.243948 0.321123
Si Si8 0.548010 0.715031 0.818849
O O1 0.928474 0.127274 0.500000
O O2 0.874925 0.090010 0.271671
O O3 0.962713 0.041305 0.342656
O O4 0.953392 0.145035 0.205258
O O5 0.219097 0.897916 0.758032
O O6 0.314513 0.914320 0.752982
O O7 0.253291 0.000000 0.750000
O O8 0.264935 0.938709 0.000000
O O9 0.668877 0.694269 0.215306
O O10 0.659801 0.614762 0.000000
O O11 0.500000 0.083382 0.750000
O O12 0.547873 0.058764 0.500000
O O13 0.592826 0.109436 0.729545
O O14 0.566421 0.000000 0.750000
O O15 0.866810 0.380702 0.500000
O O16 0.839168 0.308959 0.723757
O O17 0.843691 0.229902 0.500000
O O18 0.911885 0.243346 0.288583
O O19 0.500000 0.743563 0.750000
O O20 0.555253 0.729440 0.000000
#
# Coordination Sequence:
#
# PCOD8294692 Si02
#       8
#    16  16  16  16  16   4  16  16
#     4  11  23  38  57  82 115 154 199 247 302 358
#     4  10  23  42  64  91 122 160 200 247 303 359
#     4  10  22  41  62  87 121 157 200 252 304 360
#     4  11  22  38  62  92 128 168 207 249 303 361
#     4  10  22  41  63  91 126 160 203 252 301 360
#     4  12  26  36  56  86 122 156 202 252 302 360
#     4  10  21  38  61  87 117 156 199 248 303 359
#     4  11  21  36  57  80 112 152 196 243 295 355
#
# _framework density 21.175550000000001
#
# number of rings (size 3 to 8) (size 9 to 14) (size 15 to 20)
#    0.000    1.517    0.690    6.414    0.966    6.621 
#    0.000    0.000    0.000    0.000    0.000    0.000 
#    0.000    0.000    0.000    0.000    0.000    0.000 
#
# Total GULP energy -718953.797162 kJ/mol
# GULP energy per Si atom -12395.755123 kJ/mol
# Density = 2.112735 g / cm^3
# Si number density = 21.175550 Si / 1000 Ang^3
#
#
#
# Elastic Constant Matrix: (Units=GPa)
#
#
# Indices 1 2 3 4 5 6 
#
# 1 133.1474 44.8567 31.0623 0.0000 0.0000 0.0000
# 2 44.8567 89.1804 28.2983 0.0000 0.0000 0.0000
# 3 31.0623 28.2983 82.7497 0.0000 0.0000 0.0000
# 4 0.0000 0.0000 0.0000 21.1694 0.0000 0.0000
# 5 0.0000 0.0000 0.0000 0.0000 23.1453 0.0000
# 6 0.0000 0.0000 0.0000 0.0000 0.0000 15.7593
#
#
#
# Elastic Compliance Matrix: (Units=1/GPa)
#
#
# Indices 1 2 3 4 5 6 
#
# 1 0.009368 -0.004034 -0.002137 0.000000 0.000000 0.000000
# 2 -0.004034 0.014315 -0.003381 0.000000 0.000000 0.000000
# 3 -0.002137 -0.003381 0.014043 0.000000 0.000000 0.000000
# 4 0.000000 0.000000 0.000000 0.047238 0.000000 0.000000
# 5 0.000000 0.000000 0.000000 0.000000 0.043205 0.000000
# 6 0.000000 0.000000 0.000000 0.000000 0.000000 0.063455
#
#
# Mechanical properties :
#
#
# Convention : Reuss Voigt Hill
#
# Bulk Modulus (GPa) = 53.69987 57.05691 55.37839
# Shear Modulus (GPa) = 23.04831 25.40549 24.22690
#
# Velocity S-wave (km/s) = 3.30273 3.46751 3.38612
# Velocity P-wave (km/s) = 6.32127 6.56008 6.44178
#
# Compressibility (1/GPa) = 0.01862202
#
# Stress axis : x y z
#
# Youngs Moduli (GPa) = 106.74605 69.85619 71.20931
#
# Poissons Ratio (x) = 0.28179 0.15218
# Poissons Ratio (y) = 0.43060 0.24077
# Poissons Ratio (z) = 0.22812 0.23620
#
# Static dielectric constant tensor:
#      x y z
#    x 4.032850 0.000000 0.000000 
#    y 0.000000 3.801980 0.000000 
#    z 0.000000 0.000000 3.708590 
# 
# 
# High freq. dielectric constant tensor:
#      x y z
#    x 1.837330 0.000000 0.000000 
#    y 0.000000 1.822430 0.000000 
#    z 0.000000 0.000000 1.827640 
# 
# From -- ./inp_files/8416.got.cif
#   From: 2010.03.12/outbox.cif.g09.slc.cpg/sg72_5_cif.got.tgz:8416.got - 2010.04.16 14:54:00.
