data_PCOD8294877
_publ_section_title
;
Structure prediction by ZEFSAII (Michael W. Deem and Ramdas Pophale) SiO2 
 PCOD8294877
Probable space group: I B A M
;
_chemical_formula_sum "Si O2"
_cell_formula_units_Z 72
_cell_length_a 9.355082
_cell_length_b 26.741567
_cell_length_c 14.551791
_cell_angle_alpha 90.000000
_cell_angle_beta 90.000000
_cell_angle_gamma 90.000000
_cell_volume 3640.415037
_symmetry_space_group_name_H-M "I B A M"
_symmetry_group_IT_number 72
_symmetry_cell_setting 'orthorhombic'
loop_
_space_group_symop_operation_xyz
x,y,z
-x,-y,z
x,-y,1/2-z
-x,y,1/2-z
-x,-y,-z
x,y,-z
-x,y,1/2+z
x,-y,1/2+z
1/2+x,1/2+y,1/2+z
1/2-x,1/2-y,1/2+z
1/2+x,1/2-y,-z
1/2-x,1/2+y,-z
1/2-x,1/2-y,1/2-z
1/2+x,1/2+y,1/2-z
1/2-x,1/2+y,z
1/2+x,1/2-y,z
loop_
_atom_site_type_symbol
_atom_site_label
_atom_site_fract_x
_atom_site_fract_y
_atom_site_fract_z
Si Si1 0.724133 0.070917 0.000000
Si Si2 0.618611 0.289904 0.901449
Si Si3 0.969053 0.880864 0.000000
Si Si4 0.582281 0.796046 0.842014
Si Si5 0.509219 0.903917 0.139488
Si Si6 0.290313 0.954269 0.500000
O O1 0.644726 0.087297 0.093648
O O2 0.873831 0.098228 0.000000
O O3 0.747574 0.012044 0.000000
O O4 0.553381 0.346015 0.908599
O O5 0.488472 0.252292 0.886851
O O6 0.747239 0.286012 0.827603
O O7 0.691482 0.276450 0.000000
O O8 0.858966 0.925905 0.000000
O O9 0.500000 0.806576 0.750000
O O10 0.562322 0.848744 0.894104
O O11 0.500000 0.912017 0.250000
O O12 0.620149 0.942425 0.092696
#
# Coordination Sequence:
#
# PCOD8294877 Si02
#       6
#     8  16   8  16  16   8
#     4  11  25  38  68  91 112 166 206 256 308 373
#     4  10  22  36  60  86 121 164 194 243 294 361
#     4  10  23  40  60  87 126 155 202 254 305 361
#     4  11  22  37  59  89 124 158 197 243 295 365
#     4  10  22  40  65  94 123 156 203 255 304 364
#     4  11  21  44  64  86 124 157 207 256 315 357
#
# _framework density 19.777964999999998
#
# number of rings (size 3 to 8) (size 9 to 14) (size 15 to 20)
#    0.667    0.889    2.222    3.000    7.778    1.778 
#    0.000    1.111    0.000    2.667    0.000    0.000 
#    0.000    0.000    0.000    0.000    0.000    0.000 
#
# Total GULP energy -446007.143945 kJ/mol
# GULP energy per Si atom -12389.087332 kJ/mol
# Density = 1.973295 g / cm^3
# Si number density = 19.777965 Si / 1000 Ang^3
#
#
#
# Elastic Constant Matrix: (Units=GPa)
#
#
# Indices 1 2 3 4 5 6 
#
# 1 167.1294 68.1240 46.1956 0.0001 -0.0001 0.0000
# 2 68.1240 133.4575 24.8915 0.0000 0.0000 0.0000
# 3 46.1956 24.8915 92.9861 -0.0001 0.0005 0.0000
# 4 0.0001 0.0000 -0.0001 20.7182 0.0000 0.0000
# 5 -0.0001 0.0000 0.0005 0.0000 11.8991 0.0000
# 6 0.0000 0.0000 0.0000 0.0000 0.0000 30.9586
#
#
#
# Elastic Compliance Matrix: (Units=1/GPa)
#
#
# Indices 1 2 3 4 5 6 
#
# 1 0.008357 -0.003675 -0.003168 0.000000 0.000000 0.000000
# 2 -0.003675 0.009503 -0.000718 0.000000 0.000000 0.000000
# 3 -0.003168 -0.000718 0.012520 0.000000 -0.000001 0.000000
# 4 0.000000 0.000000 0.000000 0.048267 0.000000 0.000000
# 5 0.000000 0.000000 -0.000001 0.000000 0.084040 0.000000
# 6 0.000000 0.000000 0.000000 0.000000 0.000000 0.032301
#
#
# Mechanical properties :
#
#
# Convention : Reuss Voigt Hill
#
# Bulk Modulus (GPa) = 65.53899 74.66612 70.10256
# Shear Modulus (GPa) = 23.23459 29.67264 26.45362
#
# Velocity S-wave (km/s) = 3.43121 3.87756 3.66119
# Velocity P-wave (km/s) = 6.99335 7.60798 7.30713
#
# Compressibility (1/GPa) = 0.01525809
#
# Stress axis : x y z
#
# Youngs Moduli (GPa) = 119.65981 105.23127 79.86967
#
# Poissons Ratio (x) = 0.38673 0.25303
# Poissons Ratio (y) = 0.43975 0.05735
# Poissons Ratio (z) = 0.37908 0.07556
#
# Static dielectric constant tensor:
#      x y z
#    x 3.501490 0.000000 0.000000 
#    y 0.000000 3.901570 0.000000 
#    z 0.000000 0.000000 3.723260 
# 
# 
# High freq. dielectric constant tensor:
#      x y z
#    x 1.773520 0.000000 0.000000 
#    y 0.000000 1.784900 0.000000 
#    z 0.000000 0.000000 1.753570 
# 
# From -- ./inp_files/19020.got.cif
#   From: 2010.03.12/outbox.cif.g09.slc.cpg/sg72_10_cif.got.tgz:19020.got - 2010.04.16 14:54:00.
