data_PCOD8294622
_publ_section_title
;
Structure prediction by ZEFSAII (Michael W. Deem and Ramdas Pophale) SiO2 
 PCOD8294622
Probable space group: I B A M
;
_chemical_formula_sum "Si O2"
_cell_formula_units_Z 116
_cell_length_a 22.393259
_cell_length_b 26.778041
_cell_length_c 9.130641
_cell_angle_alpha 90.000000
_cell_angle_beta 90.000000
_cell_angle_gamma 90.000000
_cell_volume 5475.167032
_symmetry_space_group_name_H-M "I B A M"
_symmetry_group_IT_number 72
_symmetry_cell_setting 'orthorhombic'
loop_
_space_group_symop_operation_xyz
x,y,z
-x,-y,z
x,-y,1/2-z
-x,y,1/2-z
-x,-y,-z
x,y,-z
-x,y,1/2+z
x,-y,1/2+z
1/2+x,1/2+y,1/2+z
1/2-x,1/2-y,1/2+z
1/2+x,1/2-y,-z
1/2-x,1/2+y,-z
1/2-x,1/2-y,1/2-z
1/2+x,1/2+y,1/2-z
1/2-x,1/2+y,z
1/2+x,1/2-y,z
loop_
_atom_site_type_symbol
_atom_site_label
_atom_site_fract_x
_atom_site_fract_y
_atom_site_fract_z
Si Si1 0.634783 0.166818 0.832112
Si Si2 0.937339 0.050118 0.826808
Si Si3 0.757172 0.847675 0.166805
Si Si4 0.222580 0.456342 0.661522
Si Si5 0.623728 0.346479 0.328728
Si Si6 0.557174 0.262606 0.168062
Si Si7 0.596093 0.922641 0.834938
Si Si8 0.500000 0.000000 0.250000
O O1 0.695867 0.169055 0.741207
O O2 0.609020 0.221988 0.820805
O O3 0.586880 0.126714 0.765271
O O4 0.647523 0.151791 0.000000
O O5 0.891200 0.095410 0.800567
O O6 0.000000 0.063613 0.750000
O O7 0.911135 0.000000 0.750000
O O8 0.947218 0.040986 0.000000
O O9 0.762567 0.907400 0.166547
O O10 0.813393 0.829102 0.259309
O O11 0.759832 0.826929 0.000000
O O12 0.255627 0.500000 0.750000
O O13 0.214497 0.477345 0.500000
O O14 0.156528 0.447072 0.729086
O O15 0.625321 0.334029 0.500000
O O16 0.573696 0.313575 0.250218
O O17 0.500000 0.239807 0.250000
O O18 0.542089 0.275104 0.000000
O O19 0.541991 0.962415 0.841110
O O20 0.607742 0.903717 0.000000
#
# Coordination Sequence:
#
# PCOD8294622 Si02
#       8
#    16  16  16  16  16  16  16   4
#     4  10  23  43  65  90 121 160 207 258 312 371
#     4  10  21  37  60  91 127 167 207 249 301 360
#     4  10  22  40  62  89 121 160 204 254 310 368
#     4   9  18  34  53  77 110 152 198 245 299 357
#     4  11  24  41  64  95 127 163 207 254 304 366
#     4  11  25  44  67  95 125 162 204 252 310 368
#     4  10  22  37  55  83 119 159 204 254 310 365
#     4  12  22  36  56  90 122 164 212 262 310 372
#
# _framework density 21.186568999999999
#
# number of rings (size 3 to 8) (size 9 to 14) (size 15 to 20)
#    0.000    1.793    0.690    3.931    0.966   10.483 
#    0.000    2.759    0.000    0.000    0.000    0.000 
#    0.000    0.000    0.000    0.000    0.000    0.000 
#
# Total GULP energy -719039.689216 kJ/mol
# GULP energy per Si atom -12397.236021 kJ/mol
# Density = 2.113835 g / cm^3
# Si number density = 21.186569 Si / 1000 Ang^3
#
#
#
# Elastic Constant Matrix: (Units=GPa)
#
#
# Indices 1 2 3 4 5 6 
#
# 1 82.5767 18.6940 48.4578 0.0000 0.0000 0.0000
# 2 18.6940 82.1948 56.3361 0.0000 0.0000 0.0000
# 3 48.4578 56.3361 164.3771 0.0000 0.0000 0.0000
# 4 0.0000 0.0000 0.0000 32.8220 0.0000 0.0000
# 5 0.0000 0.0000 0.0000 0.0000 24.7930 0.0000
# 6 0.0000 0.0000 0.0000 0.0000 0.0000 21.8161
#
#
#
# Elastic Compliance Matrix: (Units=1/GPa)
#
#
# Indices 1 2 3 4 5 6 
#
# 1 0.014658 -0.000486 -0.004154 0.000000 0.000000 0.000000
# 2 -0.000486 0.015918 -0.005312 0.000000 0.000000 0.000000
# 3 -0.004154 -0.005312 0.009129 0.000000 0.000000 0.000000
# 4 0.000000 0.000000 0.000000 0.030467 0.000000 0.000000
# 5 0.000000 0.000000 0.000000 0.000000 0.040334 0.000000
# 6 0.000000 0.000000 0.000000 0.000000 0.000000 0.045838
#
#
# Mechanical properties :
#
#
# Convention : Reuss Voigt Hill
#
# Bulk Modulus (GPa) = 50.50773 64.01381 57.26077
# Shear Modulus (GPa) = 27.34500 29.59692 28.47096
#
# Velocity S-wave (km/s) = 3.59650 3.74166 3.66979
# Velocity P-wave (km/s) = 6.41386 6.99618 6.71134
#
# Compressibility (1/GPa) = 0.01979895
#
# Stress axis : x y z
#
# Youngs Moduli (GPa) = 68.22233 62.82330 109.54285
#
# Poissons Ratio (x) = 0.03055 0.45509
# Poissons Ratio (y) = 0.03318 0.58189
# Poissons Ratio (z) = 0.28343 0.33372
#
# Static dielectric constant tensor:
#      x y z
#    x 3.638290 0.000000 0.000000 
#    y 0.000000 3.816660 0.000000 
#    z 0.000000 0.000000 3.938430 
# 
# 
# High freq. dielectric constant tensor:
#      x y z
#    x 1.820800 0.000000 0.000000 
#    y 0.000000 1.828390 0.000000 
#    z 0.000000 0.000000 1.840690 
# 
# From -- ./inp_files/7280.got.cif
#   From: 2010.03.12/outbox.cif.g09.slc.cpg/sg72_4_cif.got.tgz:7280.got - 2010.04.16 14:54:00.
