data_PCOD8294578
_publ_section_title
;
Structure prediction by ZEFSAII (Michael W. Deem and Ramdas Pophale) SiO2 
 PCOD8294578
Probable space group: I B A M
;
_chemical_formula_sum "Si O2"
_cell_formula_units_Z 96
_cell_length_a 13.862300
_cell_length_b 20.210641
_cell_length_c 17.322937
_cell_angle_alpha 90.000000
_cell_angle_beta 90.000000
_cell_angle_gamma 90.000000
_cell_volume 4853.297426
_symmetry_space_group_name_H-M "I B A M"
_symmetry_group_IT_number 72
_symmetry_cell_setting 'orthorhombic'
loop_
_space_group_symop_operation_xyz
x,y,z
-x,-y,z
x,-y,1/2-z
-x,y,1/2-z
-x,-y,-z
x,y,-z
-x,y,1/2+z
x,-y,1/2+z
1/2+x,1/2+y,1/2+z
1/2-x,1/2-y,1/2+z
1/2+x,1/2-y,-z
1/2-x,1/2+y,-z
1/2-x,1/2-y,1/2-z
1/2+x,1/2+y,1/2-z
1/2-x,1/2+y,z
1/2+x,1/2-y,z
loop_
_atom_site_type_symbol
_atom_site_label
_atom_site_fract_x
_atom_site_fract_y
_atom_site_fract_z
Si Si1 0.352469 0.352921 0.912951
Si Si2 0.388432 0.010199 0.088216
Si Si3 0.249429 0.437921 0.200091
Si Si4 0.011815 0.753934 0.164449
Si Si5 0.173090 0.644014 0.161668
Si Si6 0.187828 0.753853 0.587653
O O1 0.339016 0.412259 0.851589
O O2 0.445848 0.310501 0.890782
O O3 0.257339 0.308632 0.907421
O O4 0.366786 0.380233 0.000000
O O5 0.355550 0.084749 0.105029
O O6 0.500000 0.000000 0.105889
O O7 0.335417 0.958824 0.142994
O O8 0.363298 0.993065 0.000000
O O9 0.287602 0.500000 0.250000
O O10 0.205804 0.381026 0.254474
O O11 0.080126 0.690242 0.169016
O O12 0.000000 0.783654 0.250000
O O13 0.908970 0.732620 0.131193
O O14 0.264096 0.682393 0.126748
O O15 0.163747 0.772430 0.500000
#
# Coordination Sequence:
#
# PCOD8294578 Si02
#       6
#    16  16  16  16  16  16
#     4  10  21  38  58  85 117 148 190 236 282 345
#     4  10  22  36  55  83 115 156 195 232 284 338
#     4  10  21  37  57  80 113 153 191 235 290 333
#     4  11  22  35  59  88 116 151 192 237 292 344
#     4  10  22  37  57  85 121 149 192 242 283 343
#     4  10  21  37  58  84 115 153 186 232 294 343
#
# _framework density 19.780366000000001
#
# number of rings (size 3 to 8) (size 9 to 14) (size 15 to 20)
#    0.000    1.833    0.000    3.500    4.667    7.000 
#    0.000    0.000    0.000   11.500    0.000   16.333 
#    0.000    0.000    0.000    0.000    0.000    0.000 
#
# Total GULP energy -595374.120839 kJ/mol
# GULP energy per Si atom -12403.627517 kJ/mol
# Density = 1.973534 g / cm^3
# Si number density = 19.780366 Si / 1000 Ang^3
#
#
#
# Elastic Constant Matrix: (Units=GPa)
#
#
# Indices 1 2 3 4 5 6 
#
# 1 68.0323 14.5016 27.4200 0.0000 0.0000 0.0000
# 2 14.5016 71.7319 34.7768 0.0000 0.0000 0.0000
# 3 27.4200 34.7768 128.8702 0.0000 0.0000 0.0000
# 4 0.0000 0.0000 0.0000 32.9020 0.0000 0.0000
# 5 0.0000 0.0000 0.0000 0.0000 29.8613 0.0000
# 6 0.0000 0.0000 0.0000 0.0000 0.0000 13.8065
#
#
#
# Elastic Compliance Matrix: (Units=1/GPa)
#
#
# Indices 1 2 3 4 5 6 
#
# 1 0.016290 -0.001856 -0.002965 0.000000 0.000000 0.000000
# 2 -0.001856 0.016251 -0.003991 0.000000 0.000000 0.000000
# 3 -0.002965 -0.003991 0.009468 0.000000 0.000000 0.000000
# 4 0.000000 0.000000 0.000000 0.030393 0.000000 0.000000
# 5 0.000000 0.000000 0.000000 0.000000 0.033488 0.000000
# 6 0.000000 0.000000 0.000000 0.000000 0.000000 0.072430
#
#
# Mechanical properties :
#
#
# Convention : Reuss Voigt Hill
#
# Bulk Modulus (GPa) = 41.00880 46.89236 43.95058
# Shear Modulus (GPa) = 24.50144 28.10971 26.30557
#
# Velocity S-wave (km/s) = 3.52330 3.77383 3.65071
# Velocity P-wave (km/s) = 6.10971 6.53812 6.32754
#
# Compressibility (1/GPa) = 0.02438501
#
# Stress axis : x y z
#
# Youngs Moduli (GPa) = 61.38906 61.53615 105.62394
#
# Poissons Ratio (x) = 0.11418 0.31320
# Poissons Ratio (y) = 0.11391 0.42150
# Poissons Ratio (z) = 0.18203 0.24556
#
# Static dielectric constant tensor:
#      x y z
#    x 3.460680 0.000000 0.000000 
#    y 0.000000 3.536860 0.000000 
#    z 0.000000 0.000000 3.893090 
# 
# 
# High freq. dielectric constant tensor:
#      x y z
#    x 1.759650 0.000000 0.000000 
#    y 0.000000 1.762680 0.000000 
#    z 0.000000 0.000000 1.795590 
# 
# From -- ./inp_files/21861.got.cif
#   From: 2010.03.12/outbox.cif.g09.slc.cpg/sg72_11_cif.got.tgz:21861.got - 2010.04.16 14:54:00.
