data_PCOD8294229
_publ_section_title
;
Structure prediction by ZEFSAII (Michael W. Deem and Ramdas Pophale) SiO2 
 PCOD8294229
Probable space group: I B A M
;
_chemical_formula_sum "Si O2"
_cell_formula_units_Z 116
_cell_length_a 21.710505
_cell_length_b 30.950049
_cell_length_c 8.811916
_cell_angle_alpha 90.000000
_cell_angle_beta 90.000000
_cell_angle_gamma 90.000000
_cell_volume 5921.089355
_symmetry_space_group_name_H-M "I B A M"
_symmetry_group_IT_number 72
_symmetry_cell_setting 'orthorhombic'
loop_
_space_group_symop_operation_xyz
x,y,z
-x,-y,z
x,-y,1/2-z
-x,y,1/2-z
-x,-y,-z
x,y,-z
-x,y,1/2+z
x,-y,1/2+z
1/2+x,1/2+y,1/2+z
1/2-x,1/2-y,1/2+z
1/2+x,1/2-y,-z
1/2-x,1/2+y,-z
1/2-x,1/2-y,1/2-z
1/2+x,1/2+y,1/2-z
1/2-x,1/2+y,z
1/2+x,1/2-y,z
loop_
_atom_site_type_symbol
_atom_site_label
_atom_site_fract_x
_atom_site_fract_y
_atom_site_fract_z
Si Si1 0.937997 0.845288 0.679400
Si Si2 0.098245 0.066066 0.168893
Si Si3 0.805327 0.693295 0.176030
Si Si4 0.168196 0.220461 0.324132
Si Si5 0.063778 0.545658 0.178692
Si Si6 0.678518 0.104421 0.322690
Si Si7 0.724325 0.456162 0.320503
Si Si8 0.000000 0.000000 0.250000
O O1 0.944052 0.850426 0.500000
O O2 0.927860 0.891840 0.750900
O O3 0.883001 0.813636 0.725661
O O4 0.000000 0.825154 0.750000
O O5 0.154140 0.048185 0.268390
O O6 0.121895 0.077303 0.000000
O O7 0.044302 0.030623 0.150682
O O8 0.841446 0.736323 0.226340
O O9 0.733292 0.698499 0.212639
O O10 0.831065 0.653655 0.273197
O O11 0.817703 0.684458 0.000000
O O12 0.163256 0.233145 0.500000
O O13 0.082958 0.500000 0.250000
O O14 0.116207 0.579752 0.220693
O O15 0.000000 0.562627 0.250000
O O16 0.055353 0.539906 0.000000
O O17 0.692970 0.101326 0.500000
O O18 0.736086 0.084708 0.232198
O O19 0.752897 0.500000 0.250000
O O20 0.726178 0.459532 0.500000
#
# Coordination Sequence:
#
# PCOD8294229 Si02
#       8
#    16  16  16  16  16  16  16   4
#     4  11  23  39  60  86 118 154 198 246 296 352
#     4  12  25  41  62  86 118 161 209 256 303 354
#     4  10  20  36  62  91 115 147 188 237 294 352
#     4   9  20  39  60  84 115 150 187 236 293 353
#     4  10  21  37  60  87 117 156 197 238 284 343
#     4  11  23  39  60  89 123 157 195 241 296 353
#     4  12  25  40  59  85 120 159 203 251 300 351
#     4  12  26  40  64  86 118 164 212 252 302 352
#
# _framework density 19.590989
#
# number of rings (size 3 to 8) (size 9 to 14) (size 15 to 20)
#    0.000    1.241    1.379    5.172    0.000    7.172 
#    0.000    0.690    0.000    0.000    0.000    0.000 
#    0.000    0.000    0.000    0.000    0.000    0.000 
#
# Total GULP energy -719490.039146 kJ/mol
# GULP energy per Si atom -12405.000675 kJ/mol
# Density = 1.954640 g / cm^3
# Si number density = 19.590989 Si / 1000 Ang^3
#
#
#
# Elastic Constant Matrix: (Units=GPa)
#
#
# Indices 1 2 3 4 5 6 
#
# 1 101.0825 68.0536 49.6606 0.0000 0.0000 0.0000
# 2 68.0536 128.9478 53.8126 0.0000 0.0000 0.0000
# 3 49.6606 53.8126 122.0378 0.0000 0.0000 0.0000
# 4 0.0000 0.0000 0.0000 30.1421 0.0000 0.0000
# 5 0.0000 0.0000 0.0000 0.0000 29.2935 0.0000
# 6 0.0000 0.0000 0.0000 0.0000 0.0000 21.5285
#
#
#
# Elastic Compliance Matrix: (Units=1/GPa)
#
#
# Indices 1 2 3 4 5 6 
#
# 1 0.016494 -0.007235 -0.003521 0.000000 0.000000 0.000000
# 2 -0.007235 0.012678 -0.002646 0.000000 0.000000 0.000000
# 3 -0.003521 -0.002646 0.010794 0.000000 0.000000 0.000000
# 4 0.000000 0.000000 0.000000 0.033176 0.000000 0.000000
# 5 0.000000 0.000000 0.000000 0.000000 0.034137 0.000000
# 6 0.000000 0.000000 0.000000 0.000000 0.000000 0.046450
#
#
# Mechanical properties :
#
#
# Convention : Reuss Voigt Hill
#
# Bulk Modulus (GPa) = 75.98688 77.23576 76.61132
# Shear Modulus (GPa) = 27.03840 28.22890 27.63365
#
# Velocity S-wave (km/s) = 3.71906 3.80005 3.75977
# Velocity P-wave (km/s) = 7.57052 7.66574 7.61828
#
# Compressibility (1/GPa) = 0.01316017
#
# Stress axis : x y z
#
# Youngs Moduli (GPa) = 60.62740 78.87750 92.64458
#
# Poissons Ratio (x) = 0.57071 0.32625
# Poissons Ratio (y) = 0.43866 0.24514
# Poissons Ratio (z) = 0.21350 0.20871
#
# Static dielectric constant tensor:
#      x y z
#    x 3.588000 0.000000 0.000000 
#    y 0.000000 3.607480 0.000000 
#    z 0.000000 0.000000 3.597340 
# 
# 
# High freq. dielectric constant tensor:
#      x y z
#    x 1.760530 0.000000 0.000000 
#    y 0.000000 1.765570 0.000000 
#    z 0.000000 0.000000 1.775560 
# 
# From -- ./inp_files/7359.got.cif
#   From: 2010.03.12/outbox.cif.g09.slc.cpg/sg72_4_cif.got.tgz:7359.got - 2010.04.16 14:54:00.
