data_PCOD8294667
_publ_section_title
;
Structure prediction by ZEFSAII (Michael W. Deem and Ramdas Pophale) SiO2 
 PCOD8294667
Probable space group: I B A M
;
_chemical_formula_sum "Si O2"
_cell_formula_units_Z 112
_cell_length_a 13.868735
_cell_length_b 26.297938
_cell_length_c 15.904018
_cell_angle_alpha 90.000000
_cell_angle_beta 90.000000
_cell_angle_gamma 90.000000
_cell_volume 5800.499659
_symmetry_space_group_name_H-M "I B A M"
_symmetry_group_IT_number 72
_symmetry_cell_setting 'orthorhombic'
loop_
_space_group_symop_operation_xyz
x,y,z
-x,-y,z
x,-y,1/2-z
-x,y,1/2-z
-x,-y,-z
x,y,-z
-x,y,1/2+z
x,-y,1/2+z
1/2+x,1/2+y,1/2+z
1/2-x,1/2-y,1/2+z
1/2+x,1/2-y,-z
1/2-x,1/2+y,-z
1/2-x,1/2-y,1/2-z
1/2+x,1/2+y,1/2-z
1/2-x,1/2+y,z
1/2+x,1/2-y,z
loop_
_atom_site_type_symbol
_atom_site_label
_atom_site_fract_x
_atom_site_fract_y
_atom_site_fract_z
Si Si1 0.540969 0.053277 0.904140
Si Si2 0.891773 0.099398 0.244618
Si Si3 0.597274 0.677216 0.905506
Si Si4 0.712067 0.230135 0.660007
Si Si5 0.880173 0.833030 0.094547
Si Si6 0.700076 0.945417 0.721599
Si Si7 0.582539 0.133122 0.317229
O O1 0.645557 0.066224 0.865291
O O2 0.467554 0.100720 0.892056
O O3 0.500000 0.000000 0.865806
O O4 0.562837 0.044918 0.000000
O O5 0.878409 0.138292 0.168197
O O6 0.865505 0.123704 0.334987
O O7 0.816657 0.055136 0.219928
O O8 0.000000 0.077006 0.250000
O O9 0.665267 0.725158 0.893174
O O10 0.485206 0.692568 0.895964
O O11 0.615670 0.655024 0.000000
O O12 0.750000 0.250000 0.750000
O O13 0.804053 0.211685 0.607994
O O14 0.629967 0.186683 0.660017
O O15 0.867333 0.856187 0.000000
O O16 0.669570 0.901646 0.785686
O O17 0.663672 0.000000 0.750000
O O18 0.500000 0.143764 0.250000
#
# Coordination Sequence:
#
# PCOD8294667 Si02
#       7
#    16  16  16  16  16  16  16
#     4  10  21  38  60  88 121 158 197 248 310 373
#     4  10  21  40  61  86 117 157 202 248 302 357
#     4  10  22  39  60  83 117 158 197 244 300 355
#     4  12  22  36  60  86 119 156 201 250 300 359
#     4  10  21  38  59  82 111 151 195 242 294 357
#     4  11  20  38  60  87 118 158 198 245 305 366
#     4  10  22  35  58  87 120 158 198 244 304 373
#
# _framework density 19.308681
#
# number of rings (size 3 to 8) (size 9 to 14) (size 15 to 20)
#    0.000    1.571    4.286    0.429    2.000    2.000 
#    0.000    0.714    0.000    0.000    0.000    5.000 
#    0.000    0.000    0.000    0.000    0.000    0.000 
#
# Total GULP energy -693918.250187 kJ/mol
# GULP energy per Si atom -12391.397325 kJ/mol
# Density = 1.926473 g / cm^3
# Si number density = 19.308681 Si / 1000 Ang^3
#
#
#
# Elastic Constant Matrix: (Units=GPa)
#
#
# Indices 1 2 3 4 5 6 
#
# 1 114.7237 25.3185 40.8448 0.0000 0.0000 -0.0001
# 2 25.3185 47.9492 24.3905 0.0001 0.0000 0.0000
# 3 40.8448 24.3905 117.3977 0.0002 0.0000 0.0009
# 4 0.0000 0.0001 0.0002 14.7106 0.0000 0.0001
# 5 0.0000 0.0000 0.0000 0.0000 18.8280 -0.0001
# 6 -0.0001 0.0000 0.0009 0.0001 -0.0001 -114.6885
#
#
#
# Elastic Compliance Matrix: (Units=1/GPa)
#
#
# Indices 1 2 3 4 5 6 
#
# 1 0.010649 -0.004180 -0.002837 0.000000 0.000000 0.000000
# 2 -0.004180 0.024961 -0.003731 0.000000 0.000000 0.000000
# 3 -0.002837 -0.003731 0.010280 0.000000 0.000000 0.000000
# 4 0.000000 0.000000 0.000000 0.067978 0.000000 0.000000
# 5 0.000000 0.000000 0.000000 0.000000 0.053112 0.000000
# 6 0.000000 0.000000 0.000000 0.000000 0.000000 -0.008719
#
#
# Mechanical properties :
#
#
# Convention : Reuss Voigt Hill
#
# Bulk Modulus (GPa) = 40.99426 51.24202 46.11814
# Shear Modulus (GPa) = 26.61154 -3.59551 11.50801
#
# Velocity S-wave (km/s) = 3.71646 -1.36608 2.44396
# Velocity P-wave (km/s) = 6.30025 4.90996 5.64805
#
# Compressibility (1/GPa) = 0.02439366
#
# Stress axis : x y z
#
# Youngs Moduli (GPa) = 93.90574 40.06300 97.27452
#
# Poissons Ratio (x) = 0.16747 0.27592
# Poissons Ratio (y) = 0.39253 0.36298
# Poissons Ratio (z) = 0.26637 0.14950
#
# Static dielectric constant tensor:
#      x y z
#    x 3.780200 0.000000 0.000000 
#    y 0.000000 3.590920 0.000000 
#    z 0.000000 0.000000 3.550220 
# 
# 
# High freq. dielectric constant tensor:
#      x y z
#    x 1.770320 0.000000 0.000000 
#    y 0.000000 1.727340 0.000000 
#    z 0.000000 0.000000 1.750580 
# 
# From -- ./inp_files/22133.got.cif
#   From: 2010.03.12/outbox.cif.g09.slc.cpg/sg72_12_cif.got.tgz:22133.got - 2010.04.16 14:54:00.
