data_PCOD8294244
_publ_section_title
;
Structure prediction by ZEFSAII (Michael W. Deem and Ramdas Pophale) SiO2 
 PCOD8294244
Probable space group: I B A M
;
_chemical_formula_sum "Si O2"
_cell_formula_units_Z 80
_cell_length_a 17.307751
_cell_length_b 8.799049
_cell_length_c 29.546333
_cell_angle_alpha 90.000000
_cell_angle_beta 90.000000
_cell_angle_gamma 90.000000
_cell_volume 4499.662733
_symmetry_space_group_name_H-M "I B A M"
_symmetry_group_IT_number 72
_symmetry_cell_setting 'orthorhombic'
loop_
_space_group_symop_operation_xyz
x,y,z
-x,-y,z
x,-y,1/2-z
-x,y,1/2-z
-x,-y,-z
x,y,-z
-x,y,1/2+z
x,-y,1/2+z
1/2+x,1/2+y,1/2+z
1/2-x,1/2-y,1/2+z
1/2+x,1/2-y,-z
1/2-x,1/2+y,-z
1/2-x,1/2-y,1/2-z
1/2+x,1/2+y,1/2-z
1/2-x,1/2+y,z
1/2+x,1/2-y,z
loop_
_atom_site_type_symbol
_atom_site_label
_atom_site_fract_x
_atom_site_fract_y
_atom_site_fract_z
Si Si1 0.481798 0.823076 0.799778
Si Si2 0.647300 0.786512 0.637385
Si Si3 0.750479 0.542052 0.598209
Si Si4 0.492391 0.320629 0.112109
Si Si5 0.151132 0.787505 0.947331
O O1 0.500000 0.758134 0.750000
O O2 0.390616 0.797436 0.812287
O O3 0.533320 0.730958 0.836832
O O4 0.500000 0.000000 0.802908
O O5 0.707712 0.647996 0.635048
O O6 0.687321 0.944590 0.625479
O O7 0.576429 0.755276 0.601886
O O8 0.792989 0.644926 0.560907
O O9 0.688578 0.439968 0.572313
O O10 0.500000 0.500000 0.109406
O O11 0.431043 0.257978 0.076340
O O12 0.136107 0.808479 0.000000
#
# Coordination Sequence:
#
# PCOD8294244 Si02
#       5
#    16  16  16  16  16
#     4   9  18  34  60  86 108 140 187 224 283 326
#     4   9  20  36  59  84 108 153 180 236 276 331
#     4  10  20  37  55  79 117 146 187 224 285 333
#     4  10  20  37  54  86 108 143 191 229 280 322
#     4  11  21  35  55  79 111 151 188 232 276 333
#
# _framework density 17.779108999999998
#
# number of rings (size 3 to 8) (size 9 to 14) (size 15 to 20)
#    1.200    1.000    2.000    1.800    0.000    0.800 
#    0.000    3.000    0.000   21.600    0.000    0.000 
#    0.000    0.000    0.000    0.000    0.000    0.000 
#
# Total GULP energy -495679.970220 kJ/mol
# GULP energy per Si atom -12391.999255 kJ/mol
# Density = 1.773864 g / cm^3
# Si number density = 17.779109 Si / 1000 Ang^3
#
#
#
# Elastic Constant Matrix: (Units=GPa)
#
#
# Indices 1 2 3 4 5 6 
#
# 1 106.8780 43.7039 48.2672 0.0000 0.0000 0.0000
# 2 43.7039 83.2414 29.6772 0.0000 0.0000 0.0000
# 3 48.2672 29.6772 119.8099 0.0000 0.0000 0.0000
# 4 0.0000 0.0000 0.0000 14.7009 0.0000 0.0000
# 5 0.0000 0.0000 0.0000 0.0000 25.5978 0.0000
# 6 0.0000 0.0000 0.0000 0.0000 0.0000 22.3386
#
#
#
# Elastic Compliance Matrix: (Units=1/GPa)
#
#
# Indices 1 2 3 4 5 6 
#
# 1 0.013486 -0.005642 -0.004036 0.000000 0.000000 0.000000
# 2 -0.005642 0.015537 -0.001576 0.000000 0.000000 0.000000
# 3 -0.004036 -0.001576 0.010363 0.000000 0.000000 0.000000
# 4 0.000000 0.000000 0.000000 0.068023 0.000000 0.000000
# 5 0.000000 0.000000 0.000000 0.000000 0.039066 0.000000
# 6 0.000000 0.000000 0.000000 0.000000 0.000000 0.044766
#
#
# Mechanical properties :
#
#
# Convention : Reuss Voigt Hill
#
# Bulk Modulus (GPa) = 59.24276 61.46954 60.35615
# Shear Modulus (GPa) = 22.79227 25.07953 23.93590
#
# Velocity S-wave (km/s) = 3.58434 3.75989 3.67317
# Velocity P-wave (km/s) = 7.10802 7.31424 7.21187
#
# Compressibility (1/GPa) = 0.01687970
#
# Stress axis : x y z
#
# Youngs Moduli (GPa) = 74.15127 64.36213 96.50045
#
# Poissons Ratio (x) = 0.36311 0.38943
# Poissons Ratio (y) = 0.41834 0.15206
# Poissons Ratio (z) = 0.29924 0.10142
#
# Static dielectric constant tensor:
#      x y z
#    x 3.376180 0.000000 0.000000 
#    y 0.000000 3.339540 0.000000 
#    z 0.000000 0.000000 3.088880 
# 
# 
# High freq. dielectric constant tensor:
#      x y z
#    x 1.690300 0.000000 0.000000 
#    y 0.000000 1.701000 0.000000 
#    z 0.000000 0.000000 1.657000 
# 
# From -- ./inp_files/52008.got.cif
#   From: 2010.03.12/outbox.cif.g09.slc.cpg/sg72_27_cif.got.tgz:52008.got - 2010.04.16 14:54:00.
