data_PCOD8294713
_publ_section_title
;
Structure prediction by ZEFSAII (Michael W. Deem and Ramdas Pophale) SiO2 
 PCOD8294713
Probable space group: I B A M
;
_chemical_formula_sum "Si O2"
_cell_formula_units_Z 64
_cell_length_a 9.086434
_cell_length_b 19.632636
_cell_length_c 16.559228
_cell_angle_alpha 90.000000
_cell_angle_beta 90.000000
_cell_angle_gamma 90.000000
_cell_volume 2954.011467
_symmetry_space_group_name_H-M "I B A M"
_symmetry_group_IT_number 72
_symmetry_cell_setting 'orthorhombic'
loop_
_space_group_symop_operation_xyz
x,y,z
-x,-y,z
x,-y,1/2-z
-x,y,1/2-z
-x,-y,-z
x,y,-z
-x,y,1/2+z
x,-y,1/2+z
1/2+x,1/2+y,1/2+z
1/2-x,1/2-y,1/2+z
1/2+x,1/2-y,-z
1/2-x,1/2+y,-z
1/2-x,1/2-y,1/2-z
1/2+x,1/2+y,1/2-z
1/2-x,1/2+y,z
1/2+x,1/2-y,z
loop_
_atom_site_type_symbol
_atom_site_label
_atom_site_fract_x
_atom_site_fract_y
_atom_site_fract_z
Si Si1 0.177489 0.541023 0.665897
Si Si2 0.837804 0.201458 0.650411
Si Si3 0.657013 0.674948 0.838005
Si Si4 0.112828 0.588579 0.908724
O O1 0.180637 0.500000 0.750000
O O2 0.308816 0.594802 0.657288
O O3 0.196599 0.484387 0.595880
O O4 0.025111 0.583020 0.653097
O O5 0.782338 0.276541 0.622297
O O6 0.852359 0.197106 0.745852
O O7 0.720612 0.147600 0.618784
O O8 0.001673 0.187774 0.615776
O O9 0.059558 0.601618 0.000000
#
# Coordination Sequence:
#
# PCOD8294713 Si02
#       4
#    16  16  16  16
#     4  11  21  38  64  95 124 167 215 259 306 372
#     4  10  21  39  62  92 122 159 201 266 307 367
#     4  10  21  38  64  92 120 153 214 259 308 357
#     4  11  23  40  60  92 130 168 206 254 316 378
#
# _framework density 21.665455999999999
#
# number of rings (size 3 to 8) (size 9 to 14) (size 15 to 20)
#    0.000    1.500    2.500    4.500    0.000    3.000 
#    0.000   10.000    0.000    0.000    0.000    0.000 
#    0.000    0.000    0.000    0.000    0.000    0.000 
#
# Total GULP energy -396545.704416 kJ/mol
# GULP energy per Si atom -12392.053263 kJ/mol
# Density = 2.161614 g / cm^3
# Si number density = 21.665456 Si / 1000 Ang^3
#
#
#
# Elastic Constant Matrix: (Units=GPa)
#
#
# Indices 1 2 3 4 5 6 
#
# 1 107.9675 69.3886 35.9162 0.0000 0.0000 0.0000
# 2 69.3886 131.2789 14.8725 0.0000 0.0000 0.0000
# 3 35.9162 14.8725 50.1056 0.0001 0.0000 -0.0001
# 4 0.0000 0.0000 0.0001 -3.8725 0.0000 0.0000
# 5 0.0000 0.0000 0.0000 0.0000 10.6187 0.0000
# 6 0.0000 0.0000 -0.0001 0.0000 0.0000 80.6265
#
#
#
# Elastic Compliance Matrix: (Units=1/GPa)
#
#
# Indices 1 2 3 4 5 6 
#
# 1 0.018170 -0.008411 -0.010528 0.000000 0.000000 0.000000
# 2 -0.008411 0.011776 0.002534 0.000000 0.000000 0.000000
# 3 -0.010528 0.002534 0.026752 0.000000 0.000000 0.000000
# 4 0.000000 0.000000 0.000000 -0.258234 0.000000 0.000000
# 5 0.000000 0.000000 0.000000 0.000000 0.094174 0.000000
# 6 0.000000 0.000000 0.000000 0.000000 0.000000 0.012403
#
#
# Mechanical properties :
#
#
# Convention : Reuss Voigt Hill
#
# Bulk Modulus (GPa) = 41.86213 58.85629 50.35921
# Shear Modulus (GPa) = -92.27460 28.75284 -31.76088
#
# Velocity S-wave (km/s) = -6.53323 3.64693 -3.83295
# Velocity P-wave (km/s) = 6.12755 6.70510 1.92504
#
# Compressibility (1/GPa) = 0.02388794
#
# Stress axis : x y z
#
# Youngs Moduli (GPa) = 55.03616 84.91764 37.38015
#
# Poissons Ratio (x) = 0.71426 0.39353
# Poissons Ratio (y) = 0.46292 -0.09471
# Poissons Ratio (z) = 0.57941 -0.21516
#
# Static dielectric constant tensor:
#      x y z
#    x 4.172030 0.000000 0.000000 
#    y 0.000000 4.207730 0.000000 
#    z 0.000000 0.000000 3.730040 
# 
# 
# High freq. dielectric constant tensor:
#      x y z
#    x 1.845010 0.000000 0.000000 
#    y 0.000000 1.867430 0.000000 
#    z 0.000000 0.000000 1.813850 
# 
# From -- ./inp_files/27666.got.cif
#   From: 2010.03.12/outbox.cif.g09.slc.cpg/sg72_14_cif.got.tgz:27666.got - 2010.04.16 14:54:00.
