data_PCOD8294734
_publ_section_title
;
Structure prediction by ZEFSAII (Michael W. Deem and Ramdas Pophale) SiO2 
 PCOD8294734
Probable space group: I B A M
;
_chemical_formula_sum "Si O2"
_cell_formula_units_Z 116
_cell_length_a 24.514276
_cell_length_b 26.316172
_cell_length_c 8.922900
_cell_angle_alpha 90.000000
_cell_angle_beta 90.000000
_cell_angle_gamma 90.000000
_cell_volume 5756.358234
_symmetry_space_group_name_H-M "I B A M"
_symmetry_group_IT_number 72
_symmetry_cell_setting 'orthorhombic'
loop_
_space_group_symop_operation_xyz
x,y,z
-x,-y,z
x,-y,1/2-z
-x,y,1/2-z
-x,-y,-z
x,y,-z
-x,y,1/2+z
x,-y,1/2+z
1/2+x,1/2+y,1/2+z
1/2-x,1/2-y,1/2+z
1/2+x,1/2-y,-z
1/2-x,1/2+y,-z
1/2-x,1/2-y,1/2-z
1/2+x,1/2+y,1/2-z
1/2-x,1/2+y,z
1/2+x,1/2-y,z
loop_
_atom_site_type_symbol
_atom_site_label
_atom_site_fract_x
_atom_site_fract_y
_atom_site_fract_z
Si Si1 0.440558 0.277097 0.821633
Si Si2 0.709047 0.091750 0.672921
Si Si3 0.058302 0.679028 0.675852
Si Si4 0.249031 0.302500 0.664733
Si Si5 0.500000 0.000000 0.250000
Si Si6 0.864462 0.854624 0.830486
Si Si7 0.686805 0.448122 0.321991
Si Si8 0.912628 0.418159 0.164079
O O1 0.500000 0.279717 0.750000
O O2 0.410208 0.226134 0.755789
O O3 0.409128 0.326613 0.769105
O O4 0.443538 0.274409 0.000000
O O5 0.730127 0.090713 0.500000
O O6 0.709831 0.151609 0.726891
O O7 0.750221 0.060609 0.776117
O O8 0.650094 0.064029 0.685717
O O9 0.056070 0.688962 0.500000
O O10 0.081926 0.623224 0.705747
O O11 0.000000 0.677861 0.750000
O O12 0.228270 0.288563 0.500000
O O13 0.250000 0.250000 0.750000
O O14 0.310206 0.322015 0.665516
O O15 0.542336 0.036593 0.337510
O O16 0.853775 0.906951 0.746183
O O17 0.885893 0.863880 0.000000
O O18 0.666152 0.500000 0.250000
O O19 0.682461 0.449165 0.500000
O O20 0.918208 0.392313 0.000000
#
# Coordination Sequence:
#
# PCOD8294734 Si02
#       8
#    16  16  16  16   4  16  16  16
#     4  11  22  38  62  92 126 165 205 249 299 358
#     4   9  21  40  58  82 115 156 200 252 310 374
#     4  11  22  38  59  83 113 152 199 247 300 363
#     4   9  19  34  54  82 118 155 193 241 301 364
#     4  12  26  40  64  90 118 156 210 280 338 384
#     4  10  21  39  60  89 125 162 202 250 301 362
#     4  11  22  39  63  91 120 158 202 249 303 362
#     4  11  24  42  61  83 115 154 201 260 324 383
#
# _framework density 20.151630000000001
#
# number of rings (size 3 to 8) (size 9 to 14) (size 15 to 20)
#    0.000    1.655    0.690    6.000    2.897    3.862 
#    0.000    0.000    0.000    0.414    0.000    2.897 
#    0.000    0.000    0.000    0.000    0.000    0.000 
#
# Total GULP energy -718664.734164 kJ/mol
# GULP energy per Si atom -12390.771279 kJ/mol
# Density = 2.010576 g / cm^3
# Si number density = 20.151630 Si / 1000 Ang^3
#
#
#
# Elastic Constant Matrix: (Units=GPa)
#
#
# Indices 1 2 3 4 5 6 
#
# 1 61.7034 36.9422 29.7605 0.0000 0.0000 0.0000
# 2 36.9422 127.8204 61.1152 0.0000 0.0000 0.0000
# 3 29.7605 61.1152 169.3569 0.0000 0.0000 0.0000
# 4 0.0000 0.0000 0.0000 33.6387 0.0000 0.0000
# 5 0.0000 0.0000 0.0000 0.0000 25.5628 0.0000
# 6 0.0000 0.0000 0.0000 0.0000 0.0000 22.5697
#
#
#
# Elastic Compliance Matrix: (Units=1/GPa)
#
#
# Indices 1 2 3 4 5 6 
#
# 1 0.020007 -0.004957 -0.001727 0.000000 0.000000 0.000000
# 2 -0.004957 0.010683 -0.002984 0.000000 0.000000 0.000000
# 3 -0.001727 -0.002984 0.007285 0.000000 0.000000 0.000000
# 4 0.000000 0.000000 0.000000 0.029728 0.000000 0.000000
# 5 0.000000 0.000000 0.000000 0.000000 0.039119 0.000000
# 6 0.000000 0.000000 0.000000 0.000000 0.000000 0.044307
#
#
# Mechanical properties :
#
#
# Convention : Reuss Voigt Hill
#
# Bulk Modulus (GPa) = 53.64976 68.27962 60.96469
# Shear Modulus (GPa) = 28.30011 31.75843 30.02927
#
# Velocity S-wave (km/s) = 3.75154 3.97416 3.86445
# Velocity P-wave (km/s) = 6.74138 7.41722 7.08736
#
# Compressibility (1/GPa) = 0.01863941
#
# Stress axis : x y z
#
# Youngs Moduli (GPa) = 49.98224 93.60850 137.26778
#
# Poissons Ratio (x) = 0.46398 0.23708
# Poissons Ratio (y) = 0.24774 0.40961
# Poissons Ratio (z) = 0.08632 0.27933
#
# Static dielectric constant tensor:
#      x y z
#    x 3.572260 0.000000 0.000000 
#    y 0.000000 5.228140 0.000000 
#    z 0.000000 0.000000 3.801260 
# 
# 
# High freq. dielectric constant tensor:
#      x y z
#    x 1.768860 0.000000 0.000000 
#    y 0.000000 1.790720 0.000000 
#    z 0.000000 0.000000 1.792430 
# 
# From -- ./inp_files/8378.got.cif
#   From: 2010.03.12/outbox.cif.g09.slc.cpg/sg72_5_cif.got.tgz:8378.got - 2010.04.16 14:54:00.
