data_PCOD8294129
_publ_section_title
;
Structure prediction by ZEFSAII (Michael W. Deem and Ramdas Pophale) SiO2 
 PCOD8294129
Probable space group: I B A M
;
_chemical_formula_sum "Si O2"
_cell_formula_units_Z 76
_cell_length_a 33.366450
_cell_length_b 5.153656
_cell_length_c 27.876604
_cell_angle_alpha 90.000000
_cell_angle_beta 90.000000
_cell_angle_gamma 90.000000
_cell_volume 4793.638669
_symmetry_space_group_name_H-M "I B A M"
_symmetry_group_IT_number 72
_symmetry_cell_setting 'orthorhombic'
loop_
_space_group_symop_operation_xyz
x,y,z
-x,-y,z
x,-y,1/2-z
-x,y,1/2-z
-x,-y,-z
x,y,-z
-x,y,1/2+z
x,-y,1/2+z
1/2+x,1/2+y,1/2+z
1/2-x,1/2-y,1/2+z
1/2+x,1/2-y,-z
1/2-x,1/2+y,-z
1/2-x,1/2-y,1/2-z
1/2+x,1/2+y,1/2-z
1/2-x,1/2+y,z
1/2+x,1/2-y,z
loop_
_atom_site_type_symbol
_atom_site_label
_atom_site_fract_x
_atom_site_fract_y
_atom_site_fract_z
Si Si1 0.000000 0.500000 0.250000
Si Si2 0.527257 0.750037 0.500000
Si Si3 0.727213 0.741220 0.057052
Si Si4 0.089223 0.216196 0.915247
Si Si5 0.135931 0.287271 0.442810
Si Si6 0.524345 0.760218 0.658439
O O1 0.972267 0.682502 0.215836
O O2 0.500000 0.500000 0.500000
O O3 0.554207 0.752829 0.453190
O O4 0.500000 0.000000 0.500000
O O5 0.749013 0.487751 0.077931
O O6 0.681394 0.745135 0.074112
O O7 0.729001 0.744345 0.000000
O O8 0.122787 0.434329 0.922769
O O9 0.069082 0.239798 0.862819
O O10 0.108990 0.935189 0.919654
O O11 0.131362 0.279250 0.500000
O O12 0.500000 0.500000 0.647589
O O13 0.500000 0.000000 0.633960
#
# Coordination Sequence:
#
# PCOD8294129 Si02
#       6
#     4   8  16  16  16  16
#     4   8  22  36  58  70  86 120 162 212 254 294
#     4  12  22  32  44  62  90 130 170 196 228 268
#     4   9  17  29  46  65  87 125 171 203 226 272
#     4  12  21  33  47  68  97 131 161 209 242 282
#     4  11  20  33  46  68 101 133 165 201 245 274
#     4  10  20  36  53  70  91 121 167 203 250 289
#
# _framework density 15.854346
#
# number of rings (size 3 to 8) (size 9 to 14) (size 15 to 20)
#    0.632    0.842    2.105    5.368    0.000    3.368 
#    0.000    0.000    0.000    0.000    0.000    0.000 
#    0.000    0.000    0.000   18.947    0.000    0.000 
#
# Total GULP energy -471142.703556 kJ/mol
# GULP energy per Si atom -12398.492199 kJ/mol
# Density = 1.581826 g / cm^3
# Si number density = 15.854346 Si / 1000 Ang^3
#
#
#
# Elastic Constant Matrix: (Units=GPa)
#
#
# Indices 1 2 3 4 5 6 
#
# 1 90.7642 27.2045 27.8176 0.0000 0.0000 0.0000
# 2 27.2045 100.1670 7.0378 0.0000 0.0000 0.0000
# 3 27.8176 7.0378 60.6663 0.0000 0.0000 0.0000
# 4 0.0000 0.0000 0.0000 10.2261 0.0000 0.0000
# 5 0.0000 0.0000 0.0000 0.0000 10.7425 0.0000
# 6 0.0000 0.0000 0.0000 0.0000 0.0000 38.3051
#
#
#
# Elastic Compliance Matrix: (Units=1/GPa)
#
#
# Indices 1 2 3 4 5 6 
#
# 1 0.013846 -0.003342 -0.005961 0.000000 0.000000 0.000000
# 2 -0.003342 0.010872 0.000271 0.000000 0.000000 0.000000
# 3 -0.005961 0.000271 0.019186 0.000000 0.000000 0.000000
# 4 0.000000 0.000000 0.000000 0.097789 0.000000 0.000000
# 5 0.000000 0.000000 0.000000 0.000000 0.093089 0.000000
# 6 0.000000 0.000000 0.000000 0.000000 0.000000 0.026106
#
#
# Mechanical properties :
#
#
# Convention : Reuss Voigt Hill
#
# Bulk Modulus (GPa) = 38.69992 41.74636 40.22314
# Shear Modulus (GPa) = 17.38740 24.49056 20.93898
#
# Velocity S-wave (km/s) = 3.31523 3.93456 3.63810
# Velocity P-wave (km/s) = 6.25436 6.85780 6.56302
#
# Compressibility (1/GPa) = 0.02583985
#
# Stress axis : x y z
#
# Youngs Moduli (GPa) = 72.22214 91.98063 52.12232
#
# Poissons Ratio (x) = 0.30737 0.31072
# Poissons Ratio (y) = 0.24134 -0.01413
# Poissons Ratio (z) = 0.43054 -0.02493
#
# Static dielectric constant tensor:
#      x y z
#    x 3.081600 0.000000 0.000000 
#    y 0.000000 3.277530 0.000000 
#    z 0.000000 0.000000 2.718720 
# 
# 
# High freq. dielectric constant tensor:
#      x y z
#    x 1.606000 0.000000 0.000000 
#    y 0.000000 1.636180 0.000000 
#    z 0.000000 0.000000 1.555040 
# 
# From -- ./inp_files/52479.got.cif
#   From: 2010.03.12/outbox.cif.g09.slc.cpg/sg72_27_cif.got.tgz:52479.got - 2010.04.16 14:54:00.
