data_PCOD8294684
_publ_section_title
;
Structure prediction by ZEFSAII (Michael W. Deem and Ramdas Pophale) SiO2 
 PCOD8294684
Probable space group: I B A M
;
_chemical_formula_sum "Si O2"
_cell_formula_units_Z 88
_cell_length_a 13.450688
_cell_length_b 16.522888
_cell_length_c 19.910444
_cell_angle_alpha 90.000000
_cell_angle_beta 90.000000
_cell_angle_gamma 90.000000
_cell_volume 4424.980924
_symmetry_space_group_name_H-M "I B A M"
_symmetry_group_IT_number 72
_symmetry_cell_setting 'orthorhombic'
loop_
_space_group_symop_operation_xyz
x,y,z
-x,-y,z
x,-y,1/2-z
-x,y,1/2-z
-x,-y,-z
x,y,-z
-x,y,1/2+z
x,-y,1/2+z
1/2+x,1/2+y,1/2+z
1/2-x,1/2-y,1/2+z
1/2+x,1/2-y,-z
1/2-x,1/2+y,-z
1/2-x,1/2-y,1/2-z
1/2+x,1/2+y,1/2-z
1/2-x,1/2+y,z
1/2+x,1/2-y,z
loop_
_atom_site_type_symbol
_atom_site_label
_atom_site_fract_x
_atom_site_fract_y
_atom_site_fract_z
Si Si1 0.205863 0.824430 0.792644
Si Si2 0.146630 0.536222 0.316977
Si Si3 0.474782 0.827261 0.877874
Si Si4 0.500000 0.284231 0.750000
Si Si5 0.277381 0.756933 0.926209
Si Si6 0.174366 0.400714 0.575317
O O1 0.250000 0.750000 0.750000
O O2 0.266526 0.907109 0.786111
O O3 0.094914 0.840882 0.765264
O O4 0.209436 0.801962 0.871385
O O5 0.097130 0.500000 0.250000
O O6 0.062710 0.584198 0.356673
O O7 0.187992 0.469357 0.368791
O O8 0.487177 0.773780 0.812597
O O9 0.393097 0.782184 0.923198
O O10 0.577152 0.843441 0.916152
O O11 0.268155 0.659797 0.916611
O O12 0.237086 0.781465 0.000000
O O13 0.171715 0.438766 0.500000
#
# Coordination Sequence:
#
# PCOD8294684 Si02
#       6
#    16  16  16   8  16  16
#     4  11  21  40  62  89 120 163 213 259 304 383
#     4  11  23  37  59  88 128 157 196 254 316 377
#     4  11  22  36  63  91 123 159 211 256 311 380
#     4  12  20  36  66  90 118 158 214 268 304 356
#     4  10  21  38  60  87 123 164 208 255 306 377
#     4  11  23  39  60  91 129 164 202 258 327 384
#
# _framework density 19.887091000000002
#
# number of rings (size 3 to 8) (size 9 to 14) (size 15 to 20)
#    0.000    1.091    5.455    3.273    0.000    5.091 
#    0.000    0.455    0.000    0.000    0.000    2.545 
#    0.000    0.000    0.000    0.000    0.000    0.000 
#
# Total GULP energy -545403.072521 kJ/mol
# GULP energy per Si atom -12395.524375 kJ/mol
# Density = 1.984183 g / cm^3
# Si number density = 19.887091 Si / 1000 Ang^3
#
#
#
# Elastic Constant Matrix: (Units=GPa)
#
#
# Indices 1 2 3 4 5 6 
#
# 1 87.2673 35.3555 20.2902 0.0000 0.0000 0.0000
# 2 35.3555 83.8289 34.8444 0.0000 0.0000 0.0000
# 3 20.2902 34.8444 117.4963 0.0000 0.0000 0.0000
# 4 0.0000 0.0000 0.0000 31.6576 0.0000 0.0000
# 5 0.0000 0.0000 0.0000 0.0000 11.3922 0.0000
# 6 0.0000 0.0000 0.0000 0.0000 0.0000 24.1317
#
#
#
# Elastic Compliance Matrix: (Units=1/GPa)
#
#
# Indices 1 2 3 4 5 6 
#
# 1 0.013879 -0.005540 -0.000754 0.000000 0.000000 0.000000
# 2 -0.005540 0.015818 -0.003734 0.000000 0.000000 0.000000
# 3 -0.000754 -0.003734 0.009748 0.000000 0.000000 0.000000
# 4 0.000000 0.000000 0.000000 0.031588 0.000000 0.000000
# 5 0.000000 0.000000 0.000000 0.000000 0.087779 0.000000
# 6 0.000000 0.000000 0.000000 0.000000 0.000000 0.041439
#
#
# Mechanical properties :
#
#
# Convention : Reuss Voigt Hill
#
# Bulk Modulus (GPa) = 51.57581 52.17475 51.87528
# Shear Modulus (GPa) = 22.04870 26.64313 24.34591
#
# Velocity S-wave (km/s) = 3.33332 3.66419 3.50266
# Velocity P-wave (km/s) = 6.38790 6.64787 6.51918
#
# Compressibility (1/GPa) = 0.01938893
#
# Stress axis : x y z
#
# Youngs Moduli (GPa) = 72.05208 63.21979 102.58032
#
# Poissons Ratio (x) = 0.35025 0.07732
# Poissons Ratio (y) = 0.39918 0.38305
# Poissons Ratio (z) = 0.05431 0.23607
#
# Static dielectric constant tensor:
#      x y z
#    x 3.902240 0.000000 0.000000 
#    y 0.000000 3.586250 0.000000 
#    z 0.000000 0.000000 3.170500 
# 
# 
# High freq. dielectric constant tensor:
#      x y z
#    x 1.763890 0.000000 0.000000 
#    y 0.000000 1.760320 0.000000 
#    z 0.000000 0.000000 1.797080 
# 
# From -- ./inp_files/30547.got.cif
#   From: 2010.03.12/outbox.cif.g09.slc.cpg/sg72_16_cif.got.tgz:30547.got - 2010.04.16 14:54:00.
