data_PCOD8294122
_publ_section_title
;
Structure prediction by ZEFSAII (Michael W. Deem and Ramdas Pophale) SiO2 
 PCOD8294122
Probable space group: I B A M
;
_chemical_formula_sum "Si O2"
_cell_formula_units_Z 88
_cell_length_a 19.097454
_cell_length_b 8.767705
_cell_length_c 22.234748
_cell_angle_alpha 90.000000
_cell_angle_beta 90.000000
_cell_angle_gamma 90.000000
_cell_volume 3723.004947
_symmetry_space_group_name_H-M "I B A M"
_symmetry_group_IT_number 72
_symmetry_cell_setting 'orthorhombic'
loop_
_space_group_symop_operation_xyz
x,y,z
-x,-y,z
x,-y,1/2-z
-x,y,1/2-z
-x,-y,-z
x,y,-z
-x,y,1/2+z
x,-y,1/2+z
1/2+x,1/2+y,1/2+z
1/2-x,1/2-y,1/2+z
1/2+x,1/2-y,-z
1/2-x,1/2+y,-z
1/2-x,1/2-y,1/2-z
1/2+x,1/2+y,1/2-z
1/2-x,1/2+y,z
1/2+x,1/2-y,z
loop_
_atom_site_type_symbol
_atom_site_label
_atom_site_fract_x
_atom_site_fract_y
_atom_site_fract_z
Si Si1 0.500000 0.500000 0.349488
Si Si2 0.418587 0.282146 0.434046
Si Si3 0.886257 0.413460 0.668168
Si Si4 0.228394 0.178633 0.648292
Si Si5 0.904729 0.251234 0.786998
Si Si6 0.227613 0.919046 0.565338
O O1 0.446554 0.421046 0.394851
O O2 0.461069 0.626079 0.308313
O O3 0.455547 0.265979 0.500000
O O4 0.421943 0.125902 0.395738
O O5 0.337106 0.308281 0.444898
O O6 0.803047 0.380467 0.672480
O O7 0.918266 0.293840 0.717338
O O8 0.908731 0.587351 0.678300
O O9 0.172408 0.176849 0.702662
O O10 0.225654 0.347789 0.618986
O O11 0.202737 0.080713 0.590960
O O12 0.265591 0.939880 0.500000
#
# Coordination Sequence:
#
# PCOD8294122 Si02
#       6
#     8  16  16  16  16  16
#     4  12  25  45  70  98 131 183 236 288 348 403
#     4  10  23  44  65  95 134 177 231 283 343 415
#     4  10  24  44  68  97 139 180 225 290 350 413
#     4  11  19  40  63 100 137 175 227 283 352 411
#     4  11  24  43  67 102 137 179 232 286 347 417
#     4  10  20  35  61  96 138 179 223 280 345 416
#
# _framework density 23.636821000000001
#
# number of rings (size 3 to 8) (size 9 to 14) (size 15 to 20)
#    0.000    1.455    3.636    1.364    0.000    3.636 
#    0.000    4.545    0.000    0.000    0.000    0.000 
#    0.000    0.000    0.000    0.000    0.000    0.000 
#
# Total GULP energy -545097.478051 kJ/mol
# GULP energy per Si atom -12388.579047 kJ/mol
# Density = 2.358302 g / cm^3
# Si number density = 23.636821 Si / 1000 Ang^3
#
#
#
# Elastic Constant Matrix: (Units=GPa)
#
#
# Indices 1 2 3 4 5 6 
#
# 1 63.0817 42.7044 39.0331 0.0000 0.0000 0.0000
# 2 42.7044 130.5577 71.8058 0.0000 0.0000 0.0000
# 3 39.0331 71.8058 149.2069 0.0000 0.0000 0.0000
# 4 0.0000 0.0000 0.0000 14.7779 0.0000 0.0000
# 5 0.0000 0.0000 0.0000 0.0000 21.3883 0.0000
# 6 0.0000 0.0000 0.0000 0.0000 0.0000 26.9179
#
#
#
# Elastic Compliance Matrix: (Units=1/GPa)
#
#
# Indices 1 2 3 4 5 6 
#
# 1 0.021317 -0.005311 -0.003021 0.000000 0.000000 0.000000
# 2 -0.005311 0.011740 -0.004260 0.000000 0.000000 0.000000
# 3 -0.003021 -0.004260 0.009543 0.000000 0.000000 0.000000
# 4 0.000000 0.000000 0.000000 0.067669 0.000000 0.000000
# 5 0.000000 0.000000 0.000000 0.000000 0.046755 0.000000
# 6 0.000000 0.000000 0.000000 0.000000 0.000000 0.037150
#
#
# Mechanical properties :
#
#
# Convention : Reuss Voigt Hill
#
# Bulk Modulus (GPa) = 57.42151 72.21475 64.81813
# Shear Modulus (GPa) = 22.20620 25.23702 23.72161
#
# Velocity S-wave (km/s) = 3.06841 3.27111 3.17138
# Velocity P-wave (km/s) = 6.07450 6.69963 6.39471
#
# Compressibility (1/GPa) = 0.01741508
#
# Stress axis : x y z
#
# Youngs Moduli (GPa) = 46.91059 85.17943 104.79344
#
# Poissons Ratio (x) = 0.45242 0.31653
# Poissons Ratio (y) = 0.24916 0.44646
# Poissons Ratio (z) = 0.14170 0.36289
#
# Static dielectric constant tensor:
#      x y z
#    x 4.035860 0.000000 0.000000 
#    y 0.000000 4.261700 0.000000 
#    z 0.000000 0.000000 4.888200 
# 
# 
# High freq. dielectric constant tensor:
#      x y z
#    x 1.911880 0.000000 0.000000 
#    y 0.000000 1.946320 0.000000 
#    z 0.000000 0.000000 1.945940 
# 
# From -- ./inp_files/45245.got.cif
#   From: 2010.03.12/outbox.cif.g09.slc.cpg/sg72_23_cif.got.tgz:45245.got - 2010.04.16 14:54:00.
