data_PCOD8294715
_publ_section_title
;
Structure prediction by ZEFSAII (Michael W. Deem and Ramdas Pophale) SiO2 
 PCOD8294715
Probable space group: I B A M
;
_chemical_formula_sum "Si O2"
_cell_formula_units_Z 96
_cell_length_a 8.821056
_cell_length_b 26.379845
_cell_length_c 18.911628
_cell_angle_alpha 90.000000
_cell_angle_beta 90.000000
_cell_angle_gamma 90.000000
_cell_volume 4400.699715
_symmetry_space_group_name_H-M "I B A M"
_symmetry_group_IT_number 72
_symmetry_cell_setting 'orthorhombic'
loop_
_space_group_symop_operation_xyz
x,y,z
-x,-y,z
x,-y,1/2-z
-x,y,1/2-z
-x,-y,-z
x,y,-z
-x,y,1/2+z
x,-y,1/2+z
1/2+x,1/2+y,1/2+z
1/2-x,1/2-y,1/2+z
1/2+x,1/2-y,-z
1/2-x,1/2+y,-z
1/2-x,1/2-y,1/2-z
1/2+x,1/2+y,1/2-z
1/2-x,1/2+y,z
1/2+x,1/2-y,z
loop_
_atom_site_type_symbol
_atom_site_label
_atom_site_fract_x
_atom_site_fract_y
_atom_site_fract_z
Si Si1 0.115706 0.682793 0.417981
Si Si2 0.422172 0.085131 0.322111
Si Si3 0.066256 0.118737 0.918012
Si Si4 0.170377 0.547445 0.080118
Si Si5 0.448626 0.721871 0.581286
Si Si6 0.367856 0.533679 0.650122
O O1 0.088619 0.666912 0.500000
O O2 0.113166 0.633075 0.370520
O O3 0.272951 0.711858 0.408017
O O4 0.992210 0.722955 0.387434
O O5 0.500000 0.102666 0.250000
O O6 0.528159 0.046646 0.366833
O O7 0.267414 0.054876 0.299757
O O8 0.045582 0.175080 0.885166
O O9 0.942487 0.082369 0.884078
O O10 0.238027 0.099959 0.906061
O O11 0.022986 0.120001 0.000000
O O12 0.287334 0.501219 0.090990
O O13 0.109534 0.544933 0.000000
O O14 0.496954 0.725734 0.500000
O O15 0.500000 0.500000 0.688932
#
# Coordination Sequence:
#
# PCOD8294715 Si02
#       6
#    16  16  16  16  16  16
#     4  10  21  38  65  94 126 166 213 267 321 379
#     4  12  26  43  61  90 130 172 214 264 324 385
#     4   9  17  34  61  95 129 158 202 263 322 381
#     4  10  22  37  63  95 124 160 209 268 327 384
#     4   9  18  33  61  95 125 160 206 261 319 374
#     4  10  21  40  65  89 122 166 212 263 321 383
#
# _framework density 21.814713000000001
#
# number of rings (size 3 to 8) (size 9 to 14) (size 15 to 20)
#    0.000    2.000    1.667    1.500    2.333    6.000 
#    0.000    6.667    0.000    0.000    0.000    0.000 
#    0.000    0.000    0.000    0.000    0.000    0.000 
#
# Total GULP energy -594854.248542 kJ/mol
# GULP energy per Si atom -12392.796845 kJ/mol
# Density = 2.176506 g / cm^3
# Si number density = 21.814713 Si / 1000 Ang^3
#
#
#
# Elastic Constant Matrix: (Units=GPa)
#
#
# Indices 1 2 3 4 5 6 
#
# 1 116.2955 49.0690 36.0235 0.0000 0.0000 0.0000
# 2 49.0690 122.1509 30.9285 0.0000 0.0000 0.0000
# 3 36.0235 30.9285 67.2134 0.0001 -0.0001 0.0000
# 4 0.0000 0.0000 0.0001 0.6698 0.0000 0.0000
# 5 0.0000 0.0000 -0.0001 0.0000 11.5722 0.0000
# 6 0.0000 0.0000 0.0000 0.0000 0.0000 41.6641
#
#
#
# Elastic Compliance Matrix: (Units=1/GPa)
#
#
# Indices 1 2 3 4 5 6 
#
# 1 0.011467 -0.003453 -0.004557 0.000001 0.000000 0.000000
# 2 -0.003453 0.010306 -0.002892 0.000001 0.000000 0.000000
# 3 -0.004557 -0.002892 0.018651 -0.000002 0.000000 0.000000
# 4 0.000001 0.000001 -0.000002 1.493030 0.000005 0.000000
# 5 0.000000 0.000000 0.000000 0.000005 0.086414 0.000000
# 6 0.000000 0.000000 0.000000 0.000000 0.000000 0.024001
#
#
# Mechanical properties :
#
#
# Convention : Reuss Voigt Hill
#
# Bulk Modulus (GPa) = 53.70312 59.74465 56.72389
# Shear Modulus (GPa) = 2.99065 23.42379 13.20722
#
# Velocity S-wave (km/s) = 1.17214 3.28038 2.46321
# Velocity P-wave (km/s) = 5.14812 6.46488 5.84371
#
# Compressibility (1/GPa) = 0.01862089
#
# Stress axis : x y z
#
# Youngs Moduli (GPa) = 87.20546 97.03354 53.61607
#
# Poissons Ratio (x) = 0.33502 0.24434
# Poissons Ratio (y) = 0.30108 0.15505
# Poissons Ratio (z) = 0.39741 0.28060
#
# Static dielectric constant tensor:
#      x y z
#    x 4.183800 0.000000 0.000000 
#    y 0.000000 4.286260 0.000000 
#    z 0.000000 0.000000 3.334900 
# 
# 
# High freq. dielectric constant tensor:
#      x y z
#    x 1.875080 0.000000 0.000000 
#    y 0.000000 1.876130 0.000000 
#    z 0.000000 0.000000 1.798420 
# 
# From -- ./inp_files/36046.got.cif
#   From: 2010.03.12/outbox.cif.g09.slc.cpg/sg72_19_cif.got.tgz:36046.got - 2010.04.16 14:54:00.
