data_PCOD8294222
_publ_section_title
;
Structure prediction by ZEFSAII (Michael W. Deem and Ramdas Pophale) SiO2 
 PCOD8294222
Probable space group: I B A M
;
_chemical_formula_sum "Si O2"
_cell_formula_units_Z 116
_cell_length_a 16.202367
_cell_length_b 19.884856
_cell_length_c 17.775388
_cell_angle_alpha 90.000000
_cell_angle_beta 90.000000
_cell_angle_gamma 90.000000
_cell_volume 5726.905340
_symmetry_space_group_name_H-M "I B A M"
_symmetry_group_IT_number 72
_symmetry_cell_setting 'orthorhombic'
loop_
_space_group_symop_operation_xyz
x,y,z
-x,-y,z
x,-y,1/2-z
-x,y,1/2-z
-x,-y,-z
x,y,-z
-x,y,1/2+z
x,-y,1/2+z
1/2+x,1/2+y,1/2+z
1/2-x,1/2-y,1/2+z
1/2+x,1/2-y,-z
1/2-x,1/2+y,-z
1/2-x,1/2-y,1/2-z
1/2+x,1/2+y,1/2-z
1/2-x,1/2+y,z
1/2+x,1/2-y,z
loop_
_atom_site_type_symbol
_atom_site_label
_atom_site_fract_x
_atom_site_fract_y
_atom_site_fract_z
Si Si1 0.620499 0.283575 0.087090
Si Si2 0.718158 0.584218 0.588834
Si Si3 0.709107 0.191708 0.199919
Si Si4 0.883965 0.391018 0.178773
Si Si5 0.000000 0.500000 0.750000
Si Si6 0.830857 0.153874 0.916285
Si Si7 0.913303 0.980902 0.414154
Si Si8 0.551154 0.227390 0.584131
O O1 0.660513 0.353421 0.113949
O O2 0.659586 0.222949 0.131693
O O3 0.523012 0.278709 0.104899
O O4 0.640276 0.272366 0.000000
O O5 0.735171 0.583295 0.500000
O O6 0.807027 0.585968 0.628036
O O7 0.667277 0.519243 0.618726
O O8 0.750000 0.250000 0.250000
O O9 0.649771 0.143246 0.246002
O O10 0.773182 0.143656 0.156095
O O11 0.942180 0.336728 0.137748
O O12 0.941296 0.454534 0.197474
O O13 0.865704 0.229317 0.910317
O O14 0.902921 0.098904 0.907811
O O15 0.789840 0.144645 0.000000
O O16 0.919563 0.006540 0.500000
O O17 0.000000 0.000000 0.373435
O O18 0.538550 0.199399 0.500000
#
# Coordination Sequence:
#
# PCOD8294222 Si02
#       8
#    16  16  16  16   4  16  16  16
#     4  10  20  36  61  92 123 157 200 253 311 369
#     4  10  20  37  63  92 124 165 208 253 306 376
#     4  12  22  38  60  92 118 156 204 259 314 361
#     4  12  25  45  62  87 122 167 217 263 317 379
#     4  12  32  48  62  80 122 180 214 262 324 384
#     4  10  20  36  61  93 124 157 199 250 307 365
#     4   9  18  34  59  92 127 161 199 245 303 371
#     4  10  20  38  65  94 125 159 202 261 315 368
#
# _framework density 20.255268000000001
#
# number of rings (size 3 to 8) (size 9 to 14) (size 15 to 20)
#    0.000    1.517    2.759    2.483    1.931    5.517 
#    0.000    1.379    0.000    0.828    0.000    0.000 
#    0.000    0.000    0.000    0.000    0.000    0.000 
#
# Total GULP energy -718957.699485 kJ/mol
# GULP energy per Si atom -12395.822405 kJ/mol
# Density = 2.020917 g / cm^3
# Si number density = 20.255268 Si / 1000 Ang^3
#
#
#
# Elastic Constant Matrix: (Units=GPa)
#
#
# Indices 1 2 3 4 5 6 
#
# 1 113.9542 51.8650 51.3232 0.0000 0.0000 0.0000
# 2 51.8650 114.3306 46.5979 -0.0001 0.0000 0.0000
# 3 51.3232 46.5979 71.0335 -0.0002 0.0000 0.0000
# 4 0.0000 -0.0001 -0.0002 26.8569 0.0000 0.0000
# 5 0.0000 0.0000 0.0000 0.0000 28.6678 0.0000
# 6 0.0000 0.0000 0.0000 0.0000 0.0000 44.0888
#
#
#
# Elastic Compliance Matrix: (Units=1/GPa)
#
#
# Indices 1 2 3 4 5 6 
#
# 1 0.013714 -0.002979 -0.007954 0.000000 0.000000 0.000000
# 2 -0.002979 0.012586 -0.006104 0.000000 0.000000 0.000000
# 3 -0.007954 -0.006104 0.023829 0.000000 0.000000 0.000000
# 4 0.000000 0.000000 0.000000 0.037234 0.000000 0.000000
# 5 0.000000 0.000000 0.000000 0.000000 0.034882 0.000000
# 6 0.000000 0.000000 0.000000 0.000000 0.000000 0.022681
#
#
# Mechanical properties :
#
#
# Convention : Reuss Voigt Hill
#
# Bulk Modulus (GPa) = 62.28839 66.54340 64.41590
# Shear Modulus (GPa) = 27.12198 29.89153 28.50675
#
# Velocity S-wave (km/s) = 3.66322 3.84571 3.75557
# Velocity P-wave (km/s) = 6.97930 7.25555 7.11877
#
# Compressibility (1/GPa) = 0.01605436
#
# Stress axis : x y z
#
# Youngs Moduli (GPa) = 72.91884 79.45484 41.96581
#
# Poissons Ratio (x) = 0.23672 0.33380
# Poissons Ratio (y) = 0.21725 0.25614
# Poissons Ratio (z) = 0.58001 0.48496
#
# Static dielectric constant tensor:
#      x y z
#    x 4.010830 0.000000 0.000000 
#    y 0.000000 3.619210 0.000000 
#    z 0.000000 0.000000 3.546470 
# 
# 
# High freq. dielectric constant tensor:
#      x y z
#    x 1.796190 0.000000 0.000000 
#    y 0.000000 1.787840 0.000000 
#    z 0.000000 0.000000 1.778130 
# 
# From -- ./inp_files/31738.got.cif
#   From: 2010.03.12/outbox.cif.g09.slc.cpg/sg72_16_cif.got.tgz:31738.got - 2010.04.16 14:54:00.
