data_PCOD8294167
_publ_section_title
;
Structure prediction by ZEFSAII (Michael W. Deem and Ramdas Pophale) SiO2 
 PCOD8294167
Probable space group: I B A M
;
_chemical_formula_sum "Si O2"
_cell_formula_units_Z 116
_cell_length_a 22.113375
_cell_length_b 27.387511
_cell_length_c 9.139170
_cell_angle_alpha 90.000000
_cell_angle_beta 90.000000
_cell_angle_gamma 90.000000
_cell_volume 5534.958279
_symmetry_space_group_name_H-M "I B A M"
_symmetry_group_IT_number 72
_symmetry_cell_setting 'orthorhombic'
loop_
_space_group_symop_operation_xyz
x,y,z
-x,-y,z
x,-y,1/2-z
-x,y,1/2-z
-x,-y,-z
x,y,-z
-x,y,1/2+z
x,-y,1/2+z
1/2+x,1/2+y,1/2+z
1/2-x,1/2-y,1/2+z
1/2+x,1/2-y,-z
1/2-x,1/2+y,-z
1/2-x,1/2-y,1/2-z
1/2+x,1/2+y,1/2-z
1/2-x,1/2+y,z
1/2+x,1/2-y,z
loop_
_atom_site_type_symbol
_atom_site_label
_atom_site_fract_x
_atom_site_fract_y
_atom_site_fract_z
Si Si1 0.767327 0.699519 0.326683
Si Si2 0.667819 0.549680 0.670575
Si Si3 0.835117 0.144551 0.826286
Si Si4 0.808875 0.452069 0.167707
Si Si5 0.557394 0.714873 0.168904
Si Si6 0.500000 0.000000 0.750000
Si Si7 0.906896 0.322335 0.830858
Si Si8 0.085913 0.586737 0.335283
O O1 0.754574 0.703674 0.500000
O O2 0.750000 0.750000 0.250000
O O3 0.727285 0.656737 0.255409
O O4 0.835901 0.684371 0.297068
O O5 0.647454 0.500000 0.750000
O O6 0.648942 0.547946 0.500000
O O7 0.637559 0.594521 0.757404
O O8 0.739022 0.558904 0.689931
O O9 0.881598 0.187236 0.786386
O O10 0.824711 0.138550 0.000000
O O11 0.829331 0.500000 0.250000
O O12 0.852855 0.412662 0.238460
O O13 0.826390 0.457941 0.000000
O O14 0.500000 0.691491 0.250000
O O15 0.562638 0.771295 0.211994
O O16 0.545422 0.707115 0.000000
O O17 0.456539 0.961937 0.835913
O O18 0.941954 0.363654 0.733768
O O19 0.917292 0.335731 0.000000
O O20 0.104953 0.596702 0.500000
#
# Coordination Sequence:
#
# PCOD8294167 Si02
#       8
#    16  16  16  16  16   4  16  16
#     4  11  21  37  62  94 130 166 204 254 316 381
#     4  10  21  37  60  94 128 163 200 243 299 362
#     4  11  22  39  62  92 129 167 205 252 307 370
#     4  10  20  36  58  83 116 152 192 242 296 359
#     4  10  23  43  63  88 122 163 206 252 305 362
#     4  12  30  48  60  82 118 156 214 280 330 376
#     4  10  23  43  63  88 125 160 198 258 319 372
#     4  12  26  42  62  84 109 151 206 259 317 374
#
# _framework density 20.957702000000001
#
# number of rings (size 3 to 8) (size 9 to 14) (size 15 to 20)
#    0.000    1.379    2.069    3.103    0.966    9.379 
#    0.000    0.000    0.000    0.414    0.000    2.897 
#    0.000    0.000    0.000    0.000    0.000    0.000 
#
# Total GULP energy -718871.767760 kJ/mol
# GULP energy per Si atom -12394.340823 kJ/mol
# Density = 2.091000 g / cm^3
# Si number density = 20.957702 Si / 1000 Ang^3
#
#
#
# Elastic Constant Matrix: (Units=GPa)
#
#
# Indices 1 2 3 4 5 6 
#
# 1 57.2525 8.7709 29.9426 0.0000 0.0000 0.0000
# 2 8.7709 116.5016 51.9476 0.0000 0.0000 0.0000
# 3 29.9426 51.9476 125.3552 0.0000 0.0000 0.0000
# 4 0.0000 0.0000 0.0000 37.6841 0.0000 0.0000
# 5 0.0000 0.0000 0.0000 0.0000 20.1675 0.0000
# 6 0.0000 0.0000 0.0000 0.0000 0.0000 11.2334
#
#
#
# Elastic Compliance Matrix: (Units=1/GPa)
#
#
# Indices 1 2 3 4 5 6 
#
# 1 0.020016 0.000767 -0.005099 0.000000 0.000000 0.000000
# 2 0.000767 0.010559 -0.004559 0.000000 0.000000 0.000000
# 3 -0.005099 -0.004559 0.011084 0.000000 0.000000 0.000000
# 4 0.000000 0.000000 0.000000 0.026536 0.000000 0.000000
# 5 0.000000 0.000000 0.000000 0.000000 0.049585 0.000000
# 6 0.000000 0.000000 0.000000 0.000000 0.000000 0.089020
#
#
# Mechanical properties :
#
#
# Convention : Reuss Voigt Hill
#
# Bulk Modulus (GPa) = 41.88110 53.38126 47.63118
# Shear Modulus (GPa) = 21.50171 27.71356 24.60763
#
# Velocity S-wave (km/s) = 3.20653 3.64037 3.43031
# Velocity P-wave (km/s) = 5.80828 6.57236 6.20210
#
# Compressibility (1/GPa) = 0.02387712
#
# Stress axis : x y z
#
# Youngs Moduli (GPa) = 49.96103 94.71028 90.21778
#
# Poissons Ratio (x) = -0.07260 0.45999
# Poissons Ratio (y) = -0.03830 0.41127
# Poissons Ratio (z) = 0.25473 0.43174
#
# Static dielectric constant tensor:
#      x y z
#    x 3.533100 0.000000 0.000000 
#    y 0.000000 4.041320 0.000000 
#    z 0.000000 0.000000 3.799270 
# 
# 
# High freq. dielectric constant tensor:
#      x y z
#    x 1.799030 0.000000 0.000000 
#    y 0.000000 1.837190 0.000000 
#    z 0.000000 0.000000 1.823440 
# 
# From -- ./inp_files/7292.got.cif
#   From: 2010.03.12/outbox.cif.g09.slc.cpg/sg72_4_cif.got.tgz:7292.got - 2010.04.16 14:54:00.
