data_PCOD8294426
_publ_section_title
;
Structure prediction by ZEFSAII (Michael W. Deem and Ramdas Pophale) SiO2 
 PCOD8294426
Probable space group: I B A M
;
_chemical_formula_sum "Si O2"
_cell_formula_units_Z 88
_cell_length_a 19.898662
_cell_length_b 14.277103
_cell_length_c 14.603883
_cell_angle_alpha 90.000000
_cell_angle_beta 90.000000
_cell_angle_gamma 90.000000
_cell_volume 4148.893747
_symmetry_space_group_name_H-M "I B A M"
_symmetry_group_IT_number 72
_symmetry_cell_setting 'orthorhombic'
loop_
_space_group_symop_operation_xyz
x,y,z
-x,-y,z
x,-y,1/2-z
-x,y,1/2-z
-x,-y,-z
x,y,-z
-x,y,1/2+z
x,-y,1/2+z
1/2+x,1/2+y,1/2+z
1/2-x,1/2-y,1/2+z
1/2+x,1/2-y,-z
1/2-x,1/2+y,-z
1/2-x,1/2-y,1/2-z
1/2+x,1/2+y,1/2-z
1/2-x,1/2+y,z
1/2+x,1/2-y,z
loop_
_atom_site_type_symbol
_atom_site_label
_atom_site_fract_x
_atom_site_fract_y
_atom_site_fract_z
Si Si1 0.554991 0.078988 0.896564
Si Si2 0.886812 0.903802 0.895417
Si Si3 0.769614 0.143999 0.261304
Si Si4 0.504309 0.725278 0.108448
Si Si5 0.131487 0.115428 0.395262
Si Si6 0.657582 0.000000 0.750000
O O1 0.518267 0.172077 0.856717
O O2 0.500000 0.000000 0.898741
O O3 0.614557 0.044208 0.832045
O O4 0.582716 0.097056 0.000000
O O5 0.821181 0.870463 0.842912
O O6 0.950544 0.849223 0.853881
O O7 0.902744 0.013674 0.886340
O O8 0.874399 0.874658 0.000000
O O9 0.750000 0.250000 0.250000
O O10 0.801375 0.112467 0.164806
O O11 0.704138 0.083695 0.286927
O O12 0.578634 0.693702 0.142490
O O13 0.506995 0.722288 0.000000
O O14 0.152430 0.136133 0.500000
#
# Coordination Sequence:
#
# PCOD8294426 Si02
#       6
#    16  16  16  16  16   8
#     4  10  23  43  67  93 123 163 215 270 322 376
#     4  10  20  40  64  92 128 163 207 263 321 379
#     4  12  26  41  60  92 130 175 218 253 310 392
#     4   9  19  38  66  96 122 160 211 267 328 374
#     4  10  21  40  66  94 127 162 209 270 323 376
#     4  12  25  44  62  91 134 168 216 262 312 387
#
# _framework density 21.210471999999999
#
# number of rings (size 3 to 8) (size 9 to 14) (size 15 to 20)
#    0.000    1.636    1.818    1.909    2.545    5.091 
#    3.273    1.818    0.000    0.000    0.000    0.000 
#    0.000    0.000    0.000    0.000    0.000    0.000 
#
# Total GULP energy -545543.253765 kJ/mol
# GULP energy per Si atom -12398.710313 kJ/mol
# Density = 2.116220 g / cm^3
# Si number density = 21.210472 Si / 1000 Ang^3
#
#
#
# Elastic Constant Matrix: (Units=GPa)
#
#
# Indices 1 2 3 4 5 6 
#
# 1 88.5400 30.3653 31.0141 0.0000 0.0000 0.0000
# 2 30.3653 131.1673 16.5529 0.0000 0.0000 0.0000
# 3 31.0141 16.5529 78.3977 0.0000 0.0000 0.0000
# 4 0.0000 0.0000 0.0000 11.6523 0.0000 0.0000
# 5 0.0000 0.0000 0.0000 0.0000 3.2235 0.0000
# 6 0.0000 0.0000 0.0000 0.0000 0.0000 48.4965
#
#
#
# Elastic Compliance Matrix: (Units=1/GPa)
#
#
# Indices 1 2 3 4 5 6 
#
# 1 0.013922 -0.002597 -0.004959 0.000000 0.000000 0.000000
# 2 -0.002597 0.008317 -0.000729 0.000000 0.000000 0.000000
# 3 -0.004959 -0.000729 0.014871 0.000000 0.000000 0.000000
# 4 0.000000 0.000000 0.000000 0.085820 0.000000 0.000000
# 5 0.000000 0.000000 0.000000 0.000000 0.310224 0.000000
# 6 0.000000 0.000000 0.000000 0.000000 0.000000 0.020620
#
#
# Mechanical properties :
#
#
# Convention : Reuss Voigt Hill
#
# Bulk Modulus (GPa) = 48.68462 50.44106 49.56284
# Shear Modulus (GPa) = 10.47798 27.35264 18.91531
#
# Velocity S-wave (km/s) = 2.22502 3.59497 2.98953
# Velocity P-wave (km/s) = 5.44095 6.40817 5.94426
#
# Compressibility (1/GPa) = 0.02054037
#
# Stress axis : x y z
#
# Youngs Moduli (GPa) = 71.82787 120.23501 67.24407
#
# Poissons Ratio (x) = 0.31227 0.33348
# Poissons Ratio (y) = 0.18655 0.04900
# Poissons Ratio (z) = 0.35621 0.08761
#
# Static dielectric constant tensor:
#      x y z
#    x 3.915340 0.000000 0.000000 
#    y 0.000000 4.001070 0.000000 
#    z 0.000000 0.000000 4.055420 
# 
# 
# High freq. dielectric constant tensor:
#      x y z
#    x 1.826840 0.000000 0.000000 
#    y 0.000000 1.847630 0.000000 
#    z 0.000000 0.000000 1.830400 
# 
# From -- ./inp_files/24052.got.cif
#   From: 2010.03.12/outbox.cif.g09.slc.cpg/sg72_13_cif.got.tgz:24052.got - 2010.04.16 14:54:00.
