data_PCOD8294866
_publ_section_title
;
Structure prediction by ZEFSAII (Michael W. Deem and Ramdas Pophale) SiO2 
 PCOD8294866
Probable space group: I B A M
;
_chemical_formula_sum "Si O2"
_cell_formula_units_Z 48
_cell_length_a 8.130866
_cell_length_b 28.076090
_cell_length_c 8.191496
_cell_angle_alpha 90.000000
_cell_angle_beta 90.000000
_cell_angle_gamma 90.000000
_cell_volume 1869.978672
_symmetry_space_group_name_H-M "I B A M"
_symmetry_group_IT_number 72
_symmetry_cell_setting 'orthorhombic'
loop_
_space_group_symop_operation_xyz
x,y,z
-x,-y,z
x,-y,1/2-z
-x,y,1/2-z
-x,-y,-z
x,y,-z
-x,y,1/2+z
x,-y,1/2+z
1/2+x,1/2+y,1/2+z
1/2-x,1/2-y,1/2+z
1/2+x,1/2-y,-z
1/2-x,1/2+y,-z
1/2-x,1/2-y,1/2-z
1/2+x,1/2+y,1/2-z
1/2-x,1/2+y,z
1/2+x,1/2-y,z
loop_
_atom_site_type_symbol
_atom_site_label
_atom_site_fract_x
_atom_site_fract_y
_atom_site_fract_z
Si Si1 0.042240 0.802225 0.000000
Si Si2 0.695804 0.147158 0.178790
Si Si3 0.348175 0.194069 0.000000
Si Si4 0.186693 0.050631 0.193717
O O1 0.126049 0.826731 0.839427
O O2 0.849318 0.810004 0.000000
O O3 0.082202 0.746686 0.000000
O O4 0.594794 0.168980 0.331096
O O5 0.712628 0.091145 0.212267
O O6 0.605207 0.154773 0.000000
O O7 0.000000 0.053828 0.250000
O O8 0.261748 0.000000 0.250000
O O9 0.199471 0.057803 0.000000
#
# Coordination Sequence:
#
# PCOD8294866 Si02
#       4
#     8  16   8  16
#     4  10  24  34  61  73 117 141 194 222 279 320
#     4  10  22  34  53  75 108 145 183 223 278 329
#     4  12  20  42  51  85 105 155 180 238 267 330
#     4  11  19  29  46  71 105 140 181 218 270 332
#
# _framework density 25.668741000000001
#
# number of rings (size 3 to 8) (size 9 to 14) (size 15 to 20)
#    1.000    0.333    1.667    8.000    0.000    0.000 
#    0.000    0.000    0.000    0.000    0.000    0.000 
#    0.000    8.000    0.000    0.000    0.000    0.000 
#
# Total GULP energy -297526.084280 kJ/mol
# GULP energy per Si atom -12396.920178 kJ/mol
# Density = 2.561032 g / cm^3
# Si number density = 25.668741 Si / 1000 Ang^3
#
#
#
# Elastic Constant Matrix: (Units=GPa)
#
#
# Indices 1 2 3 4 5 6 
#
# 1 97.6387 26.6445 73.5583 -0.0015 -0.0004 -0.0003
# 2 26.6445 225.1101 93.7778 -0.0024 -0.0003 0.0000
# 3 73.5583 93.7778 241.4577 0.0002 -0.0035 -0.0049
# 4 -0.0015 -0.0024 0.0002 130.5114 0.0016 0.0086
# 5 -0.0004 -0.0003 -0.0035 0.0016 40.6770 0.0029
# 6 -0.0003 0.0000 -0.0049 0.0086 0.0029 -136.2434
#
#
#
# Elastic Compliance Matrix: (Units=1/GPa)
#
#
# Indices 1 2 3 4 5 6 
#
# 1 0.013296 0.000136 -0.004103 0.000000 0.000000 0.000000
# 2 0.000136 0.005301 -0.002100 0.000000 0.000000 0.000000
# 3 -0.004103 -0.002100 0.006207 0.000000 0.000000 0.000000
# 4 0.000000 0.000000 0.000000 0.007662 0.000000 0.000000
# 5 0.000000 0.000000 0.000000 0.000000 0.024584 0.000001
# 6 0.000000 0.000000 0.000000 0.000000 0.000001 -0.007340
#
#
# Mechanical properties :
#
#
# Convention : Reuss Voigt Hill
#
# Bulk Modulus (GPa) = 78.93393 105.79640 92.36516
# Shear Modulus (GPa) = 75.67824 31.67074 53.67449
#
# Velocity S-wave (km/s) = 5.43568 3.51640 4.57776
# Velocity P-wave (km/s) = 8.37934 7.60212 8.00017
#
# Compressibility (1/GPa) = 0.01266882
#
# Stress axis : x y z
#
# Youngs Moduli (GPa) = 75.21008 188.63928 161.10346
#
# Poissons Ratio (x) = -0.02558 0.66104
# Poissons Ratio (y) = -0.01020 0.33834
# Poissons Ratio (z) = 0.30860 0.39617
#
# Static dielectric constant tensor:
#      x y z
#    x 4.335100 0.000000 0.000000 
#    y 0.000000 4.952180 0.000000 
#    z 0.000000 0.000000 5.170450 
# 
# 
# High freq. dielectric constant tensor:
#      x y z
#    x 2.047450 0.000000 0.000000 
#    y 0.000000 2.023900 0.000000 
#    z 0.000000 0.000000 2.066940 
# 
# From -- ./inp_files/2255.got.cif
#   From: 2010.03.12/outbox.cif.g09.slc.cpg/sg72_2_cif.got.tgz:2255.got - 2010.04.16 14:54:00.
