data_PCOD8294424
_publ_section_title
;
Structure prediction by ZEFSAII (Michael W. Deem and Ramdas Pophale) SiO2 
 PCOD8294424
Probable space group: I B A M
;
_chemical_formula_sum "Si O2"
_cell_formula_units_Z 104
_cell_length_a 26.384688
_cell_length_b 21.077727
_cell_length_c 9.331264
_cell_angle_alpha 90.000000
_cell_angle_beta 90.000000
_cell_angle_gamma 90.000000
_cell_volume 5189.388856
_symmetry_space_group_name_H-M "I B A M"
_symmetry_group_IT_number 72
_symmetry_cell_setting 'orthorhombic'
loop_
_space_group_symop_operation_xyz
x,y,z
-x,-y,z
x,-y,1/2-z
-x,y,1/2-z
-x,-y,-z
x,y,-z
-x,y,1/2+z
x,-y,1/2+z
1/2+x,1/2+y,1/2+z
1/2-x,1/2-y,1/2+z
1/2+x,1/2-y,-z
1/2-x,1/2+y,-z
1/2-x,1/2-y,1/2-z
1/2+x,1/2+y,1/2-z
1/2-x,1/2+y,z
1/2+x,1/2-y,z
loop_
_atom_site_type_symbol
_atom_site_label
_atom_site_fract_x
_atom_site_fract_y
_atom_site_fract_z
Si Si1 0.864741 0.621499 0.341028
Si Si2 0.552365 0.333032 0.169289
Si Si3 0.107283 0.059834 0.334812
Si Si4 0.305888 0.000000 0.750000
Si Si5 0.551258 0.186939 0.166320
Si Si6 0.778872 0.084108 0.152419
Si Si7 0.238190 0.688995 0.838790
O O1 0.888550 0.626737 0.500000
O O2 0.842529 0.550919 0.324522
O O3 0.906730 0.638053 0.223491
O O4 0.820743 0.673198 0.323410
O O5 0.500000 0.347026 0.250000
O O6 0.593981 0.375951 0.248836
O O7 0.568513 0.259715 0.190392
O O8 0.547923 0.349602 0.000000
O O9 0.087543 0.062401 0.500000
O O10 0.167563 0.049516 0.330914
O O11 0.082632 0.000000 0.250000
O O12 0.267387 0.033938 0.639808
O O13 0.500000 0.172535 0.250000
O O14 0.542258 0.172532 0.000000
O O15 0.772100 0.131114 0.284114
O O16 0.778376 0.121514 0.000000
O O17 0.250000 0.750000 0.750000
O O18 0.254941 0.701560 0.000000
#
# Coordination Sequence:
#
# PCOD8294424 Si02
#       7
#    16  16  16   8  16  16  16
#     4  10  22  38  61  90 121 159 202 250 302 359
#     4  10  22  41  63  89 118 154 197 247 305 364
#     4  11  23  38  59  87 118 158 203 251 299 354
#     4  10  20  40  63  88 119 164 206 250 298 356
#     4  10  22  41  66  93 122 157 196 246 304 364
#     4  10  21  37  58  83 116 158 202 245 296 353
#     4  10  22  37  55  83 119 157 198 246 297 351
#
# _framework density 20.040896
#
# number of rings (size 3 to 8) (size 9 to 14) (size 15 to 20)
#    0.000    1.846    0.769    2.308    2.154    7.692 
#    0.000    1.923    0.000    1.846    0.000    0.000 
#    0.000    0.000    0.000    0.000    0.000    0.000 
#
# Total GULP energy -644639.587354 kJ/mol
# GULP energy per Si atom -12396.915141 kJ/mol
# Density = 1.999528 g / cm^3
# Si number density = 20.040896 Si / 1000 Ang^3
#
#
#
# Elastic Constant Matrix: (Units=GPa)
#
#
# Indices 1 2 3 4 5 6 
#
# 1 71.8361 44.2510 53.9382 0.0000 0.0000 0.0000
# 2 44.2510 107.7904 61.7001 0.0000 0.0000 0.0000
# 3 53.9382 61.7001 170.7217 0.0000 0.0000 0.0000
# 4 0.0000 0.0000 0.0000 29.2863 0.0000 0.0000
# 5 0.0000 0.0000 0.0000 0.0000 33.7284 0.0000
# 6 0.0000 0.0000 0.0000 0.0000 0.0000 24.0387
#
#
#
# Elastic Compliance Matrix: (Units=1/GPa)
#
#
# Indices 1 2 3 4 5 6 
#
# 1 0.020997 -0.006081 -0.004436 0.000000 0.000000 0.000000
# 2 -0.006081 0.013458 -0.002943 0.000000 0.000000 0.000000
# 3 -0.004436 -0.002943 0.008323 0.000000 0.000000 0.000000
# 4 0.000000 0.000000 0.000000 0.034146 0.000000 0.000000
# 5 0.000000 0.000000 0.000000 0.000000 0.029649 0.000000
# 6 0.000000 0.000000 0.000000 0.000000 0.000000 0.041600
#
#
# Mechanical properties :
#
#
# Convention : Reuss Voigt Hill
#
# Bulk Modulus (GPa) = 63.05732 74.45854 68.75793
# Shear Modulus (GPa) = 27.71973 30.10795 28.91384
#
# Velocity S-wave (km/s) = 3.72312 3.88019 3.80247
# Velocity P-wave (km/s) = 7.07211 7.57023 7.32541
#
# Compressibility (1/GPa) = 0.01585859
#
# Stress axis : x y z
#
# Youngs Moduli (GPa) = 47.62530 74.30564 120.15436
#
# Poissons Ratio (x) = 0.45182 0.53305
# Poissons Ratio (y) = 0.28959 0.35358
# Poissons Ratio (z) = 0.21128 0.21866
#
# Static dielectric constant tensor:
#      x y z
#    x 3.463440 0.000000 0.000000 
#    y 0.000000 4.562960 0.000000 
#    z 0.000000 0.000000 3.900130 
# 
# 
# High freq. dielectric constant tensor:
#      x y z
#    x 1.768590 0.000000 0.000000 
#    y 0.000000 1.776090 0.000000 
#    z 0.000000 0.000000 1.800540 
# 
# From -- ./inp_files/8176.got.cif
#   From: 2010.03.12/outbox.cif.g09.slc.cpg/sg72_5_cif.got.tgz:8176.got - 2010.04.16 14:54:00.
