data_PCOD8294078
_publ_section_title
;
Structure prediction by ZEFSAII (Michael W. Deem and Ramdas Pophale) SiO2 
 PCOD8294078
Probable space group: I B A M
;
_chemical_formula_sum "Si O2"
_cell_formula_units_Z 112
_cell_length_a 29.800434
_cell_length_b 11.485560
_cell_length_c 17.474781
_cell_angle_alpha 90.000000
_cell_angle_beta 90.000000
_cell_angle_gamma 90.000000
_cell_volume 5981.174948
_symmetry_space_group_name_H-M "I B A M"
_symmetry_group_IT_number 72
_symmetry_cell_setting 'orthorhombic'
loop_
_space_group_symop_operation_xyz
x,y,z
-x,-y,z
x,-y,1/2-z
-x,y,1/2-z
-x,-y,-z
x,y,-z
-x,y,1/2+z
x,-y,1/2+z
1/2+x,1/2+y,1/2+z
1/2-x,1/2-y,1/2+z
1/2+x,1/2-y,-z
1/2-x,1/2+y,-z
1/2-x,1/2-y,1/2-z
1/2+x,1/2+y,1/2-z
1/2-x,1/2+y,z
1/2+x,1/2-y,z
loop_
_atom_site_type_symbol
_atom_site_label
_atom_site_fract_x
_atom_site_fract_y
_atom_site_fract_z
Si Si1 0.659144 0.924731 0.413650
Si Si2 0.172462 0.176414 0.658659
Si Si3 0.877715 0.766557 0.809214
Si Si4 0.051505 0.628192 0.228022
Si Si5 0.665399 0.570759 0.411127
Si Si6 0.738704 0.771246 0.414339
Si Si7 0.392185 0.155444 0.086286
O O1 0.644526 0.887319 0.500000
O O2 0.632484 0.853777 0.350761
O O3 0.712161 0.894778 0.404258
O O4 0.646774 0.058949 0.399286
O O5 0.159997 0.198191 0.746783
O O6 0.220200 0.238637 0.644267
O O7 0.132606 0.224405 0.605145
O O8 0.178718 0.042296 0.636363
O O9 0.925025 0.738144 0.769839
O O10 0.879024 0.871686 0.871344
O O11 0.069314 0.500000 0.250000
O O12 0.063283 0.638720 0.137906
O O13 0.000000 0.640801 0.250000
O O14 0.656072 0.542813 0.500000
O O15 0.704648 0.665314 0.400287
O O16 0.758831 0.764750 0.500000
O O17 0.410103 0.154538 0.000000
#
# Coordination Sequence:
#
# PCOD8294078 Si02
#       7
#    16  16  16  16  16  16  16
#     4   9  18  33  53  77 109 147 189 224 270 335
#     4  11  22  33  55  81 111 150 196 237 280 323
#     4  10  20  37  57  78 109 147 179 225 286 341
#     4  10  20  37  60  87 116 142 174 232 293 351
#     4  10  21  37  54  77 110 148 194 234 272 328
#     4   9  19  33  51  76 107 149 190 235 275 317
#     4  10  20  35  57  84 115 154 190 229 284 342
#
# _framework density 18.725418000000001
#
# number of rings (size 3 to 8) (size 9 to 14) (size 15 to 20)
#    0.000    2.143    1.429    3.000    2.000    2.286 
#    0.000    2.857    0.000    6.857    0.000    5.000 
#    0.000    0.000    0.000    0.000    0.000    0.000 
#
# Total GULP energy -693934.342055 kJ/mol
# GULP energy per Si atom -12391.684680 kJ/mol
# Density = 1.868280 g / cm^3
# Si number density = 18.725418 Si / 1000 Ang^3
#
#
#
# Elastic Constant Matrix: (Units=GPa)
#
#
# Indices 1 2 3 4 5 6 
#
# 1 82.7080 25.5524 46.3045 0.0000 0.0000 0.0000
# 2 25.5524 68.1466 24.8803 0.0000 0.0000 0.0000
# 3 46.3045 24.8803 99.9358 0.0000 0.0000 0.0000
# 4 0.0000 0.0000 0.0000 27.4750 0.0000 0.0000
# 5 0.0000 0.0000 0.0000 0.0000 23.5286 0.0000
# 6 0.0000 0.0000 0.0000 0.0000 0.0000 20.3812
#
#
#
# Elastic Compliance Matrix: (Units=1/GPa)
#
#
# Indices 1 2 3 4 5 6 
#
# 1 0.017218 -0.003898 -0.007008 0.000000 0.000000 0.000000
# 2 -0.003898 0.017024 -0.002432 0.000000 0.000000 0.000000
# 3 -0.007008 -0.002432 0.013859 0.000000 0.000000 0.000000
# 4 0.000000 0.000000 0.000000 0.036397 0.000000 0.000000
# 5 0.000000 0.000000 0.000000 0.000000 0.042501 0.000000
# 6 0.000000 0.000000 0.000000 0.000000 0.000000 0.049065
#
#
# Mechanical properties :
#
#
# Convention : Reuss Voigt Hill
#
# Bulk Modulus (GPa) = 46.67292 49.36275 48.01784
# Shear Modulus (GPa) = 23.82305 24.54716 24.18511
#
# Velocity S-wave (km/s) = 3.57070 3.62456 3.59773
# Velocity P-wave (km/s) = 6.47911 6.62836 6.55416
#
# Compressibility (1/GPa) = 0.02142570
#
# Stress axis : x y z
#
# Youngs Moduli (GPa) = 58.07844 58.74138 72.15599
#
# Poissons Ratio (x) = 0.22896 0.50563
# Poissons Ratio (y) = 0.22637 0.17551
# Poissons Ratio (z) = 0.40698 0.14288
#
# Static dielectric constant tensor:
#      x y z
#    x 3.054120 0.000000 0.000000 
#    y 0.000000 3.500050 0.000000 
#    z 0.000000 0.000000 3.645640 
# 
# 
# High freq. dielectric constant tensor:
#      x y z
#    x 1.685190 0.000000 0.000000 
#    y 0.000000 1.727550 0.000000 
#    z 0.000000 0.000000 1.742910 
# 
# From -- ./inp_files/26379.got.cif
#   From: 2010.03.12/outbox.cif.g09.slc.cpg/sg72_14_cif.got.tgz:26379.got - 2010.04.16 14:54:00.
