data_PCOD8294245
_publ_section_title
;
Structure prediction by ZEFSAII (Michael W. Deem and Ramdas Pophale) SiO2 
 PCOD8294245
Probable space group: I B A M
;
_chemical_formula_sum "Si O2"
_cell_formula_units_Z 116
_cell_length_a 24.355965
_cell_length_b 28.982362
_cell_length_c 8.825787
_cell_angle_alpha 90.000000
_cell_angle_beta 90.000000
_cell_angle_gamma 90.000000
_cell_volume 6230.064744
_symmetry_space_group_name_H-M "I B A M"
_symmetry_group_IT_number 72
_symmetry_cell_setting 'orthorhombic'
loop_
_space_group_symop_operation_xyz
x,y,z
-x,-y,z
x,-y,1/2-z
-x,y,1/2-z
-x,-y,-z
x,y,-z
-x,y,1/2+z
x,-y,1/2+z
1/2+x,1/2+y,1/2+z
1/2-x,1/2-y,1/2+z
1/2+x,1/2-y,-z
1/2-x,1/2+y,-z
1/2-x,1/2-y,1/2-z
1/2+x,1/2+y,1/2-z
1/2-x,1/2+y,z
1/2+x,1/2-y,z
loop_
_atom_site_type_symbol
_atom_site_label
_atom_site_fract_x
_atom_site_fract_y
_atom_site_fract_z
Si Si1 0.877635 0.951122 0.319875
Si Si2 0.301212 0.224539 0.827596
Si Si3 0.856049 0.816823 0.330702
Si Si4 0.776550 0.105132 0.175863
Si Si5 0.661044 0.869558 0.680691
Si Si6 0.447148 0.909740 0.331361
Si Si7 0.500000 0.000000 0.750000
Si Si8 0.443805 0.628170 0.177146
O O1 0.878848 0.953498 0.500000
O O2 0.818919 0.932291 0.255387
O O3 0.925642 0.918187 0.262097
O O4 0.889624 0.000000 0.250000
O O5 0.250000 0.250000 0.750000
O O6 0.349539 0.262249 0.828116
O O7 0.328825 0.182149 0.739382
O O8 0.285578 0.210329 0.000000
O O9 0.874011 0.833614 0.500000
O O10 0.798665 0.842991 0.290118
O O11 0.901026 0.830718 0.207406
O O12 0.714339 0.101093 0.238268
O O13 0.773687 0.095421 0.000000
O O14 0.656621 0.867551 0.500000
O O15 0.607697 0.895639 0.742940
O O16 0.500000 0.886172 0.250000
O O17 0.441753 0.889962 0.500000
O O18 0.458617 0.965513 0.341177
O O19 0.500000 0.645113 0.250000
O O20 0.449556 0.618825 0.000000
#
# Coordination Sequence:
#
# PCOD8294245 Si02
#       8
#    16  16  16  16  16  16   4  16
#     4  10  20  37  56  78 111 147 186 232 284 338
#     4  11  21  35  57  86 120 156 195 236 284 343
#     4   9  18  36  57  79 112 151 186 229 277 330
#     4   8  16  33  54  77 111 150 181 222 280 334
#     4  11  21  36  58  87 121 156 193 239 290 345
#     4  10  21  39  62  88 115 150 194 242 295 352
#     4   8  22  40  70  84 114 152 198 248 300 364
#     4  11  22  37  58  83 108 142 186 233 281 336
#
# _framework density 18.619389999999999
#
# number of rings (size 3 to 8) (size 9 to 14) (size 15 to 20)
#    0.414    1.655    1.379    3.931    0.000    1.379 
#    1.241    4.138    0.000    3.310    0.000    0.000 
#    0.000    0.000    0.000    0.000    0.000    0.000 
#
# Total GULP energy -718603.576932 kJ/mol
# GULP energy per Si atom -12389.716844 kJ/mol
# Density = 1.857701 g / cm^3
# Si number density = 18.619390 Si / 1000 Ang^3
#
#
#
# Elastic Constant Matrix: (Units=GPa)
#
#
# Indices 1 2 3 4 5 6 
#
# 1 119.0334 26.0463 42.5889 0.0000 0.0000 0.0000
# 2 26.0463 64.6971 25.0201 0.0000 0.0000 0.0000
# 3 42.5889 25.0201 114.4873 0.0000 0.0000 0.0000
# 4 0.0000 0.0000 0.0000 26.2829 0.0000 0.0000
# 5 0.0000 0.0000 0.0000 0.0000 28.5501 0.0000
# 6 0.0000 0.0000 0.0000 0.0000 0.0000 23.5843
#
#
#
# Elastic Compliance Matrix: (Units=1/GPa)
#
#
# Indices 1 2 3 4 5 6 
#
# 1 0.010156 -0.002870 -0.003151 0.000000 0.000000 0.000000
# 2 -0.002870 0.017695 -0.002799 0.000000 0.000000 0.000000
# 3 -0.003151 -0.002799 0.010518 0.000000 0.000000 0.000000
# 4 0.000000 0.000000 0.000000 0.038048 0.000000 0.000000
# 5 0.000000 0.000000 0.000000 0.000000 0.035026 0.000000
# 6 0.000000 0.000000 0.000000 0.000000 0.000000 0.042401
#
#
# Mechanical properties :
#
#
# Convention : Reuss Voigt Hill
#
# Bulk Modulus (GPa) = 48.24226 53.94758 51.09492
# Shear Modulus (GPa) = 28.02770 29.32096 28.67433
#
# Velocity S-wave (km/s) = 3.88402 3.97262 3.92857
# Velocity P-wave (km/s) = 6.78823 7.07666 6.93395
#
# Compressibility (1/GPa) = 0.02072871
#
# Stress axis : x y z
#
# Youngs Moduli (GPa) = 98.45981 56.51388 95.07103
#
# Poissons Ratio (x) = 0.16221 0.29956
# Poissons Ratio (y) = 0.28261 0.26613
# Poissons Ratio (z) = 0.31023 0.15820
#
# Static dielectric constant tensor:
#      x y z
#    x 3.530550 0.000000 0.000000 
#    y 0.000000 3.343780 0.000000 
#    z 0.000000 0.000000 3.405510 
# 
# 
# High freq. dielectric constant tensor:
#      x y z
#    x 1.721240 0.000000 0.000000 
#    y 0.000000 1.707900 0.000000 
#    z 0.000000 0.000000 1.721950 
# 
# From -- ./inp_files/7541.got.cif
#   From: 2010.03.12/outbox.cif.g09.slc.cpg/sg72_4_cif.got.tgz:7541.got - 2010.04.16 14:54:00.
