data_PCOD8294979
_publ_section_title
;
Structure prediction by ZEFSAII (Michael W. Deem and Ramdas Pophale) SiO2 
 PCOD8294979
Probable space group: I B A M
;
_chemical_formula_sum "Si O2"
_cell_formula_units_Z 116
_cell_length_a 16.344966
_cell_length_b 20.151572
_cell_length_c 16.814825
_cell_angle_alpha 90.000000
_cell_angle_beta 90.000000
_cell_angle_gamma 90.000000
_cell_volume 5538.412565
_symmetry_space_group_name_H-M "I B A M"
_symmetry_group_IT_number 72
_symmetry_cell_setting 'orthorhombic'
loop_
_space_group_symop_operation_xyz
x,y,z
-x,-y,z
x,-y,1/2-z
-x,y,1/2-z
-x,-y,-z
x,y,-z
-x,y,1/2+z
x,-y,1/2+z
1/2+x,1/2+y,1/2+z
1/2-x,1/2-y,1/2+z
1/2+x,1/2-y,-z
1/2-x,1/2+y,-z
1/2-x,1/2-y,1/2-z
1/2+x,1/2+y,1/2-z
1/2-x,1/2+y,z
1/2+x,1/2-y,z
loop_
_atom_site_type_symbol
_atom_site_label
_atom_site_fract_x
_atom_site_fract_y
_atom_site_fract_z
Si Si1 0.622999 0.286486 0.090573
Si Si2 0.717278 0.584350 0.593904
Si Si3 0.709593 0.190984 0.199372
Si Si4 0.886482 0.392074 0.174609
Si Si5 0.000000 0.500000 0.750000
Si Si6 0.848605 0.160648 0.907043
Si Si7 0.912908 0.982019 0.408394
Si Si8 0.532421 0.240759 0.659922
O O1 0.668060 0.351247 0.126665
O O2 0.645862 0.222076 0.139022
O O3 0.524893 0.283195 0.099433
O O4 0.649928 0.279740 0.000000
O O5 0.716742 0.583038 0.500000
O O6 0.812295 0.583981 0.618432
O O7 0.665111 0.521698 0.628626
O O8 0.750000 0.250000 0.250000
O O9 0.656291 0.139846 0.249197
O O10 0.766623 0.146608 0.142423
O O11 0.941880 0.455277 0.194732
O O12 0.947886 0.336197 0.137397
O O13 0.904401 0.096243 0.899401
O O14 0.882396 0.222306 0.855820
O O15 0.832342 0.178730 0.000000
O O16 0.917274 0.004348 0.500000
O O17 0.000000 0.000000 0.367145
O O18 0.500000 0.247935 0.750000
#
# Coordination Sequence:
#
# PCOD8294979 Si02
#       8
#    16  16  16  16   4  16  16  16
#     4  11  21  36  63  96 126 165 214 264 321 391
#     4  10  22  40  67  98 130 174 221 267 328 400
#     4  12  21  41  62  93 127 163 209 273 334 374
#     4  12  25  45  67  91 130 176 223 278 332 395
#     4  12  28  48  66  92 126 180 238 266 336 412
#     4  11  23  38  65  96 126 166 212 263 321 389
#     4   9  19  39  62  93 134 169 205 258 323 388
#     4  12  22  41  63  93 134 169 210 268 337 381
#
# _framework density 20.94463
#
# number of rings (size 3 to 8) (size 9 to 14) (size 15 to 20)
#    0.000    0.966    4.828    1.655    1.931    4.414 
#    0.000    0.345    0.000    0.000    0.000    0.000 
#    0.000    0.000    0.000    0.000    0.000    0.000 
#
# Total GULP energy -718671.792745 kJ/mol
# GULP energy per Si atom -12390.892978 kJ/mol
# Density = 2.089696 g / cm^3
# Si number density = 20.944630 Si / 1000 Ang^3
#
#
#
# Elastic Constant Matrix: (Units=GPa)
#
#
# Indices 1 2 3 4 5 6 
#
# 1 112.1762 51.0228 25.1060 0.0000 0.0000 0.0000
# 2 51.0228 114.1292 30.2969 0.0000 0.0000 0.0000
# 3 25.1060 30.2969 51.6239 0.0000 0.0000 0.0001
# 4 0.0000 0.0000 0.0000 25.9965 0.0000 0.0001
# 5 0.0000 0.0000 0.0000 0.0000 26.6603 0.0001
# 6 0.0000 0.0000 0.0001 0.0001 0.0001 37.6135
#
#
#
# Elastic Compliance Matrix: (Units=1/GPa)
#
#
# Indices 1 2 3 4 5 6 
#
# 1 0.011588 -0.004364 -0.003074 0.000000 0.000000 0.000000
# 2 -0.004364 0.012023 -0.004933 0.000000 0.000000 0.000000
# 3 -0.003074 -0.004933 0.023761 0.000000 0.000000 0.000000
# 4 0.000000 0.000000 0.000000 0.038467 0.000000 0.000000
# 5 0.000000 0.000000 0.000000 0.000000 0.037509 0.000000
# 6 0.000000 0.000000 0.000000 0.000000 0.000000 0.026586
#
#
# Mechanical properties :
#
#
# Convention : Reuss Voigt Hill
#
# Bulk Modulus (GPa) = 44.19300 54.53119 49.36209
# Shear Modulus (GPa) = 27.43942 29.48764 28.46353
#
# Velocity S-wave (km/s) = 3.62345 3.75625 3.69045
# Velocity P-wave (km/s) = 6.21704 6.70112 6.46361
#
# Compressibility (1/GPa) = 0.02262802
#
# Stress axis : x y z
#
# Youngs Moduli (GPa) = 86.29874 83.17555 42.08550
#
# Poissons Ratio (x) = 0.36301 0.12937
# Poissons Ratio (y) = 0.37664 0.20762
# Poissons Ratio (z) = 0.26528 0.41034
#
# Static dielectric constant tensor:
#      x y z
#    x 4.318070 0.000000 0.000000 
#    y 0.000000 3.822430 0.000000 
#    z 0.000000 0.000000 3.436480 
# 
# 
# High freq. dielectric constant tensor:
#      x y z
#    x 1.841810 0.000000 0.000000 
#    y 0.000000 1.816480 0.000000 
#    z 0.000000 0.000000 1.799200 
# 
# From -- ./inp_files/31737.got.cif
#   From: 2010.03.12/outbox.cif.g09.slc.cpg/sg72_16_cif.got.tgz:31737.got - 2010.04.16 14:54:00.
