data_PCOD8294690
_publ_section_title
;
Structure prediction by ZEFSAII (Michael W. Deem and Ramdas Pophale) SiO2 
 PCOD8294690
Probable space group: I B A M
;
_chemical_formula_sum "Si O2"
_cell_formula_units_Z 80
_cell_length_a 11.553740
_cell_length_b 13.137307
_cell_length_c 25.514026
_cell_angle_alpha 90.000000
_cell_angle_beta 90.000000
_cell_angle_gamma 90.000000
_cell_volume 3872.647186
_symmetry_space_group_name_H-M "I B A M"
_symmetry_group_IT_number 72
_symmetry_cell_setting 'orthorhombic'
loop_
_space_group_symop_operation_xyz
x,y,z
-x,-y,z
x,-y,1/2-z
-x,y,1/2-z
-x,-y,-z
x,y,-z
-x,y,1/2+z
x,-y,1/2+z
1/2+x,1/2+y,1/2+z
1/2-x,1/2-y,1/2+z
1/2+x,1/2-y,-z
1/2-x,1/2+y,-z
1/2-x,1/2-y,1/2-z
1/2+x,1/2+y,1/2-z
1/2-x,1/2+y,z
1/2+x,1/2-y,z
loop_
_atom_site_type_symbol
_atom_site_label
_atom_site_fract_x
_atom_site_fract_y
_atom_site_fract_z
Si Si1 0.949497 0.397105 0.130183
Si Si2 0.261491 0.434820 0.440595
Si Si3 0.593554 0.575557 0.136803
Si Si4 0.285125 0.249174 0.809837
Si Si5 0.902917 0.222960 0.393098
O O1 0.865725 0.425109 0.082597
O O2 0.889730 0.329255 0.176073
O O3 0.000000 0.500000 0.156304
O O4 0.058642 0.340141 0.102289
O O5 0.255014 0.473930 0.500000
O O6 0.334387 0.513538 0.405954
O O7 0.323080 0.322633 0.439465
O O8 0.500000 0.500000 0.165194
O O9 0.678786 0.633856 0.176812
O O10 0.522903 0.661937 0.106704
O O11 0.250000 0.250000 0.750000
O O12 0.171599 0.210820 0.839986
#
# Coordination Sequence:
#
# PCOD8294690 Si02
#       5
#    16  16  16  16  16
#     4  10  21  39  58  85 123 155 193 244 292 349
#     4  10  21  38  61  87 115 153 199 245 296 351
#     4   9  19  37  58  85 119 151 193 245 291 345
#     4  10  21  40  62  86 119 157 197 241 293 351
#     4   9  20  38  57  82 117 152 192 244 292 346
#
# _framework density 20.657705
#
# number of rings (size 3 to 8) (size 9 to 14) (size 15 to 20)
#    0.000    2.400    0.000    1.200    0.000    8.000 
#    0.000   38.000    0.000    0.000    0.000    0.000 
#    0.000    0.000    0.000    0.000    0.000    0.000 
#
# Total GULP energy -495593.238988 kJ/mol
# GULP energy per Si atom -12389.830975 kJ/mol
# Density = 2.061069 g / cm^3
# Si number density = 20.657705 Si / 1000 Ang^3
#
#
#
# Elastic Constant Matrix: (Units=GPa)
#
#
# Indices 1 2 3 4 5 6 
#
# 1 87.8437 42.7397 41.0565 0.0000 0.0000 0.0000
# 2 42.7397 130.8167 45.4134 0.0000 0.0000 0.0000
# 3 41.0565 45.4134 127.8810 0.0000 0.0000 0.0000
# 4 0.0000 0.0000 0.0000 23.0067 0.0000 0.0000
# 5 0.0000 0.0000 0.0000 0.0000 12.6148 0.0000
# 6 0.0000 0.0000 0.0000 0.0000 0.0000 50.6335
#
#
#
# Elastic Compliance Matrix: (Units=1/GPa)
#
#
# Indices 1 2 3 4 5 6 
#
# 1 0.014760 -0.003624 -0.003452 0.000000 0.000000 0.000000
# 2 -0.003624 0.009609 -0.002249 0.000000 0.000000 0.000000
# 3 -0.003452 -0.002249 0.009727 0.000000 0.000000 0.000000
# 4 0.000000 0.000000 0.000000 0.043466 0.000000 0.000000
# 5 0.000000 0.000000 0.000000 0.000000 0.079272 0.000000
# 6 0.000000 0.000000 0.000000 0.000000 0.000000 0.019750
#
#
# Mechanical properties :
#
#
# Convention : Reuss Voigt Hill
#
# Bulk Modulus (GPa) = 64.73988 67.21784 65.97886
# Shear Modulus (GPa) = 24.95235 31.73979 28.34607
#
# Velocity S-wave (km/s) = 3.47925 3.92403 3.70831
# Velocity P-wave (km/s) = 6.89548 7.28973 7.09534
#
# Compressibility (1/GPa) = 0.01544643
#
# Stress axis : x y z
#
# Youngs Moduli (GPa) = 67.74839 104.06881 102.81062
#
# Poissons Ratio (x) = 0.37716 0.35489
# Poissons Ratio (y) = 0.24553 0.23120
# Poissons Ratio (z) = 0.23386 0.23403
#
# Static dielectric constant tensor:
#      x y z
#    x 4.069910 0.000000 0.000000 
#    y 0.000000 4.249290 0.000000 
#    z 0.000000 0.000000 3.181860 
# 
# 
# High freq. dielectric constant tensor:
#      x y z
#    x 1.831680 0.000000 0.000000 
#    y 0.000000 1.824130 0.000000 
#    z 0.000000 0.000000 1.753810 
# 
# From -- ./inp_files/43107.got.cif
#   From: 2010.03.12/outbox.cif.g09.slc.cpg/sg72_22_cif.got.tgz:43107.got - 2010.04.16 14:54:00.
