data_PCOD8294770
_publ_section_title
;
Structure prediction by ZEFSAII (Michael W. Deem and Ramdas Pophale) SiO2 
 PCOD8294770
Probable space group: I B A M
;
_chemical_formula_sum "Si O2"
_cell_formula_units_Z 112
_cell_length_a 13.734529
_cell_length_b 15.753799
_cell_length_c 25.354461
_cell_angle_alpha 90.000000
_cell_angle_beta 90.000000
_cell_angle_gamma 90.000000
_cell_volume 5485.970315
_symmetry_space_group_name_H-M "I B A M"
_symmetry_group_IT_number 72
_symmetry_cell_setting 'orthorhombic'
loop_
_space_group_symop_operation_xyz
x,y,z
-x,-y,z
x,-y,1/2-z
-x,y,1/2-z
-x,-y,-z
x,y,-z
-x,y,1/2+z
x,-y,1/2+z
1/2+x,1/2+y,1/2+z
1/2-x,1/2-y,1/2+z
1/2+x,1/2-y,-z
1/2-x,1/2+y,-z
1/2-x,1/2-y,1/2-z
1/2+x,1/2+y,1/2-z
1/2-x,1/2+y,z
1/2+x,1/2-y,z
loop_
_atom_site_type_symbol
_atom_site_label
_atom_site_fract_x
_atom_site_fract_y
_atom_site_fract_z
Si Si1 0.932136 0.371694 0.560006
Si Si2 0.391646 0.993570 0.153703
Si Si3 0.117322 0.673682 0.881969
Si Si4 0.800070 0.048293 0.802456
Si Si5 0.044881 0.184163 0.694110
Si Si6 0.919730 0.063138 0.622158
Si Si7 0.310447 0.704069 0.939151
O O1 0.919878 0.402379 0.500000
O O2 0.896306 0.447709 0.597017
O O3 0.870614 0.288172 0.571847
O O4 0.044529 0.350021 0.570717
O O5 0.349403 0.088288 0.147641
O O6 0.500000 0.000000 0.178873
O O7 0.317497 0.942541 0.191940
O O8 0.059890 0.733049 0.841184
O O9 0.212471 0.717393 0.905735
O O10 0.849367 0.140543 0.799481
O O11 0.830548 0.000000 0.750000
O O12 0.836273 0.995232 0.852804
O O13 0.000000 0.212453 0.750000
O O14 0.969992 0.118945 0.667619
O O15 0.873102 0.122142 0.577553
O O16 0.000000 0.000000 0.596092
O O17 0.283428 0.692524 0.000000
#
# Coordination Sequence:
#
# PCOD8294770 Si02
#       7
#    16  16  16  16  16  16  16
#     4  10  22  41  63  86 118 164 213 260 315 380
#     4  10  23  41  58  86 120 166 212 256 312 376
#     4  11  22  40  63  91 126 160 207 262 317 379
#     4  11  21  40  65  91 125 166 214 259 318 379
#     4  11  22  40  67  97 125 165 214 266 323 380
#     4  10  21  39  65  94 125 159 212 267 317 383
#     4  11  22  40  64  93 127 166 208 264 331 382
#
# _framework density 20.415714000000001
#
# number of rings (size 3 to 8) (size 9 to 14) (size 15 to 20)
#    0.000    1.429    4.286    1.286    0.000    3.714 
#    5.143    1.429    0.000    0.000    0.000    0.000 
#    0.000    0.000    0.000    0.000    0.000    0.000 
#
# Total GULP energy -694488.727648 kJ/mol
# GULP energy per Si atom -12401.584422 kJ/mol
# Density = 2.036925 g / cm^3
# Si number density = 20.415714 Si / 1000 Ang^3
#
#
#
# Elastic Constant Matrix: (Units=GPa)
#
#
# Indices 1 2 3 4 5 6 
#
# 1 98.9793 20.8607 22.8432 0.0000 0.0000 0.0000
# 2 20.8607 81.9763 25.1577 0.0000 0.0000 0.0000
# 3 22.8432 25.1577 59.3259 0.0000 0.0000 0.0000
# 4 0.0000 0.0000 0.0000 28.4795 0.0000 0.0000
# 5 0.0000 0.0000 0.0000 0.0000 28.1646 0.0000
# 6 0.0000 0.0000 0.0000 0.0000 0.0000 30.7598
#
#
#
# Elastic Compliance Matrix: (Units=1/GPa)
#
#
# Indices 1 2 3 4 5 6 
#
# 1 0.011308 -0.001772 -0.003603 0.000000 0.000000 0.000000
# 2 -0.001772 0.014301 -0.005382 0.000000 0.000000 0.000000
# 3 -0.003603 -0.005382 0.020526 0.000000 0.000000 0.000000
# 4 0.000000 0.000000 0.000000 0.035113 0.000000 0.000000
# 5 0.000000 0.000000 0.000000 0.000000 0.035506 0.000000
# 6 0.000000 0.000000 0.000000 0.000000 0.000000 0.032510
#
#
# Mechanical properties :
#
#
# Convention : Reuss Voigt Hill
#
# Bulk Modulus (GPa) = 40.61560 42.00053 41.30806
# Shear Modulus (GPa) = 27.93536 28.90877 28.42206
#
# Velocity S-wave (km/s) = 3.70310 3.76707 3.73522
# Velocity P-wave (km/s) = 6.18235 6.28795 6.23537
#
# Compressibility (1/GPa) = 0.02462108
#
# Stress axis : x y z
#
# Youngs Moduli (GPa) = 88.43270 69.92348 48.71942
#
# Poissons Ratio (x) = 0.12390 0.17552
# Poissons Ratio (y) = 0.15670 0.26222
# Poissons Ratio (z) = 0.31860 0.37635
#
# Static dielectric constant tensor:
#      x y z
#    x 3.868460 0.000000 0.000000 
#    y 0.000000 3.700150 0.000000 
#    z 0.000000 0.000000 3.452150 
# 
# 
# High freq. dielectric constant tensor:
#      x y z
#    x 1.811170 0.000000 0.000000 
#    y 0.000000 1.801240 0.000000 
#    z 0.000000 0.000000 1.781320 
# 
# From -- ./inp_files/44322.got.cif
#   From: 2010.03.12/outbox.cif.g09.slc.cpg/sg72_23_cif.got.tgz:44322.got - 2010.04.16 14:54:00.
