data_PCOD8294446
_publ_section_title
;
Structure prediction by ZEFSAII (Michael W. Deem and Ramdas Pophale) SiO2 
 PCOD8294446
Probable space group: I B A M
;
_chemical_formula_sum "Si O2"
_cell_formula_units_Z 112
_cell_length_a 11.049355
_cell_length_b 27.589473
_cell_length_c 17.595839
_cell_angle_alpha 90.000000
_cell_angle_beta 90.000000
_cell_angle_gamma 90.000000
_cell_volume 5364.019050
_symmetry_space_group_name_H-M "I B A M"
_symmetry_group_IT_number 72
_symmetry_cell_setting 'orthorhombic'
loop_
_space_group_symop_operation_xyz
x,y,z
-x,-y,z
x,-y,1/2-z
-x,y,1/2-z
-x,-y,-z
x,y,-z
-x,y,1/2+z
x,-y,1/2+z
1/2+x,1/2+y,1/2+z
1/2-x,1/2-y,1/2+z
1/2+x,1/2-y,-z
1/2-x,1/2+y,-z
1/2-x,1/2-y,1/2-z
1/2+x,1/2+y,1/2-z
1/2-x,1/2+y,z
1/2+x,1/2-y,z
loop_
_atom_site_type_symbol
_atom_site_label
_atom_site_fract_x
_atom_site_fract_y
_atom_site_fract_z
Si Si1 0.923984 0.190383 0.325901
Si Si2 0.634171 0.514227 0.588821
Si Si3 0.734724 0.068641 0.832236
Si Si4 0.259399 0.399929 0.332346
Si Si5 0.865993 0.284567 0.587362
Si Si6 0.002811 0.628851 0.660688
Si Si7 0.363271 0.650605 0.585571
O O1 0.820299 0.150960 0.309145
O O2 0.863195 0.239350 0.355749
O O3 0.000000 0.200516 0.250000
O O4 0.007333 0.171868 0.393948
O O5 0.500000 0.500000 0.617648
O O6 0.646541 0.504537 0.500000
O O7 0.737630 0.483585 0.632110
O O8 0.659154 0.570700 0.607287
O O9 0.744395 0.066254 0.741581
O O10 0.601591 0.087067 0.857226
O O11 0.837357 0.105169 0.861220
O O12 0.127387 0.389640 0.367807
O O13 0.892416 0.269542 0.500000
O O14 0.967216 0.322897 0.613590
O O15 0.733963 0.307160 0.596294
O O16 0.000000 0.641526 0.750000
O O17 0.365273 0.630954 0.500000
#
# Coordination Sequence:
#
# PCOD8294446 Si02
#       7
#    16  16  16  16  16  16  16
#     4  12  24  38  61  90 125 162 211 260 313 371
#     4  11  25  41  63  93 127 165 205 254 314 373
#     4  10  20  42  66  89 121 163 203 254 307 375
#     4  11  24  40  63  95 125 159 208 262 310 365
#     4  10  23  40  61  88 122 170 211 256 315 372
#     4   9  21  42  65  91 125 162 208 257 309 368
#     4  10  21  39  61  87 119 161 208 253 310 370
#
# _framework density 20.879866
#
# number of rings (size 3 to 8) (size 9 to 14) (size 15 to 20)
#    0.000    1.571    1.429    2.571    2.000    5.143 
#    0.000    2.857    0.000    0.000    0.000    0.000 
#    0.000    0.000    0.000    0.000    0.000    0.000 
#
# Total GULP energy -694682.630821 kJ/mol
# GULP energy per Si atom -12405.046979 kJ/mol
# Density = 2.083234 g / cm^3
# Si number density = 20.879866 Si / 1000 Ang^3
#
#
#
# Elastic Constant Matrix: (Units=GPa)
#
#
# Indices 1 2 3 4 5 6 
#
# 1 87.1335 24.4254 22.3687 0.0001 0.0000 0.0000
# 2 24.4254 92.1111 35.5655 0.0000 -0.0001 0.0000
# 3 22.3687 35.5655 62.0056 0.0002 -0.0004 -0.0001
# 4 0.0001 0.0000 0.0002 33.5001 -0.0001 0.0000
# 5 0.0000 -0.0001 -0.0004 -0.0001 28.1397 0.0001
# 6 0.0000 0.0000 -0.0001 0.0000 0.0001 26.1232
#
#
#
# Elastic Compliance Matrix: (Units=1/GPa)
#
#
# Indices 1 2 3 4 5 6 
#
# 1 0.012955 -0.002095 -0.003472 0.000000 0.000000 0.000000
# 2 -0.002095 0.014284 -0.007437 0.000000 0.000000 0.000000
# 3 -0.003472 -0.007437 0.021646 0.000000 0.000000 0.000000
# 4 0.000000 0.000000 0.000000 0.029851 0.000000 0.000000
# 5 0.000000 0.000000 0.000000 0.000000 0.035537 0.000000
# 6 0.000000 0.000000 0.000000 0.000000 0.000000 0.038280
#
#
# Mechanical properties :
#
#
# Convention : Reuss Voigt Hill
#
# Bulk Modulus (GPa) = 43.71256 45.10771 44.41013
# Shear Modulus (GPa) = 26.85485 28.14529 27.50007
#
# Velocity S-wave (km/s) = 3.59020 3.67544 3.63307
# Velocity P-wave (km/s) = 6.17792 6.29779 6.23815
#
# Compressibility (1/GPa) = 0.02287672
#
# Stress axis : x y z
#
# Youngs Moduli (GPa) = 77.18914 70.01076 46.19794
#
# Poissons Ratio (x) = 0.14665 0.16040
# Poissons Ratio (y) = 0.16169 0.34358
# Poissons Ratio (z) = 0.26801 0.52068
#
# Static dielectric constant tensor:
#      x y z
#    x 3.817540 0.000000 0.000000 
#    y 0.000000 3.727990 0.000000 
#    z 0.000000 0.000000 3.711920 
# 
# 
# High freq. dielectric constant tensor:
#      x y z
#    x 1.819610 0.000000 0.000000 
#    y 0.000000 1.815660 0.000000 
#    z 0.000000 0.000000 1.818190 
# 
# From -- ./inp_files/20669.got.cif
#   From: 2010.03.12/outbox.cif.g09.slc.cpg/sg72_11_cif.got.tgz:20669.got - 2010.04.16 14:54:00.
