data_PCOD8294226
_publ_section_title
;
Structure prediction by ZEFSAII (Michael W. Deem and Ramdas Pophale) SiO2 
 PCOD8294226
Probable space group: I B A M
;
_chemical_formula_sum "Si O2"
_cell_formula_units_Z 60
_cell_length_a 9.469948
_cell_length_b 22.177082
_cell_length_c 12.636451
_cell_angle_alpha 90.000000
_cell_angle_beta 90.000000
_cell_angle_gamma 90.000000
_cell_volume 2653.854534
_symmetry_space_group_name_H-M "I B A M"
_symmetry_group_IT_number 72
_symmetry_cell_setting 'orthorhombic'
loop_
_space_group_symop_operation_xyz
x,y,z
-x,-y,z
x,-y,1/2-z
-x,y,1/2-z
-x,-y,-z
x,y,-z
-x,y,1/2+z
x,-y,1/2+z
1/2+x,1/2+y,1/2+z
1/2-x,1/2-y,1/2+z
1/2+x,1/2-y,-z
1/2-x,1/2+y,-z
1/2-x,1/2-y,1/2-z
1/2+x,1/2+y,1/2-z
1/2-x,1/2+y,z
1/2+x,1/2-y,z
loop_
_atom_site_type_symbol
_atom_site_label
_atom_site_fract_x
_atom_site_fract_y
_atom_site_fract_z
Si Si1 0.731966 0.207407 0.620970
Si Si2 0.500000 0.080786 0.750000
Si Si3 0.000000 0.000000 0.750000
Si Si4 0.088591 0.313505 0.119213
Si Si5 0.763553 0.929469 0.873450
O O1 0.782859 0.213114 0.500000
O O2 0.808460 0.265078 0.677578
O O3 0.565552 0.215060 0.631086
O O4 0.777235 0.140862 0.659045
O O5 0.401576 0.122332 0.675667
O O6 0.384294 0.043884 0.821162
O O7 0.901516 0.038929 0.672835
O O8 0.133147 0.326830 0.000000
O O9 0.753833 0.938804 0.000000
#
# Coordination Sequence:
#
# PCOD8294226 Si02
#       5
#    16   8   4  16  16
#     4   8  16  31  52  79 120 158 189 234 285 337
#     4  10  20  36  62  88 120 160 196 236 300 358
#     4  12  26  44  68  86 108 156 206 252 324 362
#     4   9  17  30  50  84 122 158 192 225 272 348
#     4  10  23  44  63  89 122 153 199 256 298 352
#
# _framework density 22.608623999999999
#
# number of rings (size 3 to 8) (size 9 to 14) (size 15 to 20)
#    0.000    2.667    0.000    2.800    0.000    8.000 
#    0.000    9.333    0.000    0.000    0.000    0.000 
#    0.000    0.000    0.000    0.000    0.000    0.000 
#
# Total GULP energy -371709.587459 kJ/mol
# GULP energy per Si atom -12390.319582 kJ/mol
# Density = 2.255717 g / cm^3
# Si number density = 22.608624 Si / 1000 Ang^3
#
#
#
# Elastic Constant Matrix: (Units=GPa)
#
#
# Indices 1 2 3 4 5 6 
#
# 1 118.6587 43.5396 60.6682 0.0000 0.0000 0.0000
# 2 43.5396 59.7710 27.4967 0.0000 0.0000 0.0000
# 3 60.6682 27.4967 113.1152 0.0005 -0.0002 -0.0002
# 4 0.0000 0.0000 0.0005 12.7853 0.0000 -0.0001
# 5 0.0000 0.0000 -0.0002 0.0000 41.5591 0.0000
# 6 0.0000 0.0000 -0.0002 -0.0001 0.0000 22.6093
#
#
#
# Elastic Compliance Matrix: (Units=1/GPa)
#
#
# Indices 1 2 3 4 5 6 
#
# 1 0.014184 -0.007693 -0.005737 0.000000 0.000000 0.000000
# 2 -0.007693 0.023009 -0.001467 0.000000 0.000000 0.000000
# 3 -0.005737 -0.001467 0.012274 0.000000 0.000000 0.000000
# 4 0.000000 0.000000 0.000000 0.078215 0.000000 0.000000
# 5 0.000000 0.000000 0.000000 0.000000 0.024062 0.000000
# 6 0.000000 0.000000 0.000000 0.000000 0.000000 0.044230
#
#
# Mechanical properties :
#
#
# Convention : Reuss Voigt Hill
#
# Bulk Modulus (GPa) = 50.83192 61.66157 56.24674
# Shear Modulus (GPa) = 21.52152 26.04676 23.78414
#
# Velocity S-wave (km/s) = 3.08866 3.39790 3.24696
# Velocity P-wave (km/s) = 5.93734 6.53659 6.24416
#
# Compressibility (1/GPa) = 0.01967268
#
# Stress axis : x y z
#
# Youngs Moduli (GPa) = 70.50445 43.46108 81.47066
#
# Poissons Ratio (x) = 0.33432 0.46742
# Poissons Ratio (y) = 0.54236 0.11955
# Poissons Ratio (z) = 0.40450 0.06377
#
# Static dielectric constant tensor:
#      x y z
#    x 4.190680 0.000000 0.000000 
#    y 0.000000 3.993850 0.000000 
#    z 0.000000 0.000000 4.700380 
# 
# 
# High freq. dielectric constant tensor:
#      x y z
#    x 1.884160 0.000000 0.000000 
#    y 0.000000 1.875650 0.000000 
#    z 0.000000 0.000000 1.926740 
# 
# From -- ./inp_files/18578.got.cif
#   From: 2010.03.12/outbox.cif.g09.slc.cpg/sg72_10_cif.got.tgz:18578.got - 2010.04.16 14:54:00.
