data_PCOD8294552
_publ_section_title
;
Structure prediction by ZEFSAII (Michael W. Deem and Ramdas Pophale) SiO2 
 PCOD8294552
Probable space group: I B A M
;
_chemical_formula_sum "Si O2"
_cell_formula_units_Z 96
_cell_length_a 25.891661
_cell_length_b 8.645728
_cell_length_c 21.317204
_cell_angle_alpha 90.000000
_cell_angle_beta 90.000000
_cell_angle_gamma 90.000000
_cell_volume 4771.904260
_symmetry_space_group_name_H-M "I B A M"
_symmetry_group_IT_number 72
_symmetry_cell_setting 'orthorhombic'
loop_
_space_group_symop_operation_xyz
x,y,z
-x,-y,z
x,-y,1/2-z
-x,y,1/2-z
-x,-y,-z
x,y,-z
-x,y,1/2+z
x,-y,1/2+z
1/2+x,1/2+y,1/2+z
1/2-x,1/2-y,1/2+z
1/2+x,1/2-y,-z
1/2-x,1/2+y,-z
1/2-x,1/2-y,1/2-z
1/2+x,1/2+y,1/2-z
1/2-x,1/2+y,z
1/2+x,1/2-y,z
loop_
_atom_site_type_symbol
_atom_site_label
_atom_site_fract_x
_atom_site_fract_y
_atom_site_fract_z
Si Si1 0.617480 0.678307 0.760490
Si Si2 0.397255 0.873429 0.070631
Si Si3 0.951369 0.398572 0.838926
Si Si4 0.185789 0.763608 0.356304
Si Si5 0.993761 0.170450 0.428713
Si Si6 0.714757 0.424539 0.682023
O O1 0.597133 0.500000 0.750000
O O2 0.573180 0.800245 0.781302
O O3 0.640957 0.744428 0.696283
O O4 0.663121 0.680539 0.812923
O O5 0.339171 0.809909 0.081441
O O6 0.434995 0.726389 0.076861
O O7 0.409660 0.997835 0.124475
O O8 0.401021 0.943430 0.000000
O O9 0.969081 0.280649 0.891226
O O10 0.000000 0.500000 0.813833
O O11 0.236138 0.670683 0.337095
O O12 0.203913 0.939677 0.368282
O O13 0.013457 0.172031 0.500000
O O14 0.000000 0.000000 0.399656
O O15 0.724448 0.500000 0.750000
#
# Coordination Sequence:
#
# PCOD8294552 Si02
#       6
#    16  16  16  16  16  16
#     4   9  20  37  62  91 119 156 198 247 302 360
#     4  10  22  38  58  86 119 155 201 250 294 351
#     4  10  21  38  63  88 122 158 198 243 303 357
#     4  10  21  36  61  85 115 154 192 250 292 356
#     4   9  19  36  61  84 112 160 208 240 281 350
#     4   9  19  35  58  88 111 151 199 240 289 352
#
# _framework density 20.117754999999999
#
# number of rings (size 3 to 8) (size 9 to 14) (size 15 to 20)
#    0.000    2.833    0.000    2.500    9.333    2.000 
#    0.000    6.667    0.000    0.000    0.000    0.000 
#    0.000    0.000    0.000    0.000    0.000    0.000 
#
# Total GULP energy -594889.692793 kJ/mol
# GULP energy per Si atom -12393.535267 kJ/mol
# Density = 2.007197 g / cm^3
# Si number density = 20.117755 Si / 1000 Ang^3
#
#
#
# Elastic Constant Matrix: (Units=GPa)
#
#
# Indices 1 2 3 4 5 6 
#
# 1 86.7448 49.5059 27.5297 0.0000 0.0000 0.0000
# 2 49.5059 111.1056 31.8320 0.0000 0.0000 0.0000
# 3 27.5297 31.8320 43.1422 0.0000 0.0000 0.0000
# 4 0.0000 0.0000 0.0000 27.7311 0.0000 0.0000
# 5 0.0000 0.0000 0.0000 0.0000 30.9582 0.0000
# 6 0.0000 0.0000 0.0000 0.0000 0.0000 30.5030
#
#
#
# Elastic Compliance Matrix: (Units=1/GPa)
#
#
# Indices 1 2 3 4 5 6 
#
# 1 0.016821 -0.005604 -0.006598 0.000000 0.000000 0.000000
# 2 -0.005604 0.013280 -0.006223 0.000000 0.000000 0.000000
# 3 -0.006598 -0.006223 0.031981 0.000000 0.000000 0.000000
# 4 0.000000 0.000000 0.000000 0.036061 0.000000 0.000000
# 5 0.000000 0.000000 0.000000 0.000000 0.032302 0.000000
# 6 0.000000 0.000000 0.000000 0.000000 0.000000 0.032784
#
#
# Mechanical properties :
#
#
# Convention : Reuss Voigt Hill
#
# Bulk Modulus (GPa) = 39.63329 50.96976 45.30153
# Shear Modulus (GPa) = 23.98211 26.64680 25.31446
#
# Velocity S-wave (km/s) = 3.45641 3.64337 3.55112
# Velocity P-wave (km/s) = 5.97264 6.56427 6.27543
#
# Compressibility (1/GPa) = 0.02523132
#
# Stress axis : x y z
#
# Youngs Moduli (GPa) = 59.45082 75.29900 31.26871
#
# Poissons Ratio (x) = 0.42201 0.20632
# Poissons Ratio (y) = 0.33319 0.19457
# Poissons Ratio (z) = 0.39228 0.46855
#
# Static dielectric constant tensor:
#      x y z
#    x 3.618830 0.000000 0.000000 
#    y 0.000000 4.058710 0.000000 
#    z 0.000000 0.000000 3.454670 
# 
# 
# High freq. dielectric constant tensor:
#      x y z
#    x 1.780090 0.000000 0.000000 
#    y 0.000000 1.794960 0.000000 
#    z 0.000000 0.000000 1.756910 
# 
# From -- ./inp_files/42545.got.cif
#   From: 2010.03.12/outbox.cif.g09.slc.cpg/sg72_22_cif.got.tgz:42545.got - 2010.04.16 14:54:00.
