data_PCOD8294281
_publ_section_title
;
Structure prediction by ZEFSAII (Michael W. Deem and Ramdas Pophale) SiO2 
 PCOD8294281
Probable space group: I B A M
;
_chemical_formula_sum "Si O2"
_cell_formula_units_Z 96
_cell_length_a 23.725716
_cell_length_b 8.325588
_cell_length_c 23.623128
_cell_angle_alpha 90.000000
_cell_angle_beta 90.000000
_cell_angle_gamma 90.000000
_cell_volume 4666.289146
_symmetry_space_group_name_H-M "I B A M"
_symmetry_group_IT_number 72
_symmetry_cell_setting 'orthorhombic'
loop_
_space_group_symop_operation_xyz
x,y,z
-x,-y,z
x,-y,1/2-z
-x,y,1/2-z
-x,-y,-z
x,y,-z
-x,y,1/2+z
x,-y,1/2+z
1/2+x,1/2+y,1/2+z
1/2-x,1/2-y,1/2+z
1/2+x,1/2-y,-z
1/2-x,1/2+y,-z
1/2-x,1/2-y,1/2-z
1/2+x,1/2+y,1/2-z
1/2-x,1/2+y,z
1/2+x,1/2-y,z
loop_
_atom_site_type_symbol
_atom_site_label
_atom_site_fract_x
_atom_site_fract_y
_atom_site_fract_z
Si Si1 0.006309 0.324517 0.621669
Si Si2 0.478206 0.739526 0.000000
Si Si3 0.819692 0.283488 0.299818
Si Si4 0.928410 0.094308 0.307211
Si Si5 0.622971 0.329174 0.385047
Si Si6 0.211747 0.370575 0.674478
Si Si7 0.905661 0.951558 0.500000
O O1 0.977468 0.337637 0.559200
O O2 0.981724 0.175493 0.659938
O O3 0.000000 0.500000 0.651050
O O4 0.072548 0.298843 0.615474
O O5 0.420000 0.639969 0.000000
O O6 0.533790 0.632484 0.000000
O O7 0.885550 0.241383 0.298055
O O8 0.808051 0.447187 0.334241
O O9 0.804689 0.302496 0.234958
O O10 0.779993 0.147203 0.329350
O O11 0.947678 0.000000 0.250000
O O12 0.892529 0.971528 0.343379
O O13 0.681199 0.240857 0.371380
O O14 0.631725 0.404940 0.446546
#
# Coordination Sequence:
#
# PCOD8294281 Si02
#       7
#    16   8  16  16  16  16   8
#     4  11  23  38  59  87 124 160 203 256 310 370
#     4   9  17  36  60  87 111 154 208 252 295 359
#     4  10  21  36  59  86 115 150 195 249 293 361
#     4  12  23  38  57  86 122 162 205 247 311 374
#     4  11  21  38  60  85 117 160 201 248 305 365
#     4  10  20  37  60  86 115 148 199 248 299 354
#     4   9  18  34  60  85 115 154 204 256 291 358
#
# _framework density 20.573093
#
# number of rings (size 3 to 8) (size 9 to 14) (size 15 to 20)
#    0.000    1.500    3.333    2.750    2.333    1.333 
#    0.000    0.833    0.000    5.000    0.000    0.000 
#    0.000    0.000    0.000    0.000    0.000    0.000 
#
# Total GULP energy -594901.171874 kJ/mol
# GULP energy per Si atom -12393.774414 kJ/mol
# Density = 2.052627 g / cm^3
# Si number density = 20.573093 Si / 1000 Ang^3
#
#
#
# Elastic Constant Matrix: (Units=GPa)
#
#
# Indices 1 2 3 4 5 6 
#
# 1 69.7702 5.3234 8.0800 0.0000 0.0000 0.0000
# 2 5.3234 85.9978 24.9099 0.0000 0.0000 0.0000
# 3 8.0800 24.9099 102.4618 0.0000 0.0000 0.0000
# 4 0.0000 0.0000 0.0000 24.4962 0.0000 0.0000
# 5 0.0000 0.0000 0.0000 0.0000 25.2498 0.0000
# 6 0.0000 0.0000 0.0000 0.0000 0.0000 29.9637
#
#
#
# Elastic Compliance Matrix: (Units=1/GPa)
#
#
# Indices 1 2 3 4 5 6 
#
# 1 0.014494 -0.000609 -0.000995 0.000000 0.000000 0.000000
# 2 -0.000609 0.012535 -0.002999 0.000000 0.000000 0.000000
# 3 -0.000995 -0.002999 0.010567 0.000000 0.000000 0.000000
# 4 0.000000 0.000000 0.000000 0.040823 0.000000 0.000000
# 5 0.000000 0.000000 0.000000 0.000000 0.039604 0.000000
# 6 0.000000 0.000000 0.000000 0.000000 0.000000 0.033374
#
#
# Mechanical properties :
#
#
# Convention : Reuss Voigt Hill
#
# Bulk Modulus (GPa) = 35.22380 37.20625 36.21502
# Shear Modulus (GPa) = 29.40018 30.60306 30.00162
#
# Velocity S-wave (km/s) = 3.78439 3.86103 3.82290
# Velocity P-wave (km/s) = 6.02113 6.16449 6.09323
#
# Compressibility (1/GPa) = 0.02838990
#
# Stress axis : x y z
#
# Youngs Moduli (GPa) = 68.99189 79.77869 94.63089
#
# Poissons Ratio (x) = 0.04859 0.09415
# Poissons Ratio (y) = 0.04202 0.28383
# Poissons Ratio (z) = 0.06864 0.23928
#
# Static dielectric constant tensor:
#      x y z
#    x 3.796120 0.000000 0.000000 
#    y 0.000000 3.750100 0.000000 
#    z 0.000000 0.000000 9.270710 
# 
# 
# High freq. dielectric constant tensor:
#      x y z
#    x 1.792080 0.000000 0.000000 
#    y 0.000000 1.810490 0.000000 
#    z 0.000000 0.000000 1.785010 
# 
# From -- ./inp_files/45688.got.cif
#   From: 2010.03.12/outbox.cif.g09.slc.cpg/sg72_23_cif.got.tgz:45688.got - 2010.04.16 14:54:00.
