data_PCOD8294344
_publ_section_title
;
Structure prediction by ZEFSAII (Michael W. Deem and Ramdas Pophale) SiO2 
 PCOD8294344
Probable space group: I B A M
;
_chemical_formula_sum "Si O2"
_cell_formula_units_Z 112
_cell_length_a 31.084682
_cell_length_b 11.535832
_cell_length_c 15.526984
_cell_angle_alpha 90.000000
_cell_angle_beta 90.000000
_cell_angle_gamma 90.000000
_cell_volume 5567.785004
_symmetry_space_group_name_H-M "I B A M"
_symmetry_group_IT_number 72
_symmetry_cell_setting 'orthorhombic'
loop_
_space_group_symop_operation_xyz
x,y,z
-x,-y,z
x,-y,1/2-z
-x,y,1/2-z
-x,-y,-z
x,y,-z
-x,y,1/2+z
x,-y,1/2+z
1/2+x,1/2+y,1/2+z
1/2-x,1/2-y,1/2+z
1/2+x,1/2-y,-z
1/2-x,1/2+y,-z
1/2-x,1/2-y,1/2-z
1/2+x,1/2+y,1/2-z
1/2-x,1/2+y,z
1/2+x,1/2-y,z
loop_
_atom_site_type_symbol
_atom_site_label
_atom_site_fract_x
_atom_site_fract_y
_atom_site_fract_z
Si Si1 0.227891 0.601829 0.182443
Si Si2 0.662549 0.050401 0.903460
Si Si3 0.070897 0.508194 0.652959
Si Si4 0.039481 0.250752 0.902747
Si Si5 0.941204 0.253996 0.096907
Si Si6 0.811424 0.772891 0.811274
Si Si7 0.097983 0.865652 0.740498
O O1 0.234023 0.500000 0.250000
O O2 0.198449 0.550206 0.106333
O O3 0.204156 0.712811 0.223077
O O4 0.275023 0.640861 0.150386
O O5 0.622156 0.030393 0.841081
O O6 0.681191 0.177220 0.884397
O O7 0.645169 0.047404 0.000000
O O8 0.053353 0.500000 0.750000
O O9 0.045907 0.611642 0.606235
O O10 0.061719 0.392272 0.600781
O O11 0.067777 0.183634 0.833854
O O12 0.990176 0.216515 0.885127
O O13 0.052690 0.214389 0.000000
O O14 0.910433 0.196497 0.168031
O O15 0.927240 0.215628 0.000000
O O16 0.853276 0.847073 0.788962
O O17 0.087991 0.000000 0.750000
#
# Coordination Sequence:
#
# PCOD8294344 Si02
#       7
#    16  16  16  16  16  16  16
#     4   9  19  36  60  85 113 150 196 253 312 372
#     4  11  21  34  57  89 124 159 198 253 319 381
#     4  12  21  37  65  95 125 161 206 258 329 391
#     4  11  24  41  63  92 126 164 210 265 326 386
#     4  11  24  41  62  92 127 163 209 270 328 381
#     4  10  20  38  60  84 116 157 206 252 308 373
#     4  12  25  41  64  89 122 172 222 261 311 380
#
# _framework density 20.115718000000001
#
# number of rings (size 3 to 8) (size 9 to 14) (size 15 to 20)
#    0.000    1.143    2.857    4.714    0.000    4.000 
#    0.000    1.429    0.000   10.286    0.000    0.000 
#    0.000    0.000    0.000    0.000    0.000    0.000 
#
# Total GULP energy -694522.793198 kJ/mol
# GULP energy per Si atom -12402.192736 kJ/mol
# Density = 2.006993 g / cm^3
# Si number density = 20.115718 Si / 1000 Ang^3
#
#
#
# Elastic Constant Matrix: (Units=GPa)
#
#
# Indices 1 2 3 4 5 6 
#
# 1 67.7118 -1.3689 12.6837 0.0000 0.0000 0.0000
# 2 -1.3689 72.7909 7.6594 0.0000 0.0000 0.0000
# 3 12.6837 7.6594 92.0190 0.0000 0.0000 0.0000
# 4 0.0000 0.0000 0.0000 9.2738 0.0000 0.0000
# 5 0.0000 0.0000 0.0000 0.0000 18.5011 0.0000
# 6 0.0000 0.0000 0.0000 0.0000 0.0000 30.9073
#
#
#
# Elastic Compliance Matrix: (Units=1/GPa)
#
#
# Indices 1 2 3 4 5 6 
#
# 1 0.015179 0.000510 -0.002135 0.000000 0.000000 0.000000
# 2 0.000510 0.013877 -0.001225 0.000000 0.000000 0.000000
# 3 -0.002135 -0.001225 0.011264 0.000000 0.000000 0.000000
# 4 0.000000 0.000000 0.000000 0.107831 0.000000 0.000000
# 5 0.000000 0.000000 0.000000 0.000000 0.054051 0.000000
# 6 0.000000 0.000000 0.000000 0.000000 0.000000 0.032355
#
#
# Mechanical properties :
#
#
# Convention : Reuss Voigt Hill
#
# Bulk Modulus (GPa) = 28.88601 30.05224 29.46913
# Shear Modulus (GPa) = 19.85745 25.97294 22.91520
#
# Velocity S-wave (km/s) = 3.14532 3.59719 3.37882
# Velocity P-wave (km/s) = 5.25184 5.67672 5.46841
#
# Compressibility (1/GPa) = 0.03461884
#
# Stress axis : x y z
#
# Youngs Moduli (GPa) = 65.88198 72.06420 88.78193
#
# Poissons Ratio (x) = -0.03676 0.18952
# Poissons Ratio (y) = -0.03360 0.10879
# Poissons Ratio (z) = 0.14064 0.08830
#
# Static dielectric constant tensor:
#      x y z
#    x 3.792670 0.000000 0.000000 
#    y 0.000000 3.648670 0.000000 
#    z 0.000000 0.000000 3.506470 
# 
# 
# High freq. dielectric constant tensor:
#      x y z
#    x 1.795430 0.000000 0.000000 
#    y 0.000000 1.778370 0.000000 
#    z 0.000000 0.000000 1.778110 
# 
# From -- ./inp_files/26347.got.cif
#   From: 2010.03.12/outbox.cif.g09.slc.cpg/sg72_14_cif.got.tgz:26347.got - 2010.04.16 14:54:00.
