data_PCOD8294605
_publ_section_title
;
Structure prediction by ZEFSAII (Michael W. Deem and Ramdas Pophale) SiO2 
 PCOD8294605
Probable space group: I B A M
;
_chemical_formula_sum "Si O2"
_cell_formula_units_Z 80
_cell_length_a 16.793899
_cell_length_b 9.209867
_cell_length_c 23.989233
_cell_angle_alpha 90.000000
_cell_angle_beta 90.000000
_cell_angle_gamma 90.000000
_cell_volume 3710.404502
_symmetry_space_group_name_H-M "I B A M"
_symmetry_group_IT_number 72
_symmetry_cell_setting 'orthorhombic'
loop_
_space_group_symop_operation_xyz
x,y,z
-x,-y,z
x,-y,1/2-z
-x,y,1/2-z
-x,-y,-z
x,y,-z
-x,y,1/2+z
x,-y,1/2+z
1/2+x,1/2+y,1/2+z
1/2-x,1/2-y,1/2+z
1/2+x,1/2-y,-z
1/2-x,1/2+y,-z
1/2-x,1/2-y,1/2-z
1/2+x,1/2+y,1/2-z
1/2-x,1/2+y,z
1/2+x,1/2-y,z
loop_
_atom_site_type_symbol
_atom_site_label
_atom_site_fract_x
_atom_site_fract_y
_atom_site_fract_z
Si Si1 0.177899 0.984629 0.831492
Si Si2 0.162706 0.349475 0.698074
Si Si3 0.573310 0.732851 0.708480
Si Si4 0.916457 0.927421 0.563243
Si Si5 0.028007 0.353215 0.385571
O O1 0.262099 0.055757 0.818131
O O2 0.112906 0.075117 0.797413
O O3 0.179961 0.820392 0.811559
O O4 0.154297 0.986357 0.897285
O O5 0.134973 0.352446 0.763718
O O6 0.091004 0.405341 0.660381
O O7 0.500000 0.711911 0.750000
O O8 0.546595 0.782113 0.647036
O O9 0.890612 0.960512 0.500000
O O10 0.931070 0.755108 0.570773
O O11 0.000000 0.000000 0.579027
O O12 0.000000 0.500000 0.417326
#
# Coordination Sequence:
#
# PCOD8294605 Si02
#       5
#    16  16  16  16  16
#     4  11  22  40  58  88 127 161 206 266 307 380
#     4  10  24  36  60  88 126 168 209 243 317 382
#     4  10  21  37  59  87 126 173 210 249 310 379
#     4  10  21  40  68  91 113 158 211 263 323 373
#     4  10  22  40  63  89 127 158 209 264 310 374
#
# _framework density 21.560991999999999
#
# number of rings (size 3 to 8) (size 9 to 14) (size 15 to 20)
#    0.000    1.800    2.000    1.200    2.800    8.000 
#    0.000    4.000    0.000    0.000    0.000    0.000 
#    0.000    0.000    0.000    0.000    0.000    0.000 
#
# Total GULP energy -495780.210232 kJ/mol
# GULP energy per Si atom -12394.505256 kJ/mol
# Density = 2.151192 g / cm^3
# Si number density = 21.560992 Si / 1000 Ang^3
#
#
#
# Elastic Constant Matrix: (Units=GPa)
#
#
# Indices 1 2 3 4 5 6 
#
# 1 104.9137 24.3951 31.8312 0.0000 0.0000 0.0000
# 2 24.3951 50.4128 -7.0361 0.0000 0.0000 0.0000
# 3 31.8312 -7.0361 80.5236 0.0000 0.0000 0.0000
# 4 0.0000 0.0000 0.0000 21.1617 0.0000 0.0000
# 5 0.0000 0.0000 0.0000 0.0000 18.2099 0.0000
# 6 0.0000 0.0000 0.0000 0.0000 0.0000 30.2908
#
#
#
# Elastic Compliance Matrix: (Units=1/GPa)
#
#
# Indices 1 2 3 4 5 6 
#
# 1 0.012903 -0.007042 -0.005716 0.000000 0.000000 0.000000
# 2 -0.007042 0.023924 0.004874 0.000000 0.000000 0.000000
# 3 -0.005716 0.004874 0.015104 0.000000 0.000000 0.000000
# 4 0.000000 0.000000 0.000000 0.047255 0.000000 0.000000
# 5 0.000000 0.000000 0.000000 0.000000 0.054915 0.000000
# 6 0.000000 0.000000 0.000000 0.000000 0.000000 0.033013
#
#
# Mechanical properties :
#
#
# Convention : Reuss Voigt Hill
#
# Bulk Modulus (GPa) = 27.65166 37.13672 32.39419
# Shear Modulus (GPa) = 23.26258 26.37647 24.81953
#
# Velocity S-wave (km/s) = 3.28826 3.50143 3.39651
# Velocity P-wave (km/s) = 5.22202 5.79725 5.51714
#
# Compressibility (1/GPa) = 0.03616419
#
# Stress axis : x y z
#
# Youngs Moduli (GPa) = 77.49949 41.79884 66.20686
#
# Poissons Ratio (x) = 0.29434 0.37844
# Poissons Ratio (y) = 0.54574 -0.32270
# Poissons Ratio (z) = 0.44299 -0.20373
#
# Static dielectric constant tensor:
#      x y z
#    x 4.088650 0.000000 0.000000 
#    y 0.000000 4.058780 0.000000 
#    z 0.000000 0.000000 3.690990 
# 
# 
# High freq. dielectric constant tensor:
#      x y z
#    x 1.843550 0.000000 0.000000 
#    y 0.000000 1.867540 0.000000 
#    z 0.000000 0.000000 1.817220 
# 
# From -- ./inp_files/47201.got.cif
#   From: 2010.03.12/outbox.cif.g09.slc.cpg/sg72_24_cif.got.tgz:47201.got - 2010.04.16 14:54:00.
