data_PCOD8294077
_publ_section_title
;
Structure prediction by ZEFSAII (Michael W. Deem and Ramdas Pophale) SiO2 
 PCOD8294077
Probable space group: I B A M
;
_chemical_formula_sum "Si O2"
_cell_formula_units_Z 116
_cell_length_a 25.459268
_cell_length_b 25.180726
_cell_length_c 8.873484
_cell_angle_alpha 90.000000
_cell_angle_beta 90.000000
_cell_angle_gamma 90.000000
_cell_volume 5688.638427
_symmetry_space_group_name_H-M "I B A M"
_symmetry_group_IT_number 72
_symmetry_cell_setting 'orthorhombic'
loop_
_space_group_symop_operation_xyz
x,y,z
-x,-y,z
x,-y,1/2-z
-x,y,1/2-z
-x,-y,-z
x,y,-z
-x,y,1/2+z
x,-y,1/2+z
1/2+x,1/2+y,1/2+z
1/2-x,1/2-y,1/2+z
1/2+x,1/2-y,-z
1/2-x,1/2+y,-z
1/2-x,1/2-y,1/2-z
1/2+x,1/2+y,1/2-z
1/2-x,1/2+y,z
1/2+x,1/2-y,z
loop_
_atom_site_type_symbol
_atom_site_label
_atom_site_fract_x
_atom_site_fract_y
_atom_site_fract_z
Si Si1 0.000000 0.000000 0.750000
Si Si2 0.840759 0.552562 0.178436
Si Si3 0.852440 0.739877 0.822696
Si Si4 0.397457 0.550786 0.167737
Si Si5 0.550567 0.069816 0.667361
Si Si6 0.656312 0.351150 0.678633
Si Si7 0.050674 0.694078 0.168120
Si Si8 0.725221 0.848860 0.321418
O O1 0.960887 0.039792 0.658284
O O2 0.814377 0.500000 0.250000
O O3 0.900727 0.555276 0.228360
O O4 0.809729 0.603334 0.244382
O O5 0.836763 0.549960 0.000000
O O6 0.862027 0.793496 0.730772
O O7 0.900386 0.702324 0.778446
O O8 0.799394 0.708206 0.772619
O O9 0.852405 0.751866 0.000000
O O10 0.370383 0.500000 0.250000
O O11 0.382594 0.604450 0.254890
O O12 0.374851 0.555365 0.000000
O O13 0.500000 0.044932 0.750000
O O14 0.557881 0.045022 0.500000
O O15 0.542568 0.132068 0.650327
O O16 0.653373 0.355571 0.500000
O O17 0.715865 0.356817 0.740353
O O18 0.000000 0.719952 0.250000
O O19 0.058185 0.719152 0.000000
O O20 0.724984 0.851555 0.500000
#
# Coordination Sequence:
#
# PCOD8294077 Si02
#       8
#     4  16  16  16  16  16  16  16
#     4   8  22  40  74  96 134 164 210 248 310 368
#     4  11  22  39  59  84 116 154 200 253 306 362
#     4  11  21  39  63  89 122 163 209 257 313 372
#     4  10  21  40  66  96 127 164 204 249 307 370
#     4  10  20  35  57  84 113 149 192 241 297 357
#     4  11  23  40  62  94 129 162 206 257 308 368
#     4  10  20  35  57  86 118 155 199 244 300 362
#     4   9  21  40  62  85 119 164 208 258 313 368
#
# _framework density 20.391522999999999
#
# number of rings (size 3 to 8) (size 9 to 14) (size 15 to 20)
#    0.414    1.379    1.379    3.103    0.000    1.931 
#    1.241    7.586    0.000    0.000    0.000    0.000 
#    0.000    0.000    0.000    0.000    0.000    0.000 
#
# Total GULP energy -718896.251342 kJ/mol
# GULP energy per Si atom -12394.762954 kJ/mol
# Density = 2.034511 g / cm^3
# Si number density = 20.391523 Si / 1000 Ang^3
#
#
#
# Elastic Constant Matrix: (Units=GPa)
#
#
# Indices 1 2 3 4 5 6 
#
# 1 93.3245 30.5021 26.0039 0.0000 0.0000 0.0000
# 2 30.5021 109.3366 40.8560 0.0000 0.0000 0.0000
# 3 26.0039 40.8560 107.3465 0.0000 0.0000 0.0000
# 4 0.0000 0.0000 0.0000 30.9078 0.0000 0.0000
# 5 0.0000 0.0000 0.0000 0.0000 21.5965 0.0000
# 6 0.0000 0.0000 0.0000 0.0000 0.0000 2.9014
#
#
#
# Elastic Compliance Matrix: (Units=1/GPa)
#
#
# Indices 1 2 3 4 5 6 
#
# 1 0.012121 -0.002663 -0.001923 0.000000 0.000000 0.000000
# 2 -0.002663 0.011248 -0.003636 0.000000 0.000000 0.000000
# 3 -0.001923 -0.003636 0.011165 0.000000 0.000000 0.000000
# 4 0.000000 0.000000 0.000000 0.032354 0.000000 0.000000
# 5 0.000000 0.000000 0.000000 0.000000 0.046304 0.000000
# 6 0.000000 0.000000 0.000000 0.000000 0.000000 0.344655
#
#
# Mechanical properties :
#
#
# Convention : Reuss Voigt Hill
#
# Bulk Modulus (GPa) = 55.27594 56.08130 55.67862
# Shear Modulus (GPa) = 10.40970 25.25753 17.83362
#
# Velocity S-wave (km/s) = 2.26186 3.52323 2.96050
# Velocity P-wave (km/s) = 5.82988 6.64175 6.24901
#
# Compressibility (1/GPa) = 0.01809105
#
# Stress axis : x y z
#
# Youngs Moduli (GPa) = 82.49833 88.90815 89.56440
#
# Poissons Ratio (x) = 0.23677 0.17221
# Poissons Ratio (y) = 0.21970 0.32563
# Poissons Ratio (z) = 0.15862 0.32324
#
# Static dielectric constant tensor:
#      x y z
#    x 3.693530 0.000000 0.000000 
#    y 0.000000 3.759210 0.000000 
#    z 0.000000 0.000000 3.689180 
# 
# 
# High freq. dielectric constant tensor:
#      x y z
#    x 1.788610 0.000000 0.000000 
#    y 0.000000 1.796020 0.000000 
#    z 0.000000 0.000000 1.795780 
# 
# From -- ./inp_files/8391.got.cif
#   From: 2010.03.12/outbox.cif.g09.slc.cpg/sg72_5_cif.got.tgz:8391.got - 2010.04.16 14:54:00.
