data_PCOD8294837
_publ_section_title
;
Structure prediction by ZEFSAII (Michael W. Deem and Ramdas Pophale) SiO2 
 PCOD8294837
Probable space group: I B A M
;
_chemical_formula_sum "Si O2"
_cell_formula_units_Z 96
_cell_length_a 15.542044
_cell_length_b 18.232634
_cell_length_c 17.129216
_cell_angle_alpha 90.000000
_cell_angle_beta 90.000000
_cell_angle_gamma 90.000000
_cell_volume 4853.947046
_symmetry_space_group_name_H-M "I B A M"
_symmetry_group_IT_number 72
_symmetry_cell_setting 'orthorhombic'
loop_
_space_group_symop_operation_xyz
x,y,z
-x,-y,z
x,-y,1/2-z
-x,y,1/2-z
-x,-y,-z
x,y,-z
-x,y,1/2+z
x,-y,1/2+z
1/2+x,1/2+y,1/2+z
1/2-x,1/2-y,1/2+z
1/2+x,1/2-y,-z
1/2-x,1/2+y,-z
1/2-x,1/2-y,1/2-z
1/2+x,1/2+y,1/2-z
1/2-x,1/2+y,z
1/2+x,1/2-y,z
loop_
_atom_site_type_symbol
_atom_site_label
_atom_site_fract_x
_atom_site_fract_y
_atom_site_fract_z
Si Si1 0.099936 0.079141 0.271317
Si Si2 0.695668 0.708160 0.685177
Si Si3 0.297456 0.902689 0.590742
Si Si4 0.788208 0.057236 0.089781
Si Si5 0.519736 0.084366 0.336636
Si Si6 0.368444 0.836955 0.910475
O O1 0.140909 0.144722 0.224149
O O2 0.127261 0.084904 0.362649
O O3 0.000000 0.080940 0.250000
O O4 0.139530 0.000000 0.250000
O O5 0.750000 0.750000 0.750000
O O6 0.752257 0.672337 0.616693
O O7 0.633036 0.765386 0.643365
O O8 0.322931 0.898634 0.500000
O O9 0.381172 0.905473 0.644118
O O10 0.236452 0.972688 0.606665
O O11 0.706751 0.106766 0.114441
O O12 0.812935 0.068517 0.000000
O O13 0.500000 0.114809 0.250000
O O14 0.460972 0.126113 0.399068
O O15 0.500000 0.000000 0.342911
O O16 0.358410 0.813814 0.000000
#
# Coordination Sequence:
#
# PCOD8294837 Si02
#       6
#    16  16  16  16  16  16
#     4  11  24  44  68  93 122 168 222 273 317 378
#     4  12  24  40  66  92 130 171 214 268 330 394
#     4  11  23  40  64  94 129 171 218 265 323 392
#     4  10  21  41  69  95 126 166 214 266 320 383
#     4  11  23  37  63  98 131 169 215 270 320 383
#     4  11  23  41  63  94 132 169 209 262 328 389
#
# _framework density 19.777719000000001
#
# number of rings (size 3 to 8) (size 9 to 14) (size 15 to 20)
#    0.000    1.000    5.000    2.000    0.000    2.667 
#    0.000    3.333    0.000    0.000    0.000    0.000 
#    0.000    0.000    0.000    0.000    0.000    0.000 
#
# Total GULP energy -595163.371545 kJ/mol
# GULP energy per Si atom -12399.236907 kJ/mol
# Density = 1.973270 g / cm^3
# Si number density = 19.777719 Si / 1000 Ang^3
#
#
#
# Elastic Constant Matrix: (Units=GPa)
#
#
# Indices 1 2 3 4 5 6 
#
# 1 91.3244 25.8611 46.9713 0.0000 0.0000 0.0000
# 2 25.8611 108.2875 46.7156 0.0000 0.0000 0.0000
# 3 46.9713 46.7156 113.1623 0.0000 0.0000 0.0000
# 4 0.0000 0.0000 0.0000 84.5735 0.0000 0.0000
# 5 0.0000 0.0000 0.0000 0.0000 38.0586 0.0000
# 6 0.0000 0.0000 0.0000 0.0000 0.0000 30.1449
#
#
#
# Elastic Compliance Matrix: (Units=1/GPa)
#
#
# Indices 1 2 3 4 5 6 
#
# 1 0.014014 -0.001019 -0.005396 0.000000 0.000000 0.000000
# 2 -0.001019 0.011310 -0.004246 0.000000 0.000000 0.000000
# 3 -0.005396 -0.004246 0.012830 0.000000 0.000000 0.000000
# 4 0.000000 0.000000 0.000000 0.011824 0.000000 0.000000
# 5 0.000000 0.000000 0.000000 0.000000 0.026275 0.000000
# 6 0.000000 0.000000 0.000000 0.000000 0.000000 0.033173
#
#
# Mechanical properties :
#
#
# Convention : Reuss Voigt Hill
#
# Bulk Modulus (GPa) = 59.41399 61.31891 60.36645
# Shear Modulus (GPa) = 36.66809 43.43714 40.05262
#
# Velocity S-wave (km/s) = 4.31049 4.69152 4.50504
# Velocity P-wave (km/s) = 7.40810 7.77293 7.59271
#
# Compressibility (1/GPa) = 0.01683105
#
# Stress axis : x y z
#
# Youngs Moduli (GPa) = 71.35723 88.41950 77.94478
#
# Poissons Ratio (x) = 0.09008 0.42062
# Poissons Ratio (y) = 0.07270 0.33095
# Poissons Ratio (z) = 0.38507 0.37543
#
# Static dielectric constant tensor:
#      x y z
#    x 3.255840 0.000000 0.000000 
#    y 0.000000 3.755430 0.000000 
#    z 0.000000 0.000000 3.777200 
# 
# 
# High freq. dielectric constant tensor:
#      x y z
#    x 1.759380 0.000000 0.000000 
#    y 0.000000 1.781100 0.000000 
#    z 0.000000 0.000000 1.783350 
# 
# From -- ./inp_files/21792.got.cif
#   From: 2010.03.12/outbox.cif.g09.slc.cpg/sg72_11_cif.got.tgz:21792.got - 2010.04.16 14:54:00.
