data_PCOD8294196
_publ_section_title
;
Structure prediction by ZEFSAII (Michael W. Deem and Ramdas Pophale) SiO2 
 PCOD8294196
Probable space group: I B A M
;
_chemical_formula_sum "Si O2"
_cell_formula_units_Z 112
_cell_length_a 14.361626
_cell_length_b 15.919065
_cell_length_c 23.961275
_cell_angle_alpha 90.000000
_cell_angle_beta 90.000000
_cell_angle_gamma 90.000000
_cell_volume 5478.114336
_symmetry_space_group_name_H-M "I B A M"
_symmetry_group_IT_number 72
_symmetry_cell_setting 'orthorhombic'
loop_
_space_group_symop_operation_xyz
x,y,z
-x,-y,z
x,-y,1/2-z
-x,y,1/2-z
-x,-y,-z
x,y,-z
-x,y,1/2+z
x,-y,1/2+z
1/2+x,1/2+y,1/2+z
1/2-x,1/2-y,1/2+z
1/2+x,1/2-y,-z
1/2-x,1/2+y,-z
1/2-x,1/2-y,1/2-z
1/2+x,1/2+y,1/2-z
1/2-x,1/2+y,z
1/2+x,1/2-y,z
loop_
_atom_site_type_symbol
_atom_site_label
_atom_site_fract_x
_atom_site_fract_y
_atom_site_fract_z
Si Si1 0.561257 0.258945 0.060733
Si Si2 0.288686 0.962823 0.365743
Si Si3 0.403343 0.290677 0.144638
Si Si4 0.102865 0.974905 0.185805
Si Si5 0.439438 0.925859 0.909387
Si Si6 0.729271 0.199657 0.564988
Si Si7 0.940720 0.621412 0.695775
O O1 0.497752 0.296636 0.109055
O O2 0.563047 0.157790 0.054003
O O3 0.662530 0.291223 0.075766
O O4 0.529906 0.293647 0.000000
O O5 0.301225 0.890641 0.412125
O O6 0.346799 0.935012 0.310126
O O7 0.181231 0.977986 0.350496
O O8 0.334392 0.045054 0.394197
O O9 0.383272 0.375548 0.178175
O O10 0.321877 0.271833 0.100388
O O11 0.411951 0.219374 0.192251
O O12 0.115157 0.000000 0.250000
O O13 0.000000 0.000000 0.164089
O O14 0.491338 0.902523 0.853258
O O15 0.500000 0.000000 0.939196
O O16 0.701172 0.207585 0.500000
O O17 0.000000 0.600497 0.750000
#
# Coordination Sequence:
#
# PCOD8294196 Si02
#       7
#    16  16  16  16  16  16  16
#     4  10  20  36  60  85 114 156 200 246 295 353
#     4  10  21  38  58  88 120 157 195 249 301 353
#     4  10  21  40  60  84 119 156 199 245 295 357
#     4  11  25  40  57  81 122 167 205 248 290 345
#     4   9  19  33  55  86 119 144 184 247 307 357
#     4  10  21  39  61  87 117 155 199 247 302 361
#     4   9  20  35  60  87 113 148 191 241 297 360
#
# _framework density 20.444990000000001
#
# number of rings (size 3 to 8) (size 9 to 14) (size 15 to 20)
#    0.000    2.143    0.000    3.000    4.000    2.857 
#    0.000    2.857    0.000    3.857    0.000    0.000 
#    0.000    0.000    0.000    0.000    0.000    0.000 
#
# Total GULP energy -694190.884036 kJ/mol
# GULP energy per Si atom -12396.265786 kJ/mol
# Density = 2.039846 g / cm^3
# Si number density = 20.444990 Si / 1000 Ang^3
#
#
#
# Elastic Constant Matrix: (Units=GPa)
#
#
# Indices 1 2 3 4 5 6 
#
# 1 99.0060 14.5423 35.9382 0.0000 0.0000 0.0000
# 2 14.5423 94.6439 26.6119 0.0000 0.0000 0.0000
# 3 35.9382 26.6119 68.9600 0.0000 0.0000 0.0000
# 4 0.0000 0.0000 0.0000 29.6359 0.0000 0.0000
# 5 0.0000 0.0000 0.0000 0.0000 -74.5101 0.0000
# 6 0.0000 0.0000 0.0000 0.0000 0.0000 18.7102
#
#
#
# Elastic Compliance Matrix: (Units=1/GPa)
#
#
# Indices 1 2 3 4 5 6 
#
# 1 0.012458 -0.000099 -0.006454 0.000000 0.000000 0.000000
# 2 -0.000099 0.011853 -0.004522 0.000000 0.000000 0.000000
# 3 -0.006454 -0.004522 0.019610 0.000000 0.000000 0.000000
# 4 0.000000 0.000000 0.000000 0.033743 0.000000 0.000000
# 5 0.000000 0.000000 0.000000 0.000000 -0.013421 0.000000
# 6 0.000000 0.000000 0.000000 0.000000 0.000000 0.053447
#
#
# Mechanical properties :
#
#
# Convention : Reuss Voigt Hill
#
# Bulk Modulus (GPa) = 45.93670 46.31052 46.12361
# Shear Modulus (GPa) = 33.99135 7.13503 20.56319
#
# Velocity S-wave (km/s) = 4.08189 1.87015 3.17485
# Velocity P-wave (km/s) = 6.68828 5.23103 6.00403
#
# Compressibility (1/GPa) = 0.02176909
#
# Stress axis : x y z
#
# Youngs Moduli (GPa) = 80.27158 84.36864 50.99514
#
# Poissons Ratio (x) = 0.00839 0.32912
# Poissons Ratio (y) = 0.00798 0.23061
# Poissons Ratio (z) = 0.51806 0.38153
#
# Static dielectric constant tensor:
#      x y z
#    x 3.985160 0.000000 0.000000 
#    y 0.000000 4.355640 0.000000 
#    z 0.000000 0.000000 1.772170 
# 
# 
# High freq. dielectric constant tensor:
#      x y z
#    x 1.810520 0.000000 0.000000 
#    y 0.000000 1.798820 0.000000 
#    z 0.000000 0.000000 1.784510 
# 
# From -- ./inp_files/44347.got.cif
#   From: 2010.03.12/outbox.cif.g09.slc.cpg/sg72_23_cif.got.tgz:44347.got - 2010.04.16 14:54:00.
