data_PCOD8294708
_publ_section_title
;
Structure prediction by ZEFSAII (Michael W. Deem and Ramdas Pophale) SiO2 
 PCOD8294708
Probable space group: I B A M
;
_chemical_formula_sum "Si O2"
_cell_formula_units_Z 116
_cell_length_a 30.488602
_cell_length_b 22.029177
_cell_length_c 8.733847
_cell_angle_alpha 90.000000
_cell_angle_beta 90.000000
_cell_angle_gamma 90.000000
_cell_volume 5865.990605
_symmetry_space_group_name_H-M "I B A M"
_symmetry_group_IT_number 72
_symmetry_cell_setting 'orthorhombic'
loop_
_space_group_symop_operation_xyz
x,y,z
-x,-y,z
x,-y,1/2-z
-x,y,1/2-z
-x,-y,-z
x,y,-z
-x,y,1/2+z
x,-y,1/2+z
1/2+x,1/2+y,1/2+z
1/2-x,1/2-y,1/2+z
1/2+x,1/2-y,-z
1/2-x,1/2+y,-z
1/2-x,1/2-y,1/2-z
1/2+x,1/2+y,1/2-z
1/2-x,1/2+y,z
1/2+x,1/2-y,z
loop_
_atom_site_type_symbol
_atom_site_label
_atom_site_fract_x
_atom_site_fract_y
_atom_site_fract_z
Si Si1 0.395733 0.834863 0.678204
Si Si2 0.288847 0.325905 0.822555
Si Si3 0.953906 0.564360 0.180523
Si Si4 0.545131 0.277100 0.321215
Si Si5 0.809457 0.299393 0.675940
Si Si6 0.660817 0.562354 0.680634
Si Si7 0.571985 0.591073 0.829476
Si Si8 0.000000 0.000000 0.250000
O O1 0.402339 0.849652 0.500000
O O2 0.417165 0.887117 0.779004
O O3 0.416610 0.769880 0.722904
O O4 0.344526 0.833848 0.719107
O O5 0.236777 0.333026 0.798530
O O6 0.306851 0.270445 0.724137
O O7 0.312445 0.385354 0.763371
O O8 0.300317 0.314261 0.000000
O O9 0.939694 0.500000 0.250000
O O10 0.000000 0.586484 0.250000
O O11 0.958868 0.557860 0.000000
O O12 0.500000 0.253365 0.250000
O O13 0.537551 0.280422 0.500000
O O14 0.557019 0.344168 0.259748
O O15 0.824343 0.302174 0.500000
O O16 0.679425 0.500000 0.750000
O O17 0.668424 0.564474 0.500000
O O18 0.609017 0.566253 0.715909
O O19 0.531421 0.544427 0.846831
O O20 0.591924 0.599773 0.000000
#
# Coordination Sequence:
#
# PCOD8294708 Si02
#       8
#    16  16  16  16  16  16  16   4
#     4  11  22  37  59  88 123 160 197 244 302 354
#     4  10  21  40  64  89 120 153 193 243 296 356
#     4  11  22  39  62  88 120 157 201 245 292 356
#     4  10  22  37  54  80 115 156 198 245 294 343
#     4  10  21  38  63  93 120 153 194 240 296 355
#     4  12  25  40  61  87 116 153 198 245 299 355
#     4  11  23  39  58  84 118 158 207 254 302 351
#     4  12  22  36  64  82 118 164 212 256 302 352
#
# _framework density 19.775006000000001
#
# number of rings (size 3 to 8) (size 9 to 14) (size 15 to 20)
#    0.000    1.241    1.379    5.586    0.000    6.069 
#    0.000    0.690    0.000    3.310    0.000    0.000 
#    0.000    0.000    0.000    0.000    0.000    0.000 
#
# Total GULP energy -719433.794747 kJ/mol
# GULP energy per Si atom -12404.030944 kJ/mol
# Density = 1.973000 g / cm^3
# Si number density = 19.775006 Si / 1000 Ang^3
#
#
#
# Elastic Constant Matrix: (Units=GPa)
#
#
# Indices 1 2 3 4 5 6 
#
# 1 97.6151 47.0762 27.4878 0.0000 0.0000 0.0000
# 2 47.0762 95.3703 22.7678 0.0000 0.0000 0.0000
# 3 27.4878 22.7678 80.5591 0.0000 0.0000 0.0000
# 4 0.0000 0.0000 0.0000 30.4175 0.0000 0.0000
# 5 0.0000 0.0000 0.0000 0.0000 33.1310 0.0000
# 6 0.0000 0.0000 0.0000 0.0000 0.0000 27.4024
#
#
#
# Elastic Compliance Matrix: (Units=1/GPa)
#
#
# Indices 1 2 3 4 5 6 
#
# 1 0.014112 -0.006237 -0.003052 0.000000 0.000000 0.000000
# 2 -0.006237 0.014001 -0.001829 0.000000 0.000000 0.000000
# 3 -0.003052 -0.001829 0.013972 0.000000 0.000000 0.000000
# 4 0.000000 0.000000 0.000000 0.032876 0.000000 0.000000
# 5 0.000000 0.000000 0.000000 0.000000 0.030183 0.000000
# 6 0.000000 0.000000 0.000000 0.000000 0.000000 0.036493
#
#
# Mechanical properties :
#
#
# Convention : Reuss Voigt Hill
#
# Bulk Modulus (GPa) = 50.38369 52.02311 51.20340
# Shear Modulus (GPa) = 29.32748 29.93770 29.63259
#
# Velocity S-wave (km/s) = 3.85523 3.89513 3.87523
# Velocity P-wave (km/s) = 6.73430 6.82598 6.78030
#
# Compressibility (1/GPa) = 0.01984769
#
# Stress axis : x y z
#
# Youngs Moduli (GPa) = 70.86290 71.42484 71.57379
#
# Poissons Ratio (x) = 0.44548 0.21847
# Poissons Ratio (y) = 0.44198 0.13089
# Poissons Ratio (z) = 0.21630 0.13062
#
# Static dielectric constant tensor:
#      x y z
#    x 3.581490 0.000000 0.000000 
#    y 0.000000 3.692600 0.000000 
#    z 0.000000 0.000000 3.599210 
# 
# 
# High freq. dielectric constant tensor:
#      x y z
#    x 1.768710 0.000000 0.000000 
#    y 0.000000 1.773870 0.000000 
#    z 0.000000 0.000000 1.778460 
# 
# From -- ./inp_files/9395.got.cif
#   From: 2010.03.12/outbox.cif.g09.slc.cpg/sg72_5_cif.got.tgz:9395.got - 2010.04.16 14:54:00.
