data_PCOD8294547
_publ_section_title
;
Structure prediction by ZEFSAII (Michael W. Deem and Ramdas Pophale) SiO2 
 PCOD8294547
Probable space group: I B A M
;
_chemical_formula_sum "Si O2"
_cell_formula_units_Z 64
_cell_length_a 18.048385
_cell_length_b 9.691961
_cell_length_c 18.495674
_cell_angle_alpha 90.000000
_cell_angle_beta 90.000000
_cell_angle_gamma 90.000000
_cell_volume 3235.341783
_symmetry_space_group_name_H-M "I B A M"
_symmetry_group_IT_number 72
_symmetry_cell_setting 'orthorhombic'
loop_
_space_group_symop_operation_xyz
x,y,z
-x,-y,z
x,-y,1/2-z
-x,y,1/2-z
-x,-y,-z
x,y,-z
-x,y,1/2+z
x,-y,1/2+z
1/2+x,1/2+y,1/2+z
1/2-x,1/2-y,1/2+z
1/2+x,1/2-y,-z
1/2-x,1/2+y,-z
1/2-x,1/2-y,1/2-z
1/2+x,1/2+y,1/2-z
1/2-x,1/2+y,z
1/2+x,1/2-y,z
loop_
_atom_site_type_symbol
_atom_site_label
_atom_site_fract_x
_atom_site_fract_y
_atom_site_fract_z
Si Si1 0.299900 0.718971 0.321009
Si Si2 0.953900 0.363325 0.579901
Si Si3 0.319143 0.982372 0.836049
Si Si4 0.967576 0.152126 0.822715
O O1 0.250000 0.750000 0.250000
O O2 0.253521 0.601141 0.362111
O O3 0.379547 0.649439 0.309161
O O4 0.311178 0.861009 0.366582
O O5 0.925703 0.318307 0.500000
O O6 0.886514 0.394073 0.633205
O O7 0.000000 0.500000 0.572375
O O8 0.007309 0.243942 0.609882
O O9 0.330440 0.000000 0.750000
O O10 0.000000 0.219497 0.750000
O O11 0.000000 0.000000 0.834696
#
# Coordination Sequence:
#
# PCOD8294547 Si02
#       4
#    16  16  16  16
#     4  10  21  36  59  93 126 157 200 261 313 373
#     4  11  24  43  63  89 124 168 211 258 319 389
#     4  10  21  37  64  88 124 157 209 254 316 365
#     4  11  24  38  66  97 129 162 213 265 324 371
#
# _framework density 19.781528000000002
#
# number of rings (size 3 to 8) (size 9 to 14) (size 15 to 20)
#    0.000    1.500    2.500    3.000   14.000    0.500 
#    0.000    2.500    0.000    0.000    0.000    0.000 
#    0.000    0.000    0.000    0.000    0.000    0.000 
#
# Total GULP energy -396499.558889 kJ/mol
# GULP energy per Si atom -12390.611215 kJ/mol
# Density = 1.973650 g / cm^3
# Si number density = 19.781528 Si / 1000 Ang^3
#
#
#
# Elastic Constant Matrix: (Units=GPa)
#
#
# Indices 1 2 3 4 5 6 
#
# 1 173.5216 52.8482 36.7569 0.0000 0.0000 0.0000
# 2 52.8482 115.4065 31.3155 0.0000 0.0000 0.0000
# 3 36.7569 31.3155 82.3455 0.0000 0.0000 0.0000
# 4 0.0000 0.0000 0.0000 58.0514 0.0000 0.0000
# 5 0.0000 0.0000 0.0000 0.0000 10.4858 0.0000
# 6 0.0000 0.0000 0.0000 0.0000 0.0000 37.9125
#
#
#
# Elastic Compliance Matrix: (Units=1/GPa)
#
#
# Indices 1 2 3 4 5 6 
#
# 1 0.007017 -0.002635 -0.002130 0.000000 0.000000 0.000000
# 2 -0.002635 0.010652 -0.002874 0.000000 0.000000 0.000000
# 3 -0.002130 -0.002874 0.014188 0.000000 0.000000 0.000000
# 4 0.000000 0.000000 0.000000 0.017226 0.000000 0.000000
# 5 0.000000 0.000000 0.000000 0.000000 0.095367 0.000000
# 6 0.000000 0.000000 0.000000 0.000000 0.000000 0.026377
#
#
# Mechanical properties :
#
#
# Convention : Reuss Voigt Hill
#
# Bulk Modulus (GPa) = 60.32439 68.12386 64.22413
# Shear Modulus (GPa) = 26.09186 37.98017 32.03601
#
# Velocity S-wave (km/s) = 3.63575 4.38651 4.02866
# Velocity P-wave (km/s) = 6.94164 7.75682 7.36052
#
# Compressibility (1/GPa) = 0.01657704
#
# Stress axis : x y z
#
# Youngs Moduli (GPa) = 142.51620 93.88117 70.48279
#
# Poissons Ratio (x) = 0.24740 0.15012
# Poissons Ratio (y) = 0.37556 0.20260
# Poissons Ratio (z) = 0.30355 0.26986
#
# Static dielectric constant tensor:
#      x y z
#    x 3.145450 0.000000 0.000000 
#    y 0.000000 4.524280 0.000000 
#    z 0.000000 0.000000 3.590990 
# 
# 
# High freq. dielectric constant tensor:
#      x y z
#    x 1.787190 0.000000 0.000000 
#    y 0.000000 1.791990 0.000000 
#    z 0.000000 0.000000 1.722570 
# 
# From -- ./inp_files/28951.got.cif
#   From: 2010.03.12/outbox.cif.g09.slc.cpg/sg72_15_cif.got.tgz:28951.got - 2010.04.16 14:54:00.
