data_PCOD8294532
_publ_section_title
;
Structure prediction by ZEFSAII (Michael W. Deem and Ramdas Pophale) SiO2 
 PCOD8294532
Probable space group: I B A M
;
_chemical_formula_sum "Si O2"
_cell_formula_units_Z 80
_cell_length_a 9.350149
_cell_length_b 28.589923
_cell_length_c 15.425052
_cell_angle_alpha 90.000000
_cell_angle_beta 90.000000
_cell_angle_gamma 90.000000
_cell_volume 4123.425517
_symmetry_space_group_name_H-M "I B A M"
_symmetry_group_IT_number 72
_symmetry_cell_setting 'orthorhombic'
loop_
_space_group_symop_operation_xyz
x,y,z
-x,-y,z
x,-y,1/2-z
-x,y,1/2-z
-x,-y,-z
x,y,-z
-x,y,1/2+z
x,-y,1/2+z
1/2+x,1/2+y,1/2+z
1/2-x,1/2-y,1/2+z
1/2+x,1/2-y,-z
1/2-x,1/2+y,-z
1/2-x,1/2-y,1/2-z
1/2+x,1/2+y,1/2-z
1/2-x,1/2+y,z
1/2+x,1/2-y,z
loop_
_atom_site_type_symbol
_atom_site_label
_atom_site_fract_x
_atom_site_fract_y
_atom_site_fract_z
Si Si1 0.369502 0.790477 0.402955
Si Si2 0.414880 0.888941 0.336185
Si Si3 0.580409 0.951140 0.000000
Si Si4 0.420619 0.607862 0.835675
Si Si5 0.082725 0.952177 0.500000
Si Si6 0.561737 0.285377 0.157917
O O1 0.319412 0.804397 0.500000
O O2 0.448096 0.835191 0.360713
O O3 0.478893 0.747287 0.410264
O O4 0.230633 0.775719 0.347755
O O5 0.500000 0.903410 0.250000
O O6 0.464886 0.922328 0.414505
O O7 0.247432 0.894551 0.317691
O O8 0.500000 0.000000 0.000000
O O9 0.748738 0.960884 0.000000
O O10 0.500000 0.589452 0.750000
O O11 0.466752 0.575882 0.915387
O O12 0.470964 0.660260 0.859586
O O13 0.000000 0.000000 0.500000
O O14 0.500000 0.269235 0.250000
#
# Coordination Sequence:
#
# PCOD8294532 Si02
#       6
#    16  16   8  16   8  16
#     4  11  21  35  57  85 117 156 193 235 283 337
#     4  10  21  39  62  83 117 155 191 233 288 341
#     4  10  22  42  61  86 116 148 191 238 291 346
#     4   9  21  39  60  84 115 152 190 233 284 340
#     4  10  22  40  63  84 112 152 183 238 293 342
#     4  10  21  36  56  82 116 156 193 234 282 336
#
# _framework density 19.401343000000001
#
# number of rings (size 3 to 8) (size 9 to 14) (size 15 to 20)
#    0.000    2.000    1.000    1.800    5.600    5.600 
#    0.000    4.000    0.000    0.000    0.000    0.000 
#    0.000    0.000    0.000    0.000    0.000    0.000 
#
# Total GULP energy -496104.957265 kJ/mol
# GULP energy per Si atom -12402.623932 kJ/mol
# Density = 1.935719 g / cm^3
# Si number density = 19.401343 Si / 1000 Ang^3
#
#
#
# Elastic Constant Matrix: (Units=GPa)
#
#
# Indices 1 2 3 4 5 6 
#
# 1 60.2343 62.7479 53.5716 0.0002 0.0000 0.0000
# 2 62.7479 127.8196 74.1826 0.0006 0.0000 0.0000
# 3 53.5716 74.1826 153.5482 0.0016 -0.0001 -0.0001
# 4 0.0002 0.0006 0.0016 25.9617 -0.0001 -0.0001
# 5 0.0000 0.0000 -0.0001 -0.0001 32.5022 0.0001
# 6 0.0000 0.0000 -0.0001 -0.0001 0.0001 37.5406
#
#
#
# Elastic Compliance Matrix: (Units=1/GPa)
#
#
# Indices 1 2 3 4 5 6 
#
# 1 0.037359 -0.014974 -0.005800 0.000000 0.000000 0.000000
# 2 -0.014974 0.016873 -0.002928 0.000000 0.000000 0.000000
# 3 -0.005800 -0.002928 0.009951 -0.000001 0.000000 0.000000
# 4 0.000000 0.000000 -0.000001 0.038518 0.000000 0.000000
# 5 0.000000 0.000000 0.000000 0.000000 0.030767 0.000000
# 6 0.000000 0.000000 0.000000 0.000000 0.000000 0.026638
#
#
# Mechanical properties :
#
#
# Convention : Reuss Voigt Hill
#
# Bulk Modulus (GPa) = 59.59477 80.28959 69.94218
# Shear Modulus (GPa) = 23.46289 29.27424 26.36857
#
# Velocity S-wave (km/s) = 3.48133 3.88864 3.69061
# Velocity P-wave (km/s) = 6.85150 7.85082 7.36812
#
# Compressibility (1/GPa) = 0.01678000
#
# Stress axis : x y z
#
# Youngs Moduli (GPa) = 26.76741 59.26483 100.49571
#
# Poissons Ratio (x) = 0.88741 0.58288
# Poissons Ratio (y) = 0.40081 0.29423
# Poissons Ratio (z) = 0.15525 0.17351
#
# Static dielectric constant tensor:
#      x y z
#    x 3.357970 0.000000 0.000000 
#    y 0.000000 3.475770 0.000000 
#    z 0.000000 0.000000 3.639640 
# 
# 
# High freq. dielectric constant tensor:
#      x y z
#    x 1.744100 0.000000 0.000000 
#    y 0.000000 1.753500 0.000000 
#    z 0.000000 0.000000 1.767000 
# 
# From -- ./inp_files/28215.got.cif
#   From: 2010.03.12/outbox.cif.g09.slc.cpg/sg72_15_cif.got.tgz:28215.got - 2010.04.16 14:54:00.
