data_PCOD8294342
_publ_section_title
;
Structure prediction by ZEFSAII (Michael W. Deem and Ramdas Pophale) SiO2 
 PCOD8294342
Probable space group: I B A M
;
_chemical_formula_sum "Si O2"
_cell_formula_units_Z 96
_cell_length_a 9.832152
_cell_length_b 27.748651
_cell_length_c 17.997039
_cell_angle_alpha 90.000000
_cell_angle_beta 90.000000
_cell_angle_gamma 90.000000
_cell_volume 4910.113333
_symmetry_space_group_name_H-M "I B A M"
_symmetry_group_IT_number 72
_symmetry_cell_setting 'orthorhombic'
loop_
_space_group_symop_operation_xyz
x,y,z
-x,-y,z
x,-y,1/2-z
-x,y,1/2-z
-x,-y,-z
x,y,-z
-x,y,1/2+z
x,-y,1/2+z
1/2+x,1/2+y,1/2+z
1/2-x,1/2-y,1/2+z
1/2+x,1/2-y,-z
1/2-x,1/2+y,-z
1/2-x,1/2-y,1/2-z
1/2+x,1/2+y,1/2-z
1/2-x,1/2+y,z
1/2+x,1/2-y,z
loop_
_atom_site_type_symbol
_atom_site_label
_atom_site_fract_x
_atom_site_fract_y
_atom_site_fract_z
Si Si1 0.511370 0.884285 0.665811
Si Si2 0.763533 0.451130 0.159255
Si Si3 0.602384 0.706990 0.411664
Si Si4 0.091297 0.291039 0.588105
Si Si5 0.776499 0.060258 0.171736
Si Si6 0.028551 0.899019 0.413939
O O1 0.500000 0.865158 0.750000
O O2 0.415326 0.930512 0.654051
O O3 0.472235 0.841774 0.610713
O O4 0.663968 0.900867 0.647276
O O5 0.700405 0.439720 0.239963
O O6 0.771000 0.507872 0.144007
O O7 0.671449 0.426043 0.096836
O O8 0.608050 0.708756 0.500000
O O9 0.755409 0.714572 0.380132
O O10 0.503023 0.748231 0.379532
O O11 0.543675 0.655746 0.385227
O O12 0.093234 0.288731 0.500000
O O13 0.916899 0.073728 0.133782
O O14 0.987343 0.900704 0.500000
#
# Coordination Sequence:
#
# PCOD8294342 Si02
#       6
#    16  16  16  16  16  16
#     4  10  21  38  59  85 115 146 189 238 283 326
#     4  10  20  40  59  79 114 154 193 226 277 339
#     4   9  20  36  58  82 109 147 187 227 278 338
#     4  10  20  38  60  81 109 149 190 230 279 341
#     4  10  22  36  59  85 111 153 192 228 275 341
#     4  11  22  37  57  86 117 145 185 239 284 327
#
# _framework density 19.551483000000001
#
# number of rings (size 3 to 8) (size 9 to 14) (size 15 to 20)
#    0.000    2.000    1.667    1.500    2.333    5.333 
#    0.000    2.500    0.000    3.000    0.000    0.000 
#    0.000    0.000    0.000    0.000    0.000    0.000 
#
# Total GULP energy -595355.018299 kJ/mol
# GULP energy per Si atom -12403.229548 kJ/mol
# Density = 1.950698 g / cm^3
# Si number density = 19.551483 Si / 1000 Ang^3
#
#
#
# Elastic Constant Matrix: (Units=GPa)
#
#
# Indices 1 2 3 4 5 6 
#
# 1 76.4276 23.6474 17.4978 0.0000 0.0000 0.0000
# 2 23.6474 114.6783 17.4242 -0.0001 0.0000 0.0000
# 3 17.4978 17.4242 25.6285 -0.0003 0.0000 0.0001
# 4 0.0000 -0.0001 -0.0003 25.8883 0.0000 0.0000
# 5 0.0000 0.0000 0.0000 0.0000 21.2845 0.0000
# 6 0.0000 0.0000 0.0001 0.0000 0.0000 37.7225
#
#
#
# Elastic Compliance Matrix: (Units=1/GPa)
#
#
# Indices 1 2 3 4 5 6 
#
# 1 0.015838 -0.001810 -0.009583 0.000000 0.000000 0.000000
# 2 -0.001810 0.009931 -0.005516 0.000000 0.000000 0.000000
# 3 -0.009583 -0.005516 0.049312 0.000001 0.000000 0.000000
# 4 0.000000 0.000000 0.000001 0.038627 0.000000 0.000000
# 5 0.000000 0.000000 0.000000 0.000000 0.046982 0.000000
# 6 0.000000 0.000000 0.000000 0.000000 0.000000 0.026509
#
#
# Mechanical properties :
#
#
# Convention : Reuss Voigt Hill
#
# Bulk Modulus (GPa) = 24.23460 37.09702 30.66581
# Shear Modulus (GPa) = 21.29703 27.52342 24.41022
#
# Velocity S-wave (km/s) = 3.30400 3.75606 3.53726
# Velocity P-wave (km/s) = 5.19398 6.15027 5.69224
#
# Compressibility (1/GPa) = 0.04126331
#
# Stress axis : x y z
#
# Youngs Moduli (GPa) = 63.13817 100.69054 20.27889
#
# Poissons Ratio (x) = 0.18224 0.19433
# Poissons Ratio (y) = 0.11427 0.11187
# Poissons Ratio (z) = 0.60506 0.55545
#
# Static dielectric constant tensor:
#      x y z
#    x 3.698100 0.000000 0.000000 
#    y 0.000000 3.653100 0.000000 
#    z 0.000000 0.000000 3.276100 
# 
# 
# High freq. dielectric constant tensor:
#      x y z
#    x 1.773530 0.000000 0.000000 
#    y 0.000000 1.771070 0.000000 
#    z 0.000000 0.000000 1.731630 
# 
# From -- ./inp_files/36015.got.cif
#   From: 2010.03.12/outbox.cif.g09.slc.cpg/sg72_19_cif.got.tgz:36015.got - 2010.04.16 14:54:00.
