data_PCOD8294810
_publ_section_title
;
Structure prediction by ZEFSAII (Michael W. Deem and Ramdas Pophale) SiO2 
 PCOD8294810
Probable space group: I B A M
;
_chemical_formula_sum "Si O2"
_cell_formula_units_Z 96
_cell_length_a 9.965898
_cell_length_b 21.874235
_cell_length_c 24.952455
_cell_angle_alpha 90.000000
_cell_angle_beta 90.000000
_cell_angle_gamma 90.000000
_cell_volume 5439.545232
_symmetry_space_group_name_H-M "I B A M"
_symmetry_group_IT_number 72
_symmetry_cell_setting 'orthorhombic'
loop_
_space_group_symop_operation_xyz
x,y,z
-x,-y,z
x,-y,1/2-z
-x,y,1/2-z
-x,-y,-z
x,y,-z
-x,y,1/2+z
x,-y,1/2+z
1/2+x,1/2+y,1/2+z
1/2-x,1/2-y,1/2+z
1/2+x,1/2-y,-z
1/2-x,1/2+y,-z
1/2-x,1/2-y,1/2-z
1/2+x,1/2+y,1/2-z
1/2-x,1/2+y,z
1/2+x,1/2-y,z
loop_
_atom_site_type_symbol
_atom_site_label
_atom_site_fract_x
_atom_site_fract_y
_atom_site_fract_z
Si Si1 0.111087 0.050281 0.437445
Si Si2 0.199100 0.941189 0.220744
Si Si3 0.263882 0.127616 0.175834
Si Si4 0.875439 0.254111 0.789190
Si Si5 0.535112 0.360086 0.649311
Si Si6 0.845817 0.502547 0.372199
O O1 0.112918 0.063827 0.500000
O O2 0.077703 0.115540 0.409447
O O3 0.255390 0.023724 0.420195
O O4 0.000000 0.000000 0.421363
O O5 0.256982 0.892254 0.262129
O O6 0.071200 0.914856 0.189818
O O7 0.140346 0.000000 0.250000
O O8 0.319381 0.961579 0.180756
O O9 0.368414 0.183902 0.175487
O O10 0.312582 0.073497 0.137759
O O11 0.122531 0.152481 0.153513
O O12 0.750000 0.250000 0.750000
O O13 0.881632 0.199828 0.833172
O O14 0.000000 0.251882 0.750000
O O15 0.000000 0.500000 0.389537
#
# Coordination Sequence:
#
# PCOD8294810 Si02
#       6
#    16  16  16  16  16  16
#     4  10  21  40  67  89 106 141 197 254 305 354
#     4   9  19  29  50  77 115 149 190 225 279 347
#     4  11  21  34  52  81 121 159 189 228 277 344
#     4  12  23  35  53  82 118 163 200 230 268 341
#     4  11  20  37  55  82 112 152 199 238 290 341
#     4  10  22  35  54  88 118 151 183 240 301 348
#
# _framework density 17.648533
#
# number of rings (size 3 to 8) (size 9 to 14) (size 15 to 20)
#    0.000    1.500    5.000    0.500    2.333    4.667 
#    0.000    0.000    0.000    2.000    0.000    0.000 
#    0.000    0.000    0.000    0.000    0.000    0.000 
#
# Total GULP energy -595186.461064 kJ/mol
# GULP energy per Si atom -12399.717939 kJ/mol
# Density = 1.760836 g / cm^3
# Si number density = 17.648533 Si / 1000 Ang^3
#
#
#
# Elastic Constant Matrix: (Units=GPa)
#
#
# Indices 1 2 3 4 5 6 
#
# 1 103.3985 34.1253 33.4590 0.0000 0.0000 0.0000
# 2 34.1253 114.3005 54.6856 0.0000 0.0000 0.0000
# 3 33.4590 54.6856 92.7011 0.0000 0.0000 0.0000
# 4 0.0000 0.0000 0.0000 25.0067 0.0000 0.0000
# 5 0.0000 0.0000 0.0000 0.0000 15.9084 0.0000
# 6 0.0000 0.0000 0.0000 0.0000 0.0000 28.6963
#
#
#
# Elastic Compliance Matrix: (Units=1/GPa)
#
#
# Indices 1 2 3 4 5 6 
#
# 1 0.011261 -0.001975 -0.002900 0.000000 0.000000 0.000000
# 2 -0.001975 0.012535 -0.006682 0.000000 0.000000 0.000000
# 3 -0.002900 -0.006682 0.015776 0.000000 0.000000 0.000000
# 4 0.000000 0.000000 0.000000 0.039989 0.000000 0.000000
# 5 0.000000 0.000000 0.000000 0.000000 0.062860 0.000000
# 6 0.000000 0.000000 0.000000 0.000000 0.000000 0.034848
#
#
# Mechanical properties :
#
#
# Convention : Reuss Voigt Hill
#
# Bulk Modulus (GPa) = 60.75509 61.66001 61.20755
# Shear Modulus (GPa) = 24.28730 26.46429 25.37579
#
# Velocity S-wave (km/s) = 3.71369 3.87656 3.79600
# Velocity P-wave (km/s) = 7.27244 7.41961 7.34639
#
# Compressibility (1/GPa) = 0.01645953
#
# Stress axis : x y z
#
# Youngs Moduli (GPa) = 88.79893 79.77403 63.38847
#
# Poissons Ratio (x) = 0.15755 0.18380
# Poissons Ratio (y) = 0.17537 0.42356
# Poissons Ratio (z) = 0.25748 0.53305
#
# Static dielectric constant tensor:
#      x y z
#    x 3.087480 0.000000 0.000000 
#    y 0.000000 3.515220 0.000000 
#    z 0.000000 0.000000 3.058210 
# 
# 
# High freq. dielectric constant tensor:
#      x y z
#    x 1.682150 0.000000 0.000000 
#    y 0.000000 1.687250 0.000000 
#    z 0.000000 0.000000 1.649580 
# 
# From -- ./inp_files/42453.got.cif
#   From: 2010.03.12/outbox.cif.g09.slc.cpg/sg72_22_cif.got.tgz:42453.got - 2010.04.16 14:54:00.
