data_PCOD8294104
_publ_section_title
;
Structure prediction by ZEFSAII (Michael W. Deem and Ramdas Pophale) SiO2 
 PCOD8294104
Probable space group: I B A M
;
_chemical_formula_sum "Si O2"
_cell_formula_units_Z 92
_cell_length_a 25.749525
_cell_length_b 25.838017
_cell_length_c 7.802745
_cell_angle_alpha 90.000000
_cell_angle_beta 90.000000
_cell_angle_gamma 90.000000
_cell_volume 5191.296279
_symmetry_space_group_name_H-M "I B A M"
_symmetry_group_IT_number 72
_symmetry_cell_setting 'orthorhombic'
loop_
_space_group_symop_operation_xyz
x,y,z
-x,-y,z
x,-y,1/2-z
-x,y,1/2-z
-x,-y,-z
x,y,-z
-x,y,1/2+z
x,-y,1/2+z
1/2+x,1/2+y,1/2+z
1/2-x,1/2-y,1/2+z
1/2+x,1/2-y,-z
1/2-x,1/2+y,-z
1/2-x,1/2-y,1/2-z
1/2+x,1/2+y,1/2-z
1/2-x,1/2+y,z
1/2+x,1/2-y,z
loop_
_atom_site_type_symbol
_atom_site_label
_atom_site_fract_x
_atom_site_fract_y
_atom_site_fract_z
Si Si1 0.058327 0.746091 0.796119
Si Si2 0.822158 0.402045 0.500000
Si Si3 0.255459 0.058205 0.199944
Si Si4 0.135422 0.942310 0.696763
Si Si5 0.902490 0.677892 0.000000
Si Si6 0.566188 0.933743 0.500000
Si Si7 0.000000 0.500000 0.750000
Si Si8 0.945162 0.860344 0.691659
O O1 0.093557 0.709890 0.676541
O O2 0.068348 0.804743 0.724575
O O3 0.000000 0.730279 0.750000
O O4 0.070286 0.737603 0.000000
O O5 0.788669 0.406347 0.673739
O O6 0.843708 0.343732 0.500000
O O7 0.870891 0.442803 0.500000
O O8 0.195145 0.069206 0.238776
O O9 0.268980 0.000000 0.250000
O O10 0.268811 0.068670 0.000000
O O11 0.122490 0.934575 0.500000
O O12 0.100680 0.901494 0.796870
O O13 0.119799 0.000000 0.750000
O O14 0.942853 0.628723 0.000000
O O15 0.539119 0.961088 0.341187
O O16 0.954352 0.843742 0.500000
O O17 0.000000 0.884913 0.750000
#
# Coordination Sequence:
#
# PCOD8294104 Si02
#       8
#    16   8  16  16   8   8   4  16
#     4  10  20  35  59  84 113 148 196 246 284 343
#     4  10  23  36  56  86 106 147 192 236 295 324
#     4  10  20  35  59  84 113 148 196 246 284 343
#     4  10  21  35  56  87 118 155 194 236 291 345
#     4  10  23  36  56  86 106 147 192 236 295 324
#     4   9  24  36  54  84 104 164 168 232 288 348
#     4  10  20  42  52  74 132 130 196 210 288 386
#     4  10  21  35  56  87 118 155 194 236 291 345
#
# _framework density 17.721971
#
# number of rings (size 3 to 8) (size 9 to 14) (size 15 to 20)
#    0.522    1.565    1.739    1.043    7.304    1.043 
#    3.130    1.739    0.000    1.043    0.000    0.000 
#    0.000    0.000    0.000    0.000    0.000    0.000 
#
# Total GULP energy -569914.976943 kJ/mol
# GULP energy per Si atom -12389.456020 kJ/mol
# Density = 1.768164 g / cm^3
# Si number density = 17.721971 Si / 1000 Ang^3
#
#
#
# Elastic Constant Matrix: (Units=GPa)
#
#
# Indices 1 2 3 4 5 6 
#
# 1 88.2588 58.5284 48.3403 0.0000 0.0000 0.0000
# 2 58.5284 102.7356 51.3661 0.0000 0.0000 0.0000
# 3 48.3403 51.3661 110.1669 0.0000 0.0000 0.0000
# 4 0.0000 0.0000 0.0000 30.2470 0.0000 0.0000
# 5 0.0000 0.0000 0.0000 0.0000 29.5010 0.0000
# 6 0.0000 0.0000 0.0000 0.0000 0.0000 35.7741
#
#
#
# Elastic Compliance Matrix: (Units=1/GPa)
#
#
# Indices 1 2 3 4 5 6 
#
# 1 0.019760 -0.009026 -0.004462 0.000000 0.000000 0.000000
# 2 -0.009026 0.016816 -0.003880 0.000000 0.000000 0.000000
# 3 -0.004462 -0.003880 0.012844 0.000000 0.000000 0.000000
# 4 0.000000 0.000000 0.000000 0.033061 0.000000 0.000000
# 5 0.000000 0.000000 0.000000 0.000000 0.033897 0.000000
# 6 0.000000 0.000000 0.000000 0.000000 0.000000 0.027953
#
#
# Mechanical properties :
#
#
# Convention : Reuss Voigt Hill
#
# Bulk Modulus (GPa) = 68.10302 68.62564 68.36433
# Shear Modulus (GPa) = 27.17952 28.63285 27.90618
#
# Velocity S-wave (km/s) = 3.92045 4.02390 3.97251
# Velocity P-wave (km/s) = 7.68149 7.77152 7.72664
#
# Compressibility (1/GPa) = 0.01468364
#
# Stress axis : x y z
#
# Youngs Moduli (GPa) = 50.60744 59.46751 77.85751
#
# Poissons Ratio (x) = 0.53678 0.34739
# Poissons Ratio (y) = 0.45680 0.30208
# Poissons Ratio (z) = 0.22580 0.23072
#
# Static dielectric constant tensor:
#      x y z
#    x 3.140920 0.000000 0.000000 
#    y 0.000000 3.146510 0.000000 
#    z 0.000000 0.000000 3.484470 
# 
# 
# High freq. dielectric constant tensor:
#      x y z
#    x 1.671280 0.000000 0.000000 
#    y 0.000000 1.675030 0.000000 
#    z 0.000000 0.000000 1.700760 
# 
# From -- ./inp_files/6119.got.cif
#   From: 2010.03.12/outbox.cif.g09.slc.cpg/sg72_4_cif.got.tgz:6119.got - 2010.04.16 14:54:00.
