data_PCOD8294406
_publ_section_title
;
Structure prediction by ZEFSAII (Michael W. Deem and Ramdas Pophale) SiO2 
 PCOD8294406
Probable space group: I B A M
;
_chemical_formula_sum "Si O2"
_cell_formula_units_Z 80
_cell_length_a 25.161454
_cell_length_b 9.827980
_cell_length_c 17.328314
_cell_angle_alpha 90.000000
_cell_angle_beta 90.000000
_cell_angle_gamma 90.000000
_cell_volume 4285.054077
_symmetry_space_group_name_H-M "I B A M"
_symmetry_group_IT_number 72
_symmetry_cell_setting 'orthorhombic'
loop_
_space_group_symop_operation_xyz
x,y,z
-x,-y,z
x,-y,1/2-z
-x,y,1/2-z
-x,-y,-z
x,y,-z
-x,y,1/2+z
x,-y,1/2+z
1/2+x,1/2+y,1/2+z
1/2-x,1/2-y,1/2+z
1/2+x,1/2-y,-z
1/2-x,1/2+y,-z
1/2-x,1/2-y,1/2-z
1/2+x,1/2+y,1/2-z
1/2-x,1/2+y,z
1/2+x,1/2-y,z
loop_
_atom_site_type_symbol
_atom_site_label
_atom_site_fract_x
_atom_site_fract_y
_atom_site_fract_z
Si Si1 0.560359 0.156846 0.266118
Si Si2 0.184104 0.095311 0.647982
Si Si3 0.652700 0.686558 0.308654
Si Si4 0.700605 0.081544 0.090911
Si Si5 0.875624 0.665448 0.413735
O O1 0.500000 0.197936 0.250000
O O2 0.595152 0.250870 0.209938
O O3 0.574871 0.183027 0.355779
O O4 0.571539 0.000000 0.250000
O O5 0.187109 0.173929 0.730086
O O6 0.241550 0.041973 0.622314
O O7 0.160001 0.198295 0.585306
O O8 0.145859 0.963270 0.654435
O O9 0.682992 0.779599 0.369451
O O10 0.660859 0.960274 0.113463
O O11 0.702275 0.105717 0.000000
O O12 0.897858 0.641362 0.500000
#
# Coordination Sequence:
#
# PCOD8294406 Si02
#       5
#    16  16  16  16  16
#     4  10  20  39  64  84 105 142 190 239 286 326
#     4  10  21  34  55  82 116 154 185 219 277 336
#     4  10  21  37  55  83 110 147 193 232 270 334
#     4  11  21  34  54  82 116 153 190 226 270 328
#     4  10  21  37  57  85 118 148 185 232 278 329
#
# _framework density 18.669543000000001
#
# number of rings (size 3 to 8) (size 9 to 14) (size 15 to 20)
#    0.000    1.800    2.000    2.400    0.000    8.000 
#    0.000   11.000    0.000    1.200    0.000    0.000 
#    0.000    0.000    0.000    0.000    0.000    0.000 
#
# Total GULP energy -496051.150373 kJ/mol
# GULP energy per Si atom -12401.278759 kJ/mol
# Density = 1.862705 g / cm^3
# Si number density = 18.669543 Si / 1000 Ang^3
#
#
#
# Elastic Constant Matrix: (Units=GPa)
#
#
# Indices 1 2 3 4 5 6 
#
# 1 120.3978 42.5569 55.3331 0.0000 0.0000 0.0000
# 2 42.5569 109.9997 35.8001 0.0000 0.0000 0.0000
# 3 55.3331 35.8001 79.5687 0.0000 0.0000 0.0000
# 4 0.0000 0.0000 0.0000 19.4380 0.0000 0.0000
# 5 0.0000 0.0000 0.0000 0.0000 22.2393 0.0000
# 6 0.0000 0.0000 0.0000 0.0000 0.0000 15.9593
#
#
#
# Elastic Compliance Matrix: (Units=1/GPa)
#
#
# Indices 1 2 3 4 5 6 
#
# 1 0.012723 -0.002393 -0.007771 0.000000 0.000000 0.000000
# 2 -0.002393 0.011101 -0.003330 0.000000 0.000000 0.000000
# 3 -0.007771 -0.003330 0.019470 0.000000 0.000000 0.000000
# 4 0.000000 0.000000 0.000000 0.051446 0.000000 0.000000
# 5 0.000000 0.000000 0.000000 0.000000 0.044966 0.000000
# 6 0.000000 0.000000 0.000000 0.000000 0.000000 0.062659
#
#
# Mechanical properties :
#
#
# Convention : Reuss Voigt Hill
#
# Bulk Modulus (GPa) = 61.33077 64.14960 62.74019
# Shear Modulus (GPa) = 21.29572 23.27904 22.28738
#
# Velocity S-wave (km/s) = 3.38104 3.53498 3.45886
# Velocity P-wave (km/s) = 6.94002 7.14819 7.04487
#
# Compressibility (1/GPa) = 0.01630503
#
# Stress axis : x y z
#
# Youngs Moduli (GPa) = 78.59652 90.08466 51.36046
#
# Poissons Ratio (x) = 0.21559 0.39913
# Poissons Ratio (y) = 0.18810 0.17104
# Poissons Ratio (z) = 0.61078 0.30000
#
# Static dielectric constant tensor:
#      x y z
#    x 3.202240 0.000000 0.000000 
#    y 0.000000 3.579280 0.000000 
#    z 0.000000 0.000000 3.442820 
# 
# 
# High freq. dielectric constant tensor:
#      x y z
#    x 1.697840 0.000000 0.000000 
#    y 0.000000 1.738830 0.000000 
#    z 0.000000 0.000000 1.729320 
# 
# From -- ./inp_files/28159.got.cif
#   From: 2010.03.12/outbox.cif.g09.slc.cpg/sg72_15_cif.got.tgz:28159.got - 2010.04.16 14:54:00.
