data_PCOD8294130
_publ_section_title
;
Structure prediction by ZEFSAII (Michael W. Deem and Ramdas Pophale) SiO2 
 PCOD8294130
Probable space group: I B A M
;
_chemical_formula_sum "Si O2"
_cell_formula_units_Z 88
_cell_length_a 10.920962
_cell_length_b 31.288210
_cell_length_c 14.246232
_cell_angle_alpha 90.000000
_cell_angle_beta 90.000000
_cell_angle_gamma 90.000000
_cell_volume 4867.899757
_symmetry_space_group_name_H-M "I B A M"
_symmetry_group_IT_number 72
_symmetry_cell_setting 'orthorhombic'
loop_
_space_group_symop_operation_xyz
x,y,z
-x,-y,z
x,-y,1/2-z
-x,y,1/2-z
-x,-y,-z
x,y,-z
-x,y,1/2+z
x,-y,1/2+z
1/2+x,1/2+y,1/2+z
1/2-x,1/2-y,1/2+z
1/2+x,1/2-y,-z
1/2-x,1/2+y,-z
1/2-x,1/2-y,1/2-z
1/2+x,1/2+y,1/2-z
1/2-x,1/2+y,z
1/2+x,1/2-y,z
loop_
_atom_site_type_symbol
_atom_site_label
_atom_site_fract_x
_atom_site_fract_y
_atom_site_fract_z
Si Si1 0.239194 0.379214 0.136361
Si Si2 0.632065 0.054773 0.000000
Si Si3 0.648285 0.833710 0.000000
Si Si4 0.844175 0.544617 0.500000
Si Si5 0.608058 0.715988 0.500000
Si Si6 0.253067 0.106976 0.145060
Si Si7 0.994423 0.845924 0.143001
Si Si8 0.879572 0.685736 0.000000
O O1 0.191466 0.422663 0.090128
O O2 0.216664 0.388359 0.245645
O O3 0.381079 0.369654 0.112524
O O4 0.165802 0.338548 0.094211
O O5 0.485608 0.059672 0.000000
O O6 0.671034 0.005857 0.000000
O O7 0.757117 0.801375 0.000000
O O8 0.652324 0.862124 0.093377
O O9 0.523829 0.808817 0.000000
O O10 0.777594 0.560897 0.596224
O O11 0.530434 0.698622 0.588907
O O12 0.651468 0.764731 0.500000
O O13 0.112976 0.120007 0.123243
O O14 0.000000 0.831598 0.250000
#
# Coordination Sequence:
#
# PCOD8294130 Si02
#       8
#    16   8   8   8   8  16  16   8
#     4  10  20  36  56  80 108 141 182 220 273 319
#     4  10  22  35  52  84 114 139 177 227 265 325
#     4   9  20  35  49  77 104 135 185 215 264 322
#     4  10  21  36  55  81 112 140 182 220 268 323
#     4  10  20  36  53  73 109 143 172 228 275 302
#     4   9  18  37  59  75 104 145 179 217 267 323
#     4   9  19  37  58  79 104 145 182 219 266 329
#     4  11  23  32  51  81 104 140 178 226 262 320
#
# _framework density 18.077611000000001
#
# number of rings (size 3 to 8) (size 9 to 14) (size 15 to 20)
#    0.000    2.364    0.000    3.818    2.545    3.636 
#    3.273    6.364    0.000    3.273    0.000    0.000 
#    0.000    0.000    0.000    0.000    0.000    0.000 
#
# Total GULP energy -545144.478736 kJ/mol
# GULP energy per Si atom -12389.647244 kJ/mol
# Density = 1.803647 g / cm^3
# Si number density = 18.077611 Si / 1000 Ang^3
#
#
#
# Elastic Constant Matrix: (Units=GPa)
#
#
# Indices 1 2 3 4 5 6 
#
# 1 81.4429 42.5114 45.2933 -0.0002 0.0000 0.0000
# 2 42.5114 146.8792 68.0595 -0.0006 0.0000 0.0001
# 3 45.2933 68.0595 151.2684 -0.0020 0.0000 0.0003
# 4 -0.0002 -0.0006 -0.0020 3.8330 0.0004 0.0002
# 5 0.0000 0.0000 0.0000 0.0004 20.2349 -0.0001
# 6 0.0000 0.0001 0.0003 0.0002 -0.0001 23.8707
#
#
#
# Elastic Compliance Matrix: (Units=1/GPa)
#
#
# Indices 1 2 3 4 5 6 
#
# 1 0.015707 -0.002990 -0.003358 -0.000002 0.000000 0.000000
# 2 -0.002990 0.009171 -0.003231 0.000000 0.000000 0.000000
# 3 -0.003358 -0.003231 0.009070 0.000004 0.000000 0.000000
# 4 -0.000002 0.000000 0.000004 0.260892 -0.000005 -0.000002
# 5 0.000000 0.000000 0.000000 -0.000005 0.049420 0.000000
# 6 0.000000 0.000000 0.000000 -0.000002 0.000000 0.041892
#
#
# Mechanical properties :
#
#
# Convention : Reuss Voigt Hill
#
# Bulk Modulus (GPa) = 67.61336 76.81322 72.21329
# Shear Modulus (GPa) = 12.18804 24.50281 18.34542
#
# Velocity S-wave (km/s) = 2.59937 3.68560 3.18907
# Velocity P-wave (km/s) = 6.81849 7.79067 7.32074
#
# Compressibility (1/GPa) = 0.01478998
#
# Stress axis : x y z
#
# Youngs Moduli (GPa) = 63.66744 109.04107 110.25662
#
# Poissons Ratio (x) = 0.32605 0.37019
# Poissons Ratio (y) = 0.19038 0.35622
# Poissons Ratio (z) = 0.21377 0.35230
#
# Static dielectric constant tensor:
#      x y z
#    x 3.519310 0.000000 0.000000 
#    y 0.000000 3.231290 0.000000 
#    z 0.000000 0.000000 3.456230 
# 
# 
# High freq. dielectric constant tensor:
#      x y z
#    x 1.714880 0.000000 0.000000 
#    y 0.000000 1.685210 0.000000 
#    z 0.000000 0.000000 1.707910 
# 
# From -- ./inp_files/20625.got.cif
#   From: 2010.03.12/outbox.cif.g09.slc.cpg/sg72_11_cif.got.tgz:20625.got - 2010.04.16 14:54:00.
