data_PCOD8294623
_publ_section_title
;
Structure prediction by ZEFSAII (Michael W. Deem and Ramdas Pophale) SiO2 
 PCOD8294623
Probable space group: I B A M
;
_chemical_formula_sum "Si O2"
_cell_formula_units_Z 112
_cell_length_a 22.536863
_cell_length_b 11.714777
_cell_length_c 20.737294
_cell_angle_alpha 90.000000
_cell_angle_beta 90.000000
_cell_angle_gamma 90.000000
_cell_volume 5474.942664
_symmetry_space_group_name_H-M "I B A M"
_symmetry_group_IT_number 72
_symmetry_cell_setting 'orthorhombic'
loop_
_space_group_symop_operation_xyz
x,y,z
-x,-y,z
x,-y,1/2-z
-x,y,1/2-z
-x,-y,-z
x,y,-z
-x,y,1/2+z
x,-y,1/2+z
1/2+x,1/2+y,1/2+z
1/2-x,1/2-y,1/2+z
1/2+x,1/2-y,-z
1/2-x,1/2+y,-z
1/2-x,1/2-y,1/2-z
1/2+x,1/2+y,1/2-z
1/2-x,1/2+y,z
1/2+x,1/2-y,z
loop_
_atom_site_type_symbol
_atom_site_label
_atom_site_fract_x
_atom_site_fract_y
_atom_site_fract_z
Si Si1 0.442353 0.737385 0.375099
Si Si2 0.066777 0.789434 0.571864
Si Si3 0.881309 0.970918 0.425407
Si Si4 0.769502 0.825972 0.425368
Si Si5 0.430634 0.135061 0.250227
Si Si6 0.353229 0.876731 0.128133
Si Si7 0.851609 0.616751 0.571378
O O1 0.513583 0.740557 0.378648
O O2 0.424073 0.605664 0.381090
O O3 0.410661 0.795190 0.312810
O O4 0.413707 0.813695 0.432251
O O5 0.041016 0.809716 0.500000
O O6 0.110828 0.681664 0.569641
O O7 0.105327 0.898955 0.594780
O O8 0.897612 0.949955 0.500000
O O9 0.813081 0.934372 0.413367
O O10 0.748468 0.826545 0.500000
O O11 0.715033 0.838136 0.375947
O O12 0.800688 0.706326 0.408098
O O13 0.500000 0.168347 0.250000
O O14 0.387066 0.172790 0.308461
O O15 0.423620 0.000000 0.250000
O O16 0.355623 0.013508 0.122202
O O17 0.838130 0.567641 0.500000
#
# Coordination Sequence:
#
# PCOD8294623 Si02
#       7
#    16  16  16  16  16  16  16
#     4  11  20  39  63  87 121 167 216 258 316 377
#     4  11  22  35  60  99 132 160 205 263 321 391
#     4   9  20  39  63  93 131 168 199 254 331 385
#     4   9  20  38  61  91 130 166 203 257 321 385
#     4  11  23  43  61  82 120 170 211 264 315 362
#     4  12  23  38  61  91 124 169 214 255 315 383
#     4  10  21  37  60  92 127 162 205 262 322 378
#
# _framework density 20.456835999999999
#
# number of rings (size 3 to 8) (size 9 to 14) (size 15 to 20)
#    0.000    1.571    2.857    3.857    2.000    1.714 
#    0.000    5.000    0.000    0.000    0.000    0.000 
#    0.000    0.000    0.000    0.000    0.000    0.000 
#
# Total GULP energy -693905.884027 kJ/mol
# GULP energy per Si atom -12391.176500 kJ/mol
# Density = 2.041028 g / cm^3
# Si number density = 20.456836 Si / 1000 Ang^3
#
#
#
# Elastic Constant Matrix: (Units=GPa)
#
#
# Indices 1 2 3 4 5 6 
#
# 1 146.5093 58.0439 46.3420 0.0000 0.0000 0.0000
# 2 58.0439 119.9067 38.6449 0.0000 0.0000 0.0000
# 3 46.3420 38.6449 76.1224 0.0000 0.0000 0.0000
# 4 0.0000 0.0000 0.0000 23.8354 0.0000 0.0000
# 5 0.0000 0.0000 0.0000 0.0000 33.8248 0.0000
# 6 0.0000 0.0000 0.0000 0.0000 0.0000 28.1900
#
#
#
# Elastic Compliance Matrix: (Units=1/GPa)
#
#
# Indices 1 2 3 4 5 6 
#
# 1 0.009397 -0.003234 -0.004079 0.000000 0.000000 0.000000
# 2 -0.003234 0.011084 -0.003658 0.000000 0.000000 0.000000
# 3 -0.004079 -0.003658 0.017477 0.000000 0.000000 0.000000
# 4 0.000000 0.000000 0.000000 0.041954 0.000000 0.000000
# 5 0.000000 0.000000 0.000000 0.000000 0.029564 0.000000
# 6 0.000000 0.000000 0.000000 0.000000 0.000000 0.035474
#
#
# Mechanical properties :
#
#
# Convention : Reuss Voigt Hill
#
# Bulk Modulus (GPa) = 62.43824 69.84443 66.14134
# Shear Modulus (GPa) = 29.03063 30.47054 29.75058
#
# Velocity S-wave (km/s) = 3.77120 3.86360 3.81768
# Velocity P-wave (km/s) = 7.03924 7.35660 7.19967
#
# Compressibility (1/GPa) = 0.01601583
#
# Stress axis : x y z
#
# Youngs Moduli (GPa) = 106.41665 90.21613 57.21800
#
# Poissons Ratio (x) = 0.29179 0.23338
# Poissons Ratio (y) = 0.34418 0.20932
# Poissons Ratio (z) = 0.43405 0.33003
#
# Static dielectric constant tensor:
#      x y z
#    x 3.646920 0.000000 0.000000 
#    y 0.000000 3.688100 0.000000 
#    z 0.000000 0.000000 3.524760 
# 
# 
# High freq. dielectric constant tensor:
#      x y z
#    x 1.800820 0.000000 0.000000 
#    y 0.000000 1.804740 0.000000 
#    z 0.000000 0.000000 1.769840 
# 
# From -- ./inp_files/40373.got.cif
#   From: 2010.03.12/outbox.cif.g09.slc.cpg/sg72_21_cif.got.tgz:40373.got - 2010.04.16 14:54:00.
