data_PCOD8294236
_publ_section_title
;
Structure prediction by ZEFSAII (Michael W. Deem and Ramdas Pophale) SiO2 
 PCOD8294236
Probable space group: I B A M
;
_chemical_formula_sum "Si O2"
_cell_formula_units_Z 56
_cell_length_a 9.040443
_cell_length_b 12.492297
_cell_length_c 22.401445
_cell_angle_alpha 90.000000
_cell_angle_beta 90.000000
_cell_angle_gamma 90.000000
_cell_volume 2529.927329
_symmetry_space_group_name_H-M "I B A M"
_symmetry_group_IT_number 72
_symmetry_cell_setting 'orthorhombic'
loop_
_space_group_symop_operation_xyz
x,y,z
-x,-y,z
x,-y,1/2-z
-x,y,1/2-z
-x,-y,-z
x,y,-z
-x,y,1/2+z
x,-y,1/2+z
1/2+x,1/2+y,1/2+z
1/2-x,1/2-y,1/2+z
1/2+x,1/2-y,-z
1/2-x,1/2+y,-z
1/2-x,1/2-y,1/2-z
1/2+x,1/2+y,1/2-z
1/2-x,1/2+y,z
1/2+x,1/2-y,z
loop_
_atom_site_type_symbol
_atom_site_label
_atom_site_fract_x
_atom_site_fract_y
_atom_site_fract_z
Si Si1 0.014617 0.877168 0.179611
Si Si2 0.825531 0.690017 0.869584
Si Si3 0.836479 0.397297 0.000000
Si Si4 0.000000 0.500000 0.896282
Si Si5 0.880420 0.732484 0.000000
O O1 0.887377 0.805937 0.149121
O O2 0.000000 0.869193 0.250000
O O3 0.171781 0.828345 0.162526
O O4 0.000000 0.000000 0.157832
O O5 0.941190 0.594524 0.853015
O O6 0.806008 0.681989 0.941028
O O7 0.866231 0.463343 0.060168
O O8 0.944337 0.291064 0.000000
O O9 0.665583 0.358406 0.000000
#
# Coordination Sequence:
#
# PCOD8294236 Si02
#       5
#    16  16   8   8   8
#     4  11  27  47  70  98 134 178 242 285 329 399
#     4  11  23  44  69  98 141 177 221 287 342 410
#     4   9  18  34  56  89 137 169 220 265 317 418
#     4   9  20  36  63  94 132 178 215 265 342 406
#     4  10  20  36  64  98 130 175 219 266 348 406
#
# _framework density 22.135023
#
# number of rings (size 3 to 8) (size 9 to 14) (size 15 to 20)
#    0.000    1.714    0.000    5.143    8.000    0.000 
#    0.000    1.429    0.000    0.000    0.000    0.000 
#    0.000    0.000    0.000    0.000    0.000    0.000 
#
# Total GULP energy -347029.678059 kJ/mol
# GULP energy per Si atom -12393.917074 kJ/mol
# Density = 2.208464 g / cm^3
# Si number density = 22.135023 Si / 1000 Ang^3
#
#
#
# Elastic Constant Matrix: (Units=GPa)
#
#
# Indices 1 2 3 4 5 6 
#
# 1 94.3460 74.8879 43.7590 0.0000 0.0000 0.0000
# 2 74.8879 169.7116 39.2261 0.0000 0.0000 0.0000
# 3 43.7590 39.2261 87.8839 0.0000 0.0000 0.0000
# 4 0.0000 0.0000 0.0000 15.7938 0.0000 0.0000
# 5 0.0000 0.0000 0.0000 0.0000 15.2668 0.0000
# 6 0.0000 0.0000 0.0000 0.0000 0.0000 54.9071
#
#
#
# Elastic Compliance Matrix: (Units=1/GPa)
#
#
# Indices 1 2 3 4 5 6 
#
# 1 0.019075 -0.006938 -0.006401 0.000000 0.000000 0.000000
# 2 -0.006938 0.009093 -0.000604 0.000000 0.000000 0.000000
# 3 -0.006401 -0.000604 0.014836 0.000000 0.000000 0.000000
# 4 0.000000 0.000000 0.000000 0.063316 0.000000 0.000000
# 5 0.000000 0.000000 0.000000 0.000000 0.065502 0.000000
# 6 0.000000 0.000000 0.000000 0.000000 0.000000 0.018213
#
#
# Mechanical properties :
#
#
# Convention : Reuss Voigt Hill
#
# Bulk Modulus (GPa) = 66.14800 74.18750 70.16775
# Shear Modulus (GPa) = 22.42551 30.13142 26.27847
#
# Velocity S-wave (km/s) = 3.18641 3.69352 3.44930
# Velocity P-wave (km/s) = 6.59442 7.19570 6.90161
#
# Compressibility (1/GPa) = 0.01511761
#
# Stress axis : x y z
#
# Youngs Moduli (GPa) = 52.42440 109.97018 67.40488
#
# Poissons Ratio (x) = 0.76293 0.43148
# Poissons Ratio (y) = 0.36370 0.04074
# Poissons Ratio (z) = 0.33558 0.06646
#
# Static dielectric constant tensor:
#      x y z
#    x 3.816390 0.000000 0.000000 
#    y 0.000000 4.491770 0.000000 
#    z 0.000000 0.000000 3.855400 
# 
# 
# High freq. dielectric constant tensor:
#      x y z
#    x 1.855860 0.000000 0.000000 
#    y 0.000000 1.887870 0.000000 
#    z 0.000000 0.000000 1.856420 
# 
# From -- ./inp_files/46906.got.cif
#   From: 2010.03.12/outbox.cif.g09.slc.cpg/sg72_24_cif.got.tgz:46906.got - 2010.04.16 14:54:00.
