data_PCOD8294787
_publ_section_title
;
Structure prediction by ZEFSAII (Michael W. Deem and Ramdas Pophale) SiO2 
 PCOD8294787
Probable space group: I B A M
;
_chemical_formula_sum "Si O2"
_cell_formula_units_Z 104
_cell_length_a 20.705318
_cell_length_b 8.894197
_cell_length_c 26.325298
_cell_angle_alpha 90.000000
_cell_angle_beta 90.000000
_cell_angle_gamma 90.000000
_cell_volume 4847.992570
_symmetry_space_group_name_H-M "I B A M"
_symmetry_group_IT_number 72
_symmetry_cell_setting 'orthorhombic'
loop_
_space_group_symop_operation_xyz
x,y,z
-x,-y,z
x,-y,1/2-z
-x,y,1/2-z
-x,-y,-z
x,y,-z
-x,y,1/2+z
x,-y,1/2+z
1/2+x,1/2+y,1/2+z
1/2-x,1/2-y,1/2+z
1/2+x,1/2-y,-z
1/2-x,1/2+y,-z
1/2-x,1/2-y,1/2-z
1/2+x,1/2+y,1/2-z
1/2-x,1/2+y,z
1/2+x,1/2-y,z
loop_
_atom_site_type_symbol
_atom_site_label
_atom_site_fract_x
_atom_site_fract_y
_atom_site_fract_z
Si Si1 0.104611 0.778385 0.655138
Si Si2 0.789123 0.972177 0.191249
Si Si3 0.000000 0.000000 0.859168
Si Si4 0.074117 0.526550 0.803792
Si Si5 0.707939 0.077247 0.403981
Si Si6 0.384850 0.698565 0.635870
Si Si7 0.172172 0.748104 0.442711
O O1 0.166472 0.822719 0.689384
O O2 0.098585 0.599025 0.656915
O O3 0.117353 0.811421 0.595282
O O4 0.041544 0.875693 0.672870
O O5 0.725534 0.947720 0.156200
O O6 0.769611 0.000000 0.250000
O O7 0.830789 0.103042 0.165072
O O8 0.056686 0.903962 0.888293
O O9 0.109804 0.500000 0.750000
O O10 0.084068 0.694816 0.822018
O O11 0.000000 0.500000 0.795575
O O12 0.648975 0.197813 0.406875
O O13 0.766065 0.146082 0.435978
O O14 0.689182 0.923559 0.430659
O O15 0.146231 0.761413 0.500000
#
# Coordination Sequence:
#
# PCOD8294787 Si02
#       7
#    16  16   8  16  16  16  16
#     4  10  21  40  61  88 125 165 207 260 307 365
#     4  10  22  38  58  90 128 171 206 247 310 376
#     4  10  22  40  62  84 122 170 202 252 310 364
#     4  11  21  34  56  88 121 164 208 250 294 356
#     4  11  22  40  63  92 126 159 203 259 313 368
#     4  11  21  38  61  85 125 166 203 253 304 365
#     4  11  23  42  66  93 122 158 206 259 318 378
#
# _framework density 21.452178
#
# number of rings (size 3 to 8) (size 9 to 14) (size 15 to 20)
#    0.000    1.385    4.615    1.385    0.000    1.231 
#    0.000    2.692    0.000    5.077    0.000    0.000 
#    0.000    0.000    0.000    0.000    0.000    0.000 
#
# Total GULP energy -644189.069274 kJ/mol
# GULP energy per Si atom -12388.251332 kJ/mol
# Density = 2.140335 g / cm^3
# Si number density = 21.452178 Si / 1000 Ang^3
#
#
#
# Elastic Constant Matrix: (Units=GPa)
#
#
# Indices 1 2 3 4 5 6 
#
# 1 65.5763 24.0499 19.0110 0.0000 0.0000 0.0000
# 2 24.0499 112.2844 10.6933 0.0000 0.0000 0.0000
# 3 19.0110 10.6933 108.8862 0.0000 0.0000 0.0000
# 4 0.0000 0.0000 0.0000 27.7945 0.0000 0.0000
# 5 0.0000 0.0000 0.0000 0.0000 16.1670 0.0000
# 6 0.0000 0.0000 0.0000 0.0000 0.0000 43.9870
#
#
#
# Elastic Compliance Matrix: (Units=1/GPa)
#
#
# Indices 1 2 3 4 5 6 
#
# 1 0.017291 -0.003448 -0.002680 0.000000 0.000000 0.000000
# 2 -0.003448 0.009678 -0.000348 0.000000 0.000000 0.000000
# 3 -0.002680 -0.000348 0.009686 0.000000 0.000000 0.000000
# 4 0.000000 0.000000 0.000000 0.035978 0.000000 0.000000
# 5 0.000000 0.000000 0.000000 0.000000 0.061855 0.000000
# 6 0.000000 0.000000 0.000000 0.000000 0.000000 0.022734
#
#
# Mechanical properties :
#
#
# Convention : Reuss Voigt Hill
#
# Bulk Modulus (GPa) = 42.19229 43.80615 42.99922
# Shear Modulus (GPa) = 28.07790 33.12253 30.60022
#
# Velocity S-wave (km/s) = 3.62174 3.93366 3.78092
# Velocity P-wave (km/s) = 6.09919 6.41064 6.25685
#
# Compressibility (1/GPa) = 0.02370101
#
# Stress axis : x y z
#
# Youngs Moduli (GPa) = 57.83321 103.33022 103.24101
#
# Poissons Ratio (x) = 0.35631 0.27672
# Poissons Ratio (y) = 0.19943 0.03597
# Poissons Ratio (z) = 0.15501 0.03600
#
# Static dielectric constant tensor:
#      x y z
#    x 4.006220 0.000000 0.000000 
#    y 0.000000 4.438910 0.000000 
#    z 0.000000 0.000000 3.579740 
# 
# 
# High freq. dielectric constant tensor:
#      x y z
#    x 1.846420 0.000000 0.000000 
#    y 0.000000 1.873580 0.000000 
#    z 0.000000 0.000000 1.786530 
# 
# From -- ./inp_files/47423.got.cif
#   From: 2010.03.12/outbox.cif.g09.slc.cpg/sg72_24_cif.got.tgz:47423.got - 2010.04.16 14:54:00.
