data_PCOD8294593
_publ_section_title
;
Structure prediction by ZEFSAII (Michael W. Deem and Ramdas Pophale) SiO2 
 PCOD8294593
Probable space group: I B A M
;
_chemical_formula_sum "Si O2"
_cell_formula_units_Z 80
_cell_length_a 9.303557
_cell_length_b 29.611310
_cell_length_c 14.999128
_cell_angle_alpha 90.000000
_cell_angle_beta 90.000000
_cell_angle_gamma 90.000000
_cell_volume 4132.117429
_symmetry_space_group_name_H-M "I B A M"
_symmetry_group_IT_number 72
_symmetry_cell_setting 'orthorhombic'
loop_
_space_group_symop_operation_xyz
x,y,z
-x,-y,z
x,-y,1/2-z
-x,y,1/2-z
-x,-y,-z
x,y,-z
-x,y,1/2+z
x,-y,1/2+z
1/2+x,1/2+y,1/2+z
1/2-x,1/2-y,1/2+z
1/2+x,1/2-y,-z
1/2-x,1/2+y,-z
1/2-x,1/2-y,1/2-z
1/2+x,1/2+y,1/2-z
1/2-x,1/2+y,z
1/2+x,1/2-y,z
loop_
_atom_site_type_symbol
_atom_site_label
_atom_site_fract_x
_atom_site_fract_y
_atom_site_fract_z
Si Si1 0.390229 0.460831 0.604717
Si Si2 0.917256 0.137561 0.661223
Si Si3 0.080672 0.640954 0.158090
Si Si4 0.076028 0.799163 0.500000
Si Si5 0.085596 0.294432 0.500000
Si Si6 0.426090 0.041703 0.153995
O O1 0.500000 0.500000 0.632744
O O2 0.354079 0.461961 0.500000
O O3 0.459956 0.412897 0.630443
O O4 0.243615 0.468234 0.659399
O O5 0.748836 0.142340 0.679241
O O6 0.968572 0.172313 0.586185
O O7 0.000000 0.151026 0.750000
O O8 0.045515 0.591699 0.113951
O O9 0.000000 0.650571 0.250000
O O10 0.034017 0.678544 0.087363
O O11 0.244164 0.788187 0.500000
O O12 0.987417 0.753610 0.500000
O O13 0.500000 0.042332 0.250000
O O14 0.500000 0.000000 0.099185
#
# Coordination Sequence:
#
# PCOD8294593 Si02
#       6
#    16  16  16   8   8  16
#     4  10  21  37  58  86 121 159 199 241 288 345
#     4  10  21  38  63  83 115 155 189 238 288 343
#     4   9  20  38  58  84 116 150 195 231 286 344
#     4  10  22  42  59  86 112 146 193 234 295 352
#     4  10  22  40  63  80 114 154 181 240 297 344
#     4   9  19  35  56  83 119 155 197 237 282 341
#
# _framework density 19.360533
#
# number of rings (size 3 to 8) (size 9 to 14) (size 15 to 20)
#    0.000    2.400    1.000    0.000    4.200   11.200 
#    0.000    4.000    0.000    0.000    0.000    0.000 
#    0.000    0.000    0.000    0.000    0.000    0.000 
#
# Total GULP energy -495839.621292 kJ/mol
# GULP energy per Si atom -12395.990532 kJ/mol
# Density = 1.931647 g / cm^3
# Si number density = 19.360533 Si / 1000 Ang^3
#
#
#
# Elastic Constant Matrix: (Units=GPa)
#
#
# Indices 1 2 3 4 5 6 
#
# 1 75.3275 73.7113 62.0816 0.0001 0.0000 0.0000
# 2 73.7113 195.1288 77.8931 0.0001 0.0000 0.0000
# 3 62.0816 77.8931 122.6261 0.0000 -0.0003 0.0002
# 4 0.0001 0.0001 0.0000 11.1790 0.0001 0.0000
# 5 0.0000 0.0000 -0.0003 0.0001 28.1613 -0.0001
# 6 0.0000 0.0000 0.0002 0.0000 -0.0001 37.7284
#
#
#
# Elastic Compliance Matrix: (Units=1/GPa)
#
#
# Indices 1 2 3 4 5 6 
#
# 1 0.027909 -0.006568 -0.009957 0.000000 0.000000 0.000000
# 2 -0.006568 0.008411 -0.002018 0.000000 0.000000 0.000000
# 3 -0.009957 -0.002018 0.014478 0.000000 0.000000 0.000000
# 4 0.000000 0.000000 0.000000 0.089454 0.000000 0.000000
# 5 0.000000 0.000000 0.000000 0.000000 0.035510 0.000000
# 6 0.000000 0.000000 0.000000 0.000000 0.000000 0.026505
#
#
# Mechanical properties :
#
#
# Convention : Reuss Voigt Hill
#
# Bulk Modulus (GPa) = 72.93053 91.16162 82.04607
# Shear Modulus (GPa) = 20.49826 27.37350 23.93588
#
# Velocity S-wave (km/s) = 3.25740 3.76424 3.51995
# Velocity P-wave (km/s) = 7.20410 8.12904 7.68050
#
# Compressibility (1/GPa) = 0.01371168
#
# Stress axis : x y z
#
# Youngs Moduli (GPa) = 35.83110 118.88631 69.07171
#
# Poissons Ratio (x) = 0.78083 0.68777
# Poissons Ratio (y) = 0.23533 0.13938
# Poissons Ratio (z) = 0.35678 0.23990
#
# Static dielectric constant tensor:
#      x y z
#    x 3.399990 0.000000 0.000000 
#    y 0.000000 4.115590 0.000000 
#    z 0.000000 0.000000 3.424290 
# 
# 
# High freq. dielectric constant tensor:
#      x y z
#    x 1.744670 0.000000 0.000000 
#    y 0.000000 1.766950 0.000000 
#    z 0.000000 0.000000 1.748020 
# 
# From -- ./inp_files/28341.got.cif
#   From: 2010.03.12/outbox.cif.g09.slc.cpg/sg72_15_cif.got.tgz:28341.got - 2010.04.16 14:54:00.
