data_PCOD8294084
_publ_section_title
;
Structure prediction by ZEFSAII (Michael W. Deem and Ramdas Pophale) SiO2 
 PCOD8294084
Probable space group: I B A M
;
_chemical_formula_sum "Si O2"
_cell_formula_units_Z 96
_cell_length_a 14.097079
_cell_length_b 17.052452
_cell_length_c 20.729856
_cell_angle_alpha 90.000000
_cell_angle_beta 90.000000
_cell_angle_gamma 90.000000
_cell_volume 4983.245171
_symmetry_space_group_name_H-M "I B A M"
_symmetry_group_IT_number 72
_symmetry_cell_setting 'orthorhombic'
loop_
_space_group_symop_operation_xyz
x,y,z
-x,-y,z
x,-y,1/2-z
-x,y,1/2-z
-x,-y,-z
x,y,-z
-x,y,1/2+z
x,-y,1/2+z
1/2+x,1/2+y,1/2+z
1/2-x,1/2-y,1/2+z
1/2+x,1/2-y,-z
1/2-x,1/2+y,-z
1/2-x,1/2-y,1/2-z
1/2+x,1/2+y,1/2-z
1/2-x,1/2+y,z
1/2+x,1/2-y,z
loop_
_atom_site_type_symbol
_atom_site_label
_atom_site_fract_x
_atom_site_fract_y
_atom_site_fract_z
Si Si1 0.999771 0.775114 0.361871
Si Si2 0.202992 0.589341 0.249267
Si Si3 0.157864 0.085702 0.000000
Si Si4 0.707591 0.332604 0.627122
Si Si5 0.492223 0.704422 0.500000
Si Si6 0.702868 0.665609 0.372357
Si Si7 0.317887 0.594676 0.500000
Si Si8 0.500000 0.150495 0.250000
O O1 0.009944 0.743205 0.436017
O O2 0.093823 0.826641 0.347415
O O3 0.991656 0.703616 0.313441
O O4 0.905891 0.829270 0.359326
O O5 0.236546 0.500000 0.250000
O O6 0.247115 0.635997 0.308050
O O7 0.235899 0.627455 0.183263
O O8 0.089905 0.594402 0.254529
O O9 0.057190 0.127410 0.000000
O O10 0.214049 0.111482 0.064336
O O11 0.140576 0.992586 0.000000
O O12 0.752101 0.248969 0.610256
O O13 0.736681 0.390973 0.567901
O O14 0.388661 0.668315 0.500000
#
# Coordination Sequence:
#
# PCOD8294084 Si02
#       8
#    16  16   8  16   8  16   8   8
#     4  10  20  36  63  90 113 148 200 244 284 342
#     4  12  25  40  59  87 121 156 195 244 297 344
#     4  10  20  35  57  87 121 154 189 234 295 351
#     4  11  21  39  61  88 116 157 198 242 286 347
#     4   8  19  34  56  88 119 150 184 236 297 342
#     4  11  21  39  61  88 116 157 198 242 286 347
#     4  10  20  35  57  87 121 154 189 234 295 351
#     4  12  21  40  60  82 119 154 200 240 289 346
#
# _framework density 19.264554
#
# number of rings (size 3 to 8) (size 9 to 14) (size 15 to 20)
#    0.000    1.333    3.333    3.500    0.000    0.000 
#    0.000    3.333    0.000    0.000    0.000    5.833 
#    0.000    0.000    0.000    0.000    0.000    0.000 
#
# Total GULP energy -595031.749716 kJ/mol
# GULP energy per Si atom -12396.494786 kJ/mol
# Density = 1.922071 g / cm^3
# Si number density = 19.264554 Si / 1000 Ang^3
#
#
#
# Elastic Constant Matrix: (Units=GPa)
#
#
# Indices 1 2 3 4 5 6 
#
# 1 105.8274 7.3569 18.1252 0.0000 0.0000 0.0000
# 2 7.3569 72.7787 26.5089 0.0000 0.0000 0.0000
# 3 18.1252 26.5089 124.9626 0.0000 0.0000 0.0000
# 4 0.0000 0.0000 0.0000 36.8437 0.0000 0.0000
# 5 0.0000 0.0000 0.0000 0.0000 39.3549 0.0000
# 6 0.0000 0.0000 0.0000 0.0000 0.0000 11.1237
#
#
#
# Elastic Compliance Matrix: (Units=1/GPa)
#
#
# Indices 1 2 3 4 5 6 
#
# 1 0.009707 -0.000508 -0.001300 0.000000 0.000000 0.000000
# 2 -0.000508 0.014917 -0.003091 0.000000 0.000000 0.000000
# 3 -0.001300 -0.003091 0.008847 0.000000 0.000000 0.000000
# 4 0.000000 0.000000 0.000000 0.027142 0.000000 0.000000
# 5 0.000000 0.000000 0.000000 0.000000 0.025410 0.000000
# 6 0.000000 0.000000 0.000000 0.000000 0.000000 0.089898
#
#
# Mechanical properties :
#
#
# Convention : Reuss Voigt Hill
#
# Bulk Modulus (GPa) = 42.24084 45.28342 43.76213
# Shear Modulus (GPa) = 25.82508 34.23631 30.03069
#
# Velocity S-wave (km/s) = 3.66532 4.22022 3.95252
# Velocity P-wave (km/s) = 6.31562 6.87780 6.60270
#
# Compressibility (1/GPa) = 0.02367377
#
# Stress axis : x y z
#
# Youngs Moduli (GPa) = 103.01477 67.03579 113.03682
#
# Poissons Ratio (x) = 0.03403 0.14698
# Poissons Ratio (y) = 0.05230 0.34938
# Poissons Ratio (z) = 0.13395 0.20720
#
# Static dielectric constant tensor:
#      x y z
#    x 3.661490 0.000000 0.000000 
#    y 0.000000 3.254990 0.000000 
#    z 0.000000 0.000000 4.038370 
# 
# 
# High freq. dielectric constant tensor:
#      x y z
#    x 1.750500 0.000000 0.000000 
#    y 0.000000 1.723170 0.000000 
#    z 0.000000 0.000000 1.776550 
# 
# From -- ./inp_files/38098.got.cif
#   From: 2010.03.12/outbox.cif.g09.slc.cpg/sg72_20_cif.got.tgz:38098.got - 2010.04.16 14:54:00.
