data_PCOD8294316
_publ_section_title
;
Structure prediction by ZEFSAII (Michael W. Deem and Ramdas Pophale) SiO2 
 PCOD8294316
Probable space group: I B A M
;
_chemical_formula_sum "Si O2"
_cell_formula_units_Z 116
_cell_length_a 9.348386
_cell_length_b 27.140374
_cell_length_c 21.863389
_cell_angle_alpha 90.000000
_cell_angle_beta 90.000000
_cell_angle_gamma 90.000000
_cell_volume 5547.150467
_symmetry_space_group_name_H-M "I B A M"
_symmetry_group_IT_number 72
_symmetry_cell_setting 'orthorhombic'
loop_
_space_group_symop_operation_xyz
x,y,z
-x,-y,z
x,-y,1/2-z
-x,y,1/2-z
-x,-y,-z
x,y,-z
-x,y,1/2+z
x,-y,1/2+z
1/2+x,1/2+y,1/2+z
1/2-x,1/2-y,1/2+z
1/2+x,1/2-y,-z
1/2-x,1/2+y,-z
1/2-x,1/2-y,1/2-z
1/2+x,1/2+y,1/2-z
1/2-x,1/2+y,z
1/2+x,1/2-y,z
loop_
_atom_site_type_symbol
_atom_site_label
_atom_site_fract_x
_atom_site_fract_y
_atom_site_fract_z
Si Si1 0.185529 0.300688 0.361621
Si Si2 0.840116 0.605892 0.070011
Si Si3 0.876137 0.918454 0.331372
Si Si4 0.500000 0.500000 0.750000
Si Si5 0.657080 0.897731 0.068176
Si Si6 0.850764 0.711214 0.875386
Si Si7 0.935519 0.053313 0.431234
Si Si8 0.840493 0.181771 0.236502
O O1 0.209681 0.353404 0.390844
O O2 0.286474 0.262765 0.401150
O O3 0.239107 0.309437 0.293367
O O4 0.018638 0.284128 0.360046
O O5 0.754101 0.575905 0.121005
O O6 0.826770 0.665030 0.079699
O O7 0.997744 0.585555 0.084345
O O8 0.792556 0.594101 0.000000
O O9 0.894963 0.967858 0.292200
O O10 0.857712 0.875323 0.282399
O O11 0.008107 0.909438 0.378613
O O12 0.763121 0.944761 0.074376
O O13 0.656806 0.876275 0.000000
O O14 0.744195 0.708782 0.817172
O O15 0.981976 0.069801 0.500000
O O16 0.000000 0.000000 0.416413
O O17 0.000000 0.203370 0.250000
#
# Coordination Sequence:
#
# PCOD8294316 Si02
#       8
#    16  16  16   4  16  16  16  16
#     4  11  21  36  56  82 120 159 201 246 303 360
#     4   9  20  41  64  88 122 162 203 248 311 374
#     4  11  22  38  61  89 119 157 200 254 310 366
#     4  12  24  40  62  94 128 156 202 266 316 372
#     4   9  20  38  61  87 118 156 198 249 307 369
#     4  10  22  36  56  86 118 157 203 254 296 360
#     4  10  20  37  63  91 118 150 198 255 313 374
#     4  11  21  35  56  81 114 159 203 247 299 361
#
# _framework density 20.911636999999999
#
# number of rings (size 3 to 8) (size 9 to 14) (size 15 to 20)
#    0.000    1.793    1.379    2.897    0.000    1.655 
#    0.000    0.690    0.000    4.138    0.000    0.000 
#    0.000    0.000    0.000    0.000    0.000    0.000 
#
# Total GULP energy -718528.135019 kJ/mol
# GULP energy per Si atom -12388.416121 kJ/mol
# Density = 2.086404 g / cm^3
# Si number density = 20.911637 Si / 1000 Ang^3
#
#
#
# Elastic Constant Matrix: (Units=GPa)
#
#
# Indices 1 2 3 4 5 6 
#
# 1 160.1317 52.7345 45.3465 0.0003 0.0000 0.0000
# 2 52.7345 76.0709 29.3800 0.0006 0.0000 0.0000
# 3 45.3465 29.3800 70.4439 0.0015 0.0000 0.0000
# 4 0.0003 0.0006 0.0015 -297.7437 0.0000 0.0003
# 5 0.0000 0.0000 0.0000 0.0000 30.9152 0.0000
# 6 0.0000 0.0000 0.0000 0.0003 0.0000 32.5835
#
#
#
# Elastic Compliance Matrix: (Units=1/GPa)
#
#
# Indices 1 2 3 4 5 6 
#
# 1 0.008848 -0.004689 -0.003740 0.000000 0.000000 0.000000
# 2 -0.004689 0.018155 -0.004553 0.000000 0.000000 0.000000
# 3 -0.003740 -0.004553 0.018502 0.000000 0.000000 0.000000
# 4 0.000000 0.000000 0.000000 -0.003359 0.000000 0.000000
# 5 0.000000 0.000000 0.000000 0.000000 0.032347 0.000000
# 6 0.000000 0.000000 0.000000 0.000000 0.000000 0.030690
#
#
# Mechanical properties :
#
#
# Convention : Reuss Voigt Hill
#
# Bulk Modulus (GPa) = 51.17653 62.39650 56.78651
# Shear Modulus (GPa) = 36.32069 -34.90330 0.70870
#
# Velocity S-wave (km/s) = 4.17209 -4.08988 0.58278
# Velocity P-wave (km/s) = 6.90901 2.75684 5.25997
#
# Compressibility (1/GPa) = 0.01954021
#
# Stress axis : x y z
#
# Youngs Moduli (GPa) = 113.01627 55.08132 54.04747
#
# Poissons Ratio (x) = 0.25830 0.20214
# Poissons Ratio (y) = 0.52998 0.24609
# Poissons Ratio (z) = 0.42269 0.25080
#
# Static dielectric constant tensor:
#      x y z
#    x 4.177750 0.000000 0.000000 
#    y 0.000000 3.741080 0.000000 
#    z 0.000000 0.000000 3.898190 
# 
# 
# High freq. dielectric constant tensor:
#      x y z
#    x 1.829760 0.000000 0.000000 
#    y 0.000000 1.806370 0.000000 
#    z 0.000000 0.000000 1.823130 
# 
# From -- ./inp_files/42716.got.cif
#   From: 2010.03.12/outbox.cif.g09.slc.cpg/sg72_22_cif.got.tgz:42716.got - 2010.04.16 14:54:00.
