data_PCOD8294024
_publ_section_title
;
Structure prediction by ZEFSAII (Michael W. Deem and Ramdas Pophale) SiO2 
 PCOD8294024
Probable space group: I B A M
;
_chemical_formula_sum "Si O2"
_cell_formula_units_Z 116
_cell_length_a 15.401958
_cell_length_b 21.362542
_cell_length_c 17.776360
_cell_angle_alpha 90.000000
_cell_angle_beta 90.000000
_cell_angle_gamma 90.000000
_cell_volume 5848.866398
_symmetry_space_group_name_H-M "I B A M"
_symmetry_group_IT_number 72
_symmetry_cell_setting 'orthorhombic'
loop_
_space_group_symop_operation_xyz
x,y,z
-x,-y,z
x,-y,1/2-z
-x,y,1/2-z
-x,-y,-z
x,y,-z
-x,y,1/2+z
x,-y,1/2+z
1/2+x,1/2+y,1/2+z
1/2-x,1/2-y,1/2+z
1/2+x,1/2-y,-z
1/2-x,1/2+y,-z
1/2-x,1/2-y,1/2-z
1/2+x,1/2+y,1/2-z
1/2-x,1/2+y,z
1/2+x,1/2-y,z
loop_
_atom_site_type_symbol
_atom_site_label
_atom_site_fract_x
_atom_site_fract_y
_atom_site_fract_z
Si Si1 0.965410 0.158253 0.581400
Si Si2 0.707835 0.903010 0.088858
Si Si3 0.000000 0.000000 0.750000
Si Si4 0.600158 0.069886 0.728300
Si Si5 0.732796 0.842031 0.694168
Si Si6 0.139080 0.101428 0.415049
Si Si7 0.883592 0.962808 0.878335
Si Si8 0.194427 0.793234 0.654736
O O1 0.964672 0.191662 0.500000
O O2 0.924066 0.089434 0.567860
O O3 0.907773 0.198091 0.638457
O O4 0.064400 0.150805 0.609386
O O5 0.621314 0.916311 0.139373
O O6 0.780236 0.949214 0.125388
O O7 0.742468 0.831394 0.097694
O O8 0.689641 0.916471 0.000000
O O9 0.934279 0.956555 0.798505
O O10 0.500000 0.078102 0.750000
O O11 0.648105 0.122446 0.777249
O O12 0.631117 0.000000 0.750000
O O13 0.781289 0.890984 0.640919
O O14 0.793329 0.820248 0.762216
O O15 0.710790 0.780318 0.646180
O O16 0.169903 0.114044 0.500000
O O17 0.099933 0.031830 0.409919
#
# Coordination Sequence:
#
# PCOD8294024 Si02
#       8
#    16  16   4  16  16  16  16  16
#     4  10  20  35  54  80 118 159 190 229 285 355
#     4  10  21  38  65  89 119 166 208 250 308 375
#     4  12  24  28  50  92 126 164 186 236 282 360
#     4  10  22  42  66  91 120 155 207 268 321 368
#     4  10  22  39  58  84 113 149 198 252 307 353
#     4  11  22  34  53  84 120 152 188 238 296 355
#     4  11  21  32  53  86 125 156 196 233 290 358
#     4   9  20  38  57  81 111 154 199 243 288 362
#
# _framework density 19.832903000000002
#
# number of rings (size 3 to 8) (size 9 to 14) (size 15 to 20)
#    0.000    1.793    1.379    3.310    6.759    2.759 
#    7.448    2.069    0.000    0.000    0.000    0.000 
#    0.000    0.000    0.000    0.000    0.000    0.000 
#
# Total GULP energy -718805.915316 kJ/mol
# GULP energy per Si atom -12393.205436 kJ/mol
# Density = 1.978776 g / cm^3
# Si number density = 19.832903 Si / 1000 Ang^3
#
#
#
# Elastic Constant Matrix: (Units=GPa)
#
#
# Indices 1 2 3 4 5 6 
#
# 1 96.8020 23.3059 60.4521 0.0000 0.0000 0.0000
# 2 23.3059 82.3030 30.5170 -0.0002 0.0000 0.0000
# 3 60.4521 30.5170 108.4723 -0.0004 0.0001 0.0000
# 4 0.0000 -0.0002 -0.0004 20.8035 0.0001 0.0000
# 5 0.0000 0.0000 0.0001 0.0001 24.8515 0.0000
# 6 0.0000 0.0000 0.0000 0.0000 0.0000 19.6775
#
#
#
# Elastic Compliance Matrix: (Units=1/GPa)
#
#
# Indices 1 2 3 4 5 6 
#
# 1 0.015981 -0.001365 -0.008522 0.000000 0.000000 0.000000
# 2 -0.001365 0.013682 -0.003088 0.000000 0.000000 0.000000
# 3 -0.008522 -0.003088 0.014837 0.000000 0.000000 0.000000
# 4 0.000000 0.000000 0.000000 0.048069 0.000000 0.000000
# 5 0.000000 0.000000 0.000000 0.000000 0.040239 0.000000
# 6 0.000000 0.000000 0.000000 0.000000 0.000000 0.050820
#
#
# Mechanical properties :
#
#
# Convention : Reuss Voigt Hill
#
# Bulk Modulus (GPa) = 53.91263 57.34750 55.63007
# Shear Modulus (GPa) = 23.17365 24.62000 23.89682
#
# Velocity S-wave (km/s) = 3.42196 3.52713 3.47494
# Velocity P-wave (km/s) = 6.54641 6.75023 6.64910
#
# Compressibility (1/GPa) = 0.01854853
#
# Stress axis : x y z
#
# Youngs Moduli (GPa) = 62.57357 73.08891 67.39798
#
# Poissons Ratio (x) = 0.09980 0.57438
# Poissons Ratio (y) = 0.08544 0.20814
# Poissons Ratio (z) = 0.53327 0.22571
#
# Static dielectric constant tensor:
#      x y z
#    x 3.499420 0.000000 0.000000 
#    y 0.000000 3.604620 0.000000 
#    z 0.000000 0.000000 3.572730 
# 
# 
# High freq. dielectric constant tensor:
#      x y z
#    x 1.760590 0.000000 0.000000 
#    y 0.000000 1.758850 0.000000 
#    z 0.000000 0.000000 1.773500 
# 
# From -- ./inp_files/30885.got.cif
#   From: 2010.03.12/outbox.cif.g09.slc.cpg/sg72_16_cif.got.tgz:30885.got - 2010.04.16 14:54:00.
