data_PCOD8294223
_publ_section_title
;
Structure prediction by ZEFSAII (Michael W. Deem and Ramdas Pophale) SiO2 
 PCOD8294223
Probable space group: I B A M
;
_chemical_formula_sum "Si O2"
_cell_formula_units_Z 48
_cell_length_a 9.607698
_cell_length_b 23.295878
_cell_length_c 9.079624
_cell_angle_alpha 90.000000
_cell_angle_beta 90.000000
_cell_angle_gamma 90.000000
_cell_volume 2032.199269
_symmetry_space_group_name_H-M "I B A M"
_symmetry_group_IT_number 72
_symmetry_cell_setting 'orthorhombic'
loop_
_space_group_symop_operation_xyz
x,y,z
-x,-y,z
x,-y,1/2-z
-x,y,1/2-z
-x,-y,-z
x,y,-z
-x,y,1/2+z
x,-y,1/2+z
1/2+x,1/2+y,1/2+z
1/2-x,1/2-y,1/2+z
1/2+x,1/2-y,-z
1/2-x,1/2+y,-z
1/2-x,1/2-y,1/2-z
1/2+x,1/2+y,1/2-z
1/2-x,1/2+y,z
1/2+x,1/2-y,z
loop_
_atom_site_type_symbol
_atom_site_label
_atom_site_fract_x
_atom_site_fract_y
_atom_site_fract_z
Si Si1 0.236340 0.874684 0.251191
Si Si2 0.782308 0.456326 0.000000
Si Si3 0.777302 0.788423 0.000000
Si Si4 0.602098 0.922252 0.500000
Si Si5 0.090523 0.819829 0.000000
O O1 0.206333 0.930319 0.355062
O O2 0.276163 0.821061 0.354691
O O3 0.368914 0.885983 0.146859
O O4 0.104071 0.859647 0.146063
O O5 0.785281 0.525013 0.000000
O O6 0.943213 0.438480 0.000000
O O7 0.945096 0.787020 0.000000
O O8 0.718908 0.724570 0.000000
#
# Coordination Sequence:
#
# PCOD8294223 Si02
#       5
#    16   8   8   8   8
#     4  10  22  37  59  89 124 160 198 254 314 364
#     4  10  20  36  61  93 126 162 208 258 304 359
#     4  11  24  42  64  90 123 162 208 258 309 370
#     4  10  20  36  61  93 126 162 208 258 304 359
#     4  11  24  42  64  90 123 162 208 258 309 370
#
# _framework density 23.619731000000002
#
# number of rings (size 3 to 8) (size 9 to 14) (size 15 to 20)
#    0.000    1.667    0.000    4.000    0.000   10.667 
#    0.000    0.000    0.000   70.000    0.000    0.000 
#    0.000    0.000    0.000    0.000    0.000    0.000 
#
# Total GULP energy -297516.261166 kJ/mol
# GULP energy per Si atom -12396.510882 kJ/mol
# Density = 2.356597 g / cm^3
# Si number density = 23.619731 Si / 1000 Ang^3
#
#
#
# Elastic Constant Matrix: (Units=GPa)
#
#
# Indices 1 2 3 4 5 6 
#
# 1 91.6214 55.4990 41.3573 0.0000 0.0006 0.0000
# 2 55.4990 97.7068 52.2799 -0.0004 -0.0010 0.0000
# 3 41.3573 52.2799 194.4487 -0.0008 0.0054 0.0001
# 4 0.0000 -0.0004 -0.0008 22.7687 0.0016 0.0000
# 5 0.0006 -0.0010 0.0054 0.0016 -63.5528 -0.0001
# 6 0.0000 0.0000 0.0001 0.0000 -0.0001 33.5634
#
#
#
# Elastic Compliance Matrix: (Units=1/GPa)
#
#
# Indices 1 2 3 4 5 6 
#
# 1 0.016869 -0.008950 -0.001182 0.000000 0.000000 0.000000
# 2 -0.008950 0.016703 -0.002587 0.000000 -0.000001 0.000000
# 3 -0.001182 -0.002587 0.006090 0.000000 0.000001 0.000000
# 4 0.000000 0.000000 0.000000 0.043920 0.000001 0.000000
# 5 0.000000 -0.000001 0.000001 0.000001 -0.015735 0.000000
# 6 0.000000 0.000000 0.000000 0.000000 0.000000 0.029794
#
#
# Mechanical properties :
#
#
# Convention : Reuss Voigt Hill
#
# Bulk Modulus (GPa) = 70.30209 75.78325 73.04267
# Shear Modulus (GPa) = 39.11780 14.19856 26.65818
#
# Velocity S-wave (km/s) = 4.07400 2.45446 3.36317
# Velocity P-wave (km/s) = 7.20824 6.33931 6.78769
#
# Compressibility (1/GPa) = 0.01422433
#
# Stress axis : x y z
#
# Youngs Moduli (GPa) = 59.28026 59.87109 164.21244
#
# Poissons Ratio (x) = 0.53582 0.19404
# Poissons Ratio (y) = 0.53053 0.42485
# Poissons Ratio (z) = 0.07005 0.15490
#
# Static dielectric constant tensor:
#      x y z
#    x 3.748810 0.000000 0.000000 
#    y 0.000000 4.352670 0.000000 
#    z 0.000000 0.000000 4.705620 
# 
# 
# High freq. dielectric constant tensor:
#      x y z
#    x 1.900520 0.000000 0.000000 
#    y 0.000000 1.926550 0.000000 
#    z 0.000000 0.000000 1.967080 
# 
# From -- ./inp_files/1755.got.cif
#   From: 2010.03.12/outbox.cif.g09.slc.cpg/sg72_1_cif.got.tgz:1755.got - 2010.04.16 14:54:00.
