data_PCOD8294833
_publ_section_title
;
Structure prediction by ZEFSAII (Michael W. Deem and Ramdas Pophale) SiO2 
 PCOD8294833
Probable space group: I B A M
;
_chemical_formula_sum "Si O2"
_cell_formula_units_Z 128
_cell_length_a 11.711959
_cell_length_b 23.158870
_cell_length_c 22.726935
_cell_angle_alpha 90.000000
_cell_angle_beta 90.000000
_cell_angle_gamma 90.000000
_cell_volume 6164.356940
_symmetry_space_group_name_H-M "I B A M"
_symmetry_group_IT_number 72
_symmetry_cell_setting 'orthorhombic'
loop_
_space_group_symop_operation_xyz
x,y,z
-x,-y,z
x,-y,1/2-z
-x,y,1/2-z
-x,-y,-z
x,y,-z
-x,y,1/2+z
x,-y,1/2+z
1/2+x,1/2+y,1/2+z
1/2-x,1/2-y,1/2+z
1/2+x,1/2-y,-z
1/2-x,1/2+y,-z
1/2-x,1/2-y,1/2-z
1/2+x,1/2+y,1/2-z
1/2-x,1/2+y,z
1/2+x,1/2-y,z
loop_
_atom_site_type_symbol
_atom_site_label
_atom_site_fract_x
_atom_site_fract_y
_atom_site_fract_z
Si Si1 0.810678 0.888122 0.652212
Si Si2 0.247651 0.818354 0.738377
Si Si3 0.963739 0.370060 0.933697
Si Si4 0.291009 0.485444 0.686344
Si Si5 0.717798 0.313928 0.933644
Si Si6 0.419371 0.096616 0.192695
Si Si7 0.694647 0.189609 0.065813
Si Si8 0.422992 0.623486 0.156279
O O1 0.738240 0.854869 0.701938
O O2 0.767407 0.862938 0.591216
O O3 0.942485 0.874685 0.662319
O O4 0.782396 0.955901 0.649175
O O5 0.250000 0.750000 0.750000
O O6 0.352403 0.841371 0.697450
O O7 0.129000 0.836839 0.708132
O O8 0.839647 0.343148 0.928610
O O9 0.980252 0.407177 0.872595
O O10 0.059132 0.320843 0.930948
O O11 0.973466 0.400902 0.000000
O O12 0.341792 0.500000 0.750000
O O13 0.167443 0.456687 0.693632
O O14 0.381407 0.442557 0.657254
O O15 0.721053 0.250816 0.902151
O O16 0.618843 0.352354 0.905754
O O17 0.677367 0.305483 0.000000
O O18 0.500000 0.089479 0.250000
O O19 0.739995 0.193822 0.000000
#
# Coordination Sequence:
#
# PCOD8294833 Si02
#       8
#    16  16  16  16  16  16  16  16
#     4  12  24  40  65  91 131 170 211 274 324 386
#     4  11  23  39  56  93 132 167 211 263 335 396
#     4  10  21  42  68  94 132 174 215 273 334 400
#     4  11  23  44  62  93 124 170 222 268 325 391
#     4  10  21  41  67  95 129 171 219 268 326 400
#     4  11  23  42  66  97 133 174 229 280 333 403
#     4  10  24  42  64  96 130 172 218 263 330 400
#     4  11  23  40  65  95 125 168 221 264 329 393
#
# _framework density 20.764534000000001
#
# number of rings (size 3 to 8) (size 9 to 14) (size 15 to 20)
#    0.000    1.250    5.000    2.250    1.750    2.250 
#    0.000    1.250    0.000    3.000    0.000    0.000 
#    0.000    0.000    0.000    0.000    0.000    0.000 
#
# Total GULP energy -793146.227647 kJ/mol
# GULP energy per Si atom -12392.909807 kJ/mol
# Density = 2.071727 g / cm^3
# Si number density = 20.764534 Si / 1000 Ang^3
#
#
#
# Elastic Constant Matrix: (Units=GPa)
#
#
# Indices 1 2 3 4 5 6 
#
# 1 62.8575 20.6275 25.6143 0.0000 0.0000 0.0000
# 2 20.6275 141.7231 42.4587 0.0000 0.0000 0.0000
# 3 25.6143 42.4587 123.7200 0.0000 0.0000 0.0000
# 4 0.0000 0.0000 0.0000 26.1934 0.0000 0.0000
# 5 0.0000 0.0000 0.0000 0.0000 21.7499 0.0000
# 6 0.0000 0.0000 0.0000 0.0000 0.0000 8.8533
#
#
#
# Elastic Compliance Matrix: (Units=1/GPa)
#
#
# Indices 1 2 3 4 5 6 
#
# 1 0.017714 -0.001649 -0.003101 0.000000 0.000000 0.000000
# 2 -0.001649 0.008018 -0.002410 0.000000 0.000000 0.000000
# 3 -0.003101 -0.002410 0.009552 0.000000 0.000000 0.000000
# 4 0.000000 0.000000 0.000000 0.038178 0.000000 0.000000
# 5 0.000000 0.000000 0.000000 0.000000 0.045977 0.000000
# 6 0.000000 0.000000 0.000000 0.000000 0.000000 0.112952
#
#
# Mechanical properties :
#
#
# Convention : Reuss Voigt Hill
#
# Bulk Modulus (GPa) = 47.70414 56.18906 51.94660
# Shear Modulus (GPa) = 19.70832 27.33267 23.52050
#
# Velocity S-wave (km/s) = 3.08414 3.63204 3.36925
# Velocity P-wave (km/s) = 5.97548 6.68639 6.34090
#
# Compressibility (1/GPa) = 0.02096254
#
# Stress axis : x y z
#
# Youngs Moduli (GPa) = 56.45249 124.71748 104.68958
#
# Poissons Ratio (x) = 0.20567 0.32469
# Poissons Ratio (y) = 0.09309 0.25233
# Poissons Ratio (z) = 0.17509 0.30060
#
# Static dielectric constant tensor:
#      x y z
#    x 3.655470 0.000000 0.000000 
#    y 0.000000 3.865140 0.000000 
#    z 0.000000 0.000000 4.271950 
# 
# 
# High freq. dielectric constant tensor:
#      x y z
#    x 1.811790 0.000000 0.000000 
#    y 0.000000 1.803160 0.000000 
#    z 0.000000 0.000000 1.822020 
# 
# From -- ./inp_files/43696.got.cif
#   From: 2010.03.12/outbox.cif.g09.slc.cpg/sg72_22_cif.got.tgz:43696.got - 2010.04.16 14:54:00.
