data_PCOD8294595
_publ_section_title
;
Structure prediction by ZEFSAII (Michael W. Deem and Ramdas Pophale) SiO2 
 PCOD8294595
Probable space group: I B A M
;
_chemical_formula_sum "Si O2"
_cell_formula_units_Z 116
_cell_length_a 24.672135
_cell_length_b 26.171668
_cell_length_c 8.814786
_cell_angle_alpha 90.000000
_cell_angle_beta 90.000000
_cell_angle_gamma 90.000000
_cell_volume 5691.803631
_symmetry_space_group_name_H-M "I B A M"
_symmetry_group_IT_number 72
_symmetry_cell_setting 'orthorhombic'
loop_
_space_group_symop_operation_xyz
x,y,z
-x,-y,z
x,-y,1/2-z
-x,y,1/2-z
-x,-y,-z
x,y,-z
-x,y,1/2+z
x,-y,1/2+z
1/2+x,1/2+y,1/2+z
1/2-x,1/2-y,1/2+z
1/2+x,1/2-y,-z
1/2-x,1/2+y,-z
1/2-x,1/2-y,1/2-z
1/2+x,1/2+y,1/2-z
1/2-x,1/2+y,z
1/2+x,1/2-y,z
loop_
_atom_site_type_symbol
_atom_site_label
_atom_site_fract_x
_atom_site_fract_y
_atom_site_fract_z
Si Si1 0.442051 0.684948 0.678718
Si Si2 0.359056 0.850171 0.328555
Si Si3 0.245557 0.305419 0.822028
Si Si4 0.000000 0.000000 0.250000
Si Si5 0.196548 0.906275 0.175964
Si Si6 0.441839 0.216597 0.322168
Si Si7 0.802478 0.449778 0.172654
Si Si8 0.088591 0.918079 0.330373
O O1 0.500000 0.694426 0.750000
O O2 0.442334 0.689890 0.500000
O O3 0.410056 0.733333 0.751227
O O4 0.424235 0.628283 0.718653
O O5 0.370170 0.830821 0.500000
O O6 0.302398 0.829785 0.270778
O O7 0.406622 0.832968 0.217072
O O8 0.353223 0.911195 0.322847
O O9 0.250000 0.250000 0.750000
O O10 0.297731 0.343972 0.800220
O O11 0.231924 0.300690 0.000000
O O12 0.042177 0.962463 0.336565
O O13 0.251545 0.932390 0.227444
O O14 0.147978 0.933956 0.270707
O O15 0.185777 0.918159 0.000000
O O16 0.500000 0.206889 0.250000
O O17 0.447539 0.223971 0.500000
O O18 0.826313 0.500000 0.250000
O O19 0.782884 0.458347 0.000000
O O20 0.093284 0.896917 0.500000
#
# Coordination Sequence:
#
# PCOD8294595 Si02
#       8
#    16  16  16   4  16  16  16  16
#     4  11  22  39  61  85 116 152 198 248 300 362
#     4  10  21  38  60  89 124 161 203 250 302 364
#     4  10  21  37  58  87 123 162 202 247 307 374
#     4  12  30  48  68  86 122 160 214 280 334 384
#     4  10  23  41  61  87 120 158 203 254 311 373
#     4  11  22  38  62  92 126 165 205 248 300 361
#     4  10  21  39  64  91 122 159 202 250 303 362
#     4  12  26  44  65  87 115 155 207 260 321 382
#
# _framework density 20.380182000000001
#
# number of rings (size 3 to 8) (size 9 to 14) (size 15 to 20)
#    0.000    1.379    0.690    5.586    2.897    4.966 
#    0.000    0.000    0.000    0.414    0.000    2.897 
#    0.000    0.000    0.000    0.000    0.000    0.000 
#
# Total GULP energy -718622.216759 kJ/mol
# GULP energy per Si atom -12390.038220 kJ/mol
# Density = 2.033380 g / cm^3
# Si number density = 20.380182 Si / 1000 Ang^3
#
#
#
# Elastic Constant Matrix: (Units=GPa)
#
#
# Indices 1 2 3 4 5 6 
#
# 1 68.6290 35.2860 29.3746 0.0000 0.0000 0.0000
# 2 35.2860 107.9597 47.2115 0.0000 0.0000 0.0000
# 3 29.3746 47.2115 155.8831 0.0000 0.0000 0.0000
# 4 0.0000 0.0000 0.0000 28.4762 0.0000 0.0000
# 5 0.0000 0.0000 0.0000 0.0000 30.1625 0.0000
# 6 0.0000 0.0000 0.0000 0.0000 0.0000 24.0500
#
#
#
# Elastic Compliance Matrix: (Units=1/GPa)
#
#
# Indices 1 2 3 4 5 6 
#
# 1 0.017967 -0.005062 -0.001852 0.000000 0.000000 0.000000
# 2 -0.005062 0.012103 -0.002712 0.000000 0.000000 0.000000
# 3 -0.001852 -0.002712 0.007585 0.000000 0.000000 0.000000
# 4 0.000000 0.000000 0.000000 0.035117 0.000000 0.000000
# 5 0.000000 0.000000 0.000000 0.000000 0.033154 0.000000
# 6 0.000000 0.000000 0.000000 0.000000 0.000000 0.041580
#
#
# Mechanical properties :
#
#
# Convention : Reuss Voigt Hill
#
# Bulk Modulus (GPa) = 54.34040 61.80177 58.07109
# Shear Modulus (GPa) = 28.91961 31.24440 30.08200
#
# Velocity S-wave (km/s) = 3.77106 3.91970 3.84610
# Velocity P-wave (km/s) = 6.75888 7.13272 6.94831
#
# Compressibility (1/GPa) = 0.01840251
#
# Stress axis : x y z
#
# Youngs Moduli (GPa) = 55.65823 82.62337 131.83189
#
# Poissons Ratio (x) = 0.41826 0.24422
# Poissons Ratio (y) = 0.28176 0.35749
# Poissons Ratio (z) = 0.10311 0.22405
#
# Static dielectric constant tensor:
#      x y z
#    x 3.663500 0.000000 0.000000 
#    y 0.000000 4.502720 0.000000 
#    z 0.000000 0.000000 3.763560 
# 
# 
# High freq. dielectric constant tensor:
#      x y z
#    x 1.775930 0.000000 0.000000 
#    y 0.000000 1.801630 0.000000 
#    z 0.000000 0.000000 1.813720 
# 
# From -- ./inp_files/7302.got.cif
#   From: 2010.03.12/outbox.cif.g09.slc.cpg/sg72_4_cif.got.tgz:7302.got - 2010.04.16 14:54:00.
