data_PCOD8294795
_publ_section_title
;
Structure prediction by ZEFSAII (Michael W. Deem and Ramdas Pophale) SiO2 
 PCOD8294795
Probable space group: I B A M
;
_chemical_formula_sum "Si O2"
_cell_formula_units_Z 96
_cell_length_a 21.377956
_cell_length_b 13.505488
_cell_length_c 14.811195
_cell_angle_alpha 90.000000
_cell_angle_beta 90.000000
_cell_angle_gamma 90.000000
_cell_volume 4276.284195
_symmetry_space_group_name_H-M "I B A M"
_symmetry_group_IT_number 72
_symmetry_cell_setting 'orthorhombic'
loop_
_space_group_symop_operation_xyz
x,y,z
-x,-y,z
x,-y,1/2-z
-x,y,1/2-z
-x,-y,-z
x,y,-z
-x,y,1/2+z
x,-y,1/2+z
1/2+x,1/2+y,1/2+z
1/2-x,1/2-y,1/2+z
1/2+x,1/2-y,-z
1/2-x,1/2+y,-z
1/2-x,1/2-y,1/2-z
1/2+x,1/2+y,1/2-z
1/2-x,1/2+y,z
1/2+x,1/2-y,z
loop_
_atom_site_type_symbol
_atom_site_label
_atom_site_fract_x
_atom_site_fract_y
_atom_site_fract_z
Si Si1 0.044071 0.633050 0.103407
Si Si2 0.136291 0.524149 0.650410
Si Si3 0.660467 0.272708 0.397725
Si Si4 0.360480 0.603091 0.773189
Si Si5 0.082862 0.725327 0.392860
Si Si6 0.248586 0.598076 0.097881
O O1 0.066802 0.524449 0.136914
O O2 0.100150 0.707000 0.123296
O O3 0.981862 0.680409 0.147477
O O4 0.027282 0.620582 0.000000
O O5 0.159659 0.500000 0.750000
O O6 0.134399 0.640824 0.627546
O O7 0.189885 0.476827 0.588626
O O8 0.657109 0.316218 0.500000
O O9 0.661155 0.357534 0.323861
O O10 0.722777 0.208423 0.384396
O O11 0.397023 0.500000 0.750000
O O12 0.401679 0.676979 0.834465
O O13 0.298021 0.571286 0.826097
O O14 0.080647 0.751464 0.500000
O O15 0.282176 0.596097 0.000000
#
# Coordination Sequence:
#
# PCOD8294795 Si02
#       6
#    16  16  16  16  16  16
#     4   9  19  38  63  93 127 158 193 245 315 389
#     4  11  21  35  62  99 135 165 198 247 316 391
#     4   9  20  40  65  88 116 157 201 255 322 387
#     4  12  26  41  58  84 121 168 222 270 310 360
#     4  11  23  40  64  95 129 167 212 259 314 383
#     4  10  21  40  63  89 123 161 206 259 319 382
#
# _framework density 22.449396
#
# number of rings (size 3 to 8) (size 9 to 14) (size 15 to 20)
#    0.000    1.667    0.000    6.500    0.000    7.333 
#    0.000    3.333    0.000    3.000    0.000    0.000 
#    0.000    0.000    0.000    0.000    0.000    0.000 
#
# Total GULP energy -594957.797137 kJ/mol
# GULP energy per Si atom -12394.954107 kJ/mol
# Density = 2.239830 g / cm^3
# Si number density = 22.449396 Si / 1000 Ang^3
#
#
#
# Elastic Constant Matrix: (Units=GPa)
#
#
# Indices 1 2 3 4 5 6 
#
# 1 67.4884 32.0654 12.3987 0.0000 0.0000 0.0000
# 2 32.0654 151.0522 59.8753 0.0000 0.0000 0.0000
# 3 12.3987 59.8753 103.2834 0.0000 0.0000 0.0000
# 4 0.0000 0.0000 0.0000 23.7350 0.0000 0.0000
# 5 0.0000 0.0000 0.0000 0.0000 26.3125 0.0000
# 6 0.0000 0.0000 0.0000 0.0000 0.0000 12.3858
#
#
#
# Elastic Compliance Matrix: (Units=1/GPa)
#
#
# Indices 1 2 3 4 5 6 
#
# 1 0.016480 -0.003524 0.000065 0.000000 0.000000 0.000000
# 2 -0.003524 0.009349 -0.004997 0.000000 0.000000 0.000000
# 3 0.000065 -0.004997 0.012571 0.000000 0.000000 0.000000
# 4 0.000000 0.000000 0.000000 0.042132 0.000000 0.000000
# 5 0.000000 0.000000 0.000000 0.000000 0.038005 0.000000
# 6 0.000000 0.000000 0.000000 0.000000 0.000000 0.080738
#
#
# Mechanical properties :
#
#
# Convention : Reuss Voigt Hill
#
# Bulk Modulus (GPa) = 46.53849 58.94476 52.74162
# Shear Modulus (GPa) = 22.38651 26.98563 24.68607
#
# Velocity S-wave (km/s) = 3.16127 3.47084 3.31967
# Velocity P-wave (km/s) = 5.83954 6.50969 6.18370
#
# Compressibility (1/GPa) = 0.02148759
#
# Stress axis : x y z
#
# Youngs Moduli (GPa) = 60.68038 106.96428 79.54799
#
# Poissons Ratio (x) = 0.37693 -0.00513
# Poissons Ratio (y) = 0.21383 0.39748
# Poissons Ratio (z) = -0.00392 0.53447
#
# Static dielectric constant tensor:
#      x y z
#    x 3.929780 0.000000 0.000000 
#    y 0.000000 3.928800 0.000000 
#    z 0.000000 0.000000 4.098530 
# 
# 
# High freq. dielectric constant tensor:
#      x y z
#    x 1.866660 0.000000 0.000000 
#    y 0.000000 1.872110 0.000000 
#    z 0.000000 0.000000 1.900680 
# 
# From -- ./inp_files/24169.got.cif
#   From: 2010.03.12/outbox.cif.g09.slc.cpg/sg72_13_cif.got.tgz:24169.got - 2010.04.16 14:54:00.
