data_PCOD8294425
_publ_section_title
;
Structure prediction by ZEFSAII (Michael W. Deem and Ramdas Pophale) SiO2 
 PCOD8294425
Probable space group: I B A M
;
_chemical_formula_sum "Si O2"
_cell_formula_units_Z 72
_cell_length_a 10.239630
_cell_length_b 13.377598
_cell_length_c 24.375730
_cell_angle_alpha 90.000000
_cell_angle_beta 90.000000
_cell_angle_gamma 90.000000
_cell_volume 3339.027808
_symmetry_space_group_name_H-M "I B A M"
_symmetry_group_IT_number 72
_symmetry_cell_setting 'orthorhombic'
loop_
_space_group_symop_operation_xyz
x,y,z
-x,-y,z
x,-y,1/2-z
-x,y,1/2-z
-x,-y,-z
x,y,-z
-x,y,1/2+z
x,-y,1/2+z
1/2+x,1/2+y,1/2+z
1/2-x,1/2-y,1/2+z
1/2+x,1/2-y,-z
1/2-x,1/2+y,-z
1/2-x,1/2-y,1/2-z
1/2+x,1/2+y,1/2-z
1/2-x,1/2+y,z
1/2+x,1/2-y,z
loop_
_atom_site_type_symbol
_atom_site_label
_atom_site_fract_x
_atom_site_fract_y
_atom_site_fract_z
Si Si1 0.624183 0.836081 0.064434
Si Si2 0.204827 0.000000 0.750000
Si Si3 0.500000 0.000000 0.871214
Si Si4 0.897014 0.798011 0.115568
Si Si5 0.500000 0.500000 0.342717
Si Si6 0.386962 0.841932 0.210684
O O1 0.607249 0.945823 0.090660
O O2 0.769573 0.797493 0.077328
O O3 0.509339 0.769229 0.089375
O O4 0.605681 0.841349 0.000000
O O5 0.284748 0.105076 0.752330
O O6 0.124666 0.017316 0.695020
O O7 0.578509 0.073167 0.832427
O O8 0.847461 0.755575 0.175053
O O9 0.966089 0.905677 0.119407
O O10 0.500000 0.802462 0.250000
#
# Coordination Sequence:
#
# PCOD8294425 Si02
#       6
#    16   8   8  16   8  16
#     4  11  24  46  73  99 131 176 235 296 357 410
#     4  11  21  38  60  92 137 177 226 254 338 399
#     4  10  20  40  64 102 128 170 220 280 340 414
#     4  11  26  44  67 100 140 179 232 286 348 410
#     4  11  26  40  57  94 140 182 217 276 323 418
#     4  11  21  38  67  96 135 177 219 275 329 413
#
# _framework density 21.563162999999999
#
# number of rings (size 3 to 8) (size 9 to 14) (size 15 to 20)
#    0.000    1.111    2.222    3.667    6.222    2.667 
#    0.000    6.667    0.000    0.000    0.000    0.000 
#    0.000    0.000    0.000    0.000    0.000    0.000 
#
# Total GULP energy -446213.804092 kJ/mol
# GULP energy per Si atom -12394.827891 kJ/mol
# Density = 2.151408 g / cm^3
# Si number density = 21.563163 Si / 1000 Ang^3
#
#
#
# Elastic Constant Matrix: (Units=GPa)
#
#
# Indices 1 2 3 4 5 6 
#
# 1 112.8974 28.0940 36.6884 0.0000 0.0000 0.0000
# 2 28.0940 90.7958 31.0685 0.0000 0.0000 0.0000
# 3 36.6884 31.0685 91.7495 0.0000 0.0000 0.0000
# 4 0.0000 0.0000 0.0000 24.4022 0.0000 0.0000
# 5 0.0000 0.0000 0.0000 0.0000 33.6574 0.0000
# 6 0.0000 0.0000 0.0000 0.0000 0.0000 59.1608
#
#
#
# Elastic Compliance Matrix: (Units=1/GPa)
#
#
# Indices 1 2 3 4 5 6 
#
# 1 0.010508 -0.002051 -0.003507 0.000000 0.000000 0.000000
# 2 -0.002051 0.012858 -0.003534 0.000000 0.000000 0.000000
# 3 -0.003507 -0.003534 0.013498 0.000000 0.000000 0.000000
# 4 0.000000 0.000000 0.000000 0.040980 0.000000 0.000000
# 5 0.000000 0.000000 0.000000 0.000000 0.029711 0.000000
# 6 0.000000 0.000000 0.000000 0.000000 0.000000 0.016903
#
#
# Mechanical properties :
#
#
# Convention : Reuss Voigt Hill
#
# Bulk Modulus (GPa) = 53.53472 54.12716 53.83094
# Shear Modulus (GPa) = 33.58673 36.75022 35.16847
#
# Velocity S-wave (km/s) = 3.95092 4.13280 4.04289
# Velocity P-wave (km/s) = 6.75973 6.92312 6.84191
#
# Compressibility (1/GPa) = 0.01867947
#
# Stress axis : x y z
#
# Youngs Moduli (GPa) = 95.16759 77.77537 74.08361
#
# Poissons Ratio (x) = 0.15953 0.25983
# Poissons Ratio (y) = 0.19521 0.26178
# Poissons Ratio (z) = 0.33377 0.27483
#
# Static dielectric constant tensor:
#      x y z
#    x 3.965600 0.000000 0.000000 
#    y 0.000000 7.566090 0.000000 
#    z 0.000000 0.000000 3.893460 
# 
# 
# High freq. dielectric constant tensor:
#      x y z
#    x 1.853730 0.000000 0.000000 
#    y 0.000000 1.853770 0.000000 
#    z 0.000000 0.000000 1.842400 
# 
# From -- ./inp_files/47053.got.cif
#   From: 2010.03.12/outbox.cif.g09.slc.cpg/sg72_24_cif.got.tgz:47053.got - 2010.04.16 14:54:00.
