data_PCOD8294879
_publ_section_title
;
Structure prediction by ZEFSAII (Michael W. Deem and Ramdas Pophale) SiO2 
 PCOD8294879
Probable space group: I B A M
;
_chemical_formula_sum "Si O2"
_cell_formula_units_Z 128
_cell_length_a 22.285738
_cell_length_b 18.904924
_cell_length_c 17.462845
_cell_angle_alpha 90.000000
_cell_angle_beta 90.000000
_cell_angle_gamma 90.000000
_cell_volume 7357.274426
_symmetry_space_group_name_H-M "I B A M"
_symmetry_group_IT_number 72
_symmetry_cell_setting 'orthorhombic'
loop_
_space_group_symop_operation_xyz
x,y,z
-x,-y,z
x,-y,1/2-z
-x,y,1/2-z
-x,-y,-z
x,y,-z
-x,y,1/2+z
x,-y,1/2+z
1/2+x,1/2+y,1/2+z
1/2-x,1/2-y,1/2+z
1/2+x,1/2-y,-z
1/2-x,1/2+y,-z
1/2-x,1/2-y,1/2-z
1/2+x,1/2+y,1/2-z
1/2-x,1/2+y,z
1/2+x,1/2-y,z
loop_
_atom_site_type_symbol
_atom_site_label
_atom_site_fract_x
_atom_site_fract_y
_atom_site_fract_z
Si Si1 0.824920 0.281411 0.152790
Si Si2 0.654586 0.769970 0.676134
Si Si3 0.715935 0.632371 0.326351
Si Si4 0.765003 0.854851 0.352500
Si Si5 0.113322 0.483533 0.089782
Si Si6 0.569420 0.138556 0.413882
Si Si7 0.042363 0.362823 0.825458
Si Si8 0.748839 0.498562 0.912835
O O1 0.814184 0.269961 0.241969
O O2 0.775209 0.338785 0.128986
O O3 0.811974 0.204363 0.116532
O O4 0.890819 0.310064 0.137621
O O5 0.661643 0.687182 0.650490
O O6 0.697231 0.824807 0.629554
O O7 0.585679 0.794701 0.681524
O O8 0.724647 0.623344 0.235733
O O9 0.708031 0.554494 0.362248
O O10 0.777951 0.923171 0.403721
O O11 0.078404 0.556307 0.103521
O O12 0.083195 0.429657 0.150395
O O13 0.181793 0.497257 0.114446
O O14 0.107908 0.459259 0.000000
O O15 0.585803 0.157679 0.500000
O O16 0.500607 0.155758 0.396171
O O17 0.000000 0.376009 0.750000
O O18 0.744917 0.473414 0.000000
#
# Coordination Sequence:
#
# PCOD8294879 Si02
#       8
#    16  16  16  16  16  16  16  16
#     4   9  17  33  52  73  95 135 175 219 263 306
#     4   9  18  35  51  75 101 131 175 224 262 303
#     4   9  18  33  55  73 101 135 172 215 273 319
#     4   9  18  33  54  74 103 131 168 220 272 309
#     4  10  22  37  47  67 111 151 178 211 254 309
#     4  11  22  35  49  69 105 147 182 210 253 312
#     4  12  22  35  53  75 102 142 186 225 253 299
#     4  11  20  32  51  79 107 140 173 209 263 325
#
# _framework density 17.397748
#
# number of rings (size 3 to 8) (size 9 to 14) (size 15 to 20)
#    0.000    2.000    3.750    2.625    0.000    2.500 
#    2.250    3.125    0.000    0.000    0.000    0.875 
#    0.000    2.000    0.000    0.000    0.000    0.000 
#
# Total GULP energy -792978.310778 kJ/mol
# GULP energy per Si atom -12390.286106 kJ/mol
# Density = 1.735815 g / cm^3
# Si number density = 17.397748 Si / 1000 Ang^3
#
#
#
# Elastic Constant Matrix: (Units=GPa)
#
#
# Indices 1 2 3 4 5 6 
#
# 1 69.1959 38.9659 17.1107 0.0000 0.0000 0.0000
# 2 38.9659 86.6305 19.3759 0.0000 0.0000 0.0000
# 3 17.1107 19.3759 33.1620 0.0000 0.0000 0.0000
# 4 0.0000 0.0000 0.0000 18.1712 0.0000 0.0000
# 5 0.0000 0.0000 0.0000 0.0000 18.3553 0.0000
# 6 0.0000 0.0000 0.0000 0.0000 0.0000 27.8840
#
#
#
# Elastic Compliance Matrix: (Units=1/GPa)
#
#
# Indices 1 2 3 4 5 6 
#
# 1 0.020315 -0.007814 -0.005916 0.000000 0.000000 0.000000
# 2 -0.007814 0.016284 -0.005483 0.000000 0.000000 0.000000
# 3 -0.005916 -0.005483 0.036411 0.000000 0.000000 0.000000
# 4 0.000000 0.000000 0.000000 0.055032 0.000000 0.000000
# 5 0.000000 0.000000 0.000000 0.000000 0.054480 0.000000
# 6 0.000000 0.000000 0.000000 0.000000 0.000000 0.035863
#
#
# Mechanical properties :
#
#
# Convention : Reuss Voigt Hill
#
# Bulk Modulus (GPa) = 28.91514 37.76593 33.34053
# Shear Modulus (GPa) = 18.63305 20.45116 19.54210
#
# Velocity S-wave (km/s) = 3.27617 3.43228 3.35514
# Velocity P-wave (km/s) = 5.56482 6.12062 5.84932
#
# Compressibility (1/GPa) = 0.03458396
#
# Stress axis : x y z
#
# Youngs Moduli (GPa) = 49.22428 61.40844 27.46422
#
# Poissons Ratio (x) = 0.47987 0.16249
# Poissons Ratio (y) = 0.38466 0.15058
# Poissons Ratio (z) = 0.29123 0.33668
#
# Static dielectric constant tensor:
#      x y z
#    x 3.039630 0.000000 0.000000 
#    y 0.000000 3.257390 0.000000 
#    z 0.000000 0.000000 3.076540 
# 
# 
# High freq. dielectric constant tensor:
#      x y z
#    x 1.642190 0.000000 0.000000 
#    y 0.000000 1.669360 0.000000 
#    z 0.000000 0.000000 1.661290 
# 
# From -- ./inp_files/39373.got.cif
#   From: 2010.03.12/outbox.cif.g09.slc.cpg/sg72_20_cif.got.tgz:39373.got - 2010.04.16 14:54:00.
