data_PCOD8294960
_publ_section_title
;
Structure prediction by ZEFSAII (Michael W. Deem and Ramdas Pophale) SiO2 
 PCOD8294960
Probable space group: I B A M
;
_chemical_formula_sum "Si O2"
_cell_formula_units_Z 64
_cell_length_a 31.193519
_cell_length_b 10.942136
_cell_length_c 9.620003
_cell_angle_alpha 90.000000
_cell_angle_beta 90.000000
_cell_angle_gamma 90.000000
_cell_volume 3283.535280
_symmetry_space_group_name_H-M "I B A M"
_symmetry_group_IT_number 72
_symmetry_cell_setting 'orthorhombic'
loop_
_space_group_symop_operation_xyz
x,y,z
-x,-y,z
x,-y,1/2-z
-x,y,1/2-z
-x,-y,-z
x,y,-z
-x,y,1/2+z
x,-y,1/2+z
1/2+x,1/2+y,1/2+z
1/2-x,1/2-y,1/2+z
1/2+x,1/2-y,-z
1/2-x,1/2+y,-z
1/2-x,1/2-y,1/2-z
1/2+x,1/2+y,1/2-z
1/2-x,1/2+y,z
1/2+x,1/2-y,z
loop_
_atom_site_type_symbol
_atom_site_label
_atom_site_fract_x
_atom_site_fract_y
_atom_site_fract_z
Si Si1 0.040040 0.377298 0.335937
Si Si2 0.683315 0.000000 0.250000
Si Si3 0.828004 0.895258 0.500000
Si Si4 0.871581 0.269182 0.216269
Si Si5 0.271454 0.125141 0.500000
Si Si6 0.840826 0.817697 0.000000
O O1 0.052194 0.500000 0.250000
O O2 0.029258 0.402996 0.500000
O O3 0.079325 0.283476 0.329805
O O4 0.000000 0.319281 0.250000
O O5 0.653367 0.104944 0.315194
O O6 0.714859 0.949268 0.365542
O O7 0.850371 0.842283 0.364536
O O8 0.778894 0.854165 0.500000
O O9 0.833616 0.039343 0.500000
O O10 0.869535 0.231942 0.375411
O O11 0.293507 0.258281 0.500000
#
# Coordination Sequence:
#
# PCOD8294960 Si02
#       6
#    16   8   8  16   8   8
#     4  11  23  39  67 102 134 165 206 269 333 397
#     4  10  22  40  63  92 126 166 209 264 328 386
#     4  12  25  42  62  91 128 174 227 261 318 387
#     4  11  23  41  67  92 131 169 212 268 327 387
#     4  10  25  38  63  89 127 168 219 276 317 372
#     4  10  26  40  61  92 124 179 215 267 316 385
#
# _framework density 19.491188000000001
#
# number of rings (size 3 to 8) (size 9 to 14) (size 15 to 20)
#    0.000    1.250    2.500    3.000   10.500    2.000 
#    0.000    0.000    0.000    4.500    0.000    0.000 
#    0.000    0.000    0.000    0.000    0.000    0.000 
#
# Total GULP energy -396798.947362 kJ/mol
# GULP energy per Si atom -12399.967105 kJ/mol
# Density = 1.944682 g / cm^3
# Si number density = 19.491188 Si / 1000 Ang^3
#
#
#
# Elastic Constant Matrix: (Units=GPa)
#
#
# Indices 1 2 3 4 5 6 
#
# 1 155.3737 52.1313 58.2172 0.0000 0.0000 0.0000
# 2 52.1313 122.8885 44.9580 0.0000 0.0000 0.0000
# 3 58.2172 44.9580 154.3064 0.0000 0.0000 0.0000
# 4 0.0000 0.0000 0.0000 74.9049 0.0000 0.0000
# 5 0.0000 0.0000 0.0000 0.0000 21.1683 0.0000
# 6 0.0000 0.0000 0.0000 0.0000 0.0000 25.3820
#
#
#
# Elastic Compliance Matrix: (Units=1/GPa)
#
#
# Indices 1 2 3 4 5 6 
#
# 1 0.008187 -0.002623 -0.002325 0.000000 0.000000 0.000000
# 2 -0.002623 0.009948 -0.001909 0.000000 0.000000 0.000000
# 3 -0.002325 -0.001909 0.007914 0.000000 0.000000 0.000000
# 4 0.000000 0.000000 0.000000 0.013350 0.000000 0.000000
# 5 0.000000 0.000000 0.000000 0.000000 0.047240 0.000000
# 6 0.000000 0.000000 0.000000 0.000000 0.000000 0.039398
#
#
# Mechanical properties :
#
#
# Convention : Reuss Voigt Hill
#
# Bulk Modulus (GPa) = 81.05948 82.57571 81.81760
# Shear Modulus (GPa) = 34.75525 42.77517 38.76521
#
# Velocity S-wave (km/s) = 4.22729 4.68973 4.46450
# Velocity P-wave (km/s) = 8.09350 8.47245 8.28514
#
# Compressibility (1/GPa) = 0.01233662
#
# Stress axis : x y z
#
# Youngs Moduli (GPa) = 122.14337 100.51834 126.35968
#
# Poissons Ratio (x) = 0.26362 0.29375
# Poissons Ratio (y) = 0.32033 0.24123
# Poissons Ratio (z) = 0.28395 0.19190
#
# Static dielectric constant tensor:
#      x y z
#    x 3.601850 0.000000 0.000000 
#    y 0.000000 3.433200 0.000000 
#    z 0.000000 0.000000 3.805500 
# 
# 
# High freq. dielectric constant tensor:
#      x y z
#    x 1.759910 0.000000 0.000000 
#    y 0.000000 1.744510 0.000000 
#    z 0.000000 0.000000 1.783090 
# 
# From -- ./inp_files/2681.got.cif
#   From: 2010.03.12/outbox.cif.g09.slc.cpg/sg72_2_cif.got.tgz:2681.got - 2010.04.16 14:54:00.
