data_PCOD8294571
_publ_section_title
;
Structure prediction by ZEFSAII (Michael W. Deem and Ramdas Pophale) SiO2 
 PCOD8294571
Probable space group: I B A M
;
_chemical_formula_sum "Si O2"
_cell_formula_units_Z 96
_cell_length_a 30.285473
_cell_length_b 19.582837
_cell_length_c 8.942912
_cell_angle_alpha 90.000000
_cell_angle_beta 90.000000
_cell_angle_gamma 90.000000
_cell_volume 5303.821838
_symmetry_space_group_name_H-M "I B A M"
_symmetry_group_IT_number 72
_symmetry_cell_setting 'orthorhombic'
loop_
_space_group_symop_operation_xyz
x,y,z
-x,-y,z
x,-y,1/2-z
-x,y,1/2-z
-x,-y,-z
x,y,-z
-x,y,1/2+z
x,-y,1/2+z
1/2+x,1/2+y,1/2+z
1/2-x,1/2-y,1/2+z
1/2+x,1/2-y,-z
1/2-x,1/2+y,-z
1/2-x,1/2-y,1/2-z
1/2+x,1/2+y,1/2-z
1/2-x,1/2+y,z
1/2+x,1/2-y,z
loop_
_atom_site_type_symbol
_atom_site_label
_atom_site_fract_x
_atom_site_fract_y
_atom_site_fract_z
Si Si1 0.161772 0.067537 0.825088
Si Si2 0.738172 0.932870 0.825945
Si Si3 0.373576 0.712543 0.177092
Si Si4 0.952380 0.714667 0.675003
Si Si5 0.547215 0.063475 0.327218
Si Si6 0.291811 0.214207 0.823319
O O1 0.211829 0.079176 0.767499
O O2 0.133434 0.133514 0.779845
O O3 0.140956 0.000000 0.750000
O O4 0.160865 0.055739 0.000000
O O5 0.709485 0.866442 0.786582
O O6 0.717058 0.000000 0.750000
O O7 0.738536 0.947101 0.000000
O O8 0.421004 0.732262 0.241564
O O9 0.336632 0.758361 0.254329
O O10 0.371311 0.724211 0.000000
O O11 0.956321 0.732741 0.500000
O O12 0.931330 0.638368 0.695360
O O13 0.000000 0.720530 0.750000
O O14 0.500000 0.066833 0.250000
O O15 0.541796 0.046097 0.500000
O O16 0.574129 0.000000 0.250000
O O17 0.250000 0.250000 0.750000
O O18 0.290411 0.227670 0.000000
#
# Coordination Sequence:
#
# PCOD8294571 Si02
#       6
#    16  16  16  16  16  16
#     4   9  18  33  52  78 108 138 177 221 265 318
#     4   9  18  33  51  75 107 143 183 223 265 318
#     4  11  22  37  56  82 112 143 182 226 272 325
#     4  10  21  37  56  81 109 143 183 227 277 327
#     4   9  16  27  47  73 101 130 170 215 260 313
#     4  11  21  35  54  79 111 144 180 223 268 321
#
# _framework density 18.100155999999998
#
# number of rings (size 3 to 8) (size 9 to 14) (size 15 to 20)
#    0.000    2.167    1.667    2.500    0.000    4.667 
#    0.000    0.833    0.000    0.500    0.000    3.500 
#    0.000    0.000    0.000    0.000    0.000    0.000 
#
# Total GULP energy -595017.903612 kJ/mol
# GULP energy per Si atom -12396.206325 kJ/mol
# Density = 1.805896 g / cm^3
# Si number density = 18.100156 Si / 1000 Ang^3
#
#
#
# Elastic Constant Matrix: (Units=GPa)
#
#
# Indices 1 2 3 4 5 6 
#
# 1 75.4681 58.3945 38.6811 0.0000 0.0000 0.0000
# 2 58.3945 160.5659 74.7054 0.0000 0.0000 0.0000
# 3 38.6811 74.7054 99.8948 0.0000 0.0000 0.0000
# 4 0.0000 0.0000 0.0000 34.7924 0.0000 0.0000
# 5 0.0000 0.0000 0.0000 0.0000 27.8669 0.0000
# 6 0.0000 0.0000 0.0000 0.0000 0.0000 22.4882
#
#
#
# Elastic Compliance Matrix: (Units=1/GPa)
#
#
# Indices 1 2 3 4 5 6 
#
# 1 0.019158 -0.005392 -0.003386 0.000000 0.000000 0.000000
# 2 -0.005392 0.011069 -0.006190 0.000000 0.000000 0.000000
# 3 -0.003386 -0.006190 0.015951 0.000000 0.000000 0.000000
# 4 0.000000 0.000000 0.000000 0.028742 0.000000 0.000000
# 5 0.000000 0.000000 0.000000 0.000000 0.035885 0.000000
# 6 0.000000 0.000000 0.000000 0.000000 0.000000 0.044468
#
#
# Mechanical properties :
#
#
# Convention : Reuss Voigt Hill
#
# Bulk Modulus (GPa) = 61.56888 75.49895 68.53392
# Shear Modulus (GPa) = 26.22986 27.97267 27.10126
#
# Velocity S-wave (km/s) = 3.81090 3.93547 3.87369
# Velocity P-wave (km/s) = 7.31119 7.90271 7.61270
#
# Compressibility (1/GPa) = 0.01624197
#
# Stress axis : x y z
#
# Youngs Moduli (GPa) = 52.19655 90.34355 62.69330
#
# Poissons Ratio (x) = 0.48714 0.21228
# Poissons Ratio (y) = 0.28145 0.38806
# Poissons Ratio (z) = 0.17674 0.55921
#
# Static dielectric constant tensor:
#      x y z
#    x 3.019870 0.000000 0.000000 
#    y 0.000000 3.862430 0.000000 
#    z 0.000000 0.000000 3.447230 
# 
# 
# High freq. dielectric constant tensor:
#      x y z
#    x 1.659350 0.000000 0.000000 
#    y 0.000000 1.714760 0.000000 
#    z 0.000000 0.000000 1.712990 
# 
# From -- ./inp_files/8047.got.cif
#   From: 2010.03.12/outbox.cif.g09.slc.cpg/sg72_5_cif.got.tgz:8047.got - 2010.04.16 14:54:00.
