data_PCOD8294199
_publ_section_title
;
Structure prediction by ZEFSAII (Michael W. Deem and Ramdas Pophale) SiO2 
 PCOD8294199
Probable space group: I B A M
;
_chemical_formula_sum "Si O2"
_cell_formula_units_Z 112
_cell_length_a 12.372550
_cell_length_b 27.334724
_cell_length_c 16.492426
_cell_angle_alpha 90.000000
_cell_angle_beta 90.000000
_cell_angle_gamma 90.000000
_cell_volume 5577.742422
_symmetry_space_group_name_H-M "I B A M"
_symmetry_group_IT_number 72
_symmetry_cell_setting 'orthorhombic'
loop_
_space_group_symop_operation_xyz
x,y,z
-x,-y,z
x,-y,1/2-z
-x,y,1/2-z
-x,-y,-z
x,y,-z
-x,y,1/2+z
x,-y,1/2+z
1/2+x,1/2+y,1/2+z
1/2-x,1/2-y,1/2+z
1/2+x,1/2-y,-z
1/2-x,1/2+y,-z
1/2-x,1/2-y,1/2-z
1/2+x,1/2+y,1/2-z
1/2-x,1/2+y,z
1/2+x,1/2-y,z
loop_
_atom_site_type_symbol
_atom_site_label
_atom_site_fract_x
_atom_site_fract_y
_atom_site_fract_z
Si Si1 0.391888 0.303035 0.908884
Si Si2 0.738358 0.561337 0.405964
Si Si3 0.611459 0.480811 0.658613
Si Si4 0.511767 0.794610 0.592676
Si Si5 0.507084 0.602387 0.406878
Si Si6 0.707081 0.202213 0.206895
Si Si7 0.907722 0.623083 0.312540
O O1 0.422939 0.247076 0.891335
O O2 0.494047 0.339240 0.896109
O O3 0.298768 0.320833 0.849314
O O4 0.347463 0.308105 0.000000
O O5 0.766847 0.570391 0.500000
O O6 0.714606 0.503384 0.389619
O O7 0.629038 0.589699 0.378225
O O8 0.838858 0.578480 0.350322
O O9 0.500000 0.500000 0.617844
O O10 0.621216 0.500000 0.750000
O O11 0.591283 0.422666 0.646570
O O12 0.551108 0.794554 0.500000
O O13 0.608595 0.780688 0.651357
O O14 0.463715 0.847740 0.613849
O O15 0.491447 0.586299 0.500000
O O16 0.750000 0.250000 0.250000
O O17 0.672985 0.160263 0.268850
O O18 0.000000 0.603238 0.250000
#
# Coordination Sequence:
#
# PCOD8294199 Si02
#       7
#    16  16  16  16  16  16  16
#     4  10  21  35  54  80 111 150 191 230 282 344
#     4  10  20  36  60  87 112 152 192 232 287 346
#     4   9  18  33  53  86 123 151 180 220 285 347
#     4  10  21  38  55  75 109 151 196 242 285 341
#     4   9  19  34  54  85 120 148 182 231 281 345
#     4  11  22  36  52  77 111 151 190 236 294 336
#     4  10  22  38  55  82 113 148 199 245 291 331
#
# _framework density 20.079809000000001
#
# number of rings (size 3 to 8) (size 9 to 14) (size 15 to 20)
#    0.000    2.143    1.429    1.286    4.000    1.714 
#    0.000    0.000    0.000    0.429    0.000    1.000 
#    0.000    0.000    0.000    0.000    0.000    0.000 
#
# Total GULP energy -694025.749268 kJ/mol
# GULP energy per Si atom -12393.316951 kJ/mol
# Density = 2.003411 g / cm^3
# Si number density = 20.079809 Si / 1000 Ang^3
#
#
#
# Elastic Constant Matrix: (Units=GPa)
#
#
# Indices 1 2 3 4 5 6 
#
# 1 92.5477 32.8263 43.9513 0.0000 0.0000 0.0000
# 2 32.8263 64.3214 23.1523 0.0002 0.0000 0.0000
# 3 43.9513 23.1523 91.4838 0.0003 0.0000 0.0000
# 4 0.0000 0.0002 0.0003 22.5983 0.0000 0.0000
# 5 0.0000 0.0000 0.0000 0.0000 35.2942 0.0000
# 6 0.0000 0.0000 0.0000 0.0000 0.0000 31.2929
#
#
#
# Elastic Compliance Matrix: (Units=1/GPa)
#
#
# Indices 1 2 3 4 5 6 
#
# 1 0.015779 -0.005858 -0.006098 0.000000 0.000000 0.000000
# 2 -0.005858 0.019280 -0.002065 0.000000 0.000000 0.000000
# 3 -0.006098 -0.002065 0.014383 0.000000 0.000000 0.000000
# 4 0.000000 0.000000 0.000000 0.044251 0.000000 0.000000
# 5 0.000000 0.000000 0.000000 0.000000 0.028333 0.000000
# 6 0.000000 0.000000 0.000000 0.000000 0.000000 0.031956
#
#
# Mechanical properties :
#
#
# Convention : Reuss Voigt Hill
#
# Bulk Modulus (GPa) = 46.72888 49.80141 48.26515
# Shear Modulus (GPa) = 26.43294 27.73193 27.08243
#
# Velocity S-wave (km/s) = 3.63215 3.72033 3.67650
# Velocity P-wave (km/s) = 6.39626 6.58104 6.48930
#
# Compressibility (1/GPa) = 0.02140004
#
# Stress axis : x y z
#
# Youngs Moduli (GPa) = 63.37522 51.86802 69.52530
#
# Poissons Ratio (x) = 0.30383 0.42398
# Poissons Ratio (y) = 0.37124 0.14357
# Poissons Ratio (z) = 0.38648 0.10711
#
# Static dielectric constant tensor:
#      x y z
#    x 3.551390 0.000000 0.000000 
#    y 0.000000 3.591950 0.000000 
#    z 0.000000 0.000000 3.679570 
# 
# 
# High freq. dielectric constant tensor:
#      x y z
#    x 1.762480 0.000000 0.000000 
#    y 0.000000 1.765880 0.000000 
#    z 0.000000 0.000000 1.795080 
# 
# From -- ./inp_files/20686.got.cif
#   From: 2010.03.12/outbox.cif.g09.slc.cpg/sg72_11_cif.got.tgz:20686.got - 2010.04.16 14:54:00.
