data_PCOD8294476
_publ_section_title
;
Structure prediction by ZEFSAII (Michael W. Deem and Ramdas Pophale) SiO2 
 PCOD8294476
Probable space group: I B A M
;
_chemical_formula_sum "Si O2"
_cell_formula_units_Z 88
_cell_length_a 25.892299
_cell_length_b 18.242014
_cell_length_c 9.030177
_cell_angle_alpha 90.000000
_cell_angle_beta 90.000000
_cell_angle_gamma 90.000000
_cell_volume 4265.202560
_symmetry_space_group_name_H-M "I B A M"
_symmetry_group_IT_number 72
_symmetry_cell_setting 'orthorhombic'
loop_
_space_group_symop_operation_xyz
x,y,z
-x,-y,z
x,-y,1/2-z
-x,y,1/2-z
-x,-y,-z
x,y,-z
-x,y,1/2+z
x,-y,1/2+z
1/2+x,1/2+y,1/2+z
1/2-x,1/2-y,1/2+z
1/2+x,1/2-y,-z
1/2-x,1/2+y,-z
1/2-x,1/2-y,1/2-z
1/2+x,1/2+y,1/2-z
1/2-x,1/2+y,z
1/2+x,1/2-y,z
loop_
_atom_site_type_symbol
_atom_site_label
_atom_site_fract_x
_atom_site_fract_y
_atom_site_fract_z
Si Si1 0.163939 0.657755 0.324359
Si Si2 0.251921 0.424617 0.322029
Si Si3 0.568343 0.067820 0.159623
Si Si4 0.361308 0.571949 0.326557
Si Si5 0.000000 0.692041 0.750000
Si Si6 0.899513 0.773009 0.665034
O O1 0.174053 0.657329 0.500000
O O2 0.216050 0.642014 0.234014
O O3 0.122152 0.596835 0.272655
O O4 0.140354 0.736378 0.279563
O O5 0.230580 0.500000 0.250000
O O6 0.252058 0.428987 0.500000
O O7 0.308606 0.409255 0.259101
O O8 0.529150 0.136207 0.139600
O O9 0.545156 0.000000 0.250000
O O10 0.579298 0.034436 0.000000
O O11 0.386476 0.500000 0.250000
O O12 0.349869 0.556652 0.500000
O O13 0.400304 0.639785 0.304170
O O14 0.041843 0.743907 0.827699
O O15 0.878528 0.757491 0.500000
#
# Coordination Sequence:
#
# PCOD8294476 Si02
#       6
#    16  16  16  16   8  16
#     4  10  21  36  55  83 118 155 193 232 277 328
#     4  11  21  35  57  84 117 155 193 233 278 331
#     4  10  21  34  52  79 111 149 189 227 266 314
#     4  10  21  39  62  86 112 143 183 231 286 347
#     4  10  21  38  59  80 110 144 186 234 283 334
#     4  10  22  40  61  84 111 146 188 235 286 340
#
# _framework density 20.632079000000001
#
# number of rings (size 3 to 8) (size 9 to 14) (size 15 to 20)
#    0.000    1.818    0.000    5.182    0.000    9.455 
#    0.000    0.455    0.000    2.182    0.000    0.000 
#    0.000    0.000    0.000    0.000    0.000    0.000 
#
# Total GULP energy -545336.730555 kJ/mol
# GULP energy per Si atom -12394.016604 kJ/mol
# Density = 2.058512 g / cm^3
# Si number density = 20.632079 Si / 1000 Ang^3
#
#
#
# Elastic Constant Matrix: (Units=GPa)
#
#
# Indices 1 2 3 4 5 6 
#
# 1 59.0723 54.7774 30.4299 0.0000 0.0000 0.0000
# 2 54.7774 143.8602 60.3736 0.0000 0.0000 0.0000
# 3 30.4299 60.3736 134.9454 0.0000 0.0000 0.0000
# 4 0.0000 0.0000 0.0000 31.5825 0.0000 0.0000
# 5 0.0000 0.0000 0.0000 0.0000 18.3093 0.0000
# 6 0.0000 0.0000 0.0000 0.0000 0.0000 28.0577
#
#
#
# Elastic Compliance Matrix: (Units=1/GPa)
#
#
# Indices 1 2 3 4 5 6 
#
# 1 0.026518 -0.009342 -0.001800 0.000000 0.000000 0.000000
# 2 -0.009342 0.011849 -0.003195 0.000000 0.000000 0.000000
# 3 -0.001800 -0.003195 0.009246 0.000000 0.000000 0.000000
# 4 0.000000 0.000000 0.000000 0.031663 0.000000 0.000000
# 5 0.000000 0.000000 0.000000 0.000000 0.054617 0.000000
# 6 0.000000 0.000000 0.000000 0.000000 0.000000 0.035641
#
#
# Mechanical properties :
#
#
# Convention : Reuss Voigt Hill
#
# Bulk Modulus (GPa) = 52.79986 69.89330 61.34658
# Shear Modulus (GPa) = 24.44743 28.40972 26.42857
#
# Velocity S-wave (km/s) = 3.44601 3.71478 3.58291
# Velocity P-wave (km/s) = 6.44050 7.23526 6.84942
#
# Compressibility (1/GPa) = 0.01893944
#
# Stress axis : x y z
#
# Youngs Moduli (GPa) = 37.70958 84.39589 108.15944
#
# Poissons Ratio (x) = 0.78841 0.19473
# Poissons Ratio (y) = 0.35228 0.34552
# Poissons Ratio (z) = 0.06789 0.26961
#
# Static dielectric constant tensor:
#      x y z
#    x 3.587170 0.000000 0.000000 
#    y 0.000000 3.797080 0.000000 
#    z 0.000000 0.000000 3.762850 
# 
# 
# High freq. dielectric constant tensor:
#      x y z
#    x 1.791890 0.000000 0.000000 
#    y 0.000000 1.803400 0.000000 
#    z 0.000000 0.000000 1.812790 
# 
# From -- ./inp_files/9064.got.cif
#   From: 2010.03.12/outbox.cif.g09.slc.cpg/sg72_5_cif.got.tgz:9064.got - 2010.04.16 14:54:00.
