data_PCOD8294395
_publ_section_title
;
Structure prediction by ZEFSAII (Michael W. Deem and Ramdas Pophale) SiO2 
 PCOD8294395
Probable space group: I B A M
;
_chemical_formula_sum "Si O2"
_cell_formula_units_Z 96
_cell_length_a 14.781601
_cell_length_b 21.384862
_cell_length_c 15.514440
_cell_angle_alpha 90.000000
_cell_angle_beta 90.000000
_cell_angle_gamma 90.000000
_cell_volume 4904.153232
_symmetry_space_group_name_H-M "I B A M"
_symmetry_group_IT_number 72
_symmetry_cell_setting 'orthorhombic'
loop_
_space_group_symop_operation_xyz
x,y,z
-x,-y,z
x,-y,1/2-z
-x,y,1/2-z
-x,-y,-z
x,y,-z
-x,y,1/2+z
x,-y,1/2+z
1/2+x,1/2+y,1/2+z
1/2-x,1/2-y,1/2+z
1/2+x,1/2-y,-z
1/2-x,1/2+y,-z
1/2-x,1/2-y,1/2-z
1/2+x,1/2+y,1/2-z
1/2-x,1/2+y,z
1/2+x,1/2-y,z
loop_
_atom_site_type_symbol
_atom_site_label
_atom_site_fract_x
_atom_site_fract_y
_atom_site_fract_z
Si Si1 0.025732 0.804837 0.157102
Si Si2 0.084309 0.307841 0.097479
Si Si3 0.148812 0.998311 0.500000
Si Si4 0.000483 0.895891 0.500000
Si Si5 0.050014 0.441698 0.839823
Si Si6 0.713227 0.667692 0.103150
Si Si7 0.758501 0.033820 0.834273
O O1 0.132476 0.789549 0.141267
O O2 0.000000 0.834115 0.250000
O O3 0.973110 0.739054 0.155129
O O4 0.995012 0.853650 0.084940
O O5 0.047389 0.378619 0.104473
O O6 0.189550 0.302726 0.125390
O O7 0.072670 0.285795 0.000000
O O8 0.213766 0.993820 0.582552
O O9 0.088790 0.061315 0.500000
O O10 0.089224 0.936954 0.500000
O O11 0.151642 0.462931 0.823992
O O12 0.000000 0.500000 0.887682
O O13 0.000000 0.428461 0.750000
O O14 0.700610 0.602695 0.153740
O O15 0.703687 0.657641 0.000000
O O16 0.800175 0.000000 0.750000
#
# Coordination Sequence:
#
# PCOD8294395 Si02
#       7
#    16  16   8   8  16  16  16
#     4  12  23  41  66  92 124 172 208 261 321 377
#     4  10  22  39  66  89 121 172 217 257 314 382
#     4  11  24  40  64  95 123 175 203 271 306 384
#     4  11  24  44  61  91 140 153 218 263 317 370
#     4  10  20  39  58  92 129 164 204 265 318 365
#     4  10  20  41  64  89 125 168 212 255 319 386
#     4  11  20  37  64  90 125 167 213 252 318 382
#
# _framework density 19.575244999999999
#
# number of rings (size 3 to 8) (size 9 to 14) (size 15 to 20)
#    0.000    1.333    5.833    0.500    3.500    1.000 
#    0.000    3.333    0.000    0.000    0.000    0.000 
#    0.000    0.000    0.000    0.000    0.000    0.000 
#
# Total GULP energy -595048.150590 kJ/mol
# GULP energy per Si atom -12396.836471 kJ/mol
# Density = 1.953069 g / cm^3
# Si number density = 19.575245 Si / 1000 Ang^3
#
#
#
# Elastic Constant Matrix: (Units=GPa)
#
#
# Indices 1 2 3 4 5 6 
#
# 1 133.5886 52.7564 53.0460 0.0000 0.0000 0.0000
# 2 52.7564 99.9537 43.2930 -0.0004 -0.0001 0.0000
# 3 53.0460 43.2930 131.9551 -0.0007 0.0000 0.0000
# 4 0.0000 -0.0004 -0.0007 20.8311 0.0000 0.0000
# 5 0.0000 -0.0001 0.0000 0.0000 21.8508 0.0001
# 6 0.0000 0.0000 0.0000 0.0000 0.0001 34.5469
#
#
#
# Elastic Compliance Matrix: (Units=1/GPa)
#
#
# Indices 1 2 3 4 5 6 
#
# 1 0.010237 -0.004220 -0.002730 0.000000 0.000000 0.000000
# 2 -0.004220 0.013402 -0.002700 0.000000 0.000000 0.000000
# 3 -0.002730 -0.002700 0.009562 0.000000 0.000000 0.000000
# 4 0.000000 0.000000 0.000000 0.048005 0.000000 0.000000
# 5 0.000000 0.000000 0.000000 0.000000 0.045765 0.000000
# 6 0.000000 0.000000 0.000000 0.000000 0.000000 0.028946
#
#
# Mechanical properties :
#
#
# Convention : Reuss Voigt Hill
#
# Bulk Modulus (GPa) = 71.95310 73.74313 72.84812
# Shear Modulus (GPa) = 27.80073 29.87257 28.83665
#
# Velocity S-wave (km/s) = 3.77264 3.91069 3.84229
# Velocity P-wave (km/s) = 7.47088 7.62527 7.54847
#
# Compressibility (1/GPa) = 0.01389794
#
# Stress axis : x y z
#
# Youngs Moduli (GPa) = 97.68909 74.61702 104.58109
#
# Poissons Ratio (x) = 0.31491 0.28556
# Poissons Ratio (y) = 0.41228 0.28241
# Poissons Ratio (z) = 0.26674 0.20150
#
# Static dielectric constant tensor:
#      x y z
#    x 3.745910 0.000000 0.000000 
#    y 0.000000 3.486310 0.000000 
#    z 0.000000 0.000000 3.535850 
# 
# 
# High freq. dielectric constant tensor:
#      x y z
#    x 1.771720 0.000000 0.000000 
#    y 0.000000 1.752160 0.000000 
#    z 0.000000 0.000000 1.762130 
# 
# From -- ./inp_files/21911.got.cif
#   From: 2010.03.12/outbox.cif.g09.slc.cpg/sg72_11_cif.got.tgz:21911.got - 2010.04.16 14:54:00.
