data_PCOD8294554
_publ_section_title
;
Structure prediction by ZEFSAII (Michael W. Deem and Ramdas Pophale) SiO2 
 PCOD8294554
Probable space group: I B A M
;
_chemical_formula_sum "Si O2"
_cell_formula_units_Z 112
_cell_length_a 21.222445
_cell_length_b 11.312519
_cell_length_c 23.036855
_cell_angle_alpha 90.000000
_cell_angle_beta 90.000000
_cell_angle_gamma 90.000000
_cell_volume 5530.672306
_symmetry_space_group_name_H-M "I B A M"
_symmetry_group_IT_number 72
_symmetry_cell_setting 'orthorhombic'
loop_
_space_group_symop_operation_xyz
x,y,z
-x,-y,z
x,-y,1/2-z
-x,y,1/2-z
-x,-y,-z
x,y,-z
-x,y,1/2+z
x,-y,1/2+z
1/2+x,1/2+y,1/2+z
1/2-x,1/2-y,1/2+z
1/2+x,1/2-y,-z
1/2-x,1/2+y,-z
1/2-x,1/2-y,1/2-z
1/2+x,1/2+y,1/2-z
1/2-x,1/2+y,z
1/2+x,1/2-y,z
loop_
_atom_site_type_symbol
_atom_site_label
_atom_site_fract_x
_atom_site_fract_y
_atom_site_fract_z
Si Si1 0.935530 0.562885 0.065749
Si Si2 0.843771 0.144042 0.865890
Si Si3 0.626539 0.765611 0.649606
Si Si4 0.680420 0.895386 0.908503
Si Si5 0.069174 0.137623 0.255660
Si Si6 0.318704 0.583725 0.935858
Si Si7 0.279750 0.050592 0.310637
O O1 0.927215 0.670380 0.111157
O O2 0.877177 0.472069 0.067195
O O3 0.000000 0.500000 0.084477
O O4 0.941086 0.612300 0.000000
O O5 0.839687 0.257963 0.908018
O O6 0.897652 0.167676 0.817239
O O7 0.777814 0.125482 0.834636
O O8 0.853852 0.029207 0.906700
O O9 0.604273 0.674235 0.697322
O O10 0.670808 0.699076 0.603567
O O11 0.661510 0.862256 0.688822
O O12 0.743161 0.925953 0.945416
O O13 0.699927 0.932723 0.843981
O O14 0.000000 0.197251 0.250000
O O15 0.063024 0.000000 0.250000
O O16 0.348560 0.599430 0.000000
O O17 0.258382 0.000000 0.250000
#
# Coordination Sequence:
#
# PCOD8294554 Si02
#       7
#    16  16  16  16  16  16  16
#     4  10  23  43  66  89 123 170 217 264 313 374
#     4  11  22  39  63  93 127 165 209 255 317 386
#     4  11  22  42  63  93 123 166 209 261 320 383
#     4  10  22  38  61  92 126 162 206 261 311 386
#     4  11  24  40  63  88 123 167 207 262 314 375
#     4  11  23  39  62  95 128 164 207 263 325 379
#     4  10  21  36  61  92 124 158 199 255 321 378
#
# _framework density 20.250702
#
# number of rings (size 3 to 8) (size 9 to 14) (size 15 to 20)
#    0.000    1.429    2.857    2.143    4.000    2.286 
#    0.000    0.000    0.000    0.857    0.000    0.000 
#    0.000    0.000    0.000    0.000    0.000    0.000 
#
# Total GULP energy -694028.738796 kJ/mol
# GULP energy per Si atom -12393.370336 kJ/mol
# Density = 2.020461 g / cm^3
# Si number density = 20.250702 Si / 1000 Ang^3
#
#
#
# Elastic Constant Matrix: (Units=GPa)
#
#
# Indices 1 2 3 4 5 6 
#
# 1 84.4948 9.7509 21.1500 0.0000 0.0000 0.0000
# 2 9.7509 82.0460 27.4566 0.0000 0.0000 0.0000
# 3 21.1500 27.4566 108.3551 0.0000 0.0000 0.0000
# 4 0.0000 0.0000 0.0000 23.1871 0.0000 0.0000
# 5 0.0000 0.0000 0.0000 0.0000 24.0905 0.0000
# 6 0.0000 0.0000 0.0000 0.0000 0.0000 21.3403
#
#
#
# Elastic Compliance Matrix: (Units=1/GPa)
#
#
# Indices 1 2 3 4 5 6 
#
# 1 0.012483 -0.000730 -0.002252 0.000000 0.000000 0.000000
# 2 -0.000730 0.013360 -0.003243 0.000000 0.000000 0.000000
# 3 -0.002252 -0.003243 0.010490 0.000000 0.000000 0.000000
# 4 0.000000 0.000000 0.000000 0.043127 0.000000 0.000000
# 5 0.000000 0.000000 0.000000 0.000000 0.041510 0.000000
# 6 0.000000 0.000000 0.000000 0.000000 0.000000 0.046860
#
#
# Mechanical properties :
#
#
# Convention : Reuss Voigt Hill
#
# Bulk Modulus (GPa) = 41.86865 43.51232 42.69049
# Shear Modulus (GPa) = 26.56168 28.15947 27.36058
#
# Velocity S-wave (km/s) = 3.62559 3.73304 3.67971
# Velocity P-wave (km/s) = 6.18438 6.33358 6.25943
#
# Compressibility (1/GPa) = 0.02388422
#
# Stress axis : x y z
#
# Youngs Moduli (GPa) = 80.10970 74.84870 95.32758
#
# Poissons Ratio (x) = 0.05464 0.21464
# Poissons Ratio (y) = 0.05849 0.30914
# Poissons Ratio (z) = 0.18037 0.24273
#
# Static dielectric constant tensor:
#      x y z
#    x 3.887700 0.000000 0.000000 
#    y 0.000000 3.644230 0.000000 
#    z 0.000000 0.000000 3.669030 
# 
# 
# High freq. dielectric constant tensor:
#      x y z
#    x 1.780250 0.000000 0.000000 
#    y 0.000000 1.794020 0.000000 
#    z 0.000000 0.000000 1.796670 
# 
# From -- ./inp_files/45410.got.cif
#   From: 2010.03.12/outbox.cif.g09.slc.cpg/sg72_23_cif.got.tgz:45410.got - 2010.04.16 14:54:00.
