data_PCOD8294324
_publ_section_title
;
Structure prediction by ZEFSAII (Michael W. Deem and Ramdas Pophale) SiO2 
 PCOD8294324
Probable space group: I B A M
;
_chemical_formula_sum "Si O2"
_cell_formula_units_Z 88
_cell_length_a 17.059573
_cell_length_b 11.488320
_cell_length_c 21.767080
_cell_angle_alpha 90.000000
_cell_angle_beta 90.000000
_cell_angle_gamma 90.000000
_cell_volume 4266.039321
_symmetry_space_group_name_H-M "I B A M"
_symmetry_group_IT_number 72
_symmetry_cell_setting 'orthorhombic'
loop_
_space_group_symop_operation_xyz
x,y,z
-x,-y,z
x,-y,1/2-z
-x,y,1/2-z
-x,-y,-z
x,y,-z
-x,y,1/2+z
x,-y,1/2+z
1/2+x,1/2+y,1/2+z
1/2-x,1/2-y,1/2+z
1/2+x,1/2-y,-z
1/2-x,1/2+y,-z
1/2-x,1/2-y,1/2-z
1/2+x,1/2+y,1/2-z
1/2-x,1/2+y,z
1/2+x,1/2-y,z
loop_
_atom_site_type_symbol
_atom_site_label
_atom_site_fract_x
_atom_site_fract_y
_atom_site_fract_z
Si Si1 0.329673 0.029222 0.068087
Si Si2 0.525570 0.811523 0.930151
Si Si3 0.798559 0.905070 0.144858
Si Si4 0.583514 0.557875 0.070230
Si Si5 0.188732 0.500000 0.750000
Si Si6 0.376157 0.838492 0.847474
O O1 0.416657 0.079418 0.075061
O O2 0.264674 0.121279 0.091246
O O3 0.320840 0.909975 0.106189
O O4 0.309364 0.993783 0.000000
O O5 0.575283 0.695290 0.917840
O O6 0.462363 0.830320 0.876858
O O7 0.489120 0.807133 0.000000
O O8 0.748208 0.939310 0.203676
O O9 0.846589 0.791372 0.161862
O O10 0.856411 0.006187 0.120143
O O11 0.500000 0.500000 0.081679
O O12 0.611717 0.533254 0.000000
O O13 0.129935 0.593585 0.717738
#
# Coordination Sequence:
#
# PCOD8294324 Si02
#       6
#    16  16  16  16   8  16
#     4  10  23  37  61  99 131 162 202 255 326 403
#     4  10  21  39  65  98 135 162 202 263 329 397
#     4  11  23  42  66  88 128 173 216 266 326 374
#     4  10  20  37  65 101 130 162 205 258 326 400
#     4  10  26  44  64  88 126 170 232 274 311 372
#     4  11  22  42  65  86 123 173 215 265 323 372
#
# _framework density 20.628032000000001
#
# number of rings (size 3 to 8) (size 9 to 14) (size 15 to 20)
#    0.000    1.636    1.818    2.182    5.091    3.636 
#    0.000    7.727    0.000    0.000    0.000    0.000 
#    0.000    0.000    0.000    0.000    0.000    0.000 
#
# Total GULP energy -545333.396207 kJ/mol
# GULP energy per Si atom -12393.940823 kJ/mol
# Density = 2.058108 g / cm^3
# Si number density = 20.628032 Si / 1000 Ang^3
#
#
#
# Elastic Constant Matrix: (Units=GPa)
#
#
# Indices 1 2 3 4 5 6 
#
# 1 95.5416 28.3130 62.4434 0.0000 0.0000 0.0000
# 2 28.3130 92.4561 56.4387 0.0000 0.0000 0.0000
# 3 62.4434 56.4387 132.5311 0.0000 0.0000 0.0000
# 4 0.0000 0.0000 0.0000 28.1061 0.0000 0.0000
# 5 0.0000 0.0000 0.0000 0.0000 45.0597 0.0000
# 6 0.0000 0.0000 0.0000 0.0000 0.0000 26.6512
#
#
#
# Elastic Compliance Matrix: (Units=1/GPa)
#
#
# Indices 1 2 3 4 5 6 
#
# 1 0.015134 -0.000381 -0.006968 0.000000 0.000000 0.000000
# 2 -0.000381 0.014625 -0.006049 0.000000 0.000000 0.000000
# 3 -0.006968 -0.006049 0.013404 0.000000 0.000000 0.000000
# 4 0.000000 0.000000 0.000000 0.035579 0.000000 0.000000
# 5 0.000000 0.000000 0.000000 0.000000 0.022193 0.000000
# 6 0.000000 0.000000 0.000000 0.000000 0.000000 0.037522
#
#
# Mechanical properties :
#
#
# Convention : Reuss Voigt Hill
#
# Bulk Modulus (GPa) = 61.09596 68.32433 64.71014
# Shear Modulus (GPa) = 29.28973 31.51898 30.40436
#
# Velocity S-wave (km/s) = 3.77224 3.91316 3.84335
# Velocity P-wave (km/s) = 6.97534 7.32196 7.15075
#
# Compressibility (1/GPa) = 0.01636770
#
# Stress axis : x y z
#
# Youngs Moduli (GPa) = 66.07739 68.37674 74.60219
#
# Poissons Ratio (x) = 0.02603 0.51985
# Poissons Ratio (y) = 0.02516 0.45124
# Poissons Ratio (z) = 0.46045 0.41359
#
# Static dielectric constant tensor:
#      x y z
#    x 3.738520 0.000000 0.000000 
#    y 0.000000 3.831660 0.000000 
#    z 0.000000 0.000000 3.884250 
# 
# 
# High freq. dielectric constant tensor:
#      x y z
#    x 1.808330 0.000000 0.000000 
#    y 0.000000 1.812730 0.000000 
#    z 0.000000 0.000000 1.803350 
# 
# From -- ./inp_files/38899.got.cif
#   From: 2010.03.12/outbox.cif.g09.slc.cpg/sg72_20_cif.got.tgz:38899.got - 2010.04.16 14:54:00.
