data_PCOD8294893
_publ_section_title
;
Structure prediction by ZEFSAII (Michael W. Deem and Ramdas Pophale) SiO2 
 PCOD8294893
Probable space group: I B A M
;
_chemical_formula_sum "Si O2"
_cell_formula_units_Z 96
_cell_length_a 14.104885
_cell_length_b 22.805227
_cell_length_c 15.108452
_cell_angle_alpha 90.000000
_cell_angle_beta 90.000000
_cell_angle_gamma 90.000000
_cell_volume 4859.861787
_symmetry_space_group_name_H-M "I B A M"
_symmetry_group_IT_number 72
_symmetry_cell_setting 'orthorhombic'
loop_
_space_group_symop_operation_xyz
x,y,z
-x,-y,z
x,-y,1/2-z
-x,y,1/2-z
-x,-y,-z
x,y,-z
-x,y,1/2+z
x,-y,1/2+z
1/2+x,1/2+y,1/2+z
1/2-x,1/2-y,1/2+z
1/2+x,1/2-y,-z
1/2-x,1/2+y,-z
1/2-x,1/2-y,1/2-z
1/2+x,1/2+y,1/2-z
1/2-x,1/2+y,z
1/2+x,1/2-y,z
loop_
_atom_site_type_symbol
_atom_site_label
_atom_site_fract_x
_atom_site_fract_y
_atom_site_fract_z
Si Si1 0.111291 0.248495 0.750000
Si Si2 0.764910 0.432682 0.398919
Si Si3 0.764910 0.567318 0.601081
Si Si4 0.890898 0.839032 0.899021
Si Si5 0.112761 0.620087 0.750000
Si Si6 0.609102 0.339032 0.600979
O O1 0.145107 0.214165 0.837630
O O2 0.154678 0.313647 0.750000
O O3 0.145107 0.214165 0.662370
O O4 0.000000 0.255348 0.750000
O O5 0.797620 0.423071 0.500000
O O6 0.740242 0.500000 0.379481
O O7 0.851209 0.412273 0.337749
O O8 0.669671 0.396731 0.377432
O O9 0.797620 0.576929 0.500000
O O10 0.669671 0.603269 0.622568
O O11 0.851209 0.587727 0.662251
O O12 1.000000 0.855012 0.878242
O O13 0.877730 0.818300 0.000000
O O14 0.000000 0.617739 0.750000
O O15 0.622270 0.318300 0.500000
#
# Coordination Sequence:
#
# PCOD8294893 Si02
#       6
#    16  16  16  16  16  16
#     4   9  19  35  54  79 109 140 180 224 263 315
#     4  10  22  38  56  82 111 139 180 226 264 316
#     4  10  22  38  56  82 111 139 180 226 264 316
#     4   9  18  34  57  84 114 144 170 207 266 329
#     4  11  24  40  57  76 104 145 187 230 276 311
#     4   9  18  34  57  84 114 144 170 207 266 329
#
# _framework density 19.753647999999998
#
# number of rings (size 3 to 8) (size 9 to 14) (size 15 to 20)
#    0.000    2.333    0.000    1.500    0.000    6.667 
#    0.000   11.667    0.000    5.000    0.000    0.000 
#    0.000    0.000    0.000    0.000    0.000    0.000 
#
# Total GULP energy -595266.293350 kJ/mol
# GULP energy per Si atom -12401.381111 kJ/mol
# Density = 1.970869 g / cm^3
# Si number density = 19.753648 Si / 1000 Ang^3
#
#
#
# Elastic Constant Matrix: (Units=GPa)
#
#
# Indices 1 2 3 4 5 6 
#
# 1 74.7353 22.4032 37.7859 0.0000 0.0000 0.0000
# 2 22.4032 114.7844 54.4940 -0.0002 0.0001 0.0001
# 3 37.7859 54.4940 115.8249 0.0003 0.0000 0.0001
# 4 0.0000 -0.0002 0.0003 44.7394 0.0000 0.0000
# 5 0.0000 0.0001 0.0000 0.0000 26.8053 0.0000
# 6 0.0000 0.0001 0.0001 0.0000 0.0000 31.0060
#
#
#
# Elastic Compliance Matrix: (Units=1/GPa)
#
#
# Indices 1 2 3 4 5 6 
#
# 1 0.016085 -0.000835 -0.004855 0.000000 0.000000 0.000000
# 2 -0.000835 0.011261 -0.005026 0.000000 0.000000 0.000000
# 3 -0.004855 -0.005026 0.012582 0.000000 0.000000 0.000000
# 4 0.000000 0.000000 0.000000 0.022352 0.000000 0.000000
# 5 0.000000 0.000000 0.000000 0.000000 0.037306 0.000000
# 6 0.000000 0.000000 0.000000 0.000000 0.000000 0.032252
#
#
# Mechanical properties :
#
#
# Convention : Reuss Voigt Hill
#
# Bulk Modulus (GPa) = 54.06069 59.41230 56.73650
# Shear Modulus (GPa) = 31.36084 33.22090 32.29087
#
# Velocity S-wave (km/s) = 3.98879 4.10538 4.04750
# Velocity P-wave (km/s) = 6.97429 7.25356 7.11529
#
# Compressibility (1/GPa) = 0.01849773
#
# Stress axis : x y z
#
# Youngs Moduli (GPa) = 62.16831 88.80298 79.47790
#
# Poissons Ratio (x) = 0.07412 0.38586
# Poissons Ratio (y) = 0.05189 0.39944
# Poissons Ratio (z) = 0.30182 0.44631
#
# Static dielectric constant tensor:
#      x y z
#    x 3.412940 0.000000 0.000000 
#    y 0.000000 3.793880 0.000000 
#    z 0.000000 0.000000 3.799980 
# 
# 
# High freq. dielectric constant tensor:
#      x y z
#    x 1.764320 0.000000 0.000000 
#    y 0.000000 1.771970 0.000000 
#    z 0.000000 0.000000 1.783470 
# 
# From -- ./inp_files/21801.got.cif
#   From: 2010.03.12/outbox.cif.g09.slc.cpg/sg72_11_cif.got.tgz:21801.got - 2010.04.16 14:54:00.
