data_PCOD8294600
_publ_section_title
;
Structure prediction by ZEFSAII (Michael W. Deem and Ramdas Pophale) SiO2 
 PCOD8294600
Probable space group: I B A M
;
_chemical_formula_sum "Si O2"
_cell_formula_units_Z 116
_cell_length_a 21.704302
_cell_length_b 30.778678
_cell_length_c 8.849634
_cell_angle_alpha 90.000000
_cell_angle_beta 90.000000
_cell_angle_gamma 90.000000
_cell_volume 5911.818545
_symmetry_space_group_name_H-M "I B A M"
_symmetry_group_IT_number 72
_symmetry_cell_setting 'orthorhombic'
loop_
_space_group_symop_operation_xyz
x,y,z
-x,-y,z
x,-y,1/2-z
-x,y,1/2-z
-x,-y,-z
x,y,-z
-x,y,1/2+z
x,-y,1/2+z
1/2+x,1/2+y,1/2+z
1/2-x,1/2-y,1/2+z
1/2+x,1/2-y,-z
1/2-x,1/2+y,-z
1/2-x,1/2-y,1/2-z
1/2+x,1/2+y,1/2-z
1/2-x,1/2+y,z
1/2+x,1/2-y,z
loop_
_atom_site_type_symbol
_atom_site_label
_atom_site_fract_x
_atom_site_fract_y
_atom_site_fract_z
Si Si1 0.272322 0.955294 0.322501
Si Si2 0.500000 0.000000 0.750000
Si Si3 0.408278 0.929706 0.333088
Si Si4 0.692648 0.695963 0.324535
Si Si5 0.176523 0.893464 0.823477
Si Si6 0.062969 0.657200 0.678294
Si Si7 0.833934 0.284036 0.175798
Si Si8 0.563644 0.454803 0.323008
O O1 0.262959 0.958791 0.500000
O O2 0.342997 0.947798 0.275996
O O3 0.233875 0.914914 0.261084
O O4 0.248160 0.000000 0.250000
O O5 0.543807 0.030721 0.650277
O O6 0.401331 0.908448 0.500000
O O7 0.431642 0.893891 0.215236
O O8 0.675914 0.692964 0.500000
O O9 0.665950 0.654699 0.237812
O O10 0.765625 0.697924 0.297980
O O11 0.658522 0.737644 0.255456
O O12 0.114497 0.919140 0.786404
O O13 0.191511 0.892447 0.000000
O O14 0.061093 0.663761 0.500000
O O15 0.120634 0.682050 0.747444
O O16 0.000000 0.675840 0.750000
O O17 0.849605 0.279103 0.000000
O O18 0.585329 0.500000 0.250000
O O19 0.500000 0.438564 0.250000
O O20 0.554039 0.461950 0.500000
#
# Coordination Sequence:
#
# PCOD8294600 Si02
#       8
#    16   4  16  16  16  16  16  16
#     4  11  23  38  56  83 118 157 201 250 298 350
#     4  12  22  40  64  82 118 160 208 256 298 348
#     4  11  24  40  59  85 117 157 207 253 300 352
#     4  10  21  38  63  92 119 151 190 237 293 351
#     4  11  23  38  58  88 121 155 194 240 294 351
#     4  12  25  40  61  87 117 154 198 245 296 351
#     4  10  21  40  64  89 119 151 191 240 291 352
#     4  10  21  37  59  85 115 152 195 236 281 341
#
# _framework density 19.621711999999999
#
# number of rings (size 3 to 8) (size 9 to 14) (size 15 to 20)
#    0.000    1.241    1.379    5.172    0.000    9.931 
#    0.000    0.690    0.000    1.655    0.000    0.000 
#    0.000    0.000    0.000    0.000    0.000    0.000 
#
# Total GULP energy -719515.009820 kJ/mol
# GULP energy per Si atom -12405.431204 kJ/mol
# Density = 1.957705 g / cm^3
# Si number density = 19.621712 Si / 1000 Ang^3
#
#
#
# Elastic Constant Matrix: (Units=GPa)
#
#
# Indices 1 2 3 4 5 6 
#
# 1 88.6059 53.1796 52.5677 0.0000 0.0000 0.0000
# 2 53.1796 113.0572 37.5105 0.0000 0.0000 0.0000
# 3 52.5677 37.5105 109.9317 0.0000 0.0000 0.0000
# 4 0.0000 0.0000 0.0000 36.7854 0.0000 0.0000
# 5 0.0000 0.0000 0.0000 0.0000 29.3029 0.0000
# 6 0.0000 0.0000 0.0000 0.0000 0.0000 26.3836
#
#
#
# Elastic Compliance Matrix: (Units=1/GPa)
#
#
# Indices 1 2 3 4 5 6 
#
# 1 0.019577 -0.006882 -0.007013 0.000000 0.000000 0.000000
# 2 -0.006882 0.012393 -0.000938 0.000000 0.000000 0.000000
# 3 -0.007013 -0.000938 0.012770 0.000000 0.000000 0.000000
# 4 0.000000 0.000000 0.000000 0.027185 0.000000 0.000000
# 5 0.000000 0.000000 0.000000 0.000000 0.034126 0.000000
# 6 0.000000 0.000000 0.000000 0.000000 0.000000 0.037902
#
#
# Mechanical properties :
#
#
# Convention : Reuss Voigt Hill
#
# Bulk Modulus (GPa) = 66.33721 66.45672 66.39696
# Shear Modulus (GPa) = 27.98849 29.71685 28.85267
#
# Velocity S-wave (km/s) = 3.78087 3.89586 3.83880
# Velocity P-wave (km/s) = 7.27609 7.36067 7.31850
#
# Compressibility (1/GPa) = 0.01507449
#
# Stress axis : x y z
#
# Youngs Moduli (GPa) = 51.08031 80.68866 78.30674
#
# Poissons Ratio (x) = 0.55528 0.54919
# Poissons Ratio (y) = 0.35152 0.07346
# Poissons Ratio (z) = 0.35824 0.07569
#
# Static dielectric constant tensor:
#      x y z
#    x 3.644970 0.000000 0.000000 
#    y 0.000000 3.538310 0.000000 
#    z 0.000000 0.000000 3.647590 
# 
# 
# High freq. dielectric constant tensor:
#      x y z
#    x 1.764730 0.000000 0.000000 
#    y 0.000000 1.765310 0.000000 
#    z 0.000000 0.000000 1.778670 
# 
# From -- ./inp_files/7328.got.cif
#   From: 2010.03.12/outbox.cif.g09.slc.cpg/sg72_4_cif.got.tgz:7328.got - 2010.04.16 14:54:00.
