data_PCOD8294964
_publ_section_title
;
Structure prediction by ZEFSAII (Michael W. Deem and Ramdas Pophale) SiO2 
 PCOD8294964
Probable space group: I B A M
;
_chemical_formula_sum "Si O2"
_cell_formula_units_Z 64
_cell_length_a 12.620000
_cell_length_b 8.560225
_cell_length_c 24.974918
_cell_angle_alpha 90.000000
_cell_angle_beta 90.000000
_cell_angle_gamma 90.000000
_cell_volume 2698.041378
_symmetry_space_group_name_H-M "I B A M"
_symmetry_group_IT_number 72
_symmetry_cell_setting 'orthorhombic'
loop_
_space_group_symop_operation_xyz
x,y,z
-x,-y,z
x,-y,1/2-z
-x,y,1/2-z
-x,-y,-z
x,y,-z
-x,y,1/2+z
x,-y,1/2+z
1/2+x,1/2+y,1/2+z
1/2-x,1/2-y,1/2+z
1/2+x,1/2-y,-z
1/2-x,1/2+y,-z
1/2-x,1/2-y,1/2-z
1/2+x,1/2+y,1/2-z
1/2-x,1/2+y,z
1/2+x,1/2-y,z
loop_
_atom_site_type_symbol
_atom_site_label
_atom_site_fract_x
_atom_site_fract_y
_atom_site_fract_z
Si Si1 0.316396 0.649544 0.941524
Si Si2 0.827358 0.404345 0.698506
Si Si3 0.616231 0.557175 0.328151
Si Si4 0.382733 0.015911 0.584362
O O1 0.381877 0.571810 0.892897
O O2 0.190111 0.627995 0.933529
O O3 0.328347 0.833930 0.940839
O O4 0.353324 0.585467 0.000000
O O5 0.868369 0.500000 0.750000
O O6 0.700392 0.426644 0.690615
O O7 0.852145 0.219275 0.701622
O O8 0.889268 0.477886 0.648570
O O9 0.500000 0.500000 0.310349
O O10 0.500000 0.000000 0.560588
#
# Coordination Sequence:
#
# PCOD8294964 Si02
#       4
#    16  16  16  16
#     4  10  22  40  64  94 129 170 217 266 317 380
#     4  10  22  43  68  95 130 168 216 274 329 386
#     4  10  23  42  66 100 136 170 217 270 323 388
#     4  10  23  42  63  92 129 167 213 267 321 382
#
# _framework density 23.720912999999999
#
# number of rings (size 3 to 8) (size 9 to 14) (size 15 to 20)
#    0.000    2.000    0.000    1.500    0.000   19.500 
#    0.000    7.500    0.000    0.000    0.000    0.000 
#    0.000    0.000    0.000    0.000    0.000    0.000 
#
# Total GULP energy -396729.256122 kJ/mol
# GULP energy per Si atom -12397.789254 kJ/mol
# Density = 2.366692 g / cm^3
# Si number density = 23.720913 Si / 1000 Ang^3
#
#
#
# Elastic Constant Matrix: (Units=GPa)
#
#
# Indices 1 2 3 4 5 6 
#
# 1 172.3888 95.6668 7.5953 0.0000 0.0000 0.0000
# 2 95.6668 138.1845 41.7319 0.0000 0.0000 0.0000
# 3 7.5953 41.7319 143.6525 0.0000 0.0000 0.0000
# 4 0.0000 0.0000 0.0000 17.0794 0.0000 0.0000
# 5 0.0000 0.0000 0.0000 0.0000 1.7804 0.0000
# 6 0.0000 0.0000 0.0000 0.0000 0.0000 30.3694
#
#
#
# Elastic Compliance Matrix: (Units=1/GPa)
#
#
# Indices 1 2 3 4 5 6 
#
# 1 0.009737 -0.007219 0.001582 0.000000 0.000000 0.000000
# 2 -0.007219 0.013285 -0.003478 0.000000 0.000000 0.000000
# 3 0.001582 -0.003478 0.007888 0.000000 0.000000 0.000000
# 4 0.000000 0.000000 0.000000 0.058550 0.000000 0.000000
# 5 0.000000 0.000000 0.000000 0.000000 0.561673 0.000000
# 6 0.000000 0.000000 0.000000 0.000000 0.000000 0.032928
#
#
# Mechanical properties :
#
#
# Convention : Reuss Voigt Hill
#
# Bulk Modulus (GPa) = 78.85675 82.69041 80.77358
# Shear Modulus (GPa) = 7.07697 30.46130 18.76914
#
# Velocity S-wave (km/s) = 1.72914 3.58740 2.81597
# Velocity P-wave (km/s) = 6.10756 7.21766 6.68569
#
# Compressibility (1/GPa) = 0.01268122
#
# Stress axis : x y z
#
# Youngs Moduli (GPa) = 102.69676 75.27347 126.77722
#
# Poissons Ratio (x) = 0.54341 -0.20061
# Poissons Ratio (y) = 0.74139 0.44089
# Poissons Ratio (z) = -0.16251 0.26177
#
# Static dielectric constant tensor:
#      x y z
#    x 4.036230 0.000000 0.000000 
#    y 0.000000 4.082090 0.000000 
#    z 0.000000 0.000000 4.572890 
# 
# 
# High freq. dielectric constant tensor:
#      x y z
#    x 1.925280 0.000000 0.000000 
#    y 0.000000 1.927170 0.000000 
#    z 0.000000 0.000000 1.959870 
# 
# From -- ./inp_files/51131.got.cif
#   From: 2010.03.12/outbox.cif.g09.slc.cpg/sg72_26_cif.got.tgz:51131.got - 2010.04.16 14:54:00.
