data_PCOD8294027
_publ_section_title
;
Structure prediction by ZEFSAII (Michael W. Deem and Ramdas Pophale) SiO2 
 PCOD8294027
Probable space group: I B A M
;
_chemical_formula_sum "Si O2"
_cell_formula_units_Z 104
_cell_length_a 18.068615
_cell_length_b 13.265724
_cell_length_c 24.429531
_cell_angle_alpha 90.000000
_cell_angle_beta 90.000000
_cell_angle_gamma 90.000000
_cell_volume 5855.593917
_symmetry_space_group_name_H-M "I B A M"
_symmetry_group_IT_number 72
_symmetry_cell_setting 'orthorhombic'
loop_
_space_group_symop_operation_xyz
x,y,z
-x,-y,z
x,-y,1/2-z
-x,y,1/2-z
-x,-y,-z
x,y,-z
-x,y,1/2+z
x,-y,1/2+z
1/2+x,1/2+y,1/2+z
1/2-x,1/2-y,1/2+z
1/2+x,1/2-y,-z
1/2-x,1/2+y,-z
1/2-x,1/2-y,1/2-z
1/2+x,1/2+y,1/2-z
1/2-x,1/2+y,z
1/2+x,1/2-y,z
loop_
_atom_site_type_symbol
_atom_site_label
_atom_site_fract_x
_atom_site_fract_y
_atom_site_fract_z
Si Si1 0.206213 0.922609 0.703984
Si Si2 0.765011 0.561360 0.872475
Si Si3 0.401516 0.922810 0.202112
Si Si4 0.144022 0.422223 0.562244
Si Si5 0.086601 0.208639 0.253654
Si Si6 0.000000 0.500000 0.113282
Si Si7 0.310255 0.764168 0.347546
O O1 0.126228 0.881568 0.721208
O O2 0.262435 0.828254 0.696255
O O3 0.236301 0.000000 0.750000
O O4 0.198868 0.985835 0.647017
O O5 0.825287 0.541979 0.824737
O O6 0.802046 0.519751 0.928381
O O7 0.739060 0.676214 0.875571
O O8 0.394716 0.812100 0.224640
O O9 0.424510 0.000000 0.250000
O O10 0.462883 0.918519 0.153977
O O11 0.153100 0.386659 0.500000
O O12 0.059017 0.448552 0.573518
O O13 0.164500 0.331076 0.601942
O O14 0.119504 0.215941 0.315557
O O15 0.000000 0.184633 0.250000
#
# Coordination Sequence:
#
# PCOD8294027 Si02
#       7
#    16  16  16  16  16   8  16
#     4  11  20  34  53  76 111 146 182 211 256 321
#     4  10  20  35  55  77 105 143 184 223 262 319
#     4  11  19  31  53  83 113 144 174 212 256 331
#     4  10  22  37  58  80 103 135 181 241 284 316
#     4  12  22  31  51  81 117 150 176 208 259 327
#     4  10  20  36  54  78 116 138 170 220 288 334
#     4  11  21  37  56  79 106 148 184 218 271 324
#
# _framework density 17.760795000000002
#
# number of rings (size 3 to 8) (size 9 to 14) (size 15 to 20)
#    0.000    1.231    3.077    6.923    0.000    0.923 
#    0.000    0.000    0.000    0.000    0.000    0.000 
#    0.000    5.231    0.000    0.000    0.000    0.000 
#
# Total GULP energy -644498.637419 kJ/mol
# GULP energy per Si atom -12394.204566 kJ/mol
# Density = 1.772037 g / cm^3
# Si number density = 17.760795 Si / 1000 Ang^3
#
#
#
# Elastic Constant Matrix: (Units=GPa)
#
#
# Indices 1 2 3 4 5 6 
#
# 1 78.3631 42.5979 52.5328 0.0000 0.0000 0.0000
# 2 42.5979 94.5608 34.3504 0.0000 0.0000 0.0000
# 3 52.5328 34.3504 93.4353 0.0000 0.0000 0.0000
# 4 0.0000 0.0000 0.0000 18.0769 0.0000 0.0000
# 5 0.0000 0.0000 0.0000 0.0000 10.3027 0.0000
# 6 0.0000 0.0000 0.0000 0.0000 0.0000 25.0014
#
#
#
# Elastic Compliance Matrix: (Units=1/GPa)
#
#
# Indices 1 2 3 4 5 6 
#
# 1 0.023691 -0.006733 -0.010845 0.000000 0.000000 0.000000
# 2 -0.006733 0.014119 -0.001405 0.000000 0.000000 0.000000
# 3 -0.010845 -0.001405 0.017316 0.000000 0.000000 0.000000
# 4 0.000000 0.000000 0.000000 0.055319 0.000000 0.000000
# 5 0.000000 0.000000 0.000000 0.000000 0.097062 0.000000
# 6 0.000000 0.000000 0.000000 0.000000 0.000000 0.039998
#
#
# Mechanical properties :
#
#
# Convention : Reuss Voigt Hill
#
# Bulk Modulus (GPa) = 58.27235 58.36903 58.32069
# Shear Modulus (GPa) = 17.17083 19.80140 18.48611
#
# Velocity S-wave (km/s) = 3.11269 3.34262 3.22970
# Velocity P-wave (km/s) = 6.76751 6.91613 6.84222
#
# Compressibility (1/GPa) = 0.01716080
#
# Stress axis : x y z
#
# Youngs Moduli (GPa) = 42.20985 70.82818 57.74847
#
# Poissons Ratio (x) = 0.47688 0.62627
# Poissons Ratio (y) = 0.28420 0.08114
# Poissons Ratio (z) = 0.45776 0.09952
#
# Static dielectric constant tensor:
#      x y z
#    x 3.394820 0.000000 0.000000 
#    y 0.000000 3.407740 0.000000 
#    z 0.000000 0.000000 3.017560 
# 
# 
# High freq. dielectric constant tensor:
#      x y z
#    x 1.685470 0.000000 0.000000 
#    y 0.000000 1.688280 0.000000 
#    z 0.000000 0.000000 1.659920 
# 
# From -- ./inp_files/44922.got.cif
#   From: 2010.03.12/outbox.cif.g09.slc.cpg/sg72_23_cif.got.tgz:44922.got - 2010.04.16 14:54:00.
