data_PCOD8294801
_publ_section_title
;
Structure prediction by ZEFSAII (Michael W. Deem and Ramdas Pophale) SiO2 
 PCOD8294801
Probable space group: I B A M
;
_chemical_formula_sum "Si O2"
_cell_formula_units_Z 72
_cell_length_a 23.356128
_cell_length_b 10.410680
_cell_length_c 14.673942
_cell_angle_alpha 90.000000
_cell_angle_beta 90.000000
_cell_angle_gamma 90.000000
_cell_volume 3568.015582
_symmetry_space_group_name_H-M "I B A M"
_symmetry_group_IT_number 72
_symmetry_cell_setting 'orthorhombic'
loop_
_space_group_symop_operation_xyz
x,y,z
-x,-y,z
x,-y,1/2-z
-x,y,1/2-z
-x,-y,-z
x,y,-z
-x,y,1/2+z
x,-y,1/2+z
1/2+x,1/2+y,1/2+z
1/2-x,1/2-y,1/2+z
1/2+x,1/2-y,-z
1/2-x,1/2+y,-z
1/2-x,1/2-y,1/2-z
1/2+x,1/2+y,1/2-z
1/2-x,1/2+y,z
1/2+x,1/2-y,z
loop_
_atom_site_type_symbol
_atom_site_label
_atom_site_fract_x
_atom_site_fract_y
_atom_site_fract_z
Si Si1 0.287632 0.978402 0.899437
Si Si2 0.014488 0.146079 0.397586
Si Si3 0.084284 0.227278 0.769996
Si Si4 0.119854 0.500000 0.750000
Si Si5 0.787650 0.203300 0.667462
O O1 0.278801 0.823446 0.901533
O O2 0.340677 0.015587 0.837828
O O3 0.232586 0.064211 0.869219
O O4 0.303525 0.023056 0.000000
O O5 0.027948 0.203063 0.500000
O O6 0.958405 0.208853 0.354023
O O7 0.066872 0.158116 0.325192
O O8 0.000000 0.000000 0.410848
O O9 0.079448 0.378114 0.752473
O O10 0.147144 0.183017 0.800622
O O11 0.750000 0.250000 0.750000
#
# Coordination Sequence:
#
# PCOD8294801 Si02
#       5
#    16  16  16   8  16
#     4  11  22  38  60  90 129 169 208 252 304 372
#     4  10  23  42  62  90 121 157 208 260 308 363
#     4  10  21  40  65  86 122 163 200 254 311 363
#     4  10  22  41  60  90 128 159 200 256 310 366
#     4  11  21  41  62  91 131 167 206 255 313 372
#
# _framework density 20.179283000000002
#
# number of rings (size 3 to 8) (size 9 to 14) (size 15 to 20)
#    0.000    1.556    4.444    2.000    0.000   10.667 
#    0.000    3.333    0.000    0.000    0.000    0.000 
#    0.000    0.000    0.000    0.000    0.000    0.000 
#
# Total GULP energy -446037.922890 kJ/mol
# GULP energy per Si atom -12389.942302 kJ/mol
# Density = 2.013335 g / cm^3
# Si number density = 20.179283 Si / 1000 Ang^3
#
#
#
# Elastic Constant Matrix: (Units=GPa)
#
#
# Indices 1 2 3 4 5 6 
#
# 1 103.3874 40.9105 53.0933 0.0000 0.0000 0.0000
# 2 40.9105 92.9766 31.6585 0.0000 0.0000 0.0000
# 3 53.0933 31.6585 170.7061 0.0000 0.0000 0.0000
# 4 0.0000 0.0000 0.0000 22.6778 0.0000 0.0000
# 5 0.0000 0.0000 0.0000 0.0000 -20.6952 0.0000
# 6 0.0000 0.0000 0.0000 0.0000 0.0000 38.0996
#
#
#
# Elastic Compliance Matrix: (Units=1/GPa)
#
#
# Indices 1 2 3 4 5 6 
#
# 1 0.013193 -0.004705 -0.003231 0.000000 0.000000 0.000000
# 2 -0.004705 0.013158 -0.000977 0.000000 0.000000 0.000000
# 3 -0.003231 -0.000977 0.007044 0.000000 0.000000 0.000000
# 4 0.000000 0.000000 0.000000 0.044096 0.000000 0.000000
# 5 0.000000 0.000000 0.000000 0.000000 -0.048320 0.000000
# 6 0.000000 0.000000 0.000000 0.000000 0.000000 0.026247
#
#
# Mechanical properties :
#
#
# Convention : Reuss Voigt Hill
#
# Bulk Modulus (GPa) = 64.22585 68.71053 66.46819
# Shear Modulus (GPa) = 63.74792 24.11029 43.92911
#
# Velocity S-wave (km/s) = 5.62666 3.46034 4.67083
# Velocity P-wave (km/s) = 8.60867 7.07738 7.88031
#
# Compressibility (1/GPa) = 0.01557005
#
# Stress axis : x y z
#
# Youngs Moduli (GPa) = 75.79601 75.99769 141.96375
#
# Poissons Ratio (x) = 0.35757 0.45866
# Poissons Ratio (y) = 0.35663 0.13869
# Poissons Ratio (z) = 0.24488 0.07424
#
# Static dielectric constant tensor:
#      x y z
#    x 3.470600 0.000000 0.000000 
#    y 0.000000 4.678700 0.000000 
#    z 0.000000 0.000000 3.470160 
# 
# 
# High freq. dielectric constant tensor:
#      x y z
#    x 1.778250 0.000000 0.000000 
#    y 0.000000 1.797710 0.000000 
#    z 0.000000 0.000000 1.796260 
# 
# From -- ./inp_files/24851.got.cif
#   From: 2010.03.12/outbox.cif.g09.slc.cpg/sg72_13_cif.got.tgz:24851.got - 2010.04.16 14:54:00.
