data_PCOD8294047
_publ_section_title
;
Structure prediction by ZEFSAII (Michael W. Deem and Ramdas Pophale) SiO2 
 PCOD8294047
Probable space group: I B A M
;
_chemical_formula_sum "Si O2"
_cell_formula_units_Z 80
_cell_length_a 8.824966
_cell_length_b 27.305481
_cell_length_c 15.446419
_cell_angle_alpha 90.000000
_cell_angle_beta 90.000000
_cell_angle_gamma 90.000000
_cell_volume 3722.122682
_symmetry_space_group_name_H-M "I B A M"
_symmetry_group_IT_number 72
_symmetry_cell_setting 'orthorhombic'
loop_
_space_group_symop_operation_xyz
x,y,z
-x,-y,z
x,-y,1/2-z
-x,y,1/2-z
-x,-y,-z
x,y,-z
-x,y,1/2+z
x,-y,1/2+z
1/2+x,1/2+y,1/2+z
1/2-x,1/2-y,1/2+z
1/2+x,1/2-y,-z
1/2-x,1/2+y,-z
1/2-x,1/2-y,1/2-z
1/2+x,1/2+y,1/2-z
1/2-x,1/2+y,z
1/2+x,1/2-y,z
loop_
_atom_site_type_symbol
_atom_site_label
_atom_site_fract_x
_atom_site_fract_y
_atom_site_fract_z
Si Si1 0.657495 0.410228 0.782370
Si Si2 0.515631 0.779285 0.100726
Si Si3 0.901275 0.545776 0.402388
Si Si4 0.401657 0.875041 0.166695
Si Si5 0.348356 0.684580 0.102043
O O1 0.500000 0.434380 0.750000
O O2 0.758299 0.448528 0.837475
O O3 0.734507 0.393290 0.691754
O O4 0.623119 0.363946 0.843714
O O5 0.398586 0.817916 0.142512
O O6 0.474218 0.724395 0.130933
O O7 0.685649 0.792704 0.127123
O O8 0.486362 0.782447 0.000000
O O9 0.840241 0.537172 0.500000
O O10 0.000000 0.500000 0.369098
O O11 0.013230 0.592986 0.406634
O O12 0.500000 0.885380 0.250000
O O13 0.356342 0.671956 0.000000
#
# Coordination Sequence:
#
# PCOD8294047 Si02
#       5
#    16  16  16  16  16
#     4  11  24  39  59  96 135 162 200 261 328 378
#     4  10  20  35  55  83 121 171 222 264 306 360
#     4  10  21  43  73  94 116 161 214 260 312 380
#     4  10  20  36  58  88 122 163 210 258 314 377
#     4  10  21  37  57  83 126 178 221 261 306 364
#
# _framework density 21.493112
#
# number of rings (size 3 to 8) (size 9 to 14) (size 15 to 20)
#    0.000    1.800    4.000    1.200    2.800    5.200 
#    0.000    5.000    0.000    2.400    0.000    0.000 
#    0.000    0.000    0.000    0.000    0.000    0.000 
#
# Total GULP energy -495867.992569 kJ/mol
# GULP energy per Si atom -12396.699814 kJ/mol
# Density = 2.144419 g / cm^3
# Si number density = 21.493112 Si / 1000 Ang^3
#
#
#
# Elastic Constant Matrix: (Units=GPa)
#
#
# Indices 1 2 3 4 5 6 
#
# 1 118.6688 37.2940 46.2126 0.0000 0.0000 0.0000
# 2 37.2940 84.7605 28.5098 -0.0001 0.0000 0.0000
# 3 46.2126 28.5098 60.1761 -0.0001 0.0000 0.0000
# 4 0.0000 -0.0001 -0.0001 20.7603 0.0000 0.0000
# 5 0.0000 0.0000 0.0000 0.0000 27.4206 0.0000
# 6 0.0000 0.0000 0.0000 0.0000 0.0000 35.4032
#
#
#
# Elastic Compliance Matrix: (Units=1/GPa)
#
#
# Indices 1 2 3 4 5 6 
#
# 1 0.012523 -0.002707 -0.008335 0.000000 0.000000 0.000000
# 2 -0.002707 0.014619 -0.004848 0.000000 0.000000 0.000000
# 3 -0.008335 -0.004848 0.025315 0.000000 0.000000 0.000000
# 4 0.000000 0.000000 0.000000 0.048169 0.000000 0.000000
# 5 0.000000 0.000000 0.000000 0.000000 0.036469 0.000000
# 6 0.000000 0.000000 0.000000 0.000000 0.000000 0.028246
#
#
# Mechanical properties :
#
#
# Convention : Reuss Voigt Hill
#
# Bulk Modulus (GPa) = 48.35697 54.18200 51.26949
# Shear Modulus (GPa) = 24.50814 26.82276 25.66545
#
# Velocity S-wave (km/s) = 3.38047 3.53649 3.45936
# Velocity P-wave (km/s) = 6.14690 6.47607 6.31363
#
# Compressibility (1/GPa) = 0.02067954
#
# Stress axis : x y z
#
# Youngs Moduli (GPa) = 79.85130 68.40230 39.50150
#
# Poissons Ratio (x) = 0.18514 0.32924
# Poissons Ratio (y) = 0.21613 0.19149
# Poissons Ratio (z) = 0.66556 0.33159
#
# Static dielectric constant tensor:
#      x y z
#    x 4.263510 0.000000 0.000000 
#    y 0.000000 3.896200 0.000000 
#    z 0.000000 0.000000 4.145540 
# 
# 
# High freq. dielectric constant tensor:
#      x y z
#    x 1.830390 0.000000 0.000000 
#    y 0.000000 1.836750 0.000000 
#    z 0.000000 0.000000 1.842140 
# 
# From -- ./inp_files/28156.got.cif
#   From: 2010.03.12/outbox.cif.g09.slc.cpg/sg72_15_cif.got.tgz:28156.got - 2010.04.16 14:54:00.
