data_PCOD8294928
_publ_section_title
;
Structure prediction by ZEFSAII (Michael W. Deem and Ramdas Pophale) SiO2 
 PCOD8294928
Probable space group: I B A M
;
_chemical_formula_sum "Si O2"
_cell_formula_units_Z 52
_cell_length_a 9.553242
_cell_length_b 14.901065
_cell_length_c 18.498916
_cell_angle_alpha 90.000000
_cell_angle_beta 90.000000
_cell_angle_gamma 90.000000
_cell_volume 2633.385069
_symmetry_space_group_name_H-M "I B A M"
_symmetry_group_IT_number 72
_symmetry_cell_setting 'orthorhombic'
loop_
_space_group_symop_operation_xyz
x,y,z
-x,-y,z
x,-y,1/2-z
-x,y,1/2-z
-x,-y,-z
x,y,-z
-x,y,1/2+z
x,-y,1/2+z
1/2+x,1/2+y,1/2+z
1/2-x,1/2-y,1/2+z
1/2+x,1/2-y,-z
1/2-x,1/2+y,-z
1/2-x,1/2-y,1/2-z
1/2+x,1/2+y,1/2-z
1/2-x,1/2+y,z
1/2+x,1/2-y,z
loop_
_atom_site_type_symbol
_atom_site_label
_atom_site_fract_x
_atom_site_fract_y
_atom_site_fract_z
Si Si1 0.500000 0.500000 0.750000
Si Si2 0.401559 0.180475 0.583466
Si Si3 0.763192 0.474449 0.675135
Si Si4 0.278446 0.848576 0.583114
O O1 0.605036 0.441607 0.698195
O O2 0.364754 0.159056 0.500000
O O3 0.346131 0.099842 0.632014
O O4 0.566356 0.189696 0.595719
O O5 0.329717 0.272357 0.608747
O O6 0.844418 0.500000 0.750000
O O7 0.748029 0.563040 0.627638
O O8 0.254012 0.873576 0.500000
#
# Coordination Sequence:
#
# PCOD8294928 Si02
#       4
#     4  16  16  16
#     4   8  24  40  56  92 116 154 200 248 280 360
#     4  10  22  39  62  90 119 153 196 242 293 350
#     4  10  22  40  60  82 122 154 198 238 293 345
#     4  10  22  39  62  90 119 153 196 242 293 350
#
# _framework density 19.746448999999998
#
# number of rings (size 3 to 8) (size 9 to 14) (size 15 to 20)
#    0.923    1.231    0.000    1.846    4.308    6.154 
#    0.000    1.538    0.000    0.000    0.000    0.000 
#    0.000    0.000    0.000    0.000    0.000    0.000 
#
# Total GULP energy -322172.372213 kJ/mol
# GULP energy per Si atom -12391.245085 kJ/mol
# Density = 1.970150 g / cm^3
# Si number density = 19.746449 Si / 1000 Ang^3
#
#
#
# Elastic Constant Matrix: (Units=GPa)
#
#
# Indices 1 2 3 4 5 6 
#
# 1 95.8336 32.8129 32.3741 0.0000 0.0000 0.0000
# 2 32.8129 123.2882 65.5427 0.0000 0.0000 0.0000
# 3 32.3741 65.5427 91.7268 0.0000 0.0000 0.0000
# 4 0.0000 0.0000 0.0000 -160.3272 0.0000 0.0000
# 5 0.0000 0.0000 0.0000 0.0000 26.8830 0.0000
# 6 0.0000 0.0000 0.0000 0.0000 0.0000 19.9566
#
#
#
# Elastic Compliance Matrix: (Units=1/GPa)
#
#
# Indices 1 2 3 4 5 6 
#
# 1 0.012022 -0.001522 -0.003155 0.000000 0.000000 0.000000
# 2 -0.001522 0.013272 -0.008946 0.000000 0.000000 0.000000
# 3 -0.003155 -0.008946 0.018408 0.000000 0.000000 0.000000
# 4 0.000000 0.000000 0.000000 -0.006237 0.000000 0.000000
# 5 0.000000 0.000000 0.000000 0.000000 0.037198 0.000000
# 6 0.000000 0.000000 0.000000 0.000000 0.000000 0.050109
#
#
# Mechanical properties :
#
#
# Convention : Reuss Voigt Hill
#
# Bulk Modulus (GPa) = 60.77356 63.58979 62.18168
# Shear Modulus (GPa) = 31.74514 -10.68957 10.52778
#
# Velocity S-wave (km/s) = 4.01389 -2.32920 2.31151
# Velocity P-wave (km/s) = 7.23363 5.00395 6.21953
#
# Compressibility (1/GPa) = 0.01645452
#
# Stress axis : x y z
#
# Youngs Moduli (GPa) = 83.18184 75.34507 54.32377
#
# Poissons Ratio (x) = 0.11468 0.17141
# Poissons Ratio (y) = 0.12661 0.48600
# Poissons Ratio (z) = 0.26247 0.67406
#
# Static dielectric constant tensor:
#      x y z
#    x 3.723210 0.000000 0.000000 
#    y 0.000000 3.481770 0.000000 
#    z 0.000000 0.000000 3.988480 
# 
# 
# High freq. dielectric constant tensor:
#      x y z
#    x 1.779030 0.000000 0.000000 
#    y 0.000000 1.752140 0.000000 
#    z 0.000000 0.000000 1.778820 
# 
# From -- ./inp_files/27446.got.cif
#   From: 2010.03.12/outbox.cif.g09.slc.cpg/sg72_14_cif.got.tgz:27446.got - 2010.04.16 14:54:00.
