data_PCOD8294574
_publ_section_title
;
Structure prediction by ZEFSAII (Michael W. Deem and Ramdas Pophale) SiO2 
 PCOD8294574
Probable space group: I B A M
;
_chemical_formula_sum "Si O2"
_cell_formula_units_Z 116
_cell_length_a 22.442402
_cell_length_b 28.100252
_cell_length_c 8.969304
_cell_angle_alpha 90.000000
_cell_angle_beta 90.000000
_cell_angle_gamma 90.000000
_cell_volume 5656.376327
_symmetry_space_group_name_H-M "I B A M"
_symmetry_group_IT_number 72
_symmetry_cell_setting 'orthorhombic'
loop_
_space_group_symop_operation_xyz
x,y,z
-x,-y,z
x,-y,1/2-z
-x,y,1/2-z
-x,-y,-z
x,y,-z
-x,y,1/2+z
x,-y,1/2+z
1/2+x,1/2+y,1/2+z
1/2-x,1/2-y,1/2+z
1/2+x,1/2-y,-z
1/2-x,1/2+y,-z
1/2-x,1/2-y,1/2-z
1/2+x,1/2+y,1/2-z
1/2-x,1/2+y,z
1/2+x,1/2-y,z
loop_
_atom_site_type_symbol
_atom_site_label
_atom_site_fract_x
_atom_site_fract_y
_atom_site_fract_z
Si Si1 0.101348 0.571974 0.167536
Si Si2 0.559827 0.746575 0.672225
Si Si3 0.730044 0.047364 0.677768
Si Si4 0.129044 0.673244 0.823842
Si Si5 0.438549 0.635926 0.825924
Si Si6 0.241688 0.300044 0.829440
Si Si7 0.500000 0.000000 0.750000
Si Si8 0.678789 0.384429 0.330229
O O1 0.161551 0.551602 0.242261
O O2 0.090017 0.626224 0.227057
O O3 0.044278 0.536379 0.165843
O O4 0.120961 0.580319 0.000000
O O5 0.500000 0.763627 0.750000
O O6 0.553815 0.758316 0.500000
O O7 0.610850 0.778370 0.742966
O O8 0.572915 0.691570 0.702084
O O9 0.733018 0.044972 0.500000
O O10 0.770705 0.089473 0.736445
O O11 0.756931 0.000000 0.750000
O O12 0.196169 0.666644 0.764637
O O13 0.127194 0.681493 0.000000
O O14 0.500000 0.619600 0.750000
O O15 0.384981 0.607600 0.747834
O O16 0.441059 0.623402 0.000000
O O17 0.250000 0.250000 0.750000
O O18 0.304133 0.328486 0.829181
O O19 0.219544 0.292287 0.000000
O O20 0.675732 0.403581 0.500000
#
# Coordination Sequence:
#
# PCOD8294574 Si02
#       8
#    16  16  16  16  16  16   4  16
#     4  10  23  40  60  86 117 157 204 260 324 381
#     4  10  21  37  56  83 117 162 210 253 306 367
#     4  11  22  42  66  92 124 160 205 259 318 378
#     4  11  22  38  56  81 118 160 206 260 317 377
#     4  10  21  38  62  90 125 164 204 251 299 361
#     4  11  23  37  57  87 122 163 207 257 315 379
#     4  12  22  44  64  90 120 160 216 276 334 392
#     4  11  23  39  61  92 123 161 208 254 312 377
#
# _framework density 20.507829999999998
#
# number of rings (size 3 to 8) (size 9 to 14) (size 15 to 20)
#    0.000    1.379    2.069    3.517    0.966    5.517 
#    0.000    2.069    0.000    0.414    0.000    2.897 
#    0.000    0.000    0.000    0.000    0.000    0.000 
#
# Total GULP energy -718747.997048 kJ/mol
# GULP energy per Si atom -12392.206846 kJ/mol
# Density = 2.046115 g / cm^3
# Si number density = 20.507830 Si / 1000 Ang^3
#
#
#
# Elastic Constant Matrix: (Units=GPa)
#
#
# Indices 1 2 3 4 5 6 
#
# 1 126.7907 36.5823 47.5119 0.0000 0.0000 0.0000
# 2 36.5823 75.3813 34.9976 0.0000 0.0000 0.0000
# 3 47.5119 34.9976 108.9782 0.0000 0.0000 0.0000
# 4 0.0000 0.0000 0.0000 28.6088 0.0000 0.0000
# 5 0.0000 0.0000 0.0000 0.0000 34.8517 0.0000
# 6 0.0000 0.0000 0.0000 0.0000 0.0000 31.7507
#
#
#
# Elastic Compliance Matrix: (Units=1/GPa)
#
#
# Indices 1 2 3 4 5 6 
#
# 1 0.010102 -0.003359 -0.003326 0.000000 0.000000 0.000000
# 2 -0.003359 0.016707 -0.003901 0.000000 0.000000 0.000000
# 3 -0.003326 -0.003901 0.011879 0.000000 0.000000 0.000000
# 4 0.000000 0.000000 0.000000 0.034954 0.000000 0.000000
# 5 0.000000 0.000000 0.000000 0.000000 0.028693 0.000000
# 6 0.000000 0.000000 0.000000 0.000000 0.000000 0.031495
#
#
# Mechanical properties :
#
#
# Convention : Reuss Voigt Hill
#
# Bulk Modulus (GPa) = 57.08626 61.03709 59.06168
# Shear Modulus (GPa) = 31.08666 31.84613 31.46640
#
# Velocity S-wave (km/s) = 3.89761 3.94493 3.92134
# Velocity P-wave (km/s) = 6.93916 7.11178 7.02600
#
# Compressibility (1/GPa) = 0.01751735
#
# Stress axis : x y z
#
# Youngs Moduli (GPa) = 98.98731 59.85537 84.18275
#
# Poissons Ratio (x) = 0.20103 0.27997
# Poissons Ratio (y) = 0.33245 0.32840
# Poissons Ratio (z) = 0.32921 0.23350
#
# Static dielectric constant tensor:
#      x y z
#    x 3.673430 0.000000 0.000000 
#    y 0.000000 3.617690 0.000000 
#    z 0.000000 0.000000 3.680040 
# 
# 
# High freq. dielectric constant tensor:
#      x y z
#    x 1.800680 0.000000 0.000000 
#    y 0.000000 1.792380 0.000000 
#    z 0.000000 0.000000 1.803290 
# 
# From -- ./inp_files/7354.got.cif
#   From: 2010.03.12/outbox.cif.g09.slc.cpg/sg72_4_cif.got.tgz:7354.got - 2010.04.16 14:54:00.
