data_PCOD8294100
_publ_section_title
;
Structure prediction by ZEFSAII (Michael W. Deem and Ramdas Pophale) SiO2 
 PCOD8294100
Probable space group: I B A M
;
_chemical_formula_sum "Si O2"
_cell_formula_units_Z 104
_cell_length_a 27.082349
_cell_length_b 21.764118
_cell_length_c 8.920384
_cell_angle_alpha 90.000000
_cell_angle_beta 90.000000
_cell_angle_gamma 90.000000
_cell_volume 5257.883418
_symmetry_space_group_name_H-M "I B A M"
_symmetry_group_IT_number 72
_symmetry_cell_setting 'orthorhombic'
loop_
_space_group_symop_operation_xyz
x,y,z
-x,-y,z
x,-y,1/2-z
-x,y,1/2-z
-x,-y,-z
x,y,-z
-x,y,1/2+z
x,-y,1/2+z
1/2+x,1/2+y,1/2+z
1/2-x,1/2-y,1/2+z
1/2+x,1/2-y,-z
1/2-x,1/2+y,-z
1/2-x,1/2-y,1/2-z
1/2+x,1/2+y,1/2-z
1/2-x,1/2+y,z
1/2+x,1/2-y,z
loop_
_atom_site_type_symbol
_atom_site_label
_atom_site_fract_x
_atom_site_fract_y
_atom_site_fract_z
Si Si1 0.148328 0.884089 0.668612
Si Si2 0.448993 0.657474 0.324845
Si Si3 0.296989 0.500000 0.750000
Si Si4 0.798189 0.221313 0.177886
Si Si5 0.550674 0.198306 0.324364
Si Si6 0.299266 0.943893 0.163166
Si Si7 0.146250 0.674503 0.322160
O O1 0.141965 0.858871 0.500000
O O2 0.096038 0.880547 0.752857
O O3 0.190214 0.845573 0.755848
O O4 0.167510 0.954498 0.657730
O O5 0.500000 0.635049 0.250000
O O6 0.450909 0.642007 0.500000
O O7 0.440868 0.729405 0.295822
O O8 0.260007 0.544014 0.653197
O O9 0.750000 0.250000 0.250000
O O10 0.842971 0.264879 0.225091
O O11 0.792105 0.216234 0.000000
O O12 0.500000 0.176944 0.250000
O O13 0.551477 0.182257 0.500000
O O14 0.591277 0.158420 0.233132
O O15 0.314491 0.877782 0.231082
O O16 0.325441 0.000000 0.250000
O O17 0.323087 0.944459 0.000000
O O18 0.149179 0.687576 0.500000
#
# Coordination Sequence:
#
# PCOD8294100 Si02
#       7
#    16  16   8  16  16  16  16
#     4  12  24  40  64  90 120 161 205 254 308 364
#     4  10  21  38  61  89 123 160 199 249 305 364
#     4  10  24  42  63  84 117 160 212 248 298 358
#     4  12  25  39  57  86 123 160 199 252 308 363
#     4  10  20  35  58  90 124 161 197 242 301 364
#     4   9  21  39  60  85 116 158 202 246 293 350
#     4  11  21  37  61  90 123 158 199 248 302 363
#
# _framework density 19.779823
#
# number of rings (size 3 to 8) (size 9 to 14) (size 15 to 20)
#    0.462    0.923    1.538    4.615    0.000    6.154 
#    0.000    0.385    0.000    2.308    0.000    3.231 
#    0.000    0.000    0.000    0.000    0.000    0.000 
#
# Total GULP energy -644467.690899 kJ/mol
# GULP energy per Si atom -12393.609440 kJ/mol
# Density = 1.973480 g / cm^3
# Si number density = 19.779823 Si / 1000 Ang^3
#
#
#
# Elastic Constant Matrix: (Units=GPa)
#
#
# Indices 1 2 3 4 5 6 
#
# 1 144.0430 41.8809 50.3980 0.0000 0.0000 0.0000
# 2 41.8809 78.0647 36.3655 0.0000 0.0000 0.0000
# 3 50.3980 36.3655 135.4309 0.0000 0.0000 0.0000
# 4 0.0000 0.0000 0.0000 23.6933 0.0000 0.0000
# 5 0.0000 0.0000 0.0000 0.0000 33.4502 0.0000
# 6 0.0000 0.0000 0.0000 0.0000 0.0000 31.3642
#
#
#
# Elastic Compliance Matrix: (Units=1/GPa)
#
#
# Indices 1 2 3 4 5 6 
#
# 1 0.008809 -0.003656 -0.002296 0.000000 0.000000 0.000000
# 2 -0.003656 0.016159 -0.002978 0.000000 0.000000 0.000000
# 3 -0.002296 -0.002978 0.009038 0.000000 0.000000 0.000000
# 4 0.000000 0.000000 0.000000 0.042206 0.000000 0.000000
# 5 0.000000 0.000000 0.000000 0.000000 0.029895 0.000000
# 6 0.000000 0.000000 0.000000 0.000000 0.000000 0.031883
#
#
# Mechanical properties :
#
#
# Convention : Reuss Voigt Hill
#
# Bulk Modulus (GPa) = 61.94198 68.31418 65.12808
# Shear Modulus (GPa) = 31.01094 32.96116 31.98605
#
# Velocity S-wave (km/s) = 3.96385 4.08659 4.02569
# Velocity P-wave (km/s) = 7.23417 7.54183 7.38960
#
# Compressibility (1/GPa) = 0.01614414
#
# Stress axis : x y z
#
# Youngs Moduli (GPa) = 113.52231 61.88579 110.64270
#
# Poissons Ratio (x) = 0.22626 0.25407
# Poissons Ratio (y) = 0.41505 0.32953
# Poissons Ratio (z) = 0.26068 0.18432
#
# Static dielectric constant tensor:
#      x y z
#    x 3.692310 0.000000 0.000000 
#    y 0.000000 3.492580 0.000000 
#    z 0.000000 0.000000 3.578860 
# 
# 
# High freq. dielectric constant tensor:
#      x y z
#    x 1.774370 0.000000 0.000000 
#    y 0.000000 1.746320 0.000000 
#    z 0.000000 0.000000 1.777960 
# 
# From -- ./inp_files/9215.got.cif
#   From: 2010.03.12/outbox.cif.g09.slc.cpg/sg72_5_cif.got.tgz:9215.got - 2010.04.16 14:54:00.
