data_PCOD8294500
_publ_section_title
;
Structure prediction by ZEFSAII (Michael W. Deem and Ramdas Pophale) SiO2 
 PCOD8294500
Probable space group: I B A M
;
_chemical_formula_sum "Si O2"
_cell_formula_units_Z 64
_cell_length_a 22.569062
_cell_length_b 11.141816
_cell_length_c 13.904100
_cell_angle_alpha 90.000000
_cell_angle_beta 90.000000
_cell_angle_gamma 90.000000
_cell_volume 3496.329659
_symmetry_space_group_name_H-M "I B A M"
_symmetry_group_IT_number 72
_symmetry_cell_setting 'orthorhombic'
loop_
_space_group_symop_operation_xyz
x,y,z
-x,-y,z
x,-y,1/2-z
-x,y,1/2-z
-x,-y,-z
x,y,-z
-x,y,1/2+z
x,-y,1/2+z
1/2+x,1/2+y,1/2+z
1/2-x,1/2-y,1/2+z
1/2+x,1/2-y,-z
1/2-x,1/2+y,-z
1/2-x,1/2-y,1/2-z
1/2+x,1/2+y,1/2-z
1/2-x,1/2+y,z
1/2+x,1/2-y,z
loop_
_atom_site_type_symbol
_atom_site_label
_atom_site_fract_x
_atom_site_fract_y
_atom_site_fract_z
Si Si1 0.930564 0.813741 0.248609
Si Si2 0.275453 0.684257 0.388928
Si Si3 0.831277 0.360005 0.739186
Si Si4 0.381327 0.520041 0.610459
O O1 0.897884 0.689398 0.225490
O O2 0.918236 0.863336 0.355851
O O3 0.000000 0.793200 0.250000
O O4 0.902503 0.907222 0.172442
O O5 0.275276 0.721233 0.500000
O O6 0.208354 0.665506 0.354682
O O7 0.302859 0.796704 0.332108
O O8 0.312382 0.559337 0.372898
O O9 0.837081 0.500000 0.750000
O O10 0.395016 0.491645 0.500000
#
# Coordination Sequence:
#
# PCOD8294500 Si02
#       4
#    16  16  16  16
#     4  10  21  35  53  80 112 147 188 225 266 324
#     4   9  20  36  57  82 111 141 178 229 284 331
#     4  10  22  36  54  79 112 147 181 223 272 331
#     4   9  18  34  57  83 107 138 182 235 283 317
#
# _framework density 18.304908999999999
#
# number of rings (size 3 to 8) (size 9 to 14) (size 15 to 20)
#    0.000    2.500    0.000    1.500   10.500    4.500 
#    0.000    0.000    0.000    0.000    0.000   10.500 
#    0.000    0.000    0.000    0.000    0.000    0.000 
#
# Total GULP energy -396520.983188 kJ/mol
# GULP energy per Si atom -12391.280725 kJ/mol
# Density = 1.826325 g / cm^3
# Si number density = 18.304909 Si / 1000 Ang^3
#
#
#
# Elastic Constant Matrix: (Units=GPa)
#
#
# Indices 1 2 3 4 5 6 
#
# 1 132.7255 61.6752 47.2153 0.0000 0.0000 0.0000
# 2 61.6752 128.3450 41.7545 0.0000 0.0000 0.0000
# 3 47.2153 41.7545 113.4128 0.0000 0.0000 0.0000
# 4 0.0000 0.0000 0.0000 13.3994 0.0000 0.0000
# 5 0.0000 0.0000 0.0000 0.0000 15.2906 0.0000
# 6 0.0000 0.0000 0.0000 0.0000 0.0000 24.2037
#
#
#
# Elastic Compliance Matrix: (Units=1/GPa)
#
#
# Indices 1 2 3 4 5 6 
#
# 1 0.010449 -0.004097 -0.002842 0.000000 0.000000 0.000000
# 2 -0.004097 0.010458 -0.002145 0.000000 0.000000 0.000000
# 3 -0.002842 -0.002145 0.010790 0.000000 0.000000 0.000000
# 4 0.000000 0.000000 0.000000 0.074630 0.000000 0.000000
# 5 0.000000 0.000000 0.000000 0.000000 0.065400 0.000000
# 6 0.000000 0.000000 0.000000 0.000000 0.000000 0.041316
#
#
# Mechanical properties :
#
#
# Convention : Reuss Voigt Hill
#
# Bulk Modulus (GPa) = 73.90706 75.08594 74.49650
# Shear Modulus (GPa) = 21.21170 25.50129 23.35649
#
# Velocity S-wave (km/s) = 3.40781 3.73653 3.57595
# Velocity P-wave (km/s) = 7.47980 7.72814 7.60498
#
# Compressibility (1/GPa) = 0.01353051
#
# Stress axis : x y z
#
# Youngs Moduli (GPa) = 95.70384 95.62200 92.67809
#
# Poissons Ratio (x) = 0.39173 0.26337
# Poissons Ratio (y) = 0.39206 0.19877
# Poissons Ratio (z) = 0.27197 0.20508
#
# Static dielectric constant tensor:
#      x y z
#    x 3.469700 0.000000 0.000000 
#    y 0.000000 3.243440 0.000000 
#    z 0.000000 0.000000 3.472510 
# 
# 
# High freq. dielectric constant tensor:
#      x y z
#    x 1.707140 0.000000 0.000000 
#    y 0.000000 1.695940 0.000000 
#    z 0.000000 0.000000 1.709800 
# 
# From -- ./inp_files/18691.got.cif
#   From: 2010.03.12/outbox.cif.g09.slc.cpg/sg72_10_cif.got.tgz:18691.got - 2010.04.16 14:54:00.
