data_PCOD8294040
_publ_section_title
;
Structure prediction by ZEFSAII (Michael W. Deem and Ramdas Pophale) SiO2 
 PCOD8294040
Probable space group: I B A M
;
_chemical_formula_sum "Si O2"
_cell_formula_units_Z 96
_cell_length_a 24.279418
_cell_length_b 23.715658
_cell_length_c 8.496796
_cell_angle_alpha 90.000000
_cell_angle_beta 90.000000
_cell_angle_gamma 90.000000
_cell_volume 4892.475306
_symmetry_space_group_name_H-M "I B A M"
_symmetry_group_IT_number 72
_symmetry_cell_setting 'orthorhombic'
loop_
_space_group_symop_operation_xyz
x,y,z
-x,-y,z
x,-y,1/2-z
-x,y,1/2-z
-x,-y,-z
x,y,-z
-x,y,1/2+z
x,-y,1/2+z
1/2+x,1/2+y,1/2+z
1/2-x,1/2-y,1/2+z
1/2+x,1/2-y,-z
1/2-x,1/2+y,-z
1/2-x,1/2-y,1/2-z
1/2+x,1/2+y,1/2-z
1/2-x,1/2+y,z
1/2+x,1/2-y,z
loop_
_atom_site_type_symbol
_atom_site_label
_atom_site_fract_x
_atom_site_fract_y
_atom_site_fract_z
Si Si1 0.156815 0.642022 0.814276
Si Si2 0.440680 0.938143 0.312869
Si Si3 0.771718 0.869556 0.314411
Si Si4 0.058356 0.845959 0.183833
Si Si5 0.369085 0.439494 0.684264
Si Si6 0.157504 0.767177 0.816432
O O1 0.105785 0.605194 0.748761
O O2 0.214506 0.613606 0.767428
O O3 0.157597 0.705069 0.738256
O O4 0.150857 0.645188 0.000000
O O5 0.500000 0.917750 0.250000
O O6 0.442354 0.940151 0.500000
O O7 0.425817 0.000000 0.250000
O O8 0.763466 0.867337 0.500000
O O9 0.814956 0.918091 0.274109
O O10 0.794956 0.809111 0.249042
O O11 0.078743 0.900305 0.278990
O O12 0.098095 0.793521 0.217864
O O13 0.000000 0.826904 0.250000
O O14 0.056410 0.860929 0.000000
O O15 0.384922 0.500000 0.750000
O O16 0.357109 0.441131 0.500000
O O17 0.168362 0.761005 0.000000
#
# Coordination Sequence:
#
# PCOD8294040 Si02
#       6
#    16  16  16  16  16  16
#     4  10  20  35  56  82 108 142 183 223 267 322
#     4  10  21  37  57  77 104 138 174 218 268 317
#     4  10  20  35  55  81 112 145 178 221 270 321
#     4  10  20  36  56  81 111 145 183 226 274 326
#     4  11  22  38  58  80 108 144 183 227 274 323
#     4   8  17  34  54  77 110 144 179 222 268 316
#
# _framework density 19.621969
#
# number of rings (size 3 to 8) (size 9 to 14) (size 15 to 20)
#    0.000    2.167    0.000    5.000    0.000    3.000 
#    0.000    7.500    0.000    0.000    0.000    0.000 
#    0.000    0.000    0.000    0.000    0.000    0.000 
#
# Total GULP energy -595198.805065 kJ/mol
# GULP energy per Si atom -12399.975106 kJ/mol
# Density = 1.957731 g / cm^3
# Si number density = 19.621969 Si / 1000 Ang^3
#
#
#
# Elastic Constant Matrix: (Units=GPa)
#
#
# Indices 1 2 3 4 5 6 
#
# 1 132.6763 26.7529 22.0888 0.0000 0.0000 0.0000
# 2 26.7529 57.0563 22.8342 0.0000 0.0000 0.0000
# 3 22.0888 22.8342 38.9523 0.0000 0.0000 0.0000
# 4 0.0000 0.0000 0.0000 22.6507 0.0000 0.0000
# 5 0.0000 0.0000 0.0000 0.0000 32.9492 0.0000
# 6 0.0000 0.0000 0.0000 0.0000 0.0000 63.6946
#
#
#
# Elastic Compliance Matrix: (Units=1/GPa)
#
#
# Indices 1 2 3 4 5 6 
#
# 1 0.008637 -0.002730 -0.003297 0.000000 0.000000 0.000000
# 2 -0.002730 0.023762 -0.012381 0.000000 0.000000 0.000000
# 3 -0.003297 -0.012381 0.034800 0.000000 0.000000 0.000000
# 4 0.000000 0.000000 0.000000 0.044149 0.000000 0.000000
# 5 0.000000 0.000000 0.000000 0.000000 0.030350 0.000000
# 6 0.000000 0.000000 0.000000 0.000000 0.000000 0.015700
#
#
# Mechanical properties :
#
#
# Convention : Reuss Voigt Hill
#
# Bulk Modulus (GPa) = 32.91473 41.33743 37.12608
# Shear Modulus (GPa) = 24.46894 34.32617 29.39756
#
# Velocity S-wave (km/s) = 3.53514 4.18709 3.87485
# Velocity P-wave (km/s) = 5.78566 6.66995 6.24348
#
# Compressibility (1/GPa) = 0.03038153
#
# Stress axis : x y z
#
# Youngs Moduli (GPa) = 115.78682 42.08469 28.73552
#
# Poissons Ratio (x) = 0.11489 0.09475
# Poissons Ratio (y) = 0.31610 0.35578
# Poissons Ratio (z) = 0.38177 0.52106
#
# Static dielectric constant tensor:
#      x y z
#    x 3.768300 0.000000 0.000000 
#    y 0.000000 3.827420 0.000000 
#    z 0.000000 0.000000 3.420930 
# 
# 
# High freq. dielectric constant tensor:
#      x y z
#    x 1.770920 0.000000 0.000000 
#    y 0.000000 1.762590 0.000000 
#    z 0.000000 0.000000 1.754620 
# 
# From -- ./inp_files/6984.got.cif
#   From: 2010.03.12/outbox.cif.g09.slc.cpg/sg72_4_cif.got.tgz:6984.got - 2010.04.16 14:54:00.
