data_PCOD8294633
_publ_section_title
;
Structure prediction by ZEFSAII (Michael W. Deem and Ramdas Pophale) SiO2 
 PCOD8294633
Probable space group: I B A M
;
_chemical_formula_sum "Si O2"
_cell_formula_units_Z 80
_cell_length_a 9.128450
_cell_length_b 23.153643
_cell_length_c 16.815621
_cell_angle_alpha 90.000000
_cell_angle_beta 90.000000
_cell_angle_gamma 90.000000
_cell_volume 3554.097063
_symmetry_space_group_name_H-M "I B A M"
_symmetry_group_IT_number 72
_symmetry_cell_setting 'orthorhombic'
loop_
_space_group_symop_operation_xyz
x,y,z
-x,-y,z
x,-y,1/2-z
-x,y,1/2-z
-x,-y,-z
x,y,-z
-x,y,1/2+z
x,-y,1/2+z
1/2+x,1/2+y,1/2+z
1/2-x,1/2-y,1/2+z
1/2+x,1/2-y,-z
1/2-x,1/2+y,-z
1/2-x,1/2-y,1/2-z
1/2+x,1/2+y,1/2-z
1/2-x,1/2+y,z
1/2+x,1/2-y,z
loop_
_atom_site_type_symbol
_atom_site_label
_atom_site_fract_x
_atom_site_fract_y
_atom_site_fract_z
Si Si1 0.329525 0.004085 0.594879
Si Si2 0.304405 0.293789 0.316088
Si Si3 0.838373 0.888560 0.410277
Si Si4 0.609912 0.418739 0.182400
Si Si5 0.912383 0.764568 0.409527
O O1 0.304953 0.992610 0.500000
O O2 0.236277 0.960120 0.649612
O O3 0.500000 0.000000 0.616220
O O4 0.277310 0.066923 0.629056
O O5 0.250000 0.250000 0.250000
O O6 0.317846 0.359301 0.283059
O O7 0.185067 0.291412 0.387771
O O8 0.457382 0.270026 0.347624
O O9 0.818842 0.905811 0.500000
O O10 0.806397 0.820784 0.396889
O O11 0.007556 0.901782 0.391100
O O12 0.500000 0.445187 0.250000
O O13 0.970059 0.760072 0.500000
#
# Coordination Sequence:
#
# PCOD8294633 Si02
#       5
#    16  16  16  16  16
#     4  10  22  41  66  97 128 158 199 258 322 371
#     4  11  22  40  62  88 124 166 209 257 317 372
#     4   9  19  38  62  89 124 165 205 248 303 372
#     4  11  23  40  62  88 121 166 215 252 301 379
#     4  10  21  37  61  92 123 160 211 260 304 367
#
# _framework density 22.509232999999998
#
# number of rings (size 3 to 8) (size 9 to 14) (size 15 to 20)
#    0.000    1.800    0.000    4.800    0.000    7.200 
#    0.000    6.000    0.000    0.000    0.000    0.000 
#    0.000    0.000    0.000    0.000    0.000    0.000 
#
# Total GULP energy -495543.217047 kJ/mol
# GULP energy per Si atom -12388.580426 kJ/mol
# Density = 2.245800 g / cm^3
# Si number density = 22.509233 Si / 1000 Ang^3
#
#
#
# Elastic Constant Matrix: (Units=GPa)
#
#
# Indices 1 2 3 4 5 6 
#
# 1 111.4015 52.6754 42.1137 0.0000 0.0000 0.0000
# 2 52.6754 80.7821 50.1069 0.0000 0.0000 0.0000
# 3 42.1137 50.1069 71.7149 -0.0001 0.0000 -0.0001
# 4 0.0000 0.0000 -0.0001 34.6724 0.0000 0.0000
# 5 0.0000 0.0000 0.0000 0.0000 43.4489 0.0000
# 6 0.0000 0.0000 -0.0001 0.0000 0.0000 34.6340
#
#
#
# Elastic Compliance Matrix: (Units=1/GPa)
#
#
# Indices 1 2 3 4 5 6 
#
# 1 0.013358 -0.006785 -0.003103 0.000000 0.000000 0.000000
# 2 -0.006785 0.025294 -0.013688 0.000000 0.000000 0.000000
# 3 -0.003103 -0.013688 0.025330 0.000000 0.000000 0.000000
# 4 0.000000 0.000000 0.000000 0.028841 0.000000 0.000000
# 5 0.000000 0.000000 0.000000 0.000000 0.023016 0.000000
# 6 0.000000 0.000000 0.000000 0.000000 0.000000 0.028873
#
#
# Mechanical properties :
#
#
# Convention : Reuss Voigt Hill
#
# Bulk Modulus (GPa) = 59.42304 61.52117 60.47211
# Shear Modulus (GPa) = 25.31949 30.48456 27.90202
#
# Velocity S-wave (km/s) = 3.35752 3.68409 3.52459
# Velocity P-wave (km/s) = 6.44106 6.74445 6.59450
#
# Compressibility (1/GPa) = 0.01682849
#
# Stress axis : x y z
#
# Youngs Moduli (GPa) = 74.86023 39.53520 39.47826
#
# Poissons Ratio (x) = 0.26826 0.12252
# Poissons Ratio (y) = 0.50796 0.54038
# Poissons Ratio (z) = 0.23233 0.54116
#
# Static dielectric constant tensor:
#      x y z
#    x 4.177530 0.000000 0.000000 
#    y 0.000000 4.282990 0.000000 
#    z 0.000000 0.000000 4.224230 
# 
# 
# High freq. dielectric constant tensor:
#      x y z
#    x 1.877380 0.000000 0.000000 
#    y 0.000000 1.886280 0.000000 
#    z 0.000000 0.000000 1.896390 
# 
# From -- ./inp_files/28304.got.cif
#   From: 2010.03.12/outbox.cif.g09.slc.cpg/sg72_15_cif.got.tgz:28304.got - 2010.04.16 14:54:00.
