data_PCOD8294230
_publ_section_title
;
Structure prediction by ZEFSAII (Michael W. Deem and Ramdas Pophale) SiO2 
 PCOD8294230
Probable space group: I B A M
;
_chemical_formula_sum "Si O2"
_cell_formula_units_Z 88
_cell_length_a 18.327095
_cell_length_b 11.747229
_cell_length_c 19.789840
_cell_angle_alpha 90.000000
_cell_angle_beta 90.000000
_cell_angle_gamma 90.000000
_cell_volume 4260.605748
_symmetry_space_group_name_H-M "I B A M"
_symmetry_group_IT_number 72
_symmetry_cell_setting 'orthorhombic'
loop_
_space_group_symop_operation_xyz
x,y,z
-x,-y,z
x,-y,1/2-z
-x,y,1/2-z
-x,-y,-z
x,y,-z
-x,y,1/2+z
x,-y,1/2+z
1/2+x,1/2+y,1/2+z
1/2-x,1/2-y,1/2+z
1/2+x,1/2-y,-z
1/2-x,1/2+y,-z
1/2-x,1/2-y,1/2-z
1/2+x,1/2+y,1/2-z
1/2-x,1/2+y,z
1/2+x,1/2-y,z
loop_
_atom_site_type_symbol
_atom_site_label
_atom_site_fract_x
_atom_site_fract_y
_atom_site_fract_z
Si Si1 0.456046 0.835911 0.425981
Si Si2 0.557871 0.591062 0.118926
Si Si3 0.500000 0.708690 0.250000
Si Si4 0.601394 0.807224 0.355345
Si Si5 0.171747 0.509254 0.080226
Si Si6 0.167378 0.082034 0.920673
O O1 0.461366 0.885293 0.500000
O O2 0.440489 0.701560 0.427749
O O3 0.533175 0.863463 0.393441
O O4 0.389090 0.903005 0.392262
O O5 0.500000 0.500000 0.090063
O O6 0.536237 0.628306 0.194324
O O7 0.636539 0.532258 0.114353
O O8 0.567591 0.784865 0.280167
O O9 0.629102 0.688581 0.385104
O O10 0.665661 0.899197 0.369299
O O11 0.246708 0.576597 0.093012
O O12 0.166438 0.475015 0.000000
O O13 0.149174 0.086544 0.000000
#
# Coordination Sequence:
#
# PCOD8294230 Si02
#       6
#    16  16   8  16  16  16
#     4  10  20  36  62  93 121 156 206 260 319 378
#     4  11  21  37  63  86 123 158 216 260 310 365
#     4  10  23  42  65  88 114 169 223 278 300 352
#     4  11  22  40  66  86 124 166 219 255 314 369
#     4  10  23  40  61  94 135 164 195 258 331 393
#     4  11  23  36  60  95 128 162 198 256 328 396
#
# _framework density 20.654340999999999
#
# number of rings (size 3 to 8) (size 9 to 14) (size 15 to 20)
#    0.000    1.455    3.636    3.000    2.545    2.182 
#    0.000    8.182    8.000    0.000    0.000    0.000 
#    0.000    0.000    0.000    0.000    0.000    0.000 
#
# Total GULP energy -545124.432496 kJ/mol
# GULP energy per Si atom -12389.191648 kJ/mol
# Density = 2.060733 g / cm^3
# Si number density = 20.654341 Si / 1000 Ang^3
#
#
#
# Elastic Constant Matrix: (Units=GPa)
#
#
# Indices 1 2 3 4 5 6 
#
# 1 104.5919 22.0743 32.6427 0.0000 0.0000 0.0000
# 2 22.0743 63.2955 21.0578 0.0000 0.0000 0.0000
# 3 32.6427 21.0578 70.3598 0.0000 0.0000 0.0000
# 4 0.0000 0.0000 0.0000 19.0582 0.0000 0.0000
# 5 0.0000 0.0000 0.0000 0.0000 23.2298 0.0000
# 6 0.0000 0.0000 0.0000 0.0000 0.0000 42.1622
#
#
#
# Elastic Compliance Matrix: (Units=1/GPa)
#
#
# Indices 1 2 3 4 5 6 
#
# 1 0.011522 -0.002488 -0.004601 0.000000 0.000000 0.000000
# 2 -0.002488 0.018083 -0.004258 0.000000 0.000000 0.000000
# 3 -0.004601 -0.004258 0.017622 0.000000 0.000000 0.000000
# 4 0.000000 0.000000 0.000000 0.052471 0.000000 0.000000
# 5 0.000000 0.000000 0.000000 0.000000 0.043048 0.000000
# 6 0.000000 0.000000 0.000000 0.000000 0.000000 0.023718
#
#
# Mechanical properties :
#
#
# Convention : Reuss Voigt Hill
#
# Bulk Modulus (GPa) = 40.76047 43.31074 42.03561
# Shear Modulus (GPa) = 25.33772 27.72154 26.52963
#
# Velocity S-wave (km/s) = 3.50630 3.66753 3.58782
# Velocity P-wave (km/s) = 6.01412 6.24093 6.12857
#
# Compressibility (1/GPa) = 0.02453357
#
# Stress axis : x y z
#
# Youngs Moduli (GPa) = 86.79106 55.30047 56.74859
#
# Poissons Ratio (x) = 0.13756 0.26110
# Poissons Ratio (y) = 0.21590 0.24163
# Poissons Ratio (z) = 0.39932 0.23547
#
# Static dielectric constant tensor:
#      x y z
#    x 3.885590 0.000000 0.000000 
#    y 0.000000 3.949020 0.000000 
#    z 0.000000 0.000000 3.606640 
# 
# 
# High freq. dielectric constant tensor:
#      x y z
#    x 1.809690 0.000000 0.000000 
#    y 0.000000 1.820520 0.000000 
#    z 0.000000 0.000000 1.783800 
# 
# From -- ./inp_files/38873.got.cif
#   From: 2010.03.12/outbox.cif.g09.slc.cpg/sg72_20_cif.got.tgz:38873.got - 2010.04.16 14:54:00.
