data_PCOD8294733
_publ_section_title
;
Structure prediction by ZEFSAII (Michael W. Deem and Ramdas Pophale) SiO2 
 PCOD8294733
Probable space group: I B A M
;
_chemical_formula_sum "Si O2"
_cell_formula_units_Z 96
_cell_length_a 14.660352
_cell_length_b 21.590112
_cell_length_c 15.342876
_cell_angle_alpha 90.000000
_cell_angle_beta 90.000000
_cell_angle_gamma 90.000000
_cell_volume 4856.306270
_symmetry_space_group_name_H-M "I B A M"
_symmetry_group_IT_number 72
_symmetry_cell_setting 'orthorhombic'
loop_
_space_group_symop_operation_xyz
x,y,z
-x,-y,z
x,-y,1/2-z
-x,y,1/2-z
-x,-y,-z
x,y,-z
-x,y,1/2+z
x,-y,1/2+z
1/2+x,1/2+y,1/2+z
1/2-x,1/2-y,1/2+z
1/2+x,1/2-y,-z
1/2-x,1/2+y,-z
1/2-x,1/2-y,1/2-z
1/2+x,1/2+y,1/2-z
1/2-x,1/2+y,z
1/2+x,1/2-y,z
loop_
_atom_site_type_symbol
_atom_site_label
_atom_site_fract_x
_atom_site_fract_y
_atom_site_fract_z
Si Si1 0.773008 0.076332 0.094867
Si Si2 0.755245 0.545558 0.331921
Si Si3 0.102006 0.655000 0.599592
Si Si4 0.896573 0.356820 0.100961
Si Si5 0.356997 0.242280 0.754783
Si Si6 0.398044 0.617816 0.257497
O O1 0.677970 0.105402 0.130225
O O2 0.858802 0.097046 0.150369
O O3 0.764800 0.001737 0.089594
O O4 0.792748 0.102845 0.000000
O O5 0.774497 0.500000 0.250000
O O6 0.841604 0.587328 0.355016
O O7 0.667556 0.589708 0.317274
O O8 0.119218 0.678239 0.500000
O O9 0.105644 0.711307 0.666880
O O10 0.002552 0.623613 0.605295
O O11 0.881537 0.294585 0.157003
O O12 0.866470 0.345451 0.000000
O O13 0.250000 0.250000 0.750000
O O14 0.404285 0.308538 0.755350
O O15 0.500000 0.590446 0.250000
#
# Coordination Sequence:
#
# PCOD8294733 Si02
#       6
#    16  16  16  16  16  16
#     4  10  21  39  61  85 116 154 197 244 296 354
#     4  10  21  39  60  87 121 160 202 248 296 350
#     4  10  22  40  63  92 124 157 197 246 307 373
#     4  11  23  39  63  96 128 157 197 248 304 370
#     4  12  21  40  64  88 120 161 201 246 307 365
#     4  11  23  40  60  83 116 157 202 249 296 352
#
# _framework density 19.768111999999999
#
# number of rings (size 3 to 8) (size 9 to 14) (size 15 to 20)
#    0.000    1.333    3.333    3.000    0.000    5.000 
#    0.000    8.333    0.000    0.000    0.000    0.000 
#    0.000    0.000    0.000    0.000    0.000    0.000 
#
# Total GULP energy -595042.439745 kJ/mol
# GULP energy per Si atom -12396.717495 kJ/mol
# Density = 1.972312 g / cm^3
# Si number density = 19.768112 Si / 1000 Ang^3
#
#
#
# Elastic Constant Matrix: (Units=GPa)
#
#
# Indices 1 2 3 4 5 6 
#
# 1 157.0640 46.0031 52.0944 0.0000 0.0000 0.0000
# 2 46.0031 131.8325 45.2395 0.0002 0.0000 0.0000
# 3 52.0944 45.2395 100.7977 0.0000 0.0000 0.0000
# 4 0.0000 0.0002 0.0000 13.8794 0.0000 -0.0001
# 5 0.0000 0.0000 0.0000 0.0000 32.0892 0.0000
# 6 0.0000 0.0000 0.0000 -0.0001 0.0000 17.4228
#
#
#
# Elastic Compliance Matrix: (Units=1/GPa)
#
#
# Indices 1 2 3 4 5 6 
#
# 1 0.007965 -0.001616 -0.003391 0.000000 0.000000 0.000000
# 2 -0.001616 0.009294 -0.003336 0.000000 0.000000 0.000000
# 3 -0.003391 -0.003336 0.013171 0.000000 0.000000 0.000000
# 4 0.000000 0.000000 0.000000 0.072049 0.000000 0.000000
# 5 0.000000 0.000000 0.000000 0.000000 0.031163 0.000000
# 6 0.000000 0.000000 0.000000 0.000000 0.000000 0.057396
#
#
# Mechanical properties :
#
#
# Convention : Reuss Voigt Hill
#
# Bulk Modulus (GPa) = 72.76223 75.15202 73.95713
# Shear Modulus (GPa) = 23.55091 29.10208 26.32650
#
# Velocity S-wave (km/s) = 3.45535 3.84105 3.65330
# Velocity P-wave (km/s) = 7.26685 7.60072 7.43566
#
# Compressibility (1/GPa) = 0.01374339
#
# Stress axis : x y z
#
# Youngs Moduli (GPa) = 125.55177 107.59588 75.92462
#
# Poissons Ratio (x) = 0.17383 0.25748
# Poissons Ratio (y) = 0.20284 0.25331
# Poissons Ratio (z) = 0.42578 0.35898
#
# Static dielectric constant tensor:
#      x y z
#    x 3.671460 0.000000 0.000000 
#    y 0.000000 3.811440 0.000000 
#    z 0.000000 0.000000 2.853850 
# 
# 
# High freq. dielectric constant tensor:
#      x y z
#    x 1.778140 0.000000 0.000000 
#    y 0.000000 1.769580 0.000000 
#    z 0.000000 0.000000 1.776270 
# 
# From -- ./inp_files/21874.got.cif
#   From: 2010.03.12/outbox.cif.g09.slc.cpg/sg72_11_cif.got.tgz:21874.got - 2010.04.16 14:54:00.
