data_PCOD8294660
_publ_section_title
;
Structure prediction by ZEFSAII (Michael W. Deem and Ramdas Pophale) SiO2 
 PCOD8294660
Probable space group: I B A M
;
_chemical_formula_sum "Si O2"
_cell_formula_units_Z 80
_cell_length_a 8.346021
_cell_length_b 24.311770
_cell_length_c 18.737158
_cell_angle_alpha 90.000000
_cell_angle_beta 90.000000
_cell_angle_gamma 90.000000
_cell_volume 3801.891955
_symmetry_space_group_name_H-M "I B A M"
_symmetry_group_IT_number 72
_symmetry_cell_setting 'orthorhombic'
loop_
_space_group_symop_operation_xyz
x,y,z
-x,-y,z
x,-y,1/2-z
-x,y,1/2-z
-x,-y,-z
x,y,-z
-x,y,1/2+z
x,-y,1/2+z
1/2+x,1/2+y,1/2+z
1/2-x,1/2-y,1/2+z
1/2+x,1/2-y,-z
1/2-x,1/2+y,-z
1/2-x,1/2-y,1/2-z
1/2+x,1/2+y,1/2-z
1/2-x,1/2+y,z
1/2+x,1/2-y,z
loop_
_atom_site_type_symbol
_atom_site_label
_atom_site_fract_x
_atom_site_fract_y
_atom_site_fract_z
Si Si1 0.412796 0.678093 0.080560
Si Si2 0.074210 0.640289 0.921226
Si Si3 0.595804 0.778489 0.318993
Si Si4 0.431307 0.061224 0.679545
Si Si5 0.861662 0.867536 0.690741
O O1 0.265688 0.635726 0.076850
O O2 0.353469 0.727500 0.131641
O O3 0.561989 0.645133 0.113556
O O4 0.457204 0.698408 0.000000
O O5 0.022924 0.686994 0.867284
O O6 0.003867 0.582862 0.894076
O O7 0.005380 0.652363 0.000000
O O8 0.500000 0.756301 0.250000
O O9 0.746857 0.815083 0.292525
O O10 0.500000 0.092676 0.750000
O O11 0.239923 0.075134 0.683071
O O12 0.500000 0.000000 0.684419
O O13 0.000000 0.874461 0.750000
#
# Coordination Sequence:
#
# PCOD8294660 Si02
#       5
#    16  16  16  16  16
#     4  11  23  37  55  85 123 161 202 246 293 348
#     4  10  21  38  58  83 119 158 197 242 293 357
#     4  11  22  36  58  86 121 163 203 239 290 358
#     4  10  22  42  65  87 113 150 199 249 308 374
#     4  11  22  38  61  89 121 156 200 254 304 353
#
# _framework density 21.042154
#
# number of rings (size 3 to 8) (size 9 to 14) (size 15 to 20)
#    0.000    1.400    0.000    7.200    0.000    8.400 
#    0.000    8.000    0.000    2.400    0.000    0.000 
#    0.000    0.000    0.000    0.000    0.000    0.000 
#
# Total GULP energy -495613.824333 kJ/mol
# GULP energy per Si atom -12390.345608 kJ/mol
# Density = 2.099426 g / cm^3
# Si number density = 21.042154 Si / 1000 Ang^3
#
#
#
# Elastic Constant Matrix: (Units=GPa)
#
#
# Indices 1 2 3 4 5 6 
#
# 1 135.6807 56.2750 62.2274 0.0000 0.0000 0.0000
# 2 56.2750 87.4917 42.2885 0.0000 0.0000 0.0000
# 3 62.2274 42.2885 165.3367 0.0000 0.0000 0.0000
# 4 0.0000 0.0000 0.0000 16.5769 0.0000 0.0000
# 5 0.0000 0.0000 0.0000 0.0000 38.6671 0.0000
# 6 0.0000 0.0000 0.0000 0.0000 0.0000 22.4418
#
#
#
# Elastic Compliance Matrix: (Units=1/GPa)
#
#
# Indices 1 2 3 4 5 6 
#
# 1 0.010987 -0.005783 -0.002656 0.000000 0.000000 0.000000
# 2 -0.005783 0.016086 -0.001938 0.000000 0.000000 0.000000
# 3 -0.002656 -0.001938 0.007544 0.000000 0.000000 0.000000
# 4 0.000000 0.000000 0.000000 0.060325 0.000000 0.000000
# 5 0.000000 0.000000 0.000000 0.000000 0.025862 0.000000
# 6 0.000000 0.000000 0.000000 0.000000 0.000000 0.044560
#
#
# Mechanical properties :
#
#
# Convention : Reuss Voigt Hill
#
# Bulk Modulus (GPa) = 72.13578 78.89898 75.51738
# Shear Modulus (GPa) = 26.21404 30.71837 28.46621
#
# Velocity S-wave (km/s) = 3.53340 3.82494 3.68206
# Velocity P-wave (km/s) = 7.14161 7.55539 7.35141
#
# Compressibility (1/GPa) = 0.01386275
#
# Stress axis : x y z
#
# Youngs Moduli (GPa) = 91.01699 62.16598 132.56420
#
# Poissons Ratio (x) = 0.35951 0.35209
# Poissons Ratio (y) = 0.52636 0.25688
# Poissons Ratio (z) = 0.24174 0.12046
#
# Static dielectric constant tensor:
#      x y z
#    x 3.967550 0.000000 0.000000 
#    y 0.000000 3.775000 0.000000 
#    z 0.000000 0.000000 4.652750 
# 
# 
# High freq. dielectric constant tensor:
#      x y z
#    x 1.834200 0.000000 0.000000 
#    y 0.000000 1.787980 0.000000 
#    z 0.000000 0.000000 1.844540 
# 
# From -- ./inp_files/28157.got.cif
#   From: 2010.03.12/outbox.cif.g09.slc.cpg/sg72_15_cif.got.tgz:28157.got - 2010.04.16 14:54:00.
