data_PCOD8294592
_publ_section_title
;
Structure prediction by ZEFSAII (Michael W. Deem and Ramdas Pophale) SiO2 
 PCOD8294592
Probable space group: I B A M
;
_chemical_formula_sum "Si O2"
_cell_formula_units_Z 56
_cell_length_a 5.133710
_cell_length_b 17.976037
_cell_length_c 27.316448
_cell_angle_alpha 90.000000
_cell_angle_beta 90.000000
_cell_angle_gamma 90.000000
_cell_volume 2520.864556
_symmetry_space_group_name_H-M "I B A M"
_symmetry_group_IT_number 72
_symmetry_cell_setting 'orthorhombic'
loop_
_space_group_symop_operation_xyz
x,y,z
-x,-y,z
x,-y,1/2-z
-x,y,1/2-z
-x,-y,-z
x,y,-z
-x,y,1/2+z
x,-y,1/2+z
1/2+x,1/2+y,1/2+z
1/2-x,1/2-y,1/2+z
1/2+x,1/2-y,-z
1/2-x,1/2+y,-z
1/2-x,1/2-y,1/2-z
1/2+x,1/2+y,1/2-z
1/2-x,1/2+y,z
1/2+x,1/2-y,z
loop_
_atom_site_type_symbol
_atom_site_label
_atom_site_fract_x
_atom_site_fract_y
_atom_site_fract_z
Si Si1 0.014689 0.582710 0.150496
Si Si2 0.186323 0.279930 0.804254
Si Si3 0.013111 0.801763 0.500000
Si Si4 0.484415 0.415181 0.087745
O O1 0.934007 0.637336 0.195071
O O2 0.808043 0.596892 0.107201
O O3 0.000000 0.500000 0.172218
O O4 0.304440 0.597197 0.130803
O O5 0.250000 0.250000 0.750000
O O6 0.465822 0.272021 0.831340
O O7 0.239286 0.740625 0.500000
O O8 0.040078 0.855063 0.546491
O O9 0.500000 0.500000 0.067293
#
# Coordination Sequence:
#
# PCOD8294592 Si02
#       4
#    16  16   8  16
#     4  10  21  38  62  87 115 158 208 248 290 357
#     4  10  21  37  58  86 118 153 190 240 306 360
#     4  12  25  38  57  90 124 156 200 254 307 360
#     4  10  22  40  60  84 118 162 203 247 301 355
#
# _framework density 22.214600000000001
#
# number of rings (size 3 to 8) (size 9 to 14) (size 15 to 20)
#    0.000    1.714    0.000    3.857    0.000    6.857 
#    0.000    8.571    0.000    6.857    0.000    0.000 
#    0.000    0.000    0.000    0.000    0.000    0.000 
#
# Total GULP energy -346882.040784 kJ/mol
# GULP energy per Si atom -12388.644314 kJ/mol
# Density = 2.216404 g / cm^3
# Si number density = 22.214600 Si / 1000 Ang^3
#
#
#
# Elastic Constant Matrix: (Units=GPa)
#
#
# Indices 1 2 3 4 5 6 
#
# 1 152.9584 44.6853 9.6201 0.0000 0.0000 0.0000
# 2 44.6853 167.4285 60.0936 0.0000 0.0000 0.0000
# 3 9.6201 60.0936 55.0809 0.0000 0.0000 0.0000
# 4 0.0000 0.0000 0.0000 38.8498 0.0000 0.0000
# 5 0.0000 0.0000 0.0000 0.0000 22.0738 0.0000
# 6 0.0000 0.0000 0.0000 0.0000 0.0000 41.6498
#
#
#
# Elastic Compliance Matrix: (Units=1/GPa)
#
#
# Indices 1 2 3 4 5 6 
#
# 1 0.007153 -0.002401 0.001370 0.000000 0.000000 0.000000
# 2 -0.002401 0.010623 -0.011170 0.000000 0.000000 0.000000
# 3 0.001370 -0.011170 0.030102 0.000000 0.000000 0.000000
# 4 0.000000 0.000000 0.000000 0.025740 0.000000 0.000000
# 5 0.000000 0.000000 0.000000 0.000000 0.045303 0.000000
# 6 0.000000 0.000000 0.000000 0.000000 0.000000 0.024010
#
#
# Mechanical properties :
#
#
# Convention : Reuss Voigt Hill
#
# Bulk Modulus (GPa) = 42.59617 67.14063 54.86840
# Shear Modulus (GPa) = 28.54576 37.91928 33.23252
#
# Velocity S-wave (km/s) = 3.58858 4.13601 3.87198
# Velocity P-wave (km/s) = 6.03216 7.28684 6.68899
#
# Compressibility (1/GPa) = 0.02347629
#
# Stress axis : x y z
#
# Youngs Moduli (GPa) = 139.80302 94.13898 33.21993
#
# Poissons Ratio (x) = 0.22601 -0.04551
# Poissons Ratio (y) = 0.33563 0.37107
# Poissons Ratio (z) = -0.19152 1.05153
#
# Static dielectric constant tensor:
#      x y z
#    x -1.736670 0.000000 0.000000 
#    y 0.000000 4.383110 0.000000 
#    z 0.000000 0.000000 3.066970 
# 
# 
# High freq. dielectric constant tensor:
#      x y z
#    x 1.914880 0.000000 0.000000 
#    y 0.000000 1.893080 0.000000 
#    z 0.000000 0.000000 1.827590 
# 
# From -- ./inp_files/46457.got.cif
#   From: 2010.03.12/outbox.cif.g09.slc.cpg/sg72_24_cif.got.tgz:46457.got - 2010.04.16 14:54:00.
