data_PCOD8294573
_publ_section_title
;
Structure prediction by ZEFSAII (Michael W. Deem and Ramdas Pophale) SiO2 
 PCOD8294573
Probable space group: I B A M
;
_chemical_formula_sum "Si O2"
_cell_formula_units_Z 112
_cell_length_a 24.283051
_cell_length_b 15.184509
_cell_length_c 13.720570
_cell_angle_alpha 90.000000
_cell_angle_beta 90.000000
_cell_angle_gamma 90.000000
_cell_volume 5059.133727
_symmetry_space_group_name_H-M "I B A M"
_symmetry_group_IT_number 72
_symmetry_cell_setting 'orthorhombic'
loop_
_space_group_symop_operation_xyz
x,y,z
-x,-y,z
x,-y,1/2-z
-x,y,1/2-z
-x,-y,-z
x,y,-z
-x,y,1/2+z
x,-y,1/2+z
1/2+x,1/2+y,1/2+z
1/2-x,1/2-y,1/2+z
1/2+x,1/2-y,-z
1/2-x,1/2+y,-z
1/2-x,1/2-y,1/2-z
1/2+x,1/2+y,1/2-z
1/2-x,1/2+y,z
1/2+x,1/2-y,z
loop_
_atom_site_type_symbol
_atom_site_label
_atom_site_fract_x
_atom_site_fract_y
_atom_site_fract_z
Si Si1 0.450621 0.705403 0.385440
Si Si2 0.187458 0.382728 0.889175
Si Si3 0.612794 0.533963 0.113130
Si Si4 0.073130 0.152833 0.887336
Si Si5 0.231440 0.280979 0.388497
Si Si6 0.271557 0.530881 0.114639
Si Si7 0.129041 0.722461 0.247522
O O1 0.442998 0.721403 0.500000
O O2 0.415948 0.621176 0.343654
O O3 0.514113 0.692816 0.358692
O O4 0.424792 0.786486 0.323224
O O5 0.224793 0.296224 0.880865
O O6 0.220883 0.468563 0.855942
O O7 0.138140 0.367307 0.810969
O O8 0.165286 0.394165 0.000000
O O9 0.572555 0.451584 0.133336
O O10 0.672501 0.510857 0.159874
O O11 0.619680 0.553322 0.000000
O O12 0.120765 0.199870 0.826366
O O13 0.087363 0.170182 0.000000
O O14 0.210903 0.292611 0.500000
O O15 0.258481 0.371100 0.347327
O O16 0.180326 0.254517 0.321604
O O17 0.280385 0.534671 0.000000
#
# Coordination Sequence:
#
# PCOD8294573 Si02
#       7
#    16  16  16  16  16  16  16
#     4  10  21  37  57  83 115 152 196 243 292 350
#     4  10  21  37  56  82 117 155 197 241 285 342
#     4   9  17  33  57  82 115 157 192 230 285 350
#     4  10  21  37  57  83 115 152 196 243 292 350
#     4  10  21  37  56  82 117 155 197 241 285 342
#     4   9  18  34  57  85 119 158 194 231 282 346
#     4  12  22  34  53  78 110 150 190 235 286 333
#
# _framework density 22.138176999999999
#
# number of rings (size 3 to 8) (size 9 to 14) (size 15 to 20)
#    0.000    2.000    0.000    3.857    0.000    7.429 
#    0.000    4.286    0.000    0.000    0.000    8.000 
#    0.000   22.857    0.000    0.000    0.000    0.000 
#
# Total GULP energy -694128.762759 kJ/mol
# GULP energy per Si atom -12395.156478 kJ/mol
# Density = 2.208779 g / cm^3
# Si number density = 22.138177 Si / 1000 Ang^3
#
#
#
# Elastic Constant Matrix: (Units=GPa)
#
#
# Indices 1 2 3 4 5 6 
#
# 1 105.2902 33.6884 40.3682 0.0000 0.0000 0.0000
# 2 33.6884 76.3583 17.8817 0.0000 0.0000 0.0000
# 3 40.3682 17.8817 84.1953 0.0000 0.0000 0.0000
# 4 0.0000 0.0000 0.0000 20.1358 0.0000 0.0000
# 5 0.0000 0.0000 0.0000 0.0000 28.9247 0.0000
# 6 0.0000 0.0000 0.0000 0.0000 0.0000 36.2757
#
#
#
# Elastic Compliance Matrix: (Units=1/GPa)
#
#
# Indices 1 2 3 4 5 6 
#
# 1 0.012946 -0.004481 -0.005256 0.000000 0.000000 0.000000
# 2 -0.004481 0.015333 -0.001108 0.000000 0.000000 0.000000
# 3 -0.005256 -0.001108 0.014632 0.000000 0.000000 0.000000
# 4 0.000000 0.000000 0.000000 0.049663 0.000000 0.000000
# 5 0.000000 0.000000 0.000000 0.000000 0.034573 0.000000
# 6 0.000000 0.000000 0.000000 0.000000 0.000000 0.027567
#
#
# Mechanical properties :
#
#
# Convention : Reuss Voigt Hill
#
# Bulk Modulus (GPa) = 47.12043 49.96891 48.54467
# Shear Modulus (GPa) = 27.25154 28.66095 27.95624
#
# Velocity S-wave (km/s) = 3.51233 3.60201 3.55745
# Velocity P-wave (km/s) = 6.14651 6.31820 6.23295
#
# Compressibility (1/GPa) = 0.02122222
#
# Stress axis : x y z
#
# Youngs Moduli (GPa) = 77.24248 65.22063 68.34222
#
# Poissons Ratio (x) = 0.29225 0.35917
# Poissons Ratio (y) = 0.34612 0.07572
# Poissons Ratio (z) = 0.40595 0.07226
#
# Static dielectric constant tensor:
#      x y z
#    x 4.013980 0.000000 0.000000 
#    y 0.000000 3.905520 0.000000 
#    z 0.000000 0.000000 4.467440 
# 
# 
# High freq. dielectric constant tensor:
#      x y z
#    x 1.850570 0.000000 0.000000 
#    y 0.000000 1.833020 0.000000 
#    z 0.000000 0.000000 1.901190 
# 
# From -- ./inp_files/25209.got.cif
#   From: 2010.03.12/outbox.cif.g09.slc.cpg/sg72_13_cif.got.tgz:25209.got - 2010.04.16 14:54:00.
