data_PCOD8294493
_publ_section_title
;
Structure prediction by ZEFSAII (Michael W. Deem and Ramdas Pophale) SiO2 
 PCOD8294493
Probable space group: I B A M
;
_chemical_formula_sum "Si O2"
_cell_formula_units_Z 100
_cell_length_a 31.241088
_cell_length_b 18.807556
_cell_length_c 9.679716
_cell_angle_alpha 90.000000
_cell_angle_beta 90.000000
_cell_angle_gamma 90.000000
_cell_volume 5687.496327
_symmetry_space_group_name_H-M "I B A M"
_symmetry_group_IT_number 72
_symmetry_cell_setting 'orthorhombic'
loop_
_space_group_symop_operation_xyz
x,y,z
-x,-y,z
x,-y,1/2-z
-x,y,1/2-z
-x,-y,-z
x,y,-z
-x,y,1/2+z
x,-y,1/2+z
1/2+x,1/2+y,1/2+z
1/2-x,1/2-y,1/2+z
1/2+x,1/2-y,-z
1/2-x,1/2+y,-z
1/2-x,1/2-y,1/2-z
1/2+x,1/2+y,1/2-z
1/2-x,1/2+y,z
1/2+x,1/2-y,z
loop_
_atom_site_type_symbol
_atom_site_label
_atom_site_fract_x
_atom_site_fract_y
_atom_site_fract_z
Si Si1 0.814661 0.067418 0.660678
Si Si2 0.869518 0.797668 0.841276
Si Si3 0.138358 0.659625 0.839264
Si Si4 0.536146 0.728944 0.653720
Si Si5 0.065130 0.385609 0.155948
Si Si6 0.282528 0.063530 0.155350
Si Si7 0.000000 0.500000 0.250000
O O1 0.821475 0.049274 0.500000
O O2 0.843418 0.133698 0.706804
O O3 0.765504 0.087753 0.694428
O O4 0.829381 0.000000 0.750000
O O5 0.858584 0.734406 0.737683
O O6 0.919950 0.814859 0.829272
O O7 0.858253 0.776220 0.000000
O O8 0.104346 0.606305 0.764600
O O9 0.185991 0.629403 0.825954
O O10 0.124914 0.668693 0.000000
O O11 0.500000 0.694595 0.750000
O O12 0.518159 0.723059 0.500000
O O13 0.542759 0.811384 0.694134
O O14 0.031027 0.449744 0.160290
O O15 0.083706 0.382120 0.000000
O O16 0.298946 0.000000 0.250000
O O17 0.283692 0.034179 0.000000
#
# Coordination Sequence:
#
# PCOD8294493 Si02
#       7
#    16  16  16  16  16  16   4
#     4   9  18  35  57  79 106 134 166 207 256 313
#     4   9  19  35  54  77 104 136 169 209 261 312
#     4  10  21  35  51  75 105 136 177 221 258 305
#     4   9  17  32  50  70  96 128 165 204 248 297
#     4  10  22  36  50  70  99 135 176 219 264 303
#     4   9  19  34  51  74 103 138 174 213 258 306
#     4  12  22  36  52  74  98 136 186 230 258 304
#
# _framework density 17.582429000000001
#
# number of rings (size 3 to 8) (size 9 to 14) (size 15 to 20)
#    0.000    2.560    0.800    1.680    1.120    6.400 
#    0.000    0.000    0.000    0.480    0.000    3.360 
#    0.000    0.000    0.000    0.000    0.000    0.000 
#
# Total GULP energy -619862.402313 kJ/mol
# GULP energy per Si atom -12397.248046 kJ/mol
# Density = 1.754241 g / cm^3
# Si number density = 17.582429 Si / 1000 Ang^3
#
#
#
# Elastic Constant Matrix: (Units=GPa)
#
#
# Indices 1 2 3 4 5 6 
#
# 1 97.3511 56.4020 55.2750 0.0000 0.0000 0.0000
# 2 56.4020 81.5855 48.1372 0.0000 0.0000 0.0000
# 3 55.2750 48.1372 94.7126 0.0000 0.0000 0.0000
# 4 0.0000 0.0000 0.0000 24.1596 0.0000 0.0000
# 5 0.0000 0.0000 0.0000 0.0000 28.6636 0.0000
# 6 0.0000 0.0000 0.0000 0.0000 0.0000 28.0265
#
#
#
# Elastic Compliance Matrix: (Units=1/GPa)
#
#
# Indices 1 2 3 4 5 6 
#
# 1 0.019584 -0.009706 -0.006496 0.000000 0.000000 0.000000
# 2 -0.009706 0.022317 -0.005678 0.000000 0.000000 0.000000
# 3 -0.006496 -0.005678 0.017236 0.000000 0.000000 0.000000
# 4 0.000000 0.000000 0.000000 0.041391 0.000000 0.000000
# 5 0.000000 0.000000 0.000000 0.000000 0.034887 0.000000
# 6 0.000000 0.000000 0.000000 0.000000 0.000000 0.035681
#
#
# Mechanical properties :
#
#
# Convention : Reuss Voigt Hill
#
# Bulk Modulus (GPa) = 65.03727 65.91972 65.47849
# Shear Modulus (GPa) = 22.72913 23.75895 23.24404
#
# Velocity S-wave (km/s) = 3.59934 3.67998 3.63988
# Velocity P-wave (km/s) = 7.37183 7.45852 7.41530
#
# Compressibility (1/GPa) = 0.01537580
#
# Stress axis : x y z
#
# Youngs Moduli (GPa) = 51.06236 44.80851 58.01974
#
# Poissons Ratio (x) = 0.43490 0.37692
# Poissons Ratio (y) = 0.49560 0.32945
# Poissons Ratio (z) = 0.33172 0.25443
#
# Static dielectric constant tensor:
#      x y z
#    x 3.382850 0.000000 0.000000 
#    y 0.000000 2.997110 0.000000 
#    z 0.000000 0.000000 3.349440 
# 
# 
# High freq. dielectric constant tensor:
#      x y z
#    x 1.683310 0.000000 0.000000 
#    y 0.000000 1.648310 0.000000 
#    z 0.000000 0.000000 1.687620 
# 
# From -- ./inp_files/8203.got.cif
#   From: 2010.03.12/outbox.cif.g09.slc.cpg/sg72_5_cif.got.tgz:8203.got - 2010.04.16 14:54:00.
