data_PCOD8294347
_publ_section_title
;
Structure prediction by ZEFSAII (Michael W. Deem and Ramdas Pophale) SiO2 
 PCOD8294347
Probable space group: I B A M
;
_chemical_formula_sum "Si O2"
_cell_formula_units_Z 80
_cell_length_a 15.266236
_cell_length_b 18.145219
_cell_length_c 13.592675
_cell_angle_alpha 90.000000
_cell_angle_beta 90.000000
_cell_angle_gamma 90.000000
_cell_volume 3765.295967
_symmetry_space_group_name_H-M "I B A M"
_symmetry_group_IT_number 72
_symmetry_cell_setting 'orthorhombic'
loop_
_space_group_symop_operation_xyz
x,y,z
-x,-y,z
x,-y,1/2-z
-x,y,1/2-z
-x,-y,-z
x,y,-z
-x,y,1/2+z
x,-y,1/2+z
1/2+x,1/2+y,1/2+z
1/2-x,1/2-y,1/2+z
1/2+x,1/2-y,-z
1/2-x,1/2+y,-z
1/2-x,1/2-y,1/2-z
1/2+x,1/2+y,1/2-z
1/2-x,1/2+y,z
1/2+x,1/2-y,z
loop_
_atom_site_type_symbol
_atom_site_label
_atom_site_fract_x
_atom_site_fract_y
_atom_site_fract_z
Si Si1 0.699009 0.585396 0.769321
Si Si2 0.553009 0.664146 0.108725
Si Si3 0.053773 0.337902 0.390950
Si Si4 0.368761 0.846575 0.811606
Si Si5 0.645315 0.314310 0.114048
O O1 0.688560 0.500000 0.750000
O O2 0.610536 0.616672 0.817253
O O3 0.784080 0.603221 0.837517
O O4 0.711573 0.627779 0.664737
O O5 0.565601 0.750903 0.122183
O O6 0.450502 0.649506 0.126031
O O7 0.580926 0.639149 0.000000
O O8 0.085867 0.363113 0.500000
O O9 0.108406 0.370840 0.300885
O O10 0.951730 0.362399 0.381772
O O11 0.343745 0.761293 0.825677
O O12 0.670320 0.301566 0.000000
#
# Coordination Sequence:
#
# PCOD8294347 Si02
#       5
#    16  16  16  16  16
#     4  12  25  38  55  87 129 165 194 238 305 376
#     4   9  19  36  59  85 114 151 196 244 299 349
#     4   9  18  36  64  89 109 144 201 258 299 347
#     4  10  20  38  60  88 118 150 199 255 306 347
#     4  10  21  39  61  87 117 157 209 257 294 347
#
# _framework density 21.246669000000001
#
# number of rings (size 3 to 8) (size 9 to 14) (size 15 to 20)
#    0.000    2.000    2.000    3.000    0.000    4.800 
#    0.000    4.000    0.000    1.200    0.000    0.000 
#    0.000    0.000    0.000    0.000    0.000    0.000 
#
# Total GULP energy -495684.998792 kJ/mol
# GULP energy per Si atom -12392.124970 kJ/mol
# Density = 2.119831 g / cm^3
# Si number density = 21.246669 Si / 1000 Ang^3
#
#
#
# Elastic Constant Matrix: (Units=GPa)
#
#
# Indices 1 2 3 4 5 6 
#
# 1 65.5911 21.7718 9.8829 0.0000 0.0000 0.0000
# 2 21.7718 27.4343 11.1616 0.0000 0.0000 0.0000
# 3 9.8829 11.1616 107.4760 0.0000 0.0000 0.0000
# 4 0.0000 0.0000 0.0000 6.1483 0.0000 0.0000
# 5 0.0000 0.0000 0.0000 0.0000 16.7608 0.0000
# 6 0.0000 0.0000 0.0000 0.0000 0.0000 21.1773
#
#
#
# Elastic Compliance Matrix: (Units=1/GPa)
#
#
# Indices 1 2 3 4 5 6 
#
# 1 0.020703 -0.016346 -0.000206 0.000000 0.000000 0.000000
# 2 -0.016346 0.050965 -0.003790 0.000000 0.000000 0.000000
# 3 -0.000206 -0.003790 0.009717 0.000000 0.000000 0.000000
# 4 0.000000 0.000000 0.000000 0.162646 0.000000 0.000000
# 5 0.000000 0.000000 0.000000 0.000000 0.059663 0.000000
# 6 0.000000 0.000000 0.000000 0.000000 0.000000 0.047220
#
#
# Mechanical properties :
#
#
# Convention : Reuss Voigt Hill
#
# Bulk Modulus (GPa) = 24.56947 31.79266 28.18107
# Shear Modulus (GPa) = 12.34069 19.32962 15.83516
#
# Velocity S-wave (km/s) = 2.41265 3.01951 2.73298
# Velocity P-wave (km/s) = 4.39889 5.21083 4.82198
#
# Compressibility (1/GPa) = 0.04070092
#
# Stress axis : x y z
#
# Youngs Moduli (GPa) = 48.30278 19.62146 102.91318
#
# Poissons Ratio (x) = 0.32073 0.02122
# Poissons Ratio (y) = 0.78955 0.39001
# Poissons Ratio (z) = 0.00996 0.07436
#
# Static dielectric constant tensor:
#      x y z
#    x 3.988420 0.000000 0.000000 
#    y 0.000000 3.267760 0.000000 
#    z 0.000000 0.000000 4.110990 
# 
# 
# High freq. dielectric constant tensor:
#      x y z
#    x 1.839470 0.000000 0.000000 
#    y 0.000000 1.773800 0.000000 
#    z 0.000000 0.000000 1.843070 
# 
# From -- ./inp_files/23105.got.cif
#   From: 2010.03.12/outbox.cif.g09.slc.cpg/sg72_12_cif.got.tgz:23105.got - 2010.04.16 14:54:00.
