data_PCOD8294857
_publ_section_title
;
Structure prediction by ZEFSAII (Michael W. Deem and Ramdas Pophale) SiO2 
 PCOD8294857
Probable space group: I B A M
;
_chemical_formula_sum "Si O2"
_cell_formula_units_Z 112
_cell_length_a 20.965049
_cell_length_b 10.394705
_cell_length_c 22.480502
_cell_angle_alpha 90.000000
_cell_angle_beta 90.000000
_cell_angle_gamma 90.000000
_cell_volume 4899.074631
_symmetry_space_group_name_H-M "I B A M"
_symmetry_group_IT_number 72
_symmetry_cell_setting 'orthorhombic'
loop_
_space_group_symop_operation_xyz
x,y,z
-x,-y,z
x,-y,1/2-z
-x,y,1/2-z
-x,-y,-z
x,y,-z
-x,y,1/2+z
x,-y,1/2+z
1/2+x,1/2+y,1/2+z
1/2-x,1/2-y,1/2+z
1/2+x,1/2-y,-z
1/2-x,1/2+y,-z
1/2-x,1/2-y,1/2-z
1/2+x,1/2+y,1/2-z
1/2-x,1/2+y,z
1/2+x,1/2-y,z
loop_
_atom_site_type_symbol
_atom_site_label
_atom_site_fract_x
_atom_site_fract_y
_atom_site_fract_z
Si Si1 0.697998 0.856420 0.763149
Si Si2 0.430140 0.539638 0.656946
Si Si3 0.165040 0.854272 0.933723
Si Si4 0.688720 0.159139 0.929993
Si Si5 0.867711 0.599912 0.382586
Si Si6 0.020111 0.305246 0.314740
Si Si7 0.113134 0.226760 0.169348
O O1 0.750000 0.750000 0.750000
O O2 0.681623 0.853698 0.832226
O O3 0.637593 0.821275 0.721720
O O4 0.723281 0.000000 0.750000
O O5 0.500000 0.500000 0.632782
O O6 0.381379 0.555457 0.603097
O O7 0.437842 0.672579 0.693959
O O8 0.398466 0.419950 0.693513
O O9 0.238082 0.861482 0.911171
O O10 0.137800 0.708795 0.932822
O O11 0.162959 0.907888 0.000000
O O12 0.659936 0.272146 0.888285
O O13 0.648353 0.033415 0.913334
O O14 0.681973 0.193754 0.000000
O O15 0.937863 0.591974 0.351735
O O16 0.000000 0.357415 0.250000
O O17 0.955739 0.279777 0.351893
#
# Coordination Sequence:
#
# PCOD8294857 Si02
#       7
#    16  16  16  16  16  16  16
#     4  12  26  42  66 102 142 181 220 289 356 423
#     4   9  22  40  67 101 132 172 223 285 341 420
#     4  10  23  42  67  94 130 181 227 286 347 409
#     4  11  25  43  65  93 132 179 231 283 342 413
#     4  11  23  43  65  96 131 173 230 279 341 417
#     4  10  21  43  67  98 133 179 220 277 347 422
#     4  11  23  42  64  98 133 175 227 277 348 417
#
# _framework density 22.861460999999998
#
# number of rings (size 3 to 8) (size 9 to 14) (size 15 to 20)
#    0.000    1.429    2.857    1.286    4.000    5.143 
#    0.000    8.571    0.000    0.000    0.000    0.000 
#    0.000    0.000    0.000    0.000    0.000    0.000 
#
# Total GULP energy -694065.111561 kJ/mol
# GULP energy per Si atom -12394.019849 kJ/mol
# Density = 2.280943 g / cm^3
# Si number density = 22.861461 Si / 1000 Ang^3
#
#
#
# Elastic Constant Matrix: (Units=GPa)
#
#
# Indices 1 2 3 4 5 6 
#
# 1 104.7828 20.4004 16.0426 0.0000 0.0000 0.0000
# 2 20.4004 97.3992 -3.1900 0.0000 0.0000 0.0000
# 3 16.0426 -3.1900 64.3618 0.0000 0.0000 0.0000
# 4 0.0000 0.0000 0.0000 25.9881 0.0000 0.0000
# 5 0.0000 0.0000 0.0000 0.0000 32.0375 0.0000
# 6 0.0000 0.0000 0.0000 0.0000 0.0000 30.9479
#
#
#
# Elastic Compliance Matrix: (Units=1/GPa)
#
#
# Indices 1 2 3 4 5 6 
#
# 1 0.010399 -0.002267 -0.002704 0.000000 0.000000 0.000000
# 2 -0.002267 0.010778 0.001099 0.000000 0.000000 0.000000
# 3 -0.002704 0.001099 0.016266 0.000000 0.000000 0.000000
# 4 0.000000 0.000000 0.000000 0.038479 0.000000 0.000000
# 5 0.000000 0.000000 0.000000 0.000000 0.031213 0.000000
# 6 0.000000 0.000000 0.000000 0.000000 0.000000 0.032312
#
#
# Mechanical properties :
#
#
# Convention : Reuss Voigt Hill
#
# Bulk Modulus (GPa) = 33.67143 37.00553 35.33848
# Shear Modulus (GPa) = 31.82878 33.34742 32.58810
#
# Velocity S-wave (km/s) = 3.73533 3.82340 3.77962
# Velocity P-wave (km/s) = 5.77616 5.97605 5.87696
#
# Compressibility (1/GPa) = 0.02969877
#
# Stress axis : x y z
#
# Youngs Moduli (GPa) = 96.16413 92.78357 61.47901
#
# Poissons Ratio (x) = 0.21031 0.16626
# Poissons Ratio (y) = 0.21797 -0.06758
# Poissons Ratio (z) = 0.26006 -0.10198
#
# Static dielectric constant tensor:
#      x y z
#    x 4.443480 0.000000 0.000000 
#    y 0.000000 4.180330 0.000000 
#    z 0.000000 0.000000 3.970910 
# 
# 
# High freq. dielectric constant tensor:
#      x y z
#    x 1.916350 0.000000 0.000000 
#    y 0.000000 1.907420 0.000000 
#    z 0.000000 0.000000 1.878650 
# 
# From -- ./inp_files/45433.got.cif
#   From: 2010.03.12/outbox.cif.g09.slc.cpg/sg72_23_cif.got.tgz:45433.got - 2010.04.16 14:54:00.
