data_PCOD8294963
_publ_section_title
;
Structure prediction by ZEFSAII (Michael W. Deem and Ramdas Pophale) SiO2 
 PCOD8294963
Probable space group: I B A M
;
_chemical_formula_sum "Si O2"
_cell_formula_units_Z 56
_cell_length_a 26.652212
_cell_length_b 8.859375
_cell_length_c 11.205681
_cell_angle_alpha 90.000000
_cell_angle_beta 90.000000
_cell_angle_gamma 90.000000
_cell_volume 2645.907144
_symmetry_space_group_name_H-M "I B A M"
_symmetry_group_IT_number 72
_symmetry_cell_setting 'orthorhombic'
loop_
_space_group_symop_operation_xyz
x,y,z
-x,-y,z
x,-y,1/2-z
-x,y,1/2-z
-x,-y,-z
x,y,-z
-x,y,1/2+z
x,-y,1/2+z
1/2+x,1/2+y,1/2+z
1/2-x,1/2-y,1/2+z
1/2+x,1/2-y,-z
1/2-x,1/2+y,-z
1/2-x,1/2-y,1/2-z
1/2+x,1/2+y,1/2-z
1/2-x,1/2+y,z
1/2+x,1/2-y,z
loop_
_atom_site_type_symbol
_atom_site_label
_atom_site_fract_x
_atom_site_fract_y
_atom_site_fract_z
Si Si1 0.729791 0.108906 0.866840
Si Si2 0.000000 0.500000 0.750000
Si Si3 0.500000 0.500000 0.250000
Si Si4 0.433992 0.248578 0.136679
Si Si5 0.169000 0.171365 0.267212
O O1 0.786671 0.173038 0.866213
O O2 0.691688 0.250207 0.852063
O O3 0.722254 0.000000 0.750000
O O4 0.720135 0.037615 0.000000
O O5 0.034368 0.399577 0.665176
O O6 0.464827 0.398059 0.167925
O O7 0.380322 0.234956 0.200328
O O8 0.421131 0.254650 0.000000
O O9 0.151450 0.000000 0.250000
#
# Coordination Sequence:
#
# PCOD8294963 Si02
#       5
#    16   4   4  16  16
#     4  10  23  42  65  97 134 172 215 264 321 389
#     4  10  26  42  60  94 124 162 222 262 318 388
#     4  10  22  42  64  98 120 150 218 266 328 386
#     4  11  22  42  66  90 126 167 208 267 326 380
#     4  10  22  40  64  94 129 167 216 261 317 383
#
# _framework density 21.164764000000002
#
# number of rings (size 3 to 8) (size 9 to 14) (size 15 to 20)
#    0.000    1.714    1.429    1.714    2.000   12.571 
#    0.000    1.429    0.000    0.000    0.000    0.000 
#    0.000    0.000    0.000    0.000    0.000    0.000 
#
# Total GULP energy -346951.154828 kJ/mol
# GULP energy per Si atom -12391.112672 kJ/mol
# Density = 2.111659 g / cm^3
# Si number density = 21.164764 Si / 1000 Ang^3
#
#
#
# Elastic Constant Matrix: (Units=GPa)
#
#
# Indices 1 2 3 4 5 6 
#
# 1 153.9970 54.8190 45.5665 0.0000 0.0000 0.0000
# 2 54.8190 105.2418 37.4208 0.0000 0.0000 0.0000
# 3 45.5665 37.4208 136.9868 0.0000 0.0000 0.0000
# 4 0.0000 0.0000 0.0000 23.0789 0.0000 0.0000
# 5 0.0000 0.0000 0.0000 0.0000 6.3633 0.0000
# 6 0.0000 0.0000 0.0000 0.0000 0.0000 -125.3233
#
#
#
# Elastic Compliance Matrix: (Units=1/GPa)
#
#
# Indices 1 2 3 4 5 6 
#
# 1 0.008337 -0.003718 -0.001758 0.000000 0.000000 0.000000
# 2 -0.003718 0.012182 -0.002091 0.000000 0.000000 0.000000
# 3 -0.001758 -0.002091 0.008456 0.000000 0.000000 0.000000
# 4 0.000000 0.000000 0.000000 0.043330 0.000000 0.000000
# 5 0.000000 0.000000 0.000000 0.000000 0.157152 0.000000
# 6 0.000000 0.000000 0.000000 0.000000 0.000000 -0.007979
#
#
# Mechanical properties :
#
#
# Convention : Reuss Voigt Hill
#
# Bulk Modulus (GPa) = 72.24394 74.64868 73.44631
# Shear Modulus (GPa) = 20.72759 -1.94827 9.38966
#
# Velocity S-wave (km/s) = 3.13284 -0.96048 2.10858
# Velocity P-wave (km/s) = 6.87710 5.84096 6.38010
#
# Compressibility (1/GPa) = 0.01384199
#
# Stress axis : x y z
#
# Youngs Moduli (GPa) = 119.94551 82.08854 118.26129
#
# Poissons Ratio (x) = 0.30518 0.20786
# Poissons Ratio (y) = 0.44592 0.24730
# Poissons Ratio (z) = 0.21082 0.17166
#
# Static dielectric constant tensor:
#      x y z
#    x 3.923230 0.000000 0.000000 
#    y 0.000000 2.249160 0.000000 
#    z 0.000000 0.000000 3.569120 
# 
# 
# High freq. dielectric constant tensor:
#      x y z
#    x 1.841300 0.000000 0.000000 
#    y 0.000000 1.836040 0.000000 
#    z 0.000000 0.000000 1.811190 
# 
# From -- ./inp_files/10393.got.cif
#   From: 2010.03.12/outbox.cif.g09.slc.cpg/sg72_6_cif.got.tgz:10393.got - 2010.04.16 14:54:00.
