data_PCOD8294499
_publ_section_title
;
Structure prediction by ZEFSAII (Michael W. Deem and Ramdas Pophale) SiO2 
 PCOD8294499
Probable space group: I B A M
;
_chemical_formula_sum "Si O2"
_cell_formula_units_Z 116
_cell_length_a 31.118869
_cell_length_b 21.822655
_cell_length_c 8.765211
_cell_angle_alpha 90.000000
_cell_angle_beta 90.000000
_cell_angle_gamma 90.000000
_cell_volume 5952.422729
_symmetry_space_group_name_H-M "I B A M"
_symmetry_group_IT_number 72
_symmetry_cell_setting 'orthorhombic'
loop_
_space_group_symop_operation_xyz
x,y,z
-x,-y,z
x,-y,1/2-z
-x,y,1/2-z
-x,-y,-z
x,y,-z
-x,y,1/2+z
x,-y,1/2+z
1/2+x,1/2+y,1/2+z
1/2-x,1/2-y,1/2+z
1/2+x,1/2-y,-z
1/2-x,1/2+y,-z
1/2-x,1/2-y,1/2-z
1/2+x,1/2+y,1/2-z
1/2-x,1/2+y,z
1/2+x,1/2-y,z
loop_
_atom_site_type_symbol
_atom_site_label
_atom_site_fract_x
_atom_site_fract_y
_atom_site_fract_z
Si Si1 0.500000 0.000000 0.250000
Si Si2 0.568207 0.904647 0.831021
Si Si3 0.218306 0.666274 0.322279
Si Si4 0.806145 0.195071 0.677389
Si Si5 0.604864 0.334563 0.678811
Si Si6 0.456596 0.225465 0.178550
Si Si7 0.045022 0.934144 0.681151
Si Si8 0.839568 0.562465 0.318911
O O1 0.469039 0.044260 0.153770
O O2 0.552608 0.842109 0.748327
O O3 0.611556 0.930317 0.753530
O O4 0.581834 0.884608 0.000000
O O5 0.223130 0.650802 0.500000
O O6 0.197556 0.732550 0.295776
O O7 0.264464 0.661190 0.242891
O O8 0.187540 0.619011 0.239865
O O9 0.811367 0.178965 0.500000
O O10 0.846018 0.169138 0.771350
O O11 0.601483 0.349330 0.500000
O O12 0.582536 0.270064 0.719759
O O13 0.582680 0.388155 0.773939
O O14 0.500000 0.252627 0.250000
O O15 0.464519 0.220853 0.000000
O O16 0.040903 0.938949 0.500000
O O17 0.000000 0.910078 0.750000
O O18 0.056683 0.000000 0.750000
O O19 0.820389 0.500000 0.250000
O O20 0.837371 0.558788 0.500000
#
# Coordination Sequence:
#
# PCOD8294499 Si02
#       8
#     4  16  16  16  16  16  16  16
#     4  12  18  36  56  74 112 156 208 248 294 336
#     4  10  21  35  53  78 111 154 201 247 295 341
#     4  10  21  39  62  88 116 149 190 236 291 353
#     4  10  21  38  62  90 117 149 189 236 290 349
#     4  11  22  37  59  87 121 157 194 240 296 350
#     4  10  21  36  53  78 113 154 197 243 291 339
#     4  11  22  39  62  88 120 157 200 241 287 348
#     4  11  22  38  58  83 114 151 195 243 294 347
#
# _framework density 19.487863999999998
#
# number of rings (size 3 to 8) (size 9 to 14) (size 15 to 20)
#    0.000    1.517    1.379    4.759    0.000    4.966 
#    0.000    2.069    0.000    0.000    0.000    0.000 
#    0.000    0.000    0.000    0.000    0.000    0.000 
#
# Total GULP energy -719263.717889 kJ/mol
# GULP energy per Si atom -12401.098584 kJ/mol
# Density = 1.944351 g / cm^3
# Si number density = 19.487864 Si / 1000 Ang^3
#
#
#
# Elastic Constant Matrix: (Units=GPa)
#
#
# Indices 1 2 3 4 5 6 
#
# 1 130.8900 60.0971 39.8678 0.0000 0.0000 0.0000
# 2 60.0971 93.8691 42.7706 0.0000 0.0000 0.0000
# 3 39.8678 42.7706 97.7914 0.0000 0.0000 0.0000
# 4 0.0000 0.0000 0.0000 29.5090 0.0000 0.0000
# 5 0.0000 0.0000 0.0000 0.0000 31.4196 0.0000
# 6 0.0000 0.0000 0.0000 0.0000 0.0000 37.2006
#
#
#
# Elastic Compliance Matrix: (Units=1/GPa)
#
#
# Indices 1 2 3 4 5 6 
#
# 1 0.011059 -0.006277 -0.001763 0.000000 0.000000 0.000000
# 2 -0.006277 0.016867 -0.004818 0.000000 0.000000 0.000000
# 3 -0.001763 -0.004818 0.013052 0.000000 0.000000 0.000000
# 4 0.000000 0.000000 0.000000 0.033888 0.000000 0.000000
# 5 0.000000 0.000000 0.000000 0.000000 0.031827 0.000000
# 6 0.000000 0.000000 0.000000 0.000000 0.000000 0.026881
#
#
# Mechanical properties :
#
#
# Convention : Reuss Voigt Hill
#
# Bulk Modulus (GPa) = 65.52400 67.55797 66.54099
# Shear Modulus (GPa) = 30.41766 31.61351 31.01558
#
# Velocity S-wave (km/s) = 3.95505 4.03204 3.99373
# Velocity P-wave (km/s) = 7.38597 7.51122 7.44886
#
# Compressibility (1/GPa) = 0.01526158
#
# Stress axis : x y z
#
# Youngs Moduli (GPa) = 90.42382 59.28731 76.61659
#
# Poissons Ratio (x) = 0.37213 0.13510
# Poissons Ratio (y) = 0.56757 0.36915
# Poissons Ratio (z) = 0.15945 0.28565
#
# Static dielectric constant tensor:
#      x y z
#    x 3.562420 0.000000 0.000000 
#    y 0.000000 3.579120 0.000000 
#    z 0.000000 0.000000 3.480800 
# 
# 
# High freq. dielectric constant tensor:
#      x y z
#    x 1.762570 0.000000 0.000000 
#    y 0.000000 1.760290 0.000000 
#    z 0.000000 0.000000 1.758100 
# 
# From -- ./inp_files/8395.got.cif
#   From: 2010.03.12/outbox.cif.g09.slc.cpg/sg72_5_cif.got.tgz:8395.got - 2010.04.16 14:54:00.
