data_PCOD8294427
_publ_section_title
;
Structure prediction by ZEFSAII (Michael W. Deem and Ramdas Pophale) SiO2 
 PCOD8294427
Probable space group: I B A M
;
_chemical_formula_sum "Si O2"
_cell_formula_units_Z 80
_cell_length_a 23.730190
_cell_length_b 9.330693
_cell_length_c 18.730215
_cell_angle_alpha 90.000000
_cell_angle_beta 90.000000
_cell_angle_gamma 90.000000
_cell_volume 4147.227680
_symmetry_space_group_name_H-M "I B A M"
_symmetry_group_IT_number 72
_symmetry_cell_setting 'orthorhombic'
loop_
_space_group_symop_operation_xyz
x,y,z
-x,-y,z
x,-y,1/2-z
-x,y,1/2-z
-x,-y,-z
x,y,-z
-x,y,1/2+z
x,-y,1/2+z
1/2+x,1/2+y,1/2+z
1/2-x,1/2-y,1/2+z
1/2+x,1/2-y,-z
1/2-x,1/2+y,-z
1/2-x,1/2-y,1/2-z
1/2+x,1/2+y,1/2-z
1/2-x,1/2+y,z
1/2+x,1/2-y,z
loop_
_atom_site_type_symbol
_atom_site_label
_atom_site_fract_x
_atom_site_fract_y
_atom_site_fract_z
Si Si1 0.937224 0.937891 0.820853
Si Si2 0.337022 0.870337 0.335169
Si Si3 0.866418 0.891418 0.579725
Si Si4 0.862301 0.316713 0.676233
Si Si5 0.779866 0.126971 0.582808
O O1 0.923319 0.766043 0.819485
O O2 0.905846 0.000000 0.750000
O O3 0.911938 0.994580 0.894116
O O4 0.000000 0.000000 0.817773
O O5 0.373287 0.749738 0.373673
O O6 0.330665 0.824461 0.252699
O O7 0.276650 0.880171 0.372192
O O8 0.371471 0.018459 0.346796
O O9 0.881613 0.848207 0.500000
O O10 0.805055 0.965799 0.585349
O O11 0.822247 0.239038 0.619227
O O12 0.769123 0.172757 0.500000
#
# Coordination Sequence:
#
# PCOD8294427 Si02
#       5
#    16  16  16  16  16
#     4  10  20  40  65  81 105 146 197 246 294 346
#     4  11  20  34  54  84 122 153 189 234 288 341
#     4  10  21  36  57  85 117 152 194 239 284 341
#     4  10  22  36  56  85 114 149 198 240 284 342
#     4  10  21  35  54  82 118 164 200 225 272 342
#
# _framework density 19.289995000000001
#
# number of rings (size 3 to 8) (size 9 to 14) (size 15 to 20)
#    0.000    1.800    2.000    2.400    0.000    5.200 
#    0.000    1.000    0.000    1.200    0.000    0.000 
#    0.000    0.000    0.000    0.000    0.000    0.000 
#
# Total GULP energy -495603.202748 kJ/mol
# GULP energy per Si atom -12390.080069 kJ/mol
# Density = 1.924609 g / cm^3
# Si number density = 19.289995 Si / 1000 Ang^3
#
#
#
# Elastic Constant Matrix: (Units=GPa)
#
#
# Indices 1 2 3 4 5 6 
#
# 1 77.1928 35.4742 27.8506 0.0000 0.0000 0.0000
# 2 35.4742 137.1318 54.7005 0.0000 0.0000 0.0000
# 3 27.8506 54.7005 118.4207 0.0000 0.0000 0.0000
# 4 0.0000 0.0000 0.0000 24.9573 0.0000 0.0000
# 5 0.0000 0.0000 0.0000 0.0000 15.5063 0.0000
# 6 0.0000 0.0000 0.0000 0.0000 0.0000 19.6481
#
#
#
# Elastic Compliance Matrix: (Units=1/GPa)
#
#
# Indices 1 2 3 4 5 6 
#
# 1 0.015135 -0.003059 -0.002146 0.000000 0.000000 0.000000
# 2 -0.003059 0.009558 -0.003695 0.000000 0.000000 0.000000
# 3 -0.002146 -0.003695 0.010656 0.000000 0.000000 0.000000
# 4 0.000000 0.000000 0.000000 0.040068 0.000000 0.000000
# 5 0.000000 0.000000 0.000000 0.000000 0.064490 0.000000
# 6 0.000000 0.000000 0.000000 0.000000 0.000000 0.050895
#
#
# Mechanical properties :
#
#
# Convention : Reuss Voigt Hill
#
# Bulk Modulus (GPa) = 56.98989 63.19954 60.09472
# Shear Modulus (GPa) = 23.31512 26.33702 24.82607
#
# Velocity S-wave (km/s) = 3.48036 3.69903 3.59136
# Velocity P-wave (km/s) = 6.76450 7.14687 6.95831
#
# Compressibility (1/GPa) = 0.01754697
#
# Stress axis : x y z
#
# Youngs Moduli (GPa) = 66.07310 104.62847 93.84165
#
# Poissons Ratio (x) = 0.32005 0.20143
# Poissons Ratio (y) = 0.20212 0.34678
# Poissons Ratio (z) = 0.14182 0.38664
#
# Static dielectric constant tensor:
#      x y z
#    x 3.191020 0.000000 0.000000 
#    y 0.000000 3.841890 0.000000 
#    z 0.000000 0.000000 3.875230 
# 
# 
# High freq. dielectric constant tensor:
#      x y z
#    x 1.708960 0.000000 0.000000 
#    y 0.000000 1.761820 0.000000 
#    z 0.000000 0.000000 1.768900 
# 
# From -- ./inp_files/28158.got.cif
#   From: 2010.03.12/outbox.cif.g09.slc.cpg/sg72_15_cif.got.tgz:28158.got - 2010.04.16 14:54:00.
