data_PCOD8294073
_publ_section_title
;
Structure prediction by ZEFSAII (Michael W. Deem and Ramdas Pophale) SiO2 
 PCOD8294073
Probable space group: I B A M
;
_chemical_formula_sum "Si O2"
_cell_formula_units_Z 96
_cell_length_a 20.503982
_cell_length_b 27.314465
_cell_length_c 8.975822
_cell_angle_alpha 90.000000
_cell_angle_beta 90.000000
_cell_angle_gamma 90.000000
_cell_volume 5026.956671
_symmetry_space_group_name_H-M "I B A M"
_symmetry_group_IT_number 72
_symmetry_cell_setting 'orthorhombic'
loop_
_space_group_symop_operation_xyz
x,y,z
-x,-y,z
x,-y,1/2-z
-x,y,1/2-z
-x,-y,-z
x,y,-z
-x,y,1/2+z
x,-y,1/2+z
1/2+x,1/2+y,1/2+z
1/2-x,1/2-y,1/2+z
1/2+x,1/2-y,-z
1/2-x,1/2+y,-z
1/2-x,1/2-y,1/2-z
1/2+x,1/2+y,1/2-z
1/2-x,1/2+y,z
1/2+x,1/2-y,z
loop_
_atom_site_type_symbol
_atom_site_label
_atom_site_fract_x
_atom_site_fract_y
_atom_site_fract_z
Si Si1 0.565865 0.881394 0.675591
Si Si2 0.433211 0.448931 0.175516
Si Si3 0.691852 0.614186 0.827000
Si Si4 0.934622 0.730221 0.174850
Si Si5 0.684284 0.051886 0.174892
Si Si6 0.304519 0.716990 0.176124
O O1 0.500000 0.901871 0.750000
O O2 0.557702 0.885465 0.500000
O O3 0.578725 0.825534 0.725644
O O4 0.626697 0.912989 0.733399
O O5 0.411927 0.500000 0.250000
O O6 0.500000 0.429741 0.250000
O O7 0.378411 0.408732 0.208111
O O8 0.443314 0.457241 0.000000
O O9 0.746528 0.575065 0.780585
O O10 0.702781 0.661498 0.727284
O O11 0.699005 0.628764 0.000000
O O12 0.874666 0.763211 0.229174
O O13 0.000000 0.751043 0.250000
O O14 0.944497 0.733623 0.000000
O O15 0.676404 0.000000 0.250000
O O16 0.679096 0.044344 0.000000
O O17 0.250000 0.750000 0.250000
O O18 0.296640 0.720673 0.000000
#
# Coordination Sequence:
#
# PCOD8294073 Si02
#       6
#    16  16  16  16  16  16
#     4   9  18  34  55  77 105 139 173 214 262 313
#     4  10  20  35  57  82 111 146 183 227 276 330
#     4  10  22  39  57  79 109 144 182 227 276 324
#     4   9  19  36  57  81 109 142 180 222 269 320
#     4  10  21  37  56  78 107 141 178 223 270 317
#     4  11  23  38  58  83 112 146 184 228 275 327
#
# _framework density 19.097041999999998
#
# number of rings (size 3 to 8) (size 9 to 14) (size 15 to 20)
#    0.000    2.167    0.000    3.000    0.000    7.667 
#    0.000    8.333    0.000    0.000    0.000    0.000 
#    0.000    0.000    0.000    0.000    0.000    0.000 
#
# Total GULP energy -595367.558467 kJ/mol
# GULP energy per Si atom -12403.490801 kJ/mol
# Density = 1.905358 g / cm^3
# Si number density = 19.097042 Si / 1000 Ang^3
#
#
#
# Elastic Constant Matrix: (Units=GPa)
#
#
# Indices 1 2 3 4 5 6 
#
# 1 92.8759 16.2952 33.9191 0.0000 0.0000 0.0000
# 2 16.2952 58.2815 25.1889 0.0000 0.0000 0.0000
# 3 33.9191 25.1889 54.8174 0.0000 0.0000 0.0000
# 4 0.0000 0.0000 0.0000 34.2889 0.0000 0.0000
# 5 0.0000 0.0000 0.0000 0.0000 33.1546 0.0000
# 6 0.0000 0.0000 0.0000 0.0000 0.0000 37.6542
#
#
#
# Elastic Compliance Matrix: (Units=1/GPa)
#
#
# Indices 1 2 3 4 5 6 
#
# 1 0.013913 -0.000211 -0.008512 0.000000 0.000000 0.000000
# 2 -0.000211 0.021413 -0.009709 0.000000 0.000000 0.000000
# 3 -0.008512 -0.009709 0.027970 0.000000 0.000000 0.000000
# 4 0.000000 0.000000 0.000000 0.029164 0.000000 0.000000
# 5 0.000000 0.000000 0.000000 0.000000 0.030162 0.000000
# 6 0.000000 0.000000 0.000000 0.000000 0.000000 0.026557
#
#
# Mechanical properties :
#
#
# Convention : Reuss Voigt Hill
#
# Bulk Modulus (GPa) = 37.83161 39.64237 38.73699
# Shear Modulus (GPa) = 25.66031 29.72431 27.69231
#
# Velocity S-wave (km/s) = 3.66960 3.94951 3.81213
# Velocity P-wave (km/s) = 6.14881 6.44994 6.30117
#
# Compressibility (1/GPa) = 0.02643292
#
# Stress axis : x y z
#
# Youngs Moduli (GPa) = 71.87720 46.70012 35.75223
#
# Poissons Ratio (x) = 0.00987 0.30431
# Poissons Ratio (y) = 0.01518 0.34711
# Poissons Ratio (z) = 0.61179 0.45340
#
# Static dielectric constant tensor:
#      x y z
#    x 3.805320 0.000000 0.000000 
#    y 0.000000 21.011450 0.000000 
#    z 0.000000 0.000000 3.972130 
# 
# 
# High freq. dielectric constant tensor:
#      x y z
#    x 1.759520 0.000000 0.000000 
#    y 0.000000 1.740520 0.000000 
#    z 0.000000 0.000000 1.738510 
# 
# From -- ./inp_files/5959.got.cif
#   From: 2010.03.12/outbox.cif.g09.slc.cpg/sg72_3_cif.got.tgz:5959.got - 2010.04.16 14:54:00.
