data_PCOD8294983
_publ_section_title
;
Structure prediction by ZEFSAII (Michael W. Deem and Ramdas Pophale) SiO2 
 PCOD8294983
Probable space group: I B A M
;
_chemical_formula_sum "Si O2"
_cell_formula_units_Z 64
_cell_length_a 8.621582
_cell_length_b 20.967339
_cell_length_c 15.699530
_cell_angle_alpha 90.000000
_cell_angle_beta 90.000000
_cell_angle_gamma 90.000000
_cell_volume 2838.029668
_symmetry_space_group_name_H-M "I B A M"
_symmetry_group_IT_number 72
_symmetry_cell_setting 'orthorhombic'
loop_
_space_group_symop_operation_xyz
x,y,z
-x,-y,z
x,-y,1/2-z
-x,y,1/2-z
-x,-y,-z
x,y,-z
-x,y,1/2+z
x,-y,1/2+z
1/2+x,1/2+y,1/2+z
1/2-x,1/2-y,1/2+z
1/2+x,1/2-y,-z
1/2-x,1/2+y,-z
1/2-x,1/2-y,1/2-z
1/2+x,1/2+y,1/2-z
1/2-x,1/2+y,z
1/2+x,1/2-y,z
loop_
_atom_site_type_symbol
_atom_site_label
_atom_site_fract_x
_atom_site_fract_y
_atom_site_fract_z
Si Si1 0.103568 0.315652 0.096664
Si Si2 0.935060 0.063966 0.345234
Si Si3 0.406364 0.063472 0.900388
Si Si4 0.938681 0.194286 0.154828
O O1 0.252423 0.306964 0.156670
O O2 0.007396 0.376372 0.129578
O O3 0.995192 0.253619 0.099146
O O4 0.159200 0.326978 0.000000
O O5 0.749697 0.063191 0.345380
O O6 0.000000 0.064286 0.250000
O O7 0.997442 0.128955 0.388760
O O8 0.000000 0.000000 0.392167
O O9 0.500000 0.000000 0.878610
O O10 0.363343 0.067822 0.000000
O O11 0.000000 0.202646 0.250000
#
# Coordination Sequence:
#
# PCOD8294983 Si02
#       4
#    16  16  16  16
#     4  11  23  40  64  92 123 161 206 255 306 363
#     4  10  22  41  61  89 123 160 203 246 301 361
#     4  10  22  41  65  92 122 159 203 253 306 360
#     4  11  23  40  61  90 126 163 204 250 307 368
#
# _framework density 22.550854999999999
#
# number of rings (size 3 to 8) (size 9 to 14) (size 15 to 20)
#    0.000    1.500    0.000    4.500    0.000    6.500 
#    0.000   12.500    0.000    0.000    0.000    0.000 
#    0.000    0.000    0.000    0.000    0.000    0.000 
#
# Total GULP energy -396912.916248 kJ/mol
# GULP energy per Si atom -12403.528633 kJ/mol
# Density = 2.249953 g / cm^3
# Si number density = 22.550855 Si / 1000 Ang^3
#
#
#
# Elastic Constant Matrix: (Units=GPa)
#
#
# Indices 1 2 3 4 5 6 
#
# 1 217.2065 89.1489 48.9250 0.0000 0.0000 0.0000
# 2 89.1489 228.0598 13.5710 0.0000 0.0000 0.0000
# 3 48.9250 13.5710 59.7500 0.0000 0.0000 0.0000
# 4 0.0000 0.0000 0.0000 16.5530 0.0000 0.0000
# 5 0.0000 0.0000 0.0000 0.0000 26.6069 0.0000
# 6 0.0000 0.0000 0.0000 0.0000 0.0000 46.5742
#
#
#
# Elastic Compliance Matrix: (Units=1/GPa)
#
#
# Indices 1 2 3 4 5 6 
#
# 1 0.006663 -0.002311 -0.004931 0.000000 0.000000 0.000000
# 2 -0.002311 0.005247 0.000701 0.000000 0.000000 0.000000
# 3 -0.004931 0.000701 0.020615 0.000000 0.000000 0.000000
# 4 0.000000 0.000000 0.000000 0.060412 0.000000 0.000000
# 5 0.000000 0.000000 0.000000 0.000000 0.037584 0.000000
# 6 0.000000 0.000000 0.000000 0.000000 0.000000 0.021471
#
#
# Mechanical properties :
#
#
# Convention : Reuss Voigt Hill
#
# Bulk Modulus (GPa) = 51.43558 89.81180 70.62369
# Shear Modulus (GPa) = 29.14502 41.50489 35.32495
#
# Velocity S-wave (km/s) = 3.59891 4.29476 3.96214
# Velocity P-wave (km/s) = 6.33465 8.03157 7.23305
#
# Compressibility (1/GPa) = 0.01944179
#
# Stress axis : x y z
#
# Youngs Moduli (GPa) = 150.07717 190.60046 48.50848
#
# Poissons Ratio (x) = 0.44052 0.23920
# Poissons Ratio (y) = 0.34686 -0.03400
# Poissons Ratio (z) = 0.74005 -0.13358
#
# Static dielectric constant tensor:
#      x y z
#    x 3.962920 0.000000 0.000000 
#    y 0.000000 5.103530 0.000000 
#    z 0.000000 0.000000 3.598350 
# 
# 
# High freq. dielectric constant tensor:
#      x y z
#    x 1.897070 0.000000 0.000000 
#    y 0.000000 1.920280 0.000000 
#    z 0.000000 0.000000 1.861080 
# 
# From -- ./inp_files/18686.got.cif
#   From: 2010.03.12/outbox.cif.g09.slc.cpg/sg72_10_cif.got.tgz:18686.got - 2010.04.16 14:54:00.
