data_PCOD8294359
_publ_section_title
;
Structure prediction by ZEFSAII (Michael W. Deem and Ramdas Pophale) SiO2 
 PCOD8294359
Probable space group: I B A M
;
_chemical_formula_sum "Si O2"
_cell_formula_units_Z 96
_cell_length_a 20.468369
_cell_length_b 14.311913
_cell_length_c 17.617021
_cell_angle_alpha 90.000000
_cell_angle_beta 90.000000
_cell_angle_gamma 90.000000
_cell_volume 5160.756846
_symmetry_space_group_name_H-M "I B A M"
_symmetry_group_IT_number 72
_symmetry_cell_setting 'orthorhombic'
loop_
_space_group_symop_operation_xyz
x,y,z
-x,-y,z
x,-y,1/2-z
-x,y,1/2-z
-x,-y,-z
x,y,-z
-x,y,1/2+z
x,-y,1/2+z
1/2+x,1/2+y,1/2+z
1/2-x,1/2-y,1/2+z
1/2+x,1/2-y,-z
1/2-x,1/2+y,-z
1/2-x,1/2-y,1/2-z
1/2+x,1/2+y,1/2-z
1/2-x,1/2+y,z
1/2+x,1/2-y,z
loop_
_atom_site_type_symbol
_atom_site_label
_atom_site_fract_x
_atom_site_fract_y
_atom_site_fract_z
Si Si1 0.691977 0.409510 0.589392
Si Si2 0.694290 0.024177 0.338311
Si Si3 0.062297 0.950597 0.831296
Si Si4 0.054283 0.265846 0.691597
Si Si5 0.301819 0.771570 0.313456
Si Si6 0.562386 0.936493 0.912210
O O1 0.686085 0.404914 0.500000
O O2 0.758041 0.460181 0.613148
O O3 0.628778 0.464333 0.621601
O O4 0.695003 0.304744 0.620699
O O5 0.717040 0.130669 0.352039
O O6 0.620764 0.011354 0.367977
O O7 0.698853 0.000000 0.250000
O O8 0.042422 0.842236 0.827103
O O9 0.073386 0.000000 0.750000
O O10 0.000000 0.000000 0.871812
O O11 0.126967 0.278361 0.726970
O O12 0.049454 0.331171 0.617231
O O13 0.000000 0.301983 0.750000
O O14 0.250000 0.750000 0.250000
O O15 0.500000 0.000000 0.897973
O O16 0.580896 0.928364 0.000000
#
# Coordination Sequence:
#
# PCOD8294359 Si02
#       6
#    16  16  16  16  16  16
#     4  11  24  39  60  89 123 157 195 245 299 356
#     4  11  22  38  64  89 114 157 202 244 290 353
#     4  10  20  38  62  87 118 158 199 245 292 347
#     4  10  21  35  62  88 115 153 198 243 292 350
#     4  10  22  38  60  86 117 155 198 244 292 349
#     4  10  24  41  59  87 125 158 193 247 303 353
#
# _framework density 18.601922999999999
#
# number of rings (size 3 to 8) (size 9 to 14) (size 15 to 20)
#    0.000    1.667    3.333    1.000    7.000    7.000 
#    0.000    0.000    0.000    2.000    0.000    0.000 
#    0.000    0.000    0.000    0.000    0.000    0.000 
#
# Total GULP energy -595142.639646 kJ/mol
# GULP energy per Si atom -12398.804993 kJ/mol
# Density = 1.855958 g / cm^3
# Si number density = 18.601923 Si / 1000 Ang^3
#
#
#
# Elastic Constant Matrix: (Units=GPa)
#
#
# Indices 1 2 3 4 5 6 
#
# 1 114.9852 50.4329 64.2401 0.0000 0.0000 0.0000
# 2 50.4329 116.7094 45.2844 0.0000 0.0000 0.0000
# 3 64.2401 45.2844 115.3075 0.0000 0.0000 0.0000
# 4 0.0000 0.0000 0.0000 25.1542 0.0000 0.0000
# 5 0.0000 0.0000 0.0000 0.0000 28.2025 0.0000
# 6 0.0000 0.0000 0.0000 0.0000 0.0000 30.6583
#
#
#
# Elastic Compliance Matrix: (Units=1/GPa)
#
#
# Indices 1 2 3 4 5 6 
#
# 1 0.013741 -0.003501 -0.006281 0.000000 0.000000 0.000000
# 2 -0.003501 0.011001 -0.002370 0.000000 0.000000 0.000000
# 3 -0.006281 -0.002370 0.013102 0.000000 0.000000 0.000000
# 4 0.000000 0.000000 0.000000 0.039755 0.000000 0.000000
# 5 0.000000 0.000000 0.000000 0.000000 0.035458 0.000000
# 6 0.000000 0.000000 0.000000 0.000000 0.000000 0.032618
#
#
# Mechanical properties :
#
#
# Convention : Reuss Voigt Hill
#
# Bulk Modulus (GPa) = 73.84790 74.10187 73.97488
# Shear Modulus (GPa) = 28.65487 29.27266 28.96377
#
# Velocity S-wave (km/s) = 3.92908 3.97121 3.95020
# Velocity P-wave (km/s) = 7.76974 7.80701 7.78840
#
# Compressibility (1/GPa) = 0.01354135
#
# Stress axis : x y z
#
# Youngs Moduli (GPa) = 72.77434 90.90382 76.32337
#
# Poissons Ratio (x) = 0.31825 0.47935
# Poissons Ratio (y) = 0.25478 0.18087
# Poissons Ratio (z) = 0.45706 0.21542
#
# Static dielectric constant tensor:
#      x y z
#    x 3.711570 0.000000 0.000000 
#    y 0.000000 3.597910 0.000000 
#    z 0.000000 0.000000 3.282370 
# 
# 
# High freq. dielectric constant tensor:
#      x y z
#    x 1.740620 0.000000 0.000000 
#    y 0.000000 1.735430 0.000000 
#    z 0.000000 0.000000 1.701660 
# 
# From -- ./inp_files/24124.got.cif
#   From: 2010.03.12/outbox.cif.g09.slc.cpg/sg72_13_cif.got.tgz:24124.got - 2010.04.16 14:54:00.
