data_PCOD8294933
_publ_section_title
;
Structure prediction by ZEFSAII (Michael W. Deem and Ramdas Pophale) SiO2 
 PCOD8294933
Probable space group: I B A M
;
_chemical_formula_sum "Si O2"
_cell_formula_units_Z 52
_cell_length_a 12.393295
_cell_length_b 15.091271
_cell_length_c 13.543006
_cell_angle_alpha 90.000000
_cell_angle_beta 90.000000
_cell_angle_gamma 90.000000
_cell_volume 2532.956178
_symmetry_space_group_name_H-M "I B A M"
_symmetry_group_IT_number 72
_symmetry_cell_setting 'orthorhombic'
loop_
_space_group_symop_operation_xyz
x,y,z
-x,-y,z
x,-y,1/2-z
-x,y,1/2-z
-x,-y,-z
x,y,-z
-x,y,1/2+z
x,-y,1/2+z
1/2+x,1/2+y,1/2+z
1/2-x,1/2-y,1/2+z
1/2+x,1/2-y,-z
1/2-x,1/2+y,-z
1/2-x,1/2-y,1/2-z
1/2+x,1/2+y,1/2-z
1/2-x,1/2+y,z
1/2+x,1/2-y,z
loop_
_atom_site_type_symbol
_atom_site_label
_atom_site_fract_x
_atom_site_fract_y
_atom_site_fract_z
Si Si1 0.046554 0.823732 0.612102
Si Si2 0.877495 0.632110 0.886392
Si Si3 0.500000 0.000000 0.250000
Si Si4 0.662287 0.602542 0.220645
O O1 0.061448 0.854838 0.500000
O O2 0.043048 0.716958 0.620293
O O3 0.153337 0.850529 0.672857
O O4 0.943898 0.874421 0.656645
O O5 0.926399 0.555072 0.822261
O O6 0.758960 0.646309 0.840871
O O7 0.864745 0.602446 0.000000
O O8 0.674221 0.500000 0.250000
#
# Coordination Sequence:
#
# PCOD8294933 Si02
#       4
#    16  16   4  16
#     4  10  22  39  64  94 129 170 212 262 319 379
#     4  11  24  42  64  93 128 168 214 266 323 383
#     4  12  22  44  64  92 122 164 214 264 328 384
#     4  11  22  41  64  93 132 168 214 267 316 380
#
# _framework density 20.529371999999999
#
# number of rings (size 3 to 8) (size 9 to 14) (size 15 to 20)
#    0.000    1.231    1.538    6.000    0.000    3.692 
#    0.000    3.077    0.000    0.000    0.000    0.000 
#    0.000    0.000    0.000    0.000    0.000    0.000 
#
# Total GULP energy -322206.991794 kJ/mol
# GULP energy per Si atom -12392.576607 kJ/mol
# Density = 2.048265 g / cm^3
# Si number density = 20.529372 Si / 1000 Ang^3
#
#
#
# Elastic Constant Matrix: (Units=GPa)
#
#
# Indices 1 2 3 4 5 6 
#
# 1 83.0360 14.7067 43.0486 0.0000 0.0000 0.0000
# 2 14.7067 77.4399 31.1765 0.0000 0.0000 0.0000
# 3 43.0486 31.1765 159.1366 -0.0001 0.0001 0.0000
# 4 0.0000 0.0000 -0.0001 61.6610 0.0000 0.0000
# 5 0.0000 0.0000 0.0001 0.0000 140.4022 0.0000
# 6 0.0000 0.0000 0.0000 0.0000 0.0000 32.5947
#
#
#
# Elastic Compliance Matrix: (Units=1/GPa)
#
#
# Indices 1 2 3 4 5 6 
#
# 1 0.014116 -0.001241 -0.003575 0.000000 0.000000 0.000000
# 2 -0.001241 0.014128 -0.002432 0.000000 0.000000 0.000000
# 3 -0.003575 -0.002432 0.007728 0.000000 0.000000 0.000000
# 4 0.000000 0.000000 0.000000 0.016218 0.000000 0.000000
# 5 0.000000 0.000000 0.000000 0.000000 0.007122 0.000000
# 6 0.000000 0.000000 0.000000 0.000000 0.000000 0.030680
#
#
# Mechanical properties :
#
#
# Convention : Reuss Voigt Hill
#
# Bulk Modulus (GPa) = 46.56724 55.27511 50.92118
# Shear Modulus (GPa) = 44.78356 62.31028 53.54692
#
# Velocity S-wave (km/s) = 4.67565 5.51522 5.11270
# Velocity P-wave (km/s) = 7.20288 8.21829 7.72728
#
# Compressibility (1/GPa) = 0.02147432
#
# Stress axis : x y z
#
# Youngs Moduli (GPa) = 70.83915 70.78086 129.40645
#
# Poissons Ratio (x) = 0.08787 0.46269
# Poissons Ratio (y) = 0.08794 0.31472
# Poissons Ratio (z) = 0.25328 0.17214
#
# Static dielectric constant tensor:
#      x y z
#    x 3.936260 0.000000 0.000000 
#    y 0.000000 3.714560 0.000000 
#    z 0.000000 0.000000 4.176100 
# 
# 
# High freq. dielectric constant tensor:
#      x y z
#    x 1.794120 0.000000 0.000000 
#    y 0.000000 1.807990 0.000000 
#    z 0.000000 0.000000 1.827880 
# 
# From -- ./inp_files/19434.got.cif
#   From: 2010.03.12/outbox.cif.g09.slc.cpg/sg72_10_cif.got.tgz:19434.got - 2010.04.16 14:54:00.
