data_PCOD8294063
_publ_section_title
;
Structure prediction by ZEFSAII (Michael W. Deem and Ramdas Pophale) SiO2 
 PCOD8294063
Probable space group: I B A M
;
_chemical_formula_sum "Si O2"
_cell_formula_units_Z 116
_cell_length_a 22.385818
_cell_length_b 24.619709
_cell_length_c 9.969183
_cell_angle_alpha 90.000000
_cell_angle_beta 90.000000
_cell_angle_gamma 90.000000
_cell_volume 5494.339004
_symmetry_space_group_name_H-M "I B A M"
_symmetry_group_IT_number 72
_symmetry_cell_setting 'orthorhombic'
loop_
_space_group_symop_operation_xyz
x,y,z
-x,-y,z
x,-y,1/2-z
-x,y,1/2-z
-x,-y,-z
x,y,-z
-x,y,1/2+z
x,-y,1/2+z
1/2+x,1/2+y,1/2+z
1/2-x,1/2-y,1/2+z
1/2+x,1/2-y,-z
1/2-x,1/2+y,-z
1/2-x,1/2-y,1/2-z
1/2+x,1/2+y,1/2-z
1/2-x,1/2+y,z
1/2+x,1/2-y,z
loop_
_atom_site_type_symbol
_atom_site_label
_atom_site_fract_x
_atom_site_fract_y
_atom_site_fract_z
Si Si1 0.553376 0.893840 0.654052
Si Si2 0.388960 0.435123 0.644462
Si Si3 0.677343 0.950131 0.654225
Si Si4 0.541368 0.335515 0.860225
Si Si5 0.196072 0.769663 0.840321
Si Si6 0.800421 0.896746 0.348237
Si Si7 0.400784 0.775575 0.151965
Si Si8 0.500000 0.500000 0.750000
O O1 0.500000 0.914645 0.750000
O O2 0.535915 0.906361 0.500000
O O3 0.614377 0.923870 0.694827
O O4 0.563272 0.830325 0.677476
O O5 0.363429 0.455002 0.500000
O O6 0.397772 0.369919 0.638473
O O7 0.339423 0.440700 0.761384
O O8 0.453726 0.463251 0.664796
O O9 0.676326 0.969756 0.500000
O O10 0.729875 0.906013 0.676666
O O11 0.690985 0.000000 0.750000
O O12 0.500000 0.361850 0.750000
O O13 0.551731 0.272307 0.839395
O O14 0.506508 0.343489 0.000000
O O15 0.250000 0.750000 0.750000
O O16 0.185570 0.833818 0.817750
O O17 0.142998 0.734352 0.776594
O O18 0.203615 0.756747 0.000000
O O19 0.818045 0.910717 0.500000
O O20 0.371123 0.776842 0.000000
#
# Coordination Sequence:
#
# PCOD8294063 Si02
#       8
#    16  16  16  16  16  16  16   4
#     4  10  22  41  66  95 132 168 207 257 317 383
#     4  11  24  41  62  88 120 165 218 270 322 375
#     4  10  23  44  66  92 125 164 207 262 323 385
#     4  10  20  35  56  83 116 155 199 250 305 365
#     4  11  22  36  59  90 125 167 208 255 313 380
#     4  10  23  43  65  91 126 166 211 266 328 381
#     4  10  20  37  59  87 124 163 202 253 309 372
#     4  12  26  44  60  90 134 172 218 282 336 372
#
# _framework density 21.112639999999999
#
# number of rings (size 3 to 8) (size 9 to 14) (size 15 to 20)
#    0.000    1.655    2.069    1.862    0.966    6.897 
#    0.000    2.759    0.000    0.000    0.000    0.000 
#    0.000    0.000    0.000    0.000    0.000    0.000 
#
# Total GULP energy -718554.232431 kJ/mol
# GULP energy per Si atom -12388.866076 kJ/mol
# Density = 2.106459 g / cm^3
# Si number density = 21.112640 Si / 1000 Ang^3
#
#
#
# Elastic Constant Matrix: (Units=GPa)
#
#
# Indices 1 2 3 4 5 6 
#
# 1 107.7613 4.1038 70.2654 0.0000 0.0000 0.0000
# 2 4.1038 45.4579 21.1776 0.0000 0.0000 0.0000
# 3 70.2654 21.1776 157.5804 0.0000 0.0000 0.0000
# 4 0.0000 0.0000 0.0000 24.8559 0.0000 0.0000
# 5 0.0000 0.0000 0.0000 0.0000 42.7563 0.0000
# 6 0.0000 0.0000 0.0000 0.0000 0.0000 26.7300
#
#
#
# Elastic Compliance Matrix: (Units=1/GPa)
#
#
# Indices 1 2 3 4 5 6 
#
# 1 0.013199 0.001654 -0.006108 0.000000 0.000000 0.000000
# 2 0.001654 0.023675 -0.003919 0.000000 0.000000 0.000000
# 3 -0.006108 -0.003919 0.009596 0.000000 0.000000 0.000000
# 4 0.000000 0.000000 0.000000 0.040232 0.000000 0.000000
# 5 0.000000 0.000000 0.000000 0.000000 0.023388 0.000000
# 6 0.000000 0.000000 0.000000 0.000000 0.000000 0.037411
#
#
# Mechanical properties :
#
#
# Convention : Reuss Voigt Hill
#
# Bulk Modulus (GPa) = 33.64269 55.76591 44.70430
# Shear Modulus (GPa) = 28.70983 33.21865 30.96424
#
# Velocity S-wave (km/s) = 3.69160 3.97091 3.83380
# Velocity P-wave (km/s) = 5.84295 6.89167 6.38886
#
# Compressibility (1/GPa) = 0.02972414
#
# Stress axis : x y z
#
# Youngs Moduli (GPa) = 75.76079 42.23876 104.20775
#
# Poissons Ratio (x) = -0.06986 0.63649
# Poissons Ratio (y) = -0.12530 0.40841
# Poissons Ratio (z) = 0.46274 0.16554
#
# Static dielectric constant tensor:
#      x y z
#    x 3.429180 0.000000 0.000000 
#    y 0.000000 3.793650 0.000000 
#    z 0.000000 0.000000 4.092350 
# 
# 
# High freq. dielectric constant tensor:
#      x y z
#    x 1.813890 0.000000 0.000000 
#    y 0.000000 1.828180 0.000000 
#    z 0.000000 0.000000 1.838450 
# 
# From -- ./inp_files/7338.got.cif
#   From: 2010.03.12/outbox.cif.g09.slc.cpg/sg72_4_cif.got.tgz:7338.got - 2010.04.16 14:54:00.
