data_PCOD8294111
_publ_section_title
;
Structure prediction by ZEFSAII (Michael W. Deem and Ramdas Pophale) SiO2 
 PCOD8294111
Probable space group: I B A M
;
_chemical_formula_sum "Si O2"
_cell_formula_units_Z 104
_cell_length_a 9.063291
_cell_length_b 27.306417
_cell_length_c 21.592486
_cell_angle_alpha 90.000000
_cell_angle_beta 90.000000
_cell_angle_gamma 90.000000
_cell_volume 5343.838064
_symmetry_space_group_name_H-M "I B A M"
_symmetry_group_IT_number 72
_symmetry_cell_setting 'orthorhombic'
loop_
_space_group_symop_operation_xyz
x,y,z
-x,-y,z
x,-y,1/2-z
-x,y,1/2-z
-x,-y,-z
x,y,-z
-x,y,1/2+z
x,-y,1/2+z
1/2+x,1/2+y,1/2+z
1/2-x,1/2-y,1/2+z
1/2+x,1/2-y,-z
1/2-x,1/2+y,-z
1/2-x,1/2-y,1/2-z
1/2+x,1/2+y,1/2-z
1/2-x,1/2+y,z
1/2+x,1/2-y,z
loop_
_atom_site_type_symbol
_atom_site_label
_atom_site_fract_x
_atom_site_fract_y
_atom_site_fract_z
Si Si1 0.133898 0.194105 0.168456
Si Si2 0.124292 0.461249 0.929629
Si Si3 0.874980 0.350668 0.569888
Si Si4 0.500000 0.614269 0.750000
Si Si5 0.028553 0.137342 0.430069
Si Si6 0.474092 0.793747 0.682290
Si Si7 0.411759 0.548312 0.644058
O O1 0.303097 0.209623 0.165371
O O2 0.116038 0.148250 0.214258
O O3 0.075806 0.177355 0.101565
O O4 0.037754 0.239588 0.190778
O O5 0.062944 0.405932 0.924512
O O6 0.254099 0.468865 0.880730
O O7 0.000000 0.500000 0.911187
O O8 0.181142 0.470404 0.000000
O O9 0.911138 0.330627 0.500000
O O10 0.699608 0.349442 0.580445
O O11 0.946440 0.319539 0.624583
O O12 0.397915 0.580878 0.706021
O O13 0.978833 0.138358 0.500000
O O14 0.002524 0.081971 0.405957
O O15 0.500000 0.819677 0.750000
O O16 0.500000 0.500000 0.660106
#
# Coordination Sequence:
#
# PCOD8294111 Si02
#       7
#    16  16  16   8  16  16  16
#     4  11  24  40  61  87 115 157 197 250 299 355
#     4   9  19  36  62  90 121 157 194 242 297 350
#     4   9  20  40  62  89 123 161 198 249 303 354
#     4  10  23  40  60  78 116 158 203 246 294 358
#     4   9  20  39  63  88 120 157 199 247 300 352
#     4  12  25  38  64  90 118 156 204 248 300 361
#     4  10  20  35  60  86 118 156 198 242 295 346
#
# _framework density 19.461668
#
# number of rings (size 3 to 8) (size 9 to 14) (size 15 to 20)
#    0.000    2.000    0.769    3.000    6.462    4.923 
#    0.000    1.538    0.000    0.000    0.000    0.000 
#    0.000    0.000    0.000    0.000    0.000    0.000 
#
# Total GULP energy -644627.047317 kJ/mol
# GULP energy per Si atom -12396.673987 kJ/mol
# Density = 1.941737 g / cm^3
# Si number density = 19.461668 Si / 1000 Ang^3
#
#
#
# Elastic Constant Matrix: (Units=GPa)
#
#
# Indices 1 2 3 4 5 6 
#
# 1 92.7212 58.0727 53.0201 0.0000 0.0000 0.0000
# 2 58.0727 104.3929 65.9787 0.0000 0.0000 0.0000
# 3 53.0201 65.9787 157.2813 0.0001 0.0000 0.0000
# 4 0.0000 0.0000 0.0001 22.6437 0.0000 0.0000
# 5 0.0000 0.0000 0.0000 0.0000 25.1509 0.0000
# 6 0.0000 0.0000 0.0000 0.0000 0.0000 24.6901
#
#
#
# Elastic Compliance Matrix: (Units=1/GPa)
#
#
# Indices 1 2 3 4 5 6 
#
# 1 0.017208 -0.008037 -0.002429 0.000000 0.000000 0.000000
# 2 -0.008037 0.016789 -0.004334 0.000000 0.000000 0.000000
# 3 -0.002429 -0.004334 0.008995 0.000000 0.000000 0.000000
# 4 0.000000 0.000000 0.000000 0.044162 0.000000 0.000000
# 5 0.000000 0.000000 0.000000 0.000000 0.039760 0.000000
# 6 0.000000 0.000000 0.000000 0.000000 0.000000 0.040502
#
#
# Mechanical properties :
#
#
# Convention : Reuss Voigt Hill
#
# Bulk Modulus (GPa) = 74.67271 78.72648 76.69959
# Shear Modulus (GPa) = 24.81628 26.31854 25.56741
#
# Velocity S-wave (km/s) = 3.57478 3.68139 3.62848
# Velocity P-wave (km/s) = 7.44924 7.65572 7.55319
#
# Compressibility (1/GPa) = 0.01339177
#
# Stress axis : x y z
#
# Youngs Moduli (GPa) = 58.11254 59.56233 111.17451
#
# Poissons Ratio (x) = 0.47872 0.27008
# Poissons Ratio (y) = 0.46706 0.48178
# Poissons Ratio (z) = 0.14117 0.25812
#
# Static dielectric constant tensor:
#      x y z
#    x 3.335550 0.000000 0.000000 
#    y 0.000000 3.640850 0.000000 
#    z 0.000000 0.000000 3.800540 
# 
# 
# High freq. dielectric constant tensor:
#      x y z
#    x 1.738080 0.000000 0.000000 
#    y 0.000000 1.759610 0.000000 
#    z 0.000000 0.000000 1.773310 
# 
# From -- ./inp_files/36136.got.cif
#   From: 2010.03.12/outbox.cif.g09.slc.cpg/sg72_19_cif.got.tgz:36136.got - 2010.04.16 14:54:00.
