data_PCOD8294086
_publ_section_title
;
Structure prediction by ZEFSAII (Michael W. Deem and Ramdas Pophale) SiO2 
 PCOD8294086
Probable space group: I B A M
;
_chemical_formula_sum "Si O2"
_cell_formula_units_Z 64
_cell_length_a 8.477330
_cell_length_b 12.485167
_cell_length_c 27.943679
_cell_angle_alpha 90.000000
_cell_angle_beta 90.000000
_cell_angle_gamma 90.000000
_cell_volume 2957.583597
_symmetry_space_group_name_H-M "I B A M"
_symmetry_group_IT_number 72
_symmetry_cell_setting 'orthorhombic'
loop_
_space_group_symop_operation_xyz
x,y,z
-x,-y,z
x,-y,1/2-z
-x,y,1/2-z
-x,-y,-z
x,y,-z
-x,y,1/2+z
x,-y,1/2+z
1/2+x,1/2+y,1/2+z
1/2-x,1/2-y,1/2+z
1/2+x,1/2-y,-z
1/2-x,1/2+y,-z
1/2-x,1/2-y,1/2-z
1/2+x,1/2+y,1/2-z
1/2-x,1/2+y,z
1/2+x,1/2-y,z
loop_
_atom_site_type_symbol
_atom_site_label
_atom_site_fract_x
_atom_site_fract_y
_atom_site_fract_z
Si Si1 0.038693 0.616437 0.305587
Si Si2 0.182820 0.218537 0.644157
Si Si3 0.264849 0.465553 0.500000
Si Si4 0.058500 0.337419 0.000000
Si Si5 0.919019 0.163469 0.420541
O O1 0.220024 0.642008 0.319704
O O2 0.000000 0.500000 0.328307
O O3 0.000000 0.612027 0.250000
O O4 0.938815 0.713092 0.325753
O O5 0.285801 0.307777 0.617548
O O6 0.084815 0.142787 0.607013
O O7 0.103407 0.400902 0.500000
O O8 0.368636 0.438031 0.547048
O O9 0.217989 0.590199 0.500000
O O10 0.060651 0.268473 0.047391
#
# Coordination Sequence:
#
# PCOD8294086 Si02
#       5
#    16  16   8   8  16
#     4  10  22  42  67  93 123 163 205 255 328 395
#     4  10  21  38  63  90 127 159 204 266 313 379
#     4  10  20  35  60  83 120 172 209 253 307 371
#     4  10  20  35  58  83 120 173 211 252 310 363
#     4  10  20  37  56  88 123 160 206 260 304 362
#
# _framework density 21.639286999999999
#
# number of rings (size 3 to 8) (size 9 to 14) (size 15 to 20)
#    0.000    2.000    2.500    0.750    0.000    4.000 
#    0.000   12.500    0.000   13.500    0.000    0.000 
#    0.000    0.000    0.000    0.000    0.000    0.000 
#
# Total GULP energy -396698.595829 kJ/mol
# GULP energy per Si atom -12396.831120 kJ/mol
# Density = 2.159004 g / cm^3
# Si number density = 21.639287 Si / 1000 Ang^3
#
#
#
# Elastic Constant Matrix: (Units=GPa)
#
#
# Indices 1 2 3 4 5 6 
#
# 1 135.5570 49.4204 54.8825 0.0000 0.0000 0.0000
# 2 49.4204 86.2084 34.3207 0.0000 0.0000 0.0000
# 3 54.8825 34.3207 99.9045 0.0000 0.0000 0.0000
# 4 0.0000 0.0000 0.0000 13.0164 0.0000 0.0000
# 5 0.0000 0.0000 0.0000 0.0000 36.7633 0.0000
# 6 0.0000 0.0000 0.0000 0.0000 0.0000 31.8927
#
#
#
# Elastic Compliance Matrix: (Units=1/GPa)
#
#
# Indices 1 2 3 4 5 6 
#
# 1 0.010770 -0.004424 -0.004397 0.000000 0.000000 0.000000
# 2 -0.004424 0.015255 -0.002810 0.000000 0.000000 0.000000
# 3 -0.004397 -0.002810 0.013390 0.000000 0.000000 0.000000
# 4 0.000000 0.000000 0.000000 0.076826 0.000000 0.000000
# 5 0.000000 0.000000 0.000000 0.000000 0.027201 0.000000
# 6 0.000000 0.000000 0.000000 0.000000 0.000000 0.031355
#
#
# Mechanical properties :
#
#
# Convention : Reuss Voigt Hill
#
# Bulk Modulus (GPa) = 61.90673 66.54634 64.22654
# Shear Modulus (GPa) = 24.57696 28.53756 26.55726
#
# Velocity S-wave (km/s) = 3.37375 3.63545 3.50704
# Velocity P-wave (km/s) = 6.62170 6.95998 6.79294
#
# Compressibility (1/GPa) = 0.01615333
#
# Stress axis : x y z
#
# Youngs Moduli (GPa) = 92.85257 65.55429 74.68062
#
# Poissons Ratio (x) = 0.28998 0.32835
# Poissons Ratio (y) = 0.41074 0.20988
# Poissons Ratio (z) = 0.40825 0.18423
#
# Static dielectric constant tensor:
#      x y z
#    x 4.281630 0.000000 0.000000 
#    y 0.000000 3.927890 0.000000 
#    z 0.000000 0.000000 4.201810 
# 
# 
# High freq. dielectric constant tensor:
#      x y z
#    x 1.868170 0.000000 0.000000 
#    y 0.000000 1.840550 0.000000 
#    z 0.000000 0.000000 1.849670 
# 
# From -- ./inp_files/50625.got.cif
#   From: 2010.03.12/outbox.cif.g09.slc.cpg/sg72_26_cif.got.tgz:50625.got - 2010.04.16 14:54:00.
