data_PCOD8294470
_publ_section_title
;
Structure prediction by ZEFSAII (Michael W. Deem and Ramdas Pophale) SiO2 
 PCOD8294470
Probable space group: I B A M
;
_chemical_formula_sum "Si O2"
_cell_formula_units_Z 80
_cell_length_a 7.687610
_cell_length_b 16.941743
_cell_length_c 27.075120
_cell_angle_alpha 90.000000
_cell_angle_beta 90.000000
_cell_angle_gamma 90.000000
_cell_volume 3526.304591
_symmetry_space_group_name_H-M "I B A M"
_symmetry_group_IT_number 72
_symmetry_cell_setting 'orthorhombic'
loop_
_space_group_symop_operation_xyz
x,y,z
-x,-y,z
x,-y,1/2-z
-x,y,1/2-z
-x,-y,-z
x,y,-z
-x,y,1/2+z
x,-y,1/2+z
1/2+x,1/2+y,1/2+z
1/2-x,1/2-y,1/2+z
1/2+x,1/2-y,-z
1/2-x,1/2+y,-z
1/2-x,1/2-y,1/2-z
1/2+x,1/2+y,1/2-z
1/2-x,1/2+y,z
1/2+x,1/2-y,z
loop_
_atom_site_type_symbol
_atom_site_label
_atom_site_fract_x
_atom_site_fract_y
_atom_site_fract_z
Si Si1 0.249466 0.555188 0.903497
Si Si2 0.191961 0.849486 0.803869
Si Si3 0.833961 0.133411 0.500000
Si Si4 0.120006 0.617887 0.596395
Si Si5 0.948677 0.699630 0.000000
Si Si6 0.500000 0.777153 0.750000
Si Si7 0.000000 0.000000 0.823292
O O1 0.363271 0.583784 0.950216
O O2 0.186345 0.468374 0.917297
O O3 0.374267 0.554866 0.856252
O O4 0.085972 0.612060 0.890685
O O5 0.270028 0.845560 0.858748
O O6 0.343038 0.834983 0.763966
O O7 0.110811 0.936346 0.791598
O O8 0.050218 0.779865 0.796333
O O9 0.966559 0.206186 0.500000
O O10 0.636025 0.161488 0.500000
O O11 0.154467 0.672770 0.549047
#
# Coordination Sequence:
#
# PCOD8294470 Si02
#       7
#    16  16   8  16   8   8   8
#     4   9  19  36  58  84 119 163 205 250 302 353
#     4  10  23  43  67  93 126 164 208 258 313 374
#     4  10  21  34  50  80 122 162 205 250 295 359
#     4   9  19  38  61  86 120 161 204 251 303 366
#     4  10  21  33  54  88 120 157 201 246 305 372
#     4  10  24  45  68  95 126 164 202 258 330 372
#     4  10  22  40  64  94 122 160 212 257 304 373
#
# _framework density 22.686640000000001
#
# number of rings (size 3 to 8) (size 9 to 14) (size 15 to 20)
#    0.000    2.400    0.000    0.600    0.000   14.400 
#    0.000    6.000    0.000    0.000    0.000    0.000 
#    0.000    0.000    0.000    0.000    0.000    0.000 
#
# Total GULP energy -496019.619567 kJ/mol
# GULP energy per Si atom -12400.490489 kJ/mol
# Density = 2.263500 g / cm^3
# Si number density = 22.686640 Si / 1000 Ang^3
#
#
#
# Elastic Constant Matrix: (Units=GPa)
#
#
# Indices 1 2 3 4 5 6 
#
# 1 81.4357 49.6681 37.8777 0.0000 0.0000 0.0000
# 2 49.6681 121.1351 66.5439 0.0000 0.0000 0.0000
# 3 37.8777 66.5439 101.2261 0.0000 0.0000 0.0000
# 4 0.0000 0.0000 0.0000 32.1565 0.0000 0.0000
# 5 0.0000 0.0000 0.0000 0.0000 23.6705 0.0000
# 6 0.0000 0.0000 0.0000 0.0000 0.0000 32.8879
#
#
#
# Elastic Compliance Matrix: (Units=1/GPa)
#
#
# Indices 1 2 3 4 5 6 
#
# 1 0.016853 -0.005394 -0.002761 0.000000 0.000000 0.000000
# 2 -0.005394 0.014648 -0.007611 0.000000 0.000000 0.000000
# 3 -0.002761 -0.007611 0.015915 0.000000 0.000000 0.000000
# 4 0.000000 0.000000 0.000000 0.031098 0.000000 0.000000
# 5 0.000000 0.000000 0.000000 0.000000 0.042247 0.000000
# 6 0.000000 0.000000 0.000000 0.000000 0.000000 0.030406
#
#
# Mechanical properties :
#
#
# Convention : Reuss Voigt Hill
#
# Bulk Modulus (GPa) = 62.94939 67.99735 65.47337
# Shear Modulus (GPa) = 26.59682 27.72347 27.16015
#
# Velocity S-wave (km/s) = 3.42768 3.49953 3.46379
# Velocity P-wave (km/s) = 6.59340 6.80929 6.70221
#
# Compressibility (1/GPa) = 0.01588578
#
# Stress axis : x y z
#
# Youngs Moduli (GPa) = 59.33547 68.27022 62.83370
#
# Poissons Ratio (x) = 0.36823 0.17346
# Poissons Ratio (y) = 0.32004 0.47821
# Poissons Ratio (z) = 0.16380 0.51959
#
# Static dielectric constant tensor:
#      x y z
#    x 4.261240 0.000000 0.000000 
#    y 0.000000 4.115350 0.000000 
#    z 0.000000 0.000000 3.928230 
# 
# 
# High freq. dielectric constant tensor:
#      x y z
#    x 1.900930 0.000000 0.000000 
#    y 0.000000 1.890280 0.000000 
#    z 0.000000 0.000000 1.884850 
# 
# From -- ./inp_files/47246.got.cif
#   From: 2010.03.12/outbox.cif.g09.slc.cpg/sg72_24_cif.got.tgz:47246.got - 2010.04.16 14:54:00.
