data_PCOD8294932
_publ_section_title
;
Structure prediction by ZEFSAII (Michael W. Deem and Ramdas Pophale) SiO2 
 PCOD8294932
Probable space group: I B A M
;
_chemical_formula_sum "Si O2"
_cell_formula_units_Z 116
_cell_length_a 18.103262
_cell_length_b 17.383616
_cell_length_c 18.224022
_cell_angle_alpha 90.000000
_cell_angle_beta 90.000000
_cell_angle_gamma 90.000000
_cell_volume 5735.102547
_symmetry_space_group_name_H-M "I B A M"
_symmetry_group_IT_number 72
_symmetry_cell_setting 'orthorhombic'
loop_
_space_group_symop_operation_xyz
x,y,z
-x,-y,z
x,-y,1/2-z
-x,y,1/2-z
-x,-y,-z
x,y,-z
-x,y,1/2+z
x,-y,1/2+z
1/2+x,1/2+y,1/2+z
1/2-x,1/2-y,1/2+z
1/2+x,1/2-y,-z
1/2-x,1/2+y,-z
1/2-x,1/2-y,1/2-z
1/2+x,1/2+y,1/2-z
1/2-x,1/2+y,z
1/2+x,1/2-y,z
loop_
_atom_site_type_symbol
_atom_site_label
_atom_site_fract_x
_atom_site_fract_y
_atom_site_fract_z
Si Si1 0.476676 0.085603 0.916552
Si Si2 0.674316 0.760123 0.210305
Si Si3 0.445839 0.208726 0.312833
Si Si4 0.000000 0.000000 0.250000
Si Si5 0.401932 0.608878 0.346436
Si Si6 0.169724 0.029168 0.085970
Si Si7 0.310005 0.875063 0.415686
Si Si8 0.048221 0.848115 0.583972
O O1 0.518185 0.139077 0.857980
O O2 0.388817 0.084618 0.906711
O O3 0.500000 0.000000 0.898830
O O4 0.497964 0.110469 0.000000
O O5 0.750000 0.750000 0.250000
O O6 0.627040 0.814206 0.266348
O O7 0.634441 0.678859 0.197267
O O8 0.688035 0.797673 0.131385
O O9 0.500000 0.240862 0.250000
O O10 0.425031 0.276565 0.368099
O O11 0.947158 0.943799 0.292723
O O12 0.337284 0.556707 0.381785
O O13 0.460424 0.638156 0.407619
O O14 0.245253 0.069011 0.114549
O O15 0.096973 0.078302 0.108595
O O16 0.175193 0.020136 0.000000
O O17 0.294353 0.851546 0.500000
O O18 0.065082 0.827808 0.500000
#
# Coordination Sequence:
#
# PCOD8294932 Si02
#       8
#    16  16  16   4  16  16  16  16
#     4  10  22  42  69  95 120 163 221 273 322 381
#     4  12  27  43  63  95 132 172 216 266 320 399
#     4  12  22  41  62  94 127 166 213 264 320 380
#     4  12  24  36  62  96 128 172 202 264 340 388
#     4  12  23  39  62  90 130 170 216 266 326 397
#     4  10  22  39  63  94 127 163 211 272 327 383
#     4  10  22  44  65  88 126 170 213 265 327 387
#     4  11  21  38  65  96 130 170 217 263 321 400
#
# _framework density 20.226315
#
# number of rings (size 3 to 8) (size 9 to 14) (size 15 to 20)
#    0.000    0.966    4.138    2.483    1.931    4.690 
#    0.000    2.069    0.000    0.000    0.000    0.000 
#    0.000    0.000    0.000    0.000    0.000    0.000 
#
# Total GULP energy -719101.192784 kJ/mol
# GULP energy per Si atom -12398.296427 kJ/mol
# Density = 2.018028 g / cm^3
# Si number density = 20.226315 Si / 1000 Ang^3
#
#
#
# Elastic Constant Matrix: (Units=GPa)
#
#
# Indices 1 2 3 4 5 6 
#
# 1 134.5010 47.9587 47.2615 0.0000 0.0000 0.0000
# 2 47.9587 99.8039 49.8535 0.0000 0.0000 0.0000
# 3 47.2615 49.8535 96.7218 0.0000 0.0000 0.0000
# 4 0.0000 0.0000 0.0000 48.3332 0.0000 0.0000
# 5 0.0000 0.0000 0.0000 0.0000 33.6231 0.0000
# 6 0.0000 0.0000 0.0000 0.0000 0.0000 40.7458
#
#
#
# Elastic Compliance Matrix: (Units=1/GPa)
#
#
# Indices 1 2 3 4 5 6 
#
# 1 0.009625 -0.003065 -0.003123 0.000000 0.000000 0.000000
# 2 -0.003065 0.014470 -0.005961 0.000000 0.000000 0.000000
# 3 -0.003123 -0.005961 0.014937 0.000000 0.000000 0.000000
# 4 0.000000 0.000000 0.000000 0.020690 0.000000 0.000000
# 5 0.000000 0.000000 0.000000 0.000000 0.029741 0.000000
# 6 0.000000 0.000000 0.000000 0.000000 0.000000 0.024542
#
#
# Mechanical properties :
#
#
# Convention : Reuss Voigt Hill
#
# Bulk Modulus (GPa) = 67.86774 69.01933 68.44353
# Shear Modulus (GPa) = 34.91237 36.93729 35.92483
#
# Velocity S-wave (km/s) = 4.15913 4.27804 4.21900
# Velocity P-wave (km/s) = 7.52937 7.65505 7.59247
#
# Compressibility (1/GPa) = 0.01473454
#
# Stress axis : x y z
#
# Youngs Moduli (GPa) = 103.89284 69.10911 66.94608
#
# Poissons Ratio (x) = 0.21182 0.20910
# Poissons Ratio (y) = 0.31844 0.39904
# Poissons Ratio (z) = 0.32450 0.41193
#
# Static dielectric constant tensor:
#      x y z
#    x 3.993030 0.000000 0.000000 
#    y 0.000000 3.656030 0.000000 
#    z 0.000000 0.000000 3.747170 
# 
# 
# High freq. dielectric constant tensor:
#      x y z
#    x 1.795770 0.000000 0.000000 
#    y 0.000000 1.779920 0.000000 
#    z 0.000000 0.000000 1.802780 
# 
# From -- ./inp_files/31752.got.cif
#   From: 2010.03.12/outbox.cif.g09.slc.cpg/sg72_16_cif.got.tgz:31752.got - 2010.04.16 14:54:00.
