data_PCOD8294816
_publ_section_title
;
Structure prediction by ZEFSAII (Michael W. Deem and Ramdas Pophale) SiO2 
 PCOD8294816
Probable space group: I B A M
;
_chemical_formula_sum "Si O2"
_cell_formula_units_Z 112
_cell_length_a 14.172281
_cell_length_b 14.528398
_cell_length_c 26.240574
_cell_angle_alpha 90.000000
_cell_angle_beta 90.000000
_cell_angle_gamma 90.000000
_cell_volume 5402.948329
_symmetry_space_group_name_H-M "I B A M"
_symmetry_group_IT_number 72
_symmetry_cell_setting 'orthorhombic'
loop_
_space_group_symop_operation_xyz
x,y,z
-x,-y,z
x,-y,1/2-z
-x,y,1/2-z
-x,-y,-z
x,y,-z
-x,y,1/2+z
x,-y,1/2+z
1/2+x,1/2+y,1/2+z
1/2-x,1/2-y,1/2+z
1/2+x,1/2-y,-z
1/2-x,1/2+y,-z
1/2-x,1/2-y,1/2-z
1/2+x,1/2+y,1/2-z
1/2-x,1/2+y,z
1/2+x,1/2-y,z
loop_
_atom_site_type_symbol
_atom_site_label
_atom_site_fract_x
_atom_site_fract_y
_atom_site_fract_z
Si Si1 0.599965 0.044600 0.057319
Si Si2 0.002015 0.778514 0.191092
Si Si3 0.635806 0.139309 0.155759
Si Si4 0.411940 0.562378 0.875597
Si Si5 0.747356 0.881310 0.942204
Si Si6 0.200184 0.279720 0.654785
Si Si7 0.248198 0.476211 0.693631
O O1 0.617824 0.130061 0.095053
O O2 0.500000 0.000000 0.071871
O O3 0.684614 0.972384 0.063267
O O4 0.596610 0.084254 0.000000
O O5 0.956863 0.677355 0.184043
O O6 0.943604 0.850973 0.157773
O O7 0.000000 0.808958 0.250000
O O8 0.106755 0.774084 0.169631
O O9 0.717965 0.209796 0.168463
O O10 0.659537 0.039066 0.177990
O O11 0.500000 0.500000 0.892612
O O12 0.355379 0.597179 0.925490
O O13 0.338495 0.502743 0.842058
O O14 0.701900 0.804230 0.905420
O O15 0.747137 0.844184 0.000000
O O16 0.214912 0.370814 0.688748
O O17 0.281423 0.500000 0.750000
#
# Coordination Sequence:
#
# PCOD8294816 Si02
#       7
#    16  16  16  16  16  16  16
#     4  10  21  40  70  98 125 170 220 273 341 402
#     4  12  27  41  66  97 136 178 219 276 330 389
#     4  12  23  42  66  95 135 168 220 281 327 395
#     4  11  24  42  64  98 132 177 228 266 324 403
#     4  10  21  45  69  94 134 172 216 278 334 390
#     4  11  24  44  63 100 132 172 227 272 329 402
#     4  11  24  41  66  92 130 179 220 273 335 391
#
# _framework density 20.729423000000001
#
# number of rings (size 3 to 8) (size 9 to 14) (size 15 to 20)
#    0.000    1.000    5.714    2.571    4.000    2.000 
#    0.000    2.143    0.000    0.000    0.000    0.000 
#    0.000    0.000    0.000    0.000    0.000    0.000 
#
# Total GULP energy -694521.705032 kJ/mol
# GULP energy per Si atom -12402.173304 kJ/mol
# Density = 2.068224 g / cm^3
# Si number density = 20.729423 Si / 1000 Ang^3
#
#
#
# Elastic Constant Matrix: (Units=GPa)
#
#
# Indices 1 2 3 4 5 6 
#
# 1 95.8468 20.9041 26.2625 0.0000 0.0000 0.0000
# 2 20.9041 71.7942 18.0217 0.0000 0.0000 0.0000
# 3 26.2625 18.0217 116.4761 0.0000 0.0000 0.0000
# 4 0.0000 0.0000 0.0000 24.6576 0.0000 0.0000
# 5 0.0000 0.0000 0.0000 0.0000 21.8436 0.0000
# 6 0.0000 0.0000 0.0000 0.0000 0.0000 30.7500
#
#
#
# Elastic Compliance Matrix: (Units=1/GPa)
#
#
# Indices 1 2 3 4 5 6 
#
# 1 0.011653 -0.002844 -0.002187 0.000000 0.000000 0.000000
# 2 -0.002844 0.015186 -0.001708 0.000000 0.000000 0.000000
# 3 -0.002187 -0.001708 0.009343 0.000000 0.000000 0.000000
# 4 0.000000 0.000000 0.000000 0.040556 0.000000 0.000000
# 5 0.000000 0.000000 0.000000 0.000000 0.045780 0.000000
# 6 0.000000 0.000000 0.000000 0.000000 0.000000 0.032520
#
#
# Mechanical properties :
#
#
# Convention : Reuss Voigt Hill
#
# Bulk Modulus (GPa) = 44.04861 46.05483 45.05172
# Shear Modulus (GPa) = 28.39554 30.04549 29.22052
#
# Velocity S-wave (km/s) = 3.70512 3.81125 3.75856
# Velocity P-wave (km/s) = 6.29280 6.45235 6.37307
#
# Compressibility (1/GPa) = 0.02270219
#
# Stress axis : x y z
#
# Youngs Moduli (GPa) = 85.81538 65.85202 107.03211
#
# Poissons Ratio (x) = 0.18727 0.23413
# Poissons Ratio (y) = 0.24405 0.18285
# Poissons Ratio (z) = 0.18772 0.11250
#
# Static dielectric constant tensor:
#      x y z
#    x 3.964420 0.000000 0.000000 
#    y 0.000000 3.654380 0.000000 
#    z 0.000000 0.000000 3.902080 
# 
# 
# High freq. dielectric constant tensor:
#      x y z
#    x 1.823760 0.000000 0.000000 
#    y 0.000000 1.801950 0.000000 
#    z 0.000000 0.000000 1.811460 
# 
# From -- ./inp_files/48718.got.cif
#   From: 2010.03.12/outbox.cif.g09.slc.cpg/sg72_25_cif.got.tgz:48718.got - 2010.04.16 14:54:00.
