data_PCOD8294368
_publ_section_title
;
Structure prediction by ZEFSAII (Michael W. Deem and Ramdas Pophale) SiO2 
 PCOD8294368
Probable space group: I B A M
;
_chemical_formula_sum "Si O2"
_cell_formula_units_Z 88
_cell_length_a 17.675162
_cell_length_b 12.549536
_cell_length_c 19.090007
_cell_angle_alpha 90.000000
_cell_angle_beta 90.000000
_cell_angle_gamma 90.000000
_cell_volume 4234.451465
_symmetry_space_group_name_H-M "I B A M"
_symmetry_group_IT_number 72
_symmetry_cell_setting 'orthorhombic'
loop_
_space_group_symop_operation_xyz
x,y,z
-x,-y,z
x,-y,1/2-z
-x,y,1/2-z
-x,-y,-z
x,y,-z
-x,y,1/2+z
x,-y,1/2+z
1/2+x,1/2+y,1/2+z
1/2-x,1/2-y,1/2+z
1/2+x,1/2-y,-z
1/2-x,1/2+y,-z
1/2-x,1/2-y,1/2-z
1/2+x,1/2+y,1/2-z
1/2-x,1/2+y,z
1/2+x,1/2-y,z
loop_
_atom_site_type_symbol
_atom_site_label
_atom_site_fract_x
_atom_site_fract_y
_atom_site_fract_z
Si Si1 0.748969 0.500000 0.750000
Si Si2 0.196084 0.855398 0.372649
Si Si3 0.147253 0.613836 0.645180
Si Si4 0.642593 0.098239 0.421812
Si Si5 0.991716 0.691570 0.331726
Si Si6 0.461535 0.392596 0.420707
O O1 0.699166 0.423730 0.800312
O O2 0.804163 0.419739 0.711240
O O3 0.171671 0.733419 0.367854
O O4 0.275702 0.848560 0.412025
O O5 0.129168 0.909547 0.417063
O O6 0.159397 0.528657 0.582962
O O7 0.057254 0.605573 0.655974
O O8 0.611489 0.124481 0.500000
O O9 0.587063 0.140903 0.360156
O O10 0.006107 0.800078 0.372558
O O11 0.000000 0.720020 0.250000
O O12 0.500000 0.500000 0.393797
O O13 0.485363 0.366454 0.500000
#
# Coordination Sequence:
#
# PCOD8294368 Si02
#       6
#     8  16  16  16  16  16
#     4  10  20  38  62  92 124 158 200 250 305 364
#     4  10  22  39  62  88 121 159 202 251 305 361
#     4  10  22  38  59  85 122 159 194 245 305 364
#     4  11  24  40  62  90 120 160 208 255 306 369
#     4  11  23  39  62  90 121 158 201 252 310 371
#     4  10  23  42  62  87 123 164 205 254 310 370
#
# _framework density 20.781914
#
# number of rings (size 3 to 8) (size 9 to 14) (size 15 to 20)
#    0.000    1.636    0.000    4.364    0.000   13.455 
#    0.000    0.000    0.000    0.000    0.000    0.000 
#    0.000    0.000    0.000    0.000    0.000    0.000 
#
# Total GULP energy -545158.091439 kJ/mol
# GULP energy per Si atom -12389.956624 kJ/mol
# Density = 2.073461 g / cm^3
# Si number density = 20.781914 Si / 1000 Ang^3
#
#
#
# Elastic Constant Matrix: (Units=GPa)
#
#
# Indices 1 2 3 4 5 6 
#
# 1 126.2611 60.6612 24.9902 0.0000 0.0000 0.0000
# 2 60.6612 101.1009 47.5166 0.0000 0.0000 0.0000
# 3 24.9902 47.5166 119.0352 0.0000 0.0000 0.0000
# 4 0.0000 0.0000 0.0000 -2.6041 0.0000 0.0000
# 5 0.0000 0.0000 0.0000 0.0000 -212.4082 0.0000
# 6 0.0000 0.0000 0.0000 0.0000 0.0000 35.5509
#
#
#
# Elastic Compliance Matrix: (Units=1/GPa)
#
#
# Indices 1 2 3 4 5 6 
#
# 1 0.011144 -0.006877 0.000406 0.000000 0.000000 0.000000
# 2 -0.006877 0.016419 -0.005110 0.000000 0.000000 0.000000
# 3 0.000406 -0.005110 0.010356 0.000000 0.000000 0.000000
# 4 0.000000 0.000000 0.000000 -0.384003 0.000000 0.000000
# 5 0.000000 0.000000 0.000000 0.000000 -0.004708 0.000000
# 6 0.000000 0.000000 0.000000 0.000000 0.000000 0.028129
#
#
# Mechanical properties :
#
#
# Convention : Reuss Voigt Hill
#
# Bulk Modulus (GPa) = 67.77333 68.08148 67.92740
# Shear Modulus (GPa) = -16.97326 -21.67700 -19.32513
#
# Velocity S-wave (km/s) = -2.86095 -3.23316 -3.05274
# Velocity P-wave (km/s) = 4.66573 4.34664 4.50901
#
# Compressibility (1/GPa) = 0.01475507
#
# Stress axis : x y z
#
# Youngs Moduli (GPa) = 89.73585 60.90411 96.56493
#
# Poissons Ratio (x) = 0.41884 -0.03917
# Poissons Ratio (y) = 0.61711 0.49349
# Poissons Ratio (z) = -0.03640 0.31125
#
# Static dielectric constant tensor:
#      x y z
#    x 4.350020 0.000000 0.000000 
#    y 0.000000 3.677580 0.000000 
#    z 0.000000 0.000000 3.707330 
# 
# 
# High freq. dielectric constant tensor:
#      x y z
#    x 1.825850 0.000000 0.000000 
#    y 0.000000 1.823090 0.000000 
#    z 0.000000 0.000000 1.810190 
# 
# From -- ./inp_files/38889.got.cif
#   From: 2010.03.12/outbox.cif.g09.slc.cpg/sg72_20_cif.got.tgz:38889.got - 2010.04.16 14:54:00.
