data_PCOD8294480
_publ_section_title
;
Structure prediction by ZEFSAII (Michael W. Deem and Ramdas Pophale) SiO2 
 PCOD8294480
Probable space group: I B A M
;
_chemical_formula_sum "Si O2"
_cell_formula_units_Z 68
_cell_length_a 32.653338
_cell_length_b 5.187694
_cell_length_c 20.926608
_cell_angle_alpha 90.000000
_cell_angle_beta 90.000000
_cell_angle_gamma 90.000000
_cell_volume 3544.873762
_symmetry_space_group_name_H-M "I B A M"
_symmetry_group_IT_number 72
_symmetry_cell_setting 'orthorhombic'
loop_
_space_group_symop_operation_xyz
x,y,z
-x,-y,z
x,-y,1/2-z
-x,y,1/2-z
-x,-y,-z
x,y,-z
-x,y,1/2+z
x,-y,1/2+z
1/2+x,1/2+y,1/2+z
1/2-x,1/2-y,1/2+z
1/2+x,1/2-y,-z
1/2-x,1/2+y,-z
1/2-x,1/2-y,1/2-z
1/2+x,1/2+y,1/2-z
1/2-x,1/2+y,z
1/2+x,1/2-y,z
loop_
_atom_site_type_symbol
_atom_site_label
_atom_site_fract_x
_atom_site_fract_y
_atom_site_fract_z
Si Si1 0.000000 0.500000 0.750000
Si Si2 0.900574 0.043479 0.429303
Si Si3 0.430038 0.681263 0.691511
Si Si4 0.275071 0.000054 0.825045
Si Si5 0.363973 0.060085 0.119628
O O1 0.972910 0.320634 0.795654
O O2 0.920758 0.035164 0.500000
O O3 0.879571 0.318240 0.420513
O O4 0.934548 0.990268 0.373691
O O5 0.866093 0.818000 0.423979
O O6 0.416916 0.500000 0.750000
O O7 0.393878 0.892696 0.681272
O O8 0.251819 0.742917 0.846565
O O9 0.283298 0.000000 0.750000
O O10 0.318130 0.007598 0.859854
#
# Coordination Sequence:
#
# PCOD8294480 Si02
#       5
#     4  16  16  16  16
#     4  12  22  44  62 106 132 158 208 272 336 386
#     4  10  22  40  64  94 126 174 221 259 313 383
#     4  10  24  38  67  97 129 165 206 268 323 390
#     4  10  21  34  55  91 132 166 209 270 322 375
#     4  10  22  37  66  90 126 170 217 259 322 375
#
# _framework density 19.182628999999999
#
# number of rings (size 3 to 8) (size 9 to 14) (size 15 to 20)
#    1.412    0.471    0.000    3.882    4.941    0.941 
#    0.000    0.588    0.000   18.353    0.000    0.000 
#    0.000    0.000    0.000    0.000    0.000    0.000 
#
# Total GULP energy -421322.555059 kJ/mol
# GULP energy per Si atom -12391.839855 kJ/mol
# Density = 1.913897 g / cm^3
# Si number density = 19.182629 Si / 1000 Ang^3
#
#
#
# Elastic Constant Matrix: (Units=GPa)
#
#
# Indices 1 2 3 4 5 6 
#
# 1 78.2143 29.0832 55.6532 0.0000 0.0000 0.0000
# 2 29.0832 142.0697 49.6491 0.0000 0.0000 0.0000
# 3 55.6532 49.6491 138.6101 0.0000 0.0000 0.0000
# 4 0.0000 0.0000 0.0000 5.9644 0.0000 0.0000
# 5 0.0000 0.0000 0.0000 0.0000 3.0309 0.0000
# 6 0.0000 0.0000 0.0000 0.0000 0.0000 25.4753
#
#
#
# Elastic Compliance Matrix: (Units=1/GPa)
#
#
# Indices 1 2 3 4 5 6 
#
# 1 0.018117 -0.001334 -0.006797 0.000000 0.000000 0.000000
# 2 -0.001334 0.008144 -0.002382 0.000000 0.000000 0.000000
# 3 -0.006797 -0.002382 0.010796 0.000000 0.000000 0.000000
# 4 0.000000 0.000000 0.000000 0.167662 0.000000 0.000000
# 5 0.000000 0.000000 0.000000 0.000000 0.329930 0.000000
# 6 0.000000 0.000000 0.000000 0.000000 0.000000 0.039254
#
#
# Mechanical properties :
#
#
# Convention : Reuss Voigt Hill
#
# Bulk Modulus (GPa) = 62.36687 69.74058 66.05372
# Shear Modulus (GPa) = 8.32955 21.86136 15.09546
#
# Velocity S-wave (km/s) = 2.08606 3.37952 2.80828
# Velocity P-wave (km/s) = 6.19556 7.18772 6.71000
#
# Compressibility (1/GPa) = 0.01603415
#
# Stress axis : x y z
#
# Youngs Moduli (GPa) = 55.19563 122.78769 92.62265
#
# Poissons Ratio (x) = 0.16375 0.62952
# Poissons Ratio (y) = 0.07361 0.22060
# Poissons Ratio (z) = 0.37514 0.29245
#
# Static dielectric constant tensor:
#      x y z
#    x 3.185840 0.000000 0.000000 
#    y 0.000000 4.587100 0.000000 
#    z 0.000000 0.000000 3.401480 
# 
# 
# High freq. dielectric constant tensor:
#      x y z
#    x 1.719900 0.000000 0.000000 
#    y 0.000000 1.771140 0.000000 
#    z 0.000000 0.000000 1.730830 
# 
# From -- ./inp_files/40595.got.cif
#   From: 2010.03.12/outbox.cif.g09.slc.cpg/sg72_21_cif.got.tgz:40595.got - 2010.04.16 14:54:00.
