data_PCOD8294257
_publ_section_title
;
Structure prediction by ZEFSAII (Michael W. Deem and Ramdas Pophale) SiO2 
 PCOD8294257
Probable space group: I B A M
;
_chemical_formula_sum "Si O2"
_cell_formula_units_Z 104
_cell_length_a 25.901681
_cell_length_b 8.246819
_cell_length_c 24.994920
_cell_angle_alpha 90.000000
_cell_angle_beta 90.000000
_cell_angle_gamma 90.000000
_cell_volume 5339.076754
_symmetry_space_group_name_H-M "I B A M"
_symmetry_group_IT_number 72
_symmetry_cell_setting 'orthorhombic'
loop_
_space_group_symop_operation_xyz
x,y,z
-x,-y,z
x,-y,1/2-z
-x,y,1/2-z
-x,-y,-z
x,y,-z
-x,y,1/2+z
x,-y,1/2+z
1/2+x,1/2+y,1/2+z
1/2-x,1/2-y,1/2+z
1/2+x,1/2-y,-z
1/2-x,1/2+y,-z
1/2-x,1/2-y,1/2-z
1/2+x,1/2+y,1/2-z
1/2-x,1/2+y,z
1/2+x,1/2-y,z
loop_
_atom_site_type_symbol
_atom_site_label
_atom_site_fract_x
_atom_site_fract_y
_atom_site_fract_z
Si Si1 0.310983 0.436634 0.937916
Si Si2 0.513025 0.749569 0.310036
Si Si3 0.582490 0.738528 0.061650
Si Si4 0.000000 0.000000 0.609732
Si Si5 0.307486 0.021202 0.188923
Si Si6 0.768967 0.231776 0.622702
Si Si7 0.920581 0.442500 0.842424
O O1 0.364572 0.351849 0.923214
O O2 0.263291 0.319491 0.923895
O O3 0.306926 0.601019 0.903643
O O4 0.307899 0.481293 0.000000
O O5 0.500000 0.695099 0.250000
O O6 0.534374 0.608601 0.348967
O O7 0.455229 0.789625 0.328012
O O8 0.552710 0.896895 0.318898
O O9 0.535511 0.614134 0.072941
O O10 0.582344 0.913379 0.092992
O O11 0.580381 0.788547 0.000000
O O12 0.304734 0.855812 0.155126
O O13 0.290637 0.000000 0.250000
O O14 0.270090 0.155398 0.165036
O O15 0.366093 0.081452 0.186059
#
# Coordination Sequence:
#
# PCOD8294257 Si02
#       7
#    16  16  16   8  16  16  16
#     4  10  20  38  59  83 114 150 190 241 287 334
#     4  10  20  37  60  87 113 146 183 234 280 338
#     4  10  21  39  58  82 116 152 187 235 288 335
#     4  10  22  36  60  84 120 140 188 228 288 346
#     4  11  21  37  57  81 115 153 186 236 287 340
#     4  10  22  36  57  83 115 146 200 231 289 342
#     4  10  20  37  58  83 111 148 190 229 280 338
#
# _framework density 19.479023999999999
#
# number of rings (size 3 to 8) (size 9 to 14) (size 15 to 20)
#    0.000    1.846    1.538    3.231    2.154    0.000 
#    0.000    7.692    0.000    0.000    0.000    0.000 
#    0.000    0.000    0.000    0.000    0.000    0.000 
#
# Total GULP energy -644395.621882 kJ/mol
# GULP energy per Si atom -12392.223498 kJ/mol
# Density = 1.943469 g / cm^3
# Si number density = 19.479024 Si / 1000 Ang^3
#
#
#
# Elastic Constant Matrix: (Units=GPa)
#
#
# Indices 1 2 3 4 5 6 
#
# 1 64.6184 -4.0197 16.9245 0.0000 0.0000 0.0000
# 2 -4.0197 40.3315 6.5826 0.0000 0.0000 0.0000
# 3 16.9245 6.5826 88.0167 0.0000 0.0000 0.0000
# 4 0.0000 0.0000 0.0000 9.0242 0.0000 0.0000
# 5 0.0000 0.0000 0.0000 0.0000 21.1832 0.0000
# 6 0.0000 0.0000 0.0000 0.0000 0.0000 9.3246
#
#
#
# Elastic Compliance Matrix: (Units=1/GPa)
#
#
# Indices 1 2 3 4 5 6 
#
# 1 0.016485 0.002187 -0.003333 0.000000 0.000000 0.000000
# 2 0.002187 0.025391 -0.002319 0.000000 0.000000 0.000000
# 3 -0.003333 -0.002319 0.012176 0.000000 0.000000 0.000000
# 4 0.000000 0.000000 0.000000 0.110813 0.000000 0.000000
# 5 0.000000 0.000000 0.000000 0.000000 0.047207 0.000000
# 6 0.000000 0.000000 0.000000 0.000000 0.000000 0.107243
#
#
# Mechanical properties :
#
#
# Convention : Reuss Voigt Hill
#
# Bulk Modulus (GPa) = 21.22244 25.77126 23.49685
# Shear Modulus (GPa) = 14.62188 19.47170 17.04679
#
# Velocity S-wave (km/s) = 2.74277 3.16511 2.96148
# Velocity P-wave (km/s) = 4.57701 5.15909 4.87674
#
# Compressibility (1/GPa) = 0.04711993
#
# Stress axis : x y z
#
# Youngs Moduli (GPa) = 60.66283 39.38395 82.12945
#
# Poissons Ratio (x) = -0.08613 0.27376
# Poissons Ratio (y) = -0.13267 0.19050
# Poissons Ratio (z) = 0.20221 0.09135
#
# Static dielectric constant tensor:
#      x y z
#    x 3.506080 0.000000 0.000000 
#    y 0.000000 3.599160 0.000000 
#    z 0.000000 0.000000 3.750410 
# 
# 
# High freq. dielectric constant tensor:
#      x y z
#    x 1.755390 0.000000 0.000000 
#    y 0.000000 1.753850 0.000000 
#    z 0.000000 0.000000 1.772350 
# 
# From -- ./inp_files/40771.got.cif
#   From: 2010.03.12/outbox.cif.g09.slc.cpg/sg72_21_cif.got.tgz:40771.got - 2010.04.16 14:54:00.
