data_PCOD8294709
_publ_section_title
;
Structure prediction by ZEFSAII (Michael W. Deem and Ramdas Pophale) SiO2 
 PCOD8294709
Probable space group: I B A M
;
_chemical_formula_sum "Si O2"
_cell_formula_units_Z 88
_cell_length_a 8.227698
_cell_length_b 29.378445
_cell_length_c 16.214474
_cell_angle_alpha 90.000000
_cell_angle_beta 90.000000
_cell_angle_gamma 90.000000
_cell_volume 3919.313577
_symmetry_space_group_name_H-M "I B A M"
_symmetry_group_IT_number 72
_symmetry_cell_setting 'orthorhombic'
loop_
_space_group_symop_operation_xyz
x,y,z
-x,-y,z
x,-y,1/2-z
-x,y,1/2-z
-x,-y,-z
x,y,-z
-x,y,1/2+z
x,-y,1/2+z
1/2+x,1/2+y,1/2+z
1/2-x,1/2-y,1/2+z
1/2+x,1/2-y,-z
1/2-x,1/2+y,-z
1/2-x,1/2-y,1/2-z
1/2+x,1/2+y,1/2-z
1/2-x,1/2+y,z
1/2+x,1/2-y,z
loop_
_atom_site_type_symbol
_atom_site_label
_atom_site_fract_x
_atom_site_fract_y
_atom_site_fract_z
Si Si1 0.154170 0.630049 0.307830
Si Si2 0.000000 0.105233 0.750000
Si Si3 0.275022 0.289899 0.097919
Si Si4 0.835632 0.095410 0.593058
Si Si5 0.990627 0.551096 0.095129
Si Si6 0.869411 0.801780 0.094441
O O1 0.328210 0.632140 0.260298
O O2 0.147067 0.672587 0.370281
O O3 0.000000 0.636106 0.250000
O O4 0.138400 0.581603 0.355018
O O5 0.967724 0.078640 0.662569
O O6 0.235638 0.239322 0.133496
O O7 0.451253 0.303259 0.134164
O O8 0.269079 0.292162 0.000000
O O9 0.904991 0.086697 0.500000
O O10 0.670347 0.069655 0.608138
O O11 0.790690 0.148756 0.604703
O O12 0.000000 0.500000 0.130637
O O13 0.936275 0.551209 0.000000
O O14 0.891243 0.788046 0.000000
#
# Coordination Sequence:
#
# PCOD8294709 Si02
#       6
#    16   8  16  16  16  16
#     4  12  25  43  66  96 138 181 230 285 352 418
#     4  12  24  44  67 104 138 178 234 280 347 426
#     4  10  21  38  63  93 128 177 233 280 343 415
#     4  10  21  42  69  98 141 183 227 294 348 409
#     4  10  23  45  74 103 132 176 234 293 357 423
#     4   9  19  35  60  93 128 173 226 279 340 409
#
# _framework density 22.452912999999999
#
# number of rings (size 3 to 8) (size 9 to 14) (size 15 to 20)
#    0.000    1.636    3.636    0.545    2.545    1.091 
#    1.636    3.636    0.000    3.273    0.000    0.000 
#    0.000    0.000    0.000    0.000    0.000    0.000 
#
# Total GULP energy -545114.469721 kJ/mol
# GULP energy per Si atom -12388.965221 kJ/mol
# Density = 2.240181 g / cm^3
# Si number density = 22.452913 Si / 1000 Ang^3
#
#
#
# Elastic Constant Matrix: (Units=GPa)
#
#
# Indices 1 2 3 4 5 6 
#
# 1 113.3382 54.3374 47.4746 0.0000 0.0000 0.0000
# 2 54.3374 157.3263 26.3758 0.0003 0.0000 0.0000
# 3 47.4746 26.3758 98.3005 0.0009 0.0001 0.0000
# 4 0.0000 0.0003 0.0009 5.4288 0.0000 0.0000
# 5 0.0000 0.0000 0.0001 0.0000 31.0761 0.0001
# 6 0.0000 0.0000 0.0000 0.0000 0.0001 33.4785
#
#
#
# Elastic Compliance Matrix: (Units=1/GPa)
#
#
# Indices 1 2 3 4 5 6 
#
# 1 0.012675 -0.003509 -0.005180 0.000001 0.000000 0.000000
# 2 -0.003509 0.007627 -0.000352 0.000000 0.000000 0.000000
# 3 -0.005180 -0.000352 0.012769 -0.000002 0.000000 0.000000
# 4 0.000001 0.000000 -0.000002 0.184202 0.000000 0.000000
# 5 0.000000 0.000000 0.000000 0.000000 0.032179 0.000000
# 6 0.000000 0.000000 0.000000 0.000000 0.000000 0.029870
#
#
# Mechanical properties :
#
#
# Convention : Reuss Voigt Hill
#
# Bulk Modulus (GPa) = 66.71339 69.48230 68.09785
# Shear Modulus (GPa) = 16.53431 30.04850 23.29141
#
# Velocity S-wave (km/s) = 2.71661 3.66223 3.22428
# Velocity P-wave (km/s) = 6.29421 6.99254 6.65254
#
# Compressibility (1/GPa) = 0.01498949
#
# Stress axis : x y z
#
# Youngs Moduli (GPa) = 78.89271 131.10877 78.31495
#
# Poissons Ratio (x) = 0.46012 0.40567
# Poissons Ratio (y) = 0.27687 0.02754
# Poissons Ratio (z) = 0.40867 0.04610
#
# Static dielectric constant tensor:
#      x y z
#    x 4.067990 0.000000 0.000000 
#    y 0.000000 3.957300 0.000000 
#    z 0.000000 0.000000 4.373830 
# 
# 
# High freq. dielectric constant tensor:
#      x y z
#    x 1.879360 0.000000 0.000000 
#    y 0.000000 1.864550 0.000000 
#    z 0.000000 0.000000 1.893230 
# 
# From -- ./inp_files/28362.got.cif
#   From: 2010.03.12/outbox.cif.g09.slc.cpg/sg72_15_cif.got.tgz:28362.got - 2010.04.16 14:54:00.
