data_PCOD8294343
_publ_section_title
;
Structure prediction by ZEFSAII (Michael W. Deem and Ramdas Pophale) SiO2 
 PCOD8294343
Probable space group: I B A M
;
_chemical_formula_sum "Si O2"
_cell_formula_units_Z 112
_cell_length_a 30.907670
_cell_length_b 11.145991
_cell_length_c 15.858558
_cell_angle_alpha 90.000000
_cell_angle_beta 90.000000
_cell_angle_gamma 90.000000
_cell_volume 5463.219497
_symmetry_space_group_name_H-M "I B A M"
_symmetry_group_IT_number 72
_symmetry_cell_setting 'orthorhombic'
loop_
_space_group_symop_operation_xyz
x,y,z
-x,-y,z
x,-y,1/2-z
-x,y,1/2-z
-x,-y,-z
x,y,-z
-x,y,1/2+z
x,-y,1/2+z
1/2+x,1/2+y,1/2+z
1/2-x,1/2-y,1/2+z
1/2+x,1/2-y,-z
1/2-x,1/2+y,-z
1/2-x,1/2-y,1/2-z
1/2+x,1/2+y,1/2-z
1/2-x,1/2+y,z
1/2+x,1/2-y,z
loop_
_atom_site_type_symbol
_atom_site_label
_atom_site_fract_x
_atom_site_fract_y
_atom_site_fract_z
Si Si1 0.067506 0.541899 0.343723
Si Si2 0.878567 0.033528 0.653619
Si Si3 0.781273 0.001872 0.850798
Si Si4 0.513363 0.834515 0.096729
Si Si5 0.463316 0.581870 0.403421
Si Si6 0.139709 0.288098 0.098971
Si Si7 0.234240 0.261762 0.844761
O O1 0.078321 0.500000 0.250000
O O2 0.051999 0.430454 0.399824
O O3 0.110893 0.594969 0.384720
O O4 0.027774 0.635694 0.344399
O O5 0.831269 0.993973 0.620906
O O6 0.885772 0.174282 0.636750
O O7 0.885336 0.000000 0.750000
O O8 0.914790 0.965099 0.601683
O O9 0.760482 0.874113 0.885239
O O10 0.777625 0.000000 0.750000
O O11 0.759809 0.125023 0.887828
O O12 0.533408 0.713877 0.135717
O O13 0.497215 0.825222 0.000000
O O14 0.500000 0.500000 0.358263
O O15 0.476342 0.594143 0.500000
O O16 0.184261 0.299972 0.150621
O O17 0.149394 0.272514 0.000000
O O18 0.250000 0.250000 0.750000
#
# Coordination Sequence:
#
# PCOD8294343 Si02
#       7
#    16  16  16  16  16  16  16
#     4  11  23  38  60  86 122 164 214 263 313 372
#     4  10  21  37  60  90 124 157 203 258 313 378
#     4   8  16  33  56  83 116 155 196 251 310 369
#     4  10  20  38  60  82 122 168 210 262 323 384
#     4  10  21  37  57  83 117 159 205 255 316 378
#     4  11  23  41  65  94 127 169 213 256 322 401
#     4   9  18  36  61  87 121 163 212 256 316 385
#
# _framework density 20.500731999999999
#
# number of rings (size 3 to 8) (size 9 to 14) (size 15 to 20)
#    0.000    2.143    0.000    4.714    2.000    3.143 
#    5.143    3.571    0.000    0.000    0.000    0.000 
#    0.000    0.000    0.000    0.000    0.000    0.000 
#
# Total GULP energy -693921.596693 kJ/mol
# GULP energy per Si atom -12391.457084 kJ/mol
# Density = 2.045407 g / cm^3
# Si number density = 20.500732 Si / 1000 Ang^3
#
#
#
# Elastic Constant Matrix: (Units=GPa)
#
#
# Indices 1 2 3 4 5 6 
#
# 1 122.0688 89.9304 20.2989 0.0000 0.0000 0.0000
# 2 89.9304 168.2529 12.5077 0.0000 0.0000 0.0000
# 3 20.2989 12.5077 62.6795 0.0000 0.0000 0.0000
# 4 0.0000 0.0000 0.0000 20.3716 0.0000 0.0000
# 5 0.0000 0.0000 0.0000 0.0000 18.5267 0.0000
# 6 0.0000 0.0000 0.0000 0.0000 0.0000 41.4020
#
#
#
# Elastic Compliance Matrix: (Units=1/GPa)
#
#
# Indices 1 2 3 4 5 6 
#
# 1 0.014084 -0.007297 -0.003105 0.000000 0.000000 0.000000
# 2 -0.007297 0.009814 0.000405 0.000000 0.000000 0.000000
# 3 -0.003105 0.000405 0.016879 0.000000 0.000000 0.000000
# 4 0.000000 0.000000 0.000000 0.049088 0.000000 0.000000
# 5 0.000000 0.000000 0.000000 0.000000 0.053976 0.000000
# 6 0.000000 0.000000 0.000000 0.000000 0.000000 0.024153
#
#
# Mechanical properties :
#
#
# Convention : Reuss Voigt Hill
#
# Bulk Modulus (GPa) = 48.11808 66.49725 57.30766
# Shear Modulus (GPa) = 25.65193 31.41099 28.53146
#
# Velocity S-wave (km/s) = 3.54117 3.91857 3.73464
# Velocity P-wave (km/s) = 6.34367 7.27877 6.82725
#
# Compressibility (1/GPa) = 0.02078221
#
# Stress axis : x y z
#
# Youngs Moduli (GPa) = 71.00015 101.89855 59.24525
#
# Poissons Ratio (x) = 0.74358 0.18396
# Poissons Ratio (y) = 0.51811 -0.02399
# Poissons Ratio (z) = 0.22046 -0.04126
#
# Static dielectric constant tensor:
#      x y z
#    x 3.637510 0.000000 0.000000 
#    y 0.000000 4.161760 0.000000 
#    z 0.000000 0.000000 3.294970 
# 
# 
# High freq. dielectric constant tensor:
#      x y z
#    x 1.794610 0.000000 0.000000 
#    y 0.000000 1.819660 0.000000 
#    z 0.000000 0.000000 1.774300 
# 
# From -- ./inp_files/26332.got.cif
#   From: 2010.03.12/outbox.cif.g09.slc.cpg/sg72_14_cif.got.tgz:26332.got - 2010.04.16 14:54:00.
