data_PCOD8294621
_publ_section_title
;
Structure prediction by ZEFSAII (Michael W. Deem and Ramdas Pophale) SiO2 
 PCOD8294621
Probable space group: I B A M
;
_chemical_formula_sum "Si O2"
_cell_formula_units_Z 112
_cell_length_a 16.375337
_cell_length_b 12.668908
_cell_length_c 26.925351
_cell_angle_alpha 90.000000
_cell_angle_beta 90.000000
_cell_angle_gamma 90.000000
_cell_volume 5585.869719
_symmetry_space_group_name_H-M "I B A M"
_symmetry_group_IT_number 72
_symmetry_cell_setting 'orthorhombic'
loop_
_space_group_symop_operation_xyz
x,y,z
-x,-y,z
x,-y,1/2-z
-x,y,1/2-z
-x,-y,-z
x,y,-z
-x,y,1/2+z
x,-y,1/2+z
1/2+x,1/2+y,1/2+z
1/2-x,1/2-y,1/2+z
1/2+x,1/2-y,-z
1/2-x,1/2+y,-z
1/2-x,1/2-y,1/2-z
1/2+x,1/2+y,1/2-z
1/2-x,1/2+y,z
1/2+x,1/2-y,z
loop_
_atom_site_type_symbol
_atom_site_label
_atom_site_fract_x
_atom_site_fract_y
_atom_site_fract_z
Si Si1 0.907184 0.019416 0.191941
Si Si2 0.700548 0.631361 0.372277
Si Si3 0.143681 0.243632 0.349236
Si Si4 0.402943 0.815813 0.896644
Si Si5 0.496146 0.124612 0.194265
Si Si6 0.187666 0.503178 0.056627
Si Si7 0.427531 0.195448 0.945247
O O1 0.843333 0.937946 0.169198
O O2 0.906183 0.000000 0.250000
O O3 0.874390 0.137180 0.180730
O O4 0.000000 0.000000 0.171751
O O5 0.763801 0.713448 0.345861
O O6 0.633259 0.699341 0.400858
O O7 0.738505 0.556673 0.413973
O O8 0.089083 0.339734 0.329039
O O9 0.117671 0.225660 0.406905
O O10 0.428992 0.834210 0.839219
O O11 0.477794 0.821288 0.934226
O O12 0.334002 0.897240 0.913961
O O13 0.500000 0.171609 0.250000
O O14 0.500000 0.000000 0.195249
O O15 0.109723 0.578814 0.057731
O O16 0.214609 0.478499 0.000000
O O17 0.416070 0.244551 0.000000
#
# Coordination Sequence:
#
# PCOD8294621 Si02
#       7
#    16  16  16  16  16  16  16
#     4  11  25  44  66  87 121 172 217 261 318 392
#     4  11  24  41  58  90 123 162 210 265 310 379
#     4  10  22  40  63  89 127 160 209 261 321 380
#     4  11  20  35  62  84 123 161 206 256 313 385
#     4  10  21  37  60  91 123 160 202 265 325 382
#     4  10  21  38  61  90 125 158 199 259 325 382
#     4   9  18  35  62  92 117 152 201 252 311 382
#
# _framework density 20.050592999999999
#
# number of rings (size 3 to 8) (size 9 to 14) (size 15 to 20)
#    0.000    1.714    0.000    6.000    4.000    2.857 
#    5.143    3.571    0.000    1.714    0.000    0.000 
#    0.000    0.000    0.000    0.000    0.000    0.000 
#
# Total GULP energy -694418.004891 kJ/mol
# GULP energy per Si atom -12400.321516 kJ/mol
# Density = 2.000496 g / cm^3
# Si number density = 20.050593 Si / 1000 Ang^3
#
#
#
# Elastic Constant Matrix: (Units=GPa)
#
#
# Indices 1 2 3 4 5 6 
#
# 1 100.1926 44.7575 54.1002 0.0000 0.0000 0.0000
# 2 44.7575 98.9341 44.0516 0.0000 0.0000 0.0000
# 3 54.1002 44.0516 142.1371 0.0000 0.0000 0.0000
# 4 0.0000 0.0000 0.0000 21.3873 0.0000 0.0000
# 5 0.0000 0.0000 0.0000 0.0000 6.1047 0.0000
# 6 0.0000 0.0000 0.0000 0.0000 0.0000 27.5687
#
#
#
# Elastic Compliance Matrix: (Units=1/GPa)
#
#
# Indices 1 2 3 4 5 6 
#
# 1 0.014202 -0.004661 -0.003961 0.000000 0.000000 0.000000
# 2 -0.004661 0.013256 -0.002334 0.000000 0.000000 0.000000
# 3 -0.003961 -0.002334 0.009266 0.000000 0.000000 0.000000
# 4 0.000000 0.000000 0.000000 0.046757 0.000000 0.000000
# 5 0.000000 0.000000 0.000000 0.000000 0.163809 0.000000
# 6 0.000000 0.000000 0.000000 0.000000 0.000000 0.036273
#
#
# Mechanical properties :
#
#
# Convention : Reuss Voigt Hill
#
# Bulk Modulus (GPa) = 67.51478 69.67582 68.59530
# Shear Modulus (GPa) = 16.10762 24.23578 20.17170
#
# Velocity S-wave (km/s) = 2.83742 3.48045 3.17525
# Velocity P-wave (km/s) = 6.66932 7.13981 6.90857
#
# Compressibility (1/GPa) = 0.01481157
#
# Stress axis : x y z
#
# Youngs Moduli (GPa) = 70.41413 75.43901 107.91640
#
# Poissons Ratio (x) = 0.35164 0.42744
# Poissons Ratio (y) = 0.32821 0.25189
# Poissons Ratio (z) = 0.27890 0.17608
#
# Static dielectric constant tensor:
#      x y z
#    x 3.696850 0.000000 0.000000 
#    y 0.000000 3.647870 0.000000 
#    z 0.000000 0.000000 4.055650 
# 
# 
# High freq. dielectric constant tensor:
#      x y z
#    x 1.784760 0.000000 0.000000 
#    y 0.000000 1.777730 0.000000 
#    z 0.000000 0.000000 1.788410 
# 
# From -- ./inp_files/51767.got.cif
#   From: 2010.03.12/outbox.cif.g09.slc.cpg/sg72_26_cif.got.tgz:51767.got - 2010.04.16 14:54:00.
