data_PCOD8294209
_publ_section_title
;
Structure prediction by ZEFSAII (Michael W. Deem and Ramdas Pophale) SiO2 
 PCOD8294209
Probable space group: I B A M
;
_chemical_formula_sum "Si O2"
_cell_formula_units_Z 92
_cell_length_a 9.065770
_cell_length_b 18.766501
_cell_length_c 27.527771
_cell_angle_alpha 90.000000
_cell_angle_beta 90.000000
_cell_angle_gamma 90.000000
_cell_volume 4683.376256
_symmetry_space_group_name_H-M "I B A M"
_symmetry_group_IT_number 72
_symmetry_cell_setting 'orthorhombic'
loop_
_space_group_symop_operation_xyz
x,y,z
-x,-y,z
x,-y,1/2-z
-x,y,1/2-z
-x,-y,-z
x,y,-z
-x,y,1/2+z
x,-y,1/2+z
1/2+x,1/2+y,1/2+z
1/2-x,1/2-y,1/2+z
1/2+x,1/2-y,-z
1/2-x,1/2+y,-z
1/2-x,1/2-y,1/2-z
1/2+x,1/2+y,1/2-z
1/2-x,1/2+y,z
1/2+x,1/2-y,z
loop_
_atom_site_type_symbol
_atom_site_label
_atom_site_fract_x
_atom_site_fract_y
_atom_site_fract_z
Si Si1 0.454904 0.849498 0.500000
Si Si2 0.752260 0.229164 0.000000
Si Si3 0.788152 0.817472 0.603804
Si Si4 0.000000 0.726513 0.250000
Si Si5 0.905120 0.802796 0.843839
Si Si6 0.150210 0.615548 0.187632
Si Si7 0.000000 0.500000 0.250000
Si Si8 0.466533 0.082442 0.400199
O O1 0.576809 0.785886 0.500000
O O2 0.292725 0.813471 0.500000
O O3 0.470652 0.898689 0.452985
O O4 0.827479 0.195682 0.047668
O O5 0.684935 0.753013 0.622865
O O6 0.704422 0.894151 0.605598
O O7 0.938819 0.823314 0.633228
O O8 0.077590 0.773305 0.290182
O O9 0.126724 0.678797 0.225759
O O10 0.814545 0.876707 0.834844
O O11 0.112776 0.542641 0.215463
O O12 0.044627 0.628162 0.141587
O O13 0.500000 0.000000 0.390363
#
# Coordination Sequence:
#
# PCOD8294209 Si02
#       8
#     8   8  16   8  16  16   4  16
#     4  10  21  36  64  94 117 158 201 257 314 375
#     4  10  20  36  60  92 128 147 194 264 319 364
#     4  11  22  38  62  97 125 160 205 263 321 377
#     4  11  22  37  62  91 126 153 210 262 326 359
#     4  12  22  37  63  94 125 158 209 268 325 362
#     4  11  22  40  64  87 124 168 206 261 308 379
#     4  10  24  40  64  84 124 178 218 238 324 376
#     4  11  22  41  61  85 125 168 211 247 308 383
#
# _framework density 19.643948000000002
#
# number of rings (size 3 to 8) (size 9 to 14) (size 15 to 20)
#    0.000    1.043    4.348    3.913    0.000    0.000 
#    0.000    0.870    0.000    0.000    0.000    8.522 
#    0.000    0.000    0.000    0.000    0.000    0.000 
#
# Total GULP energy -570115.827607 kJ/mol
# GULP energy per Si atom -12393.822339 kJ/mol
# Density = 1.959924 g / cm^3
# Si number density = 19.643948 Si / 1000 Ang^3
#
#
#
# Elastic Constant Matrix: (Units=GPa)
#
#
# Indices 1 2 3 4 5 6 
#
# 1 111.9212 61.0483 55.1671 0.0000 0.0000 0.0000
# 2 61.0483 93.6909 39.5406 0.0000 0.0000 0.0000
# 3 55.1671 39.5406 159.1824 0.0000 0.0000 0.0000
# 4 0.0000 0.0000 0.0000 8.3453 0.0000 0.0000
# 5 0.0000 0.0000 0.0000 0.0000 16.1501 0.0000
# 6 0.0000 0.0000 0.0000 0.0000 0.0000 26.6345
#
#
#
# Elastic Compliance Matrix: (Units=1/GPa)
#
#
# Indices 1 2 3 4 5 6 
#
# 1 0.015134 -0.008543 -0.003123 0.000000 0.000000 0.000000
# 2 -0.008543 0.016746 -0.001199 0.000000 0.000000 0.000000
# 3 -0.003123 -0.001199 0.007662 0.000000 0.000000 0.000000
# 4 0.000000 0.000000 0.000000 0.119829 0.000000 0.000000
# 5 0.000000 0.000000 0.000000 0.000000 0.061919 0.000000
# 6 0.000000 0.000000 0.000000 0.000000 0.000000 0.037545
#
#
# Mechanical properties :
#
#
# Convention : Reuss Voigt Hill
#
# Bulk Modulus (GPa) = 72.39901 75.14516 73.77208
# Shear Modulus (GPa) = 17.29089 24.16189 20.72639
#
# Velocity S-wave (km/s) = 2.97006 3.51093 3.25176
# Velocity P-wave (km/s) = 6.97835 7.40082 7.19269
#
# Compressibility (1/GPa) = 0.01381234
#
# Stress axis : x y z
#
# Youngs Moduli (GPa) = 66.07556 59.71519 130.51146
#
# Poissons Ratio (x) = 0.51017 0.40756
# Poissons Ratio (y) = 0.56451 0.15647
# Poissons Ratio (z) = 0.20634 0.07159
#
# Static dielectric constant tensor:
#      x y z
#    x 3.582210 0.000000 0.000000 
#    y 0.000000 3.373400 0.000000 
#    z 0.000000 0.000000 3.980110 
# 
# 
# High freq. dielectric constant tensor:
#      x y z
#    x 1.755360 0.000000 0.000000 
#    y 0.000000 1.737390 0.000000 
#    z 0.000000 0.000000 1.799720 
# 
# From -- ./inp_files/42341.got.cif
#   From: 2010.03.12/outbox.cif.g09.slc.cpg/sg72_22_cif.got.tgz:42341.got - 2010.04.16 14:54:00.
