data_PCOD8294490
_publ_section_title
;
Structure prediction by ZEFSAII (Michael W. Deem and Ramdas Pophale) SiO2 
 PCOD8294490
Probable space group: I B A M
;
_chemical_formula_sum "Si O2"
_cell_formula_units_Z 72
_cell_length_a 18.032884
_cell_length_b 9.674024
_cell_length_c 21.209015
_cell_angle_alpha 90.000000
_cell_angle_beta 90.000000
_cell_angle_gamma 90.000000
_cell_volume 3699.924387
_symmetry_space_group_name_H-M "I B A M"
_symmetry_group_IT_number 72
_symmetry_cell_setting 'orthorhombic'
loop_
_space_group_symop_operation_xyz
x,y,z
-x,-y,z
x,-y,1/2-z
-x,y,1/2-z
-x,-y,-z
x,y,-z
-x,y,1/2+z
x,-y,1/2+z
1/2+x,1/2+y,1/2+z
1/2-x,1/2-y,1/2+z
1/2+x,1/2-y,-z
1/2-x,1/2+y,-z
1/2-x,1/2-y,1/2-z
1/2+x,1/2+y,1/2-z
1/2-x,1/2+y,z
1/2+x,1/2-y,z
loop_
_atom_site_type_symbol
_atom_site_label
_atom_site_fract_x
_atom_site_fract_y
_atom_site_fract_z
Si Si1 0.432485 0.075271 0.317471
Si Si2 0.811057 0.000000 0.750000
Si Si3 0.935823 0.885573 0.166150
Si Si4 0.816230 0.881345 0.073013
Si Si5 0.774093 0.391084 0.363835
O O1 0.462096 0.233864 0.313276
O O2 0.359332 0.059348 0.359586
O O3 0.500000 0.000000 0.353649
O O4 0.421244 0.000000 0.250000
O O5 0.862646 0.095570 0.707988
O O6 0.761431 0.098828 0.794220
O O7 0.902852 0.894110 0.095014
O O8 0.000000 0.000000 0.177542
O O9 0.771967 0.765795 0.112656
O O10 0.771129 0.021733 0.084742
O O11 0.816974 0.843343 0.000000
#
# Coordination Sequence:
#
# PCOD8294490 Si02
#       5
#    16   8  16  16  16
#     4  10  22  34  54  84 118 150 183 231 294 352
#     4  10  21  34  59  88 118 148 194 232 305 362
#     4  10  23  37  57  84 118 158 192 239 291 359
#     4  10  22  39  61  86 114 158 203 244 287 342
#     4  10  21  37  60  84 120 150 192 246 299 351
#
# _framework density 19.459857
#
# number of rings (size 3 to 8) (size 9 to 14) (size 15 to 20)
#    0.000    2.000    1.111    1.000    9.333    4.889 
#    0.000    0.000    0.000   19.333    0.000    0.000 
#    0.000    0.000    0.000    0.000    0.000    0.000 
#
# Total GULP energy -446151.659340 kJ/mol
# GULP energy per Si atom -12393.101648 kJ/mol
# Density = 1.941557 g / cm^3
# Si number density = 19.459857 Si / 1000 Ang^3
#
#
#
# Elastic Constant Matrix: (Units=GPa)
#
#
# Indices 1 2 3 4 5 6 
#
# 1 105.2006 44.1631 26.6541 0.0000 0.0000 0.0000
# 2 44.1631 121.1552 21.9267 0.0000 0.0000 0.0000
# 3 26.6541 21.9267 98.0862 0.0000 0.0000 0.0000
# 4 0.0000 0.0000 0.0000 21.0392 0.0000 0.0000
# 5 0.0000 0.0000 0.0000 0.0000 18.4052 0.0000
# 6 0.0000 0.0000 0.0000 0.0000 0.0000 31.7280
#
#
#
# Elastic Compliance Matrix: (Units=1/GPa)
#
#
# Indices 1 2 3 4 5 6 
#
# 1 0.011709 -0.003848 -0.002322 0.000000 0.000000 0.000000
# 2 -0.003848 0.009866 -0.001160 0.000000 0.000000 0.000000
# 3 -0.002322 -0.001160 0.011085 0.000000 0.000000 0.000000
# 4 0.000000 0.000000 0.000000 0.047530 0.000000 0.000000
# 5 0.000000 0.000000 0.000000 0.000000 0.054333 0.000000
# 6 0.000000 0.000000 0.000000 0.000000 0.000000 0.031518
#
#
# Mechanical properties :
#
#
# Convention : Reuss Voigt Hill
#
# Bulk Modulus (GPa) = 55.55018 56.65886 56.10452
# Shear Modulus (GPa) = 26.78067 29.68101 28.23084
#
# Velocity S-wave (km/s) = 3.71374 3.90967 3.81297
# Velocity P-wave (km/s) = 6.85545 7.03986 6.94827
#
# Compressibility (1/GPa) = 0.01800174
#
# Stress axis : x y z
#
# Youngs Moduli (GPa) = 85.40228 101.35326 90.20950
#
# Poissons Ratio (x) = 0.39001 0.20944
# Poissons Ratio (y) = 0.32863 0.10464
# Poissons Ratio (z) = 0.19828 0.11756
#
# Static dielectric constant tensor:
#      x y z
#    x 3.839520 0.000000 0.000000 
#    y 0.000000 3.540840 0.000000 
#    z 0.000000 0.000000 3.545800 
# 
# 
# High freq. dielectric constant tensor:
#      x y z
#    x 1.764410 0.000000 0.000000 
#    y 0.000000 1.766620 0.000000 
#    z 0.000000 0.000000 1.735210 
# 
# From -- ./inp_files/42083.got.cif
#   From: 2010.03.12/outbox.cif.g09.slc.cpg/sg72_22_cif.got.tgz:42083.got - 2010.04.16 14:54:00.
