data_PCOD8294400
_publ_section_title
;
Structure prediction by ZEFSAII (Michael W. Deem and Ramdas Pophale) SiO2 
 PCOD8294400
Probable space group: I B A M
;
_chemical_formula_sum "Si O2"
_cell_formula_units_Z 116
_cell_length_a 22.725207
_cell_length_b 28.070877
_cell_length_c 9.326738
_cell_angle_alpha 90.000000
_cell_angle_beta 90.000000
_cell_angle_gamma 90.000000
_cell_volume 5949.679973
_symmetry_space_group_name_H-M "I B A M"
_symmetry_group_IT_number 72
_symmetry_cell_setting 'orthorhombic'
loop_
_space_group_symop_operation_xyz
x,y,z
-x,-y,z
x,-y,1/2-z
-x,y,1/2-z
-x,-y,-z
x,y,-z
-x,y,1/2+z
x,-y,1/2+z
1/2+x,1/2+y,1/2+z
1/2-x,1/2-y,1/2+z
1/2+x,1/2-y,-z
1/2-x,1/2+y,-z
1/2-x,1/2-y,1/2-z
1/2+x,1/2+y,1/2-z
1/2-x,1/2+y,z
1/2+x,1/2-y,z
loop_
_atom_site_type_symbol
_atom_site_label
_atom_site_fract_x
_atom_site_fract_y
_atom_site_fract_z
Si Si1 0.866768 0.838452 0.166107
Si Si2 0.404790 0.423769 0.837522
Si Si3 0.447256 0.748839 0.838926
Si Si4 0.261840 0.702053 0.664321
Si Si5 0.000000 0.000000 0.750000
Si Si6 0.725168 0.453979 0.330494
Si Si7 0.681128 0.881123 0.338150
Si Si8 0.557165 0.856753 0.329739
O O1 0.912321 0.877842 0.232647
O O2 0.891735 0.785260 0.176786
O O3 0.807842 0.834271 0.260506
O O4 0.853945 0.851932 0.000000
O O5 0.456594 0.463757 0.834151
O O6 0.342467 0.445062 0.786802
O O7 0.401506 0.404914 0.000000
O O8 0.500000 0.725672 0.750000
O O9 0.432657 0.801820 0.783790
O O10 0.470038 0.751342 0.000000
O O11 0.281688 0.712883 0.500000
O O12 0.250000 0.750000 0.750000
O O13 0.200268 0.674122 0.665052
O O14 0.747986 0.500000 0.250000
O O15 0.729829 0.460132 0.500000
O O16 0.768854 0.413739 0.265698
O O17 0.676151 0.899147 0.500000
O O18 0.615269 0.884684 0.271984
O O19 0.500000 0.877982 0.250000
O O20 0.549484 0.862187 0.500000
#
# Coordination Sequence:
#
# PCOD8294400 Si02
#       8
#    16  16  16  16   4  16  16  16
#     4  11  23  38  56  82 115 153 197 249 301 355
#     4  11  24  42  62  84 112 150 198 250 309 371
#     4   9  19  34  51  75 108 148 192 233 279 340
#     4  11  21  36  57  85 119 158 199 243 295 359
#     4  12  26  44  64  90 118 152 202 270 334 380
#     4  10  20  39  62  85 111 146 189 238 295 354
#     4   9  18  35  58  80 110 151 188 225 286 353
#     4   9  17  33  56  80 110 146 184 225 270 329
#
# _framework density 19.496846999999999
#
# number of rings (size 3 to 8) (size 9 to 14) (size 15 to 20)
#    0.000    1.931    2.069    1.862    0.966    4.966 
#    0.000    4.828    0.000    0.414    0.000    2.897 
#    0.000    0.000    0.000    0.000    0.000    0.000 
#
# Total GULP energy -718629.173985 kJ/mol
# GULP energy per Si atom -12390.158172 kJ/mol
# Density = 1.945247 g / cm^3
# Si number density = 19.496847 Si / 1000 Ang^3
#
#
#
# Elastic Constant Matrix: (Units=GPa)
#
#
# Indices 1 2 3 4 5 6 
#
# 1 137.3760 45.9025 35.6424 0.0000 0.0000 0.0000
# 2 45.9025 82.1049 28.2737 0.0000 0.0000 0.0000
# 3 35.6424 28.2737 75.7376 0.0000 0.0000 0.0000
# 4 0.0000 0.0000 0.0000 25.3897 0.0000 0.0000
# 5 0.0000 0.0000 0.0000 0.0000 27.5316 0.0000
# 6 0.0000 0.0000 0.0000 0.0000 0.0000 33.7206
#
#
#
# Elastic Compliance Matrix: (Units=1/GPa)
#
#
# Indices 1 2 3 4 5 6 
#
# 1 0.009456 -0.004308 -0.002842 0.000000 0.000000 0.000000
# 2 -0.004308 0.015939 -0.003923 0.000000 0.000000 0.000000
# 3 -0.002842 -0.003923 0.016005 0.000000 0.000000 0.000000
# 4 0.000000 0.000000 0.000000 0.039386 0.000000 0.000000
# 5 0.000000 0.000000 0.000000 0.000000 0.036322 0.000000
# 6 0.000000 0.000000 0.000000 0.000000 0.000000 0.029655
#
#
# Mechanical properties :
#
#
# Convention : Reuss Voigt Hill
#
# Bulk Modulus (GPa) = 51.93469 57.20621 54.57045
# Shear Modulus (GPa) = 28.51811 29.68839 29.10325
#
# Velocity S-wave (km/s) = 3.82868 3.90645 3.86776
# Velocity P-wave (km/s) = 6.80003 7.05351 6.92793
#
# Compressibility (1/GPa) = 0.01925495
#
# Stress axis : x y z
#
# Youngs Moduli (GPa) = 105.75207 62.73967 62.47934
#
# Poissons Ratio (x) = 0.27028 0.17756
# Poissons Ratio (y) = 0.45558 0.24509
# Poissons Ratio (z) = 0.30053 0.24612
#
# Static dielectric constant tensor:
#      x y z
#    x 3.714940 0.000000 0.000000 
#    y 0.000000 3.491520 0.000000 
#    z 0.000000 0.000000 3.431480 
# 
# 
# High freq. dielectric constant tensor:
#      x y z
#    x 1.761250 0.000000 0.000000 
#    y 0.000000 1.745090 0.000000 
#    z 0.000000 0.000000 1.743490 
# 
# From -- ./inp_files/7296.got.cif
#   From: 2010.03.12/outbox.cif.g09.slc.cpg/sg72_4_cif.got.tgz:7296.got - 2010.04.16 14:54:00.
