data_PCOD8294685
_publ_section_title
;
Structure prediction by ZEFSAII (Michael W. Deem and Ramdas Pophale) SiO2 
 PCOD8294685
Probable space group: I B A M
;
_chemical_formula_sum "Si O2"
_cell_formula_units_Z 96
_cell_length_a 13.437207
_cell_length_b 20.192373
_cell_length_c 17.338011
_cell_angle_alpha 90.000000
_cell_angle_beta 90.000000
_cell_angle_gamma 90.000000
_cell_volume 4704.306848
_symmetry_space_group_name_H-M "I B A M"
_symmetry_group_IT_number 72
_symmetry_cell_setting 'orthorhombic'
loop_
_space_group_symop_operation_xyz
x,y,z
-x,-y,z
x,-y,1/2-z
-x,y,1/2-z
-x,-y,-z
x,y,-z
-x,y,1/2+z
x,-y,1/2+z
1/2+x,1/2+y,1/2+z
1/2-x,1/2-y,1/2+z
1/2+x,1/2-y,-z
1/2-x,1/2+y,-z
1/2-x,1/2-y,1/2-z
1/2+x,1/2+y,1/2-z
1/2-x,1/2+y,z
1/2+x,1/2-y,z
loop_
_atom_site_type_symbol
_atom_site_label
_atom_site_fract_x
_atom_site_fract_y
_atom_site_fract_z
Si Si1 0.817608 0.241958 0.913288
Si Si2 0.017347 0.423661 0.584726
Si Si3 0.679222 0.367720 0.088272
Si Si4 0.480389 0.286636 0.332412
Si Si5 0.347886 0.839440 0.841731
Si Si6 0.691939 0.069141 0.704076
O O1 0.761510 0.311010 0.900690
O O2 0.746352 0.180830 0.892847
O O3 0.917671 0.242018 0.864775
O O4 0.851993 0.232660 0.000000
O O5 0.051773 0.394912 0.500000
O O6 0.095993 0.415148 0.652454
O O7 0.000000 0.500000 0.572965
O O8 0.914577 0.389471 0.608829
O O9 0.570356 0.339958 0.110651
O O10 0.712009 0.426966 0.146721
O O11 0.674939 0.393421 0.000000
O O12 0.500000 0.321468 0.250000
O O13 0.408814 0.224798 0.316778
O O14 0.302587 0.872695 0.765940
O O15 0.686723 0.000000 0.750000
#
# Coordination Sequence:
#
# PCOD8294685 Si02
#       6
#    16  16  16  16  16  16
#     4  10  21  38  60  88 120 156 195 245 305 358
#     4  11  22  36  55  84 120 159 196 234 288 350
#     4  10  22  39  60  88 121 157 198 244 301 361
#     4  11  21  36  61  90 121 155 198 251 304 355
#     4  11  22  37  59  90 124 157 199 246 295 359
#     4  12  23  38  59  85 120 161 199 245 294 355
#
# _framework density 20.406832000000001
#
# number of rings (size 3 to 8) (size 9 to 14) (size 15 to 20)
#    0.000    1.167    1.667    6.000    0.000    6.000 
#    0.000    0.000    0.000    4.500    0.000    5.833 
#    0.000    0.000    0.000    0.000    0.000    0.000 
#
# Total GULP energy -595151.975636 kJ/mol
# GULP energy per Si atom -12398.999492 kJ/mol
# Density = 2.036039 g / cm^3
# Si number density = 20.406832 Si / 1000 Ang^3
#
#
#
# Elastic Constant Matrix: (Units=GPa)
#
#
# Indices 1 2 3 4 5 6 
#
# 1 71.5016 10.7032 28.4157 0.0000 0.0000 0.0000
# 2 10.7032 43.3462 30.3673 0.0001 0.0000 0.0000
# 3 28.4157 30.3673 141.0865 0.0001 0.0000 0.0000
# 4 0.0000 0.0001 0.0001 30.6966 0.0000 0.0000
# 5 0.0000 0.0000 0.0000 0.0000 37.8941 0.0000
# 6 0.0000 0.0000 0.0000 0.0000 0.0000 29.9235
#
#
#
# Elastic Compliance Matrix: (Units=1/GPa)
#
#
# Indices 1 2 3 4 5 6 
#
# 1 0.015336 -0.001911 -0.002677 0.000000 0.000000 0.000000
# 2 -0.001911 0.027405 -0.005514 0.000000 0.000000 0.000000
# 3 -0.002677 -0.005514 0.008814 0.000000 0.000000 0.000000
# 4 0.000000 0.000000 0.000000 0.032577 0.000000 0.000000
# 5 0.000000 0.000000 0.000000 0.000000 0.026389 0.000000
# 6 0.000000 0.000000 0.000000 0.000000 0.000000 0.033419
#
#
# Mechanical properties :
#
#
# Convention : Reuss Voigt Hill
#
# Bulk Modulus (GPa) = 31.89776 43.87852 37.88814
# Shear Modulus (GPa) = 28.63797 32.13272 30.38534
#
# Velocity S-wave (km/s) = 3.75020 3.97244 3.86292
# Velocity P-wave (km/s) = 5.86659 6.52602 6.20507
#
# Compressibility (1/GPa) = 0.03135016
#
# Stress axis : x y z
#
# Youngs Moduli (GPa) = 65.20687 36.49007 113.45785
#
# Poissons Ratio (x) = 0.06973 0.30377
# Poissons Ratio (y) = 0.12461 0.62557
# Poissons Ratio (z) = 0.17458 0.20119
#
# Static dielectric constant tensor:
#      x y z
#    x 4.227920 0.000000 0.000000 
#    y 0.000000 3.498270 0.000000 
#    z 0.000000 0.000000 4.157340 
# 
# 
# High freq. dielectric constant tensor:
#      x y z
#    x 1.790130 0.000000 0.000000 
#    y 0.000000 1.770770 0.000000 
#    z 0.000000 0.000000 1.825050 
# 
# From -- ./inp_files/21838.got.cif
#   From: 2010.03.12/outbox.cif.g09.slc.cpg/sg72_11_cif.got.tgz:21838.got - 2010.04.16 14:54:00.
