data_PCOD8294194
_publ_section_title
;
Structure prediction by ZEFSAII (Michael W. Deem and Ramdas Pophale) SiO2 
 PCOD8294194
Probable space group: I B A M
;
_chemical_formula_sum "Si O2"
_cell_formula_units_Z 112
_cell_length_a 15.926243
_cell_length_b 23.002235
_cell_length_c 13.879068
_cell_angle_alpha 90.000000
_cell_angle_beta 90.000000
_cell_angle_gamma 90.000000
_cell_volume 5084.446448
_symmetry_space_group_name_H-M "I B A M"
_symmetry_group_IT_number 72
_symmetry_cell_setting 'orthorhombic'
loop_
_space_group_symop_operation_xyz
x,y,z
-x,-y,z
x,-y,1/2-z
-x,y,1/2-z
-x,-y,-z
x,y,-z
-x,y,1/2+z
x,-y,1/2+z
1/2+x,1/2+y,1/2+z
1/2-x,1/2-y,1/2+z
1/2+x,1/2-y,-z
1/2-x,1/2+y,-z
1/2-x,1/2-y,1/2-z
1/2+x,1/2+y,1/2-z
1/2-x,1/2+y,z
1/2+x,1/2-y,z
loop_
_atom_site_type_symbol
_atom_site_label
_atom_site_fract_x
_atom_site_fract_y
_atom_site_fract_z
Si Si1 0.708143 0.034765 0.889133
Si Si2 0.382761 0.849055 0.389197
Si Si3 0.330403 0.723918 0.391866
Si Si4 0.092127 0.157092 0.226245
Si Si5 0.939046 0.616151 0.112705
Si Si6 0.139221 0.734518 0.612164
Si Si7 0.259319 0.584302 0.198503
O O1 0.611312 0.055636 0.868158
O O2 0.765017 0.068389 0.811827
O O3 0.723814 0.966979 0.869943
O O4 0.732050 0.050245 0.000000
O O5 0.364022 0.867160 0.500000
O O6 0.392737 0.779243 0.382356
O O7 0.465437 0.882302 0.346442
O O8 0.305843 0.864376 0.320007
O O9 0.329995 0.698988 0.500000
O O10 0.360658 0.671697 0.325460
O O11 0.236724 0.744106 0.363367
O O12 0.085032 0.214870 0.161879
O O13 0.146807 0.106747 0.172209
O O14 0.000000 0.132471 0.250000
O O15 0.887864 0.671521 0.154077
O O16 0.949895 0.626396 0.000000
O O17 0.120269 0.739382 0.500000
#
# Coordination Sequence:
#
# PCOD8294194 Si02
#       7
#    16  16  16  16  16  16  16
#     4  10  23  44  65  87 119 159 209 267 319 375
#     4  10  20  36  59  91 131 167 206 252 304 375
#     4  10  21  38  60  89 130 175 212 255 316 384
#     4  12  25  39  61  94 130 165 211 268 319 387
#     4   9  19  35  58  90 126 166 209 255 306 369
#     4  10  20  37  62  92 130 172 210 254 318 386
#     4  11  24  41  65  89 117 164 214 258 321 382
#
# _framework density 22.027964000000001
#
# number of rings (size 3 to 8) (size 9 to 14) (size 15 to 20)
#    0.000    1.714    1.429    2.571    2.000    5.143 
#    0.000    5.000    0.000    0.857    0.000    0.000 
#    0.000    0.000    0.000    0.000    0.000    0.000 
#
# Total GULP energy -694148.399207 kJ/mol
# GULP energy per Si atom -12395.507129 kJ/mol
# Density = 2.197783 g / cm^3
# Si number density = 22.027964 Si / 1000 Ang^3
#
#
#
# Elastic Constant Matrix: (Units=GPa)
#
#
# Indices 1 2 3 4 5 6 
#
# 1 133.8499 61.7349 18.5799 0.0000 0.0000 0.0000
# 2 61.7349 89.9449 18.6583 0.0000 0.0000 0.0000
# 3 18.5799 18.6583 65.3047 -0.0001 0.0000 0.0000
# 4 0.0000 0.0000 -0.0001 28.0064 0.0000 0.0000
# 5 0.0000 0.0000 0.0000 0.0000 24.8220 0.0000
# 6 0.0000 0.0000 0.0000 0.0000 0.0000 31.8666
#
#
#
# Elastic Compliance Matrix: (Units=1/GPa)
#
#
# Indices 1 2 3 4 5 6 
#
# 1 0.010997 -0.007333 -0.001033 0.000000 0.000000 0.000000
# 2 -0.007333 0.016709 -0.002687 0.000000 0.000000 0.000000
# 3 -0.001033 -0.002687 0.016375 0.000000 0.000000 0.000000
# 4 0.000000 0.000000 0.000000 0.035706 0.000000 0.000000
# 5 0.000000 0.000000 0.000000 0.000000 0.040287 0.000000
# 6 0.000000 0.000000 0.000000 0.000000 0.000000 0.031381
#
#
# Mechanical properties :
#
#
# Convention : Reuss Voigt Hill
#
# Bulk Modulus (GPa) = 45.51325 54.11620 49.81473
# Shear Modulus (GPa) = 27.64156 29.61408 28.62782
#
# Velocity S-wave (km/s) = 3.54621 3.67056 3.60892
# Velocity P-wave (km/s) = 6.12160 6.52567 6.32686
#
# Compressibility (1/GPa) = 0.02197162
#
# Stress axis : x y z
#
# Youngs Moduli (GPa) = 90.93468 59.84857 61.06977
#
# Poissons Ratio (x) = 0.43890 0.06311
# Poissons Ratio (y) = 0.66687 0.16412
# Poissons Ratio (z) = 0.09398 0.16084
#
# Static dielectric constant tensor:
#      x y z
#    x 3.887590 0.000000 0.000000 
#    y 0.000000 3.831530 0.000000 
#    z 0.000000 0.000000 4.021170 
# 
# 
# High freq. dielectric constant tensor:
#      x y z
#    x 1.848490 0.000000 0.000000 
#    y 0.000000 1.845640 0.000000 
#    z 0.000000 0.000000 1.877250 
# 
# From -- ./inp_files/22086.got.cif
#   From: 2010.03.12/outbox.cif.g09.slc.cpg/sg72_12_cif.got.tgz:22086.got - 2010.04.16 14:54:00.
