data_PCOD8294007
_publ_section_title
;
Structure prediction by ZEFSAII (Michael W. Deem and Ramdas Pophale) SiO2 
 PCOD8294007
Probable space group: I B A M
;
_chemical_formula_sum "Si O2"
_cell_formula_units_Z 64
_cell_length_a 14.359254
_cell_length_b 27.836990
_cell_length_c 8.767332
_cell_angle_alpha 90.000000
_cell_angle_beta 90.000000
_cell_angle_gamma 90.000000
_cell_volume 3504.464007
_symmetry_space_group_name_H-M "I B A M"
_symmetry_group_IT_number 72
_symmetry_cell_setting 'orthorhombic'
loop_
_space_group_symop_operation_xyz
x,y,z
-x,-y,z
x,-y,1/2-z
-x,y,1/2-z
-x,-y,-z
x,y,-z
-x,y,1/2+z
x,-y,1/2+z
1/2+x,1/2+y,1/2+z
1/2-x,1/2-y,1/2+z
1/2+x,1/2-y,-z
1/2-x,1/2+y,-z
1/2-x,1/2-y,1/2-z
1/2+x,1/2+y,1/2-z
1/2-x,1/2+y,z
1/2+x,1/2-y,z
loop_
_atom_site_type_symbol
_atom_site_label
_atom_site_fract_x
_atom_site_fract_y
_atom_site_fract_z
Si Si1 0.901498 0.948502 0.181927
Si Si2 0.293184 0.636385 0.319011
Si Si3 0.091696 0.328909 0.826473
Si Si4 0.659510 0.728372 0.675705
O O1 0.821421 0.912221 0.234580
O O2 0.000000 0.931025 0.250000
O O3 0.874551 0.000000 0.250000
O O4 0.907944 0.951265 0.000000
O O5 0.300084 0.630381 0.500000
O O6 0.188608 0.649580 0.261125
O O7 0.364092 0.679190 0.266492
O O8 0.083781 0.270823 0.807908
O O9 0.000000 0.351907 0.750000
O O10 0.088092 0.344525 0.000000
O O11 0.677038 0.715255 0.500000
O O12 0.750000 0.750000 0.750000
#
# Coordination Sequence:
#
# PCOD8294007 Si02
#       4
#    16  16  16  16
#     4  11  22  38  59  82 106 134 166 209 261 315
#     4  10  20  35  53  77 106 138 176 219 261 311
#     4   9  19  32  49  73 105 141 178 216 256 302
#     4   9  17  30  46  69  99 135 175 216 258 302
#
# _framework density 18.262422999999998
#
# number of rings (size 3 to 8) (size 9 to 14) (size 15 to 20)
#    0.000    2.250    0.000    6.000    0.000    7.000 
#    0.000    2.500    0.000    0.750    0.000    5.250 
#    0.000    0.000    0.000    0.000    0.000    0.000 
#
# Total GULP energy -396542.420397 kJ/mol
# GULP energy per Si atom -12391.950637 kJ/mol
# Density = 1.822086 g / cm^3
# Si number density = 18.262423 Si / 1000 Ang^3
#
#
#
# Elastic Constant Matrix: (Units=GPa)
#
#
# Indices 1 2 3 4 5 6 
#
# 1 84.5640 52.2951 45.1175 0.0004 -0.0002 0.0000
# 2 52.2951 106.6846 48.0238 0.0011 0.0011 0.0004
# 3 45.1175 48.0238 116.6701 -0.0092 0.0033 -0.0009
# 4 0.0004 0.0011 -0.0092 33.4241 0.0016 -0.0002
# 5 -0.0002 0.0011 0.0033 0.0016 28.6096 -0.0001
# 6 0.0000 0.0004 -0.0009 -0.0002 -0.0001 22.2790
#
#
#
# Elastic Compliance Matrix: (Units=1/GPa)
#
#
# Indices 1 2 3 4 5 6 
#
# 1 0.018508 -0.007181 -0.004201 -0.000001 0.000001 0.000000
# 2 -0.007181 0.014291 -0.003106 -0.000001 0.000000 0.000000
# 3 -0.004201 -0.003106 0.011474 0.000003 -0.000001 0.000001
# 4 -0.000001 -0.000001 0.000003 0.029919 -0.000002 0.000000
# 5 0.000001 0.000000 -0.000001 -0.000002 0.034953 0.000000
# 6 0.000000 0.000000 0.000001 0.000000 0.000000 0.044885
#
#
# Mechanical properties :
#
#
# Convention : Reuss Voigt Hill
#
# Bulk Modulus (GPa) = 65.37038 66.53240 65.95139
# Shear Modulus (GPa) = 26.58084 27.69469 27.13777
#
# Velocity S-wave (km/s) = 3.81923 3.89843 3.85904
# Velocity P-wave (km/s) = 7.43784 7.53486 7.48651
#
# Compressibility (1/GPa) = 0.01529745
#
# Stress axis : x y z
#
# Youngs Moduli (GPa) = 54.03180 69.97201 87.15188
#
# Poissons Ratio (x) = 0.50247 0.36615
# Poissons Ratio (y) = 0.38800 0.27067
# Poissons Ratio (z) = 0.22700 0.21731
#
# Static dielectric constant tensor:
#      x y z
#    x 3.279970 0.000000 0.000010 
#    y 0.000000 3.538920 -0.000010 
#    z 0.000010 -0.000010 3.574340 
# 
# 
# High freq. dielectric constant tensor:
#      x y z
#    x 1.689110 0.000000 0.000000 
#    y 0.000000 1.692410 0.000000 
#    z 0.000000 0.000000 1.720970 
# 
# From -- ./inp_files/3427.got.cif
#   From: 2010.03.12/outbox.cif.g09.slc.cpg/sg72_2_cif.got.tgz:3427.got - 2010.04.16 14:54:00.
