data_PCOD8294817
_publ_section_title
;
Structure prediction by ZEFSAII (Michael W. Deem and Ramdas Pophale) SiO2 
 PCOD8294817
Probable space group: I B A M
;
_chemical_formula_sum "Si O2"
_cell_formula_units_Z 64
_cell_length_a 10.441088
_cell_length_b 12.911901
_cell_length_c 18.187168
_cell_angle_alpha 90.000000
_cell_angle_beta 90.000000
_cell_angle_gamma 90.000000
_cell_volume 2451.890224
_symmetry_space_group_name_H-M "I B A M"
_symmetry_group_IT_number 72
_symmetry_cell_setting 'orthorhombic'
loop_
_space_group_symop_operation_xyz
x,y,z
-x,-y,z
x,-y,1/2-z
-x,y,1/2-z
-x,-y,-z
x,y,-z
-x,y,1/2+z
x,-y,1/2+z
1/2+x,1/2+y,1/2+z
1/2-x,1/2-y,1/2+z
1/2+x,1/2-y,-z
1/2-x,1/2+y,-z
1/2-x,1/2-y,1/2-z
1/2+x,1/2+y,1/2-z
1/2-x,1/2+y,z
1/2+x,1/2-y,z
loop_
_atom_site_type_symbol
_atom_site_label
_atom_site_fract_x
_atom_site_fract_y
_atom_site_fract_z
Si Si1 0.699509 0.962128 0.328799
Si Si2 0.869928 0.215815 0.203096
Si Si3 0.983159 0.307168 0.414606
Si Si4 0.614597 0.575547 0.416667
O O1 0.831916 0.898352 0.321908
O O2 0.593825 0.900233 0.375730
O O3 0.642679 0.000000 0.250000
O O4 0.751372 0.060154 0.373680
O O5 0.750000 0.250000 0.250000
O O6 0.000000 0.214859 0.250000
O O7 0.886799 0.291933 0.132468
O O8 0.010738 0.334119 0.500000
O O9 0.913712 0.196820 0.406236
O O10 0.500000 0.500000 0.389508
O O11 0.644405 0.547027 0.500000
#
# Coordination Sequence:
#
# PCOD8294817 Si02
#       4
#    16  16  16  16
#     4  12  26  42  78 115 166 216 276 337 419 501
#     4  12  25  46  73 111 154 214 274 333 406 488
#     4  11  25  48  80 118 162 213 277 353 421 496
#     4  10  21  40  71 112 155 206 274 340 404 490
#
# _framework density 26.102311
#
# number of rings (size 3 to 8) (size 9 to 14) (size 15 to 20)
#    0.000    0.750    5.000    2.250    0.000    1.000 
#    0.000    2.500    0.000    1.500    0.000    0.000 
#    0.000    0.000    0.000    0.000    0.000    0.000 
#
# Total GULP energy -396494.860736 kJ/mol
# GULP energy per Si atom -12390.464398 kJ/mol
# Density = 2.604290 g / cm^3
# Si number density = 26.102311 Si / 1000 Ang^3
#
#
#
# Elastic Constant Matrix: (Units=GPa)
#
#
# Indices 1 2 3 4 5 6 
#
# 1 113.1357 48.7247 81.2905 0.0000 0.0000 0.0000
# 2 48.7247 78.8437 59.8680 0.0000 0.0000 0.0000
# 3 81.2905 59.8680 216.8042 0.0000 0.0000 0.0000
# 4 0.0000 0.0000 0.0000 54.6159 0.0000 0.0000
# 5 0.0000 0.0000 0.0000 0.0000 10.3751 0.0000
# 6 0.0000 0.0000 0.0000 0.0000 0.0000 41.2770
#
#
#
# Elastic Compliance Matrix: (Units=1/GPa)
#
#
# Indices 1 2 3 4 5 6 
#
# 1 0.013971 -0.005892 -0.003612 0.000000 0.000000 0.000000
# 2 -0.005892 0.018533 -0.002909 0.000000 0.000000 0.000000
# 3 -0.003612 -0.002909 0.006770 0.000000 0.000000 0.000000
# 4 0.000000 0.000000 0.000000 0.018310 0.000000 0.000000
# 5 0.000000 0.000000 0.000000 0.000000 0.096385 0.000000
# 6 0.000000 0.000000 0.000000 0.000000 0.000000 0.024227
#
#
# Mechanical properties :
#
#
# Convention : Reuss Voigt Hill
#
# Bulk Modulus (GPa) = 69.20310 87.61668 78.40989
# Shear Modulus (GPa) = 24.05748 35.84696 29.95222
#
# Velocity S-wave (km/s) = 3.03918 3.70986 3.39114
# Velocity P-wave (km/s) = 6.23581 7.21043 6.74075
#
# Compressibility (1/GPa) = 0.01445022
#
# Stress axis : x y z
#
# Youngs Moduli (GPa) = 71.57464 53.95803 147.71519
#
# Poissons Ratio (x) = 0.31791 0.53349
# Poissons Ratio (y) = 0.42170 0.42963
# Poissons Ratio (z) = 0.25850 0.15694
#
# Static dielectric constant tensor:
#      x y z
#    x 4.146220 0.000000 0.000000 
#    y 0.000000 14.401730 0.000000 
#    z 0.000000 0.000000 5.315220 
# 
# 
# High freq. dielectric constant tensor:
#      x y z
#    x 2.041820 0.000000 0.000000 
#    y 0.000000 2.063790 0.000000 
#    z 0.000000 0.000000 2.060260 
# 
# From -- ./inp_files/28804.got.cif
#   From: 2010.03.12/outbox.cif.g09.slc.cpg/sg72_15_cif.got.tgz:28804.got - 2010.04.16 14:54:00.
