data_PCOD8294834
_publ_section_title
;
Structure prediction by ZEFSAII (Michael W. Deem and Ramdas Pophale) SiO2 
 PCOD8294834
Probable space group: I B A M
;
_chemical_formula_sum "Si O2"
_cell_formula_units_Z 96
_cell_length_a 11.693745
_cell_length_b 22.951029
_cell_length_c 16.246483
_cell_angle_alpha 90.000000
_cell_angle_beta 90.000000
_cell_angle_gamma 90.000000
_cell_volume 4360.287655
_symmetry_space_group_name_H-M "I B A M"
_symmetry_group_IT_number 72
_symmetry_cell_setting 'orthorhombic'
loop_
_space_group_symop_operation_xyz
x,y,z
-x,-y,z
x,-y,1/2-z
-x,y,1/2-z
-x,-y,-z
x,y,-z
-x,y,1/2+z
x,-y,1/2+z
1/2+x,1/2+y,1/2+z
1/2-x,1/2-y,1/2+z
1/2+x,1/2-y,-z
1/2-x,1/2+y,-z
1/2-x,1/2-y,1/2-z
1/2+x,1/2+y,1/2-z
1/2-x,1/2+y,z
1/2+x,1/2-y,z
loop_
_atom_site_type_symbol
_atom_site_label
_atom_site_fract_x
_atom_site_fract_y
_atom_site_fract_z
Si Si1 0.327466 0.867452 0.338074
Si Si2 0.246209 0.085952 0.663730
Si Si3 0.433496 0.841623 0.906311
Si Si4 0.657412 0.281907 0.095227
Si Si5 0.806635 0.965450 0.092708
Si Si6 0.988217 0.115352 0.905442
O O1 0.295944 0.896621 0.251672
O O2 0.462334 0.857726 0.346312
O O3 0.263907 0.805650 0.351462
O O4 0.286299 0.913535 0.406995
O O5 0.337768 0.108140 0.596711
O O6 0.123262 0.115831 0.651377
O O7 0.230329 0.016567 0.654504
O O8 0.376128 0.782096 0.873087
O O9 0.477024 0.834159 0.000000
O O10 0.548184 0.322970 0.108189
O O11 0.695275 0.280062 0.000000
O O12 0.928274 0.937916 0.120480
O O13 0.815148 0.990165 0.000000
O O14 0.951226 0.107232 0.000000
#
# Coordination Sequence:
#
# PCOD8294834 Si02
#       6
#    16  16  16  16  16  16
#     4  11  24  43  61  94 133 168 207 270 339 383
#     4  12  24  38  61 100 132 167 209 264 331 390
#     4  11  24  42  65  90 123 173 226 269 314 388
#     4   9  21  41  66  89 118 169 222 266 314 381
#     4  10  21  41  68  93 127 172 217 260 310 385
#     4   9  19  39  65  96 128 166 216 266 314 376
#
# _framework density 22.016897
#
# number of rings (size 3 to 8) (size 9 to 14) (size 15 to 20)
#    0.000    1.667    0.000    5.500    2.333    5.333 
#    3.000    6.667    0.000    0.000    0.000    0.000 
#    0.000    0.000    0.000    0.000    0.000    0.000 
#
# Total GULP energy -595303.556471 kJ/mol
# GULP energy per Si atom -12402.157426 kJ/mol
# Density = 2.196679 g / cm^3
# Si number density = 22.016897 Si / 1000 Ang^3
#
#
#
# Elastic Constant Matrix: (Units=GPa)
#
#
# Indices 1 2 3 4 5 6 
#
# 1 145.3968 67.5003 40.3931 0.0000 0.0000 0.0000
# 2 67.5003 79.1309 33.9609 -0.0001 0.0000 0.0000
# 3 40.3931 33.9609 82.9009 -0.0001 0.0000 0.0000
# 4 0.0000 -0.0001 -0.0001 30.3173 0.0000 0.0000
# 5 0.0000 0.0000 0.0000 0.0000 35.8677 0.0000
# 6 0.0000 0.0000 0.0000 0.0000 0.0000 28.0848
#
#
#
# Elastic Compliance Matrix: (Units=1/GPa)
#
#
# Indices 1 2 3 4 5 6 
#
# 1 0.011640 -0.009094 -0.001946 0.000000 0.000000 0.000000
# 2 -0.009094 0.022438 -0.004761 0.000000 0.000000 0.000000
# 3 -0.001946 -0.004761 0.014961 0.000000 0.000000 0.000000
# 4 0.000000 0.000000 0.000000 0.032984 0.000000 0.000000
# 5 0.000000 0.000000 0.000000 0.000000 0.027880 0.000000
# 6 0.000000 0.000000 0.000000 0.000000 0.000000 0.035606
#
#
# Mechanical properties :
#
#
# Convention : Reuss Voigt Hill
#
# Bulk Modulus (GPa) = 57.34877 65.68192 61.51534
# Shear Modulus (GPa) = 27.33351 29.89226 28.61289
#
# Velocity S-wave (km/s) = 3.52729 3.68869 3.60889
# Velocity P-wave (km/s) = 6.53400 6.93103 6.73544
#
# Compressibility (1/GPa) = 0.01743717
#
# Stress axis : x y z
#
# Youngs Moduli (GPa) = 85.90758 44.56711 66.83977
#
# Poissons Ratio (x) = 0.40530 0.13009
# Poissons Ratio (y) = 0.78127 0.31821
# Poissons Ratio (z) = 0.16720 0.21217
#
# Static dielectric constant tensor:
#      x y z
#    x 3.930120 0.000000 0.000000 
#    y 0.000000 4.042140 0.000000 
#    z 0.000000 0.000000 3.778090 
# 
# 
# High freq. dielectric constant tensor:
#      x y z
#    x 1.864420 0.000000 0.000000 
#    y 0.000000 1.871480 0.000000 
#    z 0.000000 0.000000 1.856800 
# 
# From -- ./inp_files/29479.got.cif
#   From: 2010.03.12/outbox.cif.g09.slc.cpg/sg72_15_cif.got.tgz:29479.got - 2010.04.16 14:54:00.
