data_PCOD8294912
_publ_section_title
;
Structure prediction by ZEFSAII (Michael W. Deem and Ramdas Pophale) SiO2 
 PCOD8294912
Probable space group: I B A M
;
_chemical_formula_sum "Si O2"
_cell_formula_units_Z 60
_cell_length_a 12.243239
_cell_length_b 13.061623
_cell_length_c 14.993716
_cell_angle_alpha 90.000000
_cell_angle_beta 90.000000
_cell_angle_gamma 90.000000
_cell_volume 2397.743666
_symmetry_space_group_name_H-M "I B A M"
_symmetry_group_IT_number 72
_symmetry_cell_setting 'orthorhombic'
loop_
_space_group_symop_operation_xyz
x,y,z
-x,-y,z
x,-y,1/2-z
-x,y,1/2-z
-x,-y,-z
x,y,-z
-x,y,1/2+z
x,-y,1/2+z
1/2+x,1/2+y,1/2+z
1/2-x,1/2-y,1/2+z
1/2+x,1/2-y,-z
1/2-x,1/2+y,-z
1/2-x,1/2-y,1/2-z
1/2+x,1/2+y,1/2-z
1/2-x,1/2+y,z
1/2+x,1/2-y,z
loop_
_atom_site_type_symbol
_atom_site_label
_atom_site_fract_x
_atom_site_fract_y
_atom_site_fract_z
Si Si1 0.195003 0.890206 0.675988
Si Si2 0.303233 0.918844 0.500000
Si Si3 0.957759 0.628669 0.000000
Si Si4 0.279126 0.152935 0.358389
Si Si5 0.125047 0.796635 0.000000
Si Si6 0.500000 0.500000 0.750000
O O1 0.247280 0.955416 0.592911
O O2 0.262674 0.912383 0.767925
O O3 0.191482 0.769442 0.663419
O O4 0.071710 0.928215 0.685739
O O5 0.287152 0.796914 0.500000
O O6 0.433830 0.945666 0.500000
O O7 0.880412 0.607200 0.915166
O O8 0.002602 0.748176 0.000000
O O9 0.161650 0.142902 0.410923
#
# Coordination Sequence:
#
# PCOD8294912 Si02
#       6
#    16   8   8  16   8   4
#     4  10  22  39  55  91 123 170 200 262 298 390
#     4   8  18  37  54  80 120 154 217 247 303 367
#     4   9  17  32  63  96 115 159 203 269 306 348
#     4   9  18  35  61  89 128 157 214 250 303 364
#     4   7  15  30  51  95 118 149 204 264 283 367
#     4  12  28  38  60  90 132 164 208 246 348 346
#
# _framework density 25.023526
#
# number of rings (size 3 to 8) (size 9 to 14) (size 15 to 20)
#    0.800    2.133    0.000    0.800    3.733    1.600 
#    0.000    2.667    0.000    4.800    0.000    0.000 
#    0.000    0.000    0.000    0.000    0.000    0.000 
#
# Total GULP energy -371703.605401 kJ/mol
# GULP energy per Si atom -12390.120180 kJ/mol
# Density = 2.496657 g / cm^3
# Si number density = 25.023526 Si / 1000 Ang^3
#
#
#
# Elastic Constant Matrix: (Units=GPa)
#
#
# Indices 1 2 3 4 5 6 
#
# 1 187.5548 48.7810 104.9888 0.0000 0.0000 0.0000
# 2 48.7810 62.5224 41.5180 0.0000 0.0000 0.0000
# 3 104.9888 41.5180 233.6922 0.0000 0.0000 0.0000
# 4 0.0000 0.0000 0.0000 1.7037 0.0000 0.0000
# 5 0.0000 0.0000 0.0000 0.0000 42.1777 0.0000
# 6 0.0000 0.0000 0.0000 0.0000 0.0000 49.1001
#
#
#
# Elastic Compliance Matrix: (Units=1/GPa)
#
#
# Indices 1 2 3 4 5 6 
#
# 1 0.008069 -0.004409 -0.002842 0.000000 0.000000 0.000000
# 2 -0.004409 0.020542 -0.001669 0.000000 0.000000 0.000000
# 3 -0.002842 -0.001669 0.005852 0.000000 0.000000 0.000000
# 4 0.000000 0.000000 0.000000 0.586958 0.000000 0.000000
# 5 0.000000 0.000000 0.000000 0.000000 0.023709 0.000000
# 6 0.000000 0.000000 0.000000 0.000000 0.000000 0.020367
#
#
# Mechanical properties :
#
#
# Convention : Reuss Voigt Hill
#
# Bulk Modulus (GPa) = 60.15074 97.14943 78.65008
# Shear Modulus (GPa) = 7.25818 37.82841 22.54330
#
# Velocity S-wave (km/s) = 1.70495 3.89229 3.00473
# Velocity P-wave (km/s) = 5.28826 7.68814 6.59822
#
# Compressibility (1/GPa) = 0.01662490
#
# Stress axis : x y z
#
# Youngs Moduli (GPa) = 123.92699 48.68033 170.86918
#
# Poissons Ratio (x) = 0.21461 0.48561
# Poissons Ratio (y) = 0.54634 0.28517
# Poissons Ratio (z) = 0.35220 0.08124
#
# Static dielectric constant tensor:
#      x y z
#    x 4.084100 0.000000 0.000000 
#    y 0.000000 4.524500 0.000000 
#    z 0.000000 0.000000 5.023810 
# 
# 
# High freq. dielectric constant tensor:
#      x y z
#    x 1.973010 0.000000 0.000000 
#    y 0.000000 2.038260 0.000000 
#    z 0.000000 0.000000 2.004150 
# 
# From -- ./inp_files/28750.got.cif
#   From: 2010.03.12/outbox.cif.g09.slc.cpg/sg72_15_cif.got.tgz:28750.got - 2010.04.16 14:54:00.
