data_PCOD8294662
_publ_section_title
;
Structure prediction by ZEFSAII (Michael W. Deem and Ramdas Pophale) SiO2 
 PCOD8294662
Probable space group: I B A M
;
_chemical_formula_sum "Si O2"
_cell_formula_units_Z 96
_cell_length_a 20.886441
_cell_length_b 13.779826
_cell_length_c 16.153932
_cell_angle_alpha 90.000000
_cell_angle_beta 90.000000
_cell_angle_gamma 90.000000
_cell_volume 4649.287767
_symmetry_space_group_name_H-M "I B A M"
_symmetry_group_IT_number 72
_symmetry_cell_setting 'orthorhombic'
loop_
_space_group_symop_operation_xyz
x,y,z
-x,-y,z
x,-y,1/2-z
-x,y,1/2-z
-x,-y,-z
x,y,-z
-x,y,1/2+z
x,-y,1/2+z
1/2+x,1/2+y,1/2+z
1/2-x,1/2-y,1/2+z
1/2+x,1/2-y,-z
1/2-x,1/2+y,-z
1/2-x,1/2-y,1/2-z
1/2+x,1/2+y,1/2-z
1/2-x,1/2+y,z
1/2+x,1/2-y,z
loop_
_atom_site_type_symbol
_atom_site_label
_atom_site_fract_x
_atom_site_fract_y
_atom_site_fract_z
Si Si1 0.250549 0.711365 0.344539
Si Si2 0.435788 0.748472 0.795102
Si Si3 0.764352 0.497317 0.098109
Si Si4 0.996489 0.605915 0.592153
Si Si5 0.362367 0.162665 0.853450
Si Si6 0.152072 0.853327 0.407256
O O1 0.250000 0.750000 0.250000
O O2 0.243590 0.596540 0.351535
O O3 0.317499 0.748817 0.385587
O O4 0.193206 0.755384 0.398100
O O5 0.500000 0.711533 0.750000
O O6 0.453573 0.825608 0.864073
O O7 0.385701 0.807255 0.738301
O O8 0.404732 0.653997 0.839237
O O9 0.820671 0.436267 0.142723
O O10 0.696208 0.445525 0.111162
O O11 0.779109 0.510683 0.000000
O O12 0.022540 0.595629 0.500000
O O13 0.924916 0.649596 0.590560
O O14 0.000000 0.500000 0.635773
O O15 0.123485 0.858697 0.500000
#
# Coordination Sequence:
#
# PCOD8294662 Si02
#       6
#    16  16  16  16  16  16
#     4  11  22  38  61  91 121 160 198 253 313 367
#     4  10  21  38  58  84 121 161 206 261 311 363
#     4  10  23  39  62  92 124 161 202 251 314 377
#     4  10  22  36  56  84 116 162 206 249 312 372
#     4  10  22  39  58  89 125 157 202 252 305 370
#     4  10  21  39  61  90 125 161 206 255 310 375
#
# _framework density 20.648323000000001
#
# number of rings (size 3 to 8) (size 9 to 14) (size 15 to 20)
#    0.000    1.833    1.667    1.500    2.333    9.000 
#    0.000    0.000    0.000    7.000    0.000   10.500 
#    0.000    0.000    0.000    0.000    0.000    0.000 
#
# Total GULP energy -594929.142971 kJ/mol
# GULP energy per Si atom -12394.357145 kJ/mol
# Density = 2.060133 g / cm^3
# Si number density = 20.648323 Si / 1000 Ang^3
#
#
#
# Elastic Constant Matrix: (Units=GPa)
#
#
# Indices 1 2 3 4 5 6 
#
# 1 101.6179 36.4255 37.3552 0.0000 0.0000 0.0000
# 2 36.4255 110.3218 38.5984 0.0000 0.0000 0.0000
# 3 37.3552 38.5984 97.8971 0.0000 0.0000 0.0000
# 4 0.0000 0.0000 0.0000 26.6923 0.0000 0.0000
# 5 0.0000 0.0000 0.0000 0.0000 21.0221 0.0000
# 6 0.0000 0.0000 0.0000 0.0000 0.0000 21.7548
#
#
#
# Elastic Compliance Matrix: (Units=1/GPa)
#
#
# Indices 1 2 3 4 5 6 
#
# 1 0.012134 -0.002768 -0.003539 0.000000 0.000000 0.000000
# 2 -0.002768 0.011146 -0.003338 0.000000 0.000000 0.000000
# 3 -0.003539 -0.003338 0.012881 0.000000 0.000000 0.000000
# 4 0.000000 0.000000 0.000000 0.037464 0.000000 0.000000
# 5 0.000000 0.000000 0.000000 0.000000 0.047569 0.000000
# 6 0.000000 0.000000 0.000000 0.000000 0.000000 0.045967
#
#
# Mechanical properties :
#
#
# Convention : Reuss Voigt Hill
#
# Bulk Modulus (GPa) = 59.27305 59.39946 59.33625
# Shear Modulus (GPa) = 26.03139 27.05767 26.54453
#
# Velocity S-wave (km/s) = 3.55449 3.62388 3.58935
# Velocity P-wave (km/s) = 6.75383 6.80732 6.78063
#
# Compressibility (1/GPa) = 0.01687107
#
# Stress axis : x y z
#
# Youngs Moduli (GPa) = 82.41394 89.71477 77.63192
#
# Poissons Ratio (x) = 0.24835 0.27470
# Poissons Ratio (y) = 0.22814 0.25917
# Poissons Ratio (z) = 0.29162 0.29951
#
# Static dielectric constant tensor:
#      x y z
#    x 3.943790 0.000000 0.000000 
#    y 0.000000 3.631950 0.000000 
#    z 0.000000 0.000000 3.807150 
# 
# 
# High freq. dielectric constant tensor:
#      x y z
#    x 1.815190 0.000000 0.000000 
#    y 0.000000 1.786150 0.000000 
#    z 0.000000 0.000000 1.811410 
# 
# From -- ./inp_files/24155.got.cif
#   From: 2010.03.12/outbox.cif.g09.slc.cpg/sg72_13_cif.got.tgz:24155.got - 2010.04.16 14:54:00.
