data_PCOD8294457
_publ_section_title
;
Structure prediction by ZEFSAII (Michael W. Deem and Ramdas Pophale) SiO2 
 PCOD8294457
Probable space group: I B A M
;
_chemical_formula_sum "Si O2"
_cell_formula_units_Z 88
_cell_length_a 24.612441
_cell_length_b 24.745031
_cell_length_c 9.344380
_cell_angle_alpha 90.000000
_cell_angle_beta 90.000000
_cell_angle_gamma 90.000000
_cell_volume 5691.060225
_symmetry_space_group_name_H-M "I B A M"
_symmetry_group_IT_number 72
_symmetry_cell_setting 'orthorhombic'
loop_
_space_group_symop_operation_xyz
x,y,z
-x,-y,z
x,-y,1/2-z
-x,y,1/2-z
-x,-y,-z
x,y,-z
-x,y,1/2+z
x,-y,1/2+z
1/2+x,1/2+y,1/2+z
1/2-x,1/2-y,1/2+z
1/2+x,1/2-y,-z
1/2-x,1/2+y,-z
1/2-x,1/2-y,1/2-z
1/2+x,1/2+y,1/2-z
1/2-x,1/2+y,z
1/2+x,1/2-y,z
loop_
_atom_site_type_symbol
_atom_site_label
_atom_site_fract_x
_atom_site_fract_y
_atom_site_fract_z
Si Si1 0.333013 0.751157 0.838009
Si Si2 0.394766 0.671044 0.661451
Si Si3 0.639044 0.500000 0.750000
Si Si4 0.707411 0.404590 0.651992
Si Si5 0.449920 0.419932 0.337225
Si Si6 0.232523 0.669704 0.159989
O O1 0.383528 0.726415 0.748319
O O2 0.283260 0.709770 0.843361
O O3 0.314825 0.806155 0.759487
O O4 0.352040 0.764249 0.000000
O O5 0.417223 0.682527 0.500000
O O6 0.338292 0.640694 0.649183
O O7 0.436598 0.635188 0.752875
O O8 0.679347 0.462984 0.659092
O O9 0.600686 0.538657 0.654686
O O10 0.738767 0.402619 0.500000
O O11 0.749262 0.389086 0.778239
O O12 0.500000 0.446779 0.250000
O O13 0.466968 0.406682 0.500000
O O14 0.210002 0.660664 0.000000
#
# Coordination Sequence:
#
# PCOD8294457 Si02
#       6
#    16  16   8  16  16  16
#     4   9  15  24  39  57  76  96 116 141 179 227
#     4   9  17  29  43  58  75  94 118 151 192 237
#     4  10  21  32  46  58  72  98 134 172 211 248
#     4   9  17  28  40  54  72  94 122 156 193 233
#     4  11  22  34  46  59  75  97 129 169 211 251
#     4   9  16  24  36  55  76  96 117 144 180 224
#
# _framework density 15.462847999999999
#
# number of rings (size 3 to 8) (size 9 to 14) (size 15 to 20)
#    0.000    2.545    0.000    3.000    0.000   12.364 
#    0.000    0.000    0.000    0.000    0.000    0.000 
#    0.000    0.000    0.000    0.000    0.000    0.000 
#
# Total GULP energy -545192.666467 kJ/mol
# GULP energy per Si atom -12390.742420 kJ/mol
# Density = 1.542765 g / cm^3
# Si number density = 15.462848 Si / 1000 Ang^3
#
#
#
# Elastic Constant Matrix: (Units=GPa)
#
#
# Indices 1 2 3 4 5 6 
#
# 1 24.9410 34.6651 29.8051 0.0000 0.0000 0.0000
# 2 34.6651 58.1511 44.4169 0.0000 0.0000 0.0000
# 3 29.8051 44.4169 159.5944 0.0000 0.0000 0.0000
# 4 0.0000 0.0000 0.0000 4.8410 0.0000 0.0000
# 5 0.0000 0.0000 0.0000 0.0000 76.4245 0.0000
# 6 0.0000 0.0000 0.0000 0.0000 0.0000 17.7736
#
#
#
# Elastic Compliance Matrix: (Units=1/GPa)
#
#
# Indices 1 2 3 4 5 6 
#
# 1 0.238760 -0.137502 -0.006322 0.000000 0.000000 0.000000
# 2 -0.137502 0.101026 -0.002438 0.000000 0.000000 0.000000
# 3 -0.006322 -0.002438 0.008125 0.000000 0.000000 0.000000
# 4 0.000000 0.000000 0.000000 0.206570 0.000000 0.000000
# 5 0.000000 0.000000 0.000000 0.000000 0.013085 0.000000
# 6 0.000000 0.000000 0.000000 0.000000 0.000000 0.056263
#
#
# Mechanical properties :
#
#
# Convention : Reuss Voigt Hill
#
# Bulk Modulus (GPa) = 18.05385 51.16230 34.60808
# Shear Modulus (GPa) = 5.34866 28.72777 17.03822
#
# Velocity S-wave (km/s) = 1.86187 4.31496 3.32306
# Velocity P-wave (km/s) = 4.04018 7.61474 6.09538
#
# Compressibility (1/GPa) = 0.05538984
#
# Stress axis : x y z
#
# Youngs Moduli (GPa) = 4.18830 9.89843 123.07919
#
# Poissons Ratio (x) = 1.36105 0.77805
# Poissons Ratio (y) = 0.57590 0.30001
# Poissons Ratio (z) = 0.02648 0.02413
#
# Static dielectric constant tensor:
#      x y z
#    x 2.578400 0.000000 0.000000 
#    y 0.000000 2.849460 0.000000 
#    z 0.000000 0.000000 3.268940 
# 
# 
# High freq. dielectric constant tensor:
#      x y z
#    x 1.529260 0.000000 0.000000 
#    y 0.000000 1.557890 0.000000 
#    z 0.000000 0.000000 1.617580 
# 
# From -- ./inp_files/9149.got.cif
#   From: 2010.03.12/outbox.cif.g09.slc.cpg/sg72_5_cif.got.tgz:9149.got - 2010.04.16 14:54:00.
