data_PCOD8294655
_publ_section_title
;
Structure prediction by ZEFSAII (Michael W. Deem and Ramdas Pophale) SiO2 
 PCOD8294655
Probable space group: I B A M
;
_chemical_formula_sum "Si O2"
_cell_formula_units_Z 96
_cell_length_a 23.393892
_cell_length_b 23.831100
_cell_length_c 8.746173
_cell_angle_alpha 90.000000
_cell_angle_beta 90.000000
_cell_angle_gamma 90.000000
_cell_volume 4876.010511
_symmetry_space_group_name_H-M "I B A M"
_symmetry_group_IT_number 72
_symmetry_cell_setting 'orthorhombic'
loop_
_space_group_symop_operation_xyz
x,y,z
-x,-y,z
x,-y,1/2-z
-x,y,1/2-z
-x,-y,-z
x,y,-z
-x,y,1/2+z
x,-y,1/2+z
1/2+x,1/2+y,1/2+z
1/2-x,1/2-y,1/2+z
1/2+x,1/2-y,-z
1/2-x,1/2+y,-z
1/2-x,1/2-y,1/2-z
1/2+x,1/2+y,1/2-z
1/2-x,1/2+y,z
1/2+x,1/2-y,z
loop_
_atom_site_type_symbol
_atom_site_label
_atom_site_fract_x
_atom_site_fract_y
_atom_site_fract_z
Si Si1 0.162311 0.442424 0.821279
Si Si2 0.130126 0.730685 0.824141
Si Si3 0.636026 0.655788 0.323291
Si Si4 0.938769 0.059940 0.181737
Si Si5 0.231085 0.346947 0.323314
Si Si6 0.438606 0.879529 0.321264
O O1 0.184716 0.500000 0.750000
O O2 0.210041 0.396491 0.784696
O O3 0.101369 0.427030 0.749653
O O4 0.154988 0.448952 0.000000
O O5 0.111004 0.783680 0.722588
O O6 0.194700 0.709389 0.786724
O O7 0.086011 0.681684 0.782186
O O8 0.125290 0.748839 0.000000
O O9 0.623490 0.643443 0.500000
O O10 0.608124 0.606294 0.224925
O O11 0.702873 0.661266 0.286086
O O12 0.000000 0.078022 0.250000
O O13 0.919511 0.000000 0.250000
O O14 0.943603 0.054973 0.000000
O O15 0.220165 0.363778 0.500000
O O16 0.500000 0.886016 0.250000
O O17 0.441633 0.889939 0.500000
#
# Coordination Sequence:
#
# PCOD8294655 Si02
#       6
#    16  16  16  16  16  16
#     4  11  22  37  58  82 111 148 189 234 284 335
#     4   9  19  36  56  81 116 153 187 230 280 328
#     4  11  22  36  59  89 117 149 189 228 272 332
#     4  11  23  42  64  85 113 146 183 229 281 334
#     4   9  20  38  57  81 116 152 187 231 280 330
#     4  10  21  38  58  82 113 148 189 235 283 334
#
# _framework density 19.688226
#
# number of rings (size 3 to 8) (size 9 to 14) (size 15 to 20)
#    0.000    1.833    0.000    6.000    0.000    6.333 
#    0.000    3.333    0.000    0.000    0.000    0.000 
#    0.000    0.000    0.000    0.000    0.000    0.000 
#
# Total GULP energy -595349.081594 kJ/mol
# GULP energy per Si atom -12403.105867 kJ/mol
# Density = 1.964341 g / cm^3
# Si number density = 19.688226 Si / 1000 Ang^3
#
#
#
# Elastic Constant Matrix: (Units=GPa)
#
#
# Indices 1 2 3 4 5 6 
#
# 1 22.7063 5.4112 9.2213 0.0000 0.0000 0.0000
# 2 5.4112 96.8047 36.6439 0.0000 0.0000 0.0000
# 3 9.2213 36.6439 106.3156 0.0000 0.0000 0.0000
# 4 0.0000 0.0000 0.0000 37.0537 0.0000 0.0000
# 5 0.0000 0.0000 0.0000 0.0000 32.2011 0.0000
# 6 0.0000 0.0000 0.0000 0.0000 0.0000 19.1804
#
#
#
# Elastic Compliance Matrix: (Units=1/GPa)
#
#
# Indices 1 2 3 4 5 6 
#
# 1 0.045772 -0.001214 -0.003552 0.000000 0.000000 0.000000
# 2 -0.001214 0.011912 -0.004000 0.000000 0.000000 0.000000
# 3 -0.003552 -0.004000 0.011093 0.000000 0.000000 0.000000
# 4 0.000000 0.000000 0.000000 0.026988 0.000000 0.000000
# 5 0.000000 0.000000 0.000000 0.000000 0.031055 0.000000
# 6 0.000000 0.000000 0.000000 0.000000 0.000000 0.052136
#
#
# Mechanical properties :
#
#
# Convention : Reuss Voigt Hill
#
# Bulk Modulus (GPa) = 19.51411 36.48659 28.00035
# Shear Modulus (GPa) = 23.41143 29.32373 26.36758
#
# Velocity S-wave (km/s) = 3.45209 3.86347 3.66356
# Velocity P-wave (km/s) = 5.08156 6.20276 5.66994
#
# Compressibility (1/GPa) = 0.05124497
#
# Stress axis : x y z
#
# Youngs Moduli (GPa) = 21.84723 83.94701 90.14814
#
# Poissons Ratio (x) = 0.10193 0.32017
# Poissons Ratio (y) = 0.02653 0.36064
# Poissons Ratio (z) = 0.07759 0.33583
#
# Static dielectric constant tensor:
#      x y z
#    x 3.523240 0.000000 0.000000 
#    y 0.000000 3.384420 0.000000 
#    z 0.000000 0.000000 3.593770 
# 
# 
# High freq. dielectric constant tensor:
#      x y z
#    x 1.762920 0.000000 0.000000 
#    y 0.000000 1.771700 0.000000 
#    z 0.000000 0.000000 1.776350 
# 
# From -- ./inp_files/6978.got.cif
#   From: 2010.03.12/outbox.cif.g09.slc.cpg/sg72_4_cif.got.tgz:6978.got - 2010.04.16 14:54:00.
