data_PCOD8294433
_publ_section_title
;
Structure prediction by ZEFSAII (Michael W. Deem and Ramdas Pophale) SiO2 
 PCOD8294433
Probable space group: I B A M
;
_chemical_formula_sum "Si O2"
_cell_formula_units_Z 68
_cell_length_a 21.269041
_cell_length_b 15.640732
_cell_length_c 10.170248
_cell_angle_alpha 90.000000
_cell_angle_beta 90.000000
_cell_angle_gamma 90.000000
_cell_volume 3383.268975
_symmetry_space_group_name_H-M "I B A M"
_symmetry_group_IT_number 72
_symmetry_cell_setting 'orthorhombic'
loop_
_space_group_symop_operation_xyz
x,y,z
-x,-y,z
x,-y,1/2-z
-x,y,1/2-z
-x,-y,-z
x,y,-z
-x,y,1/2+z
x,-y,1/2+z
1/2+x,1/2+y,1/2+z
1/2-x,1/2-y,1/2+z
1/2+x,1/2-y,-z
1/2-x,1/2+y,-z
1/2-x,1/2-y,1/2-z
1/2+x,1/2+y,1/2-z
1/2-x,1/2+y,z
1/2+x,1/2-y,z
loop_
_atom_site_type_symbol
_atom_site_label
_atom_site_fract_x
_atom_site_fract_y
_atom_site_fract_z
Si Si1 0.107497 0.526696 0.000000
Si Si2 0.510233 0.125984 0.000000
Si Si3 0.409721 0.639670 0.647546
Si Si4 0.733529 0.333481 0.341885
Si Si5 0.309586 0.000000 0.250000
Si Si6 0.000000 0.730298 0.750000
Si Si7 0.000000 0.000000 0.750000
O O1 0.064370 0.610040 0.000000
O O2 0.148928 0.530358 0.129100
O O3 0.057868 0.451279 0.000000
O O4 0.525111 0.176059 0.869521
O O5 0.415779 0.671246 0.500000
O O6 0.336864 0.632879 0.686627
O O7 0.438185 0.713705 0.734557
O O8 0.451510 0.554206 0.661791
O O9 0.744090 0.314113 0.500000
O O10 0.750000 0.250000 0.250000
O O11 0.772150 0.416322 0.296694
#
# Coordination Sequence:
#
# PCOD8294433 Si02
#       7
#     8   8  16  16   8   8   4
#     4  11  26  42  70  92 136 173 224 264 336 393
#     4  11  24  42  62  99 130 176 210 275 322 400
#     4  10  22  41  63  94 128 170 213 274 333 397
#     4  11  27  45  69 100 136 182 228 276 340 406
#     4  12  25  47  68 101 133 184 224 286 328 408
#     4  11  22  38  68  93 132 166 218 265 334 386
#     4  10  20  40  68  96 122 168 220 282 336 390
#
# _framework density 20.098904000000001
#
# number of rings (size 3 to 8) (size 9 to 14) (size 15 to 20)
#    0.000    1.176    2.353    2.471    8.235    1.882 
#    0.000    0.000    0.000    0.000    0.000    0.000 
#    0.000    0.000    0.000    0.000    0.000    0.000 
#
# Total GULP energy -421224.245559 kJ/mol
# GULP energy per Si atom -12388.948399 kJ/mol
# Density = 2.005316 g / cm^3
# Si number density = 20.098904 Si / 1000 Ang^3
#
#
#
# Elastic Constant Matrix: (Units=GPa)
#
#
# Indices 1 2 3 4 5 6 
#
# 1 150.8249 55.8479 65.4063 0.0000 0.0000 0.0000
# 2 55.8479 111.1624 51.9158 0.0000 0.0000 0.0000
# 3 65.4063 51.9158 148.5078 0.0000 0.0000 0.0000
# 4 0.0000 0.0000 0.0000 -35.6723 0.0000 0.0000
# 5 0.0000 0.0000 0.0000 0.0000 45.0549 0.0000
# 6 0.0000 0.0000 0.0000 0.0000 0.0000 10.5120
#
#
#
# Elastic Compliance Matrix: (Units=1/GPa)
#
#
# Indices 1 2 3 4 5 6 
#
# 1 0.009064 -0.003214 -0.002869 0.000000 0.000000 0.000000
# 2 -0.003214 0.011891 -0.002741 0.000000 0.000000 0.000000
# 3 -0.002869 -0.002741 0.008955 0.000000 0.000000 0.000000
# 4 0.000000 0.000000 0.000000 -0.028033 0.000000 0.000000
# 5 0.000000 0.000000 0.000000 0.000000 0.022195 0.000000
# 6 0.000000 0.000000 0.000000 0.000000 0.000000 0.095129
#
#
# Mechanical properties :
#
#
# Convention : Reuss Voigt Hill
#
# Bulk Modulus (GPa) = 81.54885 84.09277 82.82081
# Shear Modulus (GPa) = 35.47677 19.80061 27.63869
#
# Velocity S-wave (km/s) = 4.20588 3.14213 3.71230
# Velocity P-wave (km/s) = 8.01547 7.42255 7.72470
#
# Compressibility (1/GPa) = 0.01226259
#
# Stress axis : x y z
#
# Youngs Moduli (GPa) = 110.32248 84.09785 111.66575
#
# Poissons Ratio (x) = 0.27031 0.32031
# Poissons Ratio (y) = 0.35460 0.30610
# Poissons Ratio (z) = 0.31646 0.23053
#
# Static dielectric constant tensor:
#      x y z
#    x 4.064700 0.000000 0.000000 
#    y 0.000000 3.835760 0.000000 
#    z 0.000000 0.000000 3.913500 
# 
# 
# High freq. dielectric constant tensor:
#      x y z
#    x 1.802740 0.000000 0.000000 
#    y 0.000000 1.796280 0.000000 
#    z 0.000000 0.000000 1.797430 
# 
# From -- ./inp_files/14548.got.cif
#   From: 2010.03.12/outbox.cif.g09.slc.cpg/sg72_8_cif.got.tgz:14548.got - 2010.04.16 14:54:00.
