data_PCOD8294128
_publ_section_title
;
Structure prediction by ZEFSAII (Michael W. Deem and Ramdas Pophale) SiO2 
 PCOD8294128
Probable space group: I B A M
;
_chemical_formula_sum "Si O2"
_cell_formula_units_Z 64
_cell_length_a 15.926026
_cell_length_b 24.016726
_cell_length_c 9.385180
_cell_angle_alpha 90.000000
_cell_angle_beta 90.000000
_cell_angle_gamma 90.000000
_cell_volume 3589.746909
_symmetry_space_group_name_H-M "I B A M"
_symmetry_group_IT_number 72
_symmetry_cell_setting 'orthorhombic'
loop_
_space_group_symop_operation_xyz
x,y,z
-x,-y,z
x,-y,1/2-z
-x,y,1/2-z
-x,-y,-z
x,y,-z
-x,y,1/2+z
x,-y,1/2+z
1/2+x,1/2+y,1/2+z
1/2-x,1/2-y,1/2+z
1/2+x,1/2-y,-z
1/2-x,1/2+y,-z
1/2-x,1/2-y,1/2-z
1/2+x,1/2+y,1/2-z
1/2-x,1/2+y,z
1/2+x,1/2-y,z
loop_
_atom_site_type_symbol
_atom_site_label
_atom_site_fract_x
_atom_site_fract_y
_atom_site_fract_z
Si Si1 0.906217 0.212270 0.279227
Si Si2 0.531893 0.923363 0.500000
Si Si3 0.658027 0.931909 0.000000
Si Si4 0.897148 0.500000 0.750000
Si Si5 0.296666 0.659575 0.000000
Si Si6 0.301868 0.728253 0.500000
Si Si7 0.877763 0.306089 0.500000
O O1 0.857515 0.163616 0.363516
O O2 0.907293 0.271365 0.361920
O O3 0.000000 0.191612 0.250000
O O4 0.859451 0.219942 0.133630
O O5 0.434605 0.903430 0.500000
O O6 0.546828 0.959944 0.356107
O O7 0.586798 0.868003 0.500000
O O8 0.664890 0.966683 0.146027
O O9 0.740171 0.894522 0.000000
O O10 0.232090 0.709830 0.000000
O O11 0.222976 0.686157 0.500000
#
# Coordination Sequence:
#
# PCOD8294128 Si02
#       7
#    16   8   8   8   8   8   8
#     4  10  21  37  54  80 115 147 182 224 273 326
#     4  11  22  36  57  81 111 155 185 219 273 325
#     4  11  22  37  58  79 117 142 187 226 272 325
#     4  10  23  40  54  80 115 150 183 232 268 320
#     4  10  22  35  55  83 108 146 181 227 271 327
#     4  10  20  36  52  79 117 140 185 234 255 320
#     4  10  22  34  54  84 111 152 189 212 271 328
#
# _framework density 17.828555000000001
#
# number of rings (size 3 to 8) (size 9 to 14) (size 15 to 20)
#    0.000    2.000    0.000    7.500   10.500    0.000 
#    0.000    0.000    0.000    0.000    0.000    2.625 
#    0.000    0.000    0.000    0.000    0.000    0.000 
#
# Total GULP energy -396555.804372 kJ/mol
# GULP energy per Si atom -12392.368887 kJ/mol
# Density = 1.778798 g / cm^3
# Si number density = 17.828555 Si / 1000 Ang^3
#
#
#
# Elastic Constant Matrix: (Units=GPa)
#
#
# Indices 1 2 3 4 5 6 
#
# 1 157.9852 64.6740 73.6238 0.0000 0.0000 0.0000
# 2 64.6740 100.9101 49.1773 0.0001 0.0000 0.0000
# 3 73.6238 49.1773 165.4084 0.0002 -0.0001 0.0000
# 4 0.0000 0.0001 0.0002 195.9308 -0.0001 0.0001
# 5 0.0000 0.0000 -0.0001 -0.0001 31.0058 0.0000
# 6 0.0000 0.0000 0.0000 0.0001 0.0000 32.1455
#
#
#
# Elastic Compliance Matrix: (Units=1/GPa)
#
#
# Indices 1 2 3 4 5 6 
#
# 1 0.009615 -0.004768 -0.002862 0.000000 0.000000 0.000000
# 2 -0.004768 0.013953 -0.002026 0.000000 0.000000 0.000000
# 3 -0.002862 -0.002026 0.007922 0.000000 0.000000 0.000000
# 4 0.000000 0.000000 0.000000 0.005104 0.000000 0.000000
# 5 0.000000 0.000000 0.000000 0.000000 0.032252 0.000000
# 6 0.000000 0.000000 0.000000 0.000000 0.000000 0.031109
#
#
# Mechanical properties :
#
#
# Convention : Reuss Voigt Hill
#
# Bulk Modulus (GPa) = 82.11589 88.80598 85.46093
# Shear Modulus (GPa) = 40.54283 67.60499 54.07391
#
# Velocity S-wave (km/s) = 4.77386 6.16456 5.51324
# Velocity P-wave (km/s) = 8.74900 10.02937 9.41099
#
# Compressibility (1/GPa) = 0.01217791
#
# Stress axis : x y z
#
# Youngs Moduli (GPa) = 104.00078 71.66989 126.22916
#
# Poissons Ratio (x) = 0.34169 0.36131
# Poissons Ratio (y) = 0.49583 0.25577
# Poissons Ratio (z) = 0.29769 0.14522
#
# Static dielectric constant tensor:
#      x y z
#    x 3.399160 0.000000 0.000000 
#    y 0.000000 3.068780 0.000000 
#    z 0.000000 0.000000 3.711960 
# 
# 
# High freq. dielectric constant tensor:
#      x y z
#    x 1.688210 0.000000 0.000000 
#    y 0.000000 1.650410 0.000000 
#    z 0.000000 0.000000 1.722360 
# 
# From -- ./inp_files/3516.got.cif
#   From: 2010.03.12/outbox.cif.g09.slc.cpg/sg72_2_cif.got.tgz:3516.got - 2010.04.16 14:54:00.
