data_PCOD8294005
_publ_section_title
;
Structure prediction by ZEFSAII (Michael W. Deem and Ramdas Pophale) SiO2 
 PCOD8294005
Probable space group: I B A M
;
_chemical_formula_sum "Si O2"
_cell_formula_units_Z 120
_cell_length_a 31.526322
_cell_length_b 22.702906
_cell_length_c 9.380869
_cell_angle_alpha 90.000000
_cell_angle_beta 90.000000
_cell_angle_gamma 90.000000
_cell_volume 6714.254969
_symmetry_space_group_name_H-M "I B A M"
_symmetry_group_IT_number 72
_symmetry_cell_setting 'orthorhombic'
loop_
_space_group_symop_operation_xyz
x,y,z
-x,-y,z
x,-y,1/2-z
-x,y,1/2-z
-x,-y,-z
x,y,-z
-x,y,1/2+z
x,-y,1/2+z
1/2+x,1/2+y,1/2+z
1/2-x,1/2-y,1/2+z
1/2+x,1/2-y,-z
1/2-x,1/2+y,-z
1/2-x,1/2-y,1/2-z
1/2+x,1/2+y,1/2-z
1/2-x,1/2+y,z
1/2+x,1/2-y,z
loop_
_atom_site_type_symbol
_atom_site_label
_atom_site_fract_x
_atom_site_fract_y
_atom_site_fract_z
Si Si1 0.455710 0.831855 0.830864
Si Si2 0.397726 0.939631 0.165634
Si Si3 0.785611 0.060495 0.165161
Si Si4 0.000000 0.851044 0.750000
Si Si5 0.629047 0.382047 0.334543
Si Si6 0.425190 0.726553 0.340886
Si Si7 0.694208 0.941448 0.663067
Si Si8 0.560630 0.553492 0.659417
O O1 0.500000 0.830212 0.750000
O O2 0.432857 0.892522 0.788717
O O3 0.426681 0.778211 0.775536
O O4 0.462385 0.825250 0.000000
O O5 0.350959 0.909829 0.197279
O O6 0.405408 0.000000 0.250000
O O7 0.402362 0.955222 0.000000
O O8 0.821292 0.109077 0.203032
O O9 0.739154 0.090935 0.198652
O O10 0.792576 0.000000 0.250000
O O11 0.788926 0.043084 0.000000
O O12 0.968849 0.810653 0.656913
O O13 0.972209 0.892502 0.852680
O O14 0.619113 0.395646 0.500000
O O15 0.614659 0.315189 0.299735
O O16 0.603707 0.427936 0.238030
O O17 0.419380 0.752788 0.500000
O O18 0.694307 0.960346 0.500000
O O19 0.694144 0.000000 0.750000
O O20 0.540445 0.500000 0.750000
O O21 0.571353 0.532187 0.500000
#
# Coordination Sequence:
#
# PCOD8294005 Si02
#       8
#    16  16  16   8  16  16  16  16
#     4  11  23  37  55  78 103 131 165 204 246 294
#     4   9  19  35  55  81 109 135 162 194 237 292
#     4   9  16  27  46  72 101 132 166 206 250 296
#     4  10  21  34  52  68  87 116 166 210 256 298
#     4   9  19  33  48  69  97 129 167 211 254 297
#     4  10  20  35  53  71  94 125 167 212 251 293
#     4   8  14  27  48  73 101 132 164 197 237 287
#     4  11  22  33  46  66  93 127 164 207 259 309
#
# _framework density 17.872423000000001
#
# number of rings (size 3 to 8) (size 9 to 14) (size 15 to 20)
#    0.000    2.400    0.667    1.800    0.000    7.200 
#    0.000    1.333    0.000    0.800    0.000    0.000 
#    0.000    0.000    0.000    0.000    0.000    0.133 
#
# Total GULP energy -743380.618835 kJ/mol
# GULP energy per Si atom -12389.676981 kJ/mol
# Density = 1.783174 g / cm^3
# Si number density = 17.872423 Si / 1000 Ang^3
#
#
#
# Elastic Constant Matrix: (Units=GPa)
#
#
# Indices 1 2 3 4 5 6 
#
# 1 84.1011 47.0822 35.3297 0.0000 0.0000 0.0000
# 2 47.0822 91.5079 42.8212 0.0000 0.0000 0.0000
# 3 35.3297 42.8212 82.1755 0.0000 0.0000 0.0000
# 4 0.0000 0.0000 0.0000 23.6422 0.0000 0.0000
# 5 0.0000 0.0000 0.0000 0.0000 18.9168 0.0000
# 6 0.0000 0.0000 0.0000 0.0000 0.0000 19.1563
#
#
#
# Elastic Compliance Matrix: (Units=1/GPa)
#
#
# Indices 1 2 3 4 5 6 
#
# 1 0.017534 -0.007266 -0.003752 0.000000 0.000000 0.000000
# 2 -0.007266 0.017463 -0.005976 0.000000 0.000000 0.000000
# 3 -0.003752 -0.005976 0.016896 0.000000 0.000000 0.000000
# 4 0.000000 0.000000 0.000000 0.042297 0.000000 0.000000
# 5 0.000000 0.000000 0.000000 0.000000 0.052863 0.000000
# 6 0.000000 0.000000 0.000000 0.000000 0.000000 0.052202
#
#
# Mechanical properties :
#
#
# Convention : Reuss Voigt Hill
#
# Bulk Modulus (GPa) = 55.84951 56.47230 56.16091
# Shear Modulus (GPa) = 20.90189 21.17983 21.04086
#
# Velocity S-wave (km/s) = 3.42351 3.44620 3.43487
# Velocity P-wave (km/s) = 6.85158 6.89210 6.87187
#
# Compressibility (1/GPa) = 0.01790526
#
# Stress axis : x y z
#
# Youngs Moduli (GPa) = 57.03090 57.26445 59.18406
#
# Poissons Ratio (x) = 0.41607 0.22208
# Poissons Ratio (y) = 0.41437 0.35369
# Poissons Ratio (z) = 0.21400 0.34221
#
# Static dielectric constant tensor:
#      x y z
#    x 3.920700 0.000000 0.000000 
#    y 0.000000 3.055130 0.000000 
#    z 0.000000 0.000000 3.262630 
# 
# 
# High freq. dielectric constant tensor:
#      x y z
#    x 1.698540 0.000000 0.000000 
#    y 0.000000 1.654750 0.000000 
#    z 0.000000 0.000000 1.695320 
# 
# From -- ./inp_files/9479.got.cif
#   From: 2010.03.12/outbox.cif.g09.slc.cpg/sg72_5_cif.got.tgz:9479.got - 2010.04.16 14:54:00.
