data_PCOD8294830
_publ_section_title
;
Structure prediction by ZEFSAII (Michael W. Deem and Ramdas Pophale) SiO2 
 PCOD8294830
Probable space group: I B A M
;
_chemical_formula_sum "Si O2"
_cell_formula_units_Z 64
_cell_length_a 18.361329
_cell_length_b 15.883800
_cell_length_c 10.484845
_cell_angle_alpha 90.000000
_cell_angle_beta 90.000000
_cell_angle_gamma 90.000000
_cell_volume 3057.880694
_symmetry_space_group_name_H-M "I B A M"
_symmetry_group_IT_number 72
_symmetry_cell_setting 'orthorhombic'
loop_
_space_group_symop_operation_xyz
x,y,z
-x,-y,z
x,-y,1/2-z
-x,y,1/2-z
-x,-y,-z
x,y,-z
-x,y,1/2+z
x,-y,1/2+z
1/2+x,1/2+y,1/2+z
1/2-x,1/2-y,1/2+z
1/2+x,1/2-y,-z
1/2-x,1/2+y,-z
1/2-x,1/2-y,1/2-z
1/2+x,1/2+y,1/2-z
1/2-x,1/2+y,z
1/2+x,1/2-y,z
loop_
_atom_site_type_symbol
_atom_site_label
_atom_site_fract_x
_atom_site_fract_y
_atom_site_fract_z
Si Si1 0.927454 0.112422 0.500000
Si Si2 0.342236 0.661435 0.248876
Si Si3 0.908604 0.085343 0.000000
Si Si4 0.538459 0.090940 0.635893
Si Si5 0.688811 0.158263 0.353206
O O1 0.895264 0.152161 0.628522
O O2 0.013417 0.130924 0.500000
O O3 0.913631 0.013947 0.500000
O O4 0.366689 0.609717 0.371757
O O5 0.340328 0.759633 0.281293
O O6 0.262328 0.625590 0.212600
O O7 0.500000 0.143427 0.750000
O O8 0.524250 0.136687 0.500000
O O9 0.625724 0.086732 0.658458
O O10 0.500000 0.000000 0.632617
O O11 0.705775 0.180545 0.500000
#
# Coordination Sequence:
#
# PCOD8294830 Si02
#       5
#     8  16   8  16  16
#     4  11  24  43  66  94 131 164 215 276 336 395
#     4  11  22  42  66  97 125 178 218 268 333 387
#     4  11  24  43  64  98 131 162 215 276 334 401
#     4   9  19  39  59  86 125 167 207 259 316 377
#     4  10  21  41  66  93 136 166 221 272 311 398
#
# _framework density 20.929528999999999
#
# number of rings (size 3 to 8) (size 9 to 14) (size 15 to 20)
#    0.000    1.750    2.500    1.500    0.000    4.000 
#   13.500    0.000    0.000    0.000    0.000    0.000 
#    0.000    0.000    0.000    0.000    0.000    0.000 
#
# Total GULP energy -396561.740834 kJ/mol
# GULP energy per Si atom -12392.554401 kJ/mol
# Density = 2.088189 g / cm^3
# Si number density = 20.929529 Si / 1000 Ang^3
#
#
#
# Elastic Constant Matrix: (Units=GPa)
#
#
# Indices 1 2 3 4 5 6 
#
# 1 185.3391 49.1707 104.7233 0.0000 0.0000 0.0000
# 2 49.1707 49.9612 26.4158 0.0000 0.0000 0.0000
# 3 104.7233 26.4158 218.9222 0.0000 0.0000 0.0000
# 4 0.0000 0.0000 0.0000 17.2930 0.0000 0.0000
# 5 0.0000 0.0000 0.0000 0.0000 43.7094 0.0000
# 6 0.0000 0.0000 0.0000 0.0000 0.0000 35.5604
#
#
#
# Elastic Compliance Matrix: (Units=1/GPa)
#
#
# Indices 1 2 3 4 5 6 
#
# 1 0.009371 -0.007320 -0.003600 0.000000 0.000000 0.000000
# 2 -0.007320 0.027097 0.000232 0.000000 0.000000 0.000000
# 3 -0.003600 0.000232 0.006262 0.000000 0.000000 0.000000
# 4 0.000000 0.000000 0.000000 0.057827 0.000000 0.000000
# 5 0.000000 0.000000 0.000000 0.000000 0.022878 0.000000
# 6 0.000000 0.000000 0.000000 0.000000 0.000000 0.028121
#
#
# Mechanical properties :
#
#
# Convention : Reuss Voigt Hill
#
# Bulk Modulus (GPa) = 46.82764 90.53803 68.68283
# Shear Modulus (GPa) = 27.77005 37.57342 32.67173
#
# Velocity S-wave (km/s) = 3.64653 4.24162 3.95528
# Velocity P-wave (km/s) = 6.33657 8.20615 7.33120
#
# Compressibility (1/GPa) = 0.02135491
#
# Stress axis : x y z
#
# Youngs Moduli (GPa) = 106.70722 36.90450 159.69910
#
# Poissons Ratio (x) = 0.27014 0.57486
# Poissons Ratio (y) = 0.78109 -0.03704
# Poissons Ratio (z) = 0.38411 -0.00856
#
# Static dielectric constant tensor:
#      x y z
#    x 4.139620 0.000000 0.000000 
#    y 0.000000 3.394060 0.000000 
#    z 0.000000 0.000000 5.090480 
# 
# 
# High freq. dielectric constant tensor:
#      x y z
#    x 1.834200 0.000000 0.000000 
#    y 0.000000 1.786090 0.000000 
#    z 0.000000 0.000000 1.851970 
# 
# From -- ./inp_files/13516.got.cif
#   From: 2010.03.12/outbox.cif.g09.slc.cpg/sg72_7_cif.got.tgz:13516.got - 2010.04.16 14:54:00.
