data_PCOD8294838
_publ_section_title
;
Structure prediction by ZEFSAII (Michael W. Deem and Ramdas Pophale) SiO2 
 PCOD8294838
Probable space group: I B A M
;
_chemical_formula_sum "Si O2"
_cell_formula_units_Z 96
_cell_length_a 10.025413
_cell_length_b 24.593562
_cell_length_c 17.340201
_cell_angle_alpha 90.000000
_cell_angle_beta 90.000000
_cell_angle_gamma 90.000000
_cell_volume 4275.410643
_symmetry_space_group_name_H-M "I B A M"
_symmetry_group_IT_number 72
_symmetry_cell_setting 'orthorhombic'
loop_
_space_group_symop_operation_xyz
x,y,z
-x,-y,z
x,-y,1/2-z
-x,y,1/2-z
-x,-y,-z
x,y,-z
-x,y,1/2+z
x,-y,1/2+z
1/2+x,1/2+y,1/2+z
1/2-x,1/2-y,1/2+z
1/2+x,1/2-y,-z
1/2-x,1/2+y,-z
1/2-x,1/2-y,1/2-z
1/2+x,1/2+y,1/2-z
1/2-x,1/2+y,z
1/2+x,1/2-y,z
loop_
_atom_site_type_symbol
_atom_site_label
_atom_site_fract_x
_atom_site_fract_y
_atom_site_fract_z
Si Si1 0.811319 0.516610 0.588506
Si Si2 0.714595 0.407020 0.663250
Si Si3 0.886787 0.297391 0.089233
Si Si4 0.621973 0.899829 0.194481
Si Si5 0.464103 0.437311 0.584449
Si Si6 0.192150 0.701968 0.588546
O O1 0.858651 0.514857 0.500000
O O2 0.775842 0.456228 0.613731
O O3 0.920419 0.546623 0.642951
O O4 0.693040 0.561729 0.601913
O O5 0.746972 0.414140 0.753595
O O6 0.554311 0.406026 0.648035
O O7 0.784072 0.351820 0.637371
O O8 0.848702 0.348855 0.140324
O O9 0.791161 0.248920 0.117663
O O10 0.039880 0.278894 0.100945
O O11 0.858785 0.312115 0.000000
O O12 0.500000 0.886077 0.250000
O O13 0.500000 0.500000 0.580899
O O14 0.492375 0.410831 0.500000
O O15 0.221649 0.688051 0.500000
#
# Coordination Sequence:
#
# PCOD8294838 Si02
#       6
#    16  16  16  16  16  16
#     4  10  22  41  66  93 131 177 223 271 330 407
#     4  11  21  38  65  98 134 166 211 277 343 400
#     4  10  23  45  68  93 129 176 231 284 336 405
#     4  12  25  43  59  93 134 179 217 271 326 404
#     4   8  16  34  60  91 124 163 210 260 317 392
#     4  10  21  41  69  97 124 168 227 280 336 403
#
# _framework density 22.453982
#
# number of rings (size 3 to 8) (size 9 to 14) (size 15 to 20)
#    0.000    1.833    1.667    3.500    0.000    4.000 
#    0.000    6.667    0.000    0.000    0.000    0.000 
#    0.000    0.000    0.000    0.000    0.000    0.000 
#
# Total GULP energy -595012.333675 kJ/mol
# GULP energy per Si atom -12396.090285 kJ/mol
# Density = 2.240288 g / cm^3
# Si number density = 22.453982 Si / 1000 Ang^3
#
#
#
# Elastic Constant Matrix: (Units=GPa)
#
#
# Indices 1 2 3 4 5 6 
#
# 1 86.7976 30.9474 22.7550 0.0000 0.0000 0.0000
# 2 30.9474 125.0385 63.9094 0.0001 0.0000 0.0000
# 3 22.7550 63.9094 118.2758 0.0000 0.0000 0.0000
# 4 0.0000 0.0001 0.0000 28.1964 0.0000 0.0000
# 5 0.0000 0.0000 0.0000 0.0000 24.8609 0.0000
# 6 0.0000 0.0000 0.0000 0.0000 0.0000 36.1282
#
#
#
# Elastic Compliance Matrix: (Units=1/GPa)
#
#
# Indices 1 2 3 4 5 6 
#
# 1 0.012727 -0.002623 -0.001031 0.000000 0.000000 0.000000
# 2 -0.002623 0.011590 -0.005758 0.000000 0.000000 0.000000
# 3 -0.001031 -0.005758 0.011764 0.000000 0.000000 0.000000
# 4 0.000000 0.000000 0.000000 0.035466 0.000000 0.000000
# 5 0.000000 0.000000 0.000000 0.000000 0.040224 0.000000
# 6 0.000000 0.000000 0.000000 0.000000 0.000000 0.027679
#
#
# Mechanical properties :
#
#
# Convention : Reuss Voigt Hill
#
# Bulk Modulus (GPa) = 57.94766 62.81506 60.38136
# Shear Modulus (GPa) = 30.48318 32.00377 31.24348
#
# Velocity S-wave (km/s) = 3.68854 3.77942 3.73425
# Velocity P-wave (km/s) = 6.63353 6.86156 6.74851
#
# Compressibility (1/GPa) = 0.01725695
#
# Stress axis : x y z
#
# Youngs Moduli (GPa) = 78.57583 86.28456 85.00249
#
# Poissons Ratio (x) = 0.22630 0.08766
# Poissons Ratio (y) = 0.20609 0.48942
# Poissons Ratio (z) = 0.08103 0.49680
#
# Static dielectric constant tensor:
#      x y z
#    x 4.719090 0.000000 0.000000 
#    y 0.000000 3.776570 0.000000 
#    z 0.000000 0.000000 4.240320 
# 
# 
# High freq. dielectric constant tensor:
#      x y z
#    x 1.891030 0.000000 0.000000 
#    y 0.000000 1.868290 0.000000 
#    z 0.000000 0.000000 1.889320 
# 
# From -- ./inp_files/29405.got.cif
#   From: 2010.03.12/outbox.cif.g09.slc.cpg/sg72_15_cif.got.tgz:29405.got - 2010.04.16 14:54:00.
