data_PCOD8294318
_publ_section_title
;
Structure prediction by ZEFSAII (Michael W. Deem and Ramdas Pophale) SiO2 
 PCOD8294318
Probable space group: I B A M
;
_chemical_formula_sum "Si O2"
_cell_formula_units_Z 68
_cell_length_a 17.989062
_cell_length_b 18.737885
_cell_length_c 10.308846
_cell_angle_alpha 90.000000
_cell_angle_beta 90.000000
_cell_angle_gamma 90.000000
_cell_volume 3474.874626
_symmetry_space_group_name_H-M "I B A M"
_symmetry_group_IT_number 72
_symmetry_cell_setting 'orthorhombic'
loop_
_space_group_symop_operation_xyz
x,y,z
-x,-y,z
x,-y,1/2-z
-x,y,1/2-z
-x,-y,-z
x,y,-z
-x,y,1/2+z
x,-y,1/2+z
1/2+x,1/2+y,1/2+z
1/2-x,1/2-y,1/2+z
1/2+x,1/2-y,-z
1/2-x,1/2+y,-z
1/2-x,1/2-y,1/2-z
1/2+x,1/2+y,1/2-z
1/2-x,1/2+y,z
1/2+x,1/2-y,z
loop_
_atom_site_type_symbol
_atom_site_label
_atom_site_fract_x
_atom_site_fract_y
_atom_site_fract_z
Si Si1 0.845239 0.404031 0.000000
Si Si2 0.764409 0.583851 0.758042
Si Si3 0.000000 0.761538 0.250000
Si Si4 0.000000 0.000000 0.750000
Si Si5 0.361201 0.927539 0.000000
Si Si6 0.002841 0.331320 0.000000
Si Si7 0.104596 0.120049 0.349637
O O1 0.797264 0.383513 0.874008
O O2 0.865896 0.487198 0.000000
O O3 0.918138 0.356087 0.000000
O O4 0.757176 0.500000 0.750000
O O5 0.818915 0.603944 0.875373
O O6 0.682406 0.613509 0.777213
O O7 0.021818 0.713903 0.372691
O O8 0.069552 0.810848 0.215861
O O9 0.947250 0.049923 0.837612
O O10 0.445545 0.900954 0.000000
O O11 0.118641 0.134248 0.500000
#
# Coordination Sequence:
#
# PCOD8294318 Si02
#       7
#     8  16   8   4   8   8  16
#     4  10  23  39  64  99 122 155 215 268 322 369
#     4  10  20  37  63  96 129 157 199 264 324 372
#     4  11  26  41  63  88 127 174 214 248 299 374
#     4  10  22  32  68  98 122 172 202 250 322 358
#     4  10  21  39  68  93 118 167 207 266 330 361
#     4  12  23  46  62  87 126 170 216 268 304 363
#     4  11  21  41  61  95 132 164 209 251 305 380
#
# _framework density 19.569051000000002
#
# number of rings (size 3 to 8) (size 9 to 14) (size 15 to 20)
#    0.000    1.412    3.529    2.118    0.000    0.941 
#    2.118   11.765    0.000    0.000    0.000    0.000 
#    0.000    0.000    0.000    0.000    0.000    0.000 
#
# Total GULP energy -421710.248756 kJ/mol
# GULP energy per Si atom -12403.242610 kJ/mol
# Density = 1.952451 g / cm^3
# Si number density = 19.569051 Si / 1000 Ang^3
#
#
#
# Elastic Constant Matrix: (Units=GPa)
#
#
# Indices 1 2 3 4 5 6 
#
# 1 151.2335 48.9641 69.9988 0.0000 0.0000 0.0000
# 2 48.9641 63.1782 41.4902 0.0000 0.0000 0.0000
# 3 69.9988 41.4902 174.9549 0.0000 0.0000 0.0000
# 4 0.0000 0.0000 0.0000 130.1751 0.0000 0.0000
# 5 0.0000 0.0000 0.0000 0.0000 28.2036 0.0000
# 6 0.0000 0.0000 0.0000 0.0000 0.0000 27.8082
#
#
#
# Elastic Compliance Matrix: (Units=1/GPa)
#
#
# Indices 1 2 3 4 5 6 
#
# 1 0.009653 -0.005857 -0.002473 0.000000 0.000000 0.000000
# 2 -0.005857 0.022302 -0.002945 0.000000 0.000000 0.000000
# 3 -0.002473 -0.002945 0.007404 0.000000 0.000000 0.000000
# 4 0.000000 0.000000 0.000000 0.007682 0.000000 0.000000
# 5 0.000000 0.000000 0.000000 0.000000 0.035456 0.000000
# 6 0.000000 0.000000 0.000000 0.000000 0.000000 0.035961
#
#
# Mechanical properties :
#
#
# Convention : Reuss Voigt Hill
#
# Bulk Modulus (GPa) = 59.49784 78.91921 69.20852
# Shear Modulus (GPa) = 34.10343 52.49827 43.30085
#
# Velocity S-wave (km/s) = 4.17912 5.18512 4.70906
# Velocity P-wave (km/s) = 7.33190 8.73289 8.06288
#
# Compressibility (1/GPa) = 0.01680733
#
# Stress axis : x y z
#
# Youngs Moduli (GPa) = 103.58994 44.83890 135.06599
#
# Poissons Ratio (x) = 0.26264 0.33405
# Poissons Ratio (y) = 0.60676 0.39782
# Poissons Ratio (z) = 0.25620 0.13207
#
# Static dielectric constant tensor:
#      x y z
#    x 3.603630 0.000000 0.000000 
#    y 0.000000 3.442760 0.000000 
#    z 0.000000 0.000000 3.903940 
# 
# 
# High freq. dielectric constant tensor:
#      x y z
#    x 1.772060 0.000000 0.000000 
#    y 0.000000 1.751310 0.000000 
#    z 0.000000 0.000000 1.777170 
# 
# From -- ./inp_files/4467.got.cif
#   From: 2010.03.12/outbox.cif.g09.slc.cpg/sg72_3_cif.got.tgz:4467.got - 2010.04.16 14:54:00.
