data_PCOD8294737
_publ_section_title
;
Structure prediction by ZEFSAII (Michael W. Deem and Ramdas Pophale) SiO2 
 PCOD8294737
Probable space group: I B A M
;
_chemical_formula_sum "Si O2"
_cell_formula_units_Z 64
_cell_length_a 21.099002
_cell_length_b 7.111718
_cell_length_c 17.959335
_cell_angle_alpha 90.000000
_cell_angle_beta 90.000000
_cell_angle_gamma 90.000000
_cell_volume 2694.800952
_symmetry_space_group_name_H-M "I B A M"
_symmetry_group_IT_number 72
_symmetry_cell_setting 'orthorhombic'
loop_
_space_group_symop_operation_xyz
x,y,z
-x,-y,z
x,-y,1/2-z
-x,y,1/2-z
-x,-y,-z
x,y,-z
-x,y,1/2+z
x,-y,1/2+z
1/2+x,1/2+y,1/2+z
1/2-x,1/2-y,1/2+z
1/2+x,1/2-y,-z
1/2-x,1/2+y,-z
1/2-x,1/2-y,1/2-z
1/2+x,1/2+y,1/2-z
1/2-x,1/2+y,z
1/2+x,1/2-y,z
loop_
_atom_site_type_symbol
_atom_site_label
_atom_site_fract_x
_atom_site_fract_y
_atom_site_fract_z
Si Si1 0.388039 0.094051 0.918612
Si Si2 0.719630 0.629568 0.083535
Si Si3 0.432816 0.783982 0.270608
Si Si4 0.341630 0.268599 0.645197
O O1 0.315886 0.169655 0.918399
O O2 0.425464 0.224938 0.859694
O O3 0.389520 0.871212 0.898910
O O4 0.419383 0.121456 0.000000
O O5 0.669623 0.466051 0.104180
O O6 0.774536 0.655758 0.146003
O O7 0.747151 0.591580 0.000000
O O8 0.500000 0.686668 0.250000
O O9 0.373281 0.689873 0.226269
O O10 0.432887 0.000000 0.250000
#
# Coordination Sequence:
#
# PCOD8294737 Si02
#       4
#    16  16  16  16
#     4  10  21  39  61  87 122 161 198 251 310 359
#     4  11  21  35  58  94 130 157 199 247 304 379
#     4   9  21  43  63  88 120 160 215 258 293 364
#     4  11  21  37  62  88 123 164 194 249 311 356
#
# _framework density 23.749434000000001
#
# number of rings (size 3 to 8) (size 9 to 14) (size 15 to 20)
#    0.000    1.750    2.500    2.250    0.000    2.000 
#    4.500   15.000    0.000    3.000    0.000    0.000 
#    0.000    0.000    0.000    0.000    0.000    0.000 
#
# Total GULP energy -396423.631195 kJ/mol
# GULP energy per Si atom -12388.238475 kJ/mol
# Density = 2.369538 g / cm^3
# Si number density = 23.749434 Si / 1000 Ang^3
#
#
#
# Elastic Constant Matrix: (Units=GPa)
#
#
# Indices 1 2 3 4 5 6 
#
# 1 98.0935 6.1232 61.5477 0.0000 0.0000 0.0000
# 2 6.1232 90.3893 18.0228 0.0000 0.0000 0.0000
# 3 61.5477 18.0228 182.6171 0.0000 0.0000 0.0000
# 4 0.0000 0.0000 0.0000 19.4250 0.0000 0.0000
# 5 0.0000 0.0000 0.0000 0.0000 29.1623 0.0000
# 6 0.0000 0.0000 0.0000 0.0000 0.0000 -6.6093
#
#
#
# Elastic Compliance Matrix: (Units=1/GPa)
#
#
# Indices 1 2 3 4 5 6 
#
# 1 0.012928 -0.000007 -0.004357 0.000000 0.000000 0.000000
# 2 -0.000007 0.011285 -0.001111 0.000000 0.000000 0.000000
# 3 -0.004357 -0.001111 0.007054 0.000000 0.000000 0.000000
# 4 0.000000 0.000000 0.000000 0.051480 0.000000 0.000000
# 5 0.000000 0.000000 0.000000 0.000000 0.034291 0.000000
# 6 0.000000 0.000000 0.000000 0.000000 0.000000 -0.151303
#
#
# Mechanical properties :
#
#
# Convention : Reuss Voigt Hill
#
# Bulk Modulus (GPa) = 49.21880 60.27637 54.74758
# Shear Modulus (GPa) = -302.25842 27.42269 -137.41786
#
# Velocity S-wave (km/s) = -11.29363 3.40173 -7.61493
# Velocity P-wave (km/s) = 12.21852 6.39251 7.36301
#
# Compressibility (1/GPa) = 0.02031744
#
# Stress axis : x y z
#
# Youngs Moduli (GPa) = 77.34990 88.61056 141.76531
#
# Poissons Ratio (x) = 0.00063 0.61760
# Poissons Ratio (y) = 0.00055 0.15755
# Poissons Ratio (z) = 0.33698 0.09848
#
# Static dielectric constant tensor:
#      x y z
#    x 4.307100 0.000000 0.000000 
#    y 0.000000 4.246230 0.000000 
#    z 0.000000 0.000000 4.572750 
# 
# 
# High freq. dielectric constant tensor:
#      x y z
#    x 1.905510 0.000000 0.000000 
#    y 0.000000 1.947920 0.000000 
#    z 0.000000 0.000000 1.932690 
# 
# From -- ./inp_files/33066.got.cif
#   From: 2010.03.12/outbox.cif.g09.slc.cpg/sg72_17_cif.got.tgz:33066.got - 2010.04.16 14:54:00.
