data_PCOD8294485
_publ_section_title
;
Structure prediction by ZEFSAII (Michael W. Deem and Ramdas Pophale) SiO2 
 PCOD8294485
Probable space group: I B A M
;
_chemical_formula_sum "Si O2"
_cell_formula_units_Z 88
_cell_length_a 11.061517
_cell_length_b 13.734532
_cell_length_c 27.412770
_cell_angle_alpha 90.000000
_cell_angle_beta 90.000000
_cell_angle_gamma 90.000000
_cell_volume 4164.678481
_symmetry_space_group_name_H-M "I B A M"
_symmetry_group_IT_number 72
_symmetry_cell_setting 'orthorhombic'
loop_
_space_group_symop_operation_xyz
x,y,z
-x,-y,z
x,-y,1/2-z
-x,y,1/2-z
-x,-y,-z
x,y,-z
-x,y,1/2+z
x,-y,1/2+z
1/2+x,1/2+y,1/2+z
1/2-x,1/2-y,1/2+z
1/2+x,1/2-y,-z
1/2-x,1/2+y,-z
1/2-x,1/2-y,1/2-z
1/2+x,1/2+y,1/2-z
1/2-x,1/2+y,z
1/2+x,1/2-y,z
loop_
_atom_site_type_symbol
_atom_site_label
_atom_site_fract_x
_atom_site_fract_y
_atom_site_fract_z
Si Si1 0.000000 0.500000 0.381648
Si Si2 0.136126 0.150145 0.616600
Si Si3 0.791246 0.631700 0.366627
Si Si4 0.639711 0.138219 0.052594
Si Si5 0.642138 0.507254 0.304124
Si Si6 0.599519 0.639336 0.444983
O O1 0.109829 0.451260 0.351968
O O2 0.041796 0.588999 0.414009
O O3 0.148107 0.261671 0.635869
O O4 0.225724 0.132881 0.572286
O O5 0.179938 0.082740 0.661199
O O6 0.008441 0.114411 0.593364
O O7 0.686635 0.611690 0.326247
O O8 0.728126 0.610747 0.419610
O O9 0.592236 0.246625 0.048066
O O10 0.641603 0.087173 0.000000
O O11 0.500000 0.500000 0.299737
O O12 0.699495 0.500000 0.250000
O O13 0.589003 0.591933 0.500000
#
# Coordination Sequence:
#
# PCOD8294485 Si02
#       6
#     8  16  16  16  16  16
#     4  12  21  38  59  90 128 170 209 256 311 376
#     4  11  21  41  67  91 127 168 211 266 322 376
#     4  11  24  41  66  94 131 171 212 264 323 385
#     4  10  21  34  56  90 128 169 208 249 305 374
#     4  11  24  45  70  93 122 162 219 278 329 389
#     4  10  21  38  60  92 130 171 213 252 307 380
#
# _framework density 21.130082999999999
#
# number of rings (size 3 to 8) (size 9 to 14) (size 15 to 20)
#    0.000    1.273    5.455    0.818    0.000    2.909 
#    0.000    1.364    0.000    0.000    0.000    0.000 
#    0.000    0.000    0.000    0.000    0.000    0.000 
#
# Total GULP energy -545102.029460 kJ/mol
# GULP energy per Si atom -12388.682488 kJ/mol
# Density = 2.108199 g / cm^3
# Si number density = 21.130083 Si / 1000 Ang^3
#
#
#
# Elastic Constant Matrix: (Units=GPa)
#
#
# Indices 1 2 3 4 5 6 
#
# 1 57.7226 9.9854 -8.6558 0.0000 0.0000 0.0000
# 2 9.9854 55.4468 18.9811 0.0000 0.0000 0.0000
# 3 -8.6558 18.9811 84.9340 0.0000 0.0000 0.0000
# 4 0.0000 0.0000 0.0000 48.8287 0.0000 0.0000
# 5 0.0000 0.0000 0.0000 0.0000 5.7662 0.0000
# 6 0.0000 0.0000 0.0000 0.0000 0.0000 37.0456
#
#
#
# Elastic Compliance Matrix: (Units=1/GPa)
#
#
# Indices 1 2 3 4 5 6 
#
# 1 0.018496 -0.004306 0.002847 0.000000 0.000000 0.000000
# 2 -0.004306 0.020532 -0.005027 0.000000 0.000000 0.000000
# 3 0.002847 -0.005027 0.013187 0.000000 0.000000 0.000000
# 4 0.000000 0.000000 0.000000 0.020480 0.000000 0.000000
# 5 0.000000 0.000000 0.000000 0.000000 0.173423 0.000000
# 6 0.000000 0.000000 0.000000 0.000000 0.000000 0.026994
#
#
# Mechanical properties :
#
#
# Convention : Reuss Voigt Hill
#
# Bulk Modulus (GPa) = 25.48169 26.52498 26.00333
# Shear Modulus (GPa) = 16.71321 30.18094 23.44707
#
# Velocity S-wave (km/s) = 2.81547 3.78344 3.33476
# Velocity P-wave (km/s) = 4.75970 5.62728 5.21158
#
# Compressibility (1/GPa) = 0.03924387
#
# Stress axis : x y z
#
# Youngs Moduli (GPa) = 54.06575 48.70522 75.82944
#
# Poissons Ratio (x) = 0.20971 -0.21590
# Poissons Ratio (y) = 0.23279 0.38121
# Poissons Ratio (z) = -0.15393 0.24485
#
# Static dielectric constant tensor:
#      x y z
#    x 4.001480 0.000000 0.000000 
#    y 0.000000 4.258440 0.000000 
#    z 0.000000 0.000000 4.005460 
# 
# 
# High freq. dielectric constant tensor:
#      x y z
#    x 1.836010 0.000000 0.000000 
#    y 0.000000 1.826870 0.000000 
#    z 0.000000 0.000000 1.808210 
# 
# From -- ./inp_files/48026.got.cif
#   From: 2010.03.12/outbox.cif.g09.slc.cpg/sg72_25_cif.got.tgz:48026.got - 2010.04.16 14:54:00.
