data_PCOD8294618
_publ_section_title
;
Structure prediction by ZEFSAII (Michael W. Deem and Ramdas Pophale) SiO2 
 PCOD8294618
Probable space group: I B A M
;
_chemical_formula_sum "Si O2"
_cell_formula_units_Z 112
_cell_length_a 12.053067
_cell_length_b 27.959045
_cell_length_c 16.972624
_cell_angle_alpha 90.000000
_cell_angle_beta 90.000000
_cell_angle_gamma 90.000000
_cell_volume 5719.642625
_symmetry_space_group_name_H-M "I B A M"
_symmetry_group_IT_number 72
_symmetry_cell_setting 'orthorhombic'
loop_
_space_group_symop_operation_xyz
x,y,z
-x,-y,z
x,-y,1/2-z
-x,y,1/2-z
-x,-y,-z
x,y,-z
-x,y,1/2+z
x,-y,1/2+z
1/2+x,1/2+y,1/2+z
1/2-x,1/2-y,1/2+z
1/2+x,1/2-y,-z
1/2-x,1/2+y,-z
1/2-x,1/2-y,1/2-z
1/2+x,1/2+y,1/2-z
1/2-x,1/2+y,z
1/2+x,1/2-y,z
loop_
_atom_site_type_symbol
_atom_site_label
_atom_site_fract_x
_atom_site_fract_y
_atom_site_fract_z
Si Si1 0.892287 0.660618 0.405699
Si Si2 0.264453 0.578637 0.088474
Si Si3 0.638319 0.172585 0.092021
Si Si4 0.662383 0.609626 0.907250
Si Si5 0.120594 0.991999 0.158931
Si Si6 0.938973 0.159094 0.410058
Si Si7 0.720196 0.731601 0.663047
O O1 0.883990 0.663537 0.500000
O O2 0.835423 0.611143 0.375603
O O3 0.829010 0.706524 0.371566
O O4 0.016737 0.663247 0.371125
O O5 0.283446 0.528393 0.131366
O O6 0.377766 0.608363 0.093263
O O7 0.232433 0.565280 0.000000
O O8 0.722908 0.132526 0.122381
O O9 0.688086 0.223718 0.110599
O O10 0.624602 0.167972 0.000000
O O11 0.656750 0.561666 0.857712
O O12 0.565578 0.647784 0.886258
O O13 0.659698 0.598003 0.000000
O O14 0.105916 0.000000 0.250000
O O15 0.000000 0.000000 0.117536
O O16 0.930431 0.179923 0.500000
O O17 0.884841 0.195268 0.346087
O O18 0.750000 0.750000 0.750000
#
# Coordination Sequence:
#
# PCOD8294618 Si02
#       7
#    16  16  16  16  16  16  16
#     4   9  20  40  63  84 111 152 202 244 292 350
#     4   9  17  34  61  85 106 146 193 239 287 345
#     4  10  22  40  60  83 114 153 199 248 291 340
#     4  10  21  37  60  89 116 149 199 253 295 341
#     4  11  22  35  54  87 123 154 187 232 304 361
#     4   9  18  35  59  84 110 147 198 244 293 343
#     4  11  23  37  56  87 119 155 195 240 293 365
#
# _framework density 19.581643
#
# number of rings (size 3 to 8) (size 9 to 14) (size 15 to 20)
#    0.000    2.143    1.429    2.571    2.000    3.429 
#    0.000    0.714    0.000    4.286    0.000    0.000 
#    0.000    0.000    0.000    0.000    0.000    0.000 
#
# Total GULP energy -694132.308333 kJ/mol
# GULP energy per Si atom -12395.219792 kJ/mol
# Density = 1.953707 g / cm^3
# Si number density = 19.581643 Si / 1000 Ang^3
#
#
#
# Elastic Constant Matrix: (Units=GPa)
#
#
# Indices 1 2 3 4 5 6 
#
# 1 171.7217 81.6282 37.3130 0.0000 0.0000 0.0000
# 2 81.6282 136.5392 39.3357 0.0001 0.0000 0.0000
# 3 37.3130 39.3357 40.9695 0.0002 0.0002 0.0001
# 4 0.0000 0.0001 0.0002 25.9464 0.0001 0.0000
# 5 0.0000 0.0000 0.0002 0.0001 14.0053 0.0000
# 6 0.0000 0.0000 0.0001 0.0000 0.0000 23.6603
#
#
#
# Elastic Compliance Matrix: (Units=1/GPa)
#
#
# Indices 1 2 3 4 5 6 
#
# 1 0.008584 -0.003981 -0.003996 0.000000 0.000000 0.000000
# 2 -0.003981 0.011970 -0.007868 0.000000 0.000000 0.000000
# 3 -0.003996 -0.007868 0.035602 0.000000 -0.000001 0.000000
# 4 0.000000 0.000000 0.000000 0.038541 0.000000 0.000000
# 5 0.000000 0.000000 -0.000001 0.000000 0.071402 0.000000
# 6 0.000000 0.000000 0.000000 0.000000 0.000000 0.042265
#
#
# Mechanical properties :
#
#
# Convention : Reuss Voigt Hill
#
# Bulk Modulus (GPa) = 40.87055 73.97599 57.42327
# Shear Modulus (GPa) = 20.14449 25.45263 22.79856
#
# Velocity S-wave (km/s) = 3.21088 3.60921 3.41586
# Velocity P-wave (km/s) = 5.88758 7.43161 6.70419
#
# Compressibility (1/GPa) = 0.02446749
#
# Stress axis : x y z
#
# Youngs Moduli (GPa) = 116.49872 83.54095 28.08870
#
# Poissons Ratio (x) = 0.33254 0.11224
# Poissons Ratio (y) = 0.46373 0.22099
# Poissons Ratio (z) = 0.46552 0.65726
#
# Static dielectric constant tensor:
#      x y z
#    x 3.946420 0.000000 0.000000 
#    y 0.000000 3.514920 0.000000 
#    z 0.000000 0.000000 3.325040 
# 
# 
# High freq. dielectric constant tensor:
#      x y z
#    x 1.764120 0.000000 0.000000 
#    y 0.000000 1.763150 0.000000 
#    z 0.000000 0.000000 1.740150 
# 
# From -- ./inp_files/20680.got.cif
#   From: 2010.03.12/outbox.cif.g09.slc.cpg/sg72_11_cif.got.tgz:20680.got - 2010.04.16 14:54:00.
