data_PCOD8294525
_publ_section_title
;
Structure prediction by ZEFSAII (Michael W. Deem and Ramdas Pophale) SiO2 
 PCOD8294525
Probable space group: I B A M
;
_chemical_formula_sum "Si O2"
_cell_formula_units_Z 88
_cell_length_a 20.315789
_cell_length_b 23.244503
_cell_length_c 9.370019
_cell_angle_alpha 90.000000
_cell_angle_beta 90.000000
_cell_angle_gamma 90.000000
_cell_volume 4424.807992
_symmetry_space_group_name_H-M "I B A M"
_symmetry_group_IT_number 72
_symmetry_cell_setting 'orthorhombic'
loop_
_space_group_symop_operation_xyz
x,y,z
-x,-y,z
x,-y,1/2-z
-x,y,1/2-z
-x,-y,-z
x,y,-z
-x,y,1/2+z
x,-y,1/2+z
1/2+x,1/2+y,1/2+z
1/2-x,1/2-y,1/2+z
1/2+x,1/2-y,-z
1/2-x,1/2+y,-z
1/2-x,1/2-y,1/2-z
1/2+x,1/2+y,1/2-z
1/2-x,1/2+y,z
1/2+x,1/2-y,z
loop_
_atom_site_type_symbol
_atom_site_label
_atom_site_fract_x
_atom_site_fract_y
_atom_site_fract_z
Si Si1 0.205077 0.645612 0.834763
Si Si2 0.358498 0.649383 0.163790
Si Si3 0.115730 0.278169 0.156999
Si Si4 0.896456 0.555704 0.659066
Si Si5 0.000000 0.355006 0.250000
Si Si6 0.930547 0.055102 0.172619
O O1 0.281448 0.649185 0.801046
O O2 0.170393 0.700035 0.764922
O O3 0.170407 0.586110 0.780427
O O4 0.189277 0.650747 0.000000
O O5 0.393659 0.710588 0.187462
O O6 0.387553 0.609627 0.286903
O O7 0.370598 0.628003 0.000000
O O8 0.046777 0.312488 0.160226
O O9 0.145975 0.285812 0.000000
O O10 0.915438 0.500000 0.750000
O O11 0.885381 0.532708 0.500000
O O12 0.954782 0.603076 0.654710
O O13 0.000000 0.063421 0.250000
O O14 0.896843 0.000000 0.250000
O O15 0.936598 0.048364 0.000000
#
# Coordination Sequence:
#
# PCOD8294525 Si02
#       6
#    16  16  16  16   8  16
#     4   9  20  38  57  81 118 155 189 239 294 345
#     4  10  21  38  60  88 119 152 192 237 290 350
#     4  10  21  36  58  85 115 152 196 241 286 347
#     4  10  21  36  55  79 110 149 192 237 287 341
#     4  10  21  36  54  82 115 152 190 238 298 340
#     4  11  23  41  63  87 116 151 189 237 292 349
#
# _framework density 19.887868999999998
#
# number of rings (size 3 to 8) (size 9 to 14) (size 15 to 20)
#    0.000    2.000    0.000    3.545    1.273    7.273 
#    0.000    1.818    0.000    0.000    0.000    0.000 
#    0.000    0.000    0.000    0.000    0.000    0.000 
#
# Total GULP energy -545303.243636 kJ/mol
# GULP energy per Si atom -12393.255537 kJ/mol
# Density = 1.984260 g / cm^3
# Si number density = 19.887869 Si / 1000 Ang^3
#
#
#
# Elastic Constant Matrix: (Units=GPa)
#
#
# Indices 1 2 3 4 5 6 
#
# 1 76.3622 60.5060 36.8742 0.0000 0.0000 0.0000
# 2 60.5060 134.5658 59.0017 0.0000 0.0000 0.0000
# 3 36.8742 59.0017 103.9974 0.0000 0.0000 0.0000
# 4 0.0000 0.0000 0.0000 33.8025 0.0000 0.0000
# 5 0.0000 0.0000 0.0000 0.0000 24.3553 0.0000
# 6 0.0000 0.0000 0.0000 0.0000 0.0000 26.5282
#
#
#
# Elastic Compliance Matrix: (Units=1/GPa)
#
#
# Indices 1 2 3 4 5 6 
#
# 1 0.020926 -0.008194 -0.002771 0.000000 0.000000 0.000000
# 2 -0.008194 0.013101 -0.004527 0.000000 0.000000 0.000000
# 3 -0.002771 -0.004527 0.013166 0.000000 0.000000 0.000000
# 4 0.000000 0.000000 0.000000 0.029584 0.000000 0.000000
# 5 0.000000 0.000000 0.000000 0.000000 0.041059 0.000000
# 6 0.000000 0.000000 0.000000 0.000000 0.000000 0.037696
#
#
# Mechanical properties :
#
#
# Convention : Reuss Voigt Hill
#
# Bulk Modulus (GPa) = 61.69434 69.74325 65.71879
# Shear Modulus (GPa) = 26.05260 27.50677 26.77969
#
# Velocity S-wave (km/s) = 3.62328 3.72303 3.67350
# Velocity P-wave (km/s) = 6.97084 7.32295 7.14907
#
# Compressibility (1/GPa) = 0.01620894
#
# Stress axis : x y z
#
# Youngs Moduli (GPa) = 47.78661 76.33140 75.95057
#
# Poissons Ratio (x) = 0.62549 0.21045
# Poissons Ratio (y) = 0.39158 0.34383
# Poissons Ratio (z) = 0.13241 0.34556
#
# Static dielectric constant tensor:
#      x y z
#    x 3.723830 0.000000 0.000000 
#    y 0.000000 3.797950 0.000000 
#    z 0.000000 0.000000 3.577190 
# 
# 
# High freq. dielectric constant tensor:
#      x y z
#    x 1.772620 0.000000 0.000000 
#    y 0.000000 1.782810 0.000000 
#    z 0.000000 0.000000 1.773180 
# 
# From -- ./inp_files/5773.got.cif
#   From: 2010.03.12/outbox.cif.g09.slc.cpg/sg72_3_cif.got.tgz:5773.got - 2010.04.16 14:54:00.
