data_PCOD8294598
_publ_section_title
;
Structure prediction by ZEFSAII (Michael W. Deem and Ramdas Pophale) SiO2 
 PCOD8294598
Probable space group: I B A M
;
_chemical_formula_sum "Si O2"
_cell_formula_units_Z 72
_cell_length_a 5.655936
_cell_length_b 27.051634
_cell_length_c 22.607972
_cell_angle_alpha 90.000000
_cell_angle_beta 90.000000
_cell_angle_gamma 90.000000
_cell_volume 3459.071954
_symmetry_space_group_name_H-M "I B A M"
_symmetry_group_IT_number 72
_symmetry_cell_setting 'orthorhombic'
loop_
_space_group_symop_operation_xyz
x,y,z
-x,-y,z
x,-y,1/2-z
-x,y,1/2-z
-x,-y,-z
x,y,-z
-x,y,1/2+z
x,-y,1/2+z
1/2+x,1/2+y,1/2+z
1/2-x,1/2-y,1/2+z
1/2+x,1/2-y,-z
1/2-x,1/2+y,-z
1/2-x,1/2-y,1/2-z
1/2+x,1/2+y,1/2-z
1/2-x,1/2+y,z
1/2+x,1/2-y,z
loop_
_atom_site_type_symbol
_atom_site_label
_atom_site_fract_x
_atom_site_fract_y
_atom_site_fract_z
Si Si1 0.734150 0.374081 0.140058
Si Si2 0.611542 0.053436 0.824876
Si Si3 0.815893 0.277993 0.068053
Si Si4 0.500000 0.401104 0.750000
Si Si5 0.574528 0.556285 0.065498
O O1 0.829437 0.323965 0.112117
O O2 0.545232 0.365392 0.193105
O O3 0.637028 0.408936 0.087920
O O4 0.927554 0.402251 0.178792
O O5 0.796046 0.060898 0.771616
O O6 0.706979 0.059825 0.891145
O O7 0.500000 0.000000 0.816040
O O8 0.561790 0.251449 0.080697
O O9 0.817752 0.295396 0.000000
O O10 0.500000 0.500000 0.063582
O O11 0.649442 0.574519 0.000000
#
# Coordination Sequence:
#
# PCOD8294598 Si02
#       5
#    16  16  16   8  16
#     4  11  23  42  65  92 128 176 223 272 334 395
#     4  11  23  41  61  93 130 180 222 264 327 395
#     4  10  24  46  73 103 133 171 224 284 348 415
#     4  10  26  41  62  92 132 172 232 276 325 386
#     4  10  21  37  58  93 134 166 209 264 327 399
#
# _framework density 20.814831000000002
#
# number of rings (size 3 to 8) (size 9 to 14) (size 15 to 20)
#    0.000    1.556    2.222    1.333    6.222    4.889 
#    0.000    1.111    0.000    0.000    0.000    0.000 
#    0.000    0.000    0.000    0.000    0.000    0.000 
#
# Total GULP energy -446012.823590 kJ/mol
# GULP energy per Si atom -12389.245100 kJ/mol
# Density = 2.076746 g / cm^3
# Si number density = 20.814831 Si / 1000 Ang^3
#
#
#
# Elastic Constant Matrix: (Units=GPa)
#
#
# Indices 1 2 3 4 5 6 
#
# 1 103.2784 46.7670 36.2943 0.0000 0.0000 0.0000
# 2 46.7670 111.7955 47.8383 0.0000 0.0000 0.0000
# 3 36.2943 47.8383 153.9429 0.0000 0.0000 0.0000
# 4 0.0000 0.0000 0.0000 21.5000 0.0000 0.0000
# 5 0.0000 0.0000 0.0000 0.0000 25.7579 0.0000
# 6 0.0000 0.0000 0.0000 0.0000 0.0000 28.3983
#
#
#
# Elastic Compliance Matrix: (Units=1/GPa)
#
#
# Indices 1 2 3 4 5 6 
#
# 1 0.012236 -0.004480 -0.001493 0.000000 0.000000 0.000000
# 2 -0.004480 0.011957 -0.002659 0.000000 0.000000 0.000000
# 3 -0.001493 -0.002659 0.007674 0.000000 0.000000 0.000000
# 4 0.000000 0.000000 0.000000 0.046512 0.000000 0.000000
# 5 0.000000 0.000000 0.000000 0.000000 0.038823 0.000000
# 6 0.000000 0.000000 0.000000 0.000000 0.000000 0.035213
#
#
# Mechanical properties :
#
#
# Convention : Reuss Voigt Hill
#
# Bulk Modulus (GPa) = 68.47877 70.09066 69.28472
# Shear Modulus (GPa) = 28.64570 31.00574 29.82572
#
# Velocity S-wave (km/s) = 3.71376 3.86372 3.78948
# Velocity P-wave (km/s) = 7.16658 7.32468 7.24606
#
# Compressibility (1/GPa) = 0.01460307
#
# Stress axis : x y z
#
# Youngs Moduli (GPa) = 81.72828 83.63345 130.30561
#
# Poissons Ratio (x) = 0.37466 0.19450
# Poissons Ratio (y) = 0.36613 0.34655
# Poissons Ratio (z) = 0.12199 0.22242
#
# Static dielectric constant tensor:
#      x y z
#    x 4.672030 0.000000 0.000000 
#    y 0.000000 3.345790 0.000000 
#    z 0.000000 0.000000 4.355330 
# 
# 
# High freq. dielectric constant tensor:
#      x y z
#    x 1.825800 0.000000 0.000000 
#    y 0.000000 1.784020 0.000000 
#    z 0.000000 0.000000 1.840610 
# 
# From -- ./inp_files/41469.got.cif
#   From: 2010.03.12/outbox.cif.g09.slc.cpg/sg72_21_cif.got.tgz:41469.got - 2010.04.16 14:54:00.
