data_PCOD8294483
_publ_section_title
;
Structure prediction by ZEFSAII (Michael W. Deem and Ramdas Pophale) SiO2 
 PCOD8294483
Probable space group: I B A M
;
_chemical_formula_sum "Si O2"
_cell_formula_units_Z 80
_cell_length_a 16.810197
_cell_length_b 25.937171
_cell_length_c 9.385681
_cell_angle_alpha 90.000000
_cell_angle_beta 90.000000
_cell_angle_gamma 90.000000
_cell_volume 4092.240957
_symmetry_space_group_name_H-M "I B A M"
_symmetry_group_IT_number 72
_symmetry_cell_setting 'orthorhombic'
loop_
_space_group_symop_operation_xyz
x,y,z
-x,-y,z
x,-y,1/2-z
-x,y,1/2-z
-x,-y,-z
x,y,-z
-x,y,1/2+z
x,-y,1/2+z
1/2+x,1/2+y,1/2+z
1/2-x,1/2-y,1/2+z
1/2+x,1/2-y,-z
1/2-x,1/2+y,-z
1/2-x,1/2-y,1/2-z
1/2+x,1/2+y,1/2-z
1/2-x,1/2+y,z
1/2+x,1/2-y,z
loop_
_atom_site_type_symbol
_atom_site_label
_atom_site_fract_x
_atom_site_fract_y
_atom_site_fract_z
Si Si1 0.181390 0.899742 0.755025
Si Si2 0.728274 0.801725 0.169274
Si Si3 0.428202 0.574866 0.500000
Si Si4 0.105298 0.954060 0.500000
Si Si5 0.657501 0.950796 0.343595
Si Si6 0.920848 0.347139 0.668498
O O1 0.201234 0.843465 0.691791
O O2 0.157521 0.940033 0.634955
O O3 0.257518 0.923481 0.831386
O O4 0.107470 0.895809 0.863458
O O5 0.750000 0.750000 0.250000
O O6 0.648524 0.819559 0.245445
O O7 0.715437 0.792934 0.000000
O O8 0.523557 0.578832 0.500000
O O9 0.406666 0.514802 0.500000
O O10 0.650203 0.973460 0.500000
O O11 0.589510 0.908557 0.314352
O O12 0.642655 0.000000 0.250000
O O13 0.921422 0.331465 0.500000
O O14 0.000000 0.329790 0.750000
#
# Coordination Sequence:
#
# PCOD8294483 Si02
#       6
#    16  16   8   8  16  16
#     4  11  22  38  59  89 122 161 209 259 307 367
#     4  11  24  43  70  93 119 159 208 261 316 373
#     4  11  22  36  61  84 129 173 208 253 312 374
#     4  11  22  38  55  90 125 171 214 253 308 372
#     4  10  21  34  56  86 119 163 205 248 297 358
#     4  10  22  41  63  91 125 158 199 247 305 365
#
# _framework density 19.549189999999999
#
# number of rings (size 3 to 8) (size 9 to 14) (size 15 to 20)
#    0.000    1.400    2.000    3.600    4.200    3.600 
#    0.000    4.000    0.000    0.000    0.000    0.000 
#    0.000    0.000    0.000    0.000    0.000    0.000 
#
# Total GULP energy -495945.027449 kJ/mol
# GULP energy per Si atom -12398.625686 kJ/mol
# Density = 1.950470 g / cm^3
# Si number density = 19.549190 Si / 1000 Ang^3
#
#
#
# Elastic Constant Matrix: (Units=GPa)
#
#
# Indices 1 2 3 4 5 6 
#
# 1 83.3686 26.9069 42.0694 0.0001 0.0000 0.0000
# 2 26.9069 93.3745 65.2090 -0.0001 0.0000 0.0000
# 3 42.0694 65.2090 157.1202 -0.0007 0.0000 0.0001
# 4 0.0001 -0.0001 -0.0007 36.0832 0.0000 0.0000
# 5 0.0000 0.0000 0.0000 0.0000 34.3946 0.0000
# 6 0.0000 0.0000 0.0001 0.0000 0.0000 18.4510
#
#
#
# Elastic Compliance Matrix: (Units=1/GPa)
#
#
# Indices 1 2 3 4 5 6 
#
# 1 0.014133 -0.002013 -0.002948 0.000000 0.000000 0.000000
# 2 -0.002013 0.015367 -0.005839 0.000000 0.000000 0.000000
# 3 -0.002948 -0.005839 0.009577 0.000000 0.000000 0.000000
# 4 0.000000 0.000000 0.000000 0.027714 0.000000 0.000000
# 5 0.000000 0.000000 0.000000 0.000000 0.029074 0.000000
# 6 0.000000 0.000000 0.000000 0.000000 0.000000 0.054198
#
#
# Mechanical properties :
#
#
# Convention : Reuss Voigt Hill
#
# Bulk Modulus (GPa) = 57.22140 66.91486 62.06813
# Shear Modulus (GPa) = 28.17076 31.09766 29.63421
#
# Velocity S-wave (km/s) = 3.80019 3.99273 3.89765
# Velocity P-wave (km/s) = 6.97060 7.45380 7.21625
#
# Compressibility (1/GPa) = 0.01747598
#
# Stress axis : x y z
#
# Youngs Moduli (GPa) = 70.75856 65.07336 104.41440
#
# Poissons Ratio (x) = 0.13102 0.30786
# Poissons Ratio (y) = 0.14246 0.60965
# Poissons Ratio (z) = 0.20863 0.37995
#
# Static dielectric constant tensor:
#      x y z
#    x 2.881510 -0.000010 0.000000 
#    y -0.000010 3.244540 0.000000 
#    z 0.000000 0.000000 3.644860 
# 
# 
# High freq. dielectric constant tensor:
#      x y z
#    x 1.761980 0.000000 0.000000 
#    y 0.000000 1.746820 0.000000 
#    z 0.000000 0.000000 1.783420 
# 
# From -- ./inp_files/4874.got.cif
#   From: 2010.03.12/outbox.cif.g09.slc.cpg/sg72_3_cif.got.tgz:4874.got - 2010.04.16 14:54:00.
