data_PCOD8294198
_publ_section_title
;
Structure prediction by ZEFSAII (Michael W. Deem and Ramdas Pophale) SiO2 
 PCOD8294198
Probable space group: I B A M
;
_chemical_formula_sum "Si O2"
_cell_formula_units_Z 64
_cell_length_a 13.428902
_cell_length_b 9.127843
_cell_length_c 23.723610
_cell_angle_alpha 90.000000
_cell_angle_beta 90.000000
_cell_angle_gamma 90.000000
_cell_volume 2907.966787
_symmetry_space_group_name_H-M "I B A M"
_symmetry_group_IT_number 72
_symmetry_cell_setting 'orthorhombic'
loop_
_space_group_symop_operation_xyz
x,y,z
-x,-y,z
x,-y,1/2-z
-x,y,1/2-z
-x,-y,-z
x,y,-z
-x,y,1/2+z
x,-y,1/2+z
1/2+x,1/2+y,1/2+z
1/2-x,1/2-y,1/2+z
1/2+x,1/2-y,-z
1/2-x,1/2+y,-z
1/2-x,1/2-y,1/2-z
1/2+x,1/2+y,1/2-z
1/2-x,1/2+y,z
1/2+x,1/2-y,z
loop_
_atom_site_type_symbol
_atom_site_label
_atom_site_fract_x
_atom_site_fract_y
_atom_site_fract_z
Si Si1 0.345882 0.111733 0.935628
Si Si2 0.827886 0.850660 0.717778
Si Si3 0.195369 0.684244 0.383214
Si Si4 0.509838 0.168010 0.337676
O O1 0.239966 0.180570 0.917796
O O2 0.433460 0.177001 0.897421
O O3 0.339775 0.937743 0.927558
O O4 0.371040 0.148975 0.000000
O O5 0.750000 0.750000 0.750000
O O6 0.777675 0.888527 0.657807
O O7 0.930446 0.760132 0.709351
O O8 0.851908 0.000000 0.750000
O O9 0.099723 0.738203 0.346498
O O10 0.500000 0.000000 0.316712
#
# Coordination Sequence:
#
# PCOD8294198 Si02
#       4
#    16  16  16  16
#     4  10  20  36  60  86 116 156 196 242 304 363
#     4  11  22  40  64  90 122 162 205 252 309 364
#     4  10  21  39  58  85 120 151 197 252 295 359
#     4   9  20  38  60  89 122 156 202 250 298 365
#
# _framework density 22.008505
#
# number of rings (size 3 to 8) (size 9 to 14) (size 15 to 20)
#    0.000    2.000    0.000    5.250    0.000    6.500 
#    0.000   20.000    0.000    7.500    0.000    0.000 
#    0.000    0.000    0.000    0.000    0.000    0.250 
#
# Total GULP energy -396870.552423 kJ/mol
# GULP energy per Si atom -12402.204763 kJ/mol
# Density = 2.195841 g / cm^3
# Si number density = 22.008505 Si / 1000 Ang^3
#
#
#
# Elastic Constant Matrix: (Units=GPa)
#
#
# Indices 1 2 3 4 5 6 
#
# 1 135.2986 59.2397 30.6448 0.0000 0.0000 0.0000
# 2 59.2397 107.6697 50.6795 0.0000 0.0000 0.0000
# 3 30.6448 50.6795 92.2267 0.0000 0.0000 0.0000
# 4 0.0000 0.0000 0.0000 33.5221 0.0000 0.0000
# 5 0.0000 0.0000 0.0000 0.0000 27.6679 0.0000
# 6 0.0000 0.0000 0.0000 0.0000 0.0000 42.6126
#
#
#
# Elastic Compliance Matrix: (Units=1/GPa)
#
#
# Indices 1 2 3 4 5 6 
#
# 1 0.009747 -0.005178 -0.000394 0.000000 0.000000 0.000000
# 2 -0.005178 0.015278 -0.006675 0.000000 0.000000 0.000000
# 3 -0.000394 -0.006675 0.014642 0.000000 0.000000 0.000000
# 4 0.000000 0.000000 0.000000 0.029831 0.000000 0.000000
# 5 0.000000 0.000000 0.000000 0.000000 0.036143 0.000000
# 6 0.000000 0.000000 0.000000 0.000000 0.000000 0.023467
#
#
# Mechanical properties :
#
#
# Convention : Reuss Voigt Hill
#
# Bulk Modulus (GPa) = 65.90042 68.48031 67.19037
# Shear Modulus (GPa) = 31.51402 33.73593 32.62497
#
# Velocity S-wave (km/s) = 3.78815 3.91942 3.85435
# Velocity P-wave (km/s) = 7.01011 7.18787 7.09954
#
# Compressibility (1/GPa) = 0.01517441
#
# Stress axis : x y z
#
# Youngs Moduli (GPa) = 102.59358 65.45205 68.29793
#
# Poissons Ratio (x) = 0.33889 0.02688
# Poissons Ratio (y) = 0.53119 0.45590
# Poissons Ratio (z) = 0.04038 0.43691
#
# Static dielectric constant tensor:
#      x y z
#    x 4.258100 0.000000 0.000000 
#    y 0.000000 3.799150 0.000000 
#    z 0.000000 0.000000 3.898700 
# 
# 
# High freq. dielectric constant tensor:
#      x y z
#    x 1.877520 0.000000 0.000000 
#    y 0.000000 1.847790 0.000000 
#    z 0.000000 0.000000 1.864780 
# 
# From -- ./inp_files/41900.got.cif
#   From: 2010.03.12/outbox.cif.g09.slc.cpg/sg72_21_cif.got.tgz:41900.got - 2010.04.16 14:54:00.
