data_PCOD8294645
_publ_section_title
;
Structure prediction by ZEFSAII (Michael W. Deem and Ramdas Pophale) SiO2 
 PCOD8294645
Probable space group: I B A M
;
_chemical_formula_sum "Si O2"
_cell_formula_units_Z 112
_cell_length_a 28.063387
_cell_length_b 14.712629
_cell_length_c 13.807365
_cell_angle_alpha 90.000000
_cell_angle_beta 90.000000
_cell_angle_gamma 90.000000
_cell_volume 5700.870486
_symmetry_space_group_name_H-M "I B A M"
_symmetry_group_IT_number 72
_symmetry_cell_setting 'orthorhombic'
loop_
_space_group_symop_operation_xyz
x,y,z
-x,-y,z
x,-y,1/2-z
-x,y,1/2-z
-x,-y,-z
x,y,-z
-x,y,1/2+z
x,-y,1/2+z
1/2+x,1/2+y,1/2+z
1/2-x,1/2-y,1/2+z
1/2+x,1/2-y,-z
1/2-x,1/2+y,-z
1/2-x,1/2-y,1/2-z
1/2+x,1/2+y,1/2-z
1/2-x,1/2+y,z
1/2+x,1/2-y,z
loop_
_atom_site_type_symbol
_atom_site_label
_atom_site_fract_x
_atom_site_fract_y
_atom_site_fract_z
Si Si1 0.851116 0.013586 0.385283
Si Si2 0.929862 0.690492 0.775966
Si Si3 0.988360 0.395294 0.111524
Si Si4 0.334395 0.902218 0.236375
Si Si5 0.384257 0.359861 0.770655
Si Si6 0.756662 0.096713 0.891017
Si Si7 0.815652 0.266010 0.889095
O O1 0.857327 0.028156 0.500000
O O2 0.856130 0.108622 0.327606
O O3 0.892775 0.946774 0.341682
O O4 0.801175 0.965527 0.356048
O O5 0.944301 0.637666 0.677227
O O6 0.876046 0.661840 0.806237
O O7 0.930873 0.801128 0.761347
O O8 0.965654 0.665587 0.862285
O O9 0.000000 0.500000 0.133722
O O10 0.974606 0.380151 0.000000
O O11 0.291347 0.921832 0.164488
O O12 0.310131 0.861997 0.334298
O O13 0.358913 0.000000 0.250000
O O14 0.356972 0.287026 0.835311
O O15 0.768265 0.204321 0.882330
O O16 0.746418 0.068372 0.000000
O O17 0.829718 0.284543 0.000000
#
# Coordination Sequence:
#
# PCOD8294645 Si02
#       7
#    16  16  16  16  16  16  16
#     4   9  18  34  56  82 115 156 200 237 275 328
#     4  10  21  38  55  87 115 139 185 232 290 346
#     4  10  21  39  64  84 111 147 182 230 290 358
#     4  11  22  32  54  79 112 146 180 237 282 332
#     4   9  18  32  59  84 112 151 191 241 276 331
#     4   9  19  35  52  74 108 151 196 234 272 321
#     4   9  19  36  53  73 106 150 196 236 277 330
#
# _framework density 19.646122999999999
#
# number of rings (size 3 to 8) (size 9 to 14) (size 15 to 20)
#    0.000    2.429    0.000    3.429    4.000    4.571 
#    0.000    2.143    0.000    6.857    0.000    8.000 
#    0.000    0.000    0.000    0.000    0.000    0.000 
#
# Total GULP energy -693777.186383 kJ/mol
# GULP energy per Si atom -12388.878328 kJ/mol
# Density = 1.960141 g / cm^3
# Si number density = 19.646123 Si / 1000 Ang^3
#
#
#
# Elastic Constant Matrix: (Units=GPa)
#
#
# Indices 1 2 3 4 5 6 
#
# 1 60.6722 31.7636 19.5323 0.0000 0.0000 0.0000
# 2 31.7636 74.8272 28.8203 0.0000 0.0000 0.0000
# 3 19.5323 28.8203 98.2412 0.0000 0.0000 0.0000
# 4 0.0000 0.0000 0.0000 22.0123 0.0000 0.0000
# 5 0.0000 0.0000 0.0000 0.0000 18.4419 0.0000
# 6 0.0000 0.0000 0.0000 0.0000 0.0000 15.1573
#
#
#
# Elastic Compliance Matrix: (Units=1/GPa)
#
#
# Indices 1 2 3 4 5 6 
#
# 1 0.021470 -0.008421 -0.001798 0.000000 0.000000 0.000000
# 2 -0.008421 0.018370 -0.003715 0.000000 0.000000 0.000000
# 3 -0.001798 -0.003715 0.011626 0.000000 0.000000 0.000000
# 4 0.000000 0.000000 0.000000 0.045429 0.000000 0.000000
# 5 0.000000 0.000000 0.000000 0.000000 0.054224 0.000000
# 6 0.000000 0.000000 0.000000 0.000000 0.000000 0.065975
#
#
# Mechanical properties :
#
#
# Convention : Reuss Voigt Hill
#
# Bulk Modulus (GPa) = 42.37723 43.77480 43.07601
# Shear Modulus (GPa) = 19.77634 21.36393 20.57013
#
# Velocity S-wave (km/s) = 3.17618 3.30121 3.23930
# Velocity P-wave (km/s) = 5.92182 6.07130 5.99702
#
# Compressibility (1/GPa) = 0.02359758
#
# Stress axis : x y z
#
# Youngs Moduli (GPa) = 46.57751 54.43791 86.01204
#
# Poissons Ratio (x) = 0.45843 0.15466
# Poissons Ratio (y) = 0.39223 0.31950
# Poissons Ratio (z) = 0.08375 0.20222
#
# Static dielectric constant tensor:
#      x y z
#    x 3.304510 0.000000 0.000000 
#    y 0.000000 4.171160 0.000000 
#    z 0.000000 0.000000 3.624640 
# 
# 
# High freq. dielectric constant tensor:
#      x y z
#    x 1.729770 0.000000 0.000000 
#    y 0.000000 1.772690 0.000000 
#    z 0.000000 0.000000 1.768600 
# 
# From -- ./inp_files/25967.got.cif
#   From: 2010.03.12/outbox.cif.g09.slc.cpg/sg72_13_cif.got.tgz:25967.got - 2010.04.16 14:54:00.
