data_PCOD8294025
_publ_section_title
;
Structure prediction by ZEFSAII (Michael W. Deem and Ramdas Pophale) SiO2 
 PCOD8294025
Probable space group: I B A M
;
_chemical_formula_sum "Si O2"
_cell_formula_units_Z 116
_cell_length_a 9.246264
_cell_length_b 25.524490
_cell_length_c 24.827767
_cell_angle_alpha 90.000000
_cell_angle_beta 90.000000
_cell_angle_gamma 90.000000
_cell_volume 5859.506274
_symmetry_space_group_name_H-M "I B A M"
_symmetry_group_IT_number 72
_symmetry_cell_setting 'orthorhombic'
loop_
_space_group_symop_operation_xyz
x,y,z
-x,-y,z
x,-y,1/2-z
-x,y,1/2-z
-x,-y,-z
x,y,-z
-x,y,1/2+z
x,-y,1/2+z
1/2+x,1/2+y,1/2+z
1/2-x,1/2-y,1/2+z
1/2+x,1/2-y,-z
1/2-x,1/2+y,-z
1/2-x,1/2-y,1/2-z
1/2+x,1/2+y,1/2-z
1/2-x,1/2+y,z
1/2+x,1/2-y,z
loop_
_atom_site_type_symbol
_atom_site_label
_atom_site_fract_x
_atom_site_fract_y
_atom_site_fract_z
Si Si1 0.906742 0.605733 0.061786
Si Si2 0.376472 0.534395 0.133633
Si Si3 0.267126 0.888875 0.439398
Si Si4 0.556020 0.299470 0.899724
Si Si5 0.302371 0.056828 0.668665
Si Si6 0.458388 0.626737 0.689895
Si Si7 0.500000 0.000000 0.750000
Si Si8 0.253959 0.787155 0.939584
O O1 0.867705 0.563185 0.107896
O O2 0.794778 0.652701 0.069582
O O3 0.068008 0.628436 0.072488
O O4 0.894632 0.583016 0.000000
O O5 0.500000 0.500000 0.103138
O O6 0.263997 0.557664 0.091760
O O7 0.296261 0.494553 0.172797
O O8 0.440128 0.580114 0.170164
O O9 0.247231 0.905483 0.500000
O O10 0.151804 0.844391 0.426661
O O11 0.492675 0.320008 0.843030
O O12 0.661215 0.248901 0.896037
O O13 0.418639 0.282713 0.935157
O O14 0.421127 0.043312 0.713005
O O15 0.209544 0.108793 0.684343
O O16 0.500000 0.641369 0.750000
O O17 0.296907 0.768560 0.000000
#
# Coordination Sequence:
#
# PCOD8294025 Si02
#       8
#    16  16  16  16  16  16   4  16
#     4  10  22  38  60  87 126 164 196 254 317 368
#     4   9  20  35  56  83 114 156 200 251 296 360
#     4  10  20  35  54  84 120 158 197 241 304 367
#     4  11  22  39  61  89 119 156 203 254 305 370
#     4  11  21  40  58  93 125 160 219 254 309 375
#     4  10  21  40  63  84 120 162 205 259 313 360
#     4  12  24  32  64  88 120 172 212 264 304 356
#     4  11  21  37  62  91 118 153 196 246 306 367
#
# _framework density 19.796890000000001
#
# number of rings (size 3 to 8) (size 9 to 14) (size 15 to 20)
#    0.000    1.655    1.379    3.724    0.000    4.966 
#    0.000    2.414    1.517    0.000    0.000    0.000 
#    0.000    0.000    0.000    0.000    0.000    0.000 
#
# Total GULP energy -718831.703628 kJ/mol
# GULP energy per Si atom -12393.650063 kJ/mol
# Density = 1.975183 g / cm^3
# Si number density = 19.796890 Si / 1000 Ang^3
#
#
#
# Elastic Constant Matrix: (Units=GPa)
#
#
# Indices 1 2 3 4 5 6 
#
# 1 106.2586 19.4029 34.5330 0.0000 0.0000 0.0000
# 2 19.4029 60.1200 34.5987 0.0000 0.0000 0.0000
# 3 34.5330 34.5987 114.1446 0.0000 0.0000 0.0000
# 4 0.0000 0.0000 0.0000 18.4763 0.0000 0.0000
# 5 0.0000 0.0000 0.0000 0.0000 26.3733 0.0000
# 6 0.0000 0.0000 0.0000 0.0000 0.0000 26.4675
#
#
#
# Elastic Compliance Matrix: (Units=1/GPa)
#
#
# Indices 1 2 3 4 5 6 
#
# 1 0.010615 -0.001911 -0.002632 0.000000 0.000000 0.000000
# 2 -0.001911 0.020492 -0.005633 0.000000 0.000000 0.000000
# 3 -0.002632 -0.005633 0.011265 0.000000 0.000000 0.000000
# 4 0.000000 0.000000 0.000000 0.054123 0.000000 0.000000
# 5 0.000000 0.000000 0.000000 0.000000 0.037917 0.000000
# 6 0.000000 0.000000 0.000000 0.000000 0.000000 0.037782
#
#
# Mechanical properties :
#
#
# Convention : Reuss Voigt Hill
#
# Bulk Modulus (GPa) = 45.41547 50.84361 48.12954
# Shear Modulus (GPa) = 25.01401 27.06265 26.03833
#
# Velocity S-wave (km/s) = 3.55848 3.70133 3.63060
# Velocity P-wave (km/s) = 6.31460 6.63361 6.47607
#
# Compressibility (1/GPa) = 0.02201893
#
# Stress axis : x y z
#
# Youngs Moduli (GPa) = 94.20235 48.79935 88.77295
#
# Poissons Ratio (x) = 0.09326 0.23368
# Poissons Ratio (y) = 0.18003 0.50008
# Poissons Ratio (z) = 0.24797 0.27490
#
# Static dielectric constant tensor:
#      x y z
#    x 3.912250 0.000000 0.000000 
#    y 0.000000 3.502940 0.000000 
#    z 0.000000 0.000000 3.534680 
# 
# 
# High freq. dielectric constant tensor:
#      x y z
#    x 1.789520 0.000000 0.000000 
#    y 0.000000 1.759050 0.000000 
#    z 0.000000 0.000000 1.757810 
# 
# From -- ./inp_files/42720.got.cif
#   From: 2010.03.12/outbox.cif.g09.slc.cpg/sg72_22_cif.got.tgz:42720.got - 2010.04.16 14:54:00.
