data_PCOD8294299
_publ_section_title
;
Structure prediction by ZEFSAII (Michael W. Deem and Ramdas Pophale) SiO2 
 PCOD8294299
Probable space group: I B A M
;
_chemical_formula_sum "Si O2"
_cell_formula_units_Z 68
_cell_length_a 14.720976
_cell_length_b 12.569570
_cell_length_c 17.769516
_cell_angle_alpha 90.000000
_cell_angle_beta 90.000000
_cell_angle_gamma 90.000000
_cell_volume 3288.006174
_symmetry_space_group_name_H-M "I B A M"
_symmetry_group_IT_number 72
_symmetry_cell_setting 'orthorhombic'
loop_
_space_group_symop_operation_xyz
x,y,z
-x,-y,z
x,-y,1/2-z
-x,y,1/2-z
-x,-y,-z
x,y,-z
-x,y,1/2+z
x,-y,1/2+z
1/2+x,1/2+y,1/2+z
1/2-x,1/2-y,1/2+z
1/2+x,1/2-y,-z
1/2-x,1/2+y,-z
1/2-x,1/2-y,1/2-z
1/2+x,1/2+y,1/2-z
1/2-x,1/2+y,z
1/2+x,1/2-y,z
loop_
_atom_site_type_symbol
_atom_site_label
_atom_site_fract_x
_atom_site_fract_y
_atom_site_fract_z
Si Si1 0.780047 0.810214 0.412988
Si Si2 0.895607 0.981345 0.912971
Si Si3 0.080042 0.306031 0.671383
Si Si4 0.500000 0.000000 0.750000
Si Si5 0.113477 0.769424 0.667089
O O1 0.754932 0.801362 0.500000
O O2 0.837477 0.914922 0.393613
O O3 0.841573 0.706953 0.390800
O O4 0.687344 0.813279 0.365485
O O5 0.858577 0.886293 0.861174
O O6 0.884823 0.948657 0.000000
O O7 0.000000 0.000000 0.892096
O O8 0.065282 0.427705 0.697869
O O9 0.111906 0.234938 0.742651
O O10 0.985850 0.262965 0.636148
#
# Coordination Sequence:
#
# PCOD8294299 Si02
#       5
#    16  16  16   4  16
#     4  11  23  38  62  94 126 165 209 257 314 372
#     4  10  20  37  61  91 129 168 209 257 310 369
#     4  10  22  41  61  87 123 163 206 261 314 369
#     4   8  20  40  62  82 120 158 200 254 316 370
#     4  10  21  38  60  88 122 163 213 255 305 372
#
# _framework density 20.681225999999999
#
# number of rings (size 3 to 8) (size 9 to 14) (size 15 to 20)
#    0.000    2.118    2.353    1.412    0.000    5.647 
#    0.000    0.588    0.000    1.412    0.000    0.000 
#    0.000    0.000    0.000    0.000    0.000    0.000 
#
# Total GULP energy -421588.845197 kJ/mol
# GULP energy per Si atom -12399.671918 kJ/mol
# Density = 2.063415 g / cm^3
# Si number density = 20.681226 Si / 1000 Ang^3
#
#
#
# Elastic Constant Matrix: (Units=GPa)
#
#
# Indices 1 2 3 4 5 6 
#
# 1 142.5738 38.7835 55.4280 0.0000 0.0000 0.0000
# 2 38.7835 126.8554 43.3936 0.0000 0.0000 0.0000
# 3 55.4280 43.3936 63.0913 0.0000 0.0000 0.0000
# 4 0.0000 0.0000 0.0000 27.3440 0.0000 0.0000
# 5 0.0000 0.0000 0.0000 0.0000 30.6423 0.0000
# 6 0.0000 0.0000 0.0000 0.0000 0.0000 31.4172
#
#
#
# Elastic Compliance Matrix: (Units=1/GPa)
#
#
# Indices 1 2 3 4 5 6 
#
# 1 0.010653 -0.000073 -0.009309 0.000000 0.000000 0.000000
# 2 -0.000073 0.010309 -0.007027 0.000000 0.000000 0.000000
# 3 -0.009309 -0.007027 0.028861 0.000000 0.000000 0.000000
# 4 0.000000 0.000000 0.000000 0.036571 0.000000 0.000000
# 5 0.000000 0.000000 0.000000 0.000000 0.032635 0.000000
# 6 0.000000 0.000000 0.000000 0.000000 0.000000 0.031830
#
#
# Mechanical properties :
#
#
# Convention : Reuss Voigt Hill
#
# Bulk Modulus (GPa) = 58.80087 67.52564 63.16325
# Shear Modulus (GPa) = 26.40718 30.87506 28.64112
#
# Velocity S-wave (km/s) = 3.57720 3.86800 3.72544
# Velocity P-wave (km/s) = 6.74949 7.25742 7.00806
#
# Compressibility (1/GPa) = 0.01700655
#
# Stress axis : x y z
#
# Youngs Moduli (GPa) = 93.87367 97.00502 34.64881
#
# Poissons Ratio (x) = 0.00704 0.32254
# Poissons Ratio (y) = 0.00681 0.24346
# Poissons Ratio (z) = 0.87385 0.68161
#
# Static dielectric constant tensor:
#      x y z
#    x 3.839760 0.000000 0.000000 
#    y 0.000000 3.648900 0.000000 
#    z 0.000000 0.000000 3.580340 
# 
# 
# High freq. dielectric constant tensor:
#      x y z
#    x 1.818420 0.000000 0.000000 
#    y 0.000000 1.799890 0.000000 
#    z 0.000000 0.000000 1.797700 
# 
# From -- ./inp_files/37747.got.cif
#   From: 2010.03.12/outbox.cif.g09.slc.cpg/sg72_19_cif.got.tgz:37747.got - 2010.04.16 14:54:00.
