data_PCOD8294158
_publ_section_title
;
Structure prediction by ZEFSAII (Michael W. Deem and Ramdas Pophale) SiO2 
 PCOD8294158
Probable space group: I B A M
;
_chemical_formula_sum "Si O2"
_cell_formula_units_Z 112
_cell_length_a 15.692340
_cell_length_b 25.489201
_cell_length_c 15.251847
_cell_angle_alpha 90.000000
_cell_angle_beta 90.000000
_cell_angle_gamma 90.000000
_cell_volume 6100.513201
_symmetry_space_group_name_H-M "I B A M"
_symmetry_group_IT_number 72
_symmetry_cell_setting 'orthorhombic'
loop_
_space_group_symop_operation_xyz
x,y,z
-x,-y,z
x,-y,1/2-z
-x,y,1/2-z
-x,-y,-z
x,y,-z
-x,y,1/2+z
x,-y,1/2+z
1/2+x,1/2+y,1/2+z
1/2-x,1/2-y,1/2+z
1/2+x,1/2-y,-z
1/2-x,1/2+y,-z
1/2-x,1/2-y,1/2-z
1/2+x,1/2+y,1/2-z
1/2-x,1/2+y,z
1/2+x,1/2-y,z
loop_
_atom_site_type_symbol
_atom_site_label
_atom_site_fract_x
_atom_site_fract_y
_atom_site_fract_z
Si Si1 0.407125 0.373613 0.250000
Si Si2 0.830277 0.620700 0.900998
Si Si3 0.660694 0.439352 0.900396
Si Si4 0.830277 0.379300 0.099002
Si Si5 0.660694 0.439352 0.400396
Si Si6 0.000000 0.439981 0.853566
Si Si7 0.263353 0.188612 0.750000
O O1 0.500000 0.345918 0.250000
O O2 0.402824 0.409058 0.336823
O O3 0.402824 0.409058 0.163177
O O4 0.333236 0.331221 0.250000
O O5 0.757617 0.577895 0.882467
O O6 0.918759 0.591261 0.887952
O O7 0.816329 0.669581 0.835251
O O8 0.825278 0.642918 0.000000
O O9 0.757617 0.422105 0.882467
O O10 0.654623 0.500000 0.877815
O O11 0.633128 0.427370 0.000000
O O12 0.816329 0.330419 0.164749
O O13 0.918759 0.408739 0.112048
O O14 0.825278 0.357082 0.000000
O O15 0.633128 0.427370 0.500000
O O16 0.000000 0.500000 0.889530
O O17 0.000000 0.440452 0.750000
O O18 0.250000 0.250000 0.750000
#
# Coordination Sequence:
#
# PCOD8294158 Si02
#       7
#    16  16  16  16  16  16  16
#     4  10  21  36  53  77 103 136 173 221 271 322
#     4  10  20  36  57  82 114 151 189 227 275 337
#     4   9  18  32  52  78 110 146 178 209 253 316
#     4  10  20  36  57  82 114 151 189 227 275 337
#     4   9  18  32  52  78 110 146 178 209 253 316
#     4  11  21  33  55  90 129 161 186 225 283 348
#     4  10  22  42  60  79 103 141 187 244 290 329
#
# _framework density 18.359110999999999
#
# number of rings (size 3 to 8) (size 9 to 14) (size 15 to 20)
#    0.000    2.143    1.429    1.714    0.000    4.571 
#    2.571    1.429    0.000    0.000    0.000    0.000 
#    0.000    0.000    0.000    0.000    0.000    0.000 
#
# Total GULP energy -694359.207768 kJ/mol
# GULP energy per Si atom -12399.271567 kJ/mol
# Density = 1.831733 g / cm^3
# Si number density = 18.359111 Si / 1000 Ang^3
#
#
#
# Elastic Constant Matrix: (Units=GPa)
#
#
# Indices 1 2 3 4 5 6 
#
# 1 117.7697 42.2454 40.5524 -0.0001 0.0000 0.0000
# 2 42.2454 126.3477 59.3707 -0.0004 0.0001 0.0000
# 3 40.5524 59.3707 121.9808 -0.0008 0.0001 0.0000
# 4 -0.0001 -0.0004 -0.0008 14.5976 0.0001 0.0000
# 5 0.0000 0.0001 0.0001 0.0001 20.9235 0.0000
# 6 0.0000 0.0000 0.0000 0.0000 0.0000 18.5416
#
#
#
# Elastic Compliance Matrix: (Units=1/GPa)
#
#
# Indices 1 2 3 4 5 6 
#
# 1 0.010092 -0.002331 -0.002221 0.000000 0.000000 0.000000
# 2 -0.002331 0.010800 -0.004482 0.000000 0.000000 0.000000
# 3 -0.002221 -0.004482 0.011118 0.000000 0.000000 0.000000
# 4 0.000000 0.000000 0.000000 0.068504 0.000000 0.000000
# 5 0.000000 0.000000 0.000000 0.000000 0.047793 0.000000
# 6 0.000000 0.000000 0.000000 0.000000 0.000000 0.053933
#
#
# Mechanical properties :
#
#
# Convention : Reuss Voigt Hill
#
# Bulk Modulus (GPa) = 71.71958 72.27060 71.99509
# Shear Modulus (GPa) = 22.22683 25.74119 23.98401
#
# Velocity S-wave (km/s) = 3.48324 3.74852 3.61831
# Velocity P-wave (km/s) = 7.43821 7.62795 7.53368
#
# Compressibility (1/GPa) = 0.01394319
#
# Stress axis : x y z
#
# Youngs Moduli (GPa) = 99.08963 92.59298 89.94774
#
# Poissons Ratio (x) = 0.21582 0.19973
# Poissons Ratio (y) = 0.23096 0.40312
# Poissons Ratio (z) = 0.22003 0.41497
#
# Static dielectric constant tensor:
#      x y z
#    x 3.413430 0.000000 0.000000 
#    y 0.000000 3.096120 0.000000 
#    z 0.000000 0.000000 3.879920 
# 
# 
# High freq. dielectric constant tensor:
#      x y z
#    x 1.715730 0.000000 0.000000 
#    y 0.000000 1.680230 0.000000 
#    z 0.000000 0.000000 1.732770 
# 
# From -- ./inp_files/22275.got.cif
#   From: 2010.03.12/outbox.cif.g09.slc.cpg/sg72_12_cif.got.tgz:22275.got - 2010.04.16 14:54:00.
