data_PCOD8294217
_publ_section_title
;
Structure prediction by ZEFSAII (Michael W. Deem and Ramdas Pophale) SiO2 
 PCOD8294217
Probable space group: I B A M
;
_chemical_formula_sum "Si O2"
_cell_formula_units_Z 112
_cell_length_a 21.847597
_cell_length_b 18.193157
_cell_length_c 14.658148
_cell_angle_alpha 90.000000
_cell_angle_beta 90.000000
_cell_angle_gamma 90.000000
_cell_volume 5826.273208
_symmetry_space_group_name_H-M "I B A M"
_symmetry_group_IT_number 72
_symmetry_cell_setting 'orthorhombic'
loop_
_space_group_symop_operation_xyz
x,y,z
-x,-y,z
x,-y,1/2-z
-x,y,1/2-z
-x,-y,-z
x,y,-z
-x,y,1/2+z
x,-y,1/2+z
1/2+x,1/2+y,1/2+z
1/2-x,1/2-y,1/2+z
1/2+x,1/2-y,-z
1/2-x,1/2+y,-z
1/2-x,1/2-y,1/2-z
1/2+x,1/2+y,1/2-z
1/2-x,1/2+y,z
1/2+x,1/2-y,z
loop_
_atom_site_type_symbol
_atom_site_label
_atom_site_fract_x
_atom_site_fract_y
_atom_site_fract_z
Si Si1 0.236053 0.662690 0.895379
Si Si2 0.572186 0.303086 0.247993
Si Si3 0.178494 0.087025 0.752599
Si Si4 0.001304 0.579950 0.394357
Si Si5 0.246904 0.670009 0.606103
Si Si6 0.100056 0.687399 0.105815
Si Si7 0.609902 0.816704 0.395642
O O1 0.278013 0.608860 0.836862
O O2 0.242971 0.746421 0.862347
O O3 0.164342 0.645041 0.882040
O O4 0.256748 0.653516 0.000000
O O5 0.500000 0.321898 0.250000
O O6 0.610993 0.377841 0.237030
O O7 0.595187 0.263922 0.340481
O O8 0.587298 0.251961 0.162257
O O9 0.209876 0.114338 0.659695
O O10 0.170413 0.000000 0.750000
O O11 0.983441 0.572211 0.500000
O O12 0.067799 0.613075 0.378981
O O13 0.000000 0.500000 0.347183
O O14 0.950635 0.633368 0.350172
O O15 0.262325 0.659623 0.500000
O O16 0.176600 0.653264 0.630648
O O17 0.087903 0.706828 0.000000
O O18 0.608250 0.789283 0.500000
#
# Coordination Sequence:
#
# PCOD8294217 Si02
#       7
#    16  16  16  16  16  16  16
#     4  10  20  38  66  91 115 154 202 247 295 358
#     4  12  23  38  62  86 112 154 213 252 289 354
#     4  12  26  41  59  88 128 158 192 256 312 354
#     4   9  18  33  53  83 122 152 180 230 292 347
#     4  10  20  38  66  91 115 154 202 247 295 358
#     4  10  20  36  61  89 116 154 199 243 291 351
#     4  10  20  36  61  89 116 154 199 243 291 351
#
# _framework density 19.223265999999999
#
# number of rings (size 3 to 8) (size 9 to 14) (size 15 to 20)
#    0.000    1.571    4.286    1.286    0.000    2.000 
#    0.000    4.286    0.000    0.000    0.000    4.000 
#    0.000    0.000    0.000    0.000    0.000    0.000 
#
# Total GULP energy -694438.734538 kJ/mol
# GULP energy per Si atom -12400.691688 kJ/mol
# Density = 1.917951 g / cm^3
# Si number density = 19.223266 Si / 1000 Ang^3
#
#
#
# Elastic Constant Matrix: (Units=GPa)
#
#
# Indices 1 2 3 4 5 6 
#
# 1 126.3336 41.4441 26.6560 0.0000 0.0000 0.0000
# 2 41.4441 104.5888 18.5338 0.0000 0.0000 0.0000
# 3 26.6560 18.5338 69.0384 0.0000 0.0000 0.0000
# 4 0.0000 0.0000 0.0000 12.5417 0.0000 0.0000
# 5 0.0000 0.0000 0.0000 0.0000 13.9542 0.0000
# 6 0.0000 0.0000 0.0000 0.0000 0.0000 25.6964
#
#
#
# Elastic Compliance Matrix: (Units=1/GPa)
#
#
# Indices 1 2 3 4 5 6 
#
# 1 0.009593 -0.003302 -0.002818 0.000000 0.000000 0.000000
# 2 -0.003302 0.011175 -0.001725 0.000000 0.000000 0.000000
# 3 -0.002818 -0.001725 0.016036 0.000000 0.000000 0.000000
# 4 0.000000 0.000000 0.000000 0.079734 0.000000 0.000000
# 5 0.000000 0.000000 0.000000 0.000000 0.071663 0.000000
# 6 0.000000 0.000000 0.000000 0.000000 0.000000 0.038916
#
#
# Mechanical properties :
#
#
# Convention : Reuss Voigt Hill
#
# Bulk Modulus (GPa) = 47.36015 52.58095 49.97055
# Shear Modulus (GPa) = 20.01239 24.66027 22.33633
#
# Velocity S-wave (km/s) = 3.23003 3.58555 3.41243
# Velocity P-wave (km/s) = 6.21299 6.67486 6.44806
#
# Compressibility (1/GPa) = 0.02111480
#
# Stress axis : x y z
#
# Youngs Moduli (GPa) = 104.23925 89.48177 62.36094
#
# Poissons Ratio (x) = 0.29548 0.17570
# Poissons Ratio (y) = 0.34421 0.10758
# Poissons Ratio (z) = 0.29370 0.15437
#
# Static dielectric constant tensor:
#      x y z
#    x 3.819610 0.000000 0.000000 
#    y 0.000000 3.347110 0.000000 
#    z 0.000000 0.000000 3.551450 
# 
# 
# High freq. dielectric constant tensor:
#      x y z
#    x 1.762740 0.000000 0.000000 
#    y 0.000000 1.717520 0.000000 
#    z 0.000000 0.000000 1.755300 
# 
# From -- ./inp_files/25173.got.cif
#   From: 2010.03.12/outbox.cif.g09.slc.cpg/sg72_13_cif.got.tgz:25173.got - 2010.04.16 14:54:00.
