data_PCOD8294388
_publ_section_title
;
Structure prediction by ZEFSAII (Michael W. Deem and Ramdas Pophale) SiO2 
 PCOD8294388
Probable space group: I B A M
;
_chemical_formula_sum "Si O2"
_cell_formula_units_Z 52
_cell_length_a 15.879305
_cell_length_b 7.807817
_cell_length_c 18.811622
_cell_angle_alpha 90.000000
_cell_angle_beta 90.000000
_cell_angle_gamma 90.000000
_cell_volume 2332.315829
_symmetry_space_group_name_H-M "I B A M"
_symmetry_group_IT_number 72
_symmetry_cell_setting 'orthorhombic'
loop_
_space_group_symop_operation_xyz
x,y,z
-x,-y,z
x,-y,1/2-z
-x,y,1/2-z
-x,-y,-z
x,y,-z
-x,y,1/2+z
x,-y,1/2+z
1/2+x,1/2+y,1/2+z
1/2-x,1/2-y,1/2+z
1/2+x,1/2-y,-z
1/2-x,1/2+y,-z
1/2-x,1/2-y,1/2-z
1/2+x,1/2+y,1/2-z
1/2-x,1/2+y,z
1/2+x,1/2-y,z
loop_
_atom_site_type_symbol
_atom_site_label
_atom_site_fract_x
_atom_site_fract_y
_atom_site_fract_z
Si Si1 0.965528 0.272346 0.500000
Si Si2 0.732999 0.187963 0.582668
Si Si3 0.000000 0.500000 0.750000
Si Si4 0.880494 0.392232 0.367704
Si Si5 0.366808 0.423344 0.000000
O O1 0.945733 0.389172 0.432474
O O2 0.061708 0.221907 0.500000
O O3 0.904252 0.109596 0.500000
O O4 0.751126 0.114923 0.500000
O O5 0.818152 0.227562 0.626754
O O6 0.687971 0.375886 0.571236
O O7 0.672937 0.067571 0.628972
O O8 0.937733 0.381702 0.702880
#
# Coordination Sequence:
#
# PCOD8294388 Si02
#       5
#     8  16   4  16   8
#     4  11  18  37  66  95 133 165 220 290 302 399
#     4  10  20  38  67 101 120 165 219 294 314 384
#     4  12  32  42  60  98 140 196 204 266 336 426
#     4  12  23  43  67  99 136 173 229 264 346 386
#     4   9  20  31  62 110 123 155 212 286 348 341
#
# _framework density 22.295437
#
# number of rings (size 3 to 8) (size 9 to 14) (size 15 to 20)
#    0.923    0.308    3.077    3.692    0.000    3.077 
#    0.000    0.000    0.000   22.154    0.000    0.000 
#    0.000    0.000    0.000    0.000    0.000    0.000 
#
# Total GULP energy -322201.297994 kJ/mol
# GULP energy per Si atom -12392.357615 kJ/mol
# Density = 2.224469 g / cm^3
# Si number density = 22.295437 Si / 1000 Ang^3
#
#
#
# Elastic Constant Matrix: (Units=GPa)
#
#
# Indices 1 2 3 4 5 6 
#
# 1 140.5486 26.9661 67.8155 0.0000 0.0000 0.0000
# 2 26.9661 69.7075 30.9078 0.0000 0.0000 0.0000
# 3 67.8155 30.9078 126.0425 0.0000 0.0000 0.0000
# 4 0.0000 0.0000 0.0000 0.7029 0.0000 0.0000
# 5 0.0000 0.0000 0.0000 0.0000 48.1632 0.0000
# 6 0.0000 0.0000 0.0000 0.0000 0.0000 45.4519
#
#
#
# Elastic Compliance Matrix: (Units=1/GPa)
#
#
# Indices 1 2 3 4 5 6 
#
# 1 0.009771 -0.001626 -0.004859 0.000000 0.000000 0.000000
# 2 -0.001626 0.016366 -0.003139 0.000000 0.000000 0.000000
# 3 -0.004859 -0.003139 0.011318 0.000000 0.000000 0.000000
# 4 0.000000 0.000000 0.000000 1.422658 0.000000 0.000000
# 5 0.000000 0.000000 0.000000 0.000000 0.020763 0.000000
# 6 0.000000 0.000000 0.000000 0.000000 0.000000 0.022001
#
#
# Mechanical properties :
#
#
# Convention : Reuss Voigt Hill
#
# Bulk Modulus (GPa) = 54.91737 65.29750 60.10744
# Shear Modulus (GPa) = 3.27184 32.90423 18.08804
#
# Velocity S-wave (km/s) = 1.21272 3.84582 2.85140
# Velocity P-wave (km/s) = 5.16198 7.00510 6.15294
#
# Compressibility (1/GPa) = 0.01820917
#
# Stress axis : x y z
#
# Youngs Moduli (GPa) = 102.34157 61.10166 88.35809
#
# Poissons Ratio (x) = 0.09933 0.42930
# Poissons Ratio (y) = 0.16637 0.27732
# Poissons Ratio (z) = 0.49724 0.19177
#
# Static dielectric constant tensor:
#      x y z
#    x 4.622270 0.000000 0.000000 
#    y 0.000000 3.968800 0.000000 
#    z 0.000000 0.000000 3.541930 
# 
# 
# High freq. dielectric constant tensor:
#      x y z
#    x 1.924380 0.000000 0.000000 
#    y 0.000000 1.887840 0.000000 
#    z 0.000000 0.000000 1.812530 
# 
# From -- ./inp_files/31052.got.cif
#   From: 2010.03.12/outbox.cif.g09.slc.cpg/sg72_16_cif.got.tgz:31052.got - 2010.04.16 14:54:00.
