data_PCOD8294305
_publ_section_title
;
Structure prediction by ZEFSAII (Michael W. Deem and Ramdas Pophale) SiO2 
 PCOD8294305
Probable space group: I B A M
;
_chemical_formula_sum "Si O2"
_cell_formula_units_Z 116
_cell_length_a 26.184524
_cell_length_b 22.201495
_cell_length_c 9.191432
_cell_angle_alpha 90.000000
_cell_angle_beta 90.000000
_cell_angle_gamma 90.000000
_cell_volume 5343.306440
_symmetry_space_group_name_H-M "I B A M"
_symmetry_group_IT_number 72
_symmetry_cell_setting 'orthorhombic'
loop_
_space_group_symop_operation_xyz
x,y,z
-x,-y,z
x,-y,1/2-z
-x,y,1/2-z
-x,-y,-z
x,y,-z
-x,y,1/2+z
x,-y,1/2+z
1/2+x,1/2+y,1/2+z
1/2-x,1/2-y,1/2+z
1/2+x,1/2-y,-z
1/2-x,1/2+y,-z
1/2-x,1/2-y,1/2-z
1/2+x,1/2+y,1/2-z
1/2-x,1/2+y,z
1/2+x,1/2-y,z
loop_
_atom_site_type_symbol
_atom_site_label
_atom_site_fract_x
_atom_site_fract_y
_atom_site_fract_z
Si Si1 0.551709 0.344622 0.827558
Si Si2 0.686729 0.058651 0.667821
Si Si3 0.090947 0.713580 0.669734
Si Si4 0.301445 0.257183 0.336745
Si Si5 0.500000 0.000000 0.250000
Si Si6 0.880145 0.059607 0.826682
Si Si7 0.707467 0.393727 0.162008
Si Si8 0.922082 0.400912 0.163407
O O1 0.500000 0.364852 0.750000
O O2 0.560206 0.274180 0.796710
O O3 0.594778 0.382553 0.746984
O O4 0.550862 0.358762 0.000000
O O5 0.678451 0.042626 0.500000
O O6 0.731278 0.108341 0.692164
O O7 0.632141 0.079052 0.733042
O O8 0.706224 0.000000 0.750000
O O9 0.091664 0.699877 0.500000
O O10 0.149675 0.720950 0.727427
O O11 0.061288 0.658054 0.745982
O O12 0.290795 0.234862 0.500000
O O13 0.250000 0.250000 0.250000
O O14 0.316159 0.327245 0.334624
O O15 0.463281 0.955226 0.339967
O O16 0.820249 0.065286 0.783395
O O17 0.903229 0.000000 0.750000
O O18 0.887945 0.057758 0.000000
O O19 0.697972 0.421496 0.000000
O O20 0.914010 0.378657 0.000000
#
# Coordination Sequence:
#
# PCOD8294305 Si02
#       8
#    16  16  16  16   4  16  16  16
#     4  11  24  46  70  98 135 174 221 277 334 397
#     4  10  21  38  60  88 125 170 217 273 336 399
#     4  10  23  43  68  97 134 175 216 270 337 401
#     4  10  20  37  61  93 133 176 216 266 328 393
#     4  12  26  48  72  98 134 180 230 290 352 400
#     4  12  25  42  67  99 134 177 224 272 329 393
#     4  10  20  38  62  90 132 176 218 272 331 395
#     4  11  25  44  68  96 128 171 224 281 339 406
#
# _framework density 21.709405
#
# number of rings (size 3 to 8) (size 9 to 14) (size 15 to 20)
#    0.000    1.379    2.069    3.103    0.966    6.897 
#    0.000    1.379    0.000    0.000    0.000    0.000 
#    0.000    0.000    0.000    0.000    0.000    0.000 
#
# Total GULP energy -719008.239842 kJ/mol
# GULP energy per Si atom -12396.693790 kJ/mol
# Density = 2.165999 g / cm^3
# Si number density = 21.709405 Si / 1000 Ang^3
#
#
#
# Elastic Constant Matrix: (Units=GPa)
#
#
# Indices 1 2 3 4 5 6 
#
# 1 103.9014 32.9701 40.0611 0.0000 0.0000 0.0000
# 2 32.9701 109.0055 48.0166 0.0000 0.0000 0.0000
# 3 40.0611 48.0166 109.1580 0.0000 0.0000 0.0000
# 4 0.0000 0.0000 0.0000 32.3733 0.0000 0.0000
# 5 0.0000 0.0000 0.0000 0.0000 27.2632 0.0000
# 6 0.0000 0.0000 0.0000 0.0000 0.0000 32.3090
#
#
#
# Elastic Compliance Matrix: (Units=1/GPa)
#
#
# Indices 1 2 3 4 5 6 
#
# 1 0.011558 -0.002019 -0.003354 0.000000 0.000000 0.000000
# 2 -0.002019 0.011731 -0.004420 0.000000 0.000000 0.000000
# 3 -0.003354 -0.004420 0.012336 0.000000 0.000000 0.000000
# 4 0.000000 0.000000 0.000000 0.030890 0.000000 0.000000
# 5 0.000000 0.000000 0.000000 0.000000 0.036679 0.000000
# 6 0.000000 0.000000 0.000000 0.000000 0.000000 0.030951
#
#
# Mechanical properties :
#
#
# Convention : Reuss Voigt Hill
#
# Bulk Modulus (GPa) = 62.33881 62.68449 62.51165
# Shear Modulus (GPa) = 31.43137 31.79024 31.61080
#
# Velocity S-wave (km/s) = 3.80915 3.83084 3.82001
# Velocity P-wave (km/s) = 6.93712 6.96449 6.95082
#
# Compressibility (1/GPa) = 0.01604137
#
# Stress axis : x y z
#
# Youngs Moduli (GPa) = 86.51854 85.24306 81.06353
#
# Poissons Ratio (x) = 0.17206 0.27188
# Poissons Ratio (y) = 0.17464 0.35826
# Poissons Ratio (z) = 0.29018 0.37673
#
# Static dielectric constant tensor:
#      x y z
#    x 3.992000 0.000000 0.000000 
#    y 0.000000 3.925250 0.000000 
#    z 0.000000 0.000000 3.751460 
# 
# 
# High freq. dielectric constant tensor:
#      x y z
#    x 1.861510 0.000000 0.000000 
#    y 0.000000 1.853840 0.000000 
#    z 0.000000 0.000000 1.840350 
# 
# From -- ./inp_files/8376.got.cif
#   From: 2010.03.12/outbox.cif.g09.slc.cpg/sg72_5_cif.got.tgz:8376.got - 2010.04.16 14:54:00.
