data_PCOD8294141
_publ_section_title
;
Structure prediction by ZEFSAII (Michael W. Deem and Ramdas Pophale) SiO2 
 PCOD8294141
Probable space group: I B A M
;
_chemical_formula_sum "Si O2"
_cell_formula_units_Z 116
_cell_length_a 26.597961
_cell_length_b 24.382895
_cell_length_c 9.052376
_cell_angle_alpha 90.000000
_cell_angle_beta 90.000000
_cell_angle_gamma 90.000000
_cell_volume 5870.785297
_symmetry_space_group_name_H-M "I B A M"
_symmetry_group_IT_number 72
_symmetry_cell_setting 'orthorhombic'
loop_
_space_group_symop_operation_xyz
x,y,z
-x,-y,z
x,-y,1/2-z
-x,y,1/2-z
-x,-y,-z
x,y,-z
-x,y,1/2+z
x,-y,1/2+z
1/2+x,1/2+y,1/2+z
1/2-x,1/2-y,1/2+z
1/2+x,1/2-y,-z
1/2-x,1/2+y,-z
1/2-x,1/2-y,1/2-z
1/2+x,1/2+y,1/2-z
1/2-x,1/2+y,z
1/2+x,1/2-y,z
loop_
_atom_site_type_symbol
_atom_site_label
_atom_site_fract_x
_atom_site_fract_y
_atom_site_fract_z
Si Si1 0.644041 0.850496 0.331426
Si Si2 0.720652 0.944105 0.331465
Si Si3 0.696226 0.246943 0.324896
Si Si4 0.922085 0.908303 0.833988
Si Si5 0.596503 0.303015 0.329561
Si Si6 0.000000 0.000000 0.250000
Si Si7 0.186571 0.942264 0.676009
Si Si8 0.948019 0.684799 0.326105
O O1 0.640815 0.827983 0.500000
O O2 0.670263 0.908982 0.328356
O O3 0.674338 0.810298 0.225661
O O4 0.589471 0.856446 0.257794
O O5 0.737730 0.955525 0.500000
O O6 0.766026 0.909424 0.246793
O O7 0.705896 0.000000 0.250000
O O8 0.703076 0.247466 0.500000
O O9 0.750000 0.250000 0.250000
O O10 0.655476 0.294974 0.279529
O O11 0.934785 0.852640 0.747083
O O12 0.963141 0.957819 0.835285
O O13 0.868524 0.926241 0.765538
O O14 0.914451 0.889608 0.000000
O O15 0.594739 0.317628 0.500000
O O16 0.567143 0.247548 0.293527
O O17 0.188310 0.942818 0.500000
O O18 0.199204 0.000000 0.750000
O O19 0.949108 0.672424 0.500000
O O20 0.000000 0.672363 0.250000
#
# Coordination Sequence:
#
# PCOD8294141 Si02
#       8
#    16  16  16  16  16   4  16  16
#     4  10  21  37  58  87 120 156 196 241 290 352
#     4  10  21  36  58  88 120 157 196 237 288 344
#     4  10  21  37  57  86 120 157 195 239 300 363
#     4  11  25  41  60  83 107 146 197 249 308 363
#     4   9  22  40  58  83 115 150 191 240 295 356
#     4  12  26  48  60  82 114 152 204 270 322 368
#     4  10  20  36  55  79 107 143 190 237 290 352
#     4  10  21  39  62  89 118 154 194 240 293 349
#
# _framework density 19.758855000000001
#
# number of rings (size 3 to 8) (size 9 to 14) (size 15 to 20)
#    0.000    1.931    0.690    3.931    2.897    7.724 
#    0.000    0.000    0.000    0.414    0.000    2.897 
#    0.000    0.000    0.000    0.000    0.000    0.000 
#
# Total GULP energy -718524.878341 kJ/mol
# GULP energy per Si atom -12388.359971 kJ/mol
# Density = 1.971388 g / cm^3
# Si number density = 19.758855 Si / 1000 Ang^3
#
#
#
# Elastic Constant Matrix: (Units=GPa)
#
#
# Indices 1 2 3 4 5 6 
#
# 1 144.1182 35.7825 50.8852 0.0000 0.0000 0.0000
# 2 35.7825 61.5609 31.8894 0.0000 0.0000 0.0000
# 3 50.8852 31.8894 100.9787 0.0000 0.0000 0.0000
# 4 0.0000 0.0000 0.0000 25.1171 0.0000 0.0000
# 5 0.0000 0.0000 0.0000 0.0000 29.9184 0.0000
# 6 0.0000 0.0000 0.0000 0.0000 0.0000 17.7124
#
#
#
# Elastic Compliance Matrix: (Units=1/GPa)
#
#
# Indices 1 2 3 4 5 6 
#
# 1 0.009015 -0.003451 -0.003453 0.000000 0.000000 0.000000
# 2 -0.003451 0.020742 -0.004811 0.000000 0.000000 0.000000
# 3 -0.003453 -0.004811 0.013162 0.000000 0.000000 0.000000
# 4 0.000000 0.000000 0.000000 0.039813 0.000000 0.000000
# 5 0.000000 0.000000 0.000000 0.000000 0.033424 0.000000
# 6 0.000000 0.000000 0.000000 0.000000 0.000000 0.056458
#
#
# Mechanical properties :
#
#
# Convention : Reuss Voigt Hill
#
# Bulk Modulus (GPa) = 51.31145 60.41911 55.86528
# Shear Modulus (GPa) = 24.68622 27.08964 25.88793
#
# Velocity S-wave (km/s) = 3.53848 3.70674 3.62359
# Velocity P-wave (km/s) = 6.53603 6.99746 6.77068
#
# Compressibility (1/GPa) = 0.01948883
#
# Stress axis : x y z
#
# Youngs Moduli (GPa) = 110.92916 48.21024 75.97360
#
# Poissons Ratio (x) = 0.16639 0.26232
# Poissons Ratio (y) = 0.38285 0.36554
# Poissons Ratio (z) = 0.38302 0.23196
#
# Static dielectric constant tensor:
#      x y z
#    x 3.863750 0.000000 0.000000 
#    y 0.000000 3.425670 0.000000 
#    z 0.000000 0.000000 3.615850 
# 
# 
# High freq. dielectric constant tensor:
#      x y z
#    x 1.782820 0.000000 0.000000 
#    y 0.000000 1.744190 0.000000 
#    z 0.000000 0.000000 1.778980 
# 
# From -- ./inp_files/7282.got.cif
#   From: 2010.03.12/outbox.cif.g09.slc.cpg/sg72_4_cif.got.tgz:7282.got - 2010.04.16 14:54:00.
