data_PCOD8294676
_publ_section_title
;
Structure prediction by ZEFSAII (Michael W. Deem and Ramdas Pophale) SiO2 
 PCOD8294676
Probable space group: I B A M
;
_chemical_formula_sum "Si O2"
_cell_formula_units_Z 112
_cell_length_a 15.020156
_cell_length_b 14.517588
_cell_length_c 25.538360
_cell_angle_alpha 90.000000
_cell_angle_beta 90.000000
_cell_angle_gamma 90.000000
_cell_volume 5568.803776
_symmetry_space_group_name_H-M "I B A M"
_symmetry_group_IT_number 72
_symmetry_cell_setting 'orthorhombic'
loop_
_space_group_symop_operation_xyz
x,y,z
-x,-y,z
x,-y,1/2-z
-x,y,1/2-z
-x,-y,-z
x,y,-z
-x,y,1/2+z
x,-y,1/2+z
1/2+x,1/2+y,1/2+z
1/2-x,1/2-y,1/2+z
1/2+x,1/2-y,-z
1/2-x,1/2+y,-z
1/2-x,1/2-y,1/2-z
1/2+x,1/2+y,1/2-z
1/2-x,1/2+y,z
1/2+x,1/2-y,z
loop_
_atom_site_type_symbol
_atom_site_label
_atom_site_fract_x
_atom_site_fract_y
_atom_site_fract_z
Si Si1 0.247012 0.448499 0.199137
Si Si2 0.563434 0.413281 0.060168
Si Si3 0.249526 0.912713 0.609902
Si Si4 0.590570 0.150823 0.775903
Si Si5 0.060060 0.589187 0.941451
Si Si6 0.318844 0.753076 0.320023
Si Si7 0.495973 0.753347 0.130245
O O1 0.287970 0.500000 0.250000
O O2 0.274435 0.504979 0.148914
O O3 0.138941 0.441576 0.202827
O O4 0.273383 0.342127 0.194415
O O5 0.500000 0.500000 0.074654
O O6 0.669872 0.423242 0.068006
O O7 0.539592 0.332081 0.098708
O O8 0.546019 0.386369 0.000000
O O9 0.342632 0.931837 0.581458
O O10 0.256158 0.816259 0.642220
O O11 0.500000 0.116968 0.750000
O O12 0.657870 0.193868 0.733241
O O13 0.570531 0.224520 0.821748
O O14 0.000000 0.500000 0.942435
O O15 0.003605 0.659497 0.907208
O O16 0.072546 0.628899 0.000000
O O17 0.407824 0.724959 0.349639
#
# Coordination Sequence:
#
# PCOD8294676 Si02
#       7
#    16  16  16  16  16  16  16
#     4  12  23  35  58  84 120 159 196 242 300 364
#     4  11  24  42  64  89 120 162 213 258 303 358
#     4  11  23  40  62  90 122 165 203 253 304 364
#     4  10  21  38  59  87 123 159 197 246 298 362
#     4  10  21  39  63  92 124 156 201 257 313 363
#     4  10  22  40  57  89 123 158 200 245 304 363
#     4  10  21  39  63  84 121 159 202 252 303 362
#
# _framework density 20.112038999999999
#
# number of rings (size 3 to 8) (size 9 to 14) (size 15 to 20)
#    0.000    1.429    1.429    3.857    2.000    0.286 
#    0.000    0.000    0.000    6.857    0.000    0.000 
#    0.000    0.000    0.000    0.000    0.000    0.000 
#
# Total GULP energy -694146.424484 kJ/mol
# GULP energy per Si atom -12395.471866 kJ/mol
# Density = 2.006626 g / cm^3
# Si number density = 20.112039 Si / 1000 Ang^3
#
#
#
# Elastic Constant Matrix: (Units=GPa)
#
#
# Indices 1 2 3 4 5 6 
#
# 1 67.4101 22.2568 23.8386 0.0000 0.0000 0.0000
# 2 22.2568 36.3473 3.1965 0.0000 0.0000 0.0000
# 3 23.8386 3.1965 93.3374 0.0000 0.0000 0.0000
# 4 0.0000 0.0000 0.0000 21.8133 0.0000 0.0000
# 5 0.0000 0.0000 0.0000 0.0000 29.4718 0.0000
# 6 0.0000 0.0000 0.0000 0.0000 0.0000 -4.1732
#
#
#
# Elastic Compliance Matrix: (Units=1/GPa)
#
#
# Indices 1 2 3 4 5 6 
#
# 1 0.020561 -0.012165 -0.004835 0.000000 0.000000 0.000000
# 2 -0.012165 0.034793 0.001915 0.000000 0.000000 0.000000
# 3 -0.004835 0.001915 0.011883 0.000000 0.000000 0.000000
# 4 0.000000 0.000000 0.000000 0.045844 0.000000 0.000000
# 5 0.000000 0.000000 0.000000 0.000000 0.033931 0.000000
# 6 0.000000 0.000000 0.000000 0.000000 0.000000 -0.239624
#
#
# Mechanical properties :
#
#
# Convention : Reuss Voigt Hill
#
# Bulk Modulus (GPa) = 26.97719 32.85318 29.91518
# Shear Modulus (GPa) = -99.82397 19.27591 -40.27403
#
# Velocity S-wave (km/s) = -7.05278 3.09920 -4.47977
# Velocity P-wave (km/s) = 7.27184 5.40160 3.44256
#
# Compressibility (1/GPa) = 0.03706836
#
# Stress axis : x y z
#
# Youngs Moduli (GPa) = 48.63623 28.74140 84.15374
#
# Poissons Ratio (x) = 0.34964 0.40686
# Poissons Ratio (y) = 0.59166 -0.16119
# Poissons Ratio (z) = 0.23514 -0.05505
#
# Static dielectric constant tensor:
#      x y z
#    x 4.397800 0.000000 0.000000 
#    y 0.000000 3.569300 0.000000 
#    z 0.000000 0.000000 3.927600 
# 
# 
# High freq. dielectric constant tensor:
#      x y z
#    x 1.794350 0.000000 0.000000 
#    y 0.000000 1.780930 0.000000 
#    z 0.000000 0.000000 1.798940 
# 
# From -- ./inp_files/44367.got.cif
#   From: 2010.03.12/outbox.cif.g09.slc.cpg/sg72_23_cif.got.tgz:44367.got - 2010.04.16 14:54:00.
