data_PCOD8294258
_publ_section_title
;
Structure prediction by ZEFSAII (Michael W. Deem and Ramdas Pophale) SiO2 
 PCOD8294258
Probable space group: I B A M
;
_chemical_formula_sum "Si O2"
_cell_formula_units_Z 112
_cell_length_a 12.188118
_cell_length_b 16.524464
_cell_length_c 26.891515
_cell_angle_alpha 90.000000
_cell_angle_beta 90.000000
_cell_angle_gamma 90.000000
_cell_volume 5416.008054
_symmetry_space_group_name_H-M "I B A M"
_symmetry_group_IT_number 72
_symmetry_cell_setting 'orthorhombic'
loop_
_space_group_symop_operation_xyz
x,y,z
-x,-y,z
x,-y,1/2-z
-x,y,1/2-z
-x,-y,-z
x,y,-z
-x,y,1/2+z
x,-y,1/2+z
1/2+x,1/2+y,1/2+z
1/2-x,1/2-y,1/2+z
1/2+x,1/2-y,-z
1/2-x,1/2+y,-z
1/2-x,1/2-y,1/2-z
1/2+x,1/2+y,1/2-z
1/2-x,1/2+y,z
1/2+x,1/2-y,z
loop_
_atom_site_type_symbol
_atom_site_label
_atom_site_fract_x
_atom_site_fract_y
_atom_site_fract_z
Si Si1 0.699750 0.673983 0.311091
Si Si2 0.248480 0.858766 0.797827
Si Si3 0.480129 0.591662 0.656426
Si Si4 0.789339 0.608953 0.591038
Si Si5 0.485380 0.828139 0.943889
Si Si6 0.110578 0.454393 0.870418
Si Si7 0.552057 0.641537 0.444340
O O1 0.703433 0.770105 0.306904
O O2 0.737431 0.628143 0.261088
O O3 0.575879 0.648796 0.323181
O O4 0.782035 0.647316 0.354197
O O5 0.131821 0.870956 0.823990
O O6 0.332179 0.924365 0.819969
O O7 0.500000 0.500000 0.675103
O O8 0.480595 0.592360 0.596026
O O9 0.886116 0.653288 0.561827
O O10 0.811075 0.513644 0.598221
O O11 0.679726 0.619050 0.559369
O O12 0.412055 0.879051 0.906178
O O13 0.462167 0.735493 0.931971
O O14 0.450057 0.850021 0.000000
O O15 0.000000 0.500000 0.854486
O O16 0.510163 0.620719 0.500000
#
# Coordination Sequence:
#
# PCOD8294258 Si02
#       7
#    16  16  16  16  16  16  16
#     4  10  23  39  62  88 115 155 201 240 289 352
#     4  11  22  41  63  86 119 158 198 246 297 350
#     4  11  23  40  62  88 122 160 198 243 298 364
#     4  10  20  37  58  83 115 149 186 240 294 345
#     4  10  21  38  59  82 112 153 195 233 287 357
#     4  10  22  38  59  87 116 149 191 241 294 350
#     4  10  21  37  59  86 114 148 193 243 290 342
#
# _framework density 20.679437
#
# number of rings (size 3 to 8) (size 9 to 14) (size 15 to 20)
#    0.000    1.714    0.000    5.143    0.000    7.429 
#    0.000   10.000    0.000    0.000    0.000    0.000 
#    0.000    0.000    0.000    0.000    0.000    0.000 
#
# Total GULP energy -694582.348319 kJ/mol
# GULP energy per Si atom -12403.256220 kJ/mol
# Density = 2.063237 g / cm^3
# Si number density = 20.679437 Si / 1000 Ang^3
#
#
#
# Elastic Constant Matrix: (Units=GPa)
#
#
# Indices 1 2 3 4 5 6 
#
# 1 47.0202 37.3832 23.4999 0.0000 0.0000 0.0000
# 2 37.3832 84.9514 26.4532 0.0000 0.0000 0.0000
# 3 23.4999 26.4532 102.8456 0.0000 0.0000 0.0000
# 4 0.0000 0.0000 0.0000 -7.8694 0.0000 0.0000
# 5 0.0000 0.0000 0.0000 0.0000 21.6334 0.0000
# 6 0.0000 0.0000 0.0000 0.0000 0.0000 35.2300
#
#
#
# Elastic Compliance Matrix: (Units=1/GPa)
#
#
# Indices 1 2 3 4 5 6 
#
# 1 0.034384 -0.013789 -0.004310 0.000000 0.000000 0.000000
# 2 -0.013789 0.018326 -0.001563 0.000000 0.000000 0.000000
# 3 -0.004310 -0.001563 0.011110 0.000000 0.000000 0.000000
# 4 0.000000 0.000000 0.000000 -0.127074 0.000000 0.000000
# 5 0.000000 0.000000 0.000000 0.000000 0.046225 0.000000
# 6 0.000000 0.000000 0.000000 0.000000 0.000000 0.028385
#
#
# Mechanical properties :
#
#
# Convention : Reuss Voigt Hill
#
# Bulk Modulus (GPa) = 40.82177 45.49887 43.16032
# Shear Modulus (GPa) = 84.96863 19.63084 52.29973
#
# Velocity S-wave (km/s) = 6.41698 3.08440 5.03444
# Velocity P-wave (km/s) = 8.64215 5.89360 7.39666
#
# Compressibility (1/GPa) = 0.02449673
#
# Stress axis : x y z
#
# Youngs Moduli (GPa) = 29.08306 54.56740 90.00766
#
# Poissons Ratio (x) = 0.75242 0.38794
# Poissons Ratio (y) = 0.40102 0.14068
# Poissons Ratio (z) = 0.12535 0.08529
#
# Static dielectric constant tensor:
#      x y z
#    x 3.711320 0.000000 0.000000 
#    y 0.000000 3.798930 0.000000 
#    z 0.000000 0.000000 3.933230 
# 
# 
# High freq. dielectric constant tensor:
#      x y z
#    x 1.806560 0.000000 0.000000 
#    y 0.000000 1.818700 0.000000 
#    z 0.000000 0.000000 1.818530 
# 
# From -- ./inp_files/51468.got.cif
#   From: 2010.03.12/outbox.cif.g09.slc.cpg/sg72_26_cif.got.tgz:51468.got - 2010.04.16 14:54:00.
