data_PCOD8294403
_publ_section_title
;
Structure prediction by ZEFSAII (Michael W. Deem and Ramdas Pophale) SiO2 
 PCOD8294403
Probable space group: I B A M
;
_chemical_formula_sum "Si O2"
_cell_formula_units_Z 88
_cell_length_a 26.666321
_cell_length_b 11.207642
_cell_length_c 15.151148
_cell_angle_alpha 90.000000
_cell_angle_beta 90.000000
_cell_angle_gamma 90.000000
_cell_volume 4528.171774
_symmetry_space_group_name_H-M "I B A M"
_symmetry_group_IT_number 72
_symmetry_cell_setting 'orthorhombic'
loop_
_space_group_symop_operation_xyz
x,y,z
-x,-y,z
x,-y,1/2-z
-x,y,1/2-z
-x,-y,-z
x,y,-z
-x,y,1/2+z
x,-y,1/2+z
1/2+x,1/2+y,1/2+z
1/2-x,1/2-y,1/2+z
1/2+x,1/2-y,-z
1/2-x,1/2+y,-z
1/2-x,1/2-y,1/2-z
1/2+x,1/2+y,1/2-z
1/2-x,1/2+y,z
1/2+x,1/2-y,z
loop_
_atom_site_type_symbol
_atom_site_label
_atom_site_fract_x
_atom_site_fract_y
_atom_site_fract_z
Si Si1 0.660425 0.387176 0.000000
Si Si2 0.597538 0.776818 0.839799
Si Si3 0.331258 0.005579 0.149963
Si Si4 0.225862 0.371905 0.500000
Si Si5 0.387915 0.768502 0.858488
Si Si6 0.648226 0.337277 0.500000
Si Si7 0.497188 0.134978 0.601915
O O1 0.716380 0.334708 0.000000
O O2 0.629991 0.344993 0.913952
O O3 0.666552 0.528257 0.000000
O O4 0.614126 0.730828 0.743796
O O5 0.615326 0.682832 0.912585
O O6 0.537493 0.788701 0.842888
O O7 0.621254 0.906589 0.858454
O O8 0.350092 0.876337 0.119397
O O9 0.310499 0.000000 0.250000
O O10 0.286804 0.050344 0.086927
O O11 0.196353 0.247725 0.500000
O O12 0.443360 0.806894 0.885547
O O13 0.513414 0.137867 0.500000
O O14 0.500000 0.000000 0.637946
#
# Coordination Sequence:
#
# PCOD8294403 Si02
#       7
#     8  16  16   8  16   8  16
#     4  12  27  43  60  88 121 166 212 262 303 364
#     4  10  20  39  63  91 128 166 195 250 311 376
#     4   9  19  37  63  95 124 151 197 256 317 374
#     4  10  23  42  66  85 117 166 203 262 324 365
#     4  11  22  37  62  97 130 154 205 259 309 363
#     4  10  24  45  60  84 121 167 213 245 313 373
#     4  11  20  32  63 101 131 165 200 249 315 376
#
# _framework density 19.433892
#
# number of rings (size 3 to 8) (size 9 to 14) (size 15 to 20)
#    0.000    1.636    3.636    1.091    2.545    1.455 
#    3.273    4.545    0.000    2.182    0.000    0.000 
#    0.000    0.000    0.000    0.000    0.000    0.000 
#
# Total GULP energy -545778.521309 kJ/mol
# GULP energy per Si atom -12404.057302 kJ/mol
# Density = 1.938966 g / cm^3
# Si number density = 19.433892 Si / 1000 Ang^3
#
#
#
# Elastic Constant Matrix: (Units=GPa)
#
#
# Indices 1 2 3 4 5 6 
#
# 1 121.9016 38.1909 45.4492 0.0000 0.0000 0.0000
# 2 38.1909 91.5674 45.6680 0.0000 0.0000 0.0000
# 3 45.4492 45.6680 128.0865 0.0000 0.0000 0.0000
# 4 0.0000 0.0000 0.0000 15.2735 0.0000 0.0000
# 5 0.0000 0.0000 0.0000 0.0000 13.7528 0.0000
# 6 0.0000 0.0000 0.0000 0.0000 0.0000 23.4147
#
#
#
# Elastic Compliance Matrix: (Units=1/GPa)
#
#
# Indices 1 2 3 4 5 6 
#
# 1 0.010065 -0.002939 -0.002523 0.000000 0.000000 0.000000
# 2 -0.002939 0.014141 -0.003999 0.000000 0.000000 0.000000
# 3 -0.002523 -0.003999 0.010128 0.000000 0.000000 0.000000
# 4 0.000000 0.000000 0.000000 0.065473 0.000000 0.000000
# 5 0.000000 0.000000 0.000000 0.000000 0.072712 0.000000
# 6 0.000000 0.000000 0.000000 0.000000 0.000000 0.042708
#
#
# Mechanical properties :
#
#
# Convention : Reuss Voigt Hill
#
# Bulk Modulus (GPa) = 64.88769 66.68575 65.78672
# Shear Modulus (GPa) = 20.89526 24.63802 22.76664
#
# Velocity S-wave (km/s) = 3.28258 3.56446 3.42642
# Velocity P-wave (km/s) = 6.91581 7.16444 7.04122
#
# Compressibility (1/GPa) = 0.01541124
#
# Stress axis : x y z
#
# Youngs Moduli (GPa) = 99.35375 70.71477 98.73243
#
# Poissons Ratio (x) = 0.20786 0.24914
# Poissons Ratio (y) = 0.29204 0.39483
# Poissons Ratio (z) = 0.25071 0.28278
#
# Static dielectric constant tensor:
#      x y z
#    x 3.349070 0.000000 0.000000 
#    y 0.000000 3.234380 0.000000 
#    z 0.000000 0.000000 3.779140 
# 
# 
# High freq. dielectric constant tensor:
#      x y z
#    x 1.750310 0.000000 0.000000 
#    y 0.000000 1.727700 0.000000 
#    z 0.000000 0.000000 1.773550 
# 
# From -- ./inp_files/20358.got.cif
#   From: 2010.03.12/outbox.cif.g09.slc.cpg/sg72_11_cif.got.tgz:20358.got - 2010.04.16 14:54:00.
