data_PCOD8294072
_publ_section_title
;
Structure prediction by ZEFSAII (Michael W. Deem and Ramdas Pophale) SiO2 
 PCOD8294072
Probable space group: I B A M
;
_chemical_formula_sum "Si O2"
_cell_formula_units_Z 116
_cell_length_a 21.746458
_cell_length_b 31.022848
_cell_length_c 8.943204
_cell_angle_alpha 90.000000
_cell_angle_beta 90.000000
_cell_angle_gamma 90.000000
_cell_volume 6033.416863
_symmetry_space_group_name_H-M "I B A M"
_symmetry_group_IT_number 72
_symmetry_cell_setting 'orthorhombic'
loop_
_space_group_symop_operation_xyz
x,y,z
-x,-y,z
x,-y,1/2-z
-x,y,1/2-z
-x,-y,-z
x,y,-z
-x,y,1/2+z
x,-y,1/2+z
1/2+x,1/2+y,1/2+z
1/2-x,1/2-y,1/2+z
1/2+x,1/2-y,-z
1/2-x,1/2+y,-z
1/2-x,1/2-y,1/2-z
1/2+x,1/2+y,1/2-z
1/2-x,1/2+y,z
1/2+x,1/2-y,z
loop_
_atom_site_type_symbol
_atom_site_label
_atom_site_fract_x
_atom_site_fract_y
_atom_site_fract_z
Si Si1 0.789265 0.805249 0.330130
Si Si2 0.400083 0.935030 0.833638
Si Si3 0.937322 0.659690 0.175726
Si Si4 0.562966 0.545480 0.822592
Si Si5 0.776897 0.456682 0.176150
Si Si6 0.500000 0.000000 0.250000
Si Si7 0.820183 0.100072 0.171471
Si Si8 0.333636 0.213462 0.828032
O O1 0.763519 0.802874 0.500000
O O2 0.827589 0.848839 0.304018
O O3 0.732721 0.805001 0.216277
O O4 0.834620 0.765016 0.300537
O O5 0.422731 0.888992 0.771897
O O6 0.347858 0.951398 0.721820
O O7 0.456298 0.968762 0.846607
O O8 0.371918 0.929905 0.000000
O O9 0.884432 0.692154 0.224735
O O10 0.000000 0.675571 0.250000
O O11 0.945338 0.662027 0.000000
O O12 0.580991 0.500000 0.750000
O O13 0.500000 0.562945 0.750000
O O14 0.615892 0.578999 0.778543
O O15 0.554883 0.540246 0.000000
O O16 0.749523 0.500000 0.250000
O O17 0.736426 0.416453 0.229142
O O18 0.773228 0.461331 0.000000
O O19 0.805126 0.088624 0.000000
O O20 0.346483 0.201587 0.000000
#
# Coordination Sequence:
#
# PCOD8294072 Si02
#       8
#    16  16  16  16  16   4  16  16
#     4   9  19  37  60  84 113 146 182 228 281 338
#     4  11  24  40  59  83 113 151 196 243 290 338
#     4  11  23  39  58  83 113 148 189 235 285 337
#     4  10  20  35  57  82 110 146 184 221 267 326
#     4  12  25  38  56  82 115 153 194 239 285 335
#     4  12  22  40  64  82 110 152 200 240 286 336
#     4  10  21  38  59  84 115 149 185 231 287 337
#     4  10  20  36  59  86 113 145 186 230 280 339
#
# _framework density 19.226253
#
# number of rings (size 3 to 8) (size 9 to 14) (size 15 to 20)
#    0.000    1.517    1.379    4.345    0.000    8.276 
#    0.000    0.690    0.000    1.655    0.000    0.000 
#    0.000    0.000    0.000    0.000    0.000    0.000 
#
# Total GULP energy -719390.497006 kJ/mol
# GULP energy per Si atom -12403.284431 kJ/mol
# Density = 1.918249 g / cm^3
# Si number density = 19.226253 Si / 1000 Ang^3
#
#
#
# Elastic Constant Matrix: (Units=GPa)
#
#
# Indices 1 2 3 4 5 6 
#
# 1 99.7625 66.4592 37.9501 0.0000 0.0000 0.0000
# 2 66.4592 128.9440 41.1702 0.0000 0.0000 0.0000
# 3 37.9501 41.1702 94.4837 0.0000 0.0000 0.0000
# 4 0.0000 0.0000 0.0000 21.0967 0.0000 0.0000
# 5 0.0000 0.0000 0.0000 0.0000 31.7760 0.0000
# 6 0.0000 0.0000 0.0000 0.0000 0.0000 25.8513
#
#
#
# Elastic Compliance Matrix: (Units=1/GPa)
#
#
# Indices 1 2 3 4 5 6 
#
# 1 0.016112 -0.007246 -0.003314 0.000000 0.000000 0.000000
# 2 -0.007246 0.012267 -0.002435 0.000000 0.000000 0.000000
# 3 -0.003314 -0.002435 0.012976 0.000000 0.000000 0.000000
# 4 0.000000 0.000000 0.000000 0.047401 0.000000 0.000000
# 5 0.000000 0.000000 0.000000 0.000000 0.031470 0.000000
# 6 0.000000 0.000000 0.000000 0.000000 0.000000 0.038683
#
#
# Mechanical properties :
#
#
# Convention : Reuss Voigt Hill
#
# Bulk Modulus (GPa) = 65.08283 68.26101 66.67192
# Shear Modulus (GPa) = 26.31299 27.58551 26.94925
#
# Velocity S-wave (km/s) = 3.70347 3.79196 3.74798
# Velocity P-wave (km/s) = 7.22579 7.39954 7.31318
#
# Compressibility (1/GPa) = 0.01536504
#
# Stress axis : x y z
#
# Youngs Moduli (GPa) = 62.06743 81.51680 77.06564
#
# Poissons Ratio (x) = 0.59067 0.25539
# Poissons Ratio (y) = 0.44974 0.18765
# Poissons Ratio (z) = 0.20569 0.19849
#
# Static dielectric constant tensor:
#      x y z
#    x 3.413330 0.000000 0.000000 
#    y 0.000000 3.655040 0.000000 
#    z 0.000000 0.000000 3.499810 
# 
# 
# High freq. dielectric constant tensor:
#      x y z
#    x 1.738950 0.000000 0.000000 
#    y 0.000000 1.752630 0.000000 
#    z 0.000000 0.000000 1.753340 
# 
# From -- ./inp_files/7331.got.cif
#   From: 2010.03.12/outbox.cif.g09.slc.cpg/sg72_4_cif.got.tgz:7331.got - 2010.04.16 14:54:00.
