data_PCOD8294729
_publ_section_title
;
Structure prediction by ZEFSAII (Michael W. Deem and Ramdas Pophale) SiO2 
 PCOD8294729
Probable space group: I B A M
;
_chemical_formula_sum "Si O2"
_cell_formula_units_Z 88
_cell_length_a 29.431347
_cell_length_b 5.118913
_cell_length_c 27.382370
_cell_angle_alpha 90.000000
_cell_angle_beta 90.000000
_cell_angle_gamma 90.000000
_cell_volume 4125.332156
_symmetry_space_group_name_H-M "I B A M"
_symmetry_group_IT_number 72
_symmetry_cell_setting 'orthorhombic'
loop_
_space_group_symop_operation_xyz
x,y,z
-x,-y,z
x,-y,1/2-z
-x,y,1/2-z
-x,-y,-z
x,y,-z
-x,y,1/2+z
x,-y,1/2+z
1/2+x,1/2+y,1/2+z
1/2-x,1/2-y,1/2+z
1/2+x,1/2-y,-z
1/2-x,1/2+y,-z
1/2-x,1/2-y,1/2-z
1/2+x,1/2+y,1/2-z
1/2-x,1/2+y,z
1/2+x,1/2-y,z
loop_
_atom_site_type_symbol
_atom_site_label
_atom_site_fract_x
_atom_site_fract_y
_atom_site_fract_z
Si Si1 0.723857 0.360348 0.074207
Si Si2 0.000000 0.500000 0.828915
Si Si3 0.425235 0.000000 0.750000
Si Si4 0.721834 0.370902 0.811207
Si Si5 0.901311 0.800891 0.500000
Si Si6 0.848311 0.703623 0.000000
Si Si7 0.475091 0.755043 0.424390
Si Si8 0.636863 0.500000 0.250000
O O1 0.738311 0.649292 0.057498
O O2 0.716543 0.350524 0.131422
O O3 0.677541 0.279602 0.049182
O O4 0.042365 0.410078 0.795134
O O5 0.021352 0.724570 0.864730
O O6 0.394507 0.748867 0.735609
O O7 0.752666 0.611472 0.792252
O O8 0.670063 0.405035 0.793345
O O9 0.858635 0.604318 0.500000
O O10 0.925485 0.743088 0.551872
O O11 0.891787 0.109137 0.500000
O O12 0.500000 0.500000 0.443270
O O13 0.500000 0.000000 0.448752
#
# Coordination Sequence:
#
# PCOD8294729 Si02
#       8
#    16   8   8  16   8   8  16   8
#     4  10  21  39  60  82 117 169 208 236 287 366
#     4   9  26  43  68  84 120 169 212 243 316 372
#     4  11  26  41  62  93 126 157 206 263 306 369
#     4  10  21  39  64  88 122 163 204 241 300 370
#     4  12  24  38  60  96 124 150 200 260 306 354
#     4  12  24  36  58  92 128 154 194 260 306 342
#     4  10  22  41  68  84 115 161 201 242 296 372
#     4  12  24  38  64  93 128 153 198 264 314 352
#
# _framework density 21.331616
#
# number of rings (size 3 to 8) (size 9 to 14) (size 15 to 20)
#    0.545    0.909    0.000    4.909    2.545    3.636 
#    0.000    0.000    0.000    0.000    0.000    0.000 
#    0.000    0.000    0.000    0.000    0.000    0.000 
#
# Total GULP energy -545187.300739 kJ/mol
# GULP energy per Si atom -12390.620471 kJ/mol
# Density = 2.128306 g / cm^3
# Si number density = 21.331616 Si / 1000 Ang^3
#
#
#
# Elastic Constant Matrix: (Units=GPa)
#
#
# Indices 1 2 3 4 5 6 
#
# 1 110.4923 35.4469 45.0467 0.0000 0.0000 0.0000
# 2 35.4469 125.9462 30.6173 0.0000 0.0000 0.0000
# 3 45.0467 30.6173 93.3803 0.0000 0.0000 0.0000
# 4 0.0000 0.0000 0.0000 28.6711 0.0000 0.0000
# 5 0.0000 0.0000 0.0000 0.0000 37.9090 0.0000
# 6 0.0000 0.0000 0.0000 0.0000 0.0000 45.0985
#
#
#
# Elastic Compliance Matrix: (Units=1/GPa)
#
#
# Indices 1 2 3 4 5 6 
#
# 1 0.011755 -0.002097 -0.004983 0.000000 0.000000 0.000000
# 2 -0.002097 0.009002 -0.001940 0.000000 0.000000 0.000000
# 3 -0.004983 -0.001940 0.013749 0.000000 0.000000 0.000000
# 4 0.000000 0.000000 0.000000 0.034878 0.000000 0.000000
# 5 0.000000 0.000000 0.000000 0.000000 0.026379 0.000000
# 6 0.000000 0.000000 0.000000 0.000000 0.000000 0.022174
#
#
# Mechanical properties :
#
#
# Convention : Reuss Voigt Hill
#
# Bulk Modulus (GPa) = 60.73292 61.33785 61.03538
# Shear Modulus (GPa) = 35.34473 36.91625 36.13049
#
# Velocity S-wave (km/s) = 4.07494 4.16455 4.11999
# Velocity P-wave (km/s) = 7.11849 7.20704 7.16290
#
# Compressibility (1/GPa) = 0.01646553
#
# Stress axis : x y z
#
# Youngs Moduli (GPa) = 85.07308 111.09072 72.73422
#
# Poissons Ratio (x) = 0.23295 0.36243
# Poissons Ratio (y) = 0.17839 0.14110
# Poissons Ratio (z) = 0.42391 0.21550
#
# Static dielectric constant tensor:
#      x y z
#    x 3.701130 0.000000 0.000000 
#    y 0.000000 4.108070 0.000000 
#    z 0.000000 0.000000 3.903250 
# 
# 
# High freq. dielectric constant tensor:
#      x y z
#    x 1.827420 0.000000 0.000000 
#    y 0.000000 1.849200 0.000000 
#    z 0.000000 0.000000 1.847320 
# 
# From -- ./inp_files/52378.got.cif
#   From: 2010.03.12/outbox.cif.g09.slc.cpg/sg72_27_cif.got.tgz:52378.got - 2010.04.16 14:54:00.
