data_PCOD8294779
_publ_section_title
;
Structure prediction by ZEFSAII (Michael W. Deem and Ramdas Pophale) SiO2 
 PCOD8294779
Probable space group: I B A M
;
_chemical_formula_sum "Si O2"
_cell_formula_units_Z 116
_cell_length_a 22.794867
_cell_length_b 11.296718
_cell_length_c 19.524717
_cell_angle_alpha 90.000000
_cell_angle_beta 90.000000
_cell_angle_gamma 90.000000
_cell_volume 5027.754900
_symmetry_space_group_name_H-M "I B A M"
_symmetry_group_IT_number 72
_symmetry_cell_setting 'orthorhombic'
loop_
_space_group_symop_operation_xyz
x,y,z
-x,-y,z
x,-y,1/2-z
-x,y,1/2-z
-x,-y,-z
x,y,-z
-x,y,1/2+z
x,-y,1/2+z
1/2+x,1/2+y,1/2+z
1/2-x,1/2-y,1/2+z
1/2+x,1/2-y,-z
1/2-x,1/2+y,-z
1/2-x,1/2-y,1/2-z
1/2+x,1/2+y,1/2-z
1/2-x,1/2+y,z
1/2+x,1/2-y,z
loop_
_atom_site_type_symbol
_atom_site_label
_atom_site_fract_x
_atom_site_fract_y
_atom_site_fract_z
Si Si1 0.507053 0.138194 0.922392
Si Si2 0.000000 0.000000 0.750000
Si Si3 0.871532 0.439086 0.424611
Si Si4 0.427202 0.691156 0.663806
Si Si5 0.212004 0.764776 0.423673
Si Si6 0.319340 0.629386 0.422747
Si Si7 0.278024 0.551250 0.819046
Si Si8 0.855547 0.403499 0.802465
O O1 0.576807 0.157971 0.914447
O O2 0.476641 0.227246 0.870049
O O3 0.500000 0.000000 0.902947
O O4 0.485216 0.163358 0.000000
O O5 0.042093 0.915576 0.795217
O O6 0.875482 0.494967 0.500000
O O7 0.812119 0.367354 0.412485
O O8 0.875413 0.554717 0.377560
O O9 0.385171 0.636175 0.605793
O O10 0.385370 0.775169 0.711590
O O11 0.193322 0.812156 0.500000
O O12 0.283699 0.754677 0.421636
O O13 0.188628 0.842950 0.359745
O O14 0.322604 0.579188 0.500000
O O15 0.277075 0.549443 0.375937
O O16 0.310116 0.500000 0.750000
O O17 0.214760 0.600769 0.795440
O O18 0.881338 0.500000 0.750000
#
# Coordination Sequence:
#
# PCOD8294779 Si02
#       8
#    16   4  16  16  16  16  16  16
#     4  10  21  40  74 112 138 174 235 312 384 430
#     4  12  36  52  72 100 148 220 262 294 358 448
#     4  10  21  39  67 106 140 174 231 303 370 434
#     4  12  27  51  70 102 145 202 250 310 359 446
#     4  10  21  39  67 103 143 186 236 301 373 443
#     4  11  24  43  72 106 142 188 240 300 372 454
#     4  11  24  41  64 104 146 192 234 292 367 453
#     4  11  24  41  71 106 142 181 233 304 375 438
#
# _framework density 23.071928
#
# number of rings (size 3 to 8) (size 9 to 14) (size 15 to 20)
#    0.000    1.241    4.138    0.828    2.897    3.862 
#    0.000    2.759    0.000    0.000    0.000    0.000 
#    0.000    0.000    0.000    0.000    0.000    0.000 
#
# Total GULP energy -718552.612921 kJ/mol
# GULP energy per Si atom -12388.838154 kJ/mol
# Density = 2.301942 g / cm^3
# Si number density = 23.071928 Si / 1000 Ang^3
#
#
#
# Elastic Constant Matrix: (Units=GPa)
#
#
# Indices 1 2 3 4 5 6 
#
# 1 71.3323 23.9058 29.2379 0.0000 0.0000 0.0000
# 2 23.9058 98.2140 57.4015 0.0000 0.0000 0.0000
# 3 29.2379 57.4015 136.4522 0.0000 0.0000 0.0000
# 4 0.0000 0.0000 0.0000 44.4343 0.0000 0.0000
# 5 0.0000 0.0000 0.0000 0.0000 22.6990 0.0000
# 6 0.0000 0.0000 0.0000 0.0000 0.0000 34.3350
#
#
#
# Elastic Compliance Matrix: (Units=1/GPa)
#
#
# Indices 1 2 3 4 5 6 
#
# 1 0.015811 -0.002478 -0.002346 0.000000 0.000000 0.000000
# 2 -0.002478 0.013890 -0.005312 0.000000 0.000000 0.000000
# 3 -0.002346 -0.005312 0.010066 0.000000 0.000000 0.000000
# 4 0.000000 0.000000 0.000000 0.022505 0.000000 0.000000
# 5 0.000000 0.000000 0.000000 0.000000 0.044055 0.000000
# 6 0.000000 0.000000 0.000000 0.000000 0.000000 0.029125
#
#
# Mechanical properties :
#
#
# Convention : Reuss Voigt Hill
#
# Bulk Modulus (GPa) = 51.29346 58.56542 54.92944
# Shear Modulus (GPa) = 30.82243 33.32388 32.07316
#
# Velocity S-wave (km/s) = 3.65900 3.80458 3.73250
# Velocity P-wave (km/s) = 6.33493 6.68870 6.51422
#
# Compressibility (1/GPa) = 0.01949566
#
# Stress axis : x y z
#
# Youngs Moduli (GPa) = 63.24873 71.99660 99.34645
#
# Poissons Ratio (x) = 0.17837 0.23302
# Poissons Ratio (y) = 0.15670 0.52773
# Poissons Ratio (z) = 0.14835 0.38245
#
# Static dielectric constant tensor:
#      x y z
#    x 4.217870 0.000000 0.000000 
#    y 0.000000 3.938250 0.000000 
#    z 0.000000 0.000000 4.263170 
# 
# 
# High freq. dielectric constant tensor:
#      x y z
#    x 1.907170 0.000000 0.000000 
#    y 0.000000 1.894070 0.000000 
#    z 0.000000 0.000000 1.916240 
# 
# From -- ./inp_files/33984.got.cif
#   From: 2010.03.12/outbox.cif.g09.slc.cpg/sg72_17_cif.got.tgz:33984.got - 2010.04.16 14:54:00.
