data_PCOD8294856
_publ_section_title
;
Structure prediction by ZEFSAII (Michael W. Deem and Ramdas Pophale) SiO2 
 PCOD8294856
Probable space group: I B A M
;
_chemical_formula_sum "Si O2"
_cell_formula_units_Z 116
_cell_length_a 26.353822
_cell_length_b 22.915289
_cell_length_c 8.939357
_cell_angle_alpha 90.000000
_cell_angle_beta 90.000000
_cell_angle_gamma 90.000000
_cell_volume 5398.526388
_symmetry_space_group_name_H-M "I B A M"
_symmetry_group_IT_number 72
_symmetry_cell_setting 'orthorhombic'
loop_
_space_group_symop_operation_xyz
x,y,z
-x,-y,z
x,-y,1/2-z
-x,y,1/2-z
-x,-y,-z
x,y,-z
-x,y,1/2+z
x,-y,1/2+z
1/2+x,1/2+y,1/2+z
1/2-x,1/2-y,1/2+z
1/2+x,1/2-y,-z
1/2-x,1/2+y,-z
1/2-x,1/2-y,1/2-z
1/2+x,1/2+y,1/2-z
1/2-x,1/2+y,z
1/2+x,1/2-y,z
loop_
_atom_site_type_symbol
_atom_site_label
_atom_site_fract_x
_atom_site_fract_y
_atom_site_fract_z
Si Si1 0.552325 0.336004 0.822886
Si Si2 0.694146 0.940895 0.678721
Si Si3 0.100874 0.716895 0.677616
Si Si4 0.303463 0.265118 0.178829
Si Si5 0.500000 0.000000 0.250000
Si Si6 0.880977 0.058039 0.668922
Si Si7 0.717063 0.379208 0.172403
Si Si8 0.915301 0.409913 0.332428
O O1 0.500000 0.353899 0.750000
O O2 0.567732 0.271364 0.765288
O O3 0.592092 0.384292 0.765186
O O4 0.547685 0.335144 0.000000
O O5 0.697939 0.943103 0.500000
O O6 0.729905 0.889669 0.742046
O O7 0.636395 0.933558 0.743614
O O8 0.715523 0.000000 0.750000
O O9 0.110098 0.720353 0.500000
O O10 0.154955 0.719230 0.761053
O O11 0.072651 0.655804 0.727453
O O12 0.250000 0.250000 0.250000
O O13 0.315244 0.329149 0.243719
O O14 0.301990 0.264201 0.000000
O O15 0.462534 0.955381 0.165072
O O16 0.898756 0.050409 0.500000
O O17 0.819964 0.064891 0.680241
O O18 0.899291 0.000000 0.750000
O O19 0.728406 0.361610 0.000000
O O20 0.898044 0.400502 0.500000
#
# Coordination Sequence:
#
# PCOD8294856 Si02
#       8
#    16  16  16  16   4  16  16  16
#     4  10  22  41  64  91 127 167 214 273 331 389
#     4  11  22  39  59  91 130 172 222 274 335 400
#     4  10  21  43  67  92 131 173 217 273 331 395
#     4  12  24  39  63  97 133 173 217 267 326 395
#     4  12  22  44  68  98 132 168 224 280 340 404
#     4  10  22  40  62  91 127 168 212 264 322 380
#     4  11  22  40  64  93 131 174 217 269 328 394
#     4  10  23  41  65  92 125 170 216 270 336 397
#
# _framework density 21.487345999999999
#
# number of rings (size 3 to 8) (size 9 to 14) (size 15 to 20)
#    0.000    1.379    2.069    3.517    0.966    4.690 
#    0.000    3.448    0.000    0.000    0.000    0.000 
#    0.000    0.000    0.000    0.000    0.000    0.000 
#
# Total GULP energy -718726.312308 kJ/mol
# GULP energy per Si atom -12391.832971 kJ/mol
# Density = 2.143844 g / cm^3
# Si number density = 21.487346 Si / 1000 Ang^3
#
#
#
# Elastic Constant Matrix: (Units=GPa)
#
#
# Indices 1 2 3 4 5 6 
#
# 1 121.2107 51.9646 31.0650 0.0000 0.0000 0.0000
# 2 51.9646 156.3536 36.8255 0.0000 0.0000 0.0000
# 3 31.0650 36.8255 84.7154 0.0000 0.0000 0.0000
# 4 0.0000 0.0000 0.0000 29.8504 0.0000 0.0000
# 5 0.0000 0.0000 0.0000 0.0000 29.1877 0.0000
# 6 0.0000 0.0000 0.0000 0.0000 0.0000 28.6250
#
#
#
# Elastic Compliance Matrix: (Units=1/GPa)
#
#
# Indices 1 2 3 4 5 6 
#
# 1 0.010073 -0.002760 -0.002494 0.000000 0.000000 0.000000
# 2 -0.002760 0.007882 -0.002414 0.000000 0.000000 0.000000
# 3 -0.002494 -0.002414 0.013768 0.000000 0.000000 0.000000
# 4 0.000000 0.000000 0.000000 0.033500 0.000000 0.000000
# 5 0.000000 0.000000 0.000000 0.000000 0.034261 0.000000
# 6 0.000000 0.000000 0.000000 0.000000 0.000000 0.034934
#
#
# Mechanical properties :
#
#
# Convention : Reuss Voigt Hill
#
# Bulk Modulus (GPa) = 61.02637 66.88777 63.95707
# Shear Modulus (GPa) = 32.21311 33.69425 32.95368
#
# Velocity S-wave (km/s) = 3.87611 3.96422 3.92041
# Velocity P-wave (km/s) = 6.96384 7.22148 7.09383
#
# Compressibility (1/GPa) = 0.01638636
#
# Stress axis : x y z
#
# Youngs Moduli (GPa) = 99.27930 126.87597 72.63224
#
# Poissons Ratio (x) = 0.35022 0.18112
# Poissons Ratio (y) = 0.27404 0.17533
# Poissons Ratio (z) = 0.24757 0.30627
#
# Static dielectric constant tensor:
#      x y z
#    x 3.819370 0.000000 0.000000 
#    y 0.000000 4.712540 0.000000 
#    z 0.000000 0.000000 3.675640 
# 
# 
# High freq. dielectric constant tensor:
#      x y z
#    x 1.842750 0.000000 0.000000 
#    y 0.000000 1.860250 0.000000 
#    z 0.000000 0.000000 1.821290 
# 
# From -- ./inp_files/8377.got.cif
#   From: 2010.03.12/outbox.cif.g09.slc.cpg/sg72_5_cif.got.tgz:8377.got - 2010.04.16 14:54:00.
