data_PCOD8294239
_publ_section_title
;
Structure prediction by ZEFSAII (Michael W. Deem and Ramdas Pophale) SiO2 
 PCOD8294239
Probable space group: I B A M
;
_chemical_formula_sum "Si O2"
_cell_formula_units_Z 92
_cell_length_a 19.933795
_cell_length_b 8.445055
_cell_length_c 26.042447
_cell_angle_alpha 90.000000
_cell_angle_beta 90.000000
_cell_angle_gamma 90.000000
_cell_volume 4384.037486
_symmetry_space_group_name_H-M "I B A M"
_symmetry_group_IT_number 72
_symmetry_cell_setting 'orthorhombic'
loop_
_space_group_symop_operation_xyz
x,y,z
-x,-y,z
x,-y,1/2-z
-x,y,1/2-z
-x,-y,-z
x,y,-z
-x,y,1/2+z
x,-y,1/2+z
1/2+x,1/2+y,1/2+z
1/2-x,1/2-y,1/2+z
1/2+x,1/2-y,-z
1/2-x,1/2+y,-z
1/2-x,1/2-y,1/2-z
1/2+x,1/2+y,1/2-z
1/2-x,1/2+y,z
1/2+x,1/2-y,z
loop_
_atom_site_type_symbol
_atom_site_label
_atom_site_fract_x
_atom_site_fract_y
_atom_site_fract_z
Si Si1 0.331156 0.500000 0.750000
Si Si2 0.500000 0.000000 0.250000
Si Si3 0.721158 0.980675 0.836650
Si Si4 0.397874 0.230141 0.801304
Si Si5 0.818431 0.786113 0.892110
Si Si6 0.075890 0.048182 0.397475
Si Si7 0.279569 0.298439 0.500000
Si Si8 0.650554 0.373134 0.500000
O O1 0.285688 0.502788 0.699534
O O2 0.380633 0.348722 0.754266
O O3 0.457030 0.112356 0.213305
O O4 0.668663 0.871271 0.808577
O O5 0.751863 0.896439 0.886880
O O6 0.685087 0.144623 0.850988
O O7 0.418701 0.323697 0.852411
O O8 0.885152 0.887833 0.881873
O O9 0.814875 0.719351 0.950060
O O10 0.104543 0.125463 0.449456
O O11 0.000000 0.000000 0.407531
O O12 0.296595 0.483773 0.500000
O O13 0.198714 0.280236 0.500000
#
# Coordination Sequence:
#
# PCOD8294239 Si02
#       8
#     8   4  16  16  16  16   8   8
#     4  12  25  43  72  97 131 176 222 296 340 397
#     4  12  34  46  64  98 138 190 222 276 332 418
#     4  12  23  41  66 103 133 170 224 294 343 399
#     4  12  28  45  68  98 135 180 230 282 340 402
#     4  11  22  40  67 103 136 173 224 277 350 394
#     4  11  25  44  68  96 138 190 227 274 330 428
#     4  10  20  36  66 100 135 164 213 282 338 393
#     4  10  21  42  70 105 133 173 224 280 350 395
#
# _framework density 20.985222
#
# number of rings (size 3 to 8) (size 9 to 14) (size 15 to 20)
#    0.000    0.696    3.478    4.435    7.304    0.000 
#    0.000    0.000    0.000    0.522    0.000    0.000 
#    0.000    0.000    0.000    0.000    0.000    0.000 
#
# Total GULP energy -570450.158212 kJ/mol
# GULP energy per Si atom -12401.090396 kJ/mol
# Density = 2.093746 g / cm^3
# Si number density = 20.985222 Si / 1000 Ang^3
#
#
#
# Elastic Constant Matrix: (Units=GPa)
#
#
# Indices 1 2 3 4 5 6 
#
# 1 135.4089 69.8060 43.9029 0.0000 0.0000 0.0000
# 2 69.8060 124.4160 63.1480 0.0000 0.0000 0.0000
# 3 43.9029 63.1480 126.7269 0.0000 0.0000 0.0000
# 4 0.0000 0.0000 0.0000 19.1212 0.0000 0.0000
# 5 0.0000 0.0000 0.0000 0.0000 1.5390 0.0000
# 6 0.0000 0.0000 0.0000 0.0000 0.0000 27.8553
#
#
#
# Elastic Compliance Matrix: (Units=1/GPa)
#
#
# Indices 1 2 3 4 5 6 
#
# 1 0.010473 -0.005400 -0.000937 0.000000 0.000000 0.000000
# 2 -0.005400 0.013543 -0.004878 0.000000 0.000000 0.000000
# 3 -0.000937 -0.004878 0.010646 0.000000 0.000000 0.000000
# 4 0.000000 0.000000 0.000000 0.052298 0.000000 0.000000
# 5 0.000000 0.000000 0.000000 0.000000 0.649767 0.000000
# 6 0.000000 0.000000 0.000000 0.000000 0.000000 0.035900
#
#
# Mechanical properties :
#
#
# Convention : Reuss Voigt Hill
#
# Bulk Modulus (GPa) = 81.75388 82.25172 82.00280
# Shear Modulus (GPa) = 6.25676 23.68275 14.96976
#
# Velocity S-wave (km/s) = 1.72858 3.36303 2.67375
# Velocity P-wave (km/s) = 6.55945 7.37293 6.97805
#
# Compressibility (1/GPa) = 0.01223183
#
# Stress axis : x y z
#
# Youngs Moduli (GPa) = 95.48461 73.83769 93.93005
#
# Poissons Ratio (x) = 0.39875 0.08803
# Poissons Ratio (y) = 0.51565 0.45816
# Poissons Ratio (z) = 0.08949 0.36016
#
# Static dielectric constant tensor:
#      x y z
#    x 3.834350 0.000000 0.000000 
#    y 0.000000 3.948090 0.000000 
#    z 0.000000 0.000000 4.247240 
# 
# 
# High freq. dielectric constant tensor:
#      x y z
#    x 1.815320 0.000000 0.000000 
#    y 0.000000 1.824090 0.000000 
#    z 0.000000 0.000000 1.838100 
# 
# From -- ./inp_files/45332.got.cif
#   From: 2010.03.12/outbox.cif.g09.slc.cpg/sg72_23_cif.got.tgz:45332.got - 2010.04.16 14:54:00.
