data_PCOD8294505
_publ_section_title
;
Structure prediction by ZEFSAII (Michael W. Deem and Ramdas Pophale) SiO2 
 PCOD8294505
Probable space group: I B A M
;
_chemical_formula_sum "Si O2"
_cell_formula_units_Z 96
_cell_length_a 8.581239
_cell_length_b 23.056190
_cell_length_c 23.397961
_cell_angle_alpha 90.000000
_cell_angle_beta 90.000000
_cell_angle_gamma 90.000000
_cell_volume 4629.302420
_symmetry_space_group_name_H-M "I B A M"
_symmetry_group_IT_number 72
_symmetry_cell_setting 'orthorhombic'
loop_
_space_group_symop_operation_xyz
x,y,z
-x,-y,z
x,-y,1/2-z
-x,y,1/2-z
-x,-y,-z
x,y,-z
-x,y,1/2+z
x,-y,1/2+z
1/2+x,1/2+y,1/2+z
1/2-x,1/2-y,1/2+z
1/2+x,1/2-y,-z
1/2-x,1/2+y,-z
1/2-x,1/2-y,1/2-z
1/2+x,1/2+y,1/2-z
1/2-x,1/2+y,z
1/2+x,1/2-y,z
loop_
_atom_site_type_symbol
_atom_site_label
_atom_site_fract_x
_atom_site_fract_y
_atom_site_fract_z
Si Si1 0.200899 0.143828 0.660611
Si Si2 0.618071 0.209550 0.064947
Si Si3 0.126341 0.172917 0.875098
Si Si4 0.153963 0.670669 0.226334
Si Si5 0.126974 0.389582 0.436820
Si Si6 0.517549 0.935604 0.669158
O O1 0.254849 0.180808 0.606024
O O2 0.225295 0.174293 0.721681
O O3 0.300772 0.084099 0.664876
O O4 0.015211 0.137591 0.654487
O O5 0.568098 0.271951 0.089271
O O6 0.462438 0.171726 0.065879
O O7 0.684251 0.214578 0.000000
O O8 0.256273 0.195364 0.828795
O O9 0.198061 0.125390 0.917779
O O10 0.087024 0.606872 0.208581
O O11 0.000000 0.705846 0.250000
O O12 0.126482 0.416652 0.500000
O O13 0.049973 0.436415 0.395155
O O14 0.500000 0.000000 0.694561
#
# Coordination Sequence:
#
# PCOD8294505 Si02
#       6
#    16  16  16  16  16  16
#     4  10  21  35  55  84 110 137 185 235 275 325
#     4  10  21  37  56  79 110 151 189 220 270 337
#     4  11  20  33  55  81 113 146 182 232 273 318
#     4   9  20  37  54  76 108 143 181 223 279 336
#     4   9  19  35  54  80 114 148 183 223 272 331
#     4   9  19  38  62  81 104 142 184 227 277 337
#
# _framework density 20.737466999999999
#
# number of rings (size 3 to 8) (size 9 to 14) (size 15 to 20)
#    0.000    2.333    0.000    3.000    0.000    6.667 
#    0.000    8.333    0.000    9.000    0.000    0.000 
#    0.000    0.000    0.000    0.000    0.000    0.000 
#
# Total GULP energy -594697.122464 kJ/mol
# GULP energy per Si atom -12389.523385 kJ/mol
# Density = 2.069027 g / cm^3
# Si number density = 20.737467 Si / 1000 Ang^3
#
#
#
# Elastic Constant Matrix: (Units=GPa)
#
#
# Indices 1 2 3 4 5 6 
#
# 1 99.4553 9.9881 34.6456 0.0000 0.0000 0.0000
# 2 9.9881 51.7608 7.7907 0.0000 0.0000 0.0000
# 3 34.6456 7.7907 149.1425 0.0000 0.0000 0.0000
# 4 0.0000 0.0000 0.0000 9.3068 0.0000 0.0000
# 5 0.0000 0.0000 0.0000 0.0000 31.3182 0.0000
# 6 0.0000 0.0000 0.0000 0.0000 0.0000 12.4077
#
#
#
# Elastic Compliance Matrix: (Units=1/GPa)
#
#
# Indices 1 2 3 4 5 6 
#
# 1 0.011098 -0.001767 -0.002486 0.000000 0.000000 0.000000
# 2 -0.001767 0.019754 -0.000621 0.000000 0.000000 0.000000
# 3 -0.002486 -0.000621 0.007315 0.000000 0.000000 0.000000
# 4 0.000000 0.000000 0.000000 0.107448 0.000000 0.000000
# 5 0.000000 0.000000 0.000000 0.000000 0.031930 0.000000
# 6 0.000000 0.000000 0.000000 0.000000 0.000000 0.080595
#
#
# Mechanical properties :
#
#
# Convention : Reuss Voigt Hill
#
# Bulk Modulus (GPa) = 35.18867 45.02305 40.10586
# Shear Modulus (GPa) = 18.02695 27.13550 22.58123
#
# Velocity S-wave (km/s) = 2.95158 3.62128 3.30344
# Velocity P-wave (km/s) = 5.34988 6.26442 5.82513
#
# Compressibility (1/GPa) = 0.02841823
#
# Stress axis : x y z
#
# Youngs Moduli (GPa) = 90.10473 50.62214 136.70740
#
# Poissons Ratio (x) = 0.08947 0.33982
# Poissons Ratio (y) = 0.15925 0.08494
# Poissons Ratio (z) = 0.22398 0.03145
#
# Static dielectric constant tensor:
#      x y z
#    x 3.873740 0.000000 0.000000 
#    y 0.000000 3.188800 0.000000 
#    z 0.000000 0.000000 4.264690 
# 
# 
# High freq. dielectric constant tensor:
#      x y z
#    x 1.806240 0.000000 0.000000 
#    y 0.000000 1.757800 0.000000 
#    z 0.000000 0.000000 1.842880 
# 
# From -- ./inp_files/42416.got.cif
#   From: 2010.03.12/outbox.cif.g09.slc.cpg/sg72_22_cif.got.tgz:42416.got - 2010.04.16 14:54:00.
