data_PCOD8294814
_publ_section_title
;
Structure prediction by ZEFSAII (Michael W. Deem and Ramdas Pophale) SiO2 
 PCOD8294814
Probable space group: I B A M
;
_chemical_formula_sum "Si O2"
_cell_formula_units_Z 104
_cell_length_a 20.363097
_cell_length_b 9.090297
_cell_length_c 26.457371
_cell_angle_alpha 90.000000
_cell_angle_beta 90.000000
_cell_angle_gamma 90.000000
_cell_volume 4897.433979
_symmetry_space_group_name_H-M "I B A M"
_symmetry_group_IT_number 72
_symmetry_cell_setting 'orthorhombic'
loop_
_space_group_symop_operation_xyz
x,y,z
-x,-y,z
x,-y,1/2-z
-x,y,1/2-z
-x,-y,-z
x,y,-z
-x,y,1/2+z
x,-y,1/2+z
1/2+x,1/2+y,1/2+z
1/2-x,1/2-y,1/2+z
1/2+x,1/2-y,-z
1/2-x,1/2+y,-z
1/2-x,1/2-y,1/2-z
1/2+x,1/2+y,1/2-z
1/2-x,1/2+y,z
1/2+x,1/2-y,z
loop_
_atom_site_type_symbol
_atom_site_label
_atom_site_fract_x
_atom_site_fract_y
_atom_site_fract_z
Si Si1 0.453573 0.864523 0.100064
Si Si2 0.966108 0.197504 0.500000
Si Si3 0.978289 0.330304 0.802579
Si Si4 0.670411 0.055651 0.943888
Si Si5 0.796321 0.768121 0.422671
Si Si6 0.394875 0.611533 0.500000
Si Si7 0.738648 0.500000 0.250000
Si Si8 0.175631 0.732042 0.192269
O O1 0.480249 0.770982 0.148647
O O2 0.380064 0.932473 0.103991
O O3 0.500000 0.000000 0.087352
O O4 0.441857 0.762201 0.052443
O O5 0.044701 0.225032 0.500000
O O6 0.933886 0.039041 0.500000
O O7 0.901268 0.306828 0.807963
O O8 0.000000 0.500000 0.801166
O O9 0.000000 0.253008 0.750000
O O10 0.725208 0.177632 0.937852
O O11 0.702585 0.896511 0.942499
O O12 0.637781 0.075761 0.000000
O O13 0.852121 0.866589 0.449531
O O14 0.803802 0.778665 0.363144
O O15 0.785286 0.413643 0.210327
O O16 0.691521 0.376586 0.274519
#
# Coordination Sequence:
#
# PCOD8294814 Si02
#       8
#    16   8  16  16  16   8   8  16
#     4  11  23  39  67  95 128 173 229 278 333 406
#     4  11  23  39  63  92 128 176 218 275 330 410
#     4  10  21  40  68  95 130 176 228 280 330 406
#     4  12  24  40  64  97 135 179 224 277 337 401
#     4  12  25  42  68  95 140 176 221 274 342 411
#     4  11  24  41  61  90 134 175 216 268 336 397
#     4  10  24  44  72 102 136 170 224 292 340 410
#     4  11  23  45  71 103 133 177 227 281 352 406
#
# _framework density 21.235610999999999
#
# number of rings (size 3 to 8) (size 9 to 14) (size 15 to 20)
#    0.000    0.923    2.308    5.769    2.154    2.462 
#    2.769    0.385    0.000    0.000    0.000    0.000 
#    0.000    0.000    0.000    0.000    0.000    0.000 
#
# Total GULP energy -644358.488545 kJ/mol
# GULP energy per Si atom -12391.509395 kJ/mol
# Density = 2.118728 g / cm^3
# Si number density = 21.235611 Si / 1000 Ang^3
#
#
#
# Elastic Constant Matrix: (Units=GPa)
#
#
# Indices 1 2 3 4 5 6 
#
# 1 151.9410 57.0538 46.8606 0.0000 0.0000 0.0000
# 2 57.0538 73.4620 40.1216 0.0000 0.0000 0.0000
# 3 46.8606 40.1216 151.1025 0.0000 0.0000 0.0000
# 4 0.0000 0.0000 0.0000 27.4374 0.0000 0.0000
# 5 0.0000 0.0000 0.0000 0.0000 24.4261 0.0000
# 6 0.0000 0.0000 0.0000 0.0000 0.0000 24.1105
#
#
#
# Elastic Compliance Matrix: (Units=1/GPa)
#
#
# Indices 1 2 3 4 5 6 
#
# 1 0.009459 -0.006718 -0.001150 0.000000 0.000000 0.000000
# 2 -0.006718 0.020693 -0.003411 0.000000 0.000000 0.000000
# 3 -0.001150 -0.003411 0.007880 0.000000 0.000000 0.000000
# 4 0.000000 0.000000 0.000000 0.036447 0.000000 0.000000
# 5 0.000000 0.000000 0.000000 0.000000 0.040940 0.000000
# 6 0.000000 0.000000 0.000000 0.000000 0.000000 0.041476
#
#
# Mechanical properties :
#
#
# Convention : Reuss Voigt Hill
#
# Bulk Modulus (GPa) = 64.62270 73.84196 69.23233
# Shear Modulus (GPa) = 27.08413 30.69277 28.88845
#
# Velocity S-wave (km/s) = 3.57516 3.80589 3.69233
# Velocity P-wave (km/s) = 6.89491 7.35944 7.13095
#
# Compressibility (1/GPa) = 0.01547444
#
# Stress axis : x y z
#
# Youngs Moduli (GPa) = 105.72245 48.32524 126.89963
#
# Poissons Ratio (x) = 0.32466 0.14587
# Poissons Ratio (y) = 0.71027 0.43286
# Poissons Ratio (z) = 0.12153 0.16484
#
# Static dielectric constant tensor:
#      x y z
#    x 4.149960 0.000000 0.000000 
#    y 0.000000 3.716800 0.000000 
#    z 0.000000 0.000000 7.179290 
# 
# 
# High freq. dielectric constant tensor:
#      x y z
#    x 1.848960 0.000000 0.000000 
#    y 0.000000 1.818910 0.000000 
#    z 0.000000 0.000000 1.848750 
# 
# From -- ./inp_files/49458.got.cif
#   From: 2010.03.12/outbox.cif.g09.slc.cpg/sg72_25_cif.got.tgz:49458.got - 2010.04.16 14:54:00.
