data_PCOD8294982
_publ_section_title
;
Structure prediction by ZEFSAII (Michael W. Deem and Ramdas Pophale) SiO2 
 PCOD8294982
Probable space group: I B A M
;
_chemical_formula_sum "Si O2"
_cell_formula_units_Z 112
_cell_length_a 11.796279
_cell_length_b 31.113722
_cell_length_c 15.660262
_cell_angle_alpha 90.000000
_cell_angle_beta 90.000000
_cell_angle_gamma 90.000000
_cell_volume 5747.725598
_symmetry_space_group_name_H-M "I B A M"
_symmetry_group_IT_number 72
_symmetry_cell_setting 'orthorhombic'
loop_
_space_group_symop_operation_xyz
x,y,z
-x,-y,z
x,-y,1/2-z
-x,y,1/2-z
-x,-y,-z
x,y,-z
-x,y,1/2+z
x,-y,1/2+z
1/2+x,1/2+y,1/2+z
1/2-x,1/2-y,1/2+z
1/2+x,1/2-y,-z
1/2-x,1/2+y,-z
1/2-x,1/2-y,1/2-z
1/2+x,1/2+y,1/2-z
1/2-x,1/2+y,z
1/2+x,1/2-y,z
loop_
_atom_site_type_symbol
_atom_site_label
_atom_site_fract_x
_atom_site_fract_y
_atom_site_fract_z
Si Si1 0.668875 0.732232 0.400288
Si Si2 0.365742 0.170463 0.849174
Si Si3 0.132704 0.050208 0.747253
Si Si4 0.377912 0.174220 0.350445
Si Si5 0.303084 0.612246 0.595335
Si Si6 0.206449 0.899276 0.404966
Si Si7 0.988850 0.161912 0.651791
O O1 0.650137 0.728293 0.500000
O O2 0.786542 0.710288 0.373622
O O3 0.682843 0.781046 0.371169
O O4 0.556770 0.710862 0.356199
O O5 0.364247 0.163945 0.748449
O O6 0.492750 0.178399 0.881910
O O7 0.322787 0.126739 0.892865
O O8 0.182486 0.073405 0.662915
O O9 0.195936 0.064830 0.832961
O O10 0.000000 0.060928 0.750000
O O11 0.156662 0.000000 0.750000
O O12 0.319967 0.134253 0.398692
O O13 0.318637 0.592999 0.500000
O O14 0.390279 0.651912 0.609717
O O15 0.204320 0.919962 0.500000
O O16 0.103089 0.866533 0.396647
O O17 0.000000 0.148568 0.750000
#
# Coordination Sequence:
#
# PCOD8294982 Si02
#       7
#    16  16  16  16  16  16  16
#     4  11  24  37  55  86 122 162 211 261 302 358
#     4  10  22  41  61  83 117 161 214 255 304 366
#     4  11  23  41  64  97 133 159 196 252 310 385
#     4  11  24  39  61  87 118 166 210 260 313 360
#     4  12  22  38  62  91 127 166 202 254 314 371
#     4  11  20  39  66  87 118 162 203 248 305 371
#     4  11  20  36  59  83 121 164 208 249 302 363
#
# _framework density 19.485968
#
# number of rings (size 3 to 8) (size 9 to 14) (size 15 to 20)
#    0.000    1.000    4.286    4.286    4.000    2.857 
#    0.000    1.429    0.000    1.714    0.000    2.000 
#    0.000    0.000    0.000    0.000    0.000    0.000 
#
# Total GULP energy -694398.694517 kJ/mol
# GULP energy per Si atom -12399.976688 kJ/mol
# Density = 1.944162 g / cm^3
# Si number density = 19.485968 Si / 1000 Ang^3
#
#
#
# Elastic Constant Matrix: (Units=GPa)
#
#
# Indices 1 2 3 4 5 6 
#
# 1 98.3074 46.1561 38.6467 0.0002 -0.0001 -0.0002
# 2 46.1561 110.7441 48.6305 0.0001 0.0000 0.0001
# 3 38.6467 48.6305 154.1100 0.0013 -0.0002 0.0007
# 4 0.0002 0.0001 0.0013 13.3158 -0.0003 0.0000
# 5 -0.0001 0.0000 -0.0002 -0.0003 19.0806 -0.0002
# 6 -0.0002 0.0001 0.0007 0.0000 -0.0002 25.0896
#
#
#
# Elastic Compliance Matrix: (Units=1/GPa)
#
#
# Indices 1 2 3 4 5 6 
#
# 1 0.013067 -0.004652 -0.001809 0.000000 0.000000 0.000000
# 2 -0.004652 0.012138 -0.002664 0.000000 0.000000 0.000000
# 3 -0.001809 -0.002664 0.007783 -0.000001 0.000000 0.000000
# 4 0.000000 0.000000 -0.000001 0.075099 0.000001 0.000000
# 5 0.000000 0.000000 0.000000 0.000001 0.052409 0.000000
# 6 0.000000 0.000000 0.000000 0.000000 0.000000 0.039857
#
#
# Mechanical properties :
#
#
# Convention : Reuss Voigt Hill
#
# Bulk Modulus (GPa) = 67.84475 70.00311 68.92393
# Shear Modulus (GPa) = 22.36969 26.81241 24.59105
#
# Velocity S-wave (km/s) = 3.39188 3.71345 3.55630
# Velocity P-wave (km/s) = 7.08749 7.37490 7.23263
#
# Compressibility (1/GPa) = 0.01473953
#
# Stress axis : x y z
#
# Youngs Moduli (GPa) = 76.52619 82.38333 128.48345
#
# Poissons Ratio (x) = 0.38324 0.23243
# Poissons Ratio (y) = 0.35599 0.34225
# Poissons Ratio (z) = 0.13844 0.21945
#
# Static dielectric constant tensor:
#      x y z
#    x 3.651880 0.000000 0.000000 
#    y 0.000000 3.326190 0.000000 
#    z 0.000000 0.000000 3.683910 
# 
# 
# High freq. dielectric constant tensor:
#      x y z
#    x 1.754120 0.000000 0.000000 
#    y 0.000000 1.733030 0.000000 
#    z 0.000000 0.000000 1.775020 
# 
# From -- ./inp_files/20718.got.cif
#   From: 2010.03.12/outbox.cif.g09.slc.cpg/sg72_11_cif.got.tgz:20718.got - 2010.04.16 14:54:00.
