data_PCOD8294771
_publ_section_title
;
Structure prediction by ZEFSAII (Michael W. Deem and Ramdas Pophale) SiO2 
 PCOD8294771
Probable space group: I B A M
;
_chemical_formula_sum "Si O2"
_cell_formula_units_Z 116
_cell_length_a 18.434553
_cell_length_b 16.852514
_cell_length_c 18.419627
_cell_angle_alpha 90.000000
_cell_angle_beta 90.000000
_cell_angle_gamma 90.000000
_cell_volume 5722.399042
_symmetry_space_group_name_H-M "I B A M"
_symmetry_group_IT_number 72
_symmetry_cell_setting 'orthorhombic'
loop_
_space_group_symop_operation_xyz
x,y,z
-x,-y,z
x,-y,1/2-z
-x,y,1/2-z
-x,-y,-z
x,y,-z
-x,y,1/2+z
x,-y,1/2+z
1/2+x,1/2+y,1/2+z
1/2-x,1/2-y,1/2+z
1/2+x,1/2-y,-z
1/2-x,1/2+y,-z
1/2-x,1/2-y,1/2-z
1/2+x,1/2+y,1/2-z
1/2-x,1/2+y,z
1/2+x,1/2-y,z
loop_
_atom_site_type_symbol
_atom_site_label
_atom_site_fract_x
_atom_site_fract_y
_atom_site_fract_z
Si Si1 0.705917 0.407224 0.182040
Si Si2 0.518718 0.831841 0.834079
Si Si3 0.366349 0.035490 0.825948
Si Si4 0.624055 0.119021 0.915382
Si Si5 0.500000 0.500000 0.750000
Si Si6 0.131162 0.067992 0.328476
Si Si7 0.117315 0.217272 0.582873
Si Si8 0.278317 0.735071 0.082301
O O1 0.792003 0.417623 0.184677
O O2 0.666681 0.484296 0.147943
O O3 0.678750 0.392911 0.263940
O O4 0.685886 0.330707 0.134249
O O5 0.500000 0.820596 0.750000
O O6 0.570803 0.905682 0.851618
O O7 0.445835 0.844815 0.877754
O O8 0.556970 0.752528 0.863540
O O9 0.393163 0.000000 0.750000
O O10 0.355211 0.966997 0.885044
O O11 0.690616 0.178153 0.898648
O O12 0.608520 0.109872 0.000000
O O13 0.549391 0.555467 0.800666
O O14 0.130136 0.125311 0.397353
O O15 0.090223 0.222033 0.500000
O O16 0.192009 0.264967 0.592570
O O17 0.298976 0.712217 0.000000
#
# Coordination Sequence:
#
# PCOD8294771 Si02
#       8
#    16  16  16  16   4  16  16  16
#     4  10  21  39  65  95 124 164 214 268 317 375
#     4  12  26  40  65  96 129 168 214 262 319 385
#     4  12  22  41  63  93 128 163 217 259 316 385
#     4  11  26  43  64  93 131 171 212 265 323 390
#     4   8  20  40  58  96 124 156 214 264 324 372
#     4  10  22  38  65  93 126 166 211 270 321 381
#     4  11  25  43  63  94 131 168 215 266 321 384
#     4  10  23  42  63  91 126 167 211 261 320 380
#
# _framework density 20.271218000000001
#
# number of rings (size 3 to 8) (size 9 to 14) (size 15 to 20)
#    0.000    1.379    4.138    1.655    2.897    4.414 
#    0.000    0.345    0.000    0.000    0.000    0.000 
#    0.000    0.000    0.000    0.000    0.000    0.000 
#
# Total GULP energy -719454.292327 kJ/mol
# GULP energy per Si atom -12404.384350 kJ/mol
# Density = 2.022508 g / cm^3
# Si number density = 20.271218 Si / 1000 Ang^3
#
#
#
# Elastic Constant Matrix: (Units=GPa)
#
#
# Indices 1 2 3 4 5 6 
#
# 1 91.2670 9.0945 38.0340 0.0000 0.0000 0.0000
# 2 9.0945 89.3956 58.5273 0.0000 0.0000 0.0000
# 3 38.0340 58.5273 122.7669 0.0000 0.0000 0.0000
# 4 0.0000 0.0000 0.0000 37.0350 0.0000 0.0000
# 5 0.0000 0.0000 0.0000 0.0000 27.7003 0.0000
# 6 0.0000 0.0000 0.0000 0.0000 0.0000 23.6217
#
#
#
# Elastic Compliance Matrix: (Units=1/GPa)
#
#
# Indices 1 2 3 4 5 6 
#
# 1 0.012795 0.001880 -0.004860 0.000000 0.000000 0.000000
# 2 0.001880 0.016538 -0.008467 0.000000 0.000000 0.000000
# 3 -0.004860 -0.008467 0.013688 0.000000 0.000000 0.000000
# 4 0.000000 0.000000 0.000000 0.027001 0.000000 0.000000
# 5 0.000000 0.000000 0.000000 0.000000 0.036101 0.000000
# 6 0.000000 0.000000 0.000000 0.000000 0.000000 0.042334
#
#
# Mechanical properties :
#
#
# Convention : Reuss Voigt Hill
#
# Bulk Modulus (GPa) = 49.68409 57.19345 53.43877
# Shear Modulus (GPa) = 28.08041 30.85632 29.46836
#
# Velocity S-wave (km/s) = 3.72591 3.90574 3.81688
# Velocity P-wave (km/s) = 6.56299 6.97245 6.77081
#
# Compressibility (1/GPa) = 0.02012717
#
# Stress axis : x y z
#
# Youngs Moduli (GPa) = 78.15560 60.46604 73.05780
#
# Poissons Ratio (x) = -0.11370 0.35509
# Poissons Ratio (y) = -0.14697 0.61857
# Poissons Ratio (z) = 0.37987 0.51196
#
# Static dielectric constant tensor:
#      x y z
#    x 3.789750 0.000000 0.000000 
#    y 0.000000 3.666540 0.000000 
#    z 0.000000 0.000000 3.688360 
# 
# 
# High freq. dielectric constant tensor:
#      x y z
#    x 1.801400 0.000000 0.000000 
#    y 0.000000 1.793710 0.000000 
#    z 0.000000 0.000000 1.787520 
# 
# From -- ./inp_files/31767.got.cif
#   From: 2010.03.12/outbox.cif.g09.slc.cpg/sg72_16_cif.got.tgz:31767.got - 2010.04.16 14:54:00.
