data_PCOD8294444
_publ_section_title
;
Structure prediction by ZEFSAII (Michael W. Deem and Ramdas Pophale) SiO2 
 PCOD8294444
Probable space group: I B A M
;
_chemical_formula_sum "Si O2"
_cell_formula_units_Z 88
_cell_length_a 25.459701
_cell_length_b 7.472121
_cell_length_c 20.948338
_cell_angle_alpha 90.000000
_cell_angle_beta 90.000000
_cell_angle_gamma 90.000000
_cell_volume 3985.169223
_symmetry_space_group_name_H-M "I B A M"
_symmetry_group_IT_number 72
_symmetry_cell_setting 'orthorhombic'
loop_
_space_group_symop_operation_xyz
x,y,z
-x,-y,z
x,-y,1/2-z
-x,y,1/2-z
-x,-y,-z
x,y,-z
-x,y,1/2+z
x,-y,1/2+z
1/2+x,1/2+y,1/2+z
1/2-x,1/2-y,1/2+z
1/2+x,1/2-y,-z
1/2-x,1/2+y,-z
1/2-x,1/2-y,1/2-z
1/2+x,1/2+y,1/2-z
1/2-x,1/2+y,z
1/2+x,1/2-y,z
loop_
_atom_site_type_symbol
_atom_site_label
_atom_site_fract_x
_atom_site_fract_y
_atom_site_fract_z
Si Si1 0.377615 0.500000 0.250000
Si Si2 0.848716 0.628986 0.000000
Si Si3 0.500000 0.000000 0.395564
Si Si4 0.064935 0.343997 0.500000
Si Si5 0.305675 0.467558 0.863749
Si Si6 0.084545 0.634482 0.697286
Si Si7 0.310579 0.118832 0.632423
Si Si8 0.152770 0.055975 0.500000
O O1 0.342585 0.401199 0.194551
O O2 0.412993 0.659162 0.220887
O O3 0.815779 0.552885 0.940247
O O4 0.904283 0.532587 0.000000
O O5 0.857613 0.843355 0.000000
O O6 0.529283 0.151753 0.437005
O O7 0.458472 0.122152 0.357773
O O8 0.098304 0.162392 0.500000
O O9 0.317726 0.672308 0.869387
O O10 0.245770 0.439058 0.840997
O O11 0.316877 0.382450 0.934326
O O12 0.062977 0.500000 0.750000
O O13 0.141102 0.551429 0.675455
#
# Coordination Sequence:
#
# PCOD8294444 Si02
#       8
#     8   8   8   8  16  16  16   8
#     4  10  26  44  69 100 144 183 224 284 342 414
#     4  10  20  42  63  93 134 170 217 284 337 400
#     4  11  25  48  70 108 119 177 246 286 358 403
#     4  11  24  44  77  92 134 172 222 298 351 401
#     4  10  23  39  64 104 134 181 229 264 345 419
#     4  11  25  45  68  94 137 178 226 285 337 408
#     4  10  22  37  65  95 137 174 221 279 329 412
#     4  10  24  42  66  99 138 179 225 274 349 418
#
# _framework density 22.081872000000001
#
# number of rings (size 3 to 8) (size 9 to 14) (size 15 to 20)
#    0.000    1.636    1.818    0.818    8.909    1.455 
#    0.000    5.455    0.000    0.000    0.000    0.000 
#    0.000    0.000    0.000    0.000    0.000    0.000 
#
# Total GULP energy -545307.842404 kJ/mol
# GULP energy per Si atom -12393.360055 kJ/mol
# Density = 2.203161 g / cm^3
# Si number density = 22.081872 Si / 1000 Ang^3
#
#
#
# Elastic Constant Matrix: (Units=GPa)
#
#
# Indices 1 2 3 4 5 6 
#
# 1 125.3826 40.3392 50.8483 0.0000 0.0000 0.0000
# 2 40.3392 67.8033 31.1517 0.0000 0.0000 0.0000
# 3 50.8483 31.1517 127.1926 0.0000 0.0000 0.0000
# 4 0.0000 0.0000 0.0000 8.5888 0.0000 0.0000
# 5 0.0000 0.0000 0.0000 0.0000 40.8817 0.0000
# 6 0.0000 0.0000 0.0000 0.0000 0.0000 33.3279
#
#
#
# Elastic Compliance Matrix: (Units=1/GPa)
#
#
# Indices 1 2 3 4 5 6 
#
# 1 0.010854 -0.005030 -0.003107 0.000000 0.000000 0.000000
# 2 -0.005030 0.018950 -0.002630 0.000000 0.000000 0.000000
# 3 -0.003107 -0.002630 0.009748 0.000000 0.000000 0.000000
# 4 0.000000 0.000000 0.000000 0.116430 0.000000 0.000000
# 5 0.000000 0.000000 0.000000 0.000000 0.024461 0.000000
# 6 0.000000 0.000000 0.000000 0.000000 0.000000 0.030005
#
#
# Mechanical properties :
#
#
# Convention : Reuss Voigt Hill
#
# Bulk Modulus (GPa) = 55.50253 62.78409 59.14331
# Shear Modulus (GPa) = 21.00944 29.76233 25.38589
#
# Velocity S-wave (km/s) = 3.08788 3.67525 3.39429
# Velocity P-wave (km/s) = 6.15652 6.81939 6.49642
#
# Compressibility (1/GPa) = 0.01801720
#
# Stress axis : x y z
#
# Youngs Moduli (GPa) = 92.13220 52.77183 102.58024
#
# Poissons Ratio (x) = 0.26544 0.31874
# Poissons Ratio (y) = 0.46342 0.26981
# Poissons Ratio (z) = 0.28627 0.13880
#
# Static dielectric constant tensor:
#      x y z
#    x 3.366090 0.000000 0.000000 
#    y 0.000000 3.601910 0.000000 
#    z 0.000000 0.000000 5.071040 
# 
# 
# High freq. dielectric constant tensor:
#      x y z
#    x 1.865270 0.000000 0.000000 
#    y 0.000000 1.849720 0.000000 
#    z 0.000000 0.000000 1.889810 
# 
# From -- ./inp_files/35931.got.cif
#   From: 2010.03.12/outbox.cif.g09.slc.cpg/sg72_18_cif.got.tgz:35931.got - 2010.04.16 14:54:00.
