data_PCOD8294784
_publ_section_title
;
Structure prediction by ZEFSAII (Michael W. Deem and Ramdas Pophale) SiO2 
 PCOD8294784
Probable space group: I B A M
;
_chemical_formula_sum "Si O2"
_cell_formula_units_Z 96
_cell_length_a 9.885863
_cell_length_b 20.720002
_cell_length_c 25.403019
_cell_angle_alpha 90.000000
_cell_angle_beta 90.000000
_cell_angle_gamma 90.000000
_cell_volume 5203.429966
_symmetry_space_group_name_H-M "I B A M"
_symmetry_group_IT_number 72
_symmetry_cell_setting 'orthorhombic'
loop_
_space_group_symop_operation_xyz
x,y,z
-x,-y,z
x,-y,1/2-z
-x,y,1/2-z
-x,-y,-z
x,y,-z
-x,y,1/2+z
x,-y,1/2+z
1/2+x,1/2+y,1/2+z
1/2-x,1/2-y,1/2+z
1/2+x,1/2-y,-z
1/2-x,1/2+y,-z
1/2-x,1/2-y,1/2-z
1/2+x,1/2+y,1/2-z
1/2-x,1/2+y,z
1/2+x,1/2-y,z
loop_
_atom_site_type_symbol
_atom_site_label
_atom_site_fract_x
_atom_site_fract_y
_atom_site_fract_z
Si Si1 0.221602 0.585133 0.852501
Si Si2 0.290261 0.460117 0.803920
Si Si3 0.546024 0.137381 0.806621
Si Si4 0.016351 0.139761 0.191685
Si Si5 0.976772 0.749823 0.114636
Si Si6 0.271451 0.815202 0.561472
O O1 0.258211 0.509144 0.852072
O O2 0.325033 0.625043 0.815638
O O3 0.233044 0.614334 0.911168
O O4 0.071422 0.592797 0.830350
O O5 0.292970 0.500000 0.750000
O O6 0.178821 0.405032 0.800132
O O7 0.434507 0.427109 0.814639
O O8 0.500000 0.164623 0.750000
O O9 0.579710 0.196604 0.844944
O O10 0.000000 0.169001 0.250000
O O11 0.964447 0.190872 0.148790
O O12 0.857001 0.772036 0.076585
O O13 0.095088 0.722931 0.078381
O O14 0.272989 0.828257 0.500000
#
# Coordination Sequence:
#
# PCOD8294784 Si02
#       6
#    16  16  16  16  16  16
#     4  10  22  33  53  82 109 146 192 227 273 328
#     4  12  21  33  54  80 116 157 186 213 269 340
#     4  11  20  34  53  82 119 150 178 225 274 340
#     4  11  20  34  53  82 119 150 178 225 274 340
#     4  10  22  36  58  86 110 146 190 234 286 338
#     4  10  21  40  60  79 108 149 193 246 289 321
#
# _framework density 18.449368
#
# number of rings (size 3 to 8) (size 9 to 14) (size 15 to 20)
#    0.000    1.333    3.333    3.000    0.000    0.000 
#    0.000    6.667    0.000   20.000    0.000    0.000 
#    0.000    0.000    0.000    0.000    0.000    0.000 
#
# Total GULP energy -595299.415597 kJ/mol
# GULP energy per Si atom -12402.071158 kJ/mol
# Density = 1.840738 g / cm^3
# Si number density = 18.449368 Si / 1000 Ang^3
#
#
#
# Elastic Constant Matrix: (Units=GPa)
#
#
# Indices 1 2 3 4 5 6 
#
# 1 66.4298 20.5094 27.7545 0.0000 0.0000 0.0000
# 2 20.5094 92.7840 42.9099 0.0000 0.0000 0.0000
# 3 27.7545 42.9099 122.1176 0.0000 0.0000 0.0000
# 4 0.0000 0.0000 0.0000 21.8094 0.0000 0.0000
# 5 0.0000 0.0000 0.0000 0.0000 22.7422 0.0000
# 6 0.0000 0.0000 0.0000 0.0000 0.0000 24.8574
#
#
#
# Elastic Compliance Matrix: (Units=1/GPa)
#
#
# Indices 1 2 3 4 5 6 
#
# 1 0.017055 -0.002361 -0.003047 0.000000 0.000000 0.000000
# 2 -0.002361 0.013196 -0.004100 0.000000 0.000000 0.000000
# 3 -0.003047 -0.004100 0.010322 0.000000 0.000000 0.000000
# 4 0.000000 0.000000 0.000000 0.045852 0.000000 0.000000
# 5 0.000000 0.000000 0.000000 0.000000 0.043971 0.000000
# 6 0.000000 0.000000 0.000000 0.000000 0.000000 0.040230
#
#
# Mechanical properties :
#
#
# Convention : Reuss Voigt Hill
#
# Bulk Modulus (GPa) = 46.38767 51.51990 48.95378
# Shear Modulus (GPa) = 25.40301 26.55896 25.98098
#
# Velocity S-wave (km/s) = 3.71469 3.79827 3.75671
# Velocity P-wave (km/s) = 6.60276 6.87179 6.73861
#
# Compressibility (1/GPa) = 0.02155745
#
# Stress axis : x y z
#
# Youngs Moduli (GPa) = 58.63277 75.78159 96.88050
#
# Poissons Ratio (x) = 0.17892 0.29516
# Poissons Ratio (y) = 0.13843 0.39723
# Poissons Ratio (z) = 0.17863 0.31072
#
# Static dielectric constant tensor:
#      x y z
#    x 3.532250 0.000000 0.000000 
#    y 0.000000 3.679710 0.000000 
#    z 0.000000 0.000000 3.267170 
# 
# 
# High freq. dielectric constant tensor:
#      x y z
#    x 1.732780 0.000000 0.000000 
#    y 0.000000 1.717390 0.000000 
#    z 0.000000 0.000000 1.691470 
# 
# From -- ./inp_files/47296.got.cif
#   From: 2010.03.12/outbox.cif.g09.slc.cpg/sg72_24_cif.got.tgz:47296.got - 2010.04.16 14:54:00.
