data_PCOD8294913
_publ_section_title
;
Structure prediction by ZEFSAII (Michael W. Deem and Ramdas Pophale) SiO2 
 PCOD8294913
Probable space group: I B A M
;
_chemical_formula_sum "Si O2"
_cell_formula_units_Z 112
_cell_length_a 12.263774
_cell_length_b 27.501651
_cell_length_c 16.509007
_cell_angle_alpha 90.000000
_cell_angle_beta 90.000000
_cell_angle_gamma 90.000000
_cell_volume 5568.059363
_symmetry_space_group_name_H-M "I B A M"
_symmetry_group_IT_number 72
_symmetry_cell_setting 'orthorhombic'
loop_
_space_group_symop_operation_xyz
x,y,z
-x,-y,z
x,-y,1/2-z
-x,y,1/2-z
-x,-y,-z
x,y,-z
-x,y,1/2+z
x,-y,1/2+z
1/2+x,1/2+y,1/2+z
1/2-x,1/2-y,1/2+z
1/2+x,1/2-y,-z
1/2-x,1/2+y,-z
1/2-x,1/2-y,1/2-z
1/2+x,1/2+y,1/2-z
1/2-x,1/2+y,z
1/2+x,1/2-y,z
loop_
_atom_site_type_symbol
_atom_site_label
_atom_site_fract_x
_atom_site_fract_y
_atom_site_fract_z
Si Si1 0.386303 0.303092 0.909929
Si Si2 0.728266 0.565889 0.405172
Si Si3 0.613735 0.482071 0.657632
Si Si4 0.509722 0.793377 0.592191
Si Si5 0.503309 0.612593 0.342908
Si Si6 0.703403 0.203154 0.207511
Si Si7 0.908617 0.623878 0.313947
O O1 0.417119 0.247065 0.893897
O O2 0.488008 0.339607 0.897722
O O3 0.293769 0.320970 0.849220
O O4 0.340780 0.308590 0.000000
O O5 0.743782 0.578451 0.500000
O O6 0.712452 0.507259 0.393015
O O7 0.619938 0.590619 0.368362
O O8 0.835462 0.581552 0.353994
O O9 0.500000 0.500000 0.620327
O O10 0.624832 0.500000 0.750000
O O11 0.601954 0.423923 0.647386
O O12 0.551657 0.792786 0.500000
O O13 0.604571 0.778244 0.652826
O O14 0.466748 0.847182 0.613118
O O15 0.500000 0.628913 0.250000
O O16 0.750000 0.250000 0.250000
O O17 0.669914 0.162034 0.270321
O O18 0.000000 0.603348 0.250000
#
# Coordination Sequence:
#
# PCOD8294913 Si02
#       7
#    16  16  16  16  16  16  16
#     4  11  24  36  53  85 122 158 199 247 299 349
#     4  11  22  36  62  95 120 154 199 250 306 358
#     4   9  17  36  56  86 123 160 190 229 293 364
#     4  10  22  39  56  79 118 157 199 253 299 344
#     4  11  21  35  59  89 131 160 194 238 296 371
#     4  11  22  37  57  78 111 160 207 242 292 359
#     4  10  22  40  60  86 114 157 209 253 300 351
#
# _framework density 20.114727999999999
#
# number of rings (size 3 to 8) (size 9 to 14) (size 15 to 20)
#    0.000    1.571    4.286    2.143    4.000    3.143 
#    0.000    0.000    0.000    0.429    0.000    1.000 
#    0.000    0.000    0.000    0.000    0.000    0.000 
#
# Total GULP energy -693990.601192 kJ/mol
# GULP energy per Si atom -12392.689307 kJ/mol
# Density = 2.006895 g / cm^3
# Si number density = 20.114728 Si / 1000 Ang^3
#
#
#
# Elastic Constant Matrix: (Units=GPa)
#
#
# Indices 1 2 3 4 5 6 
#
# 1 87.9400 31.1008 45.9274 0.0000 0.0000 0.0000
# 2 31.1008 69.7185 27.9401 0.0001 0.0000 0.0000
# 3 45.9274 27.9401 109.7590 0.0002 0.0003 0.0002
# 4 0.0000 0.0001 0.0002 23.0528 0.0001 0.0000
# 5 0.0000 0.0000 0.0003 0.0001 18.5970 -0.0001
# 6 0.0000 0.0000 0.0002 0.0000 -0.0001 29.5758
#
#
#
# Elastic Compliance Matrix: (Units=1/GPa)
#
#
# Indices 1 2 3 4 5 6 
#
# 1 0.015948 -0.004944 -0.005415 0.000000 0.000000 0.000000
# 2 -0.004944 0.017506 -0.002387 0.000000 0.000000 0.000000
# 3 -0.005415 -0.002387 0.011984 0.000000 0.000000 0.000000
# 4 0.000000 0.000000 0.000000 0.043379 0.000000 0.000000
# 5 0.000000 0.000000 0.000000 0.000000 0.053772 0.000000
# 6 0.000000 0.000000 0.000000 0.000000 0.000000 0.033811
#
#
# Mechanical properties :
#
#
# Convention : Reuss Voigt Hill
#
# Bulk Modulus (GPa) = 50.13685 53.03933 51.58809
# Shear Modulus (GPa) = 23.97612 25.07507 24.52560
#
# Velocity S-wave (km/s) = 3.45624 3.53456 3.49562
# Velocity P-wave (km/s) = 6.39586 6.56377 6.48036
#
# Compressibility (1/GPa) = 0.01994541
#
# Stress axis : x y z
#
# Youngs Moduli (GPa) = 62.70476 57.12418 83.44284
#
# Poissons Ratio (x) = 0.28243 0.45181
# Poissons Ratio (y) = 0.31003 0.19921
# Poissons Ratio (z) = 0.33952 0.13638
#
# Static dielectric constant tensor:
#      x y z
#    x 3.624880 0.000000 0.000000 
#    y 0.000000 3.678510 0.000000 
#    z 0.000000 0.000000 3.652040 
# 
# 
# High freq. dielectric constant tensor:
#      x y z
#    x 1.764950 0.000000 0.000000 
#    y 0.000000 1.769610 0.000000 
#    z 0.000000 0.000000 1.795330 
# 
# From -- ./inp_files/20685.got.cif
#   From: 2010.03.12/outbox.cif.g09.slc.cpg/sg72_11_cif.got.tgz:20685.got - 2010.04.16 14:54:00.
