data_PCOD8294682
_publ_section_title
;
Structure prediction by ZEFSAII (Michael W. Deem and Ramdas Pophale) SiO2 
 PCOD8294682
Probable space group: I B A M
;
_chemical_formula_sum "Si O2"
_cell_formula_units_Z 80
_cell_length_a 25.207563
_cell_length_b 18.283725
_cell_length_c 8.688640
_cell_angle_alpha 90.000000
_cell_angle_beta 90.000000
_cell_angle_gamma 90.000000
_cell_volume 4004.491214
_symmetry_space_group_name_H-M "I B A M"
_symmetry_group_IT_number 72
_symmetry_cell_setting 'orthorhombic'
loop_
_space_group_symop_operation_xyz
x,y,z
-x,-y,z
x,-y,1/2-z
-x,y,1/2-z
-x,-y,-z
x,y,-z
-x,y,1/2+z
x,-y,1/2+z
1/2+x,1/2+y,1/2+z
1/2-x,1/2-y,1/2+z
1/2+x,1/2-y,-z
1/2-x,1/2+y,-z
1/2-x,1/2-y,1/2-z
1/2+x,1/2+y,1/2-z
1/2-x,1/2+y,z
1/2+x,1/2-y,z
loop_
_atom_site_type_symbol
_atom_site_label
_atom_site_fract_x
_atom_site_fract_y
_atom_site_fract_z
Si Si1 0.252799 0.829293 0.677657
Si Si2 0.556236 0.181871 0.182131
Si Si3 0.152568 0.420039 0.181082
Si Si4 0.056396 0.162421 0.317932
Si Si5 0.149916 0.924094 0.678150
O O1 0.268438 0.823005 0.500000
O O2 0.250000 0.750000 0.750000
O O3 0.296187 0.877796 0.761445
O O4 0.195770 0.865220 0.701050
O O5 0.500000 0.156152 0.250000
O O6 0.599633 0.122545 0.231813
O O7 0.574181 0.259484 0.250496
O O8 0.551485 0.190112 0.000000
O O9 0.150200 0.500000 0.250000
O O10 0.156659 0.426617 0.000000
O O11 0.052249 0.168398 0.500000
O O12 0.098277 0.101343 0.270161
O O13 0.000000 0.138467 0.250000
O O14 0.135480 0.934454 0.500000
O O15 0.169846 0.000000 0.750000
#
# Coordination Sequence:
#
# PCOD8294682 Si02
#       5
#    16  16  16  16  16
#     4  11  24  41  64  90 119 155 197 243 292 349
#     4  10  21  38  60  87 118 155 198 245 292 345
#     4  11  24  40  60  87 121 157 197 244 296 352
#     4  11  22  38  62  89 118 155 196 241 290 345
#     4  11  24  41  60  87 120 154 194 241 291 347
#
# _framework density 19.977568999999999
#
# number of rings (size 3 to 8) (size 9 to 14) (size 15 to 20)
#    0.000    1.200    0.000    7.200    0.000   13.600 
#    0.000    4.000    0.000    0.000    0.000    0.000 
#    0.000    0.000    0.000    0.000    0.000    0.000 
#
# Total GULP energy -496261.232922 kJ/mol
# GULP energy per Si atom -12406.530823 kJ/mol
# Density = 1.993210 g / cm^3
# Si number density = 19.977569 Si / 1000 Ang^3
#
#
#
# Elastic Constant Matrix: (Units=GPa)
#
#
# Indices 1 2 3 4 5 6 
#
# 1 86.9669 33.6308 41.4683 0.0000 0.0000 0.0000
# 2 33.6308 97.5709 27.2934 0.0000 0.0000 0.0000
# 3 41.4683 27.2934 85.8699 0.0000 0.0000 0.0000
# 4 0.0000 0.0000 0.0000 40.1979 0.0000 0.0000
# 5 0.0000 0.0000 0.0000 0.0000 32.8773 0.0000
# 6 0.0000 0.0000 0.0000 0.0000 0.0000 23.1011
#
#
#
# Elastic Compliance Matrix: (Units=1/GPa)
#
#
# Indices 1 2 3 4 5 6 
#
# 1 0.016068 -0.003696 -0.006585 0.000000 0.000000 0.000000
# 2 -0.003696 0.012099 -0.002061 0.000000 0.000000 0.000000
# 3 -0.006585 -0.002061 0.015480 0.000000 0.000000 0.000000
# 4 0.000000 0.000000 0.000000 0.024877 0.000000 0.000000
# 5 0.000000 0.000000 0.000000 0.000000 0.030416 0.000000
# 6 0.000000 0.000000 0.000000 0.000000 0.000000 0.043288
#
#
# Mechanical properties :
#
#
# Convention : Reuss Voigt Hill
#
# Bulk Modulus (GPa) = 52.73077 52.79920 52.76498
# Shear Modulus (GPa) = 28.86282 30.43627 29.64954
#
# Velocity S-wave (km/s) = 3.80513 3.90747 3.85664
# Velocity P-wave (km/s) = 6.76444 6.84429 6.80448
#
# Compressibility (1/GPa) = 0.01896426
#
# Stress axis : x y z
#
# Youngs Moduli (GPa) = 62.23649 82.64828 64.59811
#
# Poissons Ratio (x) = 0.30550 0.42535
# Poissons Ratio (y) = 0.23005 0.13312
# Poissons Ratio (z) = 0.40980 0.17032
#
# Static dielectric constant tensor:
#      x y z
#    x 3.794160 0.000000 0.000000 
#    y 0.000000 3.740940 0.000000 
#    z 0.000000 0.000000 3.842150 
# 
# 
# High freq. dielectric constant tensor:
#      x y z
#    x 1.793130 0.000000 0.000000 
#    y 0.000000 1.787440 0.000000 
#    z 0.000000 0.000000 1.799670 
# 
# From -- ./inp_files/7934.got.cif
#   From: 2010.03.12/outbox.cif.g09.slc.cpg/sg72_4_cif.got.tgz:7934.got - 2010.04.16 14:54:00.
