data_PCOD8294175
_publ_section_title
;
Structure prediction by ZEFSAII (Michael W. Deem and Ramdas Pophale) SiO2 
 PCOD8294175
Probable space group: I B A M
;
_chemical_formula_sum "Si O2"
_cell_formula_units_Z 112
_cell_length_a 14.039955
_cell_length_b 14.396436
_cell_length_c 25.416513
_cell_angle_alpha 90.000000
_cell_angle_beta 90.000000
_cell_angle_gamma 90.000000
_cell_volume 5137.320661
_symmetry_space_group_name_H-M "I B A M"
_symmetry_group_IT_number 72
_symmetry_cell_setting 'orthorhombic'
loop_
_space_group_symop_operation_xyz
x,y,z
-x,-y,z
x,-y,1/2-z
-x,y,1/2-z
-x,-y,-z
x,y,-z
-x,y,1/2+z
x,-y,1/2+z
1/2+x,1/2+y,1/2+z
1/2-x,1/2-y,1/2+z
1/2+x,1/2-y,-z
1/2-x,1/2+y,-z
1/2-x,1/2-y,1/2-z
1/2+x,1/2+y,1/2-z
1/2-x,1/2+y,z
1/2+x,1/2-y,z
loop_
_atom_site_type_symbol
_atom_site_label
_atom_site_fract_x
_atom_site_fract_y
_atom_site_fract_z
Si Si1 0.594108 0.047722 0.941666
Si Si2 0.832371 0.729021 0.382498
Si Si3 0.613808 0.757774 0.240006
Si Si4 0.983638 0.257753 0.442645
Si Si5 0.258537 0.598637 0.727021
Si Si6 0.284760 0.432842 0.109569
Si Si7 0.169851 0.886080 0.562570
O O1 0.589763 0.158062 0.946805
O O2 0.680108 0.026909 0.902857
O O3 0.500000 0.000000 0.917709
O O4 0.613953 0.004570 0.000000
O O5 0.846219 0.727026 0.319401
O O6 0.803502 0.827726 0.409219
O O7 0.757713 0.652807 0.402652
O O8 0.936416 0.706369 0.403539
O O9 0.500000 0.759112 0.250000
O O10 0.657983 0.657409 0.257312
O O11 0.661664 0.839005 0.275463
O O12 0.027418 0.235147 0.500000
O O13 0.925395 0.169364 0.421308
O O14 0.231214 0.500000 0.750000
O O15 0.301305 0.570749 0.671171
O O16 0.352502 0.507490 0.080062
O O17 0.190629 0.877941 0.500000
#
# Coordination Sequence:
#
# PCOD8294175 Si02
#       7
#    16  16  16  16  16  16  16
#     4  10  20  36  58  88 122 160 209 257 308 371
#     4  11  23  40  65  92 123 167 215 262 321 383
#     4  10  24  42  67  95 123 168 214 273 333 385
#     4  10  22  37  59  89 126 168 204 254 310 373
#     4  10  23  44  64  92 129 162 214 272 329 390
#     4  11  23  39  63  89 121 170 208 261 318 380
#     4  11  23  40  62  92 132 171 209 258 316 381
#
# _framework density 21.801245999999999
#
# number of rings (size 3 to 8) (size 9 to 14) (size 15 to 20)
#    0.000    1.571    1.429    2.571    2.000    6.286 
#    0.000    4.286    0.000    0.000    0.000    0.000 
#    0.000    0.000    0.000    0.000    0.000    0.000 
#
# Total GULP energy -693904.707951 kJ/mol
# GULP energy per Si atom -12391.155499 kJ/mol
# Density = 2.175163 g / cm^3
# Si number density = 21.801246 Si / 1000 Ang^3
#
#
#
# Elastic Constant Matrix: (Units=GPa)
#
#
# Indices 1 2 3 4 5 6 
#
# 1 70.5692 5.4649 5.2450 0.0000 0.0000 0.0000
# 2 5.4649 111.8579 14.7542 0.0000 0.0000 0.0000
# 3 5.2450 14.7542 54.1808 0.0000 0.0000 0.0000
# 4 0.0000 0.0000 0.0000 32.3141 0.0000 0.0000
# 5 0.0000 0.0000 0.0000 0.0000 -86.5460 0.0000
# 6 0.0000 0.0000 0.0000 0.0000 0.0000 31.4123
#
#
#
# Elastic Compliance Matrix: (Units=1/GPa)
#
#
# Indices 1 2 3 4 5 6 
#
# 1 0.014304 -0.000535 -0.001239 0.000000 0.000000 0.000000
# 2 -0.000535 0.009293 -0.002479 0.000000 0.000000 0.000000
# 3 -0.001239 -0.002479 0.019252 0.000000 0.000000 0.000000
# 4 0.000000 0.000000 0.000000 0.030946 0.000000 0.000000
# 5 0.000000 0.000000 0.000000 0.000000 -0.011555 0.000000
# 6 0.000000 0.000000 0.000000 0.000000 0.000000 0.031835
#
#
# Mechanical properties :
#
#
# Convention : Reuss Voigt Hill
#
# Bulk Modulus (GPa) = 29.11845 31.94846 30.53346
# Shear Modulus (GPa) = 43.84857 9.51234 26.68045
#
# Velocity S-wave (km/s) = 4.48960 2.09110 3.50209
# Velocity P-wave (km/s) = 6.34513 4.52951 5.51258
#
# Compressibility (1/GPa) = 0.03434248
#
# Stress axis : x y z
#
# Youngs Moduli (GPa) = 69.91034 107.60757 51.94358
#
# Poissons Ratio (x) = 0.05762 0.06435
# Poissons Ratio (y) = 0.03743 0.12876
# Poissons Ratio (z) = 0.08661 0.26674
#
# Static dielectric constant tensor:
#      x y z
#    x 3.721920 0.000000 0.000000 
#    y 0.000000 4.446570 0.000000 
#    z 0.000000 0.000000 3.852870 
# 
# 
# High freq. dielectric constant tensor:
#      x y z
#    x 1.842930 0.000000 0.000000 
#    y 0.000000 1.874850 0.000000 
#    z 0.000000 0.000000 1.844260 
# 
# From -- ./inp_files/44345.got.cif
#   From: 2010.03.12/outbox.cif.g09.slc.cpg/sg72_23_cif.got.tgz:44345.got - 2010.04.16 14:54:00.
