data_PCOD8294275
_publ_section_title
;
Structure prediction by ZEFSAII (Michael W. Deem and Ramdas Pophale) SiO2 
 PCOD8294275
Probable space group: I B A M
;
_chemical_formula_sum "Si O2"
_cell_formula_units_Z 80
_cell_length_a 17.776997
_cell_length_b 14.701128
_cell_length_c 15.254625
_cell_angle_alpha 90.000000
_cell_angle_beta 90.000000
_cell_angle_gamma 90.000000
_cell_volume 3986.672809
_symmetry_space_group_name_H-M "I B A M"
_symmetry_group_IT_number 72
_symmetry_cell_setting 'orthorhombic'
loop_
_space_group_symop_operation_xyz
x,y,z
-x,-y,z
x,-y,1/2-z
-x,y,1/2-z
-x,-y,-z
x,y,-z
-x,y,1/2+z
x,-y,1/2+z
1/2+x,1/2+y,1/2+z
1/2-x,1/2-y,1/2+z
1/2+x,1/2-y,-z
1/2-x,1/2+y,-z
1/2-x,1/2-y,1/2-z
1/2+x,1/2+y,1/2-z
1/2-x,1/2+y,z
1/2+x,1/2-y,z
loop_
_atom_site_type_symbol
_atom_site_label
_atom_site_fract_x
_atom_site_fract_y
_atom_site_fract_z
Si Si1 0.187406 0.140825 0.097146
Si Si2 0.565477 0.073597 0.896905
Si Si3 0.262849 0.960511 0.102906
Si Si4 0.076695 0.753202 0.281680
Si Si5 0.294686 0.727397 0.336125
O O1 0.119504 0.176280 0.156189
O O2 0.256094 0.213430 0.087405
O O3 0.222683 0.050481 0.140285
O O4 0.155305 0.123450 0.000000
O O5 0.648384 0.034972 0.874158
O O6 0.556775 0.160927 0.834315
O O7 0.500000 0.000000 0.874420
O O8 0.560324 0.101414 0.000000
O O9 0.216094 0.878331 0.144234
O O10 0.252656 0.955428 0.000000
O O11 0.120885 0.741431 0.188534
O O12 0.000000 0.799258 0.250000
O O13 0.250000 0.750000 0.250000
#
# Coordination Sequence:
#
# PCOD8294275 Si02
#       5
#    16  16  16  16  16
#     4  10  21  40  65  87 119 167 210 253 300 358
#     4  10  21  39  62  91 129 164 197 245 307 376
#     4  10  20  38  65  93 118 158 214 256 297 360
#     4  11  24  40  56  91 130 162 198 251 315 368
#     4  10  20  37  59  88 123 161 201 251 301 358
#
# _framework density 20.066858
#
# number of rings (size 3 to 8) (size 9 to 14) (size 15 to 20)
#    0.000    1.800    4.000    1.200    2.800    3.600 
#    0.000    5.000    0.000    2.400    0.000    0.000 
#    0.000    0.000    0.000    0.000    0.000    0.000 
#
# Total GULP energy -495557.137049 kJ/mol
# GULP energy per Si atom -12388.928426 kJ/mol
# Density = 2.002119 g / cm^3
# Si number density = 20.066858 Si / 1000 Ang^3
#
#
#
# Elastic Constant Matrix: (Units=GPa)
#
#
# Indices 1 2 3 4 5 6 
#
# 1 148.6840 65.9248 41.2716 0.0000 0.0000 0.0000
# 2 65.9248 153.5875 35.2601 0.0000 0.0000 0.0000
# 3 41.2716 35.2601 43.2165 0.0000 0.0000 0.0000
# 4 0.0000 0.0000 0.0000 31.5787 0.0000 0.0000
# 5 0.0000 0.0000 0.0000 0.0000 29.7734 0.0000
# 6 0.0000 0.0000 0.0000 0.0000 0.0000 38.2496
#
#
#
# Elastic Compliance Matrix: (Units=1/GPa)
#
#
# Indices 1 2 3 4 5 6 
#
# 1 0.009907 -0.002560 -0.007373 0.000000 0.000000 0.000000
# 2 -0.002560 0.008673 -0.004632 0.000000 0.000000 0.000000
# 3 -0.007373 -0.004632 0.033959 0.000000 0.000000 0.000000
# 4 0.000000 0.000000 0.000000 0.031667 0.000000 0.000000
# 5 0.000000 0.000000 0.000000 0.000000 0.033587 0.000000
# 6 0.000000 0.000000 0.000000 0.000000 0.000000 0.026144
#
#
# Mechanical properties :
#
#
# Convention : Reuss Voigt Hill
#
# Bulk Modulus (GPa) = 42.71510 70.04456 56.37983
# Shear Modulus (GPa) = 27.64424 33.45579 30.55001
#
# Velocity S-wave (km/s) = 3.71564 4.08759 3.90604
# Velocity P-wave (km/s) = 6.30401 7.56698 6.96418
#
# Compressibility (1/GPa) = 0.02341092
#
# Stress axis : x y z
#
# Youngs Moduli (GPa) = 100.93648 115.29976 29.44715
#
# Poissons Ratio (x) = 0.29516 0.21711
# Poissons Ratio (y) = 0.25839 0.13639
# Poissons Ratio (z) = 0.74418 0.53402
#
# Static dielectric constant tensor:
#      x y z
#    x 7.058340 0.000000 0.000000 
#    y 0.000000 3.662050 0.000000 
#    z 0.000000 0.000000 5.097430 
# 
# 
# High freq. dielectric constant tensor:
#      x y z
#    x 1.776340 0.000000 0.000000 
#    y 0.000000 1.778520 0.000000 
#    z 0.000000 0.000000 1.789820 
# 
# From -- ./inp_files/31366.got.cif
#   From: 2010.03.12/outbox.cif.g09.slc.cpg/sg72_16_cif.got.tgz:31366.got - 2010.04.16 14:54:00.
