data_PCOD8294942
_publ_section_title
;
Structure prediction by ZEFSAII (Michael W. Deem and Ramdas Pophale) SiO2 
 PCOD8294942
Probable space group: I B A M
;
_chemical_formula_sum "Si O2"
_cell_formula_units_Z 72
_cell_length_a 31.766437
_cell_length_b 12.995273
_cell_length_c 9.558786
_cell_angle_alpha 90.000000
_cell_angle_beta 90.000000
_cell_angle_gamma 90.000000
_cell_volume 3945.996106
_symmetry_space_group_name_H-M "I B A M"
_symmetry_group_IT_number 72
_symmetry_cell_setting 'orthorhombic'
loop_
_space_group_symop_operation_xyz
x,y,z
-x,-y,z
x,-y,1/2-z
-x,y,1/2-z
-x,-y,-z
x,y,-z
-x,y,1/2+z
x,-y,1/2+z
1/2+x,1/2+y,1/2+z
1/2-x,1/2-y,1/2+z
1/2+x,1/2-y,-z
1/2-x,1/2+y,-z
1/2-x,1/2-y,1/2-z
1/2+x,1/2+y,1/2-z
1/2-x,1/2+y,z
1/2+x,1/2-y,z
loop_
_atom_site_type_symbol
_atom_site_label
_atom_site_fract_x
_atom_site_fract_y
_atom_site_fract_z
Si Si1 0.780250 0.700585 0.500000
Si Si2 0.461849 0.395007 0.664748
Si Si3 0.624884 0.694621 0.741796
Si Si4 0.166798 0.101320 0.500000
Si Si5 0.684978 0.363653 0.000000
Si Si6 0.848246 0.598006 0.653506
O O1 0.793380 0.821098 0.500000
O O2 0.731095 0.684810 0.500000
O O3 0.801199 0.646919 0.637381
O O4 0.454528 0.500000 0.750000
O O5 0.500000 0.338324 0.750000
O O6 0.472909 0.412733 0.500000
O O7 0.419600 0.329471 0.672220
O O8 0.662537 0.680518 0.634544
O O9 0.621554 0.813905 0.785569
O O10 0.635627 0.618863 0.869750
O O11 0.185751 0.987332 0.500000
O O12 0.846945 0.500000 0.750000
O O13 0.865538 0.565630 0.500000
#
# Coordination Sequence:
#
# PCOD8294942 Si02
#       6
#     8  16  16   8   8  16
#     4   8  22  38  54  84 115 154 203 244 296 328
#     4  11  23  37  59  89 119 159 194 236 293 354
#     4  11  23  38  57  87 121 153 199 242 293 345
#     4  10  22  40  53  82 124 164 193 243 300 333
#     4  12  22  34  61  86 117 161 196 247 282 361
#     4   9  21  40  60  83 112 155 200 244 291 340
#
# _framework density 18.246344000000001
#
# number of rings (size 3 to 8) (size 9 to 14) (size 15 to 20)
#    0.667    1.111    2.222    3.333    4.667    7.111 
#    0.000    0.000    0.000    0.667    0.000    3.111 
#    0.000    0.000    0.000    0.000    0.000    0.000 
#
# Total GULP energy -446114.319525 kJ/mol
# GULP energy per Si atom -12392.064431 kJ/mol
# Density = 1.820481 g / cm^3
# Si number density = 18.246344 Si / 1000 Ang^3
#
#
#
# Elastic Constant Matrix: (Units=GPa)
#
#
# Indices 1 2 3 4 5 6 
#
# 1 106.0287 29.8175 36.5304 0.0000 0.0000 0.0000
# 2 29.8175 91.4645 43.3008 0.0000 0.0000 0.0000
# 3 36.5304 43.3008 143.3662 0.0000 0.0000 0.0000
# 4 0.0000 0.0000 0.0000 32.5737 0.0000 0.0000
# 5 0.0000 0.0000 0.0000 0.0000 28.8318 0.0000
# 6 0.0000 0.0000 0.0000 0.0000 0.0000 24.3160
#
#
#
# Elastic Compliance Matrix: (Units=1/GPa)
#
#
# Indices 1 2 3 4 5 6 
#
# 1 0.010844 -0.002599 -0.001978 0.000000 0.000000 0.000000
# 2 -0.002599 0.013380 -0.003379 0.000000 0.000000 0.000000
# 3 -0.001978 -0.003379 0.008500 0.000000 0.000000 0.000000
# 4 0.000000 0.000000 0.000000 0.030700 0.000000 0.000000
# 5 0.000000 0.000000 0.000000 0.000000 0.034684 0.000000
# 6 0.000000 0.000000 0.000000 0.000000 0.000000 0.041125
#
#
# Mechanical properties :
#
#
# Convention : Reuss Voigt Hill
#
# Bulk Modulus (GPa) = 59.48149 62.23964 60.86057
# Shear Modulus (GPa) = 31.10464 32.55836 31.83150
#
# Velocity S-wave (km/s) = 4.13329 4.22877 4.18130
# Velocity P-wave (km/s) = 7.44638 7.61762 7.53249
#
# Compressibility (1/GPa) = 0.01681195
#
# Stress axis : x y z
#
# Youngs Moduli (GPa) = 92.21920 74.73828 117.65033
#
# Poissons Ratio (x) = 0.19421 0.23274
# Poissons Ratio (y) = 0.23964 0.39754
# Poissons Ratio (z) = 0.18243 0.25254
#
# Static dielectric constant tensor:
#      x y z
#    x 3.349950 0.000000 0.000000 
#    y 0.000000 3.204770 0.000000 
#    z 0.000000 0.000000 3.583890 
# 
# 
# High freq. dielectric constant tensor:
#      x y z
#    x 1.691280 0.000000 0.000000 
#    y 0.000000 1.691910 0.000000 
#    z 0.000000 0.000000 1.726860 
# 
# From -- ./inp_files/8972.got.cif
#   From: 2010.03.12/outbox.cif.g09.slc.cpg/sg72_5_cif.got.tgz:8972.got - 2010.04.16 14:54:00.
