data_PCOD8294731
_publ_section_title
;
Structure prediction by ZEFSAII (Michael W. Deem and Ramdas Pophale) SiO2 
 PCOD8294731
Probable space group: I B A M
;
_chemical_formula_sum "Si O2"
_cell_formula_units_Z 112
_cell_length_a 25.119126
_cell_length_b 12.569816
_cell_length_c 17.311962
_cell_angle_alpha 90.000000
_cell_angle_beta 90.000000
_cell_angle_gamma 90.000000
_cell_volume 5466.127215
_symmetry_space_group_name_H-M "I B A M"
_symmetry_group_IT_number 72
_symmetry_cell_setting 'orthorhombic'
loop_
_space_group_symop_operation_xyz
x,y,z
-x,-y,z
x,-y,1/2-z
-x,y,1/2-z
-x,-y,-z
x,y,-z
-x,y,1/2+z
x,-y,1/2+z
1/2+x,1/2+y,1/2+z
1/2-x,1/2-y,1/2+z
1/2+x,1/2-y,-z
1/2-x,1/2+y,-z
1/2-x,1/2-y,1/2-z
1/2+x,1/2+y,1/2-z
1/2-x,1/2+y,z
1/2+x,1/2-y,z
loop_
_atom_site_type_symbol
_atom_site_label
_atom_site_fract_x
_atom_site_fract_y
_atom_site_fract_z
Si Si1 0.813667 0.194634 0.329915
Si Si2 0.959868 0.086886 0.908130
Si Si3 0.155674 0.020392 0.410827
Si Si4 0.994201 0.315133 0.089193
Si Si5 0.610287 0.104825 0.348000
Si Si6 0.301220 0.727520 0.649486
Si Si7 0.102186 0.368758 0.829265
O O1 0.825544 0.076578 0.358468
O O2 0.757534 0.228819 0.365660
O O3 0.810736 0.195322 0.237836
O O4 0.859295 0.275336 0.359896
O O5 0.978781 0.200158 0.875919
O O6 0.901344 0.058380 0.878321
O O7 0.960129 0.089128 0.000000
O O8 0.000000 0.000000 0.874319
O O9 0.153436 0.984008 0.500000
O O10 0.194158 0.121721 0.402105
O O11 0.942134 0.388216 0.098786
O O12 0.044002 0.361545 0.134526
O O13 0.010374 0.308805 0.000000
O O14 0.657404 0.181325 0.378509
O O15 0.594365 0.139596 0.262092
O O16 0.629274 0.981970 0.351039
#
# Coordination Sequence:
#
# PCOD8294731 Si02
#       7
#    16  16  16  16  16  16  16
#     4  10  23  40  65  91 117 159 206 253 299 356
#     4   9  18  33  55  81 114 156 193 231 286 353
#     4  11  22  39  62  89 126 161 195 246 306 363
#     4  11  21  36  58  86 120 158 198 241 300 364
#     4  10  21  39  60  86 120 158 200 249 301 354
#     4  10  22  41  65  89 119 158 206 255 299 356
#     4  10  22  38  60  88 119 157 202 251 298 350
#
# _framework density 20.489827999999999
#
# number of rings (size 3 to 8) (size 9 to 14) (size 15 to 20)
#    0.000    1.857    1.429    2.143    2.000    4.571 
#    0.000    0.000    0.000    0.000    0.000    0.000 
#    0.000    0.000    0.000    0.000    0.000    0.000 
#
# Total GULP energy -694554.540371 kJ/mol
# GULP energy per Si atom -12402.759649 kJ/mol
# Density = 2.044319 g / cm^3
# Si number density = 20.489828 Si / 1000 Ang^3
#
#
#
# Elastic Constant Matrix: (Units=GPa)
#
#
# Indices 1 2 3 4 5 6 
#
# 1 117.1843 44.0266 15.3608 0.0000 0.0000 0.0000
# 2 44.0266 139.4840 17.6609 0.0000 0.0000 0.0000
# 3 15.3608 17.6609 26.3181 0.0000 0.0000 0.0000
# 4 0.0000 0.0000 0.0000 26.8421 0.0000 0.0000
# 5 0.0000 0.0000 0.0000 0.0000 16.2880 0.0000
# 6 0.0000 0.0000 0.0000 0.0000 0.0000 29.3128
#
#
#
# Elastic Compliance Matrix: (Units=1/GPa)
#
#
# Indices 1 2 3 4 5 6 
#
# 1 0.010069 -0.002660 -0.004092 0.000000 0.000000 0.000000
# 2 -0.002660 0.008538 -0.004177 0.000000 0.000000 0.000000
# 3 -0.004092 -0.004177 0.043188 0.000000 0.000000 0.000000
# 4 0.000000 0.000000 0.000000 0.037255 0.000000 0.000000
# 5 0.000000 0.000000 0.000000 0.000000 0.061395 0.000000
# 6 0.000000 0.000000 0.000000 0.000000 0.000000 0.034115
#
#
# Mechanical properties :
#
#
# Convention : Reuss Voigt Hill
#
# Bulk Modulus (GPa) = 25.03925 48.56477 36.80201
# Shear Modulus (GPa) = 21.76471 28.21779 24.99125
#
# Velocity S-wave (km/s) = 3.26271 3.71504 3.49620
# Velocity P-wave (km/s) = 5.14204 6.49272 5.85644
#
# Compressibility (1/GPa) = 0.03993730
#
# Stress axis : x y z
#
# Youngs Moduli (GPa) = 99.31086 117.12652 23.15468
#
# Poissons Ratio (x) = 0.31158 0.09475
# Poissons Ratio (y) = 0.26419 0.09671
# Poissons Ratio (z) = 0.40638 0.48920
#
# Static dielectric constant tensor:
#      x y z
#    x 3.761720 0.000000 0.000000 
#    y 0.000000 3.874950 0.000000 
#    z 0.000000 0.000000 3.371790 
# 
# 
# High freq. dielectric constant tensor:
#      x y z
#    x 1.804510 0.000000 0.000000 
#    y 0.000000 1.817590 0.000000 
#    z 0.000000 0.000000 1.774810 
# 
# From -- ./inp_files/40340.got.cif
#   From: 2010.03.12/outbox.cif.g09.slc.cpg/sg72_21_cif.got.tgz:40340.got - 2010.04.16 14:54:00.
