data_PCOD8294092
_publ_section_title
;
Structure prediction by ZEFSAII (Michael W. Deem and Ramdas Pophale) SiO2 
 PCOD8294092
Probable space group: I B A M
;
_chemical_formula_sum "Si O2"
_cell_formula_units_Z 96
_cell_length_a 28.330458
_cell_length_b 10.500308
_cell_length_c 15.503474
_cell_angle_alpha 90.000000
_cell_angle_beta 90.000000
_cell_angle_gamma 90.000000
_cell_volume 4611.950730
_symmetry_space_group_name_H-M "I B A M"
_symmetry_group_IT_number 72
_symmetry_cell_setting 'orthorhombic'
loop_
_space_group_symop_operation_xyz
x,y,z
-x,-y,z
x,-y,1/2-z
-x,y,1/2-z
-x,-y,-z
x,y,-z
-x,y,1/2+z
x,-y,1/2+z
1/2+x,1/2+y,1/2+z
1/2-x,1/2-y,1/2+z
1/2+x,1/2-y,-z
1/2-x,1/2+y,-z
1/2-x,1/2-y,1/2-z
1/2+x,1/2+y,1/2-z
1/2-x,1/2+y,z
1/2+x,1/2-y,z
loop_
_atom_site_type_symbol
_atom_site_label
_atom_site_fract_x
_atom_site_fract_y
_atom_site_fract_z
Si Si1 0.121624 0.265704 0.398172
Si Si2 0.526126 0.879716 0.901546
Si Si3 0.784473 0.984672 0.852439
Si Si4 0.479853 0.630047 0.155199
Si Si5 0.276455 0.761133 0.341445
Si Si6 0.888566 0.025973 0.401567
O O1 0.133417 0.285468 0.500000
O O2 0.078785 0.354906 0.363748
O O3 0.167575 0.293919 0.338861
O O4 0.103464 0.122651 0.382121
O O5 0.493567 0.754663 0.898013
O O6 0.500000 0.000000 0.855046
O O7 0.534301 0.916314 0.000000
O O8 0.748248 0.879593 0.889994
O O9 0.835427 0.934716 0.879805
O O10 0.782147 0.000000 0.750000
O O11 0.772226 0.125036 0.891688
O O12 0.500000 0.500000 0.111631
O O13 0.500000 0.647754 0.250000
O O14 0.423115 0.612577 0.156976
O O15 0.250000 0.750000 0.250000
O O16 0.899903 0.058891 0.500000
#
# Coordination Sequence:
#
# PCOD8294092 Si02
#       6
#    16  16  16  16  16  16
#     4   9  18  34  58  83 112 151 188 231 295 351
#     4  10  21  39  61  84 118 159 198 241 292 353
#     4   9  19  34  56  77 111 143 186 231 284 338
#     4  11  23  35  59  86 117 148 194 237 289 340
#     4   9  18  34  55  78 108 144 186 228 283 342
#     4  10  20  35  58  86 111 146 190 238 289 343
#
# _framework density 20.815486
#
# number of rings (size 3 to 8) (size 9 to 14) (size 15 to 20)
#    0.000    2.333    1.667    0.500    2.333    3.000 
#    3.000    0.000    3.667    0.000    0.000    0.000 
#    0.000    0.000    0.000    0.000    0.000    0.000 
#
# Total GULP energy -594764.562409 kJ/mol
# GULP energy per Si atom -12390.928384 kJ/mol
# Density = 2.076811 g / cm^3
# Si number density = 20.815486 Si / 1000 Ang^3
#
#
#
# Elastic Constant Matrix: (Units=GPa)
#
#
# Indices 1 2 3 4 5 6 
#
# 1 194.9757 96.2218 31.3021 0.0000 0.0000 0.0000
# 2 96.2218 139.0128 6.5788 0.0000 0.0000 0.0000
# 3 31.3021 6.5788 41.2451 0.0000 0.0000 0.0000
# 4 0.0000 0.0000 0.0000 12.0773 0.0000 0.0000
# 5 0.0000 0.0000 0.0000 0.0000 27.3420 0.0000
# 6 0.0000 0.0000 0.0000 0.0000 0.0000 40.4293
#
#
#
# Elastic Compliance Matrix: (Units=1/GPa)
#
#
# Indices 1 2 3 4 5 6 
#
# 1 0.009018 -0.005963 -0.005893 0.000000 0.000000 0.000000
# 2 -0.005963 0.011191 0.002740 0.000000 0.000000 0.000000
# 3 -0.005893 0.002740 0.028280 0.000000 0.000000 0.000000
# 4 0.000000 0.000000 0.000000 0.082800 0.000000 0.000000
# 5 0.000000 0.000000 0.000000 0.000000 0.036574 0.000000
# 6 0.000000 0.000000 0.000000 0.000000 0.000000 0.024735
#
#
# Mechanical properties :
#
#
# Convention : Reuss Voigt Hill
#
# Bulk Modulus (GPa) = 33.04819 71.49321 52.27070
# Shear Modulus (GPa) = 22.63323 32.04512 27.33917
#
# Velocity S-wave (km/s) = 3.30104 3.92788 3.62803
# Velocity P-wave (km/s) = 5.51728 7.41564 6.53575
#
# Compressibility (1/GPa) = 0.03025885
#
# Stress axis : x y z
#
# Youngs Moduli (GPa) = 110.89418 89.35505 35.36037
#
# Poissons Ratio (x) = 0.53282 0.20836
# Poissons Ratio (y) = 0.66125 -0.09690
# Poissons Ratio (z) = 0.65345 -0.24487
#
# Static dielectric constant tensor:
#      x y z
#    x 3.968860 0.000000 0.000000 
#    y 0.000000 4.516000 0.000000 
#    z 0.000000 0.000000 3.392520 
# 
# 
# High freq. dielectric constant tensor:
#      x y z
#    x 1.824780 0.000000 0.000000 
#    y 0.000000 1.807450 0.000000 
#    z 0.000000 0.000000 1.781030 
# 
# From -- ./inp_files/33238.got.cif
#   From: 2010.03.12/outbox.cif.g09.slc.cpg/sg72_17_cif.got.tgz:33238.got - 2010.04.16 14:54:00.
