data_PCOD8294551
_publ_section_title
;
Structure prediction by ZEFSAII (Michael W. Deem and Ramdas Pophale) SiO2 
 PCOD8294551
Probable space group: I B A M
;
_chemical_formula_sum "Si O2"
_cell_formula_units_Z 64
_cell_length_a 13.153103
_cell_length_b 14.704384
_cell_length_c 17.955538
_cell_angle_alpha 90.000000
_cell_angle_beta 90.000000
_cell_angle_gamma 90.000000
_cell_volume 3472.749673
_symmetry_space_group_name_H-M "I B A M"
_symmetry_group_IT_number 72
_symmetry_cell_setting 'orthorhombic'
loop_
_space_group_symop_operation_xyz
x,y,z
-x,-y,z
x,-y,1/2-z
-x,y,1/2-z
-x,-y,-z
x,y,-z
-x,y,1/2+z
x,-y,1/2+z
1/2+x,1/2+y,1/2+z
1/2-x,1/2-y,1/2+z
1/2+x,1/2-y,-z
1/2-x,1/2+y,-z
1/2-x,1/2-y,1/2-z
1/2+x,1/2+y,1/2-z
1/2-x,1/2+y,z
1/2+x,1/2-y,z
loop_
_atom_site_type_symbol
_atom_site_label
_atom_site_fract_x
_atom_site_fract_y
_atom_site_fract_z
Si Si1 0.385841 0.501662 0.085901
Si Si2 0.278935 0.667064 0.836771
Si Si3 0.113016 0.673372 0.276617
Si Si4 0.769678 0.345165 0.584731
O O1 0.500000 0.500000 0.118445
O O2 0.323999 0.578377 0.127375
O O3 0.331336 0.404905 0.098141
O O4 0.389336 0.529324 0.000000
O O5 0.185722 0.632420 0.786753
O O6 0.363242 0.718110 0.784622
O O7 0.239881 0.739654 0.899254
O O8 0.140260 0.626193 0.356910
O O9 0.000000 0.653377 0.250000
O O10 0.809524 0.356650 0.500000
#
# Coordination Sequence:
#
# PCOD8294551 Si02
#       4
#    16  16  16  16
#     4  10  21  36  60  93 119 150 199 243 291 349
#     4   9  20  36  58  83 122 152 189 244 291 340
#     4   9  20  38  58  81 116 157 201 231 288 358
#     4   9  19  36  57  84 119 152 191 240 292 349
#
# _framework density 18.429200000000002
#
# number of rings (size 3 to 8) (size 9 to 14) (size 15 to 20)
#    1.500    1.250    0.000    0.750    3.500    1.000 
#    0.000    6.250    0.000    3.000    0.000    0.000 
#    0.000    0.000    0.000    0.000    0.000    0.000 
#
# Total GULP energy -396419.962200 kJ/mol
# GULP energy per Si atom -12388.123819 kJ/mol
# Density = 1.838725 g / cm^3
# Si number density = 18.429200 Si / 1000 Ang^3
#
#
#
# Elastic Constant Matrix: (Units=GPa)
#
#
# Indices 1 2 3 4 5 6 
#
# 1 145.0037 46.1256 86.9806 0.0000 0.0000 0.0000
# 2 46.1256 86.8610 46.8401 0.0000 0.0000 0.0000
# 3 86.9806 46.8401 118.2922 0.0000 0.0000 0.0000
# 4 0.0000 0.0000 0.0000 19.6940 0.0000 0.0000
# 5 0.0000 0.0000 0.0000 0.0000 25.2230 0.0000
# 6 0.0000 0.0000 0.0000 0.0000 0.0000 19.7763
#
#
#
# Elastic Compliance Matrix: (Units=1/GPa)
#
#
# Indices 1 2 3 4 5 6 
#
# 1 0.012651 -0.002164 -0.008445 0.000000 0.000000 0.000000
# 2 -0.002164 0.015008 -0.004352 0.000000 0.000000 0.000000
# 3 -0.008445 -0.004352 0.016387 0.000000 0.000000 0.000000
# 4 0.000000 0.000000 0.000000 0.050777 0.000000 0.000000
# 5 0.000000 0.000000 0.000000 0.000000 0.039646 0.000000
# 6 0.000000 0.000000 0.000000 0.000000 0.000000 0.050566
#
#
# Mechanical properties :
#
#
# Convention : Reuss Voigt Hill
#
# Bulk Modulus (GPa) = 70.80158 78.89438 74.84798
# Shear Modulus (GPa) = 22.76204 24.28603 23.52404
#
# Velocity S-wave (km/s) = 3.51822 3.63409 3.57663
# Velocity P-wave (km/s) = 7.41656 7.77890 7.59989
#
# Compressibility (1/GPa) = 0.01412398
#
# Stress axis : x y z
#
# Youngs Moduli (GPa) = 79.04824 66.62936 61.02521
#
# Poissons Ratio (x) = 0.14416 0.51537
# Poissons Ratio (y) = 0.17103 0.26558
# Poissons Ratio (z) = 0.66758 0.28997
#
# Static dielectric constant tensor:
#      x y z
#    x 3.204160 0.000000 0.000000 
#    y 0.000000 3.125870 0.000000 
#    z 0.000000 0.000000 3.501940 
# 
# 
# High freq. dielectric constant tensor:
#      x y z
#    x 1.693450 0.000000 0.000000 
#    y 0.000000 1.697160 0.000000 
#    z 0.000000 0.000000 1.722850 
# 
# From -- ./inp_files/28779.got.cif
#   From: 2010.03.12/outbox.cif.g09.slc.cpg/sg72_15_cif.got.tgz:28779.got - 2010.04.16 14:54:00.
