data_PCOD8294475
_publ_section_title
;
Structure prediction by ZEFSAII (Michael W. Deem and Ramdas Pophale) SiO2 
 PCOD8294475
Probable space group: I B A M
;
_chemical_formula_sum "Si O2"
_cell_formula_units_Z 80
_cell_length_a 12.183427
_cell_length_b 34.863800
_cell_length_c 10.357672
_cell_angle_alpha 90.000000
_cell_angle_beta 90.000000
_cell_angle_gamma 90.000000
_cell_volume 4399.530582
_symmetry_space_group_name_H-M "I B A M"
_symmetry_group_IT_number 72
_symmetry_cell_setting 'orthorhombic'
loop_
_space_group_symop_operation_xyz
x,y,z
-x,-y,z
x,-y,1/2-z
-x,y,1/2-z
-x,-y,-z
x,y,-z
-x,y,1/2+z
x,-y,1/2+z
1/2+x,1/2+y,1/2+z
1/2-x,1/2-y,1/2+z
1/2+x,1/2-y,-z
1/2-x,1/2+y,-z
1/2-x,1/2-y,1/2-z
1/2+x,1/2+y,1/2-z
1/2-x,1/2+y,z
1/2+x,1/2-y,z
loop_
_atom_site_type_symbol
_atom_site_label
_atom_site_fract_x
_atom_site_fract_y
_atom_site_fract_z
Si Si1 0.759039 0.832423 0.243400
Si Si2 0.369756 0.089383 0.754462
Si Si3 0.174376 0.713027 0.000000
Si Si4 0.000000 0.809846 0.250000
Si Si5 0.221858 0.288434 0.000000
Si Si6 0.012382 0.758548 0.500000
Si Si7 0.631499 0.044846 0.000000
Si Si8 0.127366 0.459621 0.500000
O O1 0.700343 0.872699 0.223980
O O2 0.725312 0.804868 0.127064
O O3 0.891223 0.836854 0.243608
O O4 0.713223 0.814931 0.375421
O O5 0.500000 0.098720 0.750000
O O6 0.330186 0.068444 0.624706
O O7 0.335090 0.062174 0.871896
O O8 0.041551 0.714581 0.000000
O O9 0.172620 0.760769 0.000000
O O10 0.988397 0.783444 0.373774
O O11 0.139262 0.252490 0.000000
O O12 0.502712 0.038514 0.000000
O O13 0.682271 0.001961 0.000000
#
# Coordination Sequence:
#
# PCOD8294475 Si02
#       8
#    16  16   8   8   8   8   8   8
#     4  12  24  38  55  79 110 143 181 227 274 316
#     4  10  21  34  51  82 113 136 169 215 266 319
#     4  12  23  39  55  77 102 142 189 232 277 313
#     4  12  22  40  56  74 101 146 190 228 261 318
#     4  12  23  39  55  77 102 142 189 232 277 313
#     4  12  24  36  58  76 100 134 190 238 276 322
#     4   9  17  33  56  80 109 141 169 202 255 326
#     4   9  17  33  56  80 109 141 169 202 255 326
#
# _framework density 18.183757
#
# number of rings (size 3 to 8) (size 9 to 14) (size 15 to 20)
#    0.000    1.000    4.000    3.600    2.800    2.400 
#    0.000    0.000    0.000    0.000    0.000    4.200 
#    0.000    0.000    0.000    0.000    0.000    0.000 
#
# Total GULP energy -495831.716006 kJ/mol
# GULP energy per Si atom -12395.792900 kJ/mol
# Density = 1.814237 g / cm^3
# Si number density = 18.183757 Si / 1000 Ang^3
#
#
#
# Elastic Constant Matrix: (Units=GPa)
#
#
# Indices 1 2 3 4 5 6 
#
# 1 75.7437 41.1586 27.9844 -0.0091 -0.0012 0.0005
# 2 41.1586 100.1295 38.6785 -0.0278 -0.0001 0.0018
# 3 27.9844 38.6785 150.0867 -0.0267 0.0047 0.0038
# 4 -0.0091 -0.0278 -0.0267 71.3040 0.0111 0.0046
# 5 -0.0012 -0.0001 0.0047 0.0111 13.9797 0.0001
# 6 0.0005 0.0018 0.0038 0.0046 0.0001 23.6678
#
#
#
# Elastic Compliance Matrix: (Units=1/GPa)
#
#
# Indices 1 2 3 4 5 6 
#
# 1 0.017318 -0.006520 -0.001549 -0.000001 0.000002 0.000000
# 2 -0.006520 0.013546 -0.002275 0.000004 0.000000 -0.000001
# 3 -0.001549 -0.002275 0.007538 0.000002 -0.000003 -0.000001
# 4 -0.000001 0.000004 0.000002 0.014024 -0.000011 -0.000003
# 5 0.000002 0.000000 -0.000003 -0.000011 0.071532 0.000000
# 6 0.000000 -0.000001 -0.000001 -0.000003 0.000000 0.042252
#
#
# Mechanical properties :
#
#
# Convention : Reuss Voigt Hill
#
# Bulk Modulus (GPa) = 56.45423 60.17809 58.31616
# Shear Modulus (GPa) = 25.93322 36.33284 31.13303
#
# Velocity S-wave (km/s) = 3.78057 4.47485 4.14228
# Velocity P-wave (km/s) = 7.08314 7.73727 7.41742
#
# Compressibility (1/GPa) = 0.01771346
#
# Stress axis : x y z
#
# Youngs Moduli (GPa) = 57.74452 73.82178 132.66283
#
# Poissons Ratio (x) = 0.48134 0.20545
# Poissons Ratio (y) = 0.37651 0.30184
# Poissons Ratio (z) = 0.08943 0.16796
#
# Static dielectric constant tensor:
#      x y z
#    x 3.396140 0.000000 0.000000 
#    y 0.000000 3.305780 0.000000 
#    z 0.000000 0.000000 3.571630 
# 
# 
# High freq. dielectric constant tensor:
#      x y z
#    x 1.689440 0.000000 0.000000 
#    y 0.000000 1.693750 0.000000 
#    z 0.000000 0.000000 1.730350 
# 
# From -- ./inp_files/11724.got.cif
#   From: 2010.03.12/outbox.cif.g09.slc.cpg/sg72_6_cif.got.tgz:11724.got - 2010.04.16 14:54:00.
