data_PCOD8294768
_publ_section_title
;
Structure prediction by ZEFSAII (Michael W. Deem and Ramdas Pophale) SiO2 
 PCOD8294768
Probable space group: I B A M
;
_chemical_formula_sum "Si O2"
_cell_formula_units_Z 88
_cell_length_a 14.046176
_cell_length_b 20.033687
_cell_length_c 14.557232
_cell_angle_alpha 90.000000
_cell_angle_beta 90.000000
_cell_angle_gamma 90.000000
_cell_volume 4096.356952
_symmetry_space_group_name_H-M "I B A M"
_symmetry_group_IT_number 72
_symmetry_cell_setting 'orthorhombic'
loop_
_space_group_symop_operation_xyz
x,y,z
-x,-y,z
x,-y,1/2-z
-x,y,1/2-z
-x,-y,-z
x,y,-z
-x,y,1/2+z
x,-y,1/2+z
1/2+x,1/2+y,1/2+z
1/2-x,1/2-y,1/2+z
1/2+x,1/2-y,-z
1/2-x,1/2+y,-z
1/2-x,1/2-y,1/2-z
1/2+x,1/2+y,1/2-z
1/2-x,1/2+y,z
1/2+x,1/2-y,z
loop_
_atom_site_type_symbol
_atom_site_label
_atom_site_fract_x
_atom_site_fract_y
_atom_site_fract_z
Si Si1 0.399551 0.245302 0.108177
Si Si2 0.578475 0.325024 0.104889
Si Si3 0.753481 0.500000 0.750000
Si Si4 0.895662 0.027992 0.392971
Si Si5 0.201767 0.702761 0.603450
Si Si6 0.107934 0.378085 0.259959
O O1 0.490355 0.284457 0.149828
O O2 0.312886 0.296055 0.129309
O O3 0.385799 0.174752 0.157704
O O4 0.409084 0.229641 0.000000
O O5 0.602104 0.396691 0.148649
O O6 0.671636 0.279982 0.114623
O O7 0.548811 0.339146 0.000000
O O8 0.684432 0.513783 0.837538
O O9 0.820586 0.561395 0.721903
O O10 0.867463 0.024452 0.500000
O O11 0.000000 0.000000 0.374707
O O12 0.184388 0.677757 0.500000
O O13 0.138599 0.655125 0.664742
O O14 0.000000 0.404722 0.250000
#
# Coordination Sequence:
#
# PCOD8294768 Si02
#       6
#    16  16   8  16  16  16
#     4  10  21  39  67  98 127 163 213 275 334 388
#     4   9  18  37  65  95 125 159 206 267 326 379
#     4  12  28  44  62  94 134 178 228 262 314 398
#     4  10  23  45  69  95 131 173 214 268 330 390
#     4  10  21  39  64  95 127 163 212 268 324 385
#     4  12  25  43  63  92 129 178 221 268 319 383
#
# _framework density 21.482503000000001
#
# number of rings (size 3 to 8) (size 9 to 14) (size 15 to 20)
#    0.000    1.636    1.818    2.182    2.545    2.909 
#    3.273    0.000    0.000    3.273    0.000    0.000 
#    0.000    0.000    0.000    0.000    0.000    0.000 
#
# Total GULP energy -545578.854346 kJ/mol
# GULP energy per Si atom -12399.519417 kJ/mol
# Density = 2.143361 g / cm^3
# Si number density = 21.482503 Si / 1000 Ang^3
#
#
#
# Elastic Constant Matrix: (Units=GPa)
#
#
# Indices 1 2 3 4 5 6 
#
# 1 118.5980 11.9641 39.8193 0.0000 0.0000 0.0000
# 2 11.9641 54.6922 18.1273 0.0005 -0.0001 -0.0001
# 3 39.8193 18.1273 74.7475 0.0013 -0.0003 -0.0002
# 4 0.0000 0.0005 0.0013 29.5263 -0.0003 -0.0001
# 5 0.0000 -0.0001 -0.0003 -0.0003 24.2723 0.0000
# 6 0.0000 -0.0001 -0.0002 -0.0001 0.0000 36.5102
#
#
#
# Elastic Compliance Matrix: (Units=1/GPa)
#
#
# Indices 1 2 3 4 5 6 
#
# 1 0.010280 -0.000472 -0.005362 0.000000 0.000000 0.000000
# 2 -0.000472 0.019904 -0.004576 0.000000 0.000000 0.000000
# 3 -0.005362 -0.004576 0.017344 -0.000001 0.000000 0.000000
# 4 0.000000 0.000000 -0.000001 0.033868 0.000000 0.000000
# 5 0.000000 0.000000 0.000000 0.000000 0.041199 0.000000
# 6 0.000000 0.000000 0.000000 0.000000 0.000000 0.027390
#
#
# Mechanical properties :
#
#
# Convention : Reuss Voigt Hill
#
# Bulk Modulus (GPa) = 37.43961 43.09545 40.26753
# Shear Modulus (GPa) = 27.82319 29.93689 28.88004
#
# Velocity S-wave (km/s) = 3.60273 3.73708 3.67052
# Velocity P-wave (km/s) = 5.89678 6.22296 6.06207
#
# Compressibility (1/GPa) = 0.02670968
#
# Stress axis : x y z
#
# Youngs Moduli (GPa) = 97.27974 50.24145 57.65567
#
# Poissons Ratio (x) = 0.02369 0.30914
# Poissons Ratio (y) = 0.04588 0.26382
# Poissons Ratio (z) = 0.52159 0.22989
#
# Static dielectric constant tensor:
#      x y z
#    x 4.167900 0.000000 0.000000 
#    y 0.000000 3.845880 0.000000 
#    z 0.000000 0.000000 3.774410 
# 
# 
# High freq. dielectric constant tensor:
#      x y z
#    x 1.861570 0.000000 0.000000 
#    y 0.000000 1.827860 0.000000 
#    z 0.000000 0.000000 1.837840 
# 
# From -- ./inp_files/21709.got.cif
#   From: 2010.03.12/outbox.cif.g09.slc.cpg/sg72_11_cif.got.tgz:21709.got - 2010.04.16 14:54:00.
