data_PCOD8294995
_publ_section_title
;
Structure prediction by ZEFSAII (Michael W. Deem and Ramdas Pophale) SiO2 
 PCOD8294995
Probable space group: I B A M
;
_chemical_formula_sum "Si O2"
_cell_formula_units_Z 88
_cell_length_a 14.741010
_cell_length_b 12.677292
_cell_length_c 21.063489
_cell_angle_alpha 90.000000
_cell_angle_beta 90.000000
_cell_angle_gamma 90.000000
_cell_volume 3936.262427
_symmetry_space_group_name_H-M "I B A M"
_symmetry_group_IT_number 72
_symmetry_cell_setting 'orthorhombic'
loop_
_space_group_symop_operation_xyz
x,y,z
-x,-y,z
x,-y,1/2-z
-x,y,1/2-z
-x,-y,-z
x,y,-z
-x,y,1/2+z
x,-y,1/2+z
1/2+x,1/2+y,1/2+z
1/2-x,1/2-y,1/2+z
1/2+x,1/2-y,-z
1/2-x,1/2+y,-z
1/2-x,1/2-y,1/2-z
1/2+x,1/2+y,1/2-z
1/2-x,1/2+y,z
1/2+x,1/2-y,z
loop_
_atom_site_type_symbol
_atom_site_label
_atom_site_fract_x
_atom_site_fract_y
_atom_site_fract_z
Si Si1 0.571704 0.807958 0.198489
Si Si2 0.897589 0.985723 0.426955
Si Si3 0.328171 0.000000 0.750000
Si Si4 0.944315 0.608386 0.571031
Si Si5 0.214354 0.156271 0.662307
Si Si6 0.259913 0.668045 0.071097
O O1 0.500000 0.772366 0.250000
O O2 0.607249 0.926672 0.208469
O O3 0.527181 0.809819 0.127196
O O4 0.654438 0.727471 0.209662
O O5 0.892774 0.950564 0.500000
O O6 0.856171 0.893270 0.386112
O O7 0.843203 0.092300 0.414319
O O8 0.000000 0.000000 0.403874
O O9 0.269072 0.070091 0.701798
O O10 0.966814 0.652505 0.500000
O O11 0.834145 0.600806 0.579005
O O12 0.000000 0.500000 0.580480
O O13 0.274927 0.235626 0.620063
O O14 0.266119 0.714155 0.000000
#
# Coordination Sequence:
#
# PCOD8294995 Si02
#       6
#    16  16   8  16  16  16
#     4  11  24  41  62  90 126 165 206 257 318 379
#     4  10  22  41  64  92 127 164 204 257 318 376
#     4  12  25  42  61  86 122 164 210 260 316 374
#     4   9  17  33  60  93 125 158 201 254 310 370
#     4  11  23  39  63  89 119 163 211 261 310 375
#     4   9  19  38  63  92 127 166 208 257 318 383
#
# _framework density 22.356231999999999
#
# number of rings (size 3 to 8) (size 9 to 14) (size 15 to 20)
#    0.000    1.818    0.000    4.636    0.000    3.636 
#    0.000    2.727    0.000   22.909    0.000    1.273 
#    0.000    0.000    0.000    0.000    0.000    0.000 
#
# Total GULP energy -545341.299109 kJ/mol
# GULP energy per Si atom -12394.120434 kJ/mol
# Density = 2.230535 g / cm^3
# Si number density = 22.356232 Si / 1000 Ang^3
#
#
#
# Elastic Constant Matrix: (Units=GPa)
#
#
# Indices 1 2 3 4 5 6 
#
# 1 92.1524 32.7001 38.0669 0.0000 0.0000 0.0000
# 2 32.7001 75.1329 20.5234 0.0000 0.0000 0.0000
# 3 38.0669 20.5234 99.6841 0.0000 0.0000 0.0000
# 4 0.0000 0.0000 0.0000 43.4166 0.0000 0.0000
# 5 0.0000 0.0000 0.0000 0.0000 10.2314 0.0000
# 6 0.0000 0.0000 0.0000 0.0000 0.0000 19.5676
#
#
#
# Elastic Compliance Matrix: (Units=1/GPa)
#
#
# Indices 1 2 3 4 5 6 
#
# 1 0.014514 -0.005089 -0.004495 0.000000 0.000000 0.000000
# 2 -0.005089 0.015887 -0.001328 0.000000 0.000000 0.000000
# 3 -0.004495 -0.001328 0.012021 0.000000 0.000000 0.000000
# 4 0.000000 0.000000 0.000000 0.023033 0.000000 0.000000
# 5 0.000000 0.000000 0.000000 0.000000 0.097738 0.000000
# 6 0.000000 0.000000 0.000000 0.000000 0.000000 0.051105
#
#
# Mechanical properties :
#
#
# Convention : Reuss Voigt Hill
#
# Bulk Modulus (GPa) = 48.54388 49.95005 49.24696
# Shear Modulus (GPa) = 20.57710 26.35506 23.46608
#
# Velocity S-wave (km/s) = 3.03713 3.43719 3.24334
# Velocity P-wave (km/s) = 5.83608 6.17606 6.00847
#
# Compressibility (1/GPa) = 0.02059992
#
# Stress axis : x y z
#
# Youngs Moduli (GPa) = 68.89787 62.94317 83.18449
#
# Poissons Ratio (x) = 0.32033 0.37390
# Poissons Ratio (y) = 0.35064 0.11043
# Poissons Ratio (z) = 0.30968 0.08356
#
# Static dielectric constant tensor:
#      x y z
#    x 3.980620 0.000000 0.000000 
#    y 0.000000 3.887940 0.000000 
#    z 0.000000 0.000000 4.471920 
# 
# 
# High freq. dielectric constant tensor:
#      x y z
#    x 1.874590 0.000000 0.000000 
#    y 0.000000 1.867690 0.000000 
#    z 0.000000 0.000000 1.900750 
# 
# From -- ./inp_files/44166.got.cif
#   From: 2010.03.12/outbox.cif.g09.slc.cpg/sg72_23_cif.got.tgz:44166.got - 2010.04.16 14:54:00.
