data_PCOD8294112
_publ_section_title
;
Structure prediction by ZEFSAII (Michael W. Deem and Ramdas Pophale) SiO2 
 PCOD8294112
Probable space group: I B A M
;
_chemical_formula_sum "Si O2"
_cell_formula_units_Z 116
_cell_length_a 21.728787
_cell_length_b 31.114107
_cell_length_c 9.100766
_cell_angle_alpha 90.000000
_cell_angle_beta 90.000000
_cell_angle_gamma 90.000000
_cell_volume 6152.771285
_symmetry_space_group_name_H-M "I B A M"
_symmetry_group_IT_number 72
_symmetry_cell_setting 'orthorhombic'
loop_
_space_group_symop_operation_xyz
x,y,z
-x,-y,z
x,-y,1/2-z
-x,y,1/2-z
-x,-y,-z
x,y,-z
-x,y,1/2+z
x,-y,1/2+z
1/2+x,1/2+y,1/2+z
1/2-x,1/2-y,1/2+z
1/2+x,1/2-y,-z
1/2-x,1/2+y,-z
1/2-x,1/2-y,1/2-z
1/2+x,1/2+y,1/2-z
1/2-x,1/2+y,z
1/2+x,1/2-y,z
loop_
_atom_site_type_symbol
_atom_site_label
_atom_site_fract_x
_atom_site_fract_y
_atom_site_fract_z
Si Si1 0.061025 0.841699 0.672512
Si Si2 0.099179 0.064570 0.163858
Si Si3 0.804819 0.694778 0.672210
Si Si4 0.168575 0.221282 0.171766
Si Si5 0.062643 0.544522 0.325927
Si Si6 0.674034 0.107813 0.829837
Si Si7 0.721262 0.457715 0.327181
Si Si8 0.000000 0.000000 0.250000
O O1 0.050659 0.839487 0.500000
O O2 0.074489 0.890165 0.724486
O O3 0.116746 0.811705 0.724005
O O4 0.000000 0.824320 0.750000
O O5 0.151847 0.049380 0.273965
O O6 0.043675 0.030448 0.152662
O O7 0.126962 0.070086 0.000000
O O8 0.816173 0.695335 0.500000
O O9 0.842017 0.734329 0.742488
O O10 0.733179 0.699362 0.714025
O O11 0.831007 0.650597 0.734946
O O12 0.165114 0.231505 0.000000
O O13 0.082742 0.500000 0.250000
O O14 0.053020 0.537425 0.500000
O O15 0.114921 0.579197 0.293655
O O16 0.000000 0.561281 0.250000
O O17 0.735838 0.082355 0.784892
O O18 0.676198 0.120655 0.000000
O O19 0.748972 0.500000 0.250000
O O20 0.720572 0.466011 0.500000
#
# Coordination Sequence:
#
# PCOD8294112 Si02
#       8
#    16  16  16  16  16  16  16   4
#     4  10  21  37  56  80 109 145 184 228 275 325
#     4  11  23  38  56  80 113 151 196 240 282 328
#     4  10  20  35  60  87 109 138 179 225 274 331
#     4   9  19  37  58  80 111 143 176 222 279 332
#     4  10  20  36  58  83 113 149 188 225 268 324
#     4  10  22  38  56  83 117 149 180 224 280 333
#     4  11  23  37  55  80 112 149 190 233 279 328
#     4  12  22  36  60  78 114 156 196 240 282 324
#
# _framework density 18.853293000000001
#
# number of rings (size 3 to 8) (size 9 to 14) (size 15 to 20)
#    0.000    1.793    1.379    3.103    0.000    5.517 
#    0.000    0.690    0.000    0.000    0.000    0.000 
#    0.000    0.000    0.000    0.000    0.000    0.000 
#
# Total GULP energy -719382.939283 kJ/mol
# GULP energy per Si atom -12403.154126 kJ/mol
# Density = 1.881038 g / cm^3
# Si number density = 18.853293 Si / 1000 Ang^3
#
#
#
# Elastic Constant Matrix: (Units=GPa)
#
#
# Indices 1 2 3 4 5 6 
#
# 1 99.9743 69.4297 38.7046 0.0000 0.0000 0.0000
# 2 69.4297 150.1224 57.1622 0.0000 0.0000 0.0000
# 3 38.7046 57.1622 78.7423 0.0000 0.0000 0.0000
# 4 0.0000 0.0000 0.0000 33.2850 0.0000 0.0000
# 5 0.0000 0.0000 0.0000 0.0000 25.8353 0.0000
# 6 0.0000 0.0000 0.0000 0.0000 0.0000 24.2405
#
#
#
# Elastic Compliance Matrix: (Units=1/GPa)
#
#
# Indices 1 2 3 4 5 6 
#
# 1 0.015332 -0.005834 -0.003301 0.000000 0.000000 0.000000
# 2 -0.005834 0.011426 -0.005427 0.000000 0.000000 0.000000
# 3 -0.003301 -0.005427 0.018262 0.000000 0.000000 0.000000
# 4 0.000000 0.000000 0.000000 0.030044 0.000000 0.000000
# 5 0.000000 0.000000 0.000000 0.000000 0.038707 0.000000
# 6 0.000000 0.000000 0.000000 0.000000 0.000000 0.041253
#
#
# Mechanical properties :
#
#
# Convention : Reuss Voigt Hill
#
# Bulk Modulus (GPa) = 62.90959 73.27022 68.08990
# Shear Modulus (GPa) = 26.39279 27.57499 26.98389
#
# Velocity S-wave (km/s) = 3.74559 3.82856 3.78730
# Velocity P-wave (km/s) = 7.22124 7.64797 7.43767
#
# Compressibility (1/GPa) = 0.01589583
#
# Stress axis : x y z
#
# Youngs Moduli (GPa) = 65.22251 87.52189 54.75897
#
# Poissons Ratio (x) = 0.51060 0.18077
# Poissons Ratio (y) = 0.38050 0.29717
# Poissons Ratio (z) = 0.21531 0.47496
#
# Static dielectric constant tensor:
#      x y z
#    x 3.436000 0.000000 0.000000 
#    y 0.000000 3.545920 0.000000 
#    z 0.000000 0.000000 3.388720 
# 
# 
# High freq. dielectric constant tensor:
#      x y z
#    x 1.727990 0.000000 0.000000 
#    y 0.000000 1.736820 0.000000 
#    z 0.000000 0.000000 1.734740 
# 
# From -- ./inp_files/7327.got.cif
#   From: 2010.03.12/outbox.cif.g09.slc.cpg/sg72_4_cif.got.tgz:7327.got - 2010.04.16 14:54:00.
