data_PCOD8294297
_publ_section_title
;
Structure prediction by ZEFSAII (Michael W. Deem and Ramdas Pophale) SiO2 
 PCOD8294297
Probable space group: I B A M
;
_chemical_formula_sum "Si O2"
_cell_formula_units_Z 80
_cell_length_a 11.033702
_cell_length_b 24.466940
_cell_length_c 14.103563
_cell_angle_alpha 90.000000
_cell_angle_beta 90.000000
_cell_angle_gamma 90.000000
_cell_volume 3807.410911
_symmetry_space_group_name_H-M "I B A M"
_symmetry_group_IT_number 72
_symmetry_cell_setting 'orthorhombic'
loop_
_space_group_symop_operation_xyz
x,y,z
-x,-y,z
x,-y,1/2-z
-x,y,1/2-z
-x,-y,-z
x,y,-z
-x,y,1/2+z
x,-y,1/2+z
1/2+x,1/2+y,1/2+z
1/2-x,1/2-y,1/2+z
1/2+x,1/2-y,-z
1/2-x,1/2+y,-z
1/2-x,1/2-y,1/2-z
1/2+x,1/2+y,1/2-z
1/2-x,1/2+y,z
1/2+x,1/2-y,z
loop_
_atom_site_type_symbol
_atom_site_label
_atom_site_fract_x
_atom_site_fract_y
_atom_site_fract_z
Si Si1 0.227314 0.911556 0.893095
Si Si2 0.031566 0.869236 0.648013
Si Si3 0.702671 0.720928 0.605268
Si Si4 0.638616 0.823806 0.273045
Si Si5 0.630924 0.523053 0.609150
O O1 0.305564 0.878978 0.816687
O O2 0.089550 0.889617 0.903372
O O3 0.225470 0.975708 0.858730
O O4 0.282279 0.907798 0.000000
O O5 0.088715 0.819314 0.590559
O O6 0.132524 0.918169 0.662241
O O7 0.000000 0.844538 0.750000
O O8 0.758227 0.731642 0.500000
O O9 0.655999 0.777523 0.648103
O O10 0.799741 0.692721 0.674103
O O11 0.500000 0.835126 0.250000
O O12 0.500000 0.500000 0.630883
O O13 0.651638 0.537056 0.500000
#
# Coordination Sequence:
#
# PCOD8294297 Si02
#       5
#    16  16  16  16  16
#     4  10  20  37  61  90 127 164 201 254 313 370
#     4  11  19  35  60  97 128 159 199 259 314 374
#     4  11  24  41  63  89 123 165 205 258 317 368
#     4  11  25  43  60  89 123 164 217 256 299 377
#     4   8  16  30  53  88 122 152 190 241 308 368
#
# _framework density 21.011654
#
# number of rings (size 3 to 8) (size 9 to 14) (size 15 to 20)
#    0.000    1.800    2.000    4.200    2.800    5.200 
#    0.000    0.000    0.000    2.400    0.000    4.200 
#    0.000    0.000    0.000    0.000    0.000    0.000 
#
# Total GULP energy -495652.252868 kJ/mol
# GULP energy per Si atom -12391.306322 kJ/mol
# Density = 2.096383 g / cm^3
# Si number density = 21.011654 Si / 1000 Ang^3
#
#
#
# Elastic Constant Matrix: (Units=GPa)
#
#
# Indices 1 2 3 4 5 6 
#
# 1 92.6514 39.8375 37.6951 0.0000 0.0000 0.0000
# 2 39.8375 98.5433 44.3086 -0.0002 0.0000 0.0000
# 3 37.6951 44.3086 126.2863 0.0005 0.0000 -0.0002
# 4 0.0000 -0.0002 0.0005 31.6119 0.0001 0.0000
# 5 0.0000 0.0000 0.0000 0.0001 16.0608 0.0000
# 6 0.0000 0.0000 -0.0002 0.0000 0.0000 22.7253
#
#
#
# Elastic Compliance Matrix: (Units=1/GPa)
#
#
# Indices 1 2 3 4 5 6 
#
# 1 0.013724 -0.004400 -0.002552 0.000000 0.000000 0.000000
# 2 -0.004400 0.013459 -0.003409 0.000000 0.000000 0.000000
# 3 -0.002552 -0.003409 0.009876 0.000000 0.000000 0.000000
# 4 0.000000 0.000000 0.000000 0.031634 0.000000 0.000000
# 5 0.000000 0.000000 0.000000 0.000000 0.062263 0.000000
# 6 0.000000 0.000000 0.000000 0.000000 0.000000 0.044004
#
#
# Mechanical properties :
#
#
# Convention : Reuss Voigt Hill
#
# Bulk Modulus (GPa) = 61.21386 62.35149 61.78267
# Shear Modulus (GPa) = 24.85964 27.12226 25.99095
#
# Velocity S-wave (km/s) = 3.44341 3.59670 3.52089
# Velocity P-wave (km/s) = 6.70865 6.85474 6.78209
#
# Compressibility (1/GPa) = 0.01633617
#
# Stress axis : x y z
#
# Youngs Moduli (GPa) = 72.86708 74.29705 101.25089
#
# Poissons Ratio (x) = 0.32693 0.25844
# Poissons Ratio (y) = 0.32064 0.34516
# Poissons Ratio (z) = 0.18599 0.25327
#
# Static dielectric constant tensor:
#      x y z
#    x 3.375730 0.000000 0.000000 
#    y 0.000000 4.188620 0.000000 
#    z 0.000000 0.000000 3.788360 
# 
# 
# High freq. dielectric constant tensor:
#      x y z
#    x 1.762250 0.000000 0.000000 
#    y 0.000000 1.836030 0.000000 
#    z 0.000000 0.000000 1.839090 
# 
# From -- ./inp_files/20196.got.cif
#   From: 2010.03.12/outbox.cif.g09.slc.cpg/sg72_11_cif.got.tgz:20196.got - 2010.04.16 14:54:00.
