data_PCOD8294497
_publ_section_title
;
Structure prediction by ZEFSAII (Michael W. Deem and Ramdas Pophale) SiO2 
 PCOD8294497
Probable space group: I B A M
;
_chemical_formula_sum "Si O2"
_cell_formula_units_Z 80
_cell_length_a 11.625540
_cell_length_b 25.963436
_cell_length_c 13.847613
_cell_angle_alpha 90.000000
_cell_angle_beta 90.000000
_cell_angle_gamma 90.000000
_cell_volume 4179.749158
_symmetry_space_group_name_H-M "I B A M"
_symmetry_group_IT_number 72
_symmetry_cell_setting 'orthorhombic'
loop_
_space_group_symop_operation_xyz
x,y,z
-x,-y,z
x,-y,1/2-z
-x,y,1/2-z
-x,-y,-z
x,y,-z
-x,y,1/2+z
x,-y,1/2+z
1/2+x,1/2+y,1/2+z
1/2-x,1/2-y,1/2+z
1/2+x,1/2-y,-z
1/2-x,1/2+y,-z
1/2-x,1/2-y,1/2-z
1/2+x,1/2+y,1/2-z
1/2-x,1/2+y,z
1/2+x,1/2-y,z
loop_
_atom_site_type_symbol
_atom_site_label
_atom_site_fract_x
_atom_site_fract_y
_atom_site_fract_z
Si Si1 0.312893 0.942857 0.235873
Si Si2 0.179453 0.844582 0.212570
Si Si3 0.895191 0.305175 0.609555
Si Si4 0.985052 0.410343 0.888998
Si Si5 0.046348 0.190554 0.110825
O O1 0.210266 0.905104 0.203533
O O2 0.365827 0.921674 0.335708
O O3 0.411987 0.945092 0.154142
O O4 0.262023 0.000000 0.250000
O O5 0.287377 0.809767 0.181282
O O6 0.148378 0.831883 0.323285
O O7 0.074215 0.834156 0.140879
O O8 0.848053 0.308682 0.500000
O O9 0.986672 0.350294 0.628881
O O10 0.961361 0.251876 0.627765
O O11 0.970261 0.424753 0.000000
O O12 0.074049 0.176738 0.000000
#
# Coordination Sequence:
#
# PCOD8294497 Si02
#       5
#    16  16  16  16  16
#     4  10  21  35  52  76 104 137 176 216 260 304
#     4  10  21  36  54  75 104 139 174 215 258 305
#     4   9  18  33  55  82 110 137 163 199 256 318
#     4   9  18  33  54  82 110 132 162 209 262 317
#     4  10  21  36  54  78 106 138 174 210 252 307
#
# _framework density 19.139904999999999
#
# number of rings (size 3 to 8) (size 9 to 14) (size 15 to 20)
#    0.000    2.400    0.000    2.400    0.000   11.200 
#    0.000    6.000    0.000    1.200    0.000    0.000 
#    0.000    0.000    0.000    0.000    0.000    0.000 
#
# Total GULP energy -496086.553764 kJ/mol
# GULP energy per Si atom -12402.163844 kJ/mol
# Density = 1.909634 g / cm^3
# Si number density = 19.139905 Si / 1000 Ang^3
#
#
#
# Elastic Constant Matrix: (Units=GPa)
#
#
# Indices 1 2 3 4 5 6 
#
# 1 82.6836 57.0984 48.7968 0.0000 0.0000 0.0000
# 2 57.0984 123.4977 31.7563 -0.0001 0.0000 0.0000
# 3 48.7968 31.7563 130.4540 -0.0005 0.0004 0.0000
# 4 0.0000 -0.0001 -0.0005 21.8690 0.0001 0.0000
# 5 0.0000 0.0000 0.0004 0.0001 24.1044 0.0000
# 6 0.0000 0.0000 0.0000 0.0000 0.0000 22.3847
#
#
#
# Elastic Compliance Matrix: (Units=1/GPa)
#
#
# Indices 1 2 3 4 5 6 
#
# 1 0.021382 -0.008352 -0.005965 0.000000 0.000000 0.000000
# 2 -0.008352 0.011900 0.000227 0.000000 0.000000 0.000000
# 3 -0.005965 0.000227 0.009841 0.000000 0.000000 0.000000
# 4 0.000000 0.000000 0.000000 0.045727 0.000000 0.000000
# 5 0.000000 0.000000 0.000000 0.000000 0.041486 0.000000
# 6 0.000000 0.000000 0.000000 0.000000 0.000000 0.044673
#
#
# Mechanical properties :
#
#
# Convention : Reuss Voigt Hill
#
# Bulk Modulus (GPa) = 66.91455 67.99314 67.45385
# Shear Modulus (GPa) = 24.01862 26.93721 25.47792
#
# Velocity S-wave (km/s) = 3.54630 3.75558 3.65244
# Velocity P-wave (km/s) = 7.19757 7.37613 7.28739
#
# Compressibility (1/GPa) = 0.01494443
#
# Stress axis : x y z
#
# Youngs Moduli (GPa) = 46.76761 84.03041 101.61115
#
# Poissons Ratio (x) = 0.70183 0.60611
# Poissons Ratio (y) = 0.39061 -0.02309
# Poissons Ratio (z) = 0.27897 -0.01909
#
# Static dielectric constant tensor:
#      x y z
#    x 3.202800 0.000000 0.000000 
#    y 0.000000 3.496480 0.000000 
#    z 0.000000 0.000000 3.682270 
# 
# 
# High freq. dielectric constant tensor:
#      x y z
#    x 1.717330 0.000000 0.000000 
#    y 0.000000 1.740340 0.000000 
#    z 0.000000 0.000000 1.757220 
# 
# From -- ./inp_files/20165.got.cif
#   From: 2010.03.12/outbox.cif.g09.slc.cpg/sg72_11_cif.got.tgz:20165.got - 2010.04.16 14:54:00.
