data_PCOD8294071
_publ_section_title
;
Structure prediction by ZEFSAII (Michael W. Deem and Ramdas Pophale) SiO2 
 PCOD8294071
Probable space group: I B A M
;
_chemical_formula_sum "Si O2"
_cell_formula_units_Z 116
_cell_length_a 21.610062
_cell_length_b 31.385541
_cell_length_c 9.018981
_cell_angle_alpha 90.000000
_cell_angle_beta 90.000000
_cell_angle_gamma 90.000000
_cell_volume 6117.065122
_symmetry_space_group_name_H-M "I B A M"
_symmetry_group_IT_number 72
_symmetry_cell_setting 'orthorhombic'
loop_
_space_group_symop_operation_xyz
x,y,z
-x,-y,z
x,-y,1/2-z
-x,y,1/2-z
-x,-y,-z
x,y,-z
-x,y,1/2+z
x,-y,1/2+z
1/2+x,1/2+y,1/2+z
1/2-x,1/2-y,1/2+z
1/2+x,1/2-y,-z
1/2-x,1/2+y,-z
1/2-x,1/2-y,1/2-z
1/2+x,1/2+y,1/2-z
1/2-x,1/2+y,z
1/2+x,1/2-y,z
loop_
_atom_site_type_symbol
_atom_site_label
_atom_site_fract_x
_atom_site_fract_y
_atom_site_fract_z
Si Si1 0.000000 0.000000 0.250000
Si Si2 0.725070 0.542570 0.324385
Si Si3 0.166711 0.220591 0.674323
Si Si4 0.303846 0.802506 0.827038
Si Si5 0.320103 0.898439 0.172422
Si Si6 0.063308 0.455734 0.824926
Si Si7 0.398454 0.562910 0.665302
Si Si8 0.562736 0.656127 0.174993
O O1 0.044147 0.030340 0.347162
O O2 0.753381 0.500000 0.250000
O O3 0.729395 0.538396 0.500000
O O4 0.764389 0.582668 0.269043
O O5 0.653567 0.546591 0.277848
O O6 0.162263 0.225714 0.500000
O O7 0.232722 0.201774 0.724348
O O8 0.154937 0.267086 0.744619
O O9 0.115821 0.187668 0.733500
O O10 0.328185 0.849177 0.783083
O O11 0.310639 0.794070 0.000000
O O12 0.384429 0.921187 0.209747
O O13 0.302032 0.903229 0.000000
O O14 0.083781 0.500000 0.750000
O O15 0.000000 0.439272 0.750000
O O16 0.053480 0.462491 0.000000
O O17 0.369879 0.567513 0.500000
O O18 0.421293 0.608322 0.726120
O O19 0.500000 0.671597 0.250000
O O20 0.554786 0.658403 0.000000
#
# Coordination Sequence:
#
# PCOD8294071 Si02
#       8
#     4  16  16  16  16  16  16  16
#     4  12  22  36  64  82 110 156 200 240 286 332
#     4  12  25  38  56  82 114 151 192 236 282 332
#     4   9  18  34  56  80 108 140 179 223 273 327
#     4   9  18  35  59  82 108 140 176 221 275 333
#     4  10  21  38  59  84 114 147 183 228 285 337
#     4  10  20  35  57  82 110 146 184 220 264 323
#     4  11  23  39  58  81 114 152 196 243 287 333
#     4  10  21  37  56  80 110 147 185 230 280 330
#
# _framework density 18.963342000000001
#
# number of rings (size 3 to 8) (size 9 to 14) (size 15 to 20)
#    0.000    1.793    1.379    3.517    0.000    6.621 
#    0.000    3.448    0.000    3.310    0.000    0.000 
#    0.000    0.000    0.000    0.000    0.000    0.000 
#
# Total GULP energy -719357.961414 kJ/mol
# GULP energy per Si atom -12402.723473 kJ/mol
# Density = 1.892018 g / cm^3
# Si number density = 18.963342 Si / 1000 Ang^3
#
#
#
# Elastic Constant Matrix: (Units=GPa)
#
#
# Indices 1 2 3 4 5 6 
#
# 1 98.2589 75.2330 38.2032 0.0000 0.0000 0.0000
# 2 75.2330 158.4820 45.0393 0.0000 0.0000 0.0000
# 3 38.2032 45.0393 77.2521 0.0000 0.0000 0.0000
# 4 0.0000 0.0000 0.0000 29.9223 0.0000 0.0000
# 5 0.0000 0.0000 0.0000 0.0000 26.5936 0.0000
# 6 0.0000 0.0000 0.0000 0.0000 0.0000 28.8668
#
#
#
# Elastic Compliance Matrix: (Units=1/GPa)
#
#
# Indices 1 2 3 4 5 6 
#
# 1 0.017196 -0.006887 -0.004488 0.000000 0.000000 0.000000
# 2 -0.006887 0.010322 -0.002612 0.000000 0.000000 0.000000
# 3 -0.004488 -0.002612 0.016687 0.000000 0.000000 0.000000
# 4 0.000000 0.000000 0.000000 0.033420 0.000000 0.000000
# 5 0.000000 0.000000 0.000000 0.000000 0.037603 0.000000
# 6 0.000000 0.000000 0.000000 0.000000 0.000000 0.034642
#
#
# Mechanical properties :
#
#
# Convention : Reuss Voigt Hill
#
# Bulk Modulus (GPa) = 61.61630 72.32711 66.97171
# Shear Modulus (GPa) = 27.28464 28.77771 28.03117
#
# Velocity S-wave (km/s) = 3.79728 3.89979 3.84888
# Velocity P-wave (km/s) = 7.19643 7.64860 7.42596
#
# Compressibility (1/GPa) = 0.01622947
#
# Stress axis : x y z
#
# Youngs Moduli (GPa) = 58.15418 96.88406 59.92763
#
# Poissons Ratio (x) = 0.66728 0.26897
# Poissons Ratio (y) = 0.40053 0.15651
# Poissons Ratio (z) = 0.26101 0.25303
#
# Static dielectric constant tensor:
#      x y z
#    x 3.425210 0.000000 0.000000 
#    y 0.000000 3.646070 0.000000 
#    z 0.000000 0.000000 3.341020 
# 
# 
# High freq. dielectric constant tensor:
#      x y z
#    x 1.730340 0.000000 0.000000 
#    y 0.000000 1.743230 0.000000 
#    z 0.000000 0.000000 1.731220 
# 
# From -- ./inp_files/7540.got.cif
#   From: 2010.03.12/outbox.cif.g09.slc.cpg/sg72_4_cif.got.tgz:7540.got - 2010.04.16 14:54:00.
