data_PCOD8294348
_publ_section_title
;
Structure prediction by ZEFSAII (Michael W. Deem and Ramdas Pophale) SiO2 
 PCOD8294348
Probable space group: I B A M
;
_chemical_formula_sum "Si O2"
_cell_formula_units_Z 68
_cell_length_a 15.161401
_cell_length_b 7.987111
_cell_length_c 27.813946
_cell_angle_alpha 90.000000
_cell_angle_beta 90.000000
_cell_angle_gamma 90.000000
_cell_volume 3368.151839
_symmetry_space_group_name_H-M "I B A M"
_symmetry_group_IT_number 72
_symmetry_cell_setting 'orthorhombic'
loop_
_space_group_symop_operation_xyz
x,y,z
-x,-y,z
x,-y,1/2-z
-x,y,1/2-z
-x,-y,-z
x,y,-z
-x,y,1/2+z
x,-y,1/2+z
1/2+x,1/2+y,1/2+z
1/2-x,1/2-y,1/2+z
1/2+x,1/2-y,-z
1/2-x,1/2+y,-z
1/2-x,1/2-y,1/2-z
1/2+x,1/2+y,1/2-z
1/2-x,1/2+y,z
1/2+x,1/2-y,z
loop_
_atom_site_type_symbol
_atom_site_label
_atom_site_fract_x
_atom_site_fract_y
_atom_site_fract_z
Si Si1 0.853025 0.304909 0.196558
Si Si2 0.000000 0.000000 0.076180
Si Si3 0.638862 0.542252 0.500000
Si Si4 0.070345 0.354265 0.599162
Si Si5 0.294730 0.500000 0.750000
Si Si6 0.500000 0.000000 0.750000
Si Si7 0.836454 0.657438 0.500000
O O1 0.853392 0.342615 0.139487
O O2 0.763670 0.384972 0.215705
O O3 0.854019 0.111084 0.213698
O O4 0.941502 0.384203 0.216651
O O5 0.920107 0.916255 0.046162
O O6 0.030467 0.834385 0.104528
O O7 0.731977 0.632639 0.500000
O O8 0.657453 0.350850 0.500000
O O9 0.114272 0.407186 0.548077
O O10 0.000000 0.500000 0.610997
#
# Coordination Sequence:
#
# PCOD8294348 Si02
#       7
#    16   8   8  16   8   4   8
#     4  10  21  41  63  93 121 165 207 265 329 388
#     4   9  22  40  58  87 130 162 212 261 318 373
#     4   9  20  40  57  86 123 169 214 267 308 369
#     4  11  23  41  63  93 129 172 214 269 322 387
#     4   9  22  42  64  87 130 156 208 277 324 390
#     4  10  20  38  60  88 120 152 212 254 316 388
#     4  10  23  36  62  94 125 174 220 256 321 384
#
# _framework density 20.189114
#
# number of rings (size 3 to 8) (size 9 to 14) (size 15 to 20)
#    0.000    2.118    1.176    1.059    3.294    6.118 
#    4.235    0.000    0.000    0.000    0.000    0.000 
#    0.000    0.000    0.000    0.000    0.000    0.000 
#
# Total GULP energy -421215.356672 kJ/mol
# GULP energy per Si atom -12388.686961 kJ/mol
# Density = 2.014316 g / cm^3
# Si number density = 20.189114 Si / 1000 Ang^3
#
#
#
# Elastic Constant Matrix: (Units=GPa)
#
#
# Indices 1 2 3 4 5 6 
#
# 1 93.5417 25.6513 38.4975 0.0000 0.0000 0.0000
# 2 25.6513 74.4403 39.5537 0.0000 0.0000 0.0000
# 3 38.4975 39.5537 139.5570 0.0000 0.0000 0.0000
# 4 0.0000 0.0000 0.0000 17.9724 0.0000 0.0000
# 5 0.0000 0.0000 0.0000 0.0000 3.1513 0.0000
# 6 0.0000 0.0000 0.0000 0.0000 0.0000 3479.7319
#
#
#
# Elastic Compliance Matrix: (Units=1/GPa)
#
#
# Indices 1 2 3 4 5 6 
#
# 1 0.012581 -0.002933 -0.002639 0.000000 0.000000 0.000000
# 2 -0.002933 0.016499 -0.003867 0.000000 0.000000 0.000000
# 3 -0.002639 -0.003867 0.008990 0.000000 0.000000 0.000000
# 4 0.000000 0.000000 0.000000 0.055641 0.000000 0.000000
# 5 0.000000 0.000000 0.000000 0.000000 0.317330 0.000000
# 6 0.000000 0.000000 0.000000 0.000000 0.000000 0.000287
#
#
# Mechanical properties :
#
#
# Convention : Reuss Voigt Hill
#
# Bulk Modulus (GPa) = 52.10788 57.21601 54.66194
# Shear Modulus (GPa) = 11.45204 713.76021 362.60613
#
# Velocity S-wave (km/s) = 2.38426 18.82298 13.41621
# Velocity P-wave (km/s) = 5.78321 22.37873 16.34401
#
# Compressibility (1/GPa) = 0.01919096
#
# Stress axis : x y z
#
# Youngs Moduli (GPa) = 79.48571 60.60960 111.23930
#
# Poissons Ratio (x) = 0.17776 0.29359
# Poissons Ratio (y) = 0.23312 0.43018
# Poissons Ratio (z) = 0.20978 0.23439
#
# Static dielectric constant tensor:
#      x y z
#    x 3.413830 0.000000 0.000000 
#    y 0.000000 3.979070 0.000000 
#    z 0.000000 0.000000 3.455930 
# 
# 
# High freq. dielectric constant tensor:
#      x y z
#    x 1.786090 0.000000 0.000000 
#    y 0.000000 1.796420 0.000000 
#    z 0.000000 0.000000 1.787160 
# 
# From -- ./inp_files/47005.got.cif
#   From: 2010.03.12/outbox.cif.g09.slc.cpg/sg72_24_cif.got.tgz:47005.got - 2010.04.16 14:54:00.
