data_PCOD8294398
_publ_section_title
;
Structure prediction by ZEFSAII (Michael W. Deem and Ramdas Pophale) SiO2 
 PCOD8294398
Probable space group: I B A M
;
_chemical_formula_sum "Si O2"
_cell_formula_units_Z 112
_cell_length_a 29.121380
_cell_length_b 13.573709
_cell_length_c 14.619704
_cell_angle_alpha 90.000000
_cell_angle_beta 90.000000
_cell_angle_gamma 90.000000
_cell_volume 5778.951710
_symmetry_space_group_name_H-M "I B A M"
_symmetry_group_IT_number 72
_symmetry_cell_setting 'orthorhombic'
loop_
_space_group_symop_operation_xyz
x,y,z
-x,-y,z
x,-y,1/2-z
-x,y,1/2-z
-x,-y,-z
x,y,-z
-x,y,1/2+z
x,-y,1/2+z
1/2+x,1/2+y,1/2+z
1/2-x,1/2-y,1/2+z
1/2+x,1/2-y,-z
1/2-x,1/2+y,-z
1/2-x,1/2-y,1/2-z
1/2+x,1/2+y,1/2-z
1/2-x,1/2+y,z
1/2+x,1/2-y,z
loop_
_atom_site_type_symbol
_atom_site_label
_atom_site_fract_x
_atom_site_fract_y
_atom_site_fract_z
Si Si1 0.818066 0.469457 0.844654
Si Si2 0.554315 0.851148 0.249083
Si Si3 0.112572 0.837484 0.248483
Si Si4 0.628535 0.496443 0.108871
Si Si5 0.772920 0.059567 0.898377
Si Si6 0.295358 0.248412 0.809848
Si Si7 0.587042 0.996973 0.601925
O O1 0.842779 0.500000 0.750000
O O2 0.772157 0.535695 0.840730
O O3 0.804027 0.356176 0.856824
O O4 0.857648 0.498431 0.915978
O O5 0.500000 0.853890 0.250000
O O6 0.570896 0.738767 0.245214
O O7 0.572290 0.899738 0.342993
O O8 0.571611 0.906521 0.158054
O O9 0.107910 0.899850 0.342553
O O10 0.160744 0.778723 0.250885
O O11 0.108154 0.906614 0.158474
O O12 0.683386 0.492590 0.128842
O O13 0.617502 0.498909 0.000000
O O14 0.787724 0.173166 0.890644
O O15 0.757720 0.034748 0.000000
O O16 0.250000 0.250000 0.750000
O O17 0.564785 0.995551 0.500000
#
# Coordination Sequence:
#
# PCOD8294398 Si02
#       7
#    16  16  16  16  16  16  16
#     4  12  20  36  58  83 120 156 197 245 289 342
#     4  11  24  43  64  90 120 154 197 246 305 364
#     4  10  20  39  60  87 118 155 197 244 301 354
#     4   9  20  38  61  87 120 159 201 242 292 354
#     4  10  22  35  51  82 118 157 199 239 284 343
#     4  11  20  33  58  81 112 158 199 238 288 348
#     4  11  23  41  63  88 120 157 200 249 296 353
#
# _framework density 19.380676000000001
#
# number of rings (size 3 to 8) (size 9 to 14) (size 15 to 20)
#    0.000    1.429    4.286    2.143    2.000    3.429 
#    0.000    2.143    0.000    0.857    0.000    0.000 
#    0.000    0.000    0.000    0.000    0.000    0.000 
#
# Total GULP energy -694165.631290 kJ/mol
# GULP energy per Si atom -12395.814844 kJ/mol
# Density = 1.933657 g / cm^3
# Si number density = 19.380676 Si / 1000 Ang^3
#
#
#
# Elastic Constant Matrix: (Units=GPa)
#
#
# Indices 1 2 3 4 5 6 
#
# 1 85.8821 55.7866 34.4871 0.0000 0.0000 0.0000
# 2 55.7866 112.3761 35.0131 0.0000 0.0000 0.0000
# 3 34.4871 35.0131 123.0103 0.0000 0.0000 0.0000
# 4 0.0000 0.0000 0.0000 15.3545 0.0000 0.0000
# 5 0.0000 0.0000 0.0000 0.0000 9.9115 0.0000
# 6 0.0000 0.0000 0.0000 0.0000 0.0000 24.4555
#
#
#
# Elastic Compliance Matrix: (Units=1/GPa)
#
#
# Indices 1 2 3 4 5 6 
#
# 1 0.017993 -0.008077 -0.002746 0.000000 0.000000 0.000000
# 2 -0.008077 0.013390 -0.001547 0.000000 0.000000 0.000000
# 3 -0.002746 -0.001547 0.009339 0.000000 0.000000 0.000000
# 4 0.000000 0.000000 0.000000 0.065128 0.000000 0.000000
# 5 0.000000 0.000000 0.000000 0.000000 0.100893 0.000000
# 6 0.000000 0.000000 0.000000 0.000000 0.000000 0.040891
#
#
# Mechanical properties :
#
#
# Convention : Reuss Voigt Hill
#
# Bulk Modulus (GPa) = 62.56227 63.53799 63.05013
# Shear Modulus (GPa) = 18.00509 23.00976 20.50742
#
# Velocity S-wave (km/s) = 3.05129 3.44939 3.25643
# Velocity P-wave (km/s) = 6.69064 6.97995 6.83683
#
# Compressibility (1/GPa) = 0.01598407
#
# Stress axis : x y z
#
# Youngs Moduli (GPa) = 55.57797 74.68181 107.07269
#
# Poissons Ratio (x) = 0.60318 0.29397
# Poissons Ratio (y) = 0.44888 0.16564
# Poissons Ratio (z) = 0.15259 0.11553
#
# Static dielectric constant tensor:
#      x y z
#    x 3.403990 0.000000 0.000000 
#    y 0.000000 3.696000 0.000000 
#    z 0.000000 0.000000 3.463660 
# 
# 
# High freq. dielectric constant tensor:
#      x y z
#    x 1.743940 0.000000 0.000000 
#    y 0.000000 1.755270 0.000000 
#    z 0.000000 0.000000 1.750310 
# 
# From -- ./inp_files/26378.got.cif
#   From: 2010.03.12/outbox.cif.g09.slc.cpg/sg72_14_cif.got.tgz:26378.got - 2010.04.16 14:54:00.
