data_PCOD8294145
_publ_section_title
;
Structure prediction by ZEFSAII (Michael W. Deem and Ramdas Pophale) SiO2 
 PCOD8294145
Probable space group: I B A M
;
_chemical_formula_sum "Si O2"
_cell_formula_units_Z 96
_cell_length_a 19.790184
_cell_length_b 30.803863
_cell_length_c 8.721928
_cell_angle_alpha 90.000000
_cell_angle_beta 90.000000
_cell_angle_gamma 90.000000
_cell_volume 5317.010433
_symmetry_space_group_name_H-M "I B A M"
_symmetry_group_IT_number 72
_symmetry_cell_setting 'orthorhombic'
loop_
_space_group_symop_operation_xyz
x,y,z
-x,-y,z
x,-y,1/2-z
-x,y,1/2-z
-x,-y,-z
x,y,-z
-x,y,1/2+z
x,-y,1/2+z
1/2+x,1/2+y,1/2+z
1/2-x,1/2-y,1/2+z
1/2+x,1/2-y,-z
1/2-x,1/2+y,-z
1/2-x,1/2-y,1/2-z
1/2+x,1/2+y,1/2-z
1/2-x,1/2+y,z
1/2+x,1/2-y,z
loop_
_atom_site_type_symbol
_atom_site_label
_atom_site_fract_x
_atom_site_fract_y
_atom_site_fract_z
Si Si1 0.166165 0.958289 0.833030
Si Si2 0.179454 0.135614 0.317791
Si Si3 0.427895 0.799870 0.818289
Si Si4 0.824051 0.633418 0.680750
Si Si5 0.173904 0.457170 0.171105
Si Si6 0.428748 0.291975 0.181064
O O1 0.150199 0.911074 0.758551
O O2 0.246323 0.963207 0.840624
O O3 0.133674 0.000000 0.750000
O O4 0.133239 0.959360 0.000000
O O5 0.194283 0.132945 0.500000
O O6 0.248559 0.146073 0.230720
O O7 0.126272 0.172277 0.274037
O O8 0.500000 0.813546 0.750000
O O9 0.373395 0.834849 0.769915
O O10 0.404968 0.753261 0.753601
O O11 0.433431 0.797196 0.000000
O O12 0.832207 0.639392 0.500000
O O13 0.843965 0.584497 0.726557
O O14 0.141940 0.500000 0.250000
O O15 0.143519 0.451628 0.000000
O O16 0.500000 0.307202 0.250000
O O17 0.435970 0.286352 0.000000
#
# Coordination Sequence:
#
# PCOD8294145 Si02
#       6
#    16  16  16  16  16  16
#     4   8  14  25  42  66  96 129 164 201 244 292
#     4   9  19  34  51  74 105 137 169 211 259 305
#     4  11  22  38  57  76 101 133 170 210 254 308
#     4  11  21  33  52  79 107 136 172 213 257 302
#     4   9  16  28  46  71 103 137 171 208 251 299
#     4  10  20  36  56  76 100 132 171 212 258 312
#
# _framework density 18.055257999999998
#
# number of rings (size 3 to 8) (size 9 to 14) (size 15 to 20)
#    0.000    2.333    0.000    6.000    0.000    6.000 
#    0.000    0.000    0.000    1.000    0.000    7.000 
#    0.000    0.000    0.000    0.000    0.000    0.000 
#
# Total GULP energy -595030.678746 kJ/mol
# GULP energy per Si atom -12396.472474 kJ/mol
# Density = 1.801416 g / cm^3
# Si number density = 18.055258 Si / 1000 Ang^3
#
#
#
# Elastic Constant Matrix: (Units=GPa)
#
#
# Indices 1 2 3 4 5 6 
#
# 1 63.8937 70.7443 33.4172 0.0000 0.0001 0.0000
# 2 70.7443 144.8567 47.5390 0.0000 0.0000 0.0000
# 3 33.4172 47.5390 102.8305 -0.0001 0.0002 0.0002
# 4 0.0000 0.0000 -0.0001 31.9723 0.0000 0.0000
# 5 0.0001 0.0000 0.0002 0.0000 22.9414 0.0000
# 6 0.0000 0.0000 0.0002 0.0000 0.0000 -8.2652
#
#
#
# Elastic Compliance Matrix: (Units=1/GPa)
#
#
# Indices 1 2 3 4 5 6 
#
# 1 0.035523 -0.015985 -0.004154 0.000000 0.000000 0.000000
# 2 -0.015985 0.015331 -0.001893 0.000000 0.000000 0.000000
# 3 -0.004154 -0.001893 0.011950 0.000000 0.000000 0.000000
# 4 0.000000 0.000000 0.000000 0.031277 0.000000 0.000000
# 5 0.000000 0.000000 0.000000 0.000000 0.043589 0.000000
# 6 0.000000 0.000000 0.000000 0.000000 0.000000 -0.120989
#
#
# Mechanical properties :
#
#
# Convention : Reuss Voigt Hill
#
# Bulk Modulus (GPa) = 53.36280 68.33132 60.84706
# Shear Modulus (GPa) = 74.63645 19.98839 47.31242
#
# Velocity S-wave (km/s) = 6.43642 3.33087 5.12456
# Velocity P-wave (km/s) = 9.21174 7.26091 8.29388
#
# Compressibility (1/GPa) = 0.01873965
#
# Stress axis : x y z
#
# Youngs Moduli (GPa) = 28.15117 65.22594 83.68343
#
# Poissons Ratio (x) = 1.04264 0.34761
# Poissons Ratio (y) = 0.45000 0.15841
# Poissons Ratio (z) = 0.11694 0.12347
#
# Static dielectric constant tensor:
#      x y z
#    x 2.959690 0.000000 0.000000 
#    y 0.000000 3.628030 0.000000 
#    z 0.000000 0.000000 3.520000 
# 
# 
# High freq. dielectric constant tensor:
#      x y z
#    x 1.653350 0.000000 0.000000 
#    y 0.000000 1.717130 0.000000 
#    z 0.000000 0.000000 1.710370 
# 
# From -- ./inp_files/6014.got.cif
#   From: 2010.03.12/outbox.cif.g09.slc.cpg/sg72_4_cif.got.tgz:6014.got - 2010.04.16 14:54:00.
