data_PCOD8294124
_publ_section_title
;
Structure prediction by ZEFSAII (Michael W. Deem and Ramdas Pophale) SiO2 
 PCOD8294124
Probable space group: I B A M
;
_chemical_formula_sum "Si O2"
_cell_formula_units_Z 72
_cell_length_a 21.648248
_cell_length_b 11.182739
_cell_length_c 15.128081
_cell_angle_alpha 90.000000
_cell_angle_beta 90.000000
_cell_angle_gamma 90.000000
_cell_volume 3662.307315
_symmetry_space_group_name_H-M "I B A M"
_symmetry_group_IT_number 72
_symmetry_cell_setting 'orthorhombic'
loop_
_space_group_symop_operation_xyz
x,y,z
-x,-y,z
x,-y,1/2-z
-x,y,1/2-z
-x,-y,-z
x,y,-z
-x,y,1/2+z
x,-y,1/2+z
1/2+x,1/2+y,1/2+z
1/2-x,1/2-y,1/2+z
1/2+x,1/2-y,-z
1/2-x,1/2+y,-z
1/2-x,1/2-y,1/2-z
1/2+x,1/2+y,1/2-z
1/2-x,1/2+y,z
1/2+x,1/2-y,z
loop_
_atom_site_type_symbol
_atom_site_label
_atom_site_fract_x
_atom_site_fract_y
_atom_site_fract_z
Si Si1 0.849996 0.497671 0.649716
Si Si2 0.138916 0.885292 0.000000
Si Si3 0.221693 0.623912 0.500000
Si Si4 0.920913 0.736565 0.352148
Si Si5 0.870646 0.160636 0.500000
Si Si6 0.936726 0.278226 0.652695
O O1 0.824458 0.500000 0.750000
O O2 0.794508 0.455907 0.586228
O O3 0.876006 0.626935 0.622724
O O4 0.907097 0.407823 0.638877
O O5 0.100929 0.846563 0.087200
O O6 0.207843 0.832805 0.000000
O O7 0.151463 0.025747 0.000000
O O8 0.186655 0.749629 0.500000
O O9 0.918253 0.771983 0.249123
O O10 0.991661 0.701772 0.369034
O O11 0.911686 0.179504 0.586411
#
# Coordination Sequence:
#
# PCOD8294124 Si02
#       6
#    16   8   8  16   8  16
#     4   9  18  37  63  92 114 149 191 248 299 336
#     4  12  26  38  55  84 114 166 197 236 279 352
#     4  10  23  41  57  80 119 158 198 247 280 336
#     4  10  20  35  62  92 118 147 195 236 299 352
#     4  10  23  41  55  78 119 154 200 236 292 340
#     4   9  19  38  61  90 120 148 183 248 297 352
#
# _framework density 19.659738000000001
#
# number of rings (size 3 to 8) (size 9 to 14) (size 15 to 20)
#    0.000    2.222    0.000    2.000    3.111    5.333 
#    4.000   10.000    0.000    0.000    0.000    0.000 
#    0.000    0.000    0.000    0.000    0.000    0.000 
#
# Total GULP energy -446373.647595 kJ/mol
# GULP energy per Si atom -12399.267989 kJ/mol
# Density = 1.961499 g / cm^3
# Si number density = 19.659738 Si / 1000 Ang^3
#
#
#
# Elastic Constant Matrix: (Units=GPa)
#
#
# Indices 1 2 3 4 5 6 
#
# 1 81.4902 10.4816 51.4240 0.0000 0.0000 0.0000
# 2 10.4816 86.6834 44.0747 0.0000 0.0000 0.0000
# 3 51.4240 44.0747 124.5736 0.0000 0.0000 0.0000
# 4 0.0000 0.0000 0.0000 29.7300 0.0000 0.0000
# 5 0.0000 0.0000 0.0000 0.0000 19.0091 0.0000
# 6 0.0000 0.0000 0.0000 0.0000 0.0000 20.9345
#
#
#
# Elastic Compliance Matrix: (Units=1/GPa)
#
#
# Indices 1 2 3 4 5 6 
#
# 1 0.016828 0.001826 -0.007592 0.000000 0.000000 0.000000
# 2 0.001826 0.014265 -0.005801 0.000000 0.000000 0.000000
# 3 -0.007592 -0.005801 0.013214 0.000000 0.000000 0.000000
# 4 0.000000 0.000000 0.000000 0.033636 0.000000 0.000000
# 5 0.000000 0.000000 0.000000 0.000000 0.052606 0.000000
# 6 0.000000 0.000000 0.000000 0.000000 0.000000 0.047768
#
#
# Mechanical properties :
#
#
# Convention : Reuss Voigt Hill
#
# Bulk Modulus (GPa) = 47.23296 56.07865 51.65581
# Shear Modulus (GPa) = 23.97981 26.38585 25.18283
#
# Velocity S-wave (km/s) = 3.49627 3.66748 3.58290
# Velocity P-wave (km/s) = 6.35420 6.82059 6.59152
#
# Compressibility (1/GPa) = 0.02117165
#
# Stress axis : x y z
#
# Youngs Moduli (GPa) = 59.42566 70.10251 75.67843
#
# Poissons Ratio (x) = -0.12798 0.57458
# Poissons Ratio (y) = -0.10849 0.43898
# Poissons Ratio (z) = 0.45118 0.40664
#
# Static dielectric constant tensor:
#      x y z
#    x 3.415190 0.000000 0.000000 
#    y 0.000000 3.342270 0.000000 
#    z 0.000000 0.000000 3.837800 
# 
# 
# High freq. dielectric constant tensor:
#      x y z
#    x 1.757910 0.000000 0.000000 
#    y 0.000000 1.753530 0.000000 
#    z 0.000000 0.000000 1.781010 
# 
# From -- ./inp_files/24866.got.cif
#   From: 2010.03.12/outbox.cif.g09.slc.cpg/sg72_13_cif.got.tgz:24866.got - 2010.04.16 14:54:00.
