data_PCOD8294707
_publ_section_title
;
Structure prediction by ZEFSAII (Michael W. Deem and Ramdas Pophale) SiO2 
 PCOD8294707
Probable space group: I B A M
;
_chemical_formula_sum "Si O2"
_cell_formula_units_Z 112
_cell_length_a 13.980641
_cell_length_b 25.746496
_cell_length_c 13.470985
_cell_angle_alpha 90.000000
_cell_angle_beta 90.000000
_cell_angle_gamma 90.000000
_cell_volume 4848.914965
_symmetry_space_group_name_H-M "I B A M"
_symmetry_group_IT_number 72
_symmetry_cell_setting 'orthorhombic'
loop_
_space_group_symop_operation_xyz
x,y,z
-x,-y,z
x,-y,1/2-z
-x,y,1/2-z
-x,-y,-z
x,y,-z
-x,y,1/2+z
x,-y,1/2+z
1/2+x,1/2+y,1/2+z
1/2-x,1/2-y,1/2+z
1/2+x,1/2-y,-z
1/2-x,1/2+y,-z
1/2-x,1/2-y,1/2-z
1/2+x,1/2+y,1/2-z
1/2-x,1/2+y,z
1/2+x,1/2-y,z
loop_
_atom_site_type_symbol
_atom_site_label
_atom_site_fract_x
_atom_site_fract_y
_atom_site_fract_z
Si Si1 0.847895 0.584312 0.116318
Si Si2 0.028968 0.843745 0.112738
Si Si3 0.769985 0.475387 0.118456
Si Si4 0.058971 0.951709 0.382410
Si Si5 0.660630 0.177638 0.254270
Si Si6 0.935242 0.399505 0.115331
Si Si7 0.364775 0.292495 0.291985
O O1 0.790217 0.534007 0.158093
O O2 0.812040 0.636891 0.167770
O O3 0.960952 0.576713 0.138492
O O4 0.828328 0.590700 0.000000
O O5 0.105389 0.818305 0.186539
O O6 0.001165 0.901410 0.150193
O O7 0.930089 0.811726 0.117694
O O8 0.068542 0.843310 0.000000
O O9 0.668098 0.454179 0.158372
O O10 0.853920 0.437904 0.158369
O O11 0.775308 0.476676 0.000000
O O12 0.065647 0.954132 0.500000
O O13 0.000000 0.000000 0.339068
O O14 0.579854 0.154965 0.328068
O O15 0.620557 0.230702 0.209094
O O16 0.756561 0.191125 0.315863
O O17 0.921923 0.388668 0.000000
#
# Coordination Sequence:
#
# PCOD8294707 Si02
#       7
#    16  16  16  16  16  16  16
#     4  10  22  37  62  94 127 166 209 258 319 383
#     4  10  22  42  68  91 124 167 211 262 321 379
#     4   9  18  35  58  90 130 162 203 260 312 381
#     4   9  18  33  60  94 124 160 203 253 313 378
#     4  11  24  42  61  88 129 166 211 271 316 373
#     4  10  21  38  63  90 122 166 212 254 317 382
#     4  10  25  43  61  90 126 165 214 269 317 369
#
# _framework density 23.097950999999998
#
# number of rings (size 3 to 8) (size 9 to 14) (size 15 to 20)
#    0.000    2.143    0.000    1.714    6.000    5.714 
#    0.000    5.714    0.000    0.000    0.000    0.000 
#    0.000    0.000    0.000    0.000    0.000    0.000 
#
# Total GULP energy -694400.203447 kJ/mol
# GULP energy per Si atom -12400.003633 kJ/mol
# Density = 2.304538 g / cm^3
# Si number density = 23.097951 Si / 1000 Ang^3
#
#
#
# Elastic Constant Matrix: (Units=GPa)
#
#
# Indices 1 2 3 4 5 6 
#
# 1 60.2196 18.9018 -4.9366 0.0000 0.0000 0.0000
# 2 18.9018 157.8360 10.0976 -0.0001 0.0000 0.0000
# 3 -4.9366 10.0976 31.2028 0.0001 0.0000 0.0001
# 4 0.0000 -0.0001 0.0001 27.7698 0.0000 0.0000
# 5 0.0000 0.0000 0.0000 0.0000 28.6963 0.0000
# 6 0.0000 0.0000 0.0001 0.0000 0.0000 36.2230
#
#
#
# Elastic Compliance Matrix: (Units=1/GPa)
#
#
# Indices 1 2 3 4 5 6 
#
# 1 0.017630 -0.002338 0.003546 0.000000 0.000000 0.000000
# 2 -0.002338 0.006780 -0.002564 0.000000 0.000000 0.000000
# 3 0.003546 -0.002564 0.033439 0.000000 0.000000 0.000000
# 4 0.000000 0.000000 0.000000 0.036010 0.000000 0.000000
# 5 0.000000 0.000000 0.000000 0.000000 0.034848 0.000000
# 6 0.000000 0.000000 0.000000 0.000000 0.000000 0.027607
#
#
# Mechanical properties :
#
#
# Convention : Reuss Voigt Hill
#
# Bulk Modulus (GPa) = 18.13662 33.04266 25.58964
# Shear Modulus (GPa) = 28.18403 33.55087 30.86745
#
# Velocity S-wave (km/s) = 3.49692 3.81536 3.65961
# Velocity P-wave (km/s) = 4.91668 5.80912 5.38143
#
# Compressibility (1/GPa) = 0.05513707
#
# Stress axis : x y z
#
# Youngs Moduli (GPa) = 56.71989 147.49842 29.90511
#
# Poissons Ratio (x) = 0.34488 -0.10604
# Poissons Ratio (y) = 0.13262 0.07667
# Poissons Ratio (z) = -0.20113 0.37818
#
# Static dielectric constant tensor:
#      x y z
#    x 4.192150 0.000000 0.000000 
#    y 0.000000 4.304920 0.000000 
#    z 0.000000 0.000000 3.950300 
# 
# 
# High freq. dielectric constant tensor:
#      x y z
#    x 1.916700 0.000000 0.000000 
#    y 0.000000 1.915850 0.000000 
#    z 0.000000 0.000000 1.909630 
# 
# From -- ./inp_files/22259.got.cif
#   From: 2010.03.12/outbox.cif.g09.slc.cpg/sg72_12_cif.got.tgz:22259.got - 2010.04.16 14:54:00.
