data_PCOD8294008
_publ_section_title
;
Structure prediction by ZEFSAII (Michael W. Deem and Ramdas Pophale) SiO2 
 PCOD8294008
Probable space group: I B A M
;
_chemical_formula_sum "Si O2"
_cell_formula_units_Z 80
_cell_length_a 12.647273
_cell_length_b 16.846786
_cell_length_c 20.511883
_cell_angle_alpha 90.000000
_cell_angle_beta 90.000000
_cell_angle_gamma 90.000000
_cell_volume 4370.382847
_symmetry_space_group_name_H-M "I B A M"
_symmetry_group_IT_number 72
_symmetry_cell_setting 'orthorhombic'
loop_
_space_group_symop_operation_xyz
x,y,z
-x,-y,z
x,-y,1/2-z
-x,y,1/2-z
-x,-y,-z
x,y,-z
-x,y,1/2+z
x,-y,1/2+z
1/2+x,1/2+y,1/2+z
1/2-x,1/2-y,1/2+z
1/2+x,1/2-y,-z
1/2-x,1/2+y,-z
1/2-x,1/2-y,1/2-z
1/2+x,1/2+y,1/2-z
1/2-x,1/2+y,z
1/2+x,1/2-y,z
loop_
_atom_site_type_symbol
_atom_site_label
_atom_site_fract_x
_atom_site_fract_y
_atom_site_fract_z
Si Si1 0.652961 0.000000 0.750000
Si Si2 0.735546 0.465517 0.000000
Si Si3 0.187863 0.149343 0.500000
Si Si4 0.682364 0.103964 0.633740
Si Si5 0.688259 0.247847 0.896202
Si Si6 0.562072 0.339406 0.000000
Si Si7 0.461205 0.858409 0.184517
O O1 0.719396 0.050365 0.696129
O O2 0.581372 0.056366 0.794055
O O3 0.729825 0.559905 0.000000
O O4 0.798024 0.438088 0.064466
O O5 0.619708 0.425164 0.000000
O O6 0.229455 0.195652 0.562793
O O7 0.061985 0.147426 0.500000
O O8 0.747348 0.184819 0.641330
O O9 0.558008 0.125571 0.635310
O O10 0.595855 0.288562 0.937675
O O11 0.633485 0.190903 0.845150
O O12 0.500000 0.812678 0.250000
#
# Coordination Sequence:
#
# PCOD8294008 Si02
#       7
#     8   8   8  16  16   8  16
#     4  10  21  36  54  76 109 146 177 218 278 320
#     4  10  21  35  58  83 106 143 184 221 272 321
#     4  11  20  34  56  81 110 142 178 222 269 328
#     4  10  20  37  56  79 111 141 179 227 265 322
#     4  10  21  34  55  82 105 140 184 217 268 325
#     4   9  20  37  52  78 112 139 170 223 277 317
#     4  10  20  35  53  77 109 143 176 223 275 318
#
# _framework density 18.305032000000001
#
# number of rings (size 3 to 8) (size 9 to 14) (size 15 to 20)
#    0.000    2.000    0.000    6.000    0.000    4.800 
#    0.000    5.000    0.000    0.000    0.000    7.000 
#    0.000    0.000    0.000    0.000    0.000    0.000 
#
# Total GULP energy -495805.503637 kJ/mol
# GULP energy per Si atom -12395.137591 kJ/mol
# Density = 1.826337 g / cm^3
# Si number density = 18.305032 Si / 1000 Ang^3
#
#
#
# Elastic Constant Matrix: (Units=GPa)
#
#
# Indices 1 2 3 4 5 6 
#
# 1 116.8260 63.9078 74.2395 0.0000 0.0000 0.0000
# 2 63.9078 137.0573 71.2194 0.0000 0.0000 0.0000
# 3 74.2395 71.2194 127.0750 0.0000 0.0000 0.0000
# 4 0.0000 0.0000 0.0000 36.7504 0.0000 0.0000
# 5 0.0000 0.0000 0.0000 0.0000 17.6040 0.0000
# 6 0.0000 0.0000 0.0000 0.0000 0.0000 24.6869
#
#
#
# Elastic Compliance Matrix: (Units=1/GPa)
#
#
# Indices 1 2 3 4 5 6 
#
# 1 0.014634 -0.003359 -0.006667 0.000000 0.000000 0.000000
# 2 -0.003359 0.011065 -0.004239 0.000000 0.000000 0.000000
# 3 -0.006667 -0.004239 0.014140 0.000000 0.000000 0.000000
# 4 0.000000 0.000000 0.000000 0.027211 0.000000 0.000000
# 5 0.000000 0.000000 0.000000 0.000000 0.056805 0.000000
# 6 0.000000 0.000000 0.000000 0.000000 0.000000 0.040507
#
#
# Mechanical properties :
#
#
# Convention : Reuss Voigt Hill
#
# Bulk Modulus (GPa) = 88.42390 88.85461 88.63925
# Shear Modulus (GPa) = 25.42437 27.24771 26.33604
#
# Velocity S-wave (km/s) = 3.73088 3.86234 3.79718
# Velocity P-wave (km/s) = 8.18351 8.27869 8.23124
#
# Compressibility (1/GPa) = 0.01130916
#
# Stress axis : x y z
#
# Youngs Moduli (GPa) = 68.33467 90.37208 70.72198
#
# Poissons Ratio (x) = 0.30359 0.47148
# Poissons Ratio (y) = 0.22956 0.29979
# Poissons Ratio (z) = 0.45556 0.38309
#
# Static dielectric constant tensor:
#      x y z
#    x 3.236440 0.000000 0.000000 
#    y 0.000000 3.515810 0.000000 
#    z 0.000000 0.000000 3.602760 
# 
# 
# High freq. dielectric constant tensor:
#      x y z
#    x 1.698350 0.000000 0.000000 
#    y 0.000000 1.722480 0.000000 
#    z 0.000000 0.000000 1.714760 
# 
# From -- ./inp_files/36841.got.cif
#   From: 2010.03.12/outbox.cif.g09.slc.cpg/sg72_19_cif.got.tgz:36841.got - 2010.04.16 14:54:00.
