data_PCOD8294526
_publ_section_title
;
Structure prediction by ZEFSAII (Michael W. Deem and Ramdas Pophale) SiO2 
 PCOD8294526
Probable space group: I B A M
;
_chemical_formula_sum "Si O2"
_cell_formula_units_Z 72
_cell_length_a 24.943007
_cell_length_b 4.908333
_cell_length_c 27.491467
_cell_angle_alpha 90.000000
_cell_angle_beta 90.000000
_cell_angle_gamma 90.000000
_cell_volume 3365.741387
_symmetry_space_group_name_H-M "I B A M"
_symmetry_group_IT_number 72
_symmetry_cell_setting 'orthorhombic'
loop_
_space_group_symop_operation_xyz
x,y,z
-x,-y,z
x,-y,1/2-z
-x,y,1/2-z
-x,-y,-z
x,y,-z
-x,y,1/2+z
x,-y,1/2+z
1/2+x,1/2+y,1/2+z
1/2-x,1/2-y,1/2+z
1/2+x,1/2-y,-z
1/2-x,1/2+y,-z
1/2-x,1/2-y,1/2-z
1/2+x,1/2+y,1/2-z
1/2-x,1/2+y,z
1/2+x,1/2-y,z
loop_
_atom_site_type_symbol
_atom_site_label
_atom_site_fract_x
_atom_site_fract_y
_atom_site_fract_z
Si Si1 0.963208 0.247144 0.446677
Si Si2 0.395272 0.907908 0.855885
Si Si3 0.287015 0.930905 0.395737
Si Si4 0.715911 0.044353 0.000000
Si Si5 0.441119 0.427604 0.806407
O O1 0.938173 0.164529 0.500000
O O2 0.917773 0.345661 0.409506
O O3 0.000000 0.500000 0.456006
O O4 0.000000 0.000000 0.425948
O O5 0.334540 0.016843 0.857779
O O6 0.395578 0.616660 0.829875
O O7 0.429755 0.116701 0.822515
O O8 0.236434 0.130601 0.388108
O O9 0.313740 0.964961 0.449755
O O10 0.728789 0.365636 0.000000
O O11 0.500000 0.500000 0.826967
O O12 0.439181 0.500000 0.750000
#
# Coordination Sequence:
#
# PCOD8294526 Si02
#       5
#    16  16  16   8  16
#     4  10  21  36  54  85 127 161 195 238 292 370
#     4  12  22  37  66  88 118 163 201 248 306 375
#     4  10  21  37  57  86 121 158 203 253 293 345
#     4   8  16  32  52  76 111 152 195 242 282 322
#     4  11  24  42  64  92 119 149 199 261 314 367
#
# _framework density 21.392016000000002
#
# number of rings (size 3 to 8) (size 9 to 14) (size 15 to 20)
#    0.000    1.556    0.000    6.000    1.556    1.778 
#    0.000    0.000    0.000   13.333    0.000    0.000 
#    0.000    0.000    0.000    0.000    0.000    0.000 
#
# Total GULP energy -446089.397538 kJ/mol
# GULP energy per Si atom -12391.372154 kJ/mol
# Density = 2.134333 g / cm^3
# Si number density = 21.392016 Si / 1000 Ang^3
#
#
#
# Elastic Constant Matrix: (Units=GPa)
#
#
# Indices 1 2 3 4 5 6 
#
# 1 62.6131 3.1023 25.6635 0.0000 0.0000 0.0000
# 2 3.1023 91.1059 14.6806 0.0000 0.0000 0.0000
# 3 25.6635 14.6806 88.1363 0.0000 0.0000 0.0000
# 4 0.0000 0.0000 0.0000 31.9839 0.0000 0.0000
# 5 0.0000 0.0000 0.0000 0.0000 17.3163 0.0000
# 6 0.0000 0.0000 0.0000 0.0000 0.0000 27.2006
#
#
#
# Elastic Compliance Matrix: (Units=1/GPa)
#
#
# Indices 1 2 3 4 5 6 
#
# 1 0.018141 0.000240 -0.005322 0.000000 0.000000 0.000000
# 2 0.000240 0.011282 -0.001949 0.000000 0.000000 0.000000
# 3 -0.005322 -0.001949 0.013220 0.000000 0.000000 0.000000
# 4 0.000000 0.000000 0.000000 0.031266 0.000000 0.000000
# 5 0.000000 0.000000 0.000000 0.000000 0.057749 0.000000
# 6 0.000000 0.000000 0.000000 0.000000 0.000000 0.036764
#
#
# Mechanical properties :
#
#
# Convention : Reuss Voigt Hill
#
# Bulk Modulus (GPa) = 34.98889 36.52758 35.75823
# Shear Modulus (GPa) = 26.04010 28.52741 27.28375
#
# Velocity S-wave (km/s) = 3.49274 3.65575 3.57517
# Velocity P-wave (km/s) = 5.71465 5.91031 5.81330
#
# Compressibility (1/GPa) = 0.02858050
#
# Stress axis : x y z
#
# Youngs Moduli (GPa) = 55.12493 88.63562 75.64062
#
# Poissons Ratio (x) = -0.02126 0.40257
# Poissons Ratio (y) = -0.01322 0.14743
# Poissons Ratio (z) = 0.29338 0.17276
#
# Static dielectric constant tensor:
#      x y z
#    x 3.397930 0.000000 0.000000 
#    y 0.000000 3.974860 0.000000 
#    z 0.000000 0.000000 4.072380 
# 
# 
# High freq. dielectric constant tensor:
#      x y z
#    x 1.800990 0.000000 0.000000 
#    y 0.000000 1.858800 0.000000 
#    z 0.000000 0.000000 1.837700 
# 
# From -- ./inp_files/49810.got.cif
#   From: 2010.03.12/outbox.cif.g09.slc.cpg/sg72_25_cif.got.tgz:49810.got - 2010.04.16 14:54:00.
