data_PCOD8294420
_publ_section_title
;
Structure prediction by ZEFSAII (Michael W. Deem and Ramdas Pophale) SiO2 
 PCOD8294420
Probable space group: I B A M
;
_chemical_formula_sum "Si O2"
_cell_formula_units_Z 72
_cell_length_a 30.528935
_cell_length_b 9.038143
_cell_length_c 13.893947
_cell_angle_alpha 90.000000
_cell_angle_beta 90.000000
_cell_angle_gamma 90.000000
_cell_volume 3833.685661
_symmetry_space_group_name_H-M "I B A M"
_symmetry_group_IT_number 72
_symmetry_cell_setting 'orthorhombic'
loop_
_space_group_symop_operation_xyz
x,y,z
-x,-y,z
x,-y,1/2-z
-x,y,1/2-z
-x,-y,-z
x,y,-z
-x,y,1/2+z
x,-y,1/2+z
1/2+x,1/2+y,1/2+z
1/2-x,1/2-y,1/2+z
1/2+x,1/2-y,-z
1/2-x,1/2+y,-z
1/2-x,1/2-y,1/2-z
1/2+x,1/2+y,1/2-z
1/2-x,1/2+y,z
1/2+x,1/2-y,z
loop_
_atom_site_type_symbol
_atom_site_label
_atom_site_fract_x
_atom_site_fract_y
_atom_site_fract_z
Si Si1 0.562794 0.329411 0.500000
Si Si2 0.562794 0.670589 0.500000
Si Si3 1.000000 0.326008 0.361779
Si Si4 0.770557 1.000000 0.000000
Si Si5 0.161038 0.740837 0.000000
Si Si6 0.161038 0.259163 0.000000
Si Si7 0.308905 0.000000 0.864167
O O1 0.548221 0.500000 0.500000
O O2 0.543406 0.247932 0.593692
O O3 0.614902 0.322188 0.500000
O O4 0.543406 0.752068 0.593692
O O5 0.614902 0.677812 0.500000
O O6 0.000000 0.500000 0.384517
O O7 0.000000 0.291976 0.250000
O O8 0.799771 0.855730 0.000000
O O9 0.740566 1.000000 0.095416
O O10 0.799771 0.144270 0.000000
O O11 0.165343 0.643202 0.903439
O O12 0.165343 0.356798 0.096561
O O13 0.308389 0.000000 0.750000
#
# Coordination Sequence:
#
# PCOD8294420 Si02
#       7
#     8   8  16   8   8   8  16
#     4  11  22  39  62  85 118 156 188 236 291 336
#     4  11  22  39  62  85 118 156 188 236 291 336
#     4  10  23  40  63  89 116 150 189 233 286 349
#     4  10  20  40  60  85 118 153 192 240 292 340
#     4  10  22  38  60  87 117 151 196 240 284 341
#     4  10  22  38  60  87 117 151 196 240 284 341
#     4  10  22  38  60  84 116 157 196 239 286 340
#
# _framework density 18.780882999999999
#
# number of rings (size 3 to 8) (size 9 to 14) (size 15 to 20)
#    0.000    2.000    1.111    5.333    6.222    7.111 
#    0.000    0.000    0.000    0.000    0.000    0.000 
#    0.000    0.000    0.000    0.000    0.000    0.000 
#
# Total GULP energy -446396.188194 kJ/mol
# GULP energy per Si atom -12399.894116 kJ/mol
# Density = 1.873814 g / cm^3
# Si number density = 18.780883 Si / 1000 Ang^3
#
#
#
# Elastic Constant Matrix: (Units=GPa)
#
#
# Indices 1 2 3 4 5 6 
#
# 1 112.1157 32.5771 38.0724 0.0000 0.0000 0.0000
# 2 32.5771 133.2356 57.9797 0.0000 0.0000 0.0000
# 3 38.0724 57.9797 183.1010 0.0000 0.0000 0.0000
# 4 0.0000 0.0000 0.0000 13.7337 0.0000 0.0000
# 5 0.0000 0.0000 0.0000 0.0000 9.0557 0.0000
# 6 0.0000 0.0000 0.0000 0.0000 0.0000 25.3833
#
#
#
# Elastic Compliance Matrix: (Units=1/GPa)
#
#
# Indices 1 2 3 4 5 6 
#
# 1 0.009947 -0.001777 -0.001506 0.000000 0.000000 0.000000
# 2 -0.001777 0.009022 -0.002488 0.000000 0.000000 0.000000
# 3 -0.001506 -0.002488 0.006562 0.000000 0.000000 0.000000
# 4 0.000000 0.000000 0.000000 0.072814 0.000000 0.000000
# 5 0.000000 0.000000 0.000000 0.000000 0.110428 0.000000
# 6 0.000000 0.000000 0.000000 0.000000 0.000000 0.039396
#
#
# Mechanical properties :
#
#
# Convention : Reuss Voigt Hill
#
# Bulk Modulus (GPa) = 71.47187 76.19009 73.83098
# Shear Modulus (GPa) = 18.91269 29.62274 24.26772
#
# Velocity S-wave (km/s) = 3.17680 3.97581 3.59855
# Velocity P-wave (km/s) = 7.18292 7.85697 7.52750
#
# Compressibility (1/GPa) = 0.01399152
#
# Stress axis : x y z
#
# Youngs Moduli (GPa) = 100.53336 110.83454 152.38755
#
# Poissons Ratio (x) = 0.19694 0.22944
# Poissons Ratio (y) = 0.17864 0.37907
# Poissons Ratio (z) = 0.15136 0.27570
#
# Static dielectric constant tensor:
#      x y z
#    x 3.408930 0.000000 0.000000 
#    y 0.000000 3.747370 0.000000 
#    z 0.000000 0.000000 3.276430 
# 
# 
# High freq. dielectric constant tensor:
#      x y z
#    x 1.736090 0.000000 0.000000 
#    y 0.000000 1.750500 0.000000 
#    z 0.000000 0.000000 1.716850 
# 
# From -- ./inp_files/26236.got.cif
#   From: 2010.03.12/outbox.cif.g09.slc.cpg/sg72_14_cif.got.tgz:26236.got - 2010.04.16 14:54:00.
