data_PCOD8294484
_publ_section_title
;
Structure prediction by ZEFSAII (Michael W. Deem and Ramdas Pophale) SiO2 
 PCOD8294484
Probable space group: I B A M
;
_chemical_formula_sum "Si O2"
_cell_formula_units_Z 52
_cell_length_a 7.653249
_cell_length_b 20.786973
_cell_length_c 16.478980
_cell_angle_alpha 90.000000
_cell_angle_beta 90.000000
_cell_angle_gamma 90.000000
_cell_volume 2621.605998
_symmetry_space_group_name_H-M "I B A M"
_symmetry_group_IT_number 72
_symmetry_cell_setting 'orthorhombic'
loop_
_space_group_symop_operation_xyz
x,y,z
-x,-y,z
x,-y,1/2-z
-x,y,1/2-z
-x,-y,-z
x,y,-z
-x,y,1/2+z
x,-y,1/2+z
1/2+x,1/2+y,1/2+z
1/2-x,1/2-y,1/2+z
1/2+x,1/2-y,-z
1/2-x,1/2+y,-z
1/2-x,1/2-y,1/2-z
1/2+x,1/2+y,1/2-z
1/2-x,1/2+y,z
1/2+x,1/2-y,z
loop_
_atom_site_type_symbol
_atom_site_label
_atom_site_fract_x
_atom_site_fract_y
_atom_site_fract_z
Si Si1 0.500000 0.000000 0.750000
Si Si2 0.166050 0.683547 0.658070
Si Si3 0.043011 0.815470 0.406621
Si Si4 0.665425 0.883041 0.829196
O O1 0.369562 0.043342 0.804007
O O2 0.115659 0.758249 0.649643
O O3 0.342374 0.667556 0.609756
O O4 0.189781 0.663750 0.751541
O O5 0.004925 0.642103 0.621082
O O6 0.068006 0.796533 0.500000
O O7 0.161557 0.877910 0.384512
#
# Coordination Sequence:
#
# PCOD8294484 Si02
#       4
#     4  16  16  16
#     4   8  20  44  64  84 100 158 216 248 266 332
#     4  10  21  34  56  87 118 152 192 237 287 353
#     4  12  22  33  55  91 127 152 179 234 305 361
#     4  10  22  39  63  81 115 154 204 245 284 330
#
# _framework density 19.835169
#
# number of rings (size 3 to 8) (size 9 to 14) (size 15 to 20)
#    0.000    1.846    3.077    2.769    4.308    1.231 
#    0.000   13.077    0.000   11.077    0.000    0.000 
#    0.000    0.000    0.000    0.000    0.000    0.000 
#
# Total GULP energy -322261.365571 kJ/mol
# GULP energy per Si atom -12394.667907 kJ/mol
# Density = 1.979002 g / cm^3
# Si number density = 19.835169 Si / 1000 Ang^3
#
#
#
# Elastic Constant Matrix: (Units=GPa)
#
#
# Indices 1 2 3 4 5 6 
#
# 1 159.4788 53.4126 35.1575 0.0000 0.0000 0.0000
# 2 53.4126 116.4096 38.9132 0.0000 0.0000 0.0000
# 3 35.1575 38.9132 71.7102 0.0000 0.0000 0.0000
# 4 0.0000 0.0000 0.0000 9.3046 0.0000 0.0000
# 5 0.0000 0.0000 0.0000 0.0000 20.9065 0.0000
# 6 0.0000 0.0000 0.0000 0.0000 0.0000 28.3472
#
#
#
# Elastic Compliance Matrix: (Units=1/GPa)
#
#
# Indices 1 2 3 4 5 6 
#
# 1 0.007700 -0.002774 -0.002270 0.000000 0.000000 0.000000
# 2 -0.002774 0.011493 -0.004877 0.000000 0.000000 0.000000
# 3 -0.002270 -0.004877 0.017704 0.000000 0.000000 0.000000
# 4 0.000000 0.000000 0.000000 0.107473 0.000000 0.000000
# 5 0.000000 0.000000 0.000000 0.000000 0.047832 0.000000
# 6 0.000000 0.000000 0.000000 0.000000 0.000000 0.035277
#
#
# Mechanical properties :
#
#
# Convention : Reuss Voigt Hill
#
# Bulk Modulus (GPa) = 58.62960 66.95171 62.79065
# Shear Modulus (GPa) = 19.76236 26.38602 23.07419
#
# Velocity S-wave (km/s) = 3.15989 3.65124 3.41441
# Velocity P-wave (km/s) = 6.55254 7.18350 6.87526
#
# Compressibility (1/GPa) = 0.01705623
#
# Stress axis : x y z
#
# Youngs Moduli (GPa) = 129.87123 87.00585 56.48420
#
# Poissons Ratio (x) = 0.24138 0.12820
# Poissons Ratio (y) = 0.36030 0.27546
# Poissons Ratio (z) = 0.29476 0.42430
#
# Static dielectric constant tensor:
#      x y z
#    x 4.094310 0.000000 0.000000 
#    y 0.000000 3.324370 0.000000 
#    z 0.000000 0.000000 3.300680 
# 
# 
# High freq. dielectric constant tensor:
#      x y z
#    x 1.797510 0.000000 0.000000 
#    y 0.000000 1.740690 0.000000 
#    z 0.000000 0.000000 1.748450 
# 
# From -- ./inp_files/18292.got.cif
#   From: 2010.03.12/outbox.cif.g09.slc.cpg/sg72_10_cif.got.tgz:18292.got - 2010.04.16 14:54:00.
