data_PCOD8294754
_publ_section_title
;
Structure prediction by ZEFSAII (Michael W. Deem and Ramdas Pophale) SiO2 
 PCOD8294754
Probable space group: I B A M
;
_chemical_formula_sum "Si O2"
_cell_formula_units_Z 88
_cell_length_a 19.949035
_cell_length_b 8.877753
_cell_length_c 22.049304
_cell_angle_alpha 90.000000
_cell_angle_beta 90.000000
_cell_angle_gamma 90.000000
_cell_volume 3904.989184
_symmetry_space_group_name_H-M "I B A M"
_symmetry_group_IT_number 72
_symmetry_cell_setting 'orthorhombic'
loop_
_space_group_symop_operation_xyz
x,y,z
-x,-y,z
x,-y,1/2-z
-x,y,1/2-z
-x,-y,-z
x,y,-z
-x,y,1/2+z
x,-y,1/2+z
1/2+x,1/2+y,1/2+z
1/2-x,1/2-y,1/2+z
1/2+x,1/2-y,-z
1/2-x,1/2+y,-z
1/2-x,1/2-y,1/2-z
1/2+x,1/2+y,1/2-z
1/2-x,1/2+y,z
1/2+x,1/2-y,z
loop_
_atom_site_type_symbol
_atom_site_label
_atom_site_fract_x
_atom_site_fract_y
_atom_site_fract_z
Si Si1 0.439619 0.903002 0.868781
Si Si2 0.099219 0.545064 0.500000
Si Si3 0.304483 0.042814 0.819152
Si Si4 0.816707 0.867355 0.630567
Si Si5 0.192850 0.726405 0.000000
Si Si6 0.838975 0.843455 0.000000
Si Si7 0.929475 0.069046 0.611947
O O1 0.446186 0.922848 0.941229
O O2 0.370620 0.966392 0.844498
O O3 0.444083 0.725109 0.852175
O O4 0.500000 0.000000 0.838721
O O5 0.127519 0.377964 0.500000
O O6 0.160906 0.661804 0.500000
O O7 0.242447 0.984972 0.858083
O O8 0.293580 0.000000 0.750000
O O9 0.308376 0.222008 0.826957
O O10 0.813679 0.829205 0.559278
O O11 0.887685 0.945152 0.650615
O O12 0.259548 0.621367 0.000000
O O13 0.877903 0.904892 0.942372
O O14 0.000000 0.000000 0.590167
#
# Coordination Sequence:
#
# PCOD8294754 Si02
#       7
#    16   8  16  16   8   8  16
#     4  11  23  44  69  99 138 184 233 290 359 435
#     4  10  21  39  62  97 137 176 223 281 349 428
#     4  12  26  46  71  99 135 185 239 294 355 428
#     4  12  25  43  70 102 141 179 231 296 359 430
#     4  12  23  37  69 104 138 178 228 288 362 426
#     4  10  22  36  58  94 140 181 221 267 340 427
#     4  11  24  41  63  98 137 181 226 282 351 428
#
# _framework density 22.535274999999999
#
# number of rings (size 3 to 8) (size 9 to 14) (size 15 to 20)
#    0.000    0.727    1.818    7.091    2.545    0.364 
#    0.000    0.000    0.000    3.818    0.000    0.000 
#    0.000    0.000    0.000    0.000    0.000    0.000 
#
# Total GULP energy -545566.709988 kJ/mol
# GULP energy per Si atom -12399.243409 kJ/mol
# Density = 2.248398 g / cm^3
# Si number density = 22.535275 Si / 1000 Ang^3
#
#
#
# Elastic Constant Matrix: (Units=GPa)
#
#
# Indices 1 2 3 4 5 6 
#
# 1 150.1031 69.2578 11.8783 0.0000 0.0000 0.0000
# 2 69.2578 175.7185 30.1075 0.0000 0.0000 0.0000
# 3 11.8783 30.1075 71.8660 0.0000 0.0000 0.0000
# 4 0.0000 0.0000 0.0000 16.2848 0.0000 0.0000
# 5 0.0000 0.0000 0.0000 0.0000 -43.4306 0.0000
# 6 0.0000 0.0000 0.0000 0.0000 0.0000 50.7934
#
#
#
# Elastic Compliance Matrix: (Units=1/GPa)
#
#
# Indices 1 2 3 4 5 6 
#
# 1 0.008143 -0.003209 -0.000001 0.000000 0.000000 0.000000
# 2 -0.003209 0.007396 -0.002568 0.000000 0.000000 0.000000
# 3 -0.000001 -0.002568 0.014991 0.000000 0.000000 0.000000
# 4 0.000000 0.000000 0.000000 0.061407 0.000000 0.000000
# 5 0.000000 0.000000 0.000000 0.000000 -0.023025 0.000000
# 6 0.000000 0.000000 0.000000 0.000000 0.000000 0.019688
#
#
# Mechanical properties :
#
#
# Convention : Reuss Voigt Hill
#
# Bulk Modulus (GPa) = 52.70824 68.90831 60.80827
# Shear Modulus (GPa) = 46.95706 23.82580 35.39143
#
# Velocity S-wave (km/s) = 4.56972 3.25509 3.96724
# Velocity P-wave (km/s) = 7.16123 6.69118 6.93019
#
# Compressibility (1/GPa) = 0.01897237
#
# Stress axis : x y z
#
# Youngs Moduli (GPa) = 122.80582 135.21200 66.70740
#
# Poissons Ratio (x) = 0.43392 0.00010
# Poissons Ratio (y) = 0.39411 0.17130
# Poissons Ratio (z) = 0.00018 0.34722
#
# Static dielectric constant tensor:
#      x y z
#    x 4.105760 0.000000 0.000000 
#    y 0.000000 4.582310 0.000000 
#    z 0.000000 0.000000 3.862240 
# 
# 
# High freq. dielectric constant tensor:
#      x y z
#    x 1.900890 0.000000 0.000000 
#    y 0.000000 1.916660 0.000000 
#    z 0.000000 0.000000 1.850740 
# 
# From -- ./inp_files/45283.got.cif
#   From: 2010.03.12/outbox.cif.g09.slc.cpg/sg72_23_cif.got.tgz:45283.got - 2010.04.16 14:54:00.
