data_PCOD8294688
_publ_section_title
;
Structure prediction by ZEFSAII (Michael W. Deem and Ramdas Pophale) SiO2 
 PCOD8294688
Probable space group: I B A M
;
_chemical_formula_sum "Si O2"
_cell_formula_units_Z 96
_cell_length_a 10.505743
_cell_length_b 24.519112
_cell_length_c 17.435057
_cell_angle_alpha 90.000000
_cell_angle_beta 90.000000
_cell_angle_gamma 90.000000
_cell_volume 4491.122298
_symmetry_space_group_name_H-M "I B A M"
_symmetry_group_IT_number 72
_symmetry_cell_setting 'orthorhombic'
loop_
_space_group_symop_operation_xyz
x,y,z
-x,-y,z
x,-y,1/2-z
-x,y,1/2-z
-x,-y,-z
x,y,-z
-x,y,1/2+z
x,-y,1/2+z
1/2+x,1/2+y,1/2+z
1/2-x,1/2-y,1/2+z
1/2+x,1/2-y,-z
1/2-x,1/2+y,-z
1/2-x,1/2-y,1/2-z
1/2+x,1/2+y,1/2-z
1/2-x,1/2+y,z
1/2+x,1/2-y,z
loop_
_atom_site_type_symbol
_atom_site_label
_atom_site_fract_x
_atom_site_fract_y
_atom_site_fract_z
Si Si1 0.706316 0.315631 0.911529
Si Si2 0.393781 0.123316 0.809666
Si Si3 0.767206 0.693630 0.914406
Si Si4 0.535613 0.646521 0.832240
Si Si5 0.407019 0.917602 0.911881
Si Si6 0.788556 0.054443 0.795165
O O1 0.830482 0.329184 0.860487
O O2 0.669777 0.252285 0.897683
O O3 0.584983 0.352305 0.888807
O O4 0.740271 0.327527 0.000000
O O5 0.500000 0.146593 0.750000
O O6 0.458942 0.078401 0.866715
O O7 0.281535 0.094650 0.763438
O O8 0.648464 0.685129 0.859561
O O9 0.871218 0.646381 0.904067
O O10 0.711356 0.691649 0.000000
O O11 0.500000 0.670772 0.750000
O O12 0.582425 0.583517 0.824790
O O13 0.302378 0.955603 0.869320
O O14 0.419689 0.936862 0.000000
O O15 0.824518 0.000000 0.750000
#
# Coordination Sequence:
#
# PCOD8294688 Si02
#       6
#    16  16  16  16  16  16
#     4  11  23  39  61  91 130 170 209 255 311 375
#     4  10  21  38  60  91 125 161 206 261 316 377
#     4   9  21  38  59  87 123 169 206 248 312 375
#     4  11  22  40  61  92 121 162 213 263 306 373
#     4   9  19  38  63  91 124 161 209 260 306 378
#     4  10  22  43  66  86 123 165 210 263 330 375
#
# _framework density 21.375502999999998
#
# number of rings (size 3 to 8) (size 9 to 14) (size 15 to 20)
#    0.000    2.000    1.667    1.000    2.333    5.333 
#    0.000    2.500    0.000    1.000    0.000    0.000 
#    0.000    0.000    0.000    0.000    0.000    0.000 
#
# Total GULP energy -595087.439464 kJ/mol
# GULP energy per Si atom -12397.654989 kJ/mol
# Density = 2.132685 g / cm^3
# Si number density = 21.375503 Si / 1000 Ang^3
#
#
#
# Elastic Constant Matrix: (Units=GPa)
#
#
# Indices 1 2 3 4 5 6 
#
# 1 78.6707 33.9825 27.5526 0.0000 0.0000 0.0000
# 2 33.9825 89.8197 32.2708 0.0000 0.0000 0.0000
# 3 27.5526 32.2708 127.0335 0.0001 0.0001 0.0000
# 4 0.0000 0.0000 0.0001 31.4884 0.0000 0.0000
# 5 0.0000 0.0000 0.0001 0.0000 37.8228 0.0000
# 6 0.0000 0.0000 0.0000 0.0000 0.0000 16.4975
#
#
#
# Elastic Compliance Matrix: (Units=1/GPa)
#
#
# Indices 1 2 3 4 5 6 
#
# 1 0.015680 -0.005184 -0.002084 0.000000 0.000000 0.000000
# 2 -0.005184 0.013965 -0.002423 0.000000 0.000000 0.000000
# 3 -0.002084 -0.002423 0.008940 0.000000 0.000000 0.000000
# 4 0.000000 0.000000 0.000000 0.031758 0.000000 0.000000
# 5 0.000000 0.000000 0.000000 0.000000 0.026439 0.000000
# 6 0.000000 0.000000 0.000000 0.000000 0.000000 0.060615
#
#
# Mechanical properties :
#
#
# Convention : Reuss Voigt Hill
#
# Bulk Modulus (GPa) = 52.07565 53.68175 52.87870
# Shear Modulus (GPa) = 27.29549 30.60960 28.95254
#
# Velocity S-wave (km/s) = 3.57732 3.78828 3.68431
# Velocity P-wave (km/s) = 6.44036 6.65604 6.54909
#
# Compressibility (1/GPa) = 0.01920283
#
# Stress axis : x y z
#
# Youngs Moduli (GPa) = 63.77442 71.60603 111.86211
#
# Poissons Ratio (x) = 0.37119 0.23313
# Poissons Ratio (y) = 0.33059 0.27108
# Poissons Ratio (z) = 0.13291 0.17353
#
# Static dielectric constant tensor:
#      x y z
#    x 3.868630 0.000000 0.000000 
#    y 0.000000 3.522100 0.000000 
#    z 0.000000 0.000000 4.213410 
# 
# 
# High freq. dielectric constant tensor:
#      x y z
#    x 1.839350 0.000000 0.000000 
#    y 0.000000 1.802290 0.000000 
#    z 0.000000 0.000000 1.858100 
# 
# From -- ./inp_files/29465.got.cif
#   From: 2010.03.12/outbox.cif.g09.slc.cpg/sg72_15_cif.got.tgz:29465.got - 2010.04.16 14:54:00.
