data_PCOD8294108
_publ_section_title
;
Structure prediction by ZEFSAII (Michael W. Deem and Ramdas Pophale) SiO2 
 PCOD8294108
Probable space group: I B A M
;
_chemical_formula_sum "Si O2"
_cell_formula_units_Z 116
_cell_length_a 26.791275
_cell_length_b 22.117779
_cell_length_c 9.406227
_cell_angle_alpha 90.000000
_cell_angle_beta 90.000000
_cell_angle_gamma 90.000000
_cell_volume 5573.786789
_symmetry_space_group_name_H-M "I B A M"
_symmetry_group_IT_number 72
_symmetry_cell_setting 'orthorhombic'
loop_
_space_group_symop_operation_xyz
x,y,z
-x,-y,z
x,-y,1/2-z
-x,y,1/2-z
-x,-y,-z
x,y,-z
-x,y,1/2+z
x,-y,1/2+z
1/2+x,1/2+y,1/2+z
1/2-x,1/2-y,1/2+z
1/2+x,1/2-y,-z
1/2-x,1/2+y,-z
1/2-x,1/2-y,1/2-z
1/2+x,1/2+y,1/2-z
1/2-x,1/2+y,z
1/2+x,1/2-y,z
loop_
_atom_site_type_symbol
_atom_site_label
_atom_site_fract_x
_atom_site_fract_y
_atom_site_fract_z
Si Si1 0.408279 0.574934 0.653294
Si Si2 0.050685 0.333364 0.329997
Si Si3 0.288628 0.941281 0.665751
Si Si4 0.177768 0.096797 0.160154
Si Si5 0.146774 0.650423 0.333828
Si Si6 0.202483 0.228987 0.163408
Si Si7 0.000000 0.000000 0.750000
Si Si8 0.455584 0.303172 0.157040
O O1 0.386254 0.558264 0.500000
O O2 0.366027 0.557004 0.766177
O O3 0.462379 0.542903 0.662725
O O4 0.412147 0.647648 0.667941
O O5 0.048682 0.347936 0.500000
O O6 0.096001 0.367145 0.250357
O O7 0.062110 0.263166 0.296715
O O8 0.000000 0.353628 0.250000
O O9 0.306113 0.941885 0.500000
O O10 0.228963 0.939627 0.674419
O O11 0.309340 0.883757 0.750466
O O12 0.308295 0.000000 0.750000
O O13 0.183587 0.164576 0.224315
O O14 0.159650 0.102968 0.000000
O O15 0.143266 0.630502 0.500000
O O16 0.158440 0.721776 0.323531
O O17 0.250000 0.250000 0.250000
O O18 0.219567 0.220675 0.000000
O O19 0.500000 0.328706 0.250000
O O20 0.477856 0.298239 0.000000
#
# Coordination Sequence:
#
# PCOD8294108 Si02
#       8
#    16  16  16  16  16  16   4  16
#     4  11  24  40  59  81 108 150 205 261 317 373
#     4  10  20  35  59  90 125 160 198 244 298 363
#     4  11  24  43  64  88 122 162 207 253 302 361
#     4  10  23  41  62  89 121 158 200 255 317 375
#     4  11  22  37  62  94 127 164 204 249 306 371
#     4  10  20  36  60  93 128 161 200 251 312 378
#     4  12  26  44  60  82 114 156 216 282 334 376
#     4   9  18  34  54  79 110 149 193 241 299 362
#
# _framework density 20.811703000000001
#
# number of rings (size 3 to 8) (size 9 to 14) (size 15 to 20)
#    0.000    1.655    2.069    2.276    0.966    4.414 
#    0.000    0.000    0.000    0.414    0.000    2.897 
#    0.000    0.000    0.000    0.000    0.000    0.000 
#
# Total GULP energy -718839.201146 kJ/mol
# GULP energy per Si atom -12393.779330 kJ/mol
# Density = 2.076433 g / cm^3
# Si number density = 20.811703 Si / 1000 Ang^3
#
#
#
# Elastic Constant Matrix: (Units=GPa)
#
#
# Indices 1 2 3 4 5 6 
#
# 1 107.1963 4.7153 58.9785 0.0000 0.0000 0.0000
# 2 4.7153 55.6379 21.7691 0.0000 0.0000 0.0000
# 3 58.9785 21.7691 130.3517 0.0000 0.0000 0.0000
# 4 0.0000 0.0000 0.0000 10.6101 0.0000 0.0000
# 5 0.0000 0.0000 0.0000 0.0000 39.6250 0.0000
# 6 0.0000 0.0000 0.0000 0.0000 0.0000 15.6703
#
#
#
# Elastic Compliance Matrix: (Units=1/GPa)
#
#
# Indices 1 2 3 4 5 6 
#
# 1 0.012499 0.001234 -0.005862 0.000000 0.000000 0.000000
# 2 0.001234 0.019352 -0.003790 0.000000 0.000000 0.000000
# 3 -0.005862 -0.003790 0.010957 0.000000 0.000000 0.000000
# 4 0.000000 0.000000 0.000000 0.094250 0.000000 0.000000
# 5 0.000000 0.000000 0.000000 0.000000 0.025237 0.000000
# 6 0.000000 0.000000 0.000000 0.000000 0.000000 0.063815
#
#
# Mechanical properties :
#
#
# Convention : Reuss Voigt Hill
#
# Bulk Modulus (GPa) = 38.50225 51.56797 45.03511
# Shear Modulus (GPa) = 19.87267 27.02928 23.45098
#
# Velocity S-wave (km/s) = 3.09347 3.60773 3.36045
# Velocity P-wave (km/s) = 5.59462 6.49511 6.06161
#
# Compressibility (1/GPa) = 0.02597250
#
# Stress axis : x y z
#
# Youngs Moduli (GPa) = 80.00409 51.67496 91.26916
#
# Poissons Ratio (x) = -0.06377 0.53498
# Poissons Ratio (y) = -0.09873 0.34593
# Poissons Ratio (z) = 0.46895 0.19586
#
# Static dielectric constant tensor:
#      x y z
#    x 3.509260 0.000000 0.000000 
#    y 0.000000 3.680570 0.000000 
#    z 0.000000 0.000000 3.911280 
# 
# 
# High freq. dielectric constant tensor:
#      x y z
#    x 1.804570 0.000000 0.000000 
#    y 0.000000 1.802280 0.000000 
#    z 0.000000 0.000000 1.821490 
# 
# From -- ./inp_files/8453.got.cif
#   From: 2010.03.12/outbox.cif.g09.slc.cpg/sg72_5_cif.got.tgz:8453.got - 2010.04.16 14:54:00.
