data_PCOD8294136
_publ_section_title
;
Structure prediction by ZEFSAII (Michael W. Deem and Ramdas Pophale) SiO2 
 PCOD8294136
Probable space group: I B A M
;
_chemical_formula_sum "Si O2"
_cell_formula_units_Z 96
_cell_length_a 20.686327
_cell_length_b 8.554299
_cell_length_c 28.821432
_cell_angle_alpha 90.000000
_cell_angle_beta 90.000000
_cell_angle_gamma 90.000000
_cell_volume 5100.154902
_symmetry_space_group_name_H-M "I B A M"
_symmetry_group_IT_number 72
_symmetry_cell_setting 'orthorhombic'
loop_
_space_group_symop_operation_xyz
x,y,z
-x,-y,z
x,-y,1/2-z
-x,y,1/2-z
-x,-y,-z
x,y,-z
-x,y,1/2+z
x,-y,1/2+z
1/2+x,1/2+y,1/2+z
1/2-x,1/2-y,1/2+z
1/2+x,1/2-y,-z
1/2-x,1/2+y,-z
1/2-x,1/2-y,1/2-z
1/2+x,1/2+y,1/2-z
1/2-x,1/2+y,z
1/2+x,1/2-y,z
loop_
_atom_site_type_symbol
_atom_site_label
_atom_site_fract_x
_atom_site_fract_y
_atom_site_fract_z
Si Si1 0.271052 0.505177 0.090721
Si Si2 0.827364 0.287757 0.138590
Si Si3 0.435991 0.154486 0.723433
Si Si4 0.338861 0.799044 0.052288
Si Si5 0.568291 0.958379 0.620162
Si Si6 0.681147 0.321045 0.259118
O O1 0.235762 0.599291 0.133150
O O2 0.318206 0.369281 0.108727
O O3 0.312659 0.624814 0.060592
O O4 0.216897 0.428471 0.058127
O O5 0.890289 0.382801 0.122959
O O6 0.840202 0.230638 0.190149
O O7 0.500000 0.221415 0.750000
O O8 0.448899 0.118105 0.669815
O O9 0.375481 0.270678 0.724056
O O10 0.413222 0.000000 0.750000
O O11 0.396551 0.830629 0.088276
O O12 0.365376 0.810273 0.000000
O O13 0.500000 0.000000 0.596425
O O14 0.690309 0.500000 0.250000
O O15 0.750000 0.250000 0.250000
#
# Coordination Sequence:
#
# PCOD8294136 Si02
#       6
#    16  16  16  16  16  16
#     4   9  20  36  60  84 120 148 189 235 301 359
#     4  10  20  36  54  85 116 154 188 237 289 351
#     4  11  21  41  61  81 116 163 202 235 290 355
#     4  10  21  37  63  89 116 150 192 245 300 354
#     4  11  22  39  62  84 114 157 201 242 284 347
#     4  12  25  33  55  86 123 152 194 245 295 342
#
# _framework density 18.822956000000001
#
# number of rings (size 3 to 8) (size 9 to 14) (size 15 to 20)
#    0.000    1.500    3.333    2.000    9.333    0.667 
#    0.000    1.667    0.000    1.000    0.000    0.000 
#    0.000    0.000    0.000    0.000    0.000    0.000 
#
# Total GULP energy -595102.162561 kJ/mol
# GULP energy per Si atom -12397.961720 kJ/mol
# Density = 1.878011 g / cm^3
# Si number density = 18.822956 Si / 1000 Ang^3
#
#
#
# Elastic Constant Matrix: (Units=GPa)
#
#
# Indices 1 2 3 4 5 6 
#
# 1 135.9120 57.3529 33.4417 0.0000 0.0000 0.0000
# 2 57.3529 103.5128 21.5341 0.0000 0.0000 0.0000
# 3 33.4417 21.5341 90.3995 0.0000 0.0000 0.0000
# 4 0.0000 0.0000 0.0000 17.5347 0.0000 0.0000
# 5 0.0000 0.0000 0.0000 0.0000 14.8979 0.0000
# 6 0.0000 0.0000 0.0000 0.0000 0.0000 13.4547
#
#
#
# Elastic Compliance Matrix: (Units=1/GPa)
#
#
# Indices 1 2 3 4 5 6 
#
# 1 0.010127 -0.005083 -0.002535 0.000000 0.000000 0.000000
# 2 -0.005083 0.012716 -0.001149 0.000000 0.000000 0.000000
# 3 -0.002535 -0.001149 0.012273 0.000000 0.000000 0.000000
# 4 0.000000 0.000000 0.000000 0.057030 0.000000 0.000000
# 5 0.000000 0.000000 0.000000 0.000000 0.067123 0.000000
# 6 0.000000 0.000000 0.000000 0.000000 0.000000 0.074323
#
#
# Mechanical properties :
#
#
# Convention : Reuss Voigt Hill
#
# Bulk Modulus (GPa) = 56.87721 61.60910 59.24315
# Shear Modulus (GPa) = 19.45616 23.67717 21.56667
#
# Velocity S-wave (km/s) = 3.21851 3.55052 3.38859
# Velocity P-wave (km/s) = 6.64036 7.04345 6.84487
#
# Compressibility (1/GPa) = 0.01758174
#
# Stress axis : x y z
#
# Youngs Moduli (GPa) = 98.74958 78.64033 81.47646
#
# Poissons Ratio (x) = 0.39976 0.20656
# Poissons Ratio (y) = 0.50198 0.09358
# Poissons Ratio (z) = 0.25035 0.09033
#
# Static dielectric constant tensor:
#      x y z
#    x 3.383810 0.000000 0.000000 
#    y 0.000000 3.558390 0.000000 
#    z 0.000000 0.000000 3.571480 
# 
# 
# High freq. dielectric constant tensor:
#      x y z
#    x 1.727850 0.000000 0.000000 
#    y 0.000000 1.733660 0.000000 
#    z 0.000000 0.000000 1.720910 
# 
# From -- ./inp_files/45646.got.cif
#   From: 2010.03.12/outbox.cif.g09.slc.cpg/sg72_23_cif.got.tgz:45646.got - 2010.04.16 14:54:00.
