data_PCOD8294237
_publ_section_title
;
Structure prediction by ZEFSAII (Michael W. Deem and Ramdas Pophale) SiO2 
 PCOD8294237
Probable space group: I B A M
;
_chemical_formula_sum "Si O2"
_cell_formula_units_Z 64
_cell_length_a 15.441058
_cell_length_b 20.444848
_cell_length_c 9.941774
_cell_angle_alpha 90.000000
_cell_angle_beta 90.000000
_cell_angle_gamma 90.000000
_cell_volume 3138.519467
_symmetry_space_group_name_H-M "I B A M"
_symmetry_group_IT_number 72
_symmetry_cell_setting 'orthorhombic'
loop_
_space_group_symop_operation_xyz
x,y,z
-x,-y,z
x,-y,1/2-z
-x,y,1/2-z
-x,-y,-z
x,y,-z
-x,y,1/2+z
x,-y,1/2+z
1/2+x,1/2+y,1/2+z
1/2-x,1/2-y,1/2+z
1/2+x,1/2-y,-z
1/2-x,1/2+y,-z
1/2-x,1/2-y,1/2-z
1/2+x,1/2+y,1/2-z
1/2-x,1/2+y,z
1/2+x,1/2-y,z
loop_
_atom_site_type_symbol
_atom_site_label
_atom_site_fract_x
_atom_site_fract_y
_atom_site_fract_z
Si Si1 0.321406 0.441030 0.661154
Si Si2 0.096845 0.691438 0.500000
Si Si3 0.500000 0.601437 0.250000
Si Si4 0.288538 0.822441 0.746710
Si Si5 0.518471 0.310691 0.500000
Si Si6 0.095193 0.319468 0.500000
O O1 0.279840 0.500000 0.750000
O O2 0.302404 0.447558 0.500000
O O3 0.424392 0.443005 0.687113
O O4 0.289033 0.373556 0.727357
O O5 0.153950 0.667761 0.377070
O O6 0.074361 0.770308 0.500000
O O7 0.004002 0.653738 0.500000
O O8 0.466419 0.647141 0.368715
O O9 0.250000 0.750000 0.750000
O O10 0.354175 0.842249 0.629677
O O11 0.597038 0.259509 0.500000
#
# Coordination Sequence:
#
# PCOD8294237 Si02
#       6
#    16   8   8  16   8   8
#     4  12  29  48  69  99 142 189 235 287 346 419
#     4  10  23  37  64 101 140 175 221 280 354 401
#     4  12  23  42  68  96 144 184 233 268 341 426
#     4  12  23  42  69 105 135 178 233 290 347 407
#     4  10  20  36  65 108 133 180 216 282 336 406
#     4  10  21  39  64  97 144 173 217 292 340 407
#
# _framework density 20.391780000000001
#
# number of rings (size 3 to 8) (size 9 to 14) (size 15 to 20)
#    0.750    0.000    2.500    6.375    3.500    1.000 
#    0.000    0.000    0.000    4.500    0.000    0.000 
#    0.000    0.000    0.000    0.000    0.000    0.000 
#
# Total GULP energy -396514.669283 kJ/mol
# GULP energy per Si atom -12391.083415 kJ/mol
# Density = 2.034537 g / cm^3
# Si number density = 20.391780 Si / 1000 Ang^3
#
#
#
# Elastic Constant Matrix: (Units=GPa)
#
#
# Indices 1 2 3 4 5 6 
#
# 1 102.4619 20.7783 43.6131 0.0000 0.0000 0.0000
# 2 20.7783 92.5274 28.9334 0.0000 0.0000 0.0000
# 3 43.6131 28.9334 165.9557 0.0000 0.0000 0.0000
# 4 0.0000 0.0000 0.0000 34.6924 0.0000 0.0000
# 5 0.0000 0.0000 0.0000 0.0000 43.9835 0.0000
# 6 0.0000 0.0000 0.0000 0.0000 0.0000 18.5819
#
#
#
# Elastic Compliance Matrix: (Units=1/GPa)
#
#
# Indices 1 2 3 4 5 6 
#
# 1 0.011234 -0.001692 -0.002657 0.000000 0.000000 0.000000
# 2 -0.001692 0.011686 -0.001593 0.000000 0.000000 0.000000
# 3 -0.002657 -0.001593 0.007002 0.000000 0.000000 0.000000
# 4 0.000000 0.000000 0.000000 0.028825 0.000000 0.000000
# 5 0.000000 0.000000 0.000000 0.000000 0.022736 0.000000
# 6 0.000000 0.000000 0.000000 0.000000 0.000000 0.053816
#
#
# Mechanical properties :
#
#
# Convention : Reuss Voigt Hill
#
# Bulk Modulus (GPa) = 55.43985 60.84386 58.14185
# Shear Modulus (GPa) = 32.63843 37.29291 34.96567
#
# Velocity S-wave (km/s) = 4.00505 4.28111 4.14538
# Velocity P-wave (km/s) = 6.97378 7.37153 7.17541
#
# Compressibility (1/GPa) = 0.01803757
#
# Stress axis : x y z
#
# Youngs Moduli (GPa) = 89.01637 85.57568 142.82197
#
# Poissons Ratio (x) = 0.14478 0.37952
# Poissons Ratio (y) = 0.15060 0.22747
# Poissons Ratio (z) = 0.23654 0.13630
#
# Static dielectric constant tensor:
#      x y z
#    x 3.772630 0.000000 0.000000 
#    y 0.000000 3.553830 0.000000 
#    z 0.000000 0.000000 3.812170 
# 
# 
# High freq. dielectric constant tensor:
#      x y z
#    x 1.797880 0.000000 0.000000 
#    y 0.000000 1.769210 0.000000 
#    z 0.000000 0.000000 1.818110 
# 
# From -- ./inp_files/4367.got.cif
#   From: 2010.03.12/outbox.cif.g09.slc.cpg/sg72_3_cif.got.tgz:4367.got - 2010.04.16 14:54:00.
