data_PCOD8294000
_publ_section_title
;
Structure prediction by ZEFSAII (Michael W. Deem and Ramdas Pophale) SiO2 
 PCOD8294000
Probable space group: I B A M
;
_chemical_formula_sum "Si O2"
_cell_formula_units_Z 80
_cell_length_a 22.873281
_cell_length_b 22.695655
_cell_length_c 9.744233
_cell_angle_alpha 90.000000
_cell_angle_beta 90.000000
_cell_angle_gamma 90.000000
_cell_volume 5058.466131
_symmetry_space_group_name_H-M "I B A M"
_symmetry_group_IT_number 72
_symmetry_cell_setting 'orthorhombic'
loop_
_space_group_symop_operation_xyz
x,y,z
-x,-y,z
x,-y,1/2-z
-x,y,1/2-z
-x,-y,-z
x,y,-z
-x,y,1/2+z
x,-y,1/2+z
1/2+x,1/2+y,1/2+z
1/2-x,1/2-y,1/2+z
1/2+x,1/2-y,-z
1/2-x,1/2+y,-z
1/2-x,1/2-y,1/2-z
1/2+x,1/2+y,1/2-z
1/2-x,1/2+y,z
1/2+x,1/2-y,z
loop_
_atom_site_type_symbol
_atom_site_label
_atom_site_fract_x
_atom_site_fract_y
_atom_site_fract_z
Si Si1 0.170559 0.500000 0.750000
Si Si2 0.383206 0.214023 0.343790
Si Si3 0.484982 0.093466 0.500000
Si Si4 0.216308 0.202269 0.160586
Si Si5 0.593688 0.989735 0.000000
Si Si6 0.000000 0.322396 0.250000
Si Si7 0.282687 0.121503 0.659720
O O1 0.130370 0.471978 0.632849
O O2 0.209161 0.447772 0.813940
O O3 0.404361 0.203660 0.500000
O O4 0.351498 0.277706 0.331955
O O5 0.440435 0.216510 0.244745
O O6 0.340052 0.160162 0.301944
O O7 0.534572 0.045247 0.500000
O O8 0.491444 0.134394 0.627076
O O9 0.422053 0.059868 0.500000
O O10 0.250000 0.250000 0.250000
O O11 0.229312 0.140717 0.238520
O O12 0.236494 0.200269 0.000000
O O13 0.265992 0.132298 0.500000
#
# Coordination Sequence:
#
# PCOD8294000 Si02
#       7
#     8  16   8  16   8   8  16
#     4  12  22  33  50  68  98 131 166 216 250 288
#     4   9  18  34  49  67  95 125 160 205 251 292
#     4  11  22  32  46  62  92 132 176 209 236 282
#     4   9  18  33  53  71  92 122 158 204 256 304
#     4  11  22  34  44  64  92 134 176 207 244 276
#     4  12  20  33  48  68  94 129 166 210 250 282
#     4  10  20  35  50  69  97 126 165 210 251 296
#
# _framework density 15.815071
#
# number of rings (size 3 to 8) (size 9 to 14) (size 15 to 20)
#    0.000    1.800    2.000    5.400    1.400    1.600 
#    9.000    0.000    0.000    0.000    0.000    0.000 
#    0.000    0.800    0.000    6.200    0.000    1.400 
#
# Total GULP energy -495660.896384 kJ/mol
# GULP energy per Si atom -12391.522410 kJ/mol
# Density = 1.577908 g / cm^3
# Si number density = 15.815071 Si / 1000 Ang^3
#
#
#
# Elastic Constant Matrix: (Units=GPa)
#
#
# Indices 1 2 3 4 5 6 
#
# 1 66.7928 33.5463 26.7433 0.0000 0.0000 0.0000
# 2 33.5463 54.3011 18.6416 0.0000 0.0000 0.0000
# 3 26.7433 18.6416 92.7063 0.0000 0.0000 0.0000
# 4 0.0000 0.0000 0.0000 28.1635 0.0000 0.0000
# 5 0.0000 0.0000 0.0000 0.0000 13.7462 0.0000
# 6 0.0000 0.0000 0.0000 0.0000 0.0000 21.4019
#
#
#
# Elastic Compliance Matrix: (Units=1/GPa)
#
#
# Indices 1 2 3 4 5 6 
#
# 1 0.023051 -0.012844 -0.004067 0.000000 0.000000 0.000000
# 2 -0.012844 0.026938 -0.001712 0.000000 0.000000 0.000000
# 3 -0.004067 -0.001712 0.012304 0.000000 0.000000 0.000000
# 4 0.000000 0.000000 0.000000 0.035507 0.000000 0.000000
# 5 0.000000 0.000000 0.000000 0.000000 0.072747 0.000000
# 6 0.000000 0.000000 0.000000 0.000000 0.000000 0.046725
#
#
# Mechanical properties :
#
#
# Convention : Reuss Voigt Hill
#
# Bulk Modulus (GPa) = 39.92339 41.29584 40.60962
# Shear Modulus (GPa) = 19.02098 21.65358 20.33728
#
# Velocity S-wave (km/s) = 3.47178 3.70425 3.58990
# Velocity P-wave (km/s) = 6.43193 6.66811 6.55108
#
# Compressibility (1/GPa) = 0.02504797
#
# Stress axis : x y z
#
# Youngs Moduli (GPa) = 43.38197 37.12163 81.27374
#
# Poissons Ratio (x) = 0.47681 0.33053
# Poissons Ratio (y) = 0.55722 0.13911
# Poissons Ratio (z) = 0.17643 0.06354
#
# Static dielectric constant tensor:
#      x y z
#    x 3.317110 0.000000 0.000000 
#    y 0.000000 3.257180 0.000000 
#    z 0.000000 0.000000 3.226590 
# 
# 
# High freq. dielectric constant tensor:
#      x y z
#    x 1.579310 0.000000 0.000000 
#    y 0.000000 1.581950 0.000000 
#    z 0.000000 0.000000 1.623400 
# 
# From -- ./inp_files/5743.got.cif
#   From: 2010.03.12/outbox.cif.g09.slc.cpg/sg72_3_cif.got.tgz:5743.got - 2010.04.16 14:54:00.
