data_PCOD8294994
_publ_section_title
;
Structure prediction by ZEFSAII (Michael W. Deem and Ramdas Pophale) SiO2 
 PCOD8294994
Probable space group: I B A M
;
_chemical_formula_sum "Si O2"
_cell_formula_units_Z 96
_cell_length_a 22.374251
_cell_length_b 9.397597
_cell_length_c 21.410063
_cell_angle_alpha 90.000000
_cell_angle_beta 90.000000
_cell_angle_gamma 90.000000
_cell_volume 4501.769642
_symmetry_space_group_name_H-M "I B A M"
_symmetry_group_IT_number 72
_symmetry_cell_setting 'orthorhombic'
loop_
_space_group_symop_operation_xyz
x,y,z
-x,-y,z
x,-y,1/2-z
-x,y,1/2-z
-x,-y,-z
x,y,-z
-x,y,1/2+z
x,-y,1/2+z
1/2+x,1/2+y,1/2+z
1/2-x,1/2-y,1/2+z
1/2+x,1/2-y,-z
1/2-x,1/2+y,-z
1/2-x,1/2-y,1/2-z
1/2+x,1/2+y,1/2-z
1/2-x,1/2+y,z
1/2+x,1/2-y,z
loop_
_atom_site_type_symbol
_atom_site_label
_atom_site_fract_x
_atom_site_fract_y
_atom_site_fract_z
Si Si1 0.365762 0.819983 0.695284
Si Si2 0.044400 0.806183 0.572289
Si Si3 0.379165 0.132302 0.333521
Si Si4 0.580732 0.387354 0.398569
Si Si5 0.740192 0.702191 0.642972
Si Si6 0.708155 0.566329 0.933162
O O1 0.398211 0.841145 0.761838
O O2 0.399854 0.684817 0.666499
O O3 0.293454 0.794896 0.694949
O O4 0.373410 0.963731 0.654070
O O5 0.067543 0.803772 0.500000
O O6 0.074660 0.682643 0.613282
O O7 0.972275 0.792513 0.570968
O O8 0.059394 0.950344 0.609572
O O9 0.317171 0.215972 0.332683
O O10 0.638369 0.397731 0.442221
O O11 0.721681 0.543057 0.622912
O O12 0.760793 0.783967 0.580945
O O13 0.731789 0.509308 0.000000
#
# Coordination Sequence:
#
# PCOD8294994 Si02
#       6
#    16  16  16  16  16  16
#     4  10  24  43  62  93 128 168 214 259 318 370
#     4  11  23  42  68  94 125 165 213 265 319 377
#     4  11  23  42  65  90 128 168 214 263 312 378
#     4  10  22  41  64  92 126 166 208 260 322 367
#     4  11  21  39  59  92 127 167 209 259 315 375
#     4  11  21  36  61  91 130 169 208 256 316 381
#
# _framework density 21.324947000000002
#
# number of rings (size 3 to 8) (size 9 to 14) (size 15 to 20)
#    0.000    1.333    3.333    3.000    0.000    2.667 
#    0.000    6.667    0.000    0.000    0.000    0.000 
#    0.000    0.000    0.000    0.000    0.000    0.000 
#
# Total GULP energy -594668.981288 kJ/mol
# GULP energy per Si atom -12388.937110 kJ/mol
# Density = 2.127641 g / cm^3
# Si number density = 21.324947 Si / 1000 Ang^3
#
#
#
# Elastic Constant Matrix: (Units=GPa)
#
#
# Indices 1 2 3 4 5 6 
#
# 1 87.2200 38.6468 30.4356 0.0000 0.0000 0.0000
# 2 38.6468 93.5174 33.1853 0.0000 0.0000 0.0000
# 3 30.4356 33.1853 86.6975 0.0000 0.0000 0.0000
# 4 0.0000 0.0000 0.0000 -36.7217 0.0000 0.0000
# 5 0.0000 0.0000 0.0000 0.0000 -18.0198 0.0000
# 6 0.0000 0.0000 0.0000 0.0000 0.0000 28.5018
#
#
#
# Elastic Compliance Matrix: (Units=1/GPa)
#
#
# Indices 1 2 3 4 5 6 
#
# 1 0.014811 -0.004948 -0.003306 0.000000 0.000000 0.000000
# 2 -0.004948 0.014027 -0.003632 0.000000 0.000000 0.000000
# 3 -0.003306 -0.003632 0.014085 0.000000 0.000000 0.000000
# 4 0.000000 0.000000 0.000000 -0.027232 0.000000 0.000000
# 5 0.000000 0.000000 0.000000 0.000000 -0.055495 0.000000
# 6 0.000000 0.000000 0.000000 0.000000 0.000000 0.035086
#
#
# Mechanical properties :
#
#
# Convention : Reuss Voigt Hill
#
# Bulk Modulus (GPa) = 52.21410 52.44116 52.32763
# Shear Modulus (GPa) = 196.56305 5.76320 101.16312
#
# Velocity S-wave (km/s) = 9.61121 1.64573 6.89506
# Velocity P-wave (km/s) = 12.15340 5.31565 9.37980
#
# Compressibility (1/GPa) = 0.01915191
#
# Stress axis : x y z
#
# Youngs Moduli (GPa) = 67.51683 71.29214 70.99705
#
# Poissons Ratio (x) = 0.35274 0.23469
# Poissons Ratio (y) = 0.33406 0.25787
# Poissons Ratio (z) = 0.22319 0.25894
#
# Static dielectric constant tensor:
#      x y z
#    x 4.215740 0.000000 0.000000 
#    y 0.000000 3.845250 0.000000 
#    z 0.000000 0.000000 3.708580 
# 
# 
# High freq. dielectric constant tensor:
#      x y z
#    x 1.838460 0.000000 0.000000 
#    y 0.000000 1.837130 0.000000 
#    z 0.000000 0.000000 1.821280 
# 
# From -- ./inp_files/45658.got.cif
#   From: 2010.03.12/outbox.cif.g09.slc.cpg/sg72_23_cif.got.tgz:45658.got - 2010.04.16 14:54:00.
