data_PCOD8294503
_publ_section_title
;
Structure prediction by ZEFSAII (Michael W. Deem and Ramdas Pophale) SiO2 
 PCOD8294503
Probable space group: I B A M
;
_chemical_formula_sum "Si O2"
_cell_formula_units_Z 112
_cell_length_a 17.268035
_cell_length_b 18.479978
_cell_length_c 18.189486
_cell_angle_alpha 90.000000
_cell_angle_beta 90.000000
_cell_angle_gamma 90.000000
_cell_volume 5804.499753
_symmetry_space_group_name_H-M "I B A M"
_symmetry_group_IT_number 72
_symmetry_cell_setting 'orthorhombic'
loop_
_space_group_symop_operation_xyz
x,y,z
-x,-y,z
x,-y,1/2-z
-x,y,1/2-z
-x,-y,-z
x,y,-z
-x,y,1/2+z
x,-y,1/2+z
1/2+x,1/2+y,1/2+z
1/2-x,1/2-y,1/2+z
1/2+x,1/2-y,-z
1/2-x,1/2+y,-z
1/2-x,1/2-y,1/2-z
1/2+x,1/2+y,1/2-z
1/2-x,1/2+y,z
1/2+x,1/2-y,z
loop_
_atom_site_type_symbol
_atom_site_label
_atom_site_fract_x
_atom_site_fract_y
_atom_site_fract_z
Si Si1 0.046831 0.068720 0.086712
Si Si2 0.199522 0.252084 0.824220
Si Si3 0.370022 0.964785 0.416152
Si Si4 0.974383 0.663632 0.417415
Si Si5 0.712109 0.385175 0.083392
Si Si6 0.851235 0.377540 0.582645
Si Si7 0.022761 0.790464 0.329054
O O1 0.137322 0.069207 0.111341
O O2 0.012055 0.143760 0.114939
O O3 0.037203 0.067209 0.000000
O O4 0.000000 0.000000 0.120508
O O5 0.250000 0.250000 0.750000
O O6 0.232456 0.187619 0.873648
O O7 0.206693 0.329726 0.866413
O O8 0.108743 0.239011 0.814817
O O9 0.395843 0.976785 0.500000
O O10 0.432784 0.908023 0.382890
O O11 0.283957 0.936895 0.407629
O O12 0.367406 0.044105 0.379015
O O13 0.939761 0.678649 0.500000
O O14 0.066039 0.659446 0.424972
O O15 0.962934 0.729574 0.360245
O O16 0.697044 0.360867 0.000000
O O17 0.814836 0.385115 0.500000
O O18 0.000000 0.819646 0.250000
#
# Coordination Sequence:
#
# PCOD8294503 Si02
#       7
#    16  16  16  16  16  16  16
#     4   9  18  36  59  79 102 136 181 229 274 320
#     4  10  21  36  54  74 107 147 181 216 264 323
#     4   9  17  30  53  84 111 132 168 224 272 316
#     4   9  17  31  55  81 107 140 177 217 268 322
#     4   9  18  34  55  79 105 137 174 221 275 319
#     4   9  17  33  56  80 105 139 181 222 266 319
#     4  10  21  35  54  78 108 143 180 222 263 321
#
# _framework density 19.295375
#
# number of rings (size 3 to 8) (size 9 to 14) (size 15 to 20)
#    0.000    2.714    0.000    1.286    2.000    5.429 
#    2.571    0.714    0.000    0.857    0.000    0.000 
#    0.000    0.000    0.000    0.000    0.000    0.000 
#
# Total GULP energy -693780.200921 kJ/mol
# GULP energy per Si atom -12388.932159 kJ/mol
# Density = 1.925146 g / cm^3
# Si number density = 19.295375 Si / 1000 Ang^3
#
#
#
# Elastic Constant Matrix: (Units=GPa)
#
#
# Indices 1 2 3 4 5 6 
#
# 1 43.0912 42.3496 28.2553 0.0000 0.0000 0.0000
# 2 42.3496 126.5840 39.8984 0.0000 0.0000 0.0000
# 3 28.2553 39.8984 48.9990 0.0000 0.0000 0.0000
# 4 0.0000 0.0000 0.0000 9.4504 0.0000 0.0000
# 5 0.0000 0.0000 0.0000 0.0000 23.2160 0.0000
# 6 0.0000 0.0000 0.0000 0.0000 0.0000 24.1830
#
#
#
# Elastic Compliance Matrix: (Units=1/GPa)
#
#
# Indices 1 2 3 4 5 6 
#
# 1 0.043818 -0.009007 -0.017933 0.000000 0.000000 0.000000
# 2 -0.009007 0.012479 -0.004967 0.000000 0.000000 0.000000
# 3 -0.017933 -0.004967 0.034794 0.000000 0.000000 0.000000
# 4 0.000000 0.000000 0.000000 0.105816 0.000000 0.000000
# 5 0.000000 0.000000 0.000000 0.000000 0.043074 0.000000
# 6 0.000000 0.000000 0.000000 0.000000 0.000000 0.041351
#
#
# Mechanical properties :
#
#
# Convention : Reuss Voigt Hill
#
# Bulk Modulus (GPa) = 36.66248 48.85343 42.75796
# Shear Modulus (GPa) = 14.11476 18.58128 16.34802
#
# Velocity S-wave (km/s) = 2.70758 3.10658 2.91391
# Velocity P-wave (km/s) = 5.36810 6.18397 5.79042
#
# Compressibility (1/GPa) = 0.02727584
#
# Stress axis : x y z
#
# Youngs Moduli (GPa) = 22.82191 80.13510 28.74026
#
# Poissons Ratio (x) = 0.72178 0.51540
# Poissons Ratio (y) = 0.20556 0.14276
# Poissons Ratio (z) = 0.40927 0.39805
#
# Static dielectric constant tensor:
#      x y z
#    x 3.445910 0.000000 0.000000 
#    y 0.000000 3.802000 0.000000 
#    z 0.000000 0.000000 3.431420 
# 
# 
# High freq. dielectric constant tensor:
#      x y z
#    x 1.737690 0.000000 0.000000 
#    y 0.000000 1.758440 0.000000 
#    z 0.000000 0.000000 1.722600 
# 
# From -- ./inp_files/39216.got.cif
#   From: 2010.03.12/outbox.cif.g09.slc.cpg/sg72_20_cif.got.tgz:39216.got - 2010.04.16 14:54:00.
