data_PCOD8294975
_publ_section_title
;
Structure prediction by ZEFSAII (Michael W. Deem and Ramdas Pophale) SiO2 
 PCOD8294975
Probable space group: I B A M
;
_chemical_formula_sum "Si O2"
_cell_formula_units_Z 64
_cell_length_a 12.090438
_cell_length_b 24.983541
_cell_length_c 9.879452
_cell_angle_alpha 90.000000
_cell_angle_beta 90.000000
_cell_angle_gamma 90.000000
_cell_volume 2984.206570
_symmetry_space_group_name_H-M "I B A M"
_symmetry_group_IT_number 72
_symmetry_cell_setting 'orthorhombic'
loop_
_space_group_symop_operation_xyz
x,y,z
-x,-y,z
x,-y,1/2-z
-x,y,1/2-z
-x,-y,-z
x,y,-z
-x,y,1/2+z
x,-y,1/2+z
1/2+x,1/2+y,1/2+z
1/2-x,1/2-y,1/2+z
1/2+x,1/2-y,-z
1/2-x,1/2+y,-z
1/2-x,1/2-y,1/2-z
1/2+x,1/2+y,1/2-z
1/2-x,1/2+y,z
1/2+x,1/2-y,z
loop_
_atom_site_type_symbol
_atom_site_label
_atom_site_fract_x
_atom_site_fract_y
_atom_site_fract_z
Si Si1 0.840838 0.547494 0.847036
Si Si2 0.172648 0.144520 0.000000
Si Si3 0.900820 0.699303 0.500000
Si Si4 0.877656 0.094283 0.773565
Si Si5 0.500000 0.861567 0.250000
Si Si6 0.430888 0.677142 0.500000
O O1 0.881904 0.500000 0.750000
O O2 0.706914 0.552980 0.843671
O O3 0.897631 0.602336 0.799100
O O4 0.876939 0.533474 0.000000
O O5 0.177887 0.106797 0.869678
O O6 0.274093 0.183811 0.000000
O O7 0.062986 0.180057 0.000000
O O8 0.890218 0.762809 0.500000
O O9 0.963020 0.677316 0.630711
O O10 0.000000 0.068710 0.750000
O O11 0.888135 0.147261 0.865656
#
# Coordination Sequence:
#
# PCOD8294975 Si02
#       6
#    16   8   8  16   8   8
#     4  12  27  46  71  97 136 181 228 287 349 403
#     4  10  22  40  66  91 136 178 217 274 342 396
#     4  12  26  42  69 100 138 182 235 275 344 411
#     4  10  22  44  67  97 137 173 225 281 338 406
#     4  12  27  46  66 100 138 178 235 284 334 424
#     4  10  24  42  66 104 139 181 222 285 340 402
#
# _framework density 21.446237
#
# number of rings (size 3 to 8) (size 9 to 14) (size 15 to 20)
#    0.000    1.000    5.000    0.375    8.750    4.500 
#    0.000    1.250    0.000    0.000    0.000    0.000 
#    0.000    0.000    0.000    0.000    0.000    0.000 
#
# Total GULP energy -396896.385176 kJ/mol
# GULP energy per Si atom -12403.012037 kJ/mol
# Density = 2.139742 g / cm^3
# Si number density = 21.446237 Si / 1000 Ang^3
#
#
#
# Elastic Constant Matrix: (Units=GPa)
#
#
# Indices 1 2 3 4 5 6 
#
# 1 81.6793 5.1163 21.9529 0.0003 0.0001 -0.0001
# 2 5.1163 61.7712 35.5087 -0.0001 -0.0003 -0.0001
# 3 21.9529 35.5087 171.9187 -0.0007 -0.0009 0.0001
# 4 0.0003 -0.0001 -0.0007 31.6233 -0.0007 0.0000
# 5 0.0001 -0.0003 -0.0009 -0.0007 33.1648 0.0000
# 6 -0.0001 -0.0001 0.0001 0.0000 0.0000 23.0111
#
#
#
# Elastic Compliance Matrix: (Units=1/GPa)
#
#
# Indices 1 2 3 4 5 6 
#
# 1 0.012679 -0.000136 -0.001591 0.000000 0.000000 0.000000
# 2 -0.000136 0.018371 -0.003777 0.000000 0.000000 0.000000
# 3 -0.001591 -0.003777 0.006800 0.000000 0.000000 0.000000
# 4 0.000000 0.000000 0.000000 0.031622 0.000001 0.000000
# 5 0.000000 0.000000 0.000000 0.000001 0.030152 0.000000
# 6 0.000000 0.000000 0.000000 0.000000 0.000000 0.043457
#
#
# Mechanical properties :
#
#
# Convention : Reuss Voigt Hill
#
# Bulk Modulus (GPa) = 37.25384 48.94722 43.10053
# Shear Modulus (GPa) = 30.66779 34.41260 32.54020
#
# Velocity S-wave (km/s) = 3.78562 4.01009 3.89947
# Velocity P-wave (km/s) = 6.04288 6.65687 6.35729
#
# Compressibility (1/GPa) = 0.02684287
#
# Stress axis : x y z
#
# Youngs Moduli (GPa) = 78.86979 54.43285 147.05854
#
# Poissons Ratio (x) = 0.00738 0.23398
# Poissons Ratio (y) = 0.01069 0.55546
# Poissons Ratio (z) = 0.12549 0.20560
#
# Static dielectric constant tensor:
#      x y z
#    x 4.036420 0.000000 0.000000 
#    y 0.000000 3.465380 0.000000 
#    z 0.000000 0.000000 4.215420 
# 
# 
# High freq. dielectric constant tensor:
#      x y z
#    x 1.859030 0.000000 0.000000 
#    y 0.000000 1.815480 0.000000 
#    z 0.000000 0.000000 1.864850 
# 
# From -- ./inp_files/2685.got.cif
#   From: 2010.03.12/outbox.cif.g09.slc.cpg/sg72_2_cif.got.tgz:2685.got - 2010.04.16 14:54:00.
