data_PCOD8294867
_publ_section_title
;
Structure prediction by ZEFSAII (Michael W. Deem and Ramdas Pophale) SiO2 
 PCOD8294867
Probable space group: I B A M
;
_chemical_formula_sum "Si O2"
_cell_formula_units_Z 96
_cell_length_a 21.612671
_cell_length_b 9.765585
_cell_length_c 24.794797
_cell_angle_alpha 90.000000
_cell_angle_beta 90.000000
_cell_angle_gamma 90.000000
_cell_volume 5233.199171
_symmetry_space_group_name_H-M "I B A M"
_symmetry_group_IT_number 72
_symmetry_cell_setting 'orthorhombic'
loop_
_space_group_symop_operation_xyz
x,y,z
-x,-y,z
x,-y,1/2-z
-x,y,1/2-z
-x,-y,-z
x,y,-z
-x,y,1/2+z
x,-y,1/2+z
1/2+x,1/2+y,1/2+z
1/2-x,1/2-y,1/2+z
1/2+x,1/2-y,-z
1/2-x,1/2+y,-z
1/2-x,1/2-y,1/2-z
1/2+x,1/2+y,1/2-z
1/2-x,1/2+y,z
1/2+x,1/2-y,z
loop_
_atom_site_type_symbol
_atom_site_label
_atom_site_fract_x
_atom_site_fract_y
_atom_site_fract_z
Si Si1 0.687074 0.909116 0.063519
Si Si2 0.247093 0.152944 0.621630
Si Si3 0.067477 0.485986 0.622107
Si Si4 0.130960 0.728043 0.675680
Si Si5 0.862979 0.029128 0.189406
Si Si6 0.063925 0.720450 0.219029
O O1 0.721586 0.779628 0.088092
O O2 0.615735 0.910422 0.083117
O O3 0.722017 0.046965 0.080408
O O4 0.687675 0.895588 0.000000
O O5 0.296486 0.205586 0.665366
O O6 0.193107 0.081170 0.653972
O O7 0.090415 0.638805 0.634735
O O8 0.059675 0.404072 0.677883
O O9 0.000000 0.500000 0.594095
O O10 0.117608 0.686203 0.737675
O O11 0.112184 0.886125 0.664850
O O12 0.918823 0.138696 0.188292
O O13 0.838969 0.000000 0.250000
O O14 0.000000 0.742336 0.250000
#
# Coordination Sequence:
#
# PCOD8294867 Si02
#       6
#    16  16  16  16  16  16
#     4  11  24  41  66  88 113 158 208 261 308 349
#     4  11  21  41  60  88 122 154 201 252 307 359
#     4  11  22  39  61  89 120 157 201 251 300 354
#     4  10  22  34  57  86 123 158 195 238 290 367
#     4  10  22  36  55  89 125 160 192 236 295 363
#     4  11  21  37  57  86 122 165 201 231 292 366
#
# _framework density 18.34442
#
# number of rings (size 3 to 8) (size 9 to 14) (size 15 to 20)
#    0.000    1.333    5.000    1.000    0.000    8.667 
#    0.000    0.000    0.000    0.000    0.000    1.167 
#    0.000    0.000    0.000    0.000    0.000    0.000 
#
# Total GULP energy -595237.271534 kJ/mol
# GULP energy per Si atom -12400.776490 kJ/mol
# Density = 1.830267 g / cm^3
# Si number density = 18.344420 Si / 1000 Ang^3
#
#
#
# Elastic Constant Matrix: (Units=GPa)
#
#
# Indices 1 2 3 4 5 6 
#
# 1 129.4792 49.5314 44.8885 0.0000 0.0000 0.0000
# 2 49.5314 104.9252 24.2542 0.0000 0.0000 0.0000
# 3 44.8885 24.2542 58.5771 0.0000 0.0000 0.0000
# 4 0.0000 0.0000 0.0000 18.9532 0.0000 0.0000
# 5 0.0000 0.0000 0.0000 0.0000 19.8161 0.0000
# 6 0.0000 0.0000 0.0000 0.0000 0.0000 23.5175
#
#
#
# Elastic Compliance Matrix: (Units=1/GPa)
#
#
# Indices 1 2 3 4 5 6 
#
# 1 0.011766 -0.003837 -0.007428 0.000000 0.000000 0.000000
# 2 -0.003837 0.011791 -0.001941 0.000000 0.000000 0.000000
# 3 -0.007428 -0.001941 0.023567 0.000000 0.000000 0.000000
# 4 0.000000 0.000000 0.000000 0.052761 0.000000 0.000000
# 5 0.000000 0.000000 0.000000 0.000000 0.050464 0.000000
# 6 0.000000 0.000000 0.000000 0.000000 0.000000 0.042522
#
#
# Mechanical properties :
#
#
# Convention : Reuss Voigt Hill
#
# Bulk Modulus (GPa) = 48.28272 58.92551 53.60412
# Shear Modulus (GPa) = 22.10543 24.07786 23.09164
#
# Velocity S-wave (km/s) = 3.47511 3.62684 3.55178
# Velocity P-wave (km/s) = 6.51760 7.05196 6.79004
#
# Compressibility (1/GPa) = 0.02071134
#
# Stress axis : x y z
#
# Youngs Moduli (GPa) = 84.98804 84.81117 42.43147
#
# Poissons Ratio (x) = 0.32546 0.31517
# Poissons Ratio (y) = 0.32614 0.08238
# Poissons Ratio (z) = 0.63128 0.16465
#
# Static dielectric constant tensor:
#      x y z
#    x 3.575230 0.000000 0.000000 
#    y 0.000000 3.694050 0.000000 
#    z 0.000000 0.000000 3.157860 
# 
# 
# High freq. dielectric constant tensor:
#      x y z
#    x 1.717760 0.000000 0.000000 
#    y 0.000000 1.732150 0.000000 
#    z 0.000000 0.000000 1.680910 
# 
# From -- ./inp_files/42442.got.cif
#   From: 2010.03.12/outbox.cif.g09.slc.cpg/sg72_22_cif.got.tgz:42442.got - 2010.04.16 14:54:00.
