data_PCOD8294184
_publ_section_title
;
Structure prediction by ZEFSAII (Michael W. Deem and Ramdas Pophale) SiO2 
 PCOD8294184
Probable space group: I B A M
;
_chemical_formula_sum "Si O2"
_cell_formula_units_Z 96
_cell_length_a 13.475882
_cell_length_b 18.536116
_cell_length_c 16.790883
_cell_angle_alpha 90.000000
_cell_angle_beta 90.000000
_cell_angle_gamma 90.000000
_cell_volume 4194.203261
_symmetry_space_group_name_H-M "I B A M"
_symmetry_group_IT_number 72
_symmetry_cell_setting 'orthorhombic'
loop_
_space_group_symop_operation_xyz
x,y,z
-x,-y,z
x,-y,1/2-z
-x,y,1/2-z
-x,-y,-z
x,y,-z
-x,y,1/2+z
x,-y,1/2+z
1/2+x,1/2+y,1/2+z
1/2-x,1/2-y,1/2+z
1/2+x,1/2-y,-z
1/2-x,1/2+y,-z
1/2-x,1/2-y,1/2-z
1/2+x,1/2+y,1/2-z
1/2-x,1/2+y,z
1/2+x,1/2-y,z
loop_
_atom_site_type_symbol
_atom_site_label
_atom_site_fract_x
_atom_site_fract_y
_atom_site_fract_z
Si Si1 0.271899 0.653213 0.412354
Si Si2 0.462634 0.853589 0.588732
Si Si3 0.383736 0.973552 0.087762
Si Si4 0.622773 0.208518 0.808428
Si Si5 0.304055 0.903290 0.312726
Si Si6 0.389460 0.638727 0.263611
O O1 0.314231 0.674020 0.500000
O O2 0.184971 0.595813 0.421922
O O3 0.215499 0.720565 0.369237
O O4 0.361181 0.624779 0.355994
O O5 0.477185 0.824702 0.500000
O O6 0.504536 0.937299 0.600688
O O7 0.517883 0.797573 0.646643
O O8 0.346317 0.856022 0.612357
O O9 0.338254 0.015508 0.164866
O O10 0.378643 0.013883 0.000000
O O11 0.642452 0.131572 0.764396
O O12 0.617642 0.275743 0.750073
O O13 0.185264 0.900794 0.298867
O O14 0.500000 0.608319 0.250000
#
# Coordination Sequence:
#
# PCOD8294184 Si02
#       6
#    16  16  16  16  16  16
#     4   9  19  39  63  82 109 152 193 232 293 361
#     4  10  20  36  59  87 123 157 183 225 296 369
#     4   9  19  36  58  89 125 150 179 234 299 360
#     4  10  21  38  57  84 118 151 191 240 292 348
#     4  11  20  34  59  85 111 151 195 234 285 348
#     4  11  24  42  57  79 118 157 201 253 289 324
#
# _framework density 22.888732999999998
#
# number of rings (size 3 to 8) (size 9 to 14) (size 15 to 20)
#    0.000    2.000    0.000    6.000    0.000    7.333 
#    0.000   21.667    0.000    2.000    0.000    0.000 
#    0.000    0.000    0.000    0.000    0.000    0.000 
#
# Total GULP energy -594649.080084 kJ/mol
# GULP energy per Si atom -12388.522502 kJ/mol
# Density = 2.283664 g / cm^3
# Si number density = 22.888733 Si / 1000 Ang^3
#
#
#
# Elastic Constant Matrix: (Units=GPa)
#
#
# Indices 1 2 3 4 5 6 
#
# 1 168.0984 4.8826 62.1104 0.0000 0.0000 0.0000
# 2 4.8826 43.6098 26.7575 0.0000 0.0000 0.0000
# 3 62.1104 26.7575 140.2831 -0.0001 0.0000 0.0000
# 4 0.0000 0.0000 -0.0001 22.1324 0.0000 0.0000
# 5 0.0000 0.0000 0.0000 0.0000 23.8702 0.0000
# 6 0.0000 0.0000 0.0000 0.0000 0.0000 17.5072
#
#
#
# Elastic Compliance Matrix: (Units=1/GPa)
#
#
# Indices 1 2 3 4 5 6 
#
# 1 0.007177 0.001298 -0.003425 0.000000 0.000000 0.000000
# 2 0.001298 0.026205 -0.005573 0.000000 0.000000 0.000000
# 3 -0.003425 -0.005573 0.009708 0.000000 0.000000 0.000000
# 4 0.000000 0.000000 0.000000 0.045183 0.000000 0.000000
# 5 0.000000 0.000000 0.000000 0.000000 0.041893 0.000000
# 6 0.000000 0.000000 0.000000 0.000000 0.000000 0.057119
#
#
# Mechanical properties :
#
#
# Convention : Reuss Voigt Hill
#
# Bulk Modulus (GPa) = 36.11514 59.94359 48.02937
# Shear Modulus (GPa) = 23.59446 29.91802 26.75624
#
# Velocity S-wave (km/s) = 3.21414 3.61932 3.42273
# Velocity P-wave (km/s) = 5.43940 6.61150 6.05388
#
# Compressibility (1/GPa) = 0.02768922
#
# Stress axis : x y z
#
# Youngs Moduli (GPa) = 139.33942 38.16110 103.00918
#
# Poissons Ratio (x) = -0.04953 0.35281
# Poissons Ratio (y) = -0.18086 0.57407
# Poissons Ratio (z) = 0.47725 0.21267
#
# Static dielectric constant tensor:
#      x y z
#    x 4.339040 0.000000 0.000000 
#    y 0.000000 3.884960 0.000000 
#    z 0.000000 0.000000 4.731480 
# 
# 
# High freq. dielectric constant tensor:
#      x y z
#    x 1.895920 0.000000 0.000000 
#    y 0.000000 1.875240 0.000000 
#    z 0.000000 0.000000 1.916490 
# 
# From -- ./inp_files/21881.got.cif
#   From: 2010.03.12/outbox.cif.g09.slc.cpg/sg72_11_cif.got.tgz:21881.got - 2010.04.16 14:54:00.
