data_PCOD8294587
_publ_section_title
;
Structure prediction by ZEFSAII (Michael W. Deem and Ramdas Pophale) SiO2 
 PCOD8294587
Probable space group: I B A M
;
_chemical_formula_sum "Si O2"
_cell_formula_units_Z 104
_cell_length_a 9.485272
_cell_length_b 18.479782
_cell_length_c 29.365209
_cell_angle_alpha 90.000000
_cell_angle_beta 90.000000
_cell_angle_gamma 90.000000
_cell_volume 5147.302941
_symmetry_space_group_name_H-M "I B A M"
_symmetry_group_IT_number 72
_symmetry_cell_setting 'orthorhombic'
loop_
_space_group_symop_operation_xyz
x,y,z
-x,-y,z
x,-y,1/2-z
-x,y,1/2-z
-x,-y,-z
x,y,-z
-x,y,1/2+z
x,-y,1/2+z
1/2+x,1/2+y,1/2+z
1/2-x,1/2-y,1/2+z
1/2+x,1/2-y,-z
1/2-x,1/2+y,-z
1/2-x,1/2-y,1/2-z
1/2+x,1/2+y,1/2-z
1/2-x,1/2+y,z
1/2+x,1/2-y,z
loop_
_atom_site_type_symbol
_atom_site_label
_atom_site_fract_x
_atom_site_fract_y
_atom_site_fract_z
Si Si1 0.752312 0.660568 0.000000
Si Si2 0.613555 0.405118 0.081869
Si Si3 0.782666 0.000000 0.250000
Si Si4 0.121320 0.268854 0.218767
Si Si5 0.923578 0.804058 0.000000
Si Si6 0.433876 0.387143 0.682933
Si Si7 0.212229 0.056278 0.421697
Si Si8 0.263603 0.096084 0.674225
O O1 0.870022 0.722315 0.000000
O O2 0.784647 0.608625 0.042314
O O3 0.593940 0.693253 0.000000
O O4 0.652276 0.390159 0.134948
O O5 0.449516 0.422019 0.082486
O O6 0.710903 0.471701 0.064423
O O7 0.639470 0.340495 0.046003
O O8 0.871710 0.939941 0.221528
O O9 0.682359 0.956920 0.285485
O O10 0.250000 0.250000 0.250000
O O11 0.064084 0.196195 0.196695
O O12 0.169085 0.324758 0.179766
O O13 0.000000 0.304497 0.250000
O O14 0.594976 0.409426 0.677631
O O15 0.302479 0.067114 0.375585
#
# Coordination Sequence:
#
# PCOD8294587 Si02
#       8
#     8  16   8  16   8  16  16  16
#     4  10  21  37  59  87 119 146 182 234 292 344
#     4   9  18  33  57  85 113 142 190 241 284 329
#     4  12  19  32  57  84 113 144 193 234 277 336
#     4  12  23  38  53  78 113 154 186 230 287 334
#     4  10  21  37  57  89 115 148 184 234 292 346
#     4  11  20  33  56  85 110 146 192 238 279 335
#     4   9  18  34  57  87 111 144 188 241 286 327
#     4  11  21  34  57  83 112 147 192 237 280 333
#
# _framework density 20.204757000000001
#
# number of rings (size 3 to 8) (size 9 to 14) (size 15 to 20)
#    0.000    1.538    4.615    1.846    2.154    1.846 
#    0.000    0.385    0.000    1.846    0.000    0.000 
#    0.000    0.000    0.000    0.000    0.000    0.000 
#
# Total GULP energy -644390.082076 kJ/mol
# GULP energy per Si atom -12392.116963 kJ/mol
# Density = 2.015877 g / cm^3
# Si number density = 20.204757 Si / 1000 Ang^3
#
#
#
# Elastic Constant Matrix: (Units=GPa)
#
#
# Indices 1 2 3 4 5 6 
#
# 1 26.6885 2.6688 13.1327 0.0000 0.0000 0.0000
# 2 2.6688 97.0361 47.4135 0.0000 0.0000 0.0000
# 3 13.1327 47.4135 149.8538 0.0000 0.0000 0.0000
# 4 0.0000 0.0000 0.0000 37.2693 0.0000 0.0000
# 5 0.0000 0.0000 0.0000 0.0000 13.4486 0.0000
# 6 0.0000 0.0000 0.0000 0.0000 0.0000 24.6657
#
#
#
# Elastic Compliance Matrix: (Units=1/GPa)
#
#
# Indices 1 2 3 4 5 6 
#
# 1 0.039199 0.000710 -0.003660 0.000000 0.000000 0.000000
# 2 0.000710 0.012203 -0.003923 0.000000 0.000000 0.000000
# 3 -0.003660 -0.003923 0.008235 0.000000 0.000000 0.000000
# 4 0.000000 0.000000 0.000000 0.026832 0.000000 0.000000
# 5 0.000000 0.000000 0.000000 0.000000 0.074357 0.000000
# 6 0.000000 0.000000 0.000000 0.000000 0.000000 0.040542
#
#
# Mechanical properties :
#
#
# Convention : Reuss Voigt Hill
#
# Bulk Modulus (GPa) = 21.79058 44.44537 33.11798
# Shear Modulus (GPa) = 21.70033 29.10096 25.40064
#
# Velocity S-wave (km/s) = 3.28078 3.79925 3.54949
# Velocity P-wave (km/s) = 5.01594 6.42580 5.76414
#
# Compressibility (1/GPa) = 0.04589138
#
# Stress axis : x y z
#
# Youngs Moduli (GPa) = 25.51068 81.94803 121.42966
#
# Poissons Ratio (x) = -0.05820 0.44444
# Poissons Ratio (y) = -0.01812 0.47639
# Poissons Ratio (z) = 0.09337 0.32150
#
# Static dielectric constant tensor:
#      x y z
#    x 3.017430 0.000000 0.000000 
#    y 0.000000 3.700000 0.000000 
#    z 0.000000 0.000000 4.271870 
# 
# 
# High freq. dielectric constant tensor:
#      x y z
#    x 1.729450 0.000000 0.000000 
#    y 0.000000 1.798350 0.000000 
#    z 0.000000 0.000000 1.806070 
# 
# From -- ./inp_files/51537.got.cif
#   From: 2010.03.12/outbox.cif.g09.slc.cpg/sg72_26_cif.got.tgz:51537.got - 2010.04.16 14:54:00.
