data_PCOD8294153
_publ_section_title
;
Structure prediction by ZEFSAII (Michael W. Deem and Ramdas Pophale) SiO2 
 PCOD8294153
Probable space group: I B A M
;
_chemical_formula_sum "Si O2"
_cell_formula_units_Z 112
_cell_length_a 30.353450
_cell_length_b 14.111883
_cell_length_c 14.340832
_cell_angle_alpha 90.000000
_cell_angle_beta 90.000000
_cell_angle_gamma 90.000000
_cell_volume 6142.814147
_symmetry_space_group_name_H-M "I B A M"
_symmetry_group_IT_number 72
_symmetry_cell_setting 'orthorhombic'
loop_
_space_group_symop_operation_xyz
x,y,z
-x,-y,z
x,-y,1/2-z
-x,y,1/2-z
-x,-y,-z
x,y,-z
-x,y,1/2+z
x,-y,1/2+z
1/2+x,1/2+y,1/2+z
1/2-x,1/2-y,1/2+z
1/2+x,1/2-y,-z
1/2-x,1/2+y,-z
1/2-x,1/2-y,1/2-z
1/2+x,1/2+y,1/2-z
1/2-x,1/2+y,z
1/2+x,1/2-y,z
loop_
_atom_site_type_symbol
_atom_site_label
_atom_site_fract_x
_atom_site_fract_y
_atom_site_fract_z
Si Si1 0.325750 0.897672 0.750000
Si Si2 0.615735 0.797894 0.609190
Si Si3 0.449145 0.887247 0.750000
Si Si4 0.656537 0.605017 0.106667
Si Si5 0.384265 0.202106 0.109190
Si Si6 0.343463 0.394983 0.393333
Si Si7 0.730621 0.646105 0.250000
O O1 0.340788 0.842288 0.843109
O O2 0.340788 0.842288 0.656891
O O3 0.273847 0.918747 0.750000
O O4 0.349671 0.000000 0.750000
O O5 0.614559 0.823436 0.500000
O O6 0.572449 0.840680 0.657991
O O7 0.618901 0.684033 0.626694
O O8 0.500000 0.859333 0.750000
O O9 0.427551 0.840680 0.657991
O O10 0.442528 0.000000 0.750000
O O11 0.618901 0.684033 0.126694
O O12 0.638170 0.500000 0.133449
O O13 0.701531 0.626059 0.159875
O O14 0.670650 0.609452 0.000000
O O15 0.385441 0.176564 0.000000
O O16 0.329350 0.390548 0.500000
O O17 0.298469 0.373941 0.340125
O O18 0.750000 0.750000 0.250000
#
# Coordination Sequence:
#
# PCOD8294153 Si02
#       7
#    16  16  16  16  16  16  16
#     4  11  22  33  47  74 107 140 180 223 263 306
#     4  10  20  36  57  78 104 138 174 216 263 311
#     4  10  22  39  58  83 111 135 166 207 254 320
#     4  10  21  36  55  78 104 141 186 224 262 310
#     4  10  20  36  57  78 104 138 174 216 263 311
#     4  10  21  36  55  78 104 141 186 224 262 310
#     4  12  20  34  52  71 106 147 183 225 269 305
#
# _framework density 18.232685
#
# number of rings (size 3 to 8) (size 9 to 14) (size 15 to 20)
#    0.000    1.571    2.857    3.857    0.000    4.571 
#    0.000    1.429    0.000    1.714    0.000    4.000 
#    0.000    0.000    0.000    0.000    0.000    0.000 
#
# Total GULP energy -693998.378995 kJ/mol
# GULP energy per Si atom -12392.828196 kJ/mol
# Density = 1.819119 g / cm^3
# Si number density = 18.232685 Si / 1000 Ang^3
#
#
#
# Elastic Constant Matrix: (Units=GPa)
#
#
# Indices 1 2 3 4 5 6 
#
# 1 119.5476 46.3803 52.3458 0.0000 0.0000 0.0000
# 2 46.3803 166.8369 59.6540 0.0000 0.0000 0.0000
# 3 52.3458 59.6540 139.4649 0.0000 0.0000 0.0000
# 4 0.0000 0.0000 0.0000 24.7791 0.0000 0.0000
# 5 0.0000 0.0000 0.0000 0.0000 -5.5143 0.0000
# 6 0.0000 0.0000 0.0000 0.0000 0.0000 25.3470
#
#
#
# Elastic Compliance Matrix: (Units=1/GPa)
#
#
# Indices 1 2 3 4 5 6 
#
# 1 0.010435 -0.001771 -0.003159 0.000000 0.000000 0.000000
# 2 -0.001771 0.007377 -0.002490 0.000000 0.000000 0.000000
# 3 -0.003159 -0.002490 0.009421 0.000000 0.000000 0.000000
# 4 0.000000 0.000000 0.000000 0.040357 0.000000 0.000000
# 5 0.000000 0.000000 0.000000 0.000000 -0.181346 0.000000
# 6 0.000000 0.000000 0.000000 0.000000 0.000000 0.039452
#
#
# Mechanical properties :
#
#
# Convention : Reuss Voigt Hill
#
# Bulk Modulus (GPa) = 80.70029 82.51219 81.60624
# Shear Modulus (GPa) = -90.36424 26.75364 -31.80530
#
# Velocity S-wave (km/s) = -7.04764 3.83475 -4.18115
# Velocity P-wave (km/s) = 4.67635 8.05980 4.64177
#
# Compressibility (1/GPa) = 0.01239153
#
# Stress axis : x y z
#
# Youngs Moduli (GPa) = 95.82799 135.55979 106.14371
#
# Poissons Ratio (x) = 0.24014 0.33531
# Poissons Ratio (y) = 0.16976 0.26434
# Poissons Ratio (z) = 0.30272 0.33760
#
# Static dielectric constant tensor:
#      x y z
#    x 3.348790 0.000000 0.000000 
#    y 0.000000 3.891040 0.000000 
#    z 0.000000 0.000000 3.424600 
# 
# 
# High freq. dielectric constant tensor:
#      x y z
#    x 1.671870 0.000000 0.000000 
#    y 0.000000 1.734660 0.000000 
#    z 0.000000 0.000000 1.714900 
# 
# From -- ./inp_files/26525.got.cif
#   From: 2010.03.12/outbox.cif.g09.slc.cpg/sg72_14_cif.got.tgz:26525.got - 2010.04.16 14:54:00.
