data_PCOD8294935
_publ_section_title
;
Structure prediction by ZEFSAII (Michael W. Deem and Ramdas Pophale) SiO2 
 PCOD8294935
Probable space group: I B A M
;
_chemical_formula_sum "Si O2"
_cell_formula_units_Z 116
_cell_length_a 19.949778
_cell_length_b 15.450225
_cell_length_c 19.398678
_cell_angle_alpha 90.000000
_cell_angle_beta 90.000000
_cell_angle_gamma 90.000000
_cell_volume 5979.226563
_symmetry_space_group_name_H-M "I B A M"
_symmetry_group_IT_number 72
_symmetry_cell_setting 'orthorhombic'
loop_
_space_group_symop_operation_xyz
x,y,z
-x,-y,z
x,-y,1/2-z
-x,y,1/2-z
-x,-y,-z
x,y,-z
-x,y,1/2+z
x,-y,1/2+z
1/2+x,1/2+y,1/2+z
1/2-x,1/2-y,1/2+z
1/2+x,1/2-y,-z
1/2-x,1/2+y,-z
1/2-x,1/2-y,1/2-z
1/2+x,1/2+y,1/2-z
1/2-x,1/2+y,z
1/2+x,1/2-y,z
loop_
_atom_site_type_symbol
_atom_site_label
_atom_site_fract_x
_atom_site_fract_y
_atom_site_fract_z
Si Si1 0.138747 0.099440 0.577497
Si Si2 0.597393 0.746295 0.664662
Si Si3 0.363327 0.546260 0.818159
Si Si4 0.000000 0.500000 0.250000
Si Si5 0.537322 0.247987 0.579681
Si Si6 0.588064 0.141925 0.700681
Si Si7 0.266047 0.125756 0.204138
Si Si8 0.244190 0.698777 0.350426
O O1 0.148622 0.069380 0.500000
O O2 0.073893 0.160024 0.585866
O O3 0.210141 0.143641 0.597442
O O4 0.117693 0.012629 0.617459
O O5 0.611606 0.644913 0.677508
O O6 0.538414 0.751356 0.608790
O O7 0.574204 0.789388 0.737198
O O8 0.663114 0.798819 0.636369
O O9 0.392533 0.500000 0.750000
O O10 0.281792 0.547020 0.817658
O O11 0.039385 0.561145 0.198392
O O12 0.535585 0.216987 0.500000
O O13 0.582432 0.184947 0.625966
O O14 0.658679 0.093919 0.711716
O O15 0.267302 0.201578 0.146668
O O16 0.236483 0.162778 0.275410
#
# Coordination Sequence:
#
# PCOD8294935 Si02
#       8
#    16  16  16   4  16  16  16  16
#     4  11  23  38  59  90 131 167 206 258 311 365
#     4  10  22  39  65  89 122 166 211 257 304 375
#     4  11  21  36  61  95 122 160 210 263 307 359
#     4  12  24  32  66  96 118 140 194 266 304 356
#     4  11  23  42  63  84 125 174 208 247 309 378
#     4  11  21  40  62  95 121 154 203 255 316 365
#     4   9  18  33  62  85 117 148 199 253 303 361
#     4   9  17  35  61  88 109 155 204 252 300 359
#
# _framework density 19.400501999999999
#
# number of rings (size 3 to 8) (size 9 to 14) (size 15 to 20)
#    0.000    1.655    4.138    1.655    0.966    1.655 
#    0.000    5.172    0.000    0.000    0.000    0.000 
#    0.000    0.000    0.000    0.000    0.000    0.000 
#
# Total GULP energy -718684.677843 kJ/mol
# GULP energy per Si atom -12391.115135 kJ/mol
# Density = 1.935635 g / cm^3
# Si number density = 19.400502 Si / 1000 Ang^3
#
#
#
# Elastic Constant Matrix: (Units=GPa)
#
#
# Indices 1 2 3 4 5 6 
#
# 1 85.6161 15.3562 34.8538 0.0000 0.0000 0.0000
# 2 15.3562 78.5136 45.0244 0.0000 0.0000 0.0000
# 3 34.8538 45.0244 130.1104 0.0000 0.0000 0.0000
# 4 0.0000 0.0000 0.0000 20.6429 0.0000 0.0000
# 5 0.0000 0.0000 0.0000 0.0000 23.4721 0.0000
# 6 0.0000 0.0000 0.0000 0.0000 0.0000 31.0945
#
#
#
# Elastic Compliance Matrix: (Units=1/GPa)
#
#
# Indices 1 2 3 4 5 6 
#
# 1 0.013139 -0.000688 -0.003282 0.000000 0.000000 0.000000
# 2 -0.000688 0.015926 -0.005327 0.000000 0.000000 0.000000
# 3 -0.003282 -0.005327 0.010408 0.000000 0.000000 0.000000
# 4 0.000000 0.000000 0.000000 0.048443 0.000000 0.000000
# 5 0.000000 0.000000 0.000000 0.000000 0.042604 0.000000
# 6 0.000000 0.000000 0.000000 0.000000 0.000000 0.032160
#
#
# Mechanical properties :
#
#
# Convention : Reuss Voigt Hill
#
# Bulk Modulus (GPa) = 47.89149 53.85655 50.87402
# Shear Modulus (GPa) = 26.56277 28.30894 27.43586
#
# Velocity S-wave (km/s) = 3.70426 3.82407 3.76464
# Velocity P-wave (km/s) = 6.56008 6.87886 6.72136
#
# Compressibility (1/GPa) = 0.02088054
#
# Stress axis : x y z
#
# Youngs Moduli (GPa) = 76.10692 62.79072 96.07793
#
# Poissons Ratio (x) = 0.04320 0.31530
# Poissons Ratio (y) = 0.05236 0.51179
# Poissons Ratio (z) = 0.24976 0.33448
#
# Static dielectric constant tensor:
#      x y z
#    x 3.788440 0.000000 0.000000 
#    y 0.000000 3.528780 0.000000 
#    z 0.000000 0.000000 3.370610 
# 
# 
# High freq. dielectric constant tensor:
#      x y z
#    x 1.769360 0.000000 0.000000 
#    y 0.000000 1.752460 0.000000 
#    z 0.000000 0.000000 1.727980 
# 
# From -- ./inp_files/33447.got.cif
#   From: 2010.03.12/outbox.cif.g09.slc.cpg/sg72_17_cif.got.tgz:33447.got - 2010.04.16 14:54:00.
