data_PCOD8294329
_publ_section_title
;
Structure prediction by ZEFSAII (Michael W. Deem and Ramdas Pophale) SiO2 
 PCOD8294329
Probable space group: I B A M
;
_chemical_formula_sum "Si O2"
_cell_formula_units_Z 88
_cell_length_a 22.227110
_cell_length_b 21.872803
_cell_length_c 9.764743
_cell_angle_alpha 90.000000
_cell_angle_beta 90.000000
_cell_angle_gamma 90.000000
_cell_volume 4747.317276
_symmetry_space_group_name_H-M "I B A M"
_symmetry_group_IT_number 72
_symmetry_cell_setting 'orthorhombic'
loop_
_space_group_symop_operation_xyz
x,y,z
-x,-y,z
x,-y,1/2-z
-x,y,1/2-z
-x,-y,-z
x,y,-z
-x,y,1/2+z
x,-y,1/2+z
1/2+x,1/2+y,1/2+z
1/2-x,1/2-y,1/2+z
1/2+x,1/2-y,-z
1/2-x,1/2+y,-z
1/2-x,1/2-y,1/2-z
1/2+x,1/2+y,1/2-z
1/2-x,1/2+y,z
1/2+x,1/2-y,z
loop_
_atom_site_type_symbol
_atom_site_label
_atom_site_fract_x
_atom_site_fract_y
_atom_site_fract_z
Si Si1 0.839598 0.850554 0.500000
Si Si2 0.301680 0.429183 0.746498
Si Si3 0.448142 0.254805 0.000000
Si Si4 0.831746 0.148559 0.500000
Si Si5 0.087877 0.257928 0.000000
Si Si6 0.618970 0.815744 0.785525
Si Si7 0.334056 0.058159 0.835561
Si Si8 0.212924 0.726397 0.000000
O O1 0.829187 0.895303 0.375221
O O2 0.905699 0.816516 0.500000
O O3 0.786241 0.799969 0.500000
O O4 0.319649 0.500000 0.750000
O O5 0.335447 0.396518 0.625335
O O6 0.230100 0.421886 0.726780
O O7 0.518769 0.261997 0.000000
O O8 0.436009 0.214774 0.134805
O O9 0.889963 0.189270 0.500000
O O10 0.777451 0.196764 0.500000
O O11 0.112938 0.296261 0.871607
O O12 0.617511 0.889142 0.802277
O O13 0.680272 0.793923 0.859584
O O14 0.357428 0.000000 0.750000
O O15 0.328684 0.045717 0.000000
#
# Coordination Sequence:
#
# PCOD8294329 Si02
#       8
#     8  16   8   8   8  16  16   8
#     4  10  23  36  62  81 117 167 191 247 304 361
#     4  11  22  36  57  86 125 161 192 236 298 371
#     4  10  22  47  59  80 120 156 204 255 312 343
#     4  12  21  38  56  89 128 150 199 258 285 370
#     4  12  26  33  66  94 105 162 208 251 304 364
#     4  10  20  40  60  85 123 154 192 254 303 359
#     4  11  22  38  59  89 129 163 194 239 294 368
#     4  10  20  38  55  84 130 156 181 247 321 350
#
# _framework density 18.536784999999998
#
# number of rings (size 3 to 8) (size 9 to 14) (size 15 to 20)
#    0.000    1.455    4.545    3.273    7.636    1.455 
#    0.000    0.000    0.000    6.545    0.000    0.000 
#    0.000    0.000    0.000    0.000    0.000    0.000 
#
# Total GULP energy -545179.820911 kJ/mol
# GULP energy per Si atom -12390.450475 kJ/mol
# Density = 1.849459 g / cm^3
# Si number density = 18.536785 Si / 1000 Ang^3
#
#
#
# Elastic Constant Matrix: (Units=GPa)
#
#
# Indices 1 2 3 4 5 6 
#
# 1 91.7055 57.3128 45.4473 0.0000 0.0000 0.0000
# 2 57.3128 173.5602 79.5031 0.0000 0.0000 0.0000
# 3 45.4473 79.5031 171.0455 0.0000 0.0000 0.0000
# 4 0.0000 0.0000 0.0000 44.4382 0.0000 0.0000
# 5 0.0000 0.0000 0.0000 0.0000 32.1699 0.0000
# 6 0.0000 0.0000 0.0000 0.0000 0.0000 12.3143
#
#
#
# Elastic Compliance Matrix: (Units=1/GPa)
#
#
# Indices 1 2 3 4 5 6 
#
# 1 0.014277 -0.003782 -0.002035 0.000000 0.000000 0.000000
# 2 -0.003782 0.008322 -0.002863 0.000000 0.000000 0.000000
# 3 -0.002035 -0.002863 0.007718 0.000000 0.000000 0.000000
# 4 0.000000 0.000000 0.000000 0.022503 0.000000 0.000000
# 5 0.000000 0.000000 0.000000 0.000000 0.031085 0.000000
# 6 0.000000 0.000000 0.000000 0.000000 0.000000 0.081207
#
#
# Mechanical properties :
#
#
# Convention : Reuss Voigt Hill
#
# Bulk Modulus (GPa) = 77.18750 88.98197 83.08474
# Shear Modulus (GPa) = 26.76771 34.72101 30.74436
#
# Velocity S-wave (km/s) = 3.80416 4.33261 4.07696
# Velocity P-wave (km/s) = 7.81192 8.55195 8.19030
#
# Compressibility (1/GPa) = 0.01295547
#
# Stress axis : x y z
#
# Youngs Moduli (GPa) = 70.04321 120.16030 129.56538
#
# Poissons Ratio (x) = 0.45446 0.26373
# Poissons Ratio (y) = 0.26491 0.37099
# Poissons Ratio (z) = 0.14257 0.34406
#
# Static dielectric constant tensor:
#      x y z
#    x 3.119060 0.000000 0.000000 
#    y 0.000000 3.725750 0.000000 
#    z 0.000000 0.000000 3.570990 
# 
# 
# High freq. dielectric constant tensor:
#      x y z
#    x 1.682440 0.000000 0.000000 
#    y 0.000000 1.732140 0.000000 
#    z 0.000000 0.000000 1.740500 
# 
# From -- ./inp_files/6886.got.cif
#   From: 2010.03.12/outbox.cif.g09.slc.cpg/sg72_4_cif.got.tgz:6886.got - 2010.04.16 14:54:00.
