data_PCOD8294061
_publ_section_title
;
Structure prediction by ZEFSAII (Michael W. Deem and Ramdas Pophale) SiO2 
 PCOD8294061
Probable space group: I B A M
;
_chemical_formula_sum "Si O2"
_cell_formula_units_Z 96
_cell_length_a 27.876504
_cell_length_b 20.434228
_cell_length_c 8.689918
_cell_angle_alpha 90.000000
_cell_angle_beta 90.000000
_cell_angle_gamma 90.000000
_cell_volume 4950.080037
_symmetry_space_group_name_H-M "I B A M"
_symmetry_group_IT_number 72
_symmetry_cell_setting 'orthorhombic'
loop_
_space_group_symop_operation_xyz
x,y,z
-x,-y,z
x,-y,1/2-z
-x,y,1/2-z
-x,-y,-z
x,y,-z
-x,y,1/2+z
x,-y,1/2+z
1/2+x,1/2+y,1/2+z
1/2-x,1/2-y,1/2+z
1/2+x,1/2-y,-z
1/2-x,1/2+y,-z
1/2-x,1/2-y,1/2-z
1/2+x,1/2+y,1/2-z
1/2-x,1/2+y,z
1/2+x,1/2-y,z
loop_
_atom_site_type_symbol
_atom_site_label
_atom_site_fract_x
_atom_site_fract_y
_atom_site_fract_z
Si Si1 0.550674 0.929721 0.182208
Si Si2 0.447990 0.692773 0.818819
Si Si3 0.888476 0.068857 0.317170
Si Si4 0.887117 0.682432 0.182240
Si Si5 0.714816 0.568313 0.182174
Si Si6 0.222038 0.689771 0.319267
O O1 0.500000 0.905256 0.250000
O O2 0.591563 0.879306 0.229332
O O3 0.564789 0.000000 0.250000
O O4 0.546306 0.934855 0.000000
O O5 0.500000 0.702523 0.750000
O O6 0.425031 0.624781 0.760880
O O7 0.414644 0.752402 0.764518
O O8 0.452635 0.692293 0.000000
O O9 0.885498 0.064411 0.500000
O O10 0.836356 0.087034 0.253269
O O11 0.907038 0.000000 0.250000
O O12 0.832545 0.689685 0.238649
O O13 0.890924 0.670738 0.000000
O O14 0.733734 0.500000 0.250000
O O15 0.752967 0.622626 0.233237
O O16 0.709279 0.562481 0.000000
O O17 0.223864 0.697749 0.500000
O O18 0.250000 0.750000 0.250000
#
# Coordination Sequence:
#
# PCOD8294061 Si02
#       6
#    16  16  16  16  16  16
#     4  11  22  38  60  86 114 148 186 228 277 334
#     4  10  22  37  56  79 108 144 182 225 276 326
#     4  10  20  36  57  82 110 145 182 223 272 324
#     4  10  21  39  58  81 113 148 186 233 280 328
#     4  10  20  35  56  83 111 145 183 224 271 324
#     4  10  22  38  58  83 114 148 187 232 279 329
#
# _framework density 19.393626000000001
#
# number of rings (size 3 to 8) (size 9 to 14) (size 15 to 20)
#    0.000    1.833    0.000    5.500    0.000    7.667 
#    0.000    3.333    0.000    0.000    0.000    0.000 
#    0.000    0.000    0.000    0.000    0.000    0.000 
#
# Total GULP energy -595386.749580 kJ/mol
# GULP energy per Si atom -12403.890616 kJ/mol
# Density = 1.934949 g / cm^3
# Si number density = 19.393626 Si / 1000 Ang^3
#
#
#
# Elastic Constant Matrix: (Units=GPa)
#
#
# Indices 1 2 3 4 5 6 
#
# 1 144.6286 95.4440 43.2217 0.0000 0.0000 0.0000
# 2 95.4440 147.3757 51.3545 0.0000 0.0000 0.0000
# 3 43.2217 51.3545 76.3840 0.0000 0.0000 0.0000
# 4 0.0000 0.0000 0.0000 32.7736 0.0000 0.0000
# 5 0.0000 0.0000 0.0000 0.0000 30.4523 0.0000
# 6 0.0000 0.0000 0.0000 0.0000 0.0000 44.2652
#
#
#
# Elastic Compliance Matrix: (Units=1/GPa)
#
#
# Indices 1 2 3 4 5 6 
#
# 1 0.012327 -0.007252 -0.002100 0.000000 0.000000 0.000000
# 2 -0.007252 0.013127 -0.004722 0.000000 0.000000 0.000000
# 3 -0.002100 -0.004722 0.017455 0.000000 0.000000 0.000000
# 4 0.000000 0.000000 0.000000 0.030512 0.000000 0.000000
# 5 0.000000 0.000000 0.000000 0.000000 0.032838 0.000000
# 6 0.000000 0.000000 0.000000 0.000000 0.000000 0.022591
#
#
# Mechanical properties :
#
#
# Convention : Reuss Voigt Hill
#
# Bulk Modulus (GPa) = 67.74360 83.15874 75.45117
# Shear Modulus (GPa) = 30.87939 33.38943 32.13441
#
# Velocity S-wave (km/s) = 3.99462 4.15380 4.07499
# Velocity P-wave (km/s) = 7.50218 8.12268 7.81859
#
# Compressibility (1/GPa) = 0.01476154
#
# Stress axis : x y z
#
# Youngs Moduli (GPa) = 81.11956 76.17656 57.29041
#
# Poissons Ratio (x) = 0.55242 0.12031
# Poissons Ratio (y) = 0.58827 0.27055
# Poissons Ratio (z) = 0.17034 0.35973
#
# Static dielectric constant tensor:
#      x y z
#    x 3.530260 0.000000 0.000000 
#    y 0.000000 3.818080 0.000000 
#    z 0.000000 0.000000 3.504670 
# 
# 
# High freq. dielectric constant tensor:
#      x y z
#    x 1.757830 0.000000 0.000000 
#    y 0.000000 1.771370 0.000000 
#    z 0.000000 0.000000 1.755570 
# 
# From -- ./inp_files/6002.got.cif
#   From: 2010.03.12/outbox.cif.g09.slc.cpg/sg72_4_cif.got.tgz:6002.got - 2010.04.16 14:54:00.
