data_PCOD8294232
_publ_section_title
;
Structure prediction by ZEFSAII (Michael W. Deem and Ramdas Pophale) SiO2 
 PCOD8294232
Probable space group: I B A M
;
_chemical_formula_sum "Si O2"
_cell_formula_units_Z 80
_cell_length_a 9.817954
_cell_length_b 15.323204
_cell_length_c 24.350841
_cell_angle_alpha 90.000000
_cell_angle_beta 90.000000
_cell_angle_gamma 90.000000
_cell_volume 3663.401689
_symmetry_space_group_name_H-M "I B A M"
_symmetry_group_IT_number 72
_symmetry_cell_setting 'orthorhombic'
loop_
_space_group_symop_operation_xyz
x,y,z
-x,-y,z
x,-y,1/2-z
-x,y,1/2-z
-x,-y,-z
x,y,-z
-x,y,1/2+z
x,-y,1/2+z
1/2+x,1/2+y,1/2+z
1/2-x,1/2-y,1/2+z
1/2+x,1/2-y,-z
1/2-x,1/2+y,-z
1/2-x,1/2-y,1/2-z
1/2+x,1/2+y,1/2-z
1/2-x,1/2+y,z
1/2+x,1/2-y,z
loop_
_atom_site_type_symbol
_atom_site_label
_atom_site_fract_x
_atom_site_fract_y
_atom_site_fract_z
Si Si1 0.579929 0.115210 0.306985
Si Si2 0.671508 0.716548 0.865132
Si Si3 0.686647 0.053440 0.152658
Si Si4 0.096295 0.781669 0.437702
Si Si5 0.146492 0.977169 0.439092
O O1 0.500000 0.127861 0.250000
O O2 0.662331 0.202304 0.323036
O O3 0.463922 0.095742 0.352366
O O4 0.681414 0.030728 0.305672
O O5 0.702958 0.628391 0.829088
O O6 0.800652 0.719130 0.905845
O O7 0.540958 0.707950 0.903163
O O8 0.729145 0.019737 0.093044
O O9 0.066083 0.748324 0.500000
O O10 0.171376 0.874343 0.440226
O O11 0.148822 0.018137 0.500000
O O12 0.000000 0.000000 0.411788
#
# Coordination Sequence:
#
# PCOD8294232 Si02
#       5
#    16  16  16  16  16
#     4  11  26  48  67  95 137 180 227 294 352 401
#     4  12  23  42  69 103 136 183 235 282 341 415
#     4  11  22  42  69  93 133 177 228 280 346 412
#     4  11  23  40  63 100 146 185 223 276 342 412
#     4  10  20  36  62  94 134 177 217 274 339 403
#
# _framework density 21.837626
#
# number of rings (size 3 to 8) (size 9 to 14) (size 15 to 20)
#    0.000    1.000    6.000    1.800    0.000    1.600 
#    0.000    2.000    0.000    0.000    0.000    0.000 
#    0.000    0.000    0.000    0.000    0.000    0.000 
#
# Total GULP energy -495691.446187 kJ/mol
# GULP energy per Si atom -12392.286155 kJ/mol
# Density = 2.178792 g / cm^3
# Si number density = 21.837626 Si / 1000 Ang^3
#
#
#
# Elastic Constant Matrix: (Units=GPa)
#
#
# Indices 1 2 3 4 5 6 
#
# 1 108.7515 41.8696 53.7812 0.0000 0.0000 0.0000
# 2 41.8696 147.1718 55.1859 0.0000 0.0000 0.0000
# 3 53.7812 55.1859 93.9843 0.0000 0.0000 0.0000
# 4 0.0000 0.0000 0.0000 19.3817 0.0000 0.0000
# 5 0.0000 0.0000 0.0000 0.0000 30.0893 0.0000
# 6 0.0000 0.0000 0.0000 0.0000 0.0000 34.7556
#
#
#
# Elastic Compliance Matrix: (Units=1/GPa)
#
#
# Indices 1 2 3 4 5 6 
#
# 1 0.012978 -0.001164 -0.006743 0.000000 0.000000 0.000000
# 2 -0.001164 0.008818 -0.004512 0.000000 0.000000 0.000000
# 3 -0.006743 -0.004512 0.017148 0.000000 0.000000 0.000000
# 4 0.000000 0.000000 0.000000 0.051595 0.000000 0.000000
# 5 0.000000 0.000000 0.000000 0.000000 0.033234 0.000000
# 6 0.000000 0.000000 0.000000 0.000000 0.000000 0.028772
#
#
# Mechanical properties :
#
#
# Convention : Reuss Voigt Hill
#
# Bulk Modulus (GPa) = 70.88912 72.39788 71.64350
# Shear Modulus (GPa) = 27.45976 30.11672 28.78824
#
# Velocity S-wave (km/s) = 3.54990 3.71768 3.63476
# Velocity P-wave (km/s) = 7.02387 7.18700 7.10591
#
# Compressibility (1/GPa) = 0.01410654
#
# Stress axis : x y z
#
# Youngs Moduli (GPa) = 77.05332 113.40962 58.31602
#
# Poissons Ratio (x) = 0.13197 0.39324
# Poissons Ratio (y) = 0.08966 0.26310
# Poissons Ratio (z) = 0.51959 0.51167
#
# Static dielectric constant tensor:
#      x y z
#    x 4.017090 0.000000 0.000000 
#    y 0.000000 4.340300 0.000000 
#    z 0.000000 0.000000 3.759630 
# 
# 
# High freq. dielectric constant tensor:
#      x y z
#    x 1.847320 0.000000 0.000000 
#    y 0.000000 1.879820 0.000000 
#    z 0.000000 0.000000 1.832440 
# 
# From -- ./inp_files/47186.got.cif
#   From: 2010.03.12/outbox.cif.g09.slc.cpg/sg72_24_cif.got.tgz:47186.got - 2010.04.16 14:54:00.
