data_PCOD8294109
_publ_section_title
;
Structure prediction by ZEFSAII (Michael W. Deem and Ramdas Pophale) SiO2 
 PCOD8294109
Probable space group: I B A M
;
_chemical_formula_sum "Si O2"
_cell_formula_units_Z 116
_cell_length_a 12.307839
_cell_length_b 24.815209
_cell_length_c 18.176279
_cell_angle_alpha 90.000000
_cell_angle_beta 90.000000
_cell_angle_gamma 90.000000
_cell_volume 5551.428162
_symmetry_space_group_name_H-M "I B A M"
_symmetry_group_IT_number 72
_symmetry_cell_setting 'orthorhombic'
loop_
_space_group_symop_operation_xyz
x,y,z
-x,-y,z
x,-y,1/2-z
-x,y,1/2-z
-x,-y,-z
x,y,-z
-x,y,1/2+z
x,-y,1/2+z
1/2+x,1/2+y,1/2+z
1/2-x,1/2-y,1/2+z
1/2+x,1/2-y,-z
1/2-x,1/2+y,-z
1/2-x,1/2-y,1/2-z
1/2+x,1/2+y,1/2-z
1/2-x,1/2+y,z
1/2+x,1/2-y,z
loop_
_atom_site_type_symbol
_atom_site_label
_atom_site_fract_x
_atom_site_fract_y
_atom_site_fract_z
Si Si1 0.390972 0.628790 0.417415
Si Si2 0.098877 0.092414 0.838484
Si Si3 0.839114 0.181175 0.771275
Si Si4 0.500000 0.500000 0.750000
Si Si5 0.981808 0.363120 0.917126
Si Si6 0.696602 0.950196 0.917006
Si Si7 0.892860 0.303111 0.786165
Si Si8 0.175985 0.432024 0.083646
O O1 0.391660 0.653695 0.500000
O O2 0.509139 0.604572 0.400473
O O3 0.354127 0.673128 0.358391
O O4 0.302850 0.581717 0.410763
O O5 0.091035 0.140181 0.778109
O O6 0.077468 0.035934 0.799854
O O7 0.215937 0.086474 0.874931
O O8 0.881913 0.241311 0.760187
O O9 0.716274 0.169601 0.744103
O O10 0.913798 0.417632 0.916484
O O11 0.918026 0.315941 0.872126
O O12 0.098366 0.384155 0.883147
O O13 0.995029 0.339704 0.000000
O O14 0.669651 0.008422 0.879480
O O15 0.739873 0.959892 0.000000
O O16 0.000000 0.328725 0.750000
O O17 0.135022 0.436713 0.000000
#
# Coordination Sequence:
#
# PCOD8294109 Si02
#       8
#    16  16  16   4  16  16  16  16
#     4  11  22  39  63  89 122 161 206 257 305 368
#     4  12  22  40  59  92 124 164 203 256 308 376
#     4  11  24  43  64  88 127 160 210 259 316 370
#     4  12  24  36  66  84 126 164 202 248 306 366
#     4  10  20  38  63  91 124 160 208 261 305 370
#     4  10  20  35  59  90 125 163 202 249 311 374
#     4  11  23  42  66  89 118 171 208 258 315 373
#     4   9  19  35  58  89 125 164 199 245 311 368
#
# _framework density 20.895524000000002
#
# number of rings (size 3 to 8) (size 9 to 14) (size 15 to 20)
#    0.000    1.379    2.759    3.310    0.000    2.207 
#    0.000    2.759    0.000    1.655    0.000    0.000 
#    0.000    0.000    0.000    0.000    0.000    0.000 
#
# Total GULP energy -718700.197924 kJ/mol
# GULP energy per Si atom -12391.382723 kJ/mol
# Density = 2.084797 g / cm^3
# Si number density = 20.895524 Si / 1000 Ang^3
#
#
#
# Elastic Constant Matrix: (Units=GPa)
#
#
# Indices 1 2 3 4 5 6 
#
# 1 115.8485 20.8504 36.2756 0.0000 0.0000 0.0000
# 2 20.8504 65.3251 20.7026 -0.0001 0.0000 0.0000
# 3 36.2756 20.7026 99.4994 -0.0002 0.0000 0.0000
# 4 0.0000 -0.0001 -0.0002 26.0754 0.0000 0.0000
# 5 0.0000 0.0000 0.0000 0.0000 33.0010 0.0000
# 6 0.0000 0.0000 0.0000 0.0000 0.0000 22.4028
#
#
#
# Elastic Compliance Matrix: (Units=1/GPa)
#
#
# Indices 1 2 3 4 5 6 
#
# 1 0.010028 -0.002186 -0.003201 0.000000 0.000000 0.000000
# 2 -0.002186 0.016865 -0.002712 0.000000 0.000000 0.000000
# 3 -0.003201 -0.002712 0.011782 0.000000 0.000000 0.000000
# 4 0.000000 0.000000 0.000000 0.038350 0.000000 0.000000
# 5 0.000000 0.000000 0.000000 0.000000 0.030302 0.000000
# 6 0.000000 0.000000 0.000000 0.000000 0.000000 0.044637
#
#
# Mechanical properties :
#
#
# Convention : Reuss Voigt Hill
#
# Bulk Modulus (GPa) = 44.49170 48.48113 46.48641
# Shear Modulus (GPa) = 28.46485 29.81879 29.14182
#
# Velocity S-wave (km/s) = 3.69487 3.78172 3.73854
# Velocity P-wave (km/s) = 6.28819 6.50543 6.39773
#
# Compressibility (1/GPa) = 0.02247610
#
# Stress axis : x y z
#
# Youngs Moduli (GPa) = 99.72302 59.29318 84.87774
#
# Poissons Ratio (x) = 0.12963 0.27170
# Poissons Ratio (y) = 0.21801 0.23020
# Poissons Ratio (z) = 0.31922 0.16081
#
# Static dielectric constant tensor:
#      x y z
#    x 3.912700 0.000000 0.000000 
#    y 0.000000 3.527180 0.000000 
#    z 0.000000 0.000000 3.806340 
# 
# 
# High freq. dielectric constant tensor:
#      x y z
#    x 1.839440 0.000000 0.000000 
#    y 0.000000 1.803630 0.000000 
#    z 0.000000 0.000000 1.803610 
# 
# From -- ./inp_files/29697.got.cif
#   From: 2010.03.12/outbox.cif.g09.slc.cpg/sg72_15_cif.got.tgz:29697.got - 2010.04.16 14:54:00.
