data_PCOD8294835
_publ_section_title
;
Structure prediction by ZEFSAII (Michael W. Deem and Ramdas Pophale) SiO2 
 PCOD8294835
Probable space group: I B A M
;
_chemical_formula_sum "Si O2"
_cell_formula_units_Z 52
_cell_length_a 12.100830
_cell_length_b 14.265523
_cell_length_c 13.699551
_cell_angle_alpha 90.000000
_cell_angle_beta 90.000000
_cell_angle_gamma 90.000000
_cell_volume 2364.880452
_symmetry_space_group_name_H-M "I B A M"
_symmetry_group_IT_number 72
_symmetry_cell_setting 'orthorhombic'
loop_
_space_group_symop_operation_xyz
x,y,z
-x,-y,z
x,-y,1/2-z
-x,y,1/2-z
-x,-y,-z
x,y,-z
-x,y,1/2+z
x,-y,1/2+z
1/2+x,1/2+y,1/2+z
1/2-x,1/2-y,1/2+z
1/2+x,1/2-y,-z
1/2-x,1/2+y,-z
1/2-x,1/2-y,1/2-z
1/2+x,1/2+y,1/2-z
1/2-x,1/2+y,z
1/2+x,1/2-y,z
loop_
_atom_site_type_symbol
_atom_site_label
_atom_site_fract_x
_atom_site_fract_y
_atom_site_fract_z
Si Si1 0.244454 0.187194 0.393768
Si Si2 0.876724 0.001414 0.609864
Si Si3 0.500000 0.000000 0.250000
Si Si4 0.685370 0.874087 0.806960
O O1 0.305496 0.187338 0.500000
O O2 0.326383 0.166921 0.303630
O O3 0.184075 0.287507 0.381100
O O4 0.153276 0.107265 0.392855
O O5 0.872946 0.043879 0.500000
O O6 0.796135 0.063522 0.678259
O O7 0.000000 0.000000 0.653322
O O8 0.577663 0.938746 0.177708
#
# Coordination Sequence:
#
# PCOD8294835 Si02
#       4
#    16  16   4  16
#     4  10  22  41  65  96 128 171 221 271 329 391
#     4  10  21  41  68  97 126 164 218 273 330 386
#     4  12  24  44  64 100 134 190 216 254 342 396
#     4  11  23  42  65  94 136 171 220 271 327 400
#
# _framework density 21.988427000000001
#
# number of rings (size 3 to 8) (size 9 to 14) (size 15 to 20)
#    0.000    1.538    3.077    0.923    0.000    7.385 
#    0.000   10.000    0.000    0.000    0.000    0.000 
#    0.000    0.000    0.000    0.000    0.000    0.000 
#
# Total GULP energy -322205.465633 kJ/mol
# GULP energy per Si atom -12392.517909 kJ/mol
# Density = 2.193838 g / cm^3
# Si number density = 21.988427 Si / 1000 Ang^3
#
#
#
# Elastic Constant Matrix: (Units=GPa)
#
#
# Indices 1 2 3 4 5 6 
#
# 1 107.1463 39.1527 27.5539 0.0000 0.0000 0.0000
# 2 39.1527 148.0262 37.7679 0.0000 0.0000 0.0000
# 3 27.5539 37.7679 140.1841 -0.0001 0.0000 0.0000
# 4 0.0000 0.0000 -0.0001 36.6331 0.0000 0.0000
# 5 0.0000 0.0000 0.0000 0.0000 22.5373 0.0000
# 6 0.0000 0.0000 0.0000 0.0000 0.0000 25.6165
#
#
#
# Elastic Compliance Matrix: (Units=1/GPa)
#
#
# Indices 1 2 3 4 5 6 
#
# 1 0.010590 -0.002438 -0.001425 0.000000 0.000000 0.000000
# 2 -0.002438 0.007815 -0.001626 0.000000 0.000000 0.000000
# 3 -0.001425 -0.001626 0.007852 0.000000 0.000000 0.000000
# 4 0.000000 0.000000 0.000000 0.027298 0.000000 0.000000
# 5 0.000000 0.000000 0.000000 0.000000 0.044371 0.000000
# 6 0.000000 0.000000 0.000000 0.000000 0.000000 0.039037
#
#
# Mechanical properties :
#
#
# Convention : Reuss Voigt Hill
#
# Bulk Modulus (GPa) = 65.44718 67.14506 66.29612
# Shear Modulus (GPa) = 32.67251 36.34953 34.51102
#
# Velocity S-wave (km/s) = 3.85891 4.07027 3.96600
# Velocity P-wave (km/s) = 7.04868 7.25895 7.15459
#
# Compressibility (1/GPa) = 0.01527950
#
# Stress axis : x y z
#
# Youngs Moduli (GPa) = 94.42725 127.95468 127.36052
#
# Poissons Ratio (x) = 0.31190 0.18147
# Poissons Ratio (y) = 0.23017 0.20715
# Poissons Ratio (z) = 0.13454 0.20811
#
# Static dielectric constant tensor:
#      x y z
#    x 3.522600 0.000000 0.000000 
#    y 0.000000 4.246720 0.000000 
#    z 0.000000 0.000000 4.343250 
# 
# 
# High freq. dielectric constant tensor:
#      x y z
#    x 1.822340 0.000000 0.000000 
#    y 0.000000 1.884300 0.000000 
#    z 0.000000 0.000000 1.874560 
# 
# From -- ./inp_files/19410.got.cif
#   From: 2010.03.12/outbox.cif.g09.slc.cpg/sg72_10_cif.got.tgz:19410.got - 2010.04.16 14:54:00.
