data_PCOD8294590
_publ_section_title
;
Structure prediction by ZEFSAII (Michael W. Deem and Ramdas Pophale) SiO2 
 PCOD8294590
Probable space group: I B A M
;
_chemical_formula_sum "Si O2"
_cell_formula_units_Z 112
_cell_length_a 13.581383
_cell_length_b 29.035166
_cell_length_c 14.469232
_cell_angle_alpha 90.000000
_cell_angle_beta 90.000000
_cell_angle_gamma 90.000000
_cell_volume 5705.763811
_symmetry_space_group_name_H-M "I B A M"
_symmetry_group_IT_number 72
_symmetry_cell_setting 'orthorhombic'
loop_
_space_group_symop_operation_xyz
x,y,z
-x,-y,z
x,-y,1/2-z
-x,y,1/2-z
-x,-y,-z
x,y,-z
-x,y,1/2+z
x,-y,1/2+z
1/2+x,1/2+y,1/2+z
1/2-x,1/2-y,1/2+z
1/2+x,1/2-y,-z
1/2-x,1/2+y,-z
1/2-x,1/2-y,1/2-z
1/2+x,1/2+y,1/2-z
1/2-x,1/2+y,z
1/2+x,1/2-y,z
loop_
_atom_site_type_symbol
_atom_site_label
_atom_site_fract_x
_atom_site_fract_y
_atom_site_fract_z
Si Si1 0.595282 0.812728 0.104583
Si Si2 0.606598 0.668533 0.740136
Si Si3 0.909521 0.746275 0.108740
Si Si4 0.799226 0.777720 0.397523
Si Si5 0.372571 0.039940 0.894638
Si Si6 0.404213 0.064272 0.606168
Si Si7 0.805516 0.386635 0.229020
O O1 0.500783 0.784540 0.141675
O O2 0.686020 0.777383 0.104362
O O3 0.618982 0.853481 0.174854
O O4 0.577376 0.832016 0.000000
O O5 0.500000 0.643228 0.750000
O O6 0.597278 0.704250 0.656465
O O7 0.623814 0.696996 0.833379
O O8 0.694638 0.632340 0.730351
O O9 0.813607 0.715400 0.134867
O O10 0.915172 0.756248 0.000000
O O11 0.817398 0.797284 0.500000
O O12 0.481471 0.058135 0.868116
O O13 0.296732 0.066006 0.828201
O O14 0.356659 0.985835 0.878154
O O15 0.349390 0.052405 0.000000
O O16 0.391416 0.080357 0.500000
O O17 0.349773 0.102452 0.669341
#
# Coordination Sequence:
#
# PCOD8294590 Si02
#       7
#    16  16  16  16  16  16  16
#     4  10  21  37  58  84 114 149 196 248 289 334
#     4  12  25  39  56  76 111 157 206 244 289 331
#     4  10  21  38  59  78 106 150 199 250 298 341
#     4  10  21  39  57  74 104 153 202 242 292 340
#     4   9  19  39  65  93 124 152 181 222 288 366
#     4   9  20  40  63  91 127 156 177 219 291 368
#     4  12  23  34  60  91 119 147 195 247 291 341
#
# _framework density 19.629273000000001
#
# number of rings (size 3 to 8) (size 9 to 14) (size 15 to 20)
#    0.000    1.714    2.857    2.571    0.000    4.571 
#    0.000    2.857    0.000    1.714    0.000    2.000 
#    0.000    0.000    0.000    0.000    0.000    0.000 
#
# Total GULP energy -694226.592689 kJ/mol
# GULP energy per Si atom -12396.903441 kJ/mol
# Density = 1.958460 g / cm^3
# Si number density = 19.629273 Si / 1000 Ang^3
#
#
#
# Elastic Constant Matrix: (Units=GPa)
#
#
# Indices 1 2 3 4 5 6 
#
# 1 114.0515 46.4157 47.2902 -0.0003 0.0000 0.0000
# 2 46.4157 78.8858 50.6086 0.0002 0.0000 0.0000
# 3 47.2902 50.6086 99.7734 0.0025 0.0007 0.0000
# 4 -0.0003 0.0002 0.0025 33.8539 0.0002 0.0000
# 5 0.0000 0.0000 0.0007 0.0002 20.4024 0.0002
# 6 0.0000 0.0000 0.0000 0.0000 0.0002 23.9369
#
#
#
# Elastic Compliance Matrix: (Units=1/GPa)
#
#
# Indices 1 2 3 4 5 6 
#
# 1 0.012168 -0.005128 -0.003166 0.000000 0.000000 0.000000
# 2 -0.005128 0.020953 -0.008197 0.000000 0.000000 0.000000
# 3 -0.003166 -0.008197 0.015681 -0.000001 -0.000001 0.000000
# 4 0.000000 0.000000 -0.000001 0.029539 0.000000 0.000000
# 5 0.000000 0.000000 -0.000001 0.000000 0.049014 -0.000001
# 6 0.000000 0.000000 0.000000 0.000000 -0.000001 0.041777
#
#
# Mechanical properties :
#
#
# Convention : Reuss Voigt Hill
#
# Bulk Modulus (GPa) = 63.21625 64.59329 63.90477
# Shear Modulus (GPa) = 24.10947 25.53173 24.82060
#
# Velocity S-wave (km/s) = 3.50843 3.61043 3.55979
# Velocity P-wave (km/s) = 6.97761 7.09636 7.03724
#
# Compressibility (1/GPa) = 0.01581872
#
# Stress axis : x y z
#
# Youngs Moduli (GPa) = 82.18426 47.72595 63.77016
#
# Poissons Ratio (x) = 0.24475 0.20189
# Poissons Ratio (y) = 0.42147 0.52275
# Poissons Ratio (z) = 0.26019 0.39123
#
# Static dielectric constant tensor:
#      x y z
#    x 3.632940 0.000000 0.000000 
#    y 0.000000 3.438270 0.000000 
#    z 0.000000 0.000000 3.730100 
# 
# 
# High freq. dielectric constant tensor:
#      x y z
#    x 1.747910 0.000000 0.000000 
#    y 0.000000 1.741720 0.000000 
#    z 0.000000 0.000000 1.784490 
# 
# From -- ./inp_files/22268.got.cif
#   From: 2010.03.12/outbox.cif.g09.slc.cpg/sg72_12_cif.got.tgz:22268.got - 2010.04.16 14:54:00.
