data_PCOD8294695
_publ_section_title
;
Structure prediction by ZEFSAII (Michael W. Deem and Ramdas Pophale) SiO2 
 PCOD8294695
Probable space group: I B A M
;
_chemical_formula_sum "Si O2"
_cell_formula_units_Z 88
_cell_length_a 13.320364
_cell_length_b 10.510887
_cell_length_c 31.737846
_cell_angle_alpha 90.000000
_cell_angle_beta 90.000000
_cell_angle_gamma 90.000000
_cell_volume 4443.579028
_symmetry_space_group_name_H-M "I B A M"
_symmetry_group_IT_number 72
_symmetry_cell_setting 'orthorhombic'
loop_
_space_group_symop_operation_xyz
x,y,z
-x,-y,z
x,-y,1/2-z
-x,y,1/2-z
-x,-y,-z
x,y,-z
-x,y,1/2+z
x,-y,1/2+z
1/2+x,1/2+y,1/2+z
1/2-x,1/2-y,1/2+z
1/2+x,1/2-y,-z
1/2-x,1/2+y,-z
1/2-x,1/2-y,1/2-z
1/2+x,1/2+y,1/2-z
1/2-x,1/2+y,z
1/2+x,1/2-y,z
loop_
_atom_site_type_symbol
_atom_site_label
_atom_site_fract_x
_atom_site_fract_y
_atom_site_fract_z
Si Si1 0.761584 0.376501 0.777775
Si Si2 0.220828 0.688876 0.906495
Si Si3 0.557217 0.869757 0.157317
Si Si4 0.304464 0.559539 0.548619
Si Si5 0.000000 0.000000 0.090833
Si Si6 0.388203 0.678139 0.155000
O O1 0.771460 0.500000 0.750000
O O2 0.750000 0.250000 0.750000
O O3 0.861790 0.374190 0.805673
O O4 0.660645 0.395579 0.805508
O O5 0.109579 0.677359 0.886175
O O6 0.248547 0.550221 0.924852
O O7 0.233268 0.797644 0.941740
O O8 0.294286 0.740248 0.869571
O O9 0.469142 0.776377 0.172444
O O10 0.500000 0.000000 0.148353
O O11 0.286228 0.529150 0.500000
O O12 0.421812 0.567452 0.559854
O O13 0.059265 0.091079 0.121242
#
# Coordination Sequence:
#
# PCOD8294695 Si02
#       6
#    16  16  16  16   8  16
#     4  11  26  42  60  94 129 155 206 265 313 371
#     4  10  22  39  64  93 125 161 217 249 301 385
#     4  11  22  41  67  87 122 172 206 251 312 372
#     4  11  21  38  62  93 129 162 200 264 316 356
#     4  10  21  38  61  88 116 166 220 238 299 386
#     4  10  22  39  65  87 118 164 208 250 301 368
#
# _framework density 19.803854999999999
#
# number of rings (size 3 to 8) (size 9 to 14) (size 15 to 20)
#    0.000    1.455    1.818    3.000    2.545    5.455 
#    0.000    0.000    0.000    2.182    0.000    0.000 
#    0.000    0.000    0.000    0.000    0.000    0.000 
#
# Total GULP energy -545343.343791 kJ/mol
# GULP energy per Si atom -12394.166904 kJ/mol
# Density = 1.975878 g / cm^3
# Si number density = 19.803855 Si / 1000 Ang^3
#
#
#
# Elastic Constant Matrix: (Units=GPa)
#
#
# Indices 1 2 3 4 5 6 
#
# 1 117.8818 41.3442 38.2907 0.0000 0.0000 0.0000
# 2 41.3442 112.6615 39.1904 0.0000 0.0000 0.0000
# 3 38.2907 39.1904 95.0523 0.0000 0.0000 0.0000
# 4 0.0000 0.0000 0.0000 48.2984 0.0000 0.0000
# 5 0.0000 0.0000 0.0000 0.0000 27.9195 0.0000
# 6 0.0000 0.0000 0.0000 0.0000 0.0000 31.2047
#
#
#
# Elastic Compliance Matrix: (Units=1/GPa)
#
#
# Indices 1 2 3 4 5 6 
#
# 1 0.010451 -0.002768 -0.003069 0.000000 0.000000 0.000000
# 2 -0.002768 0.011095 -0.003460 0.000000 0.000000 0.000000
# 3 -0.003069 -0.003460 0.013183 0.000000 0.000000 0.000000
# 4 0.000000 0.000000 0.000000 0.020705 0.000000 0.000000
# 5 0.000000 0.000000 0.000000 0.000000 0.035817 0.000000
# 6 0.000000 0.000000 0.000000 0.000000 0.000000 0.032046
#
#
# Mechanical properties :
#
#
# Convention : Reuss Voigt Hill
#
# Bulk Modulus (GPa) = 61.97013 62.58291 62.27652
# Shear Modulus (GPa) = 33.95156 35.26920 34.61038
#
# Velocity S-wave (km/s) = 4.14501 4.22468 4.18504
# Velocity P-wave (km/s) = 7.36669 7.44763 7.40727
#
# Compressibility (1/GPa) = 0.01613681
#
# Stress axis : x y z
#
# Youngs Moduli (GPa) = 95.68867 90.12827 75.85408
#
# Poissons Ratio (x) = 0.24944 0.23278
# Poissons Ratio (y) = 0.26483 0.26243
# Poissons Ratio (z) = 0.29365 0.31182
#
# Static dielectric constant tensor:
#      x y z
#    x 4.206300 0.000000 0.000000 
#    y 0.000000 3.595570 0.000000 
#    z 0.000000 0.000000 3.589850 
# 
# 
# High freq. dielectric constant tensor:
#      x y z
#    x 1.787920 0.000000 0.000000 
#    y 0.000000 1.772270 0.000000 
#    z 0.000000 0.000000 1.772060 
# 
# From -- ./inp_files/51301.got.cif
#   From: 2010.03.12/outbox.cif.g09.slc.cpg/sg72_26_cif.got.tgz:51301.got - 2010.04.16 14:54:00.
