data_PCOD8294936
_publ_section_title
;
Structure prediction by ZEFSAII (Michael W. Deem and Ramdas Pophale) SiO2 
 PCOD8294936
Probable space group: I B A M
;
_chemical_formula_sum "Si O2"
_cell_formula_units_Z 96
_cell_length_a 14.917459
_cell_length_b 20.372954
_cell_length_c 15.531626
_cell_angle_alpha 90.000000
_cell_angle_beta 90.000000
_cell_angle_gamma 90.000000
_cell_volume 4720.258486
_symmetry_space_group_name_H-M "I B A M"
_symmetry_group_IT_number 72
_symmetry_cell_setting 'orthorhombic'
loop_
_space_group_symop_operation_xyz
x,y,z
-x,-y,z
x,-y,1/2-z
-x,y,1/2-z
-x,-y,-z
x,y,-z
-x,y,1/2+z
x,-y,1/2+z
1/2+x,1/2+y,1/2+z
1/2-x,1/2-y,1/2+z
1/2+x,1/2-y,-z
1/2-x,1/2+y,-z
1/2-x,1/2-y,1/2-z
1/2+x,1/2+y,1/2-z
1/2-x,1/2+y,z
1/2+x,1/2-y,z
loop_
_atom_site_type_symbol
_atom_site_label
_atom_site_fract_x
_atom_site_fract_y
_atom_site_fract_z
Si Si1 0.775842 0.803964 0.179443
Si Si2 0.908183 0.306574 0.904325
Si Si3 0.137901 0.016396 0.000000
Si Si4 0.082733 0.543440 0.900914
Si Si5 0.519766 0.693980 0.342807
Si Si6 0.766406 0.952394 0.177524
Si Si7 0.531178 0.394864 0.500000
O O1 0.750000 0.750000 0.250000
O O2 0.699360 0.800147 0.106666
O O3 0.874929 0.791141 0.140501
O O4 0.775083 0.878588 0.215293
O O5 0.941941 0.380374 0.890646
O O6 0.965016 0.262157 0.839406
O O7 0.930615 0.282142 0.000000
O O8 0.185935 0.041297 0.914133
O O9 0.043992 0.051283 0.000000
O O10 0.124380 0.936877 0.000000
O O11 0.164308 0.525900 0.838337
O O12 0.000000 0.500000 0.869343
O O13 0.108132 0.527238 0.000000
O O14 0.500000 0.660482 0.250000
O O15 0.475631 0.648619 0.414765
O O16 0.808559 0.000000 0.250000
#
# Coordination Sequence:
#
# PCOD8294936 Si02
#       7
#    16  16   8  16  16  16   8
#     4  11  24  42  65  94 131 171 217 267 331 396
#     4  10  22  39  65  93 123 170 215 267 330 391
#     4  11  24  44  64  97 127 171 225 263 323 404
#     4   9  19  39  64  90 126 168 218 269 323 390
#     4  12  24  42  66  96 133 170 219 273 330 395
#     4  11  24  41  67  93 132 174 216 271 336 388
#     4  11  26  42  67  93 130 171 216 269 325 391
#
# _framework density 20.337869000000001
#
# number of rings (size 3 to 8) (size 9 to 14) (size 15 to 20)
#    0.000    1.333    5.000    0.000    4.667    1.667 
#    0.000    1.667    0.000    0.000    0.000    0.000 
#    0.000    0.000    0.000    0.000    0.000    0.000 
#
# Total GULP energy -595066.996756 kJ/mol
# GULP energy per Si atom -12397.229099 kJ/mol
# Density = 2.029158 g / cm^3
# Si number density = 20.337869 Si / 1000 Ang^3
#
#
#
# Elastic Constant Matrix: (Units=GPa)
#
#
# Indices 1 2 3 4 5 6 
#
# 1 102.3725 45.8074 9.4530 0.0000 0.0000 0.0000
# 2 45.8074 119.1901 55.4567 0.0002 0.0000 0.0000
# 3 9.4530 55.4567 105.3657 0.0004 0.0001 0.0000
# 4 0.0000 0.0002 0.0004 27.9290 0.0001 0.0000
# 5 0.0000 0.0000 0.0001 0.0001 19.8769 0.0000
# 6 0.0000 0.0000 0.0000 0.0000 0.0000 33.7815
#
#
#
# Elastic Compliance Matrix: (Units=1/GPa)
#
#
# Indices 1 2 3 4 5 6 
#
# 1 0.012048 -0.005466 0.001796 0.000000 0.000000 0.000000
# 2 -0.005466 0.013591 -0.006663 0.000000 0.000000 0.000000
# 3 0.001796 -0.006663 0.012836 0.000000 0.000000 0.000000
# 4 0.000000 0.000000 0.000000 0.035805 0.000000 0.000000
# 5 0.000000 0.000000 0.000000 0.000000 0.050310 0.000000
# 6 0.000000 0.000000 0.000000 0.000000 0.000000 0.029602
#
#
# Mechanical properties :
#
#
# Convention : Reuss Voigt Hill
#
# Bulk Modulus (GPa) = 56.14900 60.92918 58.53909
# Shear Modulus (GPa) = 27.65572 30.73154 29.19363
#
# Velocity S-wave (km/s) = 3.69157 3.89144 3.79282
# Velocity P-wave (km/s) = 6.77040 7.08623 6.93011
#
# Compressibility (1/GPa) = 0.01780975
#
# Stress axis : x y z
#
# Youngs Moduli (GPa) = 82.99973 73.57957 77.90340
#
# Poissons Ratio (x) = 0.40219 -0.13991
# Poissons Ratio (y) = 0.45368 0.51905
# Poissons Ratio (z) = -0.14907 0.49024
#
# Static dielectric constant tensor:
#      x y z
#    x 3.817860 0.000000 0.000000 
#    y 0.000000 3.880680 0.000000 
#    z 0.000000 0.000000 3.508150 
# 
# 
# High freq. dielectric constant tensor:
#      x y z
#    x 1.796680 0.000000 0.000000 
#    y 0.000000 1.799140 0.000000 
#    z 0.000000 0.000000 1.791040 
# 
# From -- ./inp_files/21910.got.cif
#   From: 2010.03.12/outbox.cif.g09.slc.cpg/sg72_11_cif.got.tgz:21910.got - 2010.04.16 14:54:00.
