data_PCOD8294097
_publ_section_title
;
Structure prediction by ZEFSAII (Michael W. Deem and Ramdas Pophale) SiO2 
 PCOD8294097
Probable space group: I B A M
;
_chemical_formula_sum "Si O2"
_cell_formula_units_Z 112
_cell_length_a 28.151596
_cell_length_b 13.963276
_cell_length_c 14.002311
_cell_angle_alpha 90.000000
_cell_angle_beta 90.000000
_cell_angle_gamma 90.000000
_cell_volume 5504.147495
_symmetry_space_group_name_H-M "I B A M"
_symmetry_group_IT_number 72
_symmetry_cell_setting 'orthorhombic'
loop_
_space_group_symop_operation_xyz
x,y,z
-x,-y,z
x,-y,1/2-z
-x,y,1/2-z
-x,-y,-z
x,y,-z
-x,y,1/2+z
x,-y,1/2+z
1/2+x,1/2+y,1/2+z
1/2-x,1/2-y,1/2+z
1/2+x,1/2-y,-z
1/2-x,1/2+y,-z
1/2-x,1/2-y,1/2-z
1/2+x,1/2+y,1/2-z
1/2-x,1/2+y,z
1/2+x,1/2-y,z
loop_
_atom_site_type_symbol
_atom_site_label
_atom_site_fract_x
_atom_site_fract_y
_atom_site_fract_z
Si Si1 0.348564 0.409489 0.886888
Si Si2 0.055878 0.605043 0.746175
Si Si3 0.745631 0.390339 0.729108
Si Si4 0.069606 0.759921 0.111163
Si Si5 0.379178 0.613042 0.108823
Si Si6 0.538072 0.265730 0.112179
Si Si7 0.210772 0.237437 0.889315
O O1 0.303769 0.373495 0.827104
O O2 0.393463 0.342875 0.861287
O O3 0.359592 0.515498 0.844784
O O4 0.336776 0.407954 0.000000
O O5 0.080345 0.500000 0.750000
O O6 0.080523 0.661723 0.833743
O O7 0.061664 0.667146 0.649999
O O8 0.000000 0.590648 0.750000
O O9 0.758804 0.500000 0.750000
O O10 0.785522 0.342139 0.660567
O O11 0.744540 0.336369 0.831192
O O12 0.015973 0.788582 0.143720
O O13 0.071910 0.736684 0.000000
O O14 0.429494 0.647160 0.152866
O O15 0.342903 0.700893 0.119162
O O16 0.388048 0.584616 0.000000
O O17 0.542643 0.257814 0.000000
O O18 0.227357 0.240865 0.000000
#
# Coordination Sequence:
#
# PCOD8294097 Si02
#       7
#    16  16  16  16  16  16  16
#     4  10  20  35  58  87 120 156 192 238 290 350
#     4   9  18  32  50  72  99 141 191 240 288 333
#     4  11  22  37  63  91 114 154 200 242 296 357
#     4   9  19  33  52  82 117 152 194 241 289 339
#     4   9  18  34  57  82 114 155 193 233 291 352
#     4   9  18  33  53  79 113 153 196 241 287 344
#     4  10  22  39  59  86 117 150 193 244 296 355
#
# _framework density 20.348293000000002
#
# number of rings (size 3 to 8) (size 9 to 14) (size 15 to 20)
#    0.000    2.429    1.429    0.429    2.000    1.714 
#    0.000    6.429    0.000    2.571    0.000    0.000 
#    0.000    0.000    0.000    0.000    0.000    0.000 
#
# Total GULP energy -693871.829587 kJ/mol
# GULP energy per Si atom -12390.568385 kJ/mol
# Density = 2.030198 g / cm^3
# Si number density = 20.348293 Si / 1000 Ang^3
#
#
#
# Elastic Constant Matrix: (Units=GPa)
#
#
# Indices 1 2 3 4 5 6 
#
# 1 59.3910 47.6780 27.0236 0.0000 0.0000 0.0000
# 2 47.6780 143.1759 46.6685 0.0000 0.0000 0.0000
# 3 27.0236 46.6685 76.5576 0.0000 0.0000 0.0000
# 4 0.0000 0.0000 0.0000 37.1483 0.0000 0.0000
# 5 0.0000 0.0000 0.0000 0.0000 20.3755 0.0000
# 6 0.0000 0.0000 0.0000 0.0000 0.0000 27.5126
#
#
#
# Elastic Compliance Matrix: (Units=1/GPa)
#
#
# Indices 1 2 3 4 5 6 
#
# 1 0.024175 -0.006575 -0.004525 0.000000 0.000000 0.000000
# 2 -0.006575 0.010505 -0.004083 0.000000 0.000000 0.000000
# 3 -0.004525 -0.004083 0.017148 0.000000 0.000000 0.000000
# 4 0.000000 0.000000 0.000000 0.026919 0.000000 0.000000
# 5 0.000000 0.000000 0.000000 0.000000 0.049079 0.000000
# 6 0.000000 0.000000 0.000000 0.000000 0.000000 0.036347
#
#
# Mechanical properties :
#
#
# Convention : Reuss Voigt Hill
#
# Bulk Modulus (GPa) = 46.59455 57.98498 52.28977
# Shear Modulus (GPa) = 24.79015 27.52423 26.15719
#
# Velocity S-wave (km/s) = 3.49419 3.68184 3.58924
# Velocity P-wave (km/s) = 6.26318 6.82881 6.55210
#
# Compressibility (1/GPa) = 0.02146174
#
# Stress axis : x y z
#
# Youngs Moduli (GPa) = 41.36471 95.19481 58.31567
#
# Poissons Ratio (x) = 0.62595 0.26389
# Poissons Ratio (y) = 0.27199 0.23808
# Poissons Ratio (z) = 0.18718 0.38864
#
# Static dielectric constant tensor:
#      x y z
#    x 3.581870 0.000000 0.000000 
#    y 0.000000 3.981790 0.000000 
#    z 0.000000 0.000000 3.906790 
# 
# 
# High freq. dielectric constant tensor:
#      x y z
#    x 1.771290 0.000000 0.000000 
#    y 0.000000 1.790050 0.000000 
#    z 0.000000 0.000000 1.810080 
# 
# From -- ./inp_files/26388.got.cif
#   From: 2010.03.12/outbox.cif.g09.slc.cpg/sg72_14_cif.got.tgz:26388.got - 2010.04.16 14:54:00.
