data_PCOD8294053
_publ_section_title
;
Structure prediction by ZEFSAII (Michael W. Deem and Ramdas Pophale) SiO2 
 PCOD8294053
Probable space group: I B A M
;
_chemical_formula_sum "Si O2"
_cell_formula_units_Z 116
_cell_length_a 9.357635
_cell_length_b 29.355933
_cell_length_c 22.243573
_cell_angle_alpha 90.000000
_cell_angle_beta 90.000000
_cell_angle_gamma 90.000000
_cell_volume 6110.356350
_symmetry_space_group_name_H-M "I B A M"
_symmetry_group_IT_number 72
_symmetry_cell_setting 'orthorhombic'
loop_
_space_group_symop_operation_xyz
x,y,z
-x,-y,z
x,-y,1/2-z
-x,y,1/2-z
-x,-y,-z
x,y,-z
-x,y,1/2+z
x,-y,1/2+z
1/2+x,1/2+y,1/2+z
1/2-x,1/2-y,1/2+z
1/2+x,1/2-y,-z
1/2-x,1/2+y,-z
1/2-x,1/2-y,1/2-z
1/2+x,1/2+y,1/2-z
1/2-x,1/2+y,z
1/2+x,1/2-y,z
loop_
_atom_site_type_symbol
_atom_site_label
_atom_site_fract_x
_atom_site_fract_y
_atom_site_fract_z
Si Si1 0.754368 0.892397 0.632589
Si Si2 0.000000 0.500000 0.250000
Si Si3 0.671345 0.073496 0.327692
Si Si4 0.005136 0.657515 0.185691
Si Si5 0.489975 0.450790 0.680552
Si Si6 0.512236 0.781007 0.570174
Si Si7 0.980912 0.553676 0.067523
Si Si8 0.332580 0.696254 0.432764
O O1 0.640820 0.871331 0.678713
O O2 0.674384 0.927640 0.587926
O O3 0.837468 0.851048 0.601579
O O4 0.875712 0.919818 0.665987
O O5 0.895768 0.469093 0.209233
O O6 0.631986 0.121982 0.298999
O O7 0.840199 0.071777 0.336319
O O8 0.605024 0.076445 0.394098
O O9 0.038551 0.684903 0.123755
O O10 0.000000 0.685946 0.250000
O O11 0.500000 0.500000 0.647449
O O12 0.500000 0.459616 0.750000
O O13 0.466408 0.794399 0.500000
O O14 0.452278 0.731795 0.589223
O O15 0.682059 0.777935 0.573561
O O16 0.000000 0.500000 0.074244
O O17 0.003436 0.570305 0.000000
O O18 0.366027 0.682108 0.500000
#
# Coordination Sequence:
#
# PCOD8294053 Si02
#       8
#    16   4  16  16  16  16  16  16
#     4  10  21  37  56  80 116 153 190 235 299 350
#     4  12  20  36  60  84 108 152 210 238 288 336
#     4  11  22  34  59  82 111 150 198 244 282 341
#     4  10  20  35  56  82 112 148 191 236 286 346
#     4  11  23  35  53  82 117 151 194 244 292 345
#     4   9  19  36  59  84 109 141 186 232 284 347
#     4  10  20  35  56  80 108 149 194 235 279 340
#     4   9  18  36  60  82 105 144 188 233 283 346
#
# _framework density 18.984162000000001
#
# number of rings (size 3 to 8) (size 9 to 14) (size 15 to 20)
#    0.000    1.931    1.379    2.897    3.862    4.414 
#    0.000    4.828    0.000    3.724    0.000    0.000 
#    0.000    0.000    0.000    0.000    0.000    0.000 
#
# Total GULP energy -718511.682120 kJ/mol
# GULP energy per Si atom -12388.132450 kJ/mol
# Density = 1.894095 g / cm^3
# Si number density = 18.984162 Si / 1000 Ang^3
#
#
#
# Elastic Constant Matrix: (Units=GPa)
#
#
# Indices 1 2 3 4 5 6 
#
# 1 81.0252 36.8856 23.4643 0.0000 0.0000 0.0000
# 2 36.8856 106.0075 43.2468 0.0000 0.0000 0.0000
# 3 23.4643 43.2468 116.9406 0.0002 0.0000 0.0000
# 4 0.0000 0.0000 0.0002 39.1306 0.0000 0.0000
# 5 0.0000 0.0000 0.0000 0.0000 17.4123 0.0000
# 6 0.0000 0.0000 0.0000 0.0000 0.0000 43.6752
#
#
#
# Elastic Compliance Matrix: (Units=1/GPa)
#
#
# Indices 1 2 3 4 5 6 
#
# 1 0.014820 -0.004644 -0.001256 0.000000 0.000000 0.000000
# 2 -0.004644 0.012565 -0.003715 0.000000 0.000000 0.000000
# 3 -0.001256 -0.003715 0.010177 0.000000 0.000000 0.000000
# 4 0.000000 0.000000 0.000000 0.025555 0.000000 0.000000
# 5 0.000000 0.000000 0.000000 0.000000 0.057431 0.000000
# 6 0.000000 0.000000 0.000000 0.000000 0.000000 0.022896
#
#
# Mechanical properties :
#
#
# Convention : Reuss Voigt Hill
#
# Bulk Modulus (GPa) = 54.55071 56.79628 55.67350
# Shear Modulus (GPa) = 29.62351 33.40205 31.51278
#
# Velocity S-wave (km/s) = 3.95452 4.19915 4.07867
# Velocity P-wave (km/s) = 7.04615 7.31390 7.18127
#
# Compressibility (1/GPa) = 0.01833157
#
# Stress axis : x y z
#
# Youngs Moduli (GPa) = 67.47736 79.58784 98.25886
#
# Poissons Ratio (x) = 0.36962 0.12343
# Poissons Ratio (y) = 0.31337 0.36501
# Poissons Ratio (z) = 0.08476 0.29565
#
# Static dielectric constant tensor:
#      x y z
#    x 3.370820 0.000000 0.000000 
#    y 0.000000 3.626510 0.000000 
#    z 0.000000 0.000000 3.682230 
# 
# 
# High freq. dielectric constant tensor:
#      x y z
#    x 1.727560 0.000000 0.000000 
#    y 0.000000 1.731820 0.000000 
#    z 0.000000 0.000000 1.741990 
# 
# From -- ./inp_files/42753.got.cif
#   From: 2010.03.12/outbox.cif.g09.slc.cpg/sg72_22_cif.got.tgz:42753.got - 2010.04.16 14:54:00.
