data_PCOD8294898
_publ_section_title
;
Structure prediction by ZEFSAII (Michael W. Deem and Ramdas Pophale) SiO2 
 PCOD8294898
Probable space group: I B A M
;
_chemical_formula_sum "Si O2"
_cell_formula_units_Z 84
_cell_length_a 20.543912
_cell_length_b 9.942086
_cell_length_c 20.141730
_cell_angle_alpha 90.000000
_cell_angle_beta 90.000000
_cell_angle_gamma 90.000000
_cell_volume 4113.935057
_symmetry_space_group_name_H-M "I B A M"
_symmetry_group_IT_number 72
_symmetry_cell_setting 'orthorhombic'
loop_
_space_group_symop_operation_xyz
x,y,z
-x,-y,z
x,-y,1/2-z
-x,y,1/2-z
-x,-y,-z
x,y,-z
-x,y,1/2+z
x,-y,1/2+z
1/2+x,1/2+y,1/2+z
1/2-x,1/2-y,1/2+z
1/2+x,1/2-y,-z
1/2-x,1/2+y,-z
1/2-x,1/2-y,1/2-z
1/2+x,1/2+y,1/2-z
1/2-x,1/2+y,z
1/2+x,1/2-y,z
loop_
_atom_site_type_symbol
_atom_site_label
_atom_site_fract_x
_atom_site_fract_y
_atom_site_fract_z
Si Si1 0.500000 0.500000 0.250000
Si Si2 0.616814 0.669766 0.804975
Si Si3 0.738806 0.498260 0.676297
Si Si4 0.576885 0.152481 0.424632
Si Si5 0.824925 0.259994 0.666218
Si Si6 0.428537 0.158673 0.426412
O O1 0.453476 0.398876 0.208181
O O2 0.664348 0.550758 0.826136
O O3 0.615704 0.770899 0.867234
O O4 0.649829 0.747884 0.742331
O O5 0.766451 0.500000 0.750000
O O6 0.791095 0.400101 0.641952
O O7 0.731671 0.650254 0.648930
O O8 0.604128 0.177951 0.500000
O O9 0.502963 0.203392 0.422094
O O10 0.579682 0.996237 0.405759
O O11 0.888610 0.242969 0.621520
O O12 0.401377 0.180642 0.500000
#
# Coordination Sequence:
#
# PCOD8294898 Si02
#       6
#     4  16  16  16  16  16
#     4  12  20  36  58  90 132 152 200 266 320 360
#     4  11  21  36  60  88 120 158 199 254 308 368
#     4  10  22  38  57  86 121 155 196 253 303 349
#     4   9  20  38  60  87 119 159 195 246 312 370
#     4  11  22  39  62  89 116 164 206 250 304 355
#     4   9  20  39  60  86 123 156 198 254 308 360
#
# _framework density 20.418406999999998
#
# number of rings (size 3 to 8) (size 9 to 14) (size 15 to 20)
#    0.000    1.905    2.857    4.571    5.333    0.000 
#    0.000    5.238    0.000    0.000    0.000    0.000 
#    0.000    0.000    0.000    0.000    0.000    0.000 
#
# Total GULP energy -520311.164259 kJ/mol
# GULP energy per Si atom -12388.361054 kJ/mol
# Density = 2.037193 g / cm^3
# Si number density = 20.418407 Si / 1000 Ang^3
#
#
#
# Elastic Constant Matrix: (Units=GPa)
#
#
# Indices 1 2 3 4 5 6 
#
# 1 71.9171 16.3609 18.7205 0.0000 0.0000 0.0000
# 2 16.3609 61.9910 36.5423 0.0000 0.0000 0.0000
# 3 18.7205 36.5423 81.0948 0.0000 0.0000 0.0000
# 4 0.0000 0.0000 0.0000 16.8605 0.0000 0.0000
# 5 0.0000 0.0000 0.0000 0.0000 14.2789 0.0000
# 6 0.0000 0.0000 0.0000 0.0000 0.0000 35.3422
#
#
#
# Elastic Compliance Matrix: (Units=1/GPa)
#
#
# Indices 1 2 3 4 5 6 
#
# 1 0.015102 -0.002629 -0.002302 0.000000 0.000000 0.000000
# 2 -0.002629 0.022424 -0.009498 0.000000 0.000000 0.000000
# 3 -0.002302 -0.009498 0.017142 0.000000 0.000000 0.000000
# 4 0.000000 0.000000 0.000000 0.059310 0.000000 0.000000
# 5 0.000000 0.000000 0.000000 0.000000 0.070034 0.000000
# 6 0.000000 0.000000 0.000000 0.000000 0.000000 0.028295
#
#
# Mechanical properties :
#
#
# Convention : Reuss Voigt Hill
#
# Bulk Modulus (GPa) = 38.74193 39.80558 39.27375
# Shear Modulus (GPa) = 20.01866 22.85495 21.43680
#
# Velocity S-wave (km/s) = 3.13457 3.34927 3.24369
# Velocity P-wave (km/s) = 5.66709 5.87317 5.77105
#
# Compressibility (1/GPa) = 0.02581183
#
# Stress axis : x y z
#
# Youngs Moduli (GPa) = 66.21590 44.59548 58.33536
#
# Poissons Ratio (x) = 0.11724 0.13426
# Poissons Ratio (y) = 0.17409 0.55404
# Poissons Ratio (z) = 0.15240 0.42355
#
# Static dielectric constant tensor:
#      x y z
#    x 3.657990 0.000000 0.000000 
#    y 0.000000 3.962320 0.000000 
#    z 0.000000 0.000000 3.540960 
# 
# 
# High freq. dielectric constant tensor:
#      x y z
#    x 1.805290 0.000000 0.000000 
#    y 0.000000 1.796850 0.000000 
#    z 0.000000 0.000000 1.767910 
# 
# From -- ./inp_files/39649.got.cif
#   From: 2010.03.12/outbox.cif.g09.slc.cpg/sg72_20_cif.got.tgz:39649.got - 2010.04.16 14:54:00.
