data_PCOD8294280
_publ_section_title
;
Structure prediction by ZEFSAII (Michael W. Deem and Ramdas Pophale) SiO2 
 PCOD8294280
Probable space group: I B A M
;
_chemical_formula_sum "Si O2"
_cell_formula_units_Z 68
_cell_length_a 13.506851
_cell_length_b 8.762689
_cell_length_c 28.107567
_cell_angle_alpha 90.000000
_cell_angle_beta 90.000000
_cell_angle_gamma 90.000000
_cell_volume 3326.708607
_symmetry_space_group_name_H-M "I B A M"
_symmetry_group_IT_number 72
_symmetry_cell_setting 'orthorhombic'
loop_
_space_group_symop_operation_xyz
x,y,z
-x,-y,z
x,-y,1/2-z
-x,y,1/2-z
-x,-y,-z
x,y,-z
-x,y,1/2+z
x,-y,1/2+z
1/2+x,1/2+y,1/2+z
1/2-x,1/2-y,1/2+z
1/2+x,1/2-y,-z
1/2-x,1/2+y,-z
1/2-x,1/2-y,1/2-z
1/2+x,1/2+y,1/2-z
1/2-x,1/2+y,z
1/2+x,1/2-y,z
loop_
_atom_site_type_symbol
_atom_site_label
_atom_site_fract_x
_atom_site_fract_y
_atom_site_fract_z
Si Si1 0.059856 0.786205 0.000000
Si Si2 0.160092 0.890195 0.500000
Si Si3 0.321560 0.326095 0.709861
Si Si4 0.000000 0.000000 0.250000
Si Si5 0.183757 0.313324 0.420257
Si Si6 0.728145 0.072780 0.145113
O O1 0.086340 0.693421 0.952573
O O2 0.943893 0.805052 0.000000
O O3 0.134068 0.931439 0.000000
O O4 0.218790 0.841366 0.547317
O O5 0.250000 0.250000 0.750000
O O6 0.430940 0.377664 0.723708
O O7 0.340027 0.204246 0.667866
O O8 0.275849 0.481796 0.689089
O O9 0.192643 0.158961 0.388930
O O10 0.164141 0.456861 0.386115
#
# Coordination Sequence:
#
# PCOD8294280 Si02
#       6
#     8   8  16   4  16  16
#     4  10  20  37  60  85 128 168 209 256 316 379
#     4  10  20  37  60  89 120 169 214 249 316 388
#     4  11  22  45  68  96 129 169 214 271 330 397
#     4  12  24  44  74  94 128 182 206 260 356 390
#     4  10  20  39  60  91 124 168 206 263 323 368
#     4  10  21  40  66  90 132 162 210 274 317 379
#
# _framework density 20.440625000000001
#
# number of rings (size 3 to 8) (size 9 to 14) (size 15 to 20)
#    0.000    1.647    4.706    0.000    0.000    0.000 
#    8.471    7.059    0.000    0.000    0.000    0.000 
#    0.000    0.000    0.000    0.000    0.000    0.000 
#
# Total GULP energy -421238.672927 kJ/mol
# GULP energy per Si atom -12389.372733 kJ/mol
# Density = 2.039410 g / cm^3
# Si number density = 20.440625 Si / 1000 Ang^3
#
#
#
# Elastic Constant Matrix: (Units=GPa)
#
#
# Indices 1 2 3 4 5 6 
#
# 1 103.7236 32.8332 40.8762 0.0000 0.0000 0.0000
# 2 32.8332 106.7867 39.0468 0.0000 0.0000 0.0000
# 3 40.8762 39.0468 99.3333 0.0000 0.0000 0.0000
# 4 0.0000 0.0000 0.0000 39.2681 0.0000 0.0000
# 5 0.0000 0.0000 0.0000 0.0000 11.9746 0.0000
# 6 0.0000 0.0000 0.0000 0.0000 0.0000 26.3580
#
#
#
# Elastic Compliance Matrix: (Units=1/GPa)
#
#
# Indices 1 2 3 4 5 6 
#
# 1 0.011929 -0.002187 -0.004049 0.000000 0.000000 0.000000
# 2 -0.002187 0.011337 -0.003557 0.000000 0.000000 0.000000
# 3 -0.004049 -0.003557 0.013131 0.000000 0.000000 0.000000
# 4 0.000000 0.000000 0.000000 0.025466 0.000000 0.000000
# 5 0.000000 0.000000 0.000000 0.000000 0.083510 0.000000
# 6 0.000000 0.000000 0.000000 0.000000 0.000000 0.037939
#
#
# Mechanical properties :
#
#
# Convention : Reuss Voigt Hill
#
# Bulk Modulus (GPa) = 59.48091 59.48399 59.48245
# Shear Modulus (GPa) = 23.98047 28.65931 26.31989
#
# Velocity S-wave (km/s) = 3.42888 3.74849 3.59224
# Velocity P-wave (km/s) = 6.69618 6.92091 6.80947
#
# Compressibility (1/GPa) = 0.01681212
#
# Stress axis : x y z
#
# Youngs Moduli (GPa) = 83.82894 88.20356 76.15341
#
# Poissons Ratio (x) = 0.19292 0.30835
# Poissons Ratio (y) = 0.18335 0.27084
# Poissons Ratio (z) = 0.33943 0.31370
#
# Static dielectric constant tensor:
#      x y z
#    x 3.264010 0.000000 0.000000 
#    y 0.000000 4.044830 0.000000 
#    z 0.000000 0.000000 4.032510 
# 
# 
# High freq. dielectric constant tensor:
#      x y z
#    x 1.756020 0.000000 0.000000 
#    y 0.000000 1.824350 0.000000 
#    z 0.000000 0.000000 1.820770 
# 
# From -- ./inp_files/48460.got.cif
#   From: 2010.03.12/outbox.cif.g09.slc.cpg/sg72_25_cif.got.tgz:48460.got - 2010.04.16 14:54:00.
