data_PCOD8294954
_publ_section_title
;
Structure prediction by ZEFSAII (Michael W. Deem and Ramdas Pophale) SiO2 
 PCOD8294954
Probable space group: I B A M
;
_chemical_formula_sum "Si O2"
_cell_formula_units_Z 72
_cell_length_a 13.137215
_cell_length_b 8.500742
_cell_length_c 29.228605
_cell_angle_alpha 90.000000
_cell_angle_beta 90.000000
_cell_angle_gamma 90.000000
_cell_volume 3264.135893
_symmetry_space_group_name_H-M "I B A M"
_symmetry_group_IT_number 72
_symmetry_cell_setting 'orthorhombic'
loop_
_space_group_symop_operation_xyz
x,y,z
-x,-y,z
x,-y,1/2-z
-x,y,1/2-z
-x,-y,-z
x,y,-z
-x,y,1/2+z
x,-y,1/2+z
1/2+x,1/2+y,1/2+z
1/2-x,1/2-y,1/2+z
1/2+x,1/2-y,-z
1/2-x,1/2+y,-z
1/2-x,1/2-y,1/2-z
1/2+x,1/2+y,1/2-z
1/2-x,1/2+y,z
1/2+x,1/2-y,z
loop_
_atom_site_type_symbol
_atom_site_label
_atom_site_fract_x
_atom_site_fract_y
_atom_site_fract_z
Si Si1 0.041839 0.324943 0.386067
Si Si2 0.258127 0.500000 0.750000
Si Si3 0.188898 0.817110 0.948865
Si Si4 0.403205 0.760925 0.284557
Si Si5 0.110440 0.158519 0.051069
O O1 0.149095 0.310558 0.411916
O O2 0.046657 0.270432 0.333937
O O3 0.000000 0.500000 0.390017
O O4 0.975651 0.194633 0.412408
O O5 0.335922 0.603223 0.719784
O O6 0.180420 0.600629 0.780755
O O7 0.310197 0.801378 0.947169
O O8 0.162387 0.994567 0.935261
O O9 0.149957 0.773725 0.000000
O O10 0.500000 0.771276 0.250000
O O11 0.062759 0.147209 0.000000
#
# Coordination Sequence:
#
# PCOD8294954 Si02
#       5
#    16   8  16  16  16
#     4  12  25  39  63  94 129 170 214 267 327 392
#     4  10  24  46  72  94 128 174 214 266 334 396
#     4  10  22  40  62  90 127 170 218 271 327 394
#     4  11  25  46  69  98 132 169 217 272 330 397
#     4  10  22  41  63  90 127 170 218 273 331 393
#
# _framework density 22.057904000000001
#
# number of rings (size 3 to 8) (size 9 to 14) (size 15 to 20)
#    0.000    1.333    0.000    4.667    0.000   16.000 
#    0.000    0.000    0.000    0.000    0.000    0.000 
#    0.000    0.000    0.000    0.000    0.000    0.000 
#
# Total GULP energy -446189.715233 kJ/mol
# GULP energy per Si atom -12394.158756 kJ/mol
# Density = 2.200770 g / cm^3
# Si number density = 22.057904 Si / 1000 Ang^3
#
#
#
# Elastic Constant Matrix: (Units=GPa)
#
#
# Indices 1 2 3 4 5 6 
#
# 1 108.2980 40.2310 41.7492 0.0000 0.0000 0.0000
# 2 40.2310 114.2673 42.6390 0.0000 0.0000 0.0000
# 3 41.7492 42.6390 139.0244 0.0000 0.0000 0.0000
# 4 0.0000 0.0000 0.0000 23.9458 0.0000 0.0000
# 5 0.0000 0.0000 0.0000 0.0000 50.6488 0.0000
# 6 0.0000 0.0000 0.0000 0.0000 0.0000 50.3464
#
#
#
# Elastic Compliance Matrix: (Units=1/GPa)
#
#
# Indices 1 2 3 4 5 6 
#
# 1 0.011322 -0.003069 -0.002459 0.000000 0.000000 0.000000
# 2 -0.003069 0.010714 -0.002365 0.000000 0.000000 0.000000
# 3 -0.002459 -0.002365 0.008657 0.000000 0.000000 0.000000
# 4 0.000000 0.000000 0.000000 0.041761 0.000000 0.000000
# 5 0.000000 0.000000 0.000000 0.000000 0.019744 0.000000
# 6 0.000000 0.000000 0.000000 0.000000 0.000000 0.019862
#
#
# Mechanical properties :
#
#
# Convention : Reuss Voigt Hill
#
# Bulk Modulus (GPa) = 67.07580 67.86979 67.47279
# Shear Modulus (GPa) = 37.64702 40.78623 39.21662
#
# Velocity S-wave (km/s) = 4.13575 4.30473 4.22108
# Velocity P-wave (km/s) = 7.29937 7.45274 7.37645
#
# Compressibility (1/GPa) = 0.01490851
#
# Stress axis : x y z
#
# Youngs Moduli (GPa) = 88.32696 93.33472 115.51943
#
# Poissons Ratio (x) = 0.28641 0.28403
# Poissons Ratio (y) = 0.27104 0.27315
# Poissons Ratio (z) = 0.21717 0.22069
#
# Static dielectric constant tensor:
#      x y z
#    x 4.329520 0.000000 0.000000 
#    y 0.000000 4.108860 0.000000 
#    z 0.000000 0.000000 3.838950 
# 
# 
# High freq. dielectric constant tensor:
#      x y z
#    x 1.886910 0.000000 0.000000 
#    y 0.000000 1.878770 0.000000 
#    z 0.000000 0.000000 1.855070 
# 
# From -- ./inp_files/48471.got.cif
#   From: 2010.03.12/outbox.cif.g09.slc.cpg/sg72_25_cif.got.tgz:48471.got - 2010.04.16 14:54:00.
