data_PCOD8294448
_publ_section_title
;
Structure prediction by ZEFSAII (Michael W. Deem and Ramdas Pophale) SiO2 
 PCOD8294448
Probable space group: I B A M
;
_chemical_formula_sum "Si O2"
_cell_formula_units_Z 80
_cell_length_a 8.901362
_cell_length_b 18.134760
_cell_length_c 24.555558
_cell_angle_alpha 90.000000
_cell_angle_beta 90.000000
_cell_angle_gamma 90.000000
_cell_volume 3963.857955
_symmetry_space_group_name_H-M "I B A M"
_symmetry_group_IT_number 72
_symmetry_cell_setting 'orthorhombic'
loop_
_space_group_symop_operation_xyz
x,y,z
-x,-y,z
x,-y,1/2-z
-x,y,1/2-z
-x,-y,-z
x,y,-z
-x,y,1/2+z
x,-y,1/2+z
1/2+x,1/2+y,1/2+z
1/2-x,1/2-y,1/2+z
1/2+x,1/2-y,-z
1/2-x,1/2+y,-z
1/2-x,1/2-y,1/2-z
1/2+x,1/2+y,1/2-z
1/2-x,1/2+y,z
1/2+x,1/2-y,z
loop_
_atom_site_type_symbol
_atom_site_label
_atom_site_fract_x
_atom_site_fract_y
_atom_site_fract_z
Si Si1 0.003821 0.818032 0.093263
Si Si2 0.851853 0.462999 0.638088
Si Si3 0.063430 0.921647 0.190623
Si Si4 0.649360 0.454802 0.940576
Si Si5 0.654768 0.826779 0.436794
O O1 0.010269 0.854038 0.153339
O O2 0.167094 0.815062 0.066207
O O3 0.892453 0.868486 0.057617
O O4 0.933132 0.737297 0.095229
O O5 0.745749 0.429614 0.686179
O O6 0.770319 0.528576 0.605502
O O7 0.893809 0.401089 0.593757
O O8 0.000000 0.500000 0.664457
O O9 0.000000 0.903232 0.250000
O O10 0.000000 0.000000 0.170252
O O11 0.500000 0.500000 0.926645
O O12 0.712443 0.477645 0.000000
O O13 0.604982 0.829965 0.500000
#
# Coordination Sequence:
#
# PCOD8294448 Si02
#       5
#    16  16  16  16  16
#     4  11  22  39  57  88 122 164 211 255 309 367
#     4  11  23  39  60  95 128 157 207 264 309 363
#     4  10  20  42  70  87 112 162 213 261 315 370
#     4  11  19  35  60  83 118 167 211 243 299 377
#     4  11  23  37  57  90 133 171 205 247 303 373
#
# _framework density 20.182358000000001
#
# number of rings (size 3 to 8) (size 9 to 14) (size 15 to 20)
#    0.000    1.200    6.000    2.400    2.800    1.600 
#    0.000    6.000    0.000    0.000    0.000    0.000 
#    0.000    0.000    0.000    0.000    0.000    0.000 
#
# Total GULP energy -495833.534008 kJ/mol
# GULP energy per Si atom -12395.838350 kJ/mol
# Density = 2.013642 g / cm^3
# Si number density = 20.182358 Si / 1000 Ang^3
#
#
#
# Elastic Constant Matrix: (Units=GPa)
#
#
# Indices 1 2 3 4 5 6 
#
# 1 87.0340 45.5160 47.5541 0.0000 0.0000 0.0000
# 2 45.5160 96.5323 22.9380 0.0000 0.0000 0.0000
# 3 47.5541 22.9380 130.4642 0.0000 0.0000 0.0000
# 4 0.0000 0.0000 0.0000 27.3808 0.0000 0.0000
# 5 0.0000 0.0000 0.0000 0.0000 15.8020 0.0000
# 6 0.0000 0.0000 0.0000 0.0000 0.0000 43.6314
#
#
#
# Elastic Compliance Matrix: (Units=1/GPa)
#
#
# Indices 1 2 3 4 5 6 
#
# 1 0.018256 -0.007333 -0.005365 0.000000 0.000000 0.000000
# 2 -0.007333 0.013756 0.000254 0.000000 0.000000 0.000000
# 3 -0.005365 0.000254 0.009576 0.000000 0.000000 0.000000
# 4 0.000000 0.000000 0.000000 0.036522 0.000000 0.000000
# 5 0.000000 0.000000 0.000000 0.000000 0.063283 0.000000
# 6 0.000000 0.000000 0.000000 0.000000 0.000000 0.022919
#
#
# Mechanical properties :
#
#
# Convention : Reuss Voigt Hill
#
# Bulk Modulus (GPa) = 59.87811 60.67185 60.27498
# Shear Modulus (GPa) = 25.67169 30.56435 28.11802
#
# Velocity S-wave (km/s) = 3.57036 3.89576 3.73661
# Velocity P-wave (km/s) = 6.83590 7.09669 6.96752
#
# Compressibility (1/GPa) = 0.01670059
#
# Stress axis : x y z
#
# Youngs Moduli (GPa) = 54.77614 72.69319 104.43007
#
# Poissons Ratio (x) = 0.53307 0.56027
# Poissons Ratio (y) = 0.40168 -0.02655
# Poissons Ratio (z) = 0.29388 -0.01848
#
# Static dielectric constant tensor:
#      x y z
#    x 3.688350 0.000000 0.000000 
#    y 0.000000 3.764630 0.000000 
#    z 0.000000 0.000000 3.447700 
# 
# 
# High freq. dielectric constant tensor:
#      x y z
#    x 1.782060 0.000000 0.000000 
#    y 0.000000 1.783950 0.000000 
#    z 0.000000 0.000000 1.774160 
# 
# From -- ./inp_files/47178.got.cif
#   From: 2010.03.12/outbox.cif.g09.slc.cpg/sg72_24_cif.got.tgz:47178.got - 2010.04.16 14:54:00.
