data_PCOD8294416
_publ_section_title
;
Structure prediction by ZEFSAII (Michael W. Deem and Ramdas Pophale) SiO2 
 PCOD8294416
Probable space group: I B A M
;
_chemical_formula_sum "Si O2"
_cell_formula_units_Z 116
_cell_length_a 11.826504
_cell_length_b 17.997431
_cell_length_c 28.806112
_cell_angle_alpha 90.000000
_cell_angle_beta 90.000000
_cell_angle_gamma 90.000000
_cell_volume 6131.285583
_symmetry_space_group_name_H-M "I B A M"
_symmetry_group_IT_number 72
_symmetry_cell_setting 'orthorhombic'
loop_
_space_group_symop_operation_xyz
x,y,z
-x,-y,z
x,-y,1/2-z
-x,y,1/2-z
-x,-y,-z
x,y,-z
-x,y,1/2+z
x,-y,1/2+z
1/2+x,1/2+y,1/2+z
1/2-x,1/2-y,1/2+z
1/2+x,1/2-y,-z
1/2-x,1/2+y,-z
1/2-x,1/2-y,1/2-z
1/2+x,1/2+y,1/2-z
1/2-x,1/2+y,z
1/2+x,1/2-y,z
loop_
_atom_site_type_symbol
_atom_site_label
_atom_site_fract_x
_atom_site_fract_y
_atom_site_fract_z
Si Si1 0.930570 0.659981 0.356455
Si Si2 0.175921 0.386860 0.830273
Si Si3 0.236839 0.531620 0.881272
Si Si4 0.707124 0.826674 0.768580
Si Si5 0.094884 0.105926 0.177718
Si Si6 0.893529 0.176402 0.126437
Si Si7 0.000000 0.000000 0.250000
Si Si8 0.611669 0.549442 0.053223
O O1 0.858160 0.596102 0.383400
O O2 0.901373 0.674310 0.302214
O O3 0.914248 0.736781 0.385170
O O4 0.060614 0.636649 0.355485
O O5 0.197170 0.472738 0.842534
O O6 0.178307 0.381453 0.774184
O O7 0.270522 0.332678 0.851269
O O8 0.359818 0.563150 0.867288
O O9 0.271645 0.491539 0.929560
O O10 0.750000 0.750000 0.750000
O O11 0.806567 0.842896 0.804273
O O12 0.982462 0.151059 0.165838
O O13 0.079970 0.048666 0.218774
O O14 0.906160 0.126906 0.080434
O O15 0.500000 0.500000 0.059314
O O16 0.632432 0.570104 0.000000
#
# Coordination Sequence:
#
# PCOD8294416 Si02
#       8
#    16  16  16  16  16  16   4  16
#     4  11  24  37  59  83 124 169 206 251 304 364
#     4  11  22  37  57  83 120 167 213 249 294 358
#     4  10  22  40  59  86 119 159 200 250 307 368
#     4  11  21  36  53  82 119 166 215 252 293 337
#     4  11  21  33  53  81 115 154 200 253 302 342
#     4  11  22  37  60  86 122 152 199 260 313 373
#     4  12  20  28  48  80 108 144 190 252 288 330
#     4  10  20  39  69  96 118 145 193 256 317 384
#
# _framework density 18.919360000000001
#
# number of rings (size 3 to 8) (size 9 to 14) (size 15 to 20)
#    0.000    1.241    2.759    4.966    1.931    1.655 
#    0.000    3.448    0.000   11.586    0.000    0.000 
#    0.000    0.000    0.000    0.000    0.000    0.000 
#
# Total GULP energy -718879.225133 kJ/mol
# GULP energy per Si atom -12394.469399 kJ/mol
# Density = 1.887630 g / cm^3
# Si number density = 18.919360 Si / 1000 Ang^3
#
#
#
# Elastic Constant Matrix: (Units=GPa)
#
#
# Indices 1 2 3 4 5 6 
#
# 1 110.4022 35.7102 25.4294 0.0000 0.0000 0.0000
# 2 35.7102 117.9112 38.2002 0.0000 0.0000 0.0000
# 3 25.4294 38.2002 100.7396 0.0000 0.0000 0.0000
# 4 0.0000 0.0000 0.0000 23.0990 0.0000 0.0000
# 5 0.0000 0.0000 0.0000 0.0000 23.3235 0.0000
# 6 0.0000 0.0000 0.0000 0.0000 0.0000 67.1483
#
#
#
# Elastic Compliance Matrix: (Units=1/GPa)
#
#
# Indices 1 2 3 4 5 6 
#
# 1 0.010266 -0.002587 -0.001610 0.000000 0.000000 0.000000
# 2 -0.002587 0.010321 -0.003261 0.000000 0.000000 0.000000
# 3 -0.001610 -0.003261 0.011569 0.000000 0.000000 0.000000
# 4 0.000000 0.000000 0.000000 0.043292 0.000000 0.000000
# 5 0.000000 0.000000 0.000000 0.000000 0.042875 0.000000
# 6 0.000000 0.000000 0.000000 0.000000 0.000000 0.014892
#
#
# Mechanical properties :
#
#
# Convention : Reuss Voigt Hill
#
# Bulk Modulus (GPa) = 58.00551 58.63694 58.32123
# Shear Modulus (GPa) = 32.49328 38.02839 35.26083
#
# Velocity S-wave (km/s) = 4.14872 4.48819 4.32179
# Velocity P-wave (km/s) = 7.32633 7.61045 7.46974
#
# Compressibility (1/GPa) = 0.01723974
#
# Stress axis : x y z
#
# Youngs Moduli (GPa) = 97.41307 96.89096 86.43474
#
# Poissons Ratio (x) = 0.25069 0.13918
# Poissons Ratio (y) = 0.25204 0.28182
# Poissons Ratio (z) = 0.15685 0.31592
#
# Static dielectric constant tensor:
#      x y z
#    x 3.533920 0.000000 0.000000 
#    y 0.000000 3.500170 0.000000 
#    z 0.000000 0.000000 -5.310160 
# 
# 
# High freq. dielectric constant tensor:
#      x y z
#    x 1.746590 0.000000 0.000000 
#    y 0.000000 1.744510 0.000000 
#    z 0.000000 0.000000 1.702700 
# 
# From -- ./inp_files/51557.got.cif
#   From: 2010.03.12/outbox.cif.g09.slc.cpg/sg72_26_cif.got.tgz:51557.got - 2010.04.16 14:54:00.
