data_PCOD8294904
_publ_section_title
;
Structure prediction by ZEFSAII (Michael W. Deem and Ramdas Pophale) SiO2 
 PCOD8294904
Probable space group: I B A M
;
_chemical_formula_sum "Si O2"
_cell_formula_units_Z 48
_cell_length_a 5.206400
_cell_length_b 31.708759
_cell_length_c 14.149845
_cell_angle_alpha 90.000000
_cell_angle_beta 90.000000
_cell_angle_gamma 90.000000
_cell_volume 2335.976444
_symmetry_space_group_name_H-M "I B A M"
_symmetry_group_IT_number 72
_symmetry_cell_setting 'orthorhombic'
loop_
_space_group_symop_operation_xyz
x,y,z
-x,-y,z
x,-y,1/2-z
-x,y,1/2-z
-x,-y,-z
x,y,-z
-x,y,1/2+z
x,-y,1/2+z
1/2+x,1/2+y,1/2+z
1/2-x,1/2-y,1/2+z
1/2+x,1/2-y,-z
1/2-x,1/2+y,-z
1/2-x,1/2-y,1/2-z
1/2+x,1/2+y,1/2-z
1/2-x,1/2+y,z
1/2+x,1/2-y,z
loop_
_atom_site_type_symbol
_atom_site_label
_atom_site_fract_x
_atom_site_fract_y
_atom_site_fract_z
Si Si1 0.500000 0.846930 0.750000
Si Si2 0.244810 0.427963 0.197233
Si Si3 0.362786 0.223371 0.890054
Si Si4 0.749649 0.528480 0.000000
O O1 0.717244 0.876931 0.702456
O O2 0.635247 0.819462 0.830894
O O3 0.500000 0.443618 0.250000
O O4 0.000000 0.449416 0.250000
O O5 0.253369 0.440966 0.089162
O O6 0.110359 0.249256 0.862118
O O7 0.363252 0.211215 0.000000
O O8 0.500000 0.500000 0.000000
O O9 0.000000 0.500000 0.000000
#
# Coordination Sequence:
#
# PCOD8294904 Si02
#       4
#     8  16  16   8
#     4  10  24  38  67  84 134 160 218 262 321 370
#     4  10  25  43  65 100 127 168 215 265 328 383
#     4  10  22  38  59  90 122 169 214 258 315 369
#     4  12  26  46  72  96 130 170 212 268 326 402
#
# _framework density 20.54815
#
# number of rings (size 3 to 8) (size 9 to 14) (size 15 to 20)
#    1.000    0.667    0.000    3.000    7.000    4.000 
#    3.000    0.000    0.000    0.000    0.000    0.000 
#    0.000    0.000    0.000    0.000    0.000    0.000 
#
# Total GULP energy -297614.981516 kJ/mol
# GULP energy per Si atom -12400.624230 kJ/mol
# Density = 2.050138 g / cm^3
# Si number density = 20.548150 Si / 1000 Ang^3
#
#
#
# Elastic Constant Matrix: (Units=GPa)
#
#
# Indices 1 2 3 4 5 6 
#
# 1 169.5753 52.8739 66.5389 0.0000 0.0000 0.0000
# 2 52.8739 112.6783 84.4495 0.0000 0.0000 0.0000
# 3 66.5389 84.4495 167.5484 -0.0001 0.0000 0.0000
# 4 0.0000 0.0000 -0.0001 50.0354 0.0000 0.0000
# 5 0.0000 0.0000 0.0000 0.0000 29.8498 0.0000
# 6 0.0000 0.0000 0.0000 0.0000 0.0000 9.7033
#
#
#
# Elastic Compliance Matrix: (Units=1/GPa)
#
#
# Indices 1 2 3 4 5 6 
#
# 1 0.007256 -0.002001 -0.001873 0.000000 0.000000 0.000000
# 2 -0.002001 0.014815 -0.006672 0.000000 0.000000 0.000000
# 3 -0.001873 -0.006672 0.010075 0.000000 0.000000 0.000000
# 4 0.000000 0.000000 0.000000 0.019986 0.000000 0.000000
# 5 0.000000 0.000000 0.000000 0.000000 0.033501 0.000000
# 6 0.000000 0.000000 0.000000 0.000000 0.000000 0.103058
#
#
# Mechanical properties :
#
#
# Convention : Reuss Voigt Hill
#
# Bulk Modulus (GPa) = 90.47243 95.28071 92.87657
# Shear Modulus (GPa) = 23.42279 34.31368 28.86823
#
# Velocity S-wave (km/s) = 3.37990 4.09089 3.75227
# Velocity P-wave (km/s) = 7.70433 8.29361 8.00440
#
# Compressibility (1/GPa) = 0.01105309
#
# Stress axis : x y z
#
# Youngs Moduli (GPa) = 137.81785 67.50132 99.25295
#
# Poissons Ratio (x) = 0.13508 0.18590
# Poissons Ratio (y) = 0.27579 0.66224
# Poissons Ratio (z) = 0.25813 0.45039
#
# Static dielectric constant tensor:
#      x y z
#    x 3.904030 0.000000 0.000000 
#    y 0.000000 3.534770 0.000000 
#    z 0.000000 0.000000 4.054530 
# 
# 
# High freq. dielectric constant tensor:
#      x y z
#    x 1.814210 0.000000 0.000000 
#    y 0.000000 1.796650 0.000000 
#    z 0.000000 0.000000 1.816410 
# 
# From -- ./inp_files/17423.got.cif
#   From: 2010.03.12/outbox.cif.g09.slc.cpg/sg72_9_cif.got.tgz:17423.got - 2010.04.16 14:54:00.
