data_PCOD8294242
_publ_section_title
;
Structure prediction by ZEFSAII (Michael W. Deem and Ramdas Pophale) SiO2 
 PCOD8294242
Probable space group: I B A M
;
_chemical_formula_sum "Si O2"
_cell_formula_units_Z 96
_cell_length_a 9.683023
_cell_length_b 25.472835
_cell_length_c 23.257624
_cell_angle_alpha 90.000000
_cell_angle_beta 90.000000
_cell_angle_gamma 90.000000
_cell_volume 5736.587087
_symmetry_space_group_name_H-M "I B A M"
_symmetry_group_IT_number 72
_symmetry_cell_setting 'orthorhombic'
loop_
_space_group_symop_operation_xyz
x,y,z
-x,-y,z
x,-y,1/2-z
-x,y,1/2-z
-x,-y,-z
x,y,-z
-x,y,1/2+z
x,-y,1/2+z
1/2+x,1/2+y,1/2+z
1/2-x,1/2-y,1/2+z
1/2+x,1/2-y,-z
1/2-x,1/2+y,-z
1/2-x,1/2-y,1/2-z
1/2+x,1/2+y,1/2-z
1/2-x,1/2+y,z
1/2+x,1/2-y,z
loop_
_atom_site_type_symbol
_atom_site_label
_atom_site_fract_x
_atom_site_fract_y
_atom_site_fract_z
Si Si1 0.590755 0.447837 0.000000
Si Si2 0.718431 0.403642 0.198437
Si Si3 0.991571 0.938407 0.617631
Si Si4 0.756169 0.605466 0.175880
Si Si5 0.973311 0.437526 0.875554
Si Si6 0.912881 0.448047 0.000000
Si Si7 0.835558 0.197193 0.754185
O O1 0.500000 0.500000 0.000000
O O2 0.553057 0.414719 0.057792
O O3 0.751547 0.462485 0.000000
O O4 0.570353 0.420208 0.174538
O O5 0.739039 0.425935 0.263399
O O6 0.714599 0.339860 0.201274
O O7 0.832412 0.426599 0.156978
O O8 0.834322 0.920269 0.625415
O O9 0.000000 0.000000 0.612394
O O10 0.912549 0.598909 0.154548
O O11 0.709003 0.666278 0.186757
O O12 0.954071 0.417542 0.941436
O O13 0.000000 0.500000 0.872010
O O14 0.000000 0.500000 0.000000
O O15 0.750000 0.250000 0.750000
O O16 0.000000 0.207856 0.750000
#
# Coordination Sequence:
#
# PCOD8294242 Si02
#       7
#     8  16  16  16  16   8  16
#     4  10  22  34  54  74 101 160 203 215 261 306
#     4  10  20  37  52  82 114 139 190 215 276 338
#     4  11  20  34  54  77 115 150 185 225 257 317
#     4  10  22  35  52  85 111 140 189 217 281 334
#     4  11  22  34  53  79 120 155 184 221 262 318
#     4  10  22  36  50  74 109 154 199 223 253 308
#     4  10  22  39  58  81 110 139 181 232 282 336
#
# _framework density 16.734688999999999
#
# number of rings (size 3 to 8) (size 9 to 14) (size 15 to 20)
#    1.000    0.667    3.333    2.000    9.333    4.000 
#    0.000    0.000    0.000    0.000    0.000    7.000 
#    0.000    0.000    0.000    0.000    0.000    0.000 
#
# Total GULP energy -594674.803051 kJ/mol
# GULP energy per Si atom -12389.058397 kJ/mol
# Density = 1.669660 g / cm^3
# Si number density = 16.734689 Si / 1000 Ang^3
#
#
#
# Elastic Constant Matrix: (Units=GPa)
#
#
# Indices 1 2 3 4 5 6 
#
# 1 62.5014 23.3003 21.6050 0.0000 0.0000 0.0000
# 2 23.3003 74.1573 19.9503 0.0000 0.0000 0.0000
# 3 21.6050 19.9503 110.3610 0.0000 0.0000 0.0000
# 4 0.0000 0.0000 0.0000 0.3865 0.0000 0.0000
# 5 0.0000 0.0000 0.0000 0.0000 30.1568 0.0000
# 6 0.0000 0.0000 0.0000 0.0000 0.0000 27.8331
#
#
#
# Elastic Compliance Matrix: (Units=1/GPa)
#
#
# Indices 1 2 3 4 5 6 
#
# 1 0.018889 -0.005193 -0.002759 0.000000 0.000000 0.000000
# 2 -0.005193 0.015602 -0.001804 0.000000 0.000000 0.000000
# 3 -0.002759 -0.001804 0.009927 -0.000001 0.000000 0.000000
# 4 0.000000 0.000000 -0.000001 2.587300 0.000000 0.000000
# 5 0.000000 0.000000 0.000000 0.000000 0.033160 0.000000
# 6 0.000000 0.000000 0.000000 0.000000 0.000000 0.035928
#
#
# Mechanical properties :
#
#
# Convention : Reuss Voigt Hill
#
# Bulk Modulus (GPa) = 40.14947 41.85897 41.00422
# Shear Modulus (GPa) = 1.83243 23.81956 12.82599
#
# Velocity S-wave (km/s) = 1.04755 3.77684 2.77145
# Velocity P-wave (km/s) = 5.05045 6.63980 5.89890
#
# Compressibility (1/GPa) = 0.02490693
#
# Stress axis : x y z
#
# Youngs Moduli (GPa) = 52.94019 64.09563 100.73127
#
# Poissons Ratio (x) = 0.33283 0.27793
# Poissons Ratio (y) = 0.27490 0.18170
# Poissons Ratio (z) = 0.14607 0.11562
#
# Static dielectric constant tensor:
#      x y z
#    x 3.162540 0.000000 0.000000 
#    y 0.000000 2.675770 0.000000 
#    z 0.000000 0.000000 4.070790 
# 
# 
# High freq. dielectric constant tensor:
#      x y z
#    x 1.666930 0.000000 0.000000 
#    y 0.000000 1.595330 0.000000 
#    z 0.000000 0.000000 1.649840 
# 
# From -- ./inp_files/42585.got.cif
#   From: 2010.03.12/outbox.cif.g09.slc.cpg/sg72_22_cif.got.tgz:42585.got - 2010.04.16 14:54:00.
