data_PCOD8294096
_publ_section_title
;
Structure prediction by ZEFSAII (Michael W. Deem and Ramdas Pophale) SiO2 
 PCOD8294096
Probable space group: I B A M
;
_chemical_formula_sum "Si O2"
_cell_formula_units_Z 72
_cell_length_a 20.210458
_cell_length_b 9.074141
_cell_length_c 19.509819
_cell_angle_alpha 90.000000
_cell_angle_beta 90.000000
_cell_angle_gamma 90.000000
_cell_volume 3577.955370
_symmetry_space_group_name_H-M "I B A M"
_symmetry_group_IT_number 72
_symmetry_cell_setting 'orthorhombic'
loop_
_space_group_symop_operation_xyz
x,y,z
-x,-y,z
x,-y,1/2-z
-x,y,1/2-z
-x,-y,-z
x,y,-z
-x,y,1/2+z
x,-y,1/2+z
1/2+x,1/2+y,1/2+z
1/2-x,1/2-y,1/2+z
1/2+x,1/2-y,-z
1/2-x,1/2+y,-z
1/2-x,1/2-y,1/2-z
1/2+x,1/2+y,1/2-z
1/2-x,1/2+y,z
1/2+x,1/2-y,z
loop_
_atom_site_type_symbol
_atom_site_label
_atom_site_fract_x
_atom_site_fract_y
_atom_site_fract_z
Si Si1 0.898145 0.137741 0.420065
Si Si2 0.743645 0.000000 0.750000
Si Si3 0.354613 0.319783 0.080402
Si Si4 0.281748 0.755031 0.844494
Si Si5 0.986615 0.339198 0.919560
O O1 0.908414 0.121915 0.500000
O O2 0.835063 0.240965 0.404600
O O3 0.963789 0.214652 0.387913
O O4 0.884036 0.974188 0.391413
O O5 0.699469 0.098842 0.801224
O O6 0.787816 0.112938 0.705126
O O7 0.290973 0.271547 0.123356
O O8 0.410573 0.198845 0.094826
O O9 0.335747 0.329336 0.000000
O O10 0.000000 0.500000 0.886729
O O11 0.001699 0.345121 0.000000
#
# Coordination Sequence:
#
# PCOD8294096 Si02
#       5
#    16   8  16  16  16
#     4  10  20  35  58  87 117 146 178 225 284 338
#     4  10  24  38  58  76 112 150 194 232 280 314
#     4  10  20  35  58  87 117 146 178 225 284 338
#     4  11  21  40  58  84 107 149 192 236 270 331
#     4   9  19  33  53  84 119 148 175 218 282 343
#
# _framework density 20.123224
#
# number of rings (size 3 to 8) (size 9 to 14) (size 15 to 20)
#    0.000    2.000    2.222    1.333    3.111    2.667 
#    0.000    0.000    0.000    8.000    0.000    0.000 
#    0.000    0.000    0.000    0.000    0.000    0.000 
#
# Total GULP energy -446169.534481 kJ/mol
# GULP energy per Si atom -12393.598180 kJ/mol
# Density = 2.007742 g / cm^3
# Si number density = 20.123224 Si / 1000 Ang^3
#
#
#
# Elastic Constant Matrix: (Units=GPa)
#
#
# Indices 1 2 3 4 5 6 
#
# 1 102.6930 37.2186 21.1857 0.0000 0.0000 0.0000
# 2 37.2186 119.0119 28.3735 0.0000 0.0000 0.0000
# 3 21.1857 28.3735 31.4435 0.0000 0.0000 0.0000
# 4 0.0000 0.0000 0.0000 25.2102 0.0000 0.0000
# 5 0.0000 0.0000 0.0000 0.0000 6.3310 0.0000
# 6 0.0000 0.0000 0.0000 0.0000 0.0000 27.7762
#
#
#
# Elastic Compliance Matrix: (Units=1/GPa)
#
#
# Indices 1 2 3 4 5 6 
#
# 1 0.011777 -0.002282 -0.005876 0.000000 0.000000 0.000000
# 2 -0.002282 0.011148 -0.008522 0.000000 0.000000 0.000000
# 3 -0.005876 -0.008522 0.043452 0.000000 0.000000 0.000000
# 4 0.000000 0.000000 0.000000 0.039667 0.000000 0.000000
# 5 0.000000 0.000000 0.000000 0.000000 0.157953 0.000000
# 6 0.000000 0.000000 0.000000 0.000000 0.000000 0.036002
#
#
# Mechanical properties :
#
#
# Convention : Reuss Voigt Hill
#
# Bulk Modulus (GPa) = 30.28709 47.41155 38.84932
# Shear Modulus (GPa) = 14.51956 22.95485 18.73720
#
# Velocity S-wave (km/s) = 2.68905 3.38111 3.05474
# Velocity P-wave (km/s) = 4.97240 6.23332 5.63822
#
# Compressibility (1/GPa) = 0.03301737
#
# Stress axis : x y z
#
# Youngs Moduli (GPa) = 84.91094 89.70281 23.01406
#
# Poissons Ratio (x) = 0.20472 0.13522
# Poissons Ratio (y) = 0.19379 0.19612
# Poissons Ratio (z) = 0.49890 0.76443
#
# Static dielectric constant tensor:
#      x y z
#    x 3.484230 0.000000 0.000000 
#    y 0.000000 4.104050 0.000000 
#    z 0.000000 0.000000 3.444890 
# 
# 
# High freq. dielectric constant tensor:
#      x y z
#    x 1.771660 0.000000 0.000000 
#    y 0.000000 1.807950 0.000000 
#    z 0.000000 0.000000 1.747240 
# 
# From -- ./inp_files/27988.got.cif
#   From: 2010.03.12/outbox.cif.g09.slc.cpg/sg72_14_cif.got.tgz:27988.got - 2010.04.16 14:54:00.
