data_PCOD8294142
_publ_section_title
;
Structure prediction by ZEFSAII (Michael W. Deem and Ramdas Pophale) SiO2 
 PCOD8294142
Probable space group: I B A M
;
_chemical_formula_sum "Si O2"
_cell_formula_units_Z 80
_cell_length_a 26.952775
_cell_length_b 18.532665
_cell_length_c 8.611923
_cell_angle_alpha 90.000000
_cell_angle_beta 90.000000
_cell_angle_gamma 90.000000
_cell_volume 4301.713668
_symmetry_space_group_name_H-M "I B A M"
_symmetry_group_IT_number 72
_symmetry_cell_setting 'orthorhombic'
loop_
_space_group_symop_operation_xyz
x,y,z
-x,-y,z
x,-y,1/2-z
-x,y,1/2-z
-x,-y,-z
x,y,-z
-x,y,1/2+z
x,-y,1/2+z
1/2+x,1/2+y,1/2+z
1/2-x,1/2-y,1/2+z
1/2+x,1/2-y,-z
1/2-x,1/2+y,-z
1/2-x,1/2-y,1/2-z
1/2+x,1/2+y,1/2-z
1/2-x,1/2+y,z
1/2+x,1/2-y,z
loop_
_atom_site_type_symbol
_atom_site_label
_atom_site_fract_x
_atom_site_fract_y
_atom_site_fract_z
Si Si1 0.700920 0.285359 0.183513
Si Si2 0.053449 0.423332 0.184282
Si Si3 0.552285 0.647548 0.179386
Si Si4 0.847052 0.922247 0.315176
Si Si5 0.106846 0.709928 0.817698
O O1 0.750000 0.250000 0.250000
O O2 0.693321 0.365287 0.253523
O O3 0.656253 0.233970 0.232364
O O4 0.704452 0.291488 0.000000
O O5 0.070991 0.500000 0.250000
O O6 0.092760 0.365527 0.242202
O O7 0.000000 0.401833 0.250000
O O8 0.050864 0.426058 0.000000
O O9 0.500000 0.623725 0.250000
O O10 0.597937 0.600015 0.246527
O O11 0.563286 0.731782 0.212722
O O12 0.547909 0.631545 0.000000
O O13 0.845384 0.921534 0.500000
O O14 0.832563 0.000000 0.250000
O O15 0.117327 0.701627 0.000000
#
# Coordination Sequence:
#
# PCOD8294142 Si02
#       5
#    16  16  16  16  16
#     4  11  22  39  62  86 110 142 180 224 275 329
#     4  11  21  34  52  77 109 148 187 227 275 329
#     4   9  19  32  50  76 109 145 183 221 262 312
#     4  10  21  38  57  82 113 147 184 226 272 322
#     4  10  20  36  55  79 109 142 182 230 275 326
#
# _framework density 18.597238000000001
#
# number of rings (size 3 to 8) (size 9 to 14) (size 15 to 20)
#    0.000    1.800    0.000    7.200    0.000    6.800 
#    0.000    3.000    0.000    0.000    0.000    0.000 
#    0.000    0.000    0.000    0.000    0.000    0.000 
#
# Total GULP energy -496067.780912 kJ/mol
# GULP energy per Si atom -12401.694523 kJ/mol
# Density = 1.855491 g / cm^3
# Si number density = 18.597238 Si / 1000 Ang^3
#
#
#
# Elastic Constant Matrix: (Units=GPa)
#
#
# Indices 1 2 3 4 5 6 
#
# 1 101.1621 63.6369 41.9768 0.0000 0.0000 0.0000
# 2 63.6369 147.6161 52.5163 0.0000 0.0000 0.0000
# 3 41.9768 52.5163 115.5087 0.0000 0.0000 0.0000
# 4 0.0000 0.0000 0.0000 32.9548 0.0000 0.0000
# 5 0.0000 0.0000 0.0000 0.0000 33.5997 0.0000
# 6 0.0000 0.0000 0.0000 0.0000 0.0000 19.9249
#
#
#
# Elastic Compliance Matrix: (Units=1/GPa)
#
#
# Indices 1 2 3 4 5 6 
#
# 1 0.014313 -0.005153 -0.002858 0.000000 0.000000 0.000000
# 2 -0.005153 0.009937 -0.002645 0.000000 0.000000 0.000000
# 3 -0.002858 -0.002645 0.010899 0.000000 0.000000 0.000000
# 4 0.000000 0.000000 0.000000 0.030345 0.000000 0.000000
# 5 0.000000 0.000000 0.000000 0.000000 0.029762 0.000000
# 6 0.000000 0.000000 0.000000 0.000000 0.000000 0.050188
#
#
# Mechanical properties :
#
#
# Convention : Reuss Voigt Hill
#
# Bulk Modulus (GPa) = 72.28117 75.61632 73.94875
# Shear Modulus (GPa) = 29.17674 31.03966 30.10820
#
# Velocity S-wave (km/s) = 3.96520 4.08983 4.02800
# Velocity P-wave (km/s) = 7.74046 7.94044 7.84109
#
# Compressibility (1/GPa) = 0.01383486
#
# Stress axis : x y z
#
# Youngs Moduli (GPa) = 69.86650 100.63444 91.75367
#
# Poissons Ratio (x) = 0.51861 0.26228
# Poissons Ratio (y) = 0.36005 0.24270
# Poissons Ratio (z) = 0.19971 0.26619
#
# Static dielectric constant tensor:
#      x y z
#    x 3.494530 0.000000 0.000000 
#    y 0.000000 3.472890 0.000000 
#    z 0.000000 0.000000 3.505140 
# 
# 
# High freq. dielectric constant tensor:
#      x y z
#    x 1.708690 0.000000 0.000000 
#    y 0.000000 1.726490 0.000000 
#    z 0.000000 0.000000 1.736740 
# 
# From -- ./inp_files/4818.got.cif
#   From: 2010.03.12/outbox.cif.g09.slc.cpg/sg72_3_cif.got.tgz:4818.got - 2010.04.16 14:54:00.
