data_PCOD8294374
_publ_section_title
;
Structure prediction by ZEFSAII (Michael W. Deem and Ramdas Pophale) SiO2 
 PCOD8294374
Probable space group: I B A M
;
_chemical_formula_sum "Si O2"
_cell_formula_units_Z 112
_cell_length_a 15.575271
_cell_length_b 11.029044
_cell_length_c 30.925476
_cell_angle_alpha 90.000000
_cell_angle_beta 90.000000
_cell_angle_gamma 90.000000
_cell_volume 5312.389066
_symmetry_space_group_name_H-M "I B A M"
_symmetry_group_IT_number 72
_symmetry_cell_setting 'orthorhombic'
loop_
_space_group_symop_operation_xyz
x,y,z
-x,-y,z
x,-y,1/2-z
-x,y,1/2-z
-x,-y,-z
x,y,-z
-x,y,1/2+z
x,-y,1/2+z
1/2+x,1/2+y,1/2+z
1/2-x,1/2-y,1/2+z
1/2+x,1/2-y,-z
1/2-x,1/2+y,-z
1/2-x,1/2-y,1/2-z
1/2+x,1/2+y,1/2-z
1/2-x,1/2+y,z
1/2+x,1/2-y,z
loop_
_atom_site_type_symbol
_atom_site_label
_atom_site_fract_x
_atom_site_fract_y
_atom_site_fract_z
Si Si1 0.729540 0.457429 0.420453
Si Si2 0.161928 0.767186 0.297609
Si Si3 0.851943 0.807278 0.297655
Si Si4 0.819716 0.297334 0.951684
Si Si5 0.617658 0.082720 0.858430
Si Si6 0.442098 0.175381 0.872264
Si Si7 0.101957 0.017957 0.849290
O O1 0.758170 0.584958 0.442763
O O2 0.722629 0.338101 0.451270
O O3 0.796961 0.407829 0.386040
O O4 0.639285 0.483239 0.396407
O O5 0.117331 0.801070 0.252104
O O6 0.265635 0.773248 0.298954
O O7 0.134695 0.630957 0.309964
O O8 0.124543 0.844551 0.337412
O O9 0.922426 0.770033 0.334002
O O10 0.845456 0.948024 0.310863
O O11 0.896802 0.294202 0.917432
O O12 0.856285 0.316346 0.000000
O O13 0.542829 0.161086 0.882171
O O14 0.592501 0.946029 0.851115
O O15 0.000000 0.000000 0.850346
#
# Coordination Sequence:
#
# PCOD8294374 Si02
#       7
#    16  16  16  16  16  16  16
#     4  11  22  43  68  94 126 170 214 261 335 395
#     4  11  23  37  60  88 129 170 217 259 312 372
#     4  11  23  39  58  91 127 170 214 266 310 383
#     4  11  23  42  68  96 129 163 213 271 330 403
#     4  10  20  38  63  87 121 163 205 259 313 390
#     4  10  21  38  61  89 120 159 207 260 326 379
#     4  12  24  40  64  92 128 172 219 266 319 388
#
# _framework density 21.082792000000001
#
# number of rings (size 3 to 8) (size 9 to 14) (size 15 to 20)
#    0.000    1.143    2.857    4.286    0.000    3.429 
#    0.000    7.857    0.000    0.857    0.000    0.000 
#    0.000    0.000    0.000    0.000    0.000    0.000 
#
# Total GULP energy -693733.856754 kJ/mol
# GULP energy per Si atom -12388.104585 kJ/mol
# Density = 2.103481 g / cm^3
# Si number density = 21.082792 Si / 1000 Ang^3
#
#
#
# Elastic Constant Matrix: (Units=GPa)
#
#
# Indices 1 2 3 4 5 6 
#
# 1 84.4563 17.0642 13.1455 0.0000 0.0000 0.0000
# 2 17.0642 101.6078 42.8760 0.0000 0.0000 0.0000
# 3 13.1455 42.8760 109.1996 0.0000 0.0000 0.0000
# 4 0.0000 0.0000 0.0000 22.0445 0.0000 0.0000
# 5 0.0000 0.0000 0.0000 0.0000 11.9035 0.0000
# 6 0.0000 0.0000 0.0000 0.0000 0.0000 26.9433
#
#
#
# Elastic Compliance Matrix: (Units=1/GPa)
#
#
# Indices 1 2 3 4 5 6 
#
# 1 0.012315 -0.001729 -0.000804 0.000000 0.000000 0.000000
# 2 -0.001729 0.012039 -0.004519 0.000000 0.000000 0.000000
# 3 -0.000804 -0.004519 0.011029 0.000000 0.000000 0.000000
# 4 0.000000 0.000000 0.000000 0.045363 0.000000 0.000000
# 5 0.000000 0.000000 0.000000 0.000000 0.084009 0.000000
# 6 0.000000 0.000000 0.000000 0.000000 0.000000 0.037115
#
#
# Mechanical properties :
#
#
# Convention : Reuss Voigt Hill
#
# Bulk Modulus (GPa) = 46.99374 49.04835 48.02105
# Shear Modulus (GPa) = 22.41496 26.99012 24.70254
#
# Velocity S-wave (km/s) = 3.26419 3.58187 3.42671
# Velocity P-wave (km/s) = 6.04525 6.35779 6.20349
#
# Compressibility (1/GPa) = 0.02127943
#
# Stress axis : x y z
#
# Youngs Moduli (GPa) = 81.20263 83.06342 90.67378
#
# Poissons Ratio (x) = 0.14363 0.07286
# Poissons Ratio (y) = 0.14041 0.40974
# Poissons Ratio (z) = 0.06525 0.37535
#
# Static dielectric constant tensor:
#      x y z
#    x 3.894250 0.000000 0.000000 
#    y 0.000000 4.232090 0.000000 
#    z 0.000000 0.000000 3.615920 
# 
# 
# High freq. dielectric constant tensor:
#      x y z
#    x 1.818460 0.000000 0.000000 
#    y 0.000000 1.852600 0.000000 
#    z 0.000000 0.000000 1.802830 
# 
# From -- ./inp_files/51788.got.cif
#   From: 2010.03.12/outbox.cif.g09.slc.cpg/sg72_26_cif.got.tgz:51788.got - 2010.04.16 14:54:00.
