data_PCOD8294641
_publ_section_title
;
Structure prediction by ZEFSAII (Michael W. Deem and Ramdas Pophale) SiO2 
 PCOD8294641
Probable space group: I B A M
;
_chemical_formula_sum "Si O2"
_cell_formula_units_Z 88
_cell_length_a 18.114962
_cell_length_b 10.015282
_cell_length_c 22.454187
_cell_angle_alpha 90.000000
_cell_angle_beta 90.000000
_cell_angle_gamma 90.000000
_cell_volume 4073.783499
_symmetry_space_group_name_H-M "I B A M"
_symmetry_group_IT_number 72
_symmetry_cell_setting 'orthorhombic'
loop_
_space_group_symop_operation_xyz
x,y,z
-x,-y,z
x,-y,1/2-z
-x,y,1/2-z
-x,-y,-z
x,y,-z
-x,y,1/2+z
x,-y,1/2+z
1/2+x,1/2+y,1/2+z
1/2-x,1/2-y,1/2+z
1/2+x,1/2-y,-z
1/2-x,1/2+y,-z
1/2-x,1/2-y,1/2-z
1/2+x,1/2+y,1/2-z
1/2-x,1/2+y,z
1/2+x,1/2-y,z
loop_
_atom_site_type_symbol
_atom_site_label
_atom_site_fract_x
_atom_site_fract_y
_atom_site_fract_z
Si Si1 0.279810 0.876427 0.000000
Si Si2 0.172992 0.482977 0.874984
Si Si3 0.914517 0.752503 0.625228
Si Si4 0.330732 0.509209 0.319829
Si Si5 0.399042 0.320860 0.500000
Si Si6 0.922277 0.765668 0.130084
Si Si7 0.109157 0.866765 0.000000
O O1 0.302814 0.961611 0.057164
O O2 0.313752 0.726961 0.000000
O O3 0.195156 0.843014 0.000000
O O4 0.116664 0.604401 0.871586
O O5 0.245266 0.512887 0.835830
O O6 0.129549 0.355617 0.848106
O O7 0.856264 0.845371 0.659249
O O8 0.926150 0.799761 0.557605
O O9 0.995065 0.756601 0.657427
O O10 0.341740 0.500000 0.250000
O O11 0.382566 0.402639 0.352544
O O12 0.434908 0.257845 0.558909
O O13 0.409397 0.477873 0.500000
#
# Coordination Sequence:
#
# PCOD8294641 Si02
#       7
#     8  16  16  16   8  16   8
#     4  10  21  37  63  98 135 169 208 260 314 385
#     4  11  24  44  68  98 134 171 214 263 322 389
#     4  12  25  40  69 100 134 173 209 265 325 387
#     4  12  27  46  68  93 125 170 227 279 319 372
#     4  10  21  37  63  96 136 166 209 261 311 389
#     4  11  24  44  67  99 136 169 211 263 328 391
#     4  12  22  34  65 102 134 166 214 256 317 388
#
# _framework density 21.60154
#
# number of rings (size 3 to 8) (size 9 to 14) (size 15 to 20)
#    0.000    0.727    3.636    3.273    5.091    5.091 
#    0.000    3.636    0.000    3.273    0.000    0.000 
#    0.000    0.000    0.000    0.000    0.000    0.000 
#
# Total GULP energy -545702.539828 kJ/mol
# GULP energy per Si atom -12402.330451 kJ/mol
# Density = 2.155237 g / cm^3
# Si number density = 21.601540 Si / 1000 Ang^3
#
#
#
# Elastic Constant Matrix: (Units=GPa)
#
#
# Indices 1 2 3 4 5 6 
#
# 1 155.0096 35.9053 0.4849 0.0000 0.0000 0.0000
# 2 35.9053 100.0073 8.1485 0.0000 0.0000 0.0000
# 3 0.4849 8.1485 84.9915 0.0000 0.0000 0.0000
# 4 0.0000 0.0000 0.0000 6.0110 0.0000 0.0000
# 5 0.0000 0.0000 0.0000 0.0000 -15.8674 0.0000
# 6 0.0000 0.0000 0.0000 0.0000 0.0000 -55.4507
#
#
#
# Elastic Compliance Matrix: (Units=1/GPa)
#
#
# Indices 1 2 3 4 5 6 
#
# 1 0.007040 -0.002544 0.000204 0.000000 0.000000 0.000000
# 2 -0.002544 0.010997 -0.001040 0.000000 0.000000 0.000000
# 3 0.000204 -0.001040 0.011864 0.000000 0.000000 0.000000
# 4 0.000000 0.000000 0.000000 0.166361 0.000000 0.000000
# 5 0.000000 0.000000 0.000000 0.000000 -0.063022 0.000000
# 6 0.000000 0.000000 0.000000 0.000000 0.000000 -0.018034
#
#
# Mechanical properties :
#
#
# Convention : Reuss Voigt Hill
#
# Bulk Modulus (GPa) = 43.21284 47.67620 45.44452
# Shear Modulus (GPa) = 38.55628 6.63655 22.59641
#
# Velocity S-wave (km/s) = 4.22937 1.75469 3.23779
# Velocity P-wave (km/s) = 6.62556 5.12093 5.92123
#
# Compressibility (1/GPa) = 0.02314127
#
# Stress axis : x y z
#
# Youngs Moduli (GPa) = 142.04798 90.93060 84.28561
#
# Poissons Ratio (x) = 0.23134 -0.01717
# Poissons Ratio (y) = 0.36138 0.08765
# Poissons Ratio (z) = -0.02894 0.09455
#
# Static dielectric constant tensor:
#      x y z
#    x 4.029960 0.000000 0.000000 
#    y 0.000000 3.915910 0.000000 
#    z 0.000000 0.000000 4.502780 
# 
# 
# High freq. dielectric constant tensor:
#      x y z
#    x 1.870900 0.000000 0.000000 
#    y 0.000000 1.854760 0.000000 
#    z 0.000000 0.000000 1.828030 
# 
# From -- ./inp_files/45295.got.cif
#   From: 2010.03.12/outbox.cif.g09.slc.cpg/sg72_23_cif.got.tgz:45295.got - 2010.04.16 14:54:00.
