data_PCOD8294868
_publ_section_title
;
Structure prediction by ZEFSAII (Michael W. Deem and Ramdas Pophale) SiO2 
 PCOD8294868
Probable space group: I B A M
;
_chemical_formula_sum "Si O2"
_cell_formula_units_Z 116
_cell_length_a 9.720081
_cell_length_b 25.211366
_cell_length_c 25.117420
_cell_angle_alpha 90.000000
_cell_angle_beta 90.000000
_cell_angle_gamma 90.000000
_cell_volume 6155.187528
_symmetry_space_group_name_H-M "I B A M"
_symmetry_group_IT_number 72
_symmetry_cell_setting 'orthorhombic'
loop_
_space_group_symop_operation_xyz
x,y,z
-x,-y,z
x,-y,1/2-z
-x,y,1/2-z
-x,-y,-z
x,y,-z
-x,y,1/2+z
x,-y,1/2+z
1/2+x,1/2+y,1/2+z
1/2-x,1/2-y,1/2+z
1/2+x,1/2-y,-z
1/2-x,1/2+y,-z
1/2-x,1/2-y,1/2-z
1/2+x,1/2+y,1/2-z
1/2-x,1/2+y,z
1/2+x,1/2-y,z
loop_
_atom_site_type_symbol
_atom_site_label
_atom_site_fract_x
_atom_site_fract_y
_atom_site_fract_z
Si Si1 0.803211 0.694289 0.937412
Si Si2 0.715508 0.892281 0.123324
Si Si3 0.000000 0.000000 0.250000
Si Si4 0.882757 0.708679 0.437948
Si Si5 0.953377 0.100158 0.304987
Si Si6 0.722612 0.408939 0.372780
Si Si7 0.661530 0.508470 0.438697
Si Si8 0.524589 0.062160 0.190906
O O1 0.695744 0.738833 0.918102
O O2 0.770563 0.642091 0.904746
O O3 0.956805 0.713977 0.923327
O O4 0.787737 0.681945 0.000000
O O5 0.688339 0.842257 0.086959
O O6 0.817856 0.873486 0.170619
O O7 0.790400 0.938015 0.089888
O O8 0.572505 0.910856 0.147554
O O9 0.911451 0.961118 0.211416
O O10 0.860495 0.701761 0.500000
O O11 0.000000 0.129928 0.250000
O O12 0.071750 0.100279 0.349250
O O13 0.735198 0.457887 0.413197
O O14 0.820015 0.421968 0.322987
O O15 0.500000 0.500000 0.432271
O O16 0.706177 0.512405 0.500000
O O17 0.500000 0.084616 0.250000
O O18 0.500000 0.000000 0.188971
#
# Coordination Sequence:
#
# PCOD8294868 Si02
#       8
#    16  16   4  16  16  16  16  16
#     4  10  23  42  65  91 120 158 204 251 302 367
#     4  12  21  40  59  91 122 161 197 250 309 354
#     4   8  20  36  52  90 118 164 196 254 276 346
#     4  10  23  42  65  91 120 158 204 251 302 367
#     4  10  22  34  61  84 119 157 209 243 287 347
#     4  12  21  40  59  91 122 161 197 250 309 354
#     4  11  23  36  55  89 126 163 200 242 298 366
#     4  11  24  36  59  90 126 159 202 245 298 364
#
# _framework density 18.845891999999999
#
# number of rings (size 3 to 8) (size 9 to 14) (size 15 to 20)
#    0.414    0.828    4.138    2.483    1.931    0.000 
#    0.000    0.690    0.000    4.966    0.000    0.000 
#    0.000    0.000    0.000    0.000    0.000    0.000 
#
# Total GULP energy -719145.055171 kJ/mol
# GULP energy per Si atom -12399.052675 kJ/mol
# Density = 1.880300 g / cm^3
# Si number density = 18.845892 Si / 1000 Ang^3
#
#
#
# Elastic Constant Matrix: (Units=GPa)
#
#
# Indices 1 2 3 4 5 6 
#
# 1 79.8975 31.6950 27.0726 0.0000 0.0000 0.0000
# 2 31.6950 104.8594 42.8161 0.0001 0.0000 0.0000
# 3 27.0726 42.8161 79.4686 0.0000 0.0000 0.0000
# 4 0.0000 0.0001 0.0000 73.1131 0.0000 0.0000
# 5 0.0000 0.0000 0.0000 0.0000 29.6806 0.0000
# 6 0.0000 0.0000 0.0000 0.0000 0.0000 21.9543
#
#
#
# Elastic Compliance Matrix: (Units=1/GPa)
#
#
# Indices 1 2 3 4 5 6 
#
# 1 0.014904 -0.003118 -0.003398 0.000000 0.000000 0.000000
# 2 -0.003118 0.012878 -0.005877 0.000000 0.000000 0.000000
# 3 -0.003398 -0.005877 0.016907 0.000000 0.000000 0.000000
# 4 0.000000 0.000000 0.000000 0.013677 0.000000 0.000000
# 5 0.000000 0.000000 0.000000 0.000000 0.033692 0.000000
# 6 0.000000 0.000000 0.000000 0.000000 0.000000 0.045549
#
#
# Mechanical properties :
#
#
# Convention : Reuss Voigt Hill
#
# Bulk Modulus (GPa) = 50.23595 51.93254 51.08425
# Shear Modulus (GPa) = 29.58101 35.79239 32.68670
#
# Velocity S-wave (km/s) = 3.96615 4.36273 4.16916
# Velocity P-wave (km/s) = 6.90564 7.27970 7.09514
#
# Compressibility (1/GPa) = 0.01990606
#
# Stress axis : x y z
#
# Youngs Moduli (GPa) = 67.09594 77.64929 59.14624
#
# Poissons Ratio (x) = 0.24208 0.20096
# Poissons Ratio (y) = 0.20918 0.34758
# Poissons Ratio (z) = 0.22797 0.45631
#
# Static dielectric constant tensor:
#      x y z
#    x 3.490110 0.000000 0.000000 
#    y 0.000000 3.310740 0.000000 
#    z 0.000000 0.000000 3.735460 
# 
# 
# High freq. dielectric constant tensor:
#      x y z
#    x 1.742130 0.000000 0.000000 
#    y 0.000000 1.711050 0.000000 
#    z 0.000000 0.000000 1.741780 
# 
# From -- ./inp_files/47621.got.cif
#   From: 2010.03.12/outbox.cif.g09.slc.cpg/sg72_24_cif.got.tgz:47621.got - 2010.04.16 14:54:00.
