data_PCOD8294039
_publ_section_title
;
Structure prediction by ZEFSAII (Michael W. Deem and Ramdas Pophale) SiO2 
 PCOD8294039
Probable space group: I B A M
;
_chemical_formula_sum "Si O2"
_cell_formula_units_Z 120
_cell_length_a 24.329561
_cell_length_b 26.422397
_cell_length_c 9.354754
_cell_angle_alpha 90.000000
_cell_angle_beta 90.000000
_cell_angle_gamma 90.000000
_cell_volume 6013.659825
_symmetry_space_group_name_H-M "I B A M"
_symmetry_group_IT_number 72
_symmetry_cell_setting 'orthorhombic'
loop_
_space_group_symop_operation_xyz
x,y,z
-x,-y,z
x,-y,1/2-z
-x,y,1/2-z
-x,-y,-z
x,y,-z
-x,y,1/2+z
x,-y,1/2+z
1/2+x,1/2+y,1/2+z
1/2-x,1/2-y,1/2+z
1/2+x,1/2-y,-z
1/2-x,1/2+y,-z
1/2-x,1/2-y,1/2-z
1/2+x,1/2+y,1/2-z
1/2-x,1/2+y,z
1/2+x,1/2-y,z
loop_
_atom_site_type_symbol
_atom_site_label
_atom_site_fract_x
_atom_site_fract_y
_atom_site_fract_z
Si Si1 0.000000 0.368330 0.250000
Si Si2 0.420218 0.952237 0.842302
Si Si3 0.102390 0.691840 0.839538
Si Si4 0.632445 0.545840 0.661919
Si Si5 0.637635 0.697988 0.840437
Si Si6 0.324876 0.881062 0.830885
Si Si7 0.716441 0.362841 0.161095
Si Si8 0.552765 0.392467 0.336440
O O1 0.036163 0.406084 0.152589
O O2 0.040760 0.331102 0.335653
O O3 0.360986 0.930798 0.791065
O O4 0.439632 0.000000 0.750000
O O5 0.415017 0.974421 0.000000
O O6 0.104274 0.751202 0.800418
O O7 0.142420 0.667591 0.723718
O O8 0.124722 0.682386 0.000000
O O9 0.660527 0.500000 0.750000
O O10 0.617262 0.529491 0.500000
O O11 0.673637 0.592092 0.657646
O O12 0.577780 0.559880 0.751166
O O13 0.688688 0.686574 0.734165
O O14 0.594522 0.653405 0.832421
O O15 0.662555 0.702084 0.000000
O O16 0.267195 0.883872 0.751546
O O17 0.315863 0.876557 0.000000
O O18 0.734532 0.348034 0.000000
O O19 0.500000 0.373876 0.250000
O O20 0.538650 0.407617 0.500000
#
# Coordination Sequence:
#
# PCOD8294039 Si02
#       8
#     8  16  16  16  16  16  16  16
#     4  10  21  36  60  86 118 152 191 240 286 336
#     4  10  22  38  57  84 115 151 192 234 284 339
#     4  10  21  38  59  84 114 150 193 235 280 336
#     4  10  21  37  57  82 110 142 183 227 278 334
#     4   9  20  37  57  83 113 149 189 231 281 335
#     4  10  22  39  58  83 114 147 187 236 285 335
#     4  10  21  38  60  84 112 147 186 231 283 340
#     4  10  20  35  55  80 112 146 184 228 275 328
#
# _framework density 19.95457
#
# number of rings (size 3 to 8) (size 9 to 14) (size 15 to 20)
#    0.000    2.133    0.000    2.200    0.933    8.267 
#    0.000    4.000    0.000    0.000    0.000    0.000 
#    0.000    0.000    0.000    0.000    0.000    0.000 
#
# Total GULP energy -743752.501417 kJ/mol
# GULP energy per Si atom -12395.875024 kJ/mol
# Density = 1.990915 g / cm^3
# Si number density = 19.954570 Si / 1000 Ang^3
#
#
#
# Elastic Constant Matrix: (Units=GPa)
#
#
# Indices 1 2 3 4 5 6 
#
# 1 71.4440 13.7118 42.6644 0.0000 0.0000 0.0000
# 2 13.7118 95.7090 44.7642 0.0000 0.0000 0.0000
# 3 42.6644 44.7642 142.1497 0.0000 0.0000 0.0000
# 4 0.0000 0.0000 0.0000 29.0825 0.0000 0.0000
# 5 0.0000 0.0000 0.0000 0.0000 30.1634 0.0000
# 6 0.0000 0.0000 0.0000 0.0000 0.0000 17.2574
#
#
#
# Elastic Compliance Matrix: (Units=1/GPa)
#
#
# Indices 1 2 3 4 5 6 
#
# 1 0.017054 -0.000058 -0.005100 0.000000 0.000000 0.000000
# 2 -0.000058 0.012253 -0.003841 0.000000 0.000000 0.000000
# 3 -0.005100 -0.003841 0.009775 0.000000 0.000000 0.000000
# 4 0.000000 0.000000 0.000000 0.034385 0.000000 0.000000
# 5 0.000000 0.000000 0.000000 0.000000 0.033153 0.000000
# 6 0.000000 0.000000 0.000000 0.000000 0.000000 0.057946
#
#
# Mechanical properties :
#
#
# Convention : Reuss Voigt Hill
#
# Bulk Modulus (GPa) = 47.43023 56.84262 52.13642
# Shear Modulus (GPa) = 26.37227 29.17812 27.77520
#
# Velocity S-wave (km/s) = 3.63935 3.82806 3.73489
# Velocity P-wave (km/s) = 6.44054 6.93445 6.69205
#
# Compressibility (1/GPa) = 0.02108360
#
# Stress axis : x y z
#
# Youngs Moduli (GPa) = 58.63786 81.61111 102.29879
#
# Poissons Ratio (x) = 0.00471 0.52175
# Poissons Ratio (y) = 0.00339 0.39296
# Poissons Ratio (z) = 0.29907 0.31349
#
# Static dielectric constant tensor:
#      x y z
#    x 3.622880 0.000000 0.000000 
#    y 0.000000 3.562980 0.000000 
#    z 0.000000 0.000000 3.924360 
# 
# 
# High freq. dielectric constant tensor:
#      x y z
#    x 1.772720 0.000000 0.000000 
#    y 0.000000 1.775230 0.000000 
#    z 0.000000 0.000000 1.788860 
# 
# From -- ./inp_files/8599.got.cif
#   From: 2010.03.12/outbox.cif.g09.slc.cpg/sg72_5_cif.got.tgz:8599.got - 2010.04.16 14:54:00.
