data_PCOD8294394
_publ_section_title
;
Structure prediction by ZEFSAII (Michael W. Deem and Ramdas Pophale) SiO2 
 PCOD8294394
Probable space group: I B A M
;
_chemical_formula_sum "Si O2"
_cell_formula_units_Z 96
_cell_length_a 9.546289
_cell_length_b 21.289040
_cell_length_c 24.499831
_cell_angle_alpha 90.000000
_cell_angle_beta 90.000000
_cell_angle_gamma 90.000000
_cell_volume 4979.133199
_symmetry_space_group_name_H-M "I B A M"
_symmetry_group_IT_number 72
_symmetry_cell_setting 'orthorhombic'
loop_
_space_group_symop_operation_xyz
x,y,z
-x,-y,z
x,-y,1/2-z
-x,y,1/2-z
-x,-y,-z
x,y,-z
-x,y,1/2+z
x,-y,1/2+z
1/2+x,1/2+y,1/2+z
1/2-x,1/2-y,1/2+z
1/2+x,1/2-y,-z
1/2-x,1/2+y,-z
1/2-x,1/2-y,1/2-z
1/2+x,1/2+y,1/2-z
1/2-x,1/2+y,z
1/2+x,1/2-y,z
loop_
_atom_site_type_symbol
_atom_site_label
_atom_site_fract_x
_atom_site_fract_y
_atom_site_fract_z
Si Si1 0.838215 0.016624 0.654718
Si Si2 0.753403 0.119822 0.164193
Si Si3 0.477455 0.313528 0.628766
Si Si4 0.036101 0.670499 0.870626
Si Si5 0.232209 0.109448 0.063343
Si Si6 0.766134 0.859849 0.212051
O O1 0.800571 0.045087 0.595526
O O2 0.802303 0.067284 0.701259
O O3 0.744937 0.955454 0.666410
O O4 0.000000 0.000000 0.658558
O O5 0.619196 0.143667 0.131901
O O6 0.759372 0.151897 0.223747
O O7 0.890476 0.140258 0.131299
O O8 0.530794 0.244154 0.616877
O O9 0.381914 0.337561 0.578867
O O10 0.387063 0.316601 0.684891
O O11 0.115312 0.635867 0.920179
O O12 0.116447 0.657957 0.813770
O O13 0.227475 0.093876 0.000000
#
# Coordination Sequence:
#
# PCOD8294394 Si02
#       6
#    16  16  16  16  16  16
#     4  10  20  39  58  88 117 149 199 254 288 347
#     4  12  20  35  61  86 118 160 198 228 290 356
#     4  10  21  38  59  88 117 154 198 244 283 347
#     4  10  23  39  55  87 126 153 193 242 286 353
#     4  10  23  44  63  83 115 155 196 257 317 337
#     4  10  22  34  56  88 124 163 186 233 290 347
#
# _framework density 19.280463999999998
#
# number of rings (size 3 to 8) (size 9 to 14) (size 15 to 20)
#    0.000    2.000    3.333    3.500    0.000    8.333 
#    0.000    5.833    0.000    0.000    0.000    0.000 
#    0.000    0.000    0.000    0.000    0.000    0.000 
#
# Total GULP energy -595305.512130 kJ/mol
# GULP energy per Si atom -12402.198169 kJ/mol
# Density = 1.923658 g / cm^3
# Si number density = 19.280464 Si / 1000 Ang^3
#
#
#
# Elastic Constant Matrix: (Units=GPa)
#
#
# Indices 1 2 3 4 5 6 
#
# 1 98.0299 8.8745 23.8696 0.0000 0.0000 0.0000
# 2 8.8745 57.7377 -6.5601 0.0000 0.0000 0.0000
# 3 23.8696 -6.5601 77.2145 0.0000 0.0000 0.0000
# 4 0.0000 0.0000 0.0000 10.7081 0.0000 0.0000
# 5 0.0000 0.0000 0.0000 0.0000 15.5734 0.0000
# 6 0.0000 0.0000 0.0000 0.0000 0.0000 12.5686
#
#
#
# Elastic Compliance Matrix: (Units=1/GPa)
#
#
# Indices 1 2 3 4 5 6 
#
# 1 0.011290 -0.002153 -0.003673 0.000000 0.000000 0.000000
# 2 -0.002153 0.017899 0.002186 0.000000 0.000000 0.000000
# 3 -0.003673 0.002186 0.014272 0.000000 0.000000 0.000000
# 4 0.000000 0.000000 0.000000 0.093388 0.000000 0.000000
# 5 0.000000 0.000000 0.000000 0.000000 0.064212 0.000000
# 6 0.000000 0.000000 0.000000 0.000000 0.000000 0.079563
#
#
# Mechanical properties :
#
#
# Convention : Reuss Voigt Hill
#
# Bulk Modulus (GPa) = 27.63796 31.70556 29.67176
# Shear Modulus (GPa) = 16.66867 21.55657 19.11262
#
# Velocity S-wave (km/s) = 2.94349 3.34736 3.15190
# Velocity P-wave (km/s) = 5.09097 5.60534 5.35434
#
# Compressibility (1/GPa) = 0.03618212
#
# Stress axis : x y z
#
# Youngs Moduli (GPa) = 88.57226 55.86911 70.06661
#
# Poissons Ratio (x) = 0.12027 0.25736
# Poissons Ratio (y) = 0.19067 -0.15318
# Poissons Ratio (z) = 0.32533 -0.12214
#
# Static dielectric constant tensor:
#      x y z
#    x 3.612440 0.000000 0.000000 
#    y 0.000000 3.666470 0.000000 
#    z 0.000000 0.000000 3.181480 
# 
# 
# High freq. dielectric constant tensor:
#      x y z
#    x 1.762570 0.000000 0.000000 
#    y 0.000000 1.758780 0.000000 
#    z 0.000000 0.000000 1.718100 
# 
# From -- ./inp_files/47482.got.cif
#   From: 2010.03.12/outbox.cif.g09.slc.cpg/sg72_24_cif.got.tgz:47482.got - 2010.04.16 14:54:00.
