data_PCOD8294110
_publ_section_title
;
Structure prediction by ZEFSAII (Michael W. Deem and Ramdas Pophale) SiO2 
 PCOD8294110
Probable space group: I B A M
;
_chemical_formula_sum "Si O2"
_cell_formula_units_Z 116
_cell_length_a 10.137579
_cell_length_b 34.106046
_cell_length_c 17.159396
_cell_angle_alpha 90.000000
_cell_angle_beta 90.000000
_cell_angle_gamma 90.000000
_cell_volume 5932.908110
_symmetry_space_group_name_H-M "I B A M"
_symmetry_group_IT_number 72
_symmetry_cell_setting 'orthorhombic'
loop_
_space_group_symop_operation_xyz
x,y,z
-x,-y,z
x,-y,1/2-z
-x,y,1/2-z
-x,-y,-z
x,y,-z
-x,y,1/2+z
x,-y,1/2+z
1/2+x,1/2+y,1/2+z
1/2-x,1/2-y,1/2+z
1/2+x,1/2-y,-z
1/2-x,1/2+y,-z
1/2-x,1/2-y,1/2-z
1/2+x,1/2+y,1/2-z
1/2-x,1/2+y,z
1/2+x,1/2-y,z
loop_
_atom_site_type_symbol
_atom_site_label
_atom_site_fract_x
_atom_site_fract_y
_atom_site_fract_z
Si Si1 0.000000 0.500000 0.750000
Si Si2 0.655000 0.500823 0.585451
Si Si3 0.987399 0.220581 0.842577
Si Si4 0.621502 0.430413 0.195938
Si Si5 0.688340 0.061096 0.173847
Si Si6 0.501557 0.635611 0.410879
Si Si7 0.306636 0.866228 0.912639
Si Si8 0.703374 0.220978 0.093014
O O1 0.083862 0.527726 0.693828
O O2 0.500000 0.500000 0.575854
O O3 0.718506 0.508780 0.500000
O O4 0.687482 0.534997 0.645944
O O5 0.704462 0.459015 0.616930
O O6 0.840467 0.233629 0.866901
O O7 0.000000 0.219958 0.750000
O O8 0.025944 0.178709 0.877555
O O9 0.087643 0.251199 0.879783
O O10 0.500000 0.445133 0.250000
O O11 0.741143 0.418926 0.252210
O O12 0.584358 0.394047 0.141911
O O13 0.618992 0.098578 0.132616
O O14 0.552536 0.633463 0.500000
O O15 0.348810 0.624506 0.407041
O O16 0.334766 0.823001 0.878511
O O17 0.359429 0.867644 0.000000
O O18 0.723862 0.221824 0.000000
#
# Coordination Sequence:
#
# PCOD8294110 Si02
#       8
#     4  16  16  16  16  16  16  16
#     4  12  28  44  56  80 112 176 210 254 288 356
#     4  11  21  34  58  90 117 142 183 246 313 368
#     4  11  22  38  62  95 131 169 215 259 311 372
#     4  12  20  33  59  90 117 144 183 251 310 361
#     4  12  23  40  60  79 115 154 208 247 301 355
#     4  10  20  35  59  94 128 155 189 245 320 380
#     4   9  19  37  62  88 117 156 198 244 305 373
#     4  10  21  40  64  92 129 170 209 257 317 379
#
# _framework density 19.551964000000002
#
# number of rings (size 3 to 8) (size 9 to 14) (size 15 to 20)
#    0.000    1.241    4.138    3.724    1.931    2.207 
#    1.241    1.379    0.000    1.655    0.000    0.000 
#    0.000    0.000    0.000    0.000    0.000    0.000 
#
# Total GULP energy -719093.756995 kJ/mol
# GULP energy per Si atom -12398.168224 kJ/mol
# Density = 1.950746 g / cm^3
# Si number density = 19.551964 Si / 1000 Ang^3
#
#
#
# Elastic Constant Matrix: (Units=GPa)
#
#
# Indices 1 2 3 4 5 6 
#
# 1 50.0548 36.8238 25.4579 0.0006 -0.0003 0.0000
# 2 36.8238 128.7406 47.4520 0.0006 -0.0002 0.0001
# 3 25.4579 47.4520 112.8463 0.0024 -0.0007 0.0000
# 4 0.0006 0.0006 0.0024 39.4805 -0.0005 0.0000
# 5 -0.0003 -0.0002 -0.0007 -0.0005 -0.5974 0.0002
# 6 0.0000 0.0001 0.0000 0.0000 0.0002 27.0054
#
#
#
# Elastic Compliance Matrix: (Units=1/GPa)
#
#
# Indices 1 2 3 4 5 6 
#
# 1 0.026288 -0.006311 -0.003276 0.000000 -0.000006 0.000000
# 2 -0.006311 0.010708 -0.003079 0.000000 0.000003 0.000000
# 3 -0.003276 -0.003079 0.010895 -0.000001 -0.000010 0.000000
# 4 0.000000 0.000000 -0.000001 0.025329 -0.000022 0.000000
# 5 -0.000006 0.000003 -0.000010 -0.000022 -1.673846 0.000012
# 6 0.000000 0.000000 0.000000 0.000000 0.000012 0.037030
#
#
# Mechanical properties :
#
#
# Convention : Reuss Voigt Hill
#
# Bulk Modulus (GPa) = 44.33134 56.78990 50.56062
# Shear Modulus (GPa) = -3.26639 25.30488 11.01925
#
# Velocity S-wave (km/s) = -1.29393 3.60145 2.37658
# Velocity P-wave (km/s) = 4.52664 6.81195 5.78330
#
# Compressibility (1/GPa) = 0.02255740
#
# Stress axis : x y z
#
# Youngs Moduli (GPa) = 38.04068 93.39165 91.78203
#
# Poissons Ratio (x) = 0.58943 0.30072
# Poissons Ratio (y) = 0.24009 0.28257
# Poissons Ratio (z) = 0.12464 0.28753
#
# Static dielectric constant tensor:
#      x y z
#    x 3.265120 0.000000 0.000000 
#    y 0.000000 3.730140 0.000000 
#    z 0.000000 0.000000 3.985640 
# 
# 
# High freq. dielectric constant tensor:
#      x y z
#    x 1.721390 0.000000 0.000000 
#    y 0.000000 1.773110 0.000000 
#    z 0.000000 0.000000 1.779540 
# 
# From -- ./inp_files/29796.got.cif
#   From: 2010.03.12/outbox.cif.g09.slc.cpg/sg72_15_cif.got.tgz:29796.got - 2010.04.16 14:54:00.
