data_PCOD8294744
_publ_section_title
;
Structure prediction by ZEFSAII (Michael W. Deem and Ramdas Pophale) SiO2 
 PCOD8294744
Probable space group: I B A M
;
_chemical_formula_sum "Si O2"
_cell_formula_units_Z 128
_cell_length_a 12.340867
_cell_length_b 25.725885
_cell_length_c 21.588581
_cell_angle_alpha 90.000000
_cell_angle_beta 90.000000
_cell_angle_gamma 90.000000
_cell_volume 6853.936764
_symmetry_space_group_name_H-M "I B A M"
_symmetry_group_IT_number 72
_symmetry_cell_setting 'orthorhombic'
loop_
_space_group_symop_operation_xyz
x,y,z
-x,-y,z
x,-y,1/2-z
-x,y,1/2-z
-x,-y,-z
x,y,-z
-x,y,1/2+z
x,-y,1/2+z
1/2+x,1/2+y,1/2+z
1/2-x,1/2-y,1/2+z
1/2+x,1/2-y,-z
1/2-x,1/2+y,-z
1/2-x,1/2-y,1/2-z
1/2+x,1/2+y,1/2-z
1/2-x,1/2+y,z
1/2+x,1/2-y,z
loop_
_atom_site_type_symbol
_atom_site_label
_atom_site_fract_x
_atom_site_fract_y
_atom_site_fract_z
Si Si1 0.897963 0.341729 0.119848
Si Si2 0.821909 0.794288 0.871569
Si Si3 0.603595 0.891929 0.570819
Si Si4 0.377460 0.357945 0.743418
Si Si5 0.684399 0.078619 0.287363
Si Si6 0.965814 0.236565 0.070479
Si Si7 0.384567 0.976473 0.833179
Si Si8 0.722614 0.315703 0.630844
O O1 0.771898 0.332327 0.099323
O O2 0.888884 0.373621 0.184850
O O3 0.952151 0.284040 0.120178
O O4 0.976180 0.376192 0.076217
O O5 0.873621 0.812626 0.807222
O O6 0.771964 0.739564 0.852839
O O7 0.915975 0.788962 0.922450
O O8 0.635825 0.897151 0.500000
O O9 0.622920 0.948472 0.600823
O O10 0.682531 0.850470 0.602262
O O11 0.500000 0.376917 0.750000
O O12 0.309485 0.406228 0.718024
O O13 0.325568 0.340494 0.807695
O O14 0.637700 0.065962 0.219798
O O15 0.692321 0.027215 0.330787
O O16 0.875340 0.192338 0.081920
O O17 0.954660 0.257689 0.000000
O O18 0.500000 0.000000 0.818617
#
# Coordination Sequence:
#
# PCOD8294744 Si02
#       8
#    16  16  16  16  16  16  16  16
#     4  10  22  37  57  89 118 155 204 247 287 353
#     4  10  22  37  56  88 121 164 200 248 300 340
#     4  12  24  39  61  92 124 160 199 242 296 362
#     4  11  21  39  63  88 122 150 202 259 300 357
#     4  10  21  39  62  88 116 148 196 247 319 353
#     4  11  22  38  59  82 122 173 211 241 289 353
#     4  11  22  39  63  89 119 154 189 247 308 380
#     4  11  22  39  57  89 123 163 202 248 298 346
#
# _framework density 18.675398000000001
#
# number of rings (size 3 to 8) (size 9 to 14) (size 15 to 20)
#    0.000    1.250    5.000    1.875    0.000    2.750 
#    0.000    2.500    0.000    0.000    0.000    0.875 
#    0.000    0.000    0.000    0.000    0.000    0.000 
#
# Total GULP energy -793035.252874 kJ/mol
# GULP energy per Si atom -12391.175826 kJ/mol
# Density = 1.863289 g / cm^3
# Si number density = 18.675398 Si / 1000 Ang^3
#
#
#
# Elastic Constant Matrix: (Units=GPa)
#
#
# Indices 1 2 3 4 5 6 
#
# 1 126.6640 57.7017 48.3230 0.0000 0.0000 0.0000
# 2 57.7017 98.2408 50.2426 0.0000 0.0000 0.0000
# 3 48.3230 50.2426 95.0388 0.0000 0.0000 0.0000
# 4 0.0000 0.0000 0.0000 24.0504 0.0000 0.0000
# 5 0.0000 0.0000 0.0000 0.0000 20.8802 0.0000
# 6 0.0000 0.0000 0.0000 0.0000 0.0000 23.9602
#
#
#
# Elastic Compliance Matrix: (Units=1/GPa)
#
#
# Indices 1 2 3 4 5 6 
#
# 1 0.011407 -0.005117 -0.003095 0.000000 0.000000 0.000000
# 2 -0.005117 0.016246 -0.005987 0.000000 0.000000 0.000000
# 3 -0.003095 -0.005987 0.015261 0.000000 0.000000 0.000000
# 4 0.000000 0.000000 0.000000 0.041579 0.000000 0.000000
# 5 0.000000 0.000000 0.000000 0.000000 0.047892 0.000000
# 6 0.000000 0.000000 0.000000 0.000000 0.000000 0.041736
#
#
# Mechanical properties :
#
#
# Convention : Reuss Voigt Hill
#
# Bulk Modulus (GPa) = 68.88778 70.27535 69.58157
# Shear Modulus (GPa) = 24.11302 24.68991 24.40146
#
# Velocity S-wave (km/s) = 3.59718 3.63995 3.61863
# Velocity P-wave (km/s) = 7.36342 7.44159 7.40261
#
# Compressibility (1/GPa) = 0.01451636
#
# Stress axis : x y z
#
# Youngs Moduli (GPa) = 87.66892 61.55210 65.52853
#
# Poissons Ratio (x) = 0.31496 0.20279
# Poissons Ratio (y) = 0.44860 0.39232
# Poissons Ratio (z) = 0.27130 0.36851
#
# Static dielectric constant tensor:
#      x y z
#    x 3.708650 0.000000 0.000000 
#    y 0.000000 13.276190 0.000000 
#    z 0.000000 0.000000 3.322830 
# 
# 
# High freq. dielectric constant tensor:
#      x y z
#    x 1.734130 0.000000 0.000000 
#    y 0.000000 1.718940 0.000000 
#    z 0.000000 0.000000 1.708660 
# 
# From -- ./inp_files/43693.got.cif
#   From: 2010.03.12/outbox.cif.g09.slc.cpg/sg72_22_cif.got.tgz:43693.got - 2010.04.16 14:54:00.
