data_PCOD8294819
_publ_section_title
;
Structure prediction by ZEFSAII (Michael W. Deem and Ramdas Pophale) SiO2 
 PCOD8294819
Probable space group: I B A M
;
_chemical_formula_sum "Si O2"
_cell_formula_units_Z 56
_cell_length_a 11.341394
_cell_length_b 15.421746
_cell_length_c 14.037831
_cell_angle_alpha 90.000000
_cell_angle_beta 90.000000
_cell_angle_gamma 90.000000
_cell_volume 2455.274163
_symmetry_space_group_name_H-M "I B A M"
_symmetry_group_IT_number 72
_symmetry_cell_setting 'orthorhombic'
loop_
_space_group_symop_operation_xyz
x,y,z
-x,-y,z
x,-y,1/2-z
-x,y,1/2-z
-x,-y,-z
x,y,-z
-x,y,1/2+z
x,-y,1/2+z
1/2+x,1/2+y,1/2+z
1/2-x,1/2-y,1/2+z
1/2+x,1/2-y,-z
1/2-x,1/2+y,-z
1/2-x,1/2-y,1/2-z
1/2+x,1/2+y,1/2-z
1/2-x,1/2+y,z
1/2+x,1/2-y,z
loop_
_atom_site_type_symbol
_atom_site_label
_atom_site_fract_x
_atom_site_fract_y
_atom_site_fract_z
Si Si1 0.302154 0.324152 0.153310
Si Si2 0.872364 0.257729 0.500000
Si Si3 0.562708 0.091555 0.500000
Si Si4 0.460148 0.402434 0.000000
Si Si5 0.879671 0.355019 0.799323
O O1 0.206008 0.270224 0.093104
O O2 0.233507 0.379596 0.234125
O O3 0.387173 0.249881 0.195602
O O4 0.378968 0.390271 0.092632
O O5 0.972853 0.329485 0.500000
O O6 0.929266 0.162388 0.500000
O O7 0.639256 0.100812 0.403325
O O8 0.500000 0.000000 0.500000
O O9 0.500000 0.500000 0.000000
O O10 0.000000 0.389282 0.750000
#
# Coordination Sequence:
#
# PCOD8294819 Si02
#       5
#    16   8   8   8  16
#     4  10  21  40  72  99 134 190 229 276 364 425
#     4  11  20  45  65  98 141 177 238 286 350 424
#     4  12  24  41  64  95 138 175 223 301 342 391
#     4  11  22  42  70 111 146 184 231 299 360 431
#     4  11  21  42  70  97 132 178 233 287 341 414
#
# _framework density 22.808043999999999
#
# number of rings (size 3 to 8) (size 9 to 14) (size 15 to 20)
#    0.000    1.143    5.714    0.857    0.000    0.571 
#   10.286    0.000    6.286    6.857    0.000    1.000 
#    0.000    0.000    0.000    0.000    0.000    0.000 
#
# Total GULP energy -347184.220275 kJ/mol
# GULP energy per Si atom -12399.436438 kJ/mol
# Density = 2.275613 g / cm^3
# Si number density = 22.808044 Si / 1000 Ang^3
#
#
#
# Elastic Constant Matrix: (Units=GPa)
#
#
# Indices 1 2 3 4 5 6 
#
# 1 93.6831 50.4078 63.7677 0.0000 0.0000 0.0000
# 2 50.4078 124.8384 38.2163 0.0000 0.0000 0.0000
# 3 63.7677 38.2163 178.0100 0.0000 0.0000 0.0000
# 4 0.0000 0.0000 0.0000 37.6776 0.0000 0.0000
# 5 0.0000 0.0000 0.0000 0.0000 33.6918 0.0000
# 6 0.0000 0.0000 0.0000 0.0000 0.0000 26.5741
#
#
#
# Elastic Compliance Matrix: (Units=1/GPa)
#
#
# Indices 1 2 3 4 5 6 
#
# 1 0.016869 -0.005311 -0.004903 0.000000 0.000000 0.000000
# 2 -0.005311 0.010246 -0.000297 0.000000 0.000000 0.000000
# 3 -0.004903 -0.000297 0.007438 0.000000 0.000000 0.000000
# 4 0.000000 0.000000 0.000000 0.026541 0.000000 0.000000
# 5 0.000000 0.000000 0.000000 0.000000 0.029681 0.000000
# 6 0.000000 0.000000 0.000000 0.000000 0.000000 0.037631
#
#
# Mechanical properties :
#
#
# Convention : Reuss Voigt Hill
#
# Bulk Modulus (GPa) = 73.90300 77.92391 75.91345
# Shear Modulus (GPa) = 32.48098 35.86468 34.17283
#
# Velocity S-wave (km/s) = 3.77782 3.96972 3.87496
# Velocity P-wave (km/s) = 7.17647 7.43309 7.30591
#
# Compressibility (1/GPa) = 0.01353125
#
# Stress axis : x y z
#
# Youngs Moduli (GPa) = 59.28074 97.60231 134.44900
#
# Poissons Ratio (x) = 0.51832 0.65917
# Poissons Ratio (y) = 0.31481 0.03996
# Poissons Ratio (z) = 0.29064 0.02901
#
# Static dielectric constant tensor:
#      x y z
#    x 4.166150 0.000000 0.000000 
#    y 0.000000 3.589160 0.000000 
#    z 0.000000 0.000000 4.954660 
# 
# 
# High freq. dielectric constant tensor:
#      x y z
#    x 1.896540 0.000000 0.000000 
#    y 0.000000 1.865030 0.000000 
#    z 0.000000 0.000000 1.923900 
# 
# From -- ./inp_files/19459.got.cif
#   From: 2010.03.12/outbox.cif.g09.slc.cpg/sg72_10_cif.got.tgz:19459.got - 2010.04.16 14:54:00.
