data_PCOD8294094
_publ_section_title
;
Structure prediction by ZEFSAII (Michael W. Deem and Ramdas Pophale) SiO2 
 PCOD8294094
Probable space group: I B A M
;
_chemical_formula_sum "Si O2"
_cell_formula_units_Z 112
_cell_length_a 31.128831
_cell_length_b 11.897324
_cell_length_c 15.510388
_cell_angle_alpha 90.000000
_cell_angle_beta 90.000000
_cell_angle_gamma 90.000000
_cell_volume 5744.268910
_symmetry_space_group_name_H-M "I B A M"
_symmetry_group_IT_number 72
_symmetry_cell_setting 'orthorhombic'
loop_
_space_group_symop_operation_xyz
x,y,z
-x,-y,z
x,-y,1/2-z
-x,y,1/2-z
-x,-y,-z
x,y,-z
-x,y,1/2+z
x,-y,1/2+z
1/2+x,1/2+y,1/2+z
1/2-x,1/2-y,1/2+z
1/2+x,1/2-y,-z
1/2-x,1/2+y,-z
1/2-x,1/2-y,1/2-z
1/2+x,1/2+y,1/2-z
1/2-x,1/2+y,z
1/2+x,1/2-y,z
loop_
_atom_site_type_symbol
_atom_site_label
_atom_site_fract_x
_atom_site_fract_y
_atom_site_fract_z
Si Si1 0.331277 0.371786 0.149617
Si Si2 0.049202 0.632483 0.746638
Si Si3 0.837338 0.522833 0.655488
Si Si4 0.399478 0.209562 0.904016
Si Si5 0.235926 0.697635 0.159480
Si Si6 0.325691 0.625710 0.144866
Si Si7 0.884577 0.683418 0.903942
O O1 0.376614 0.327927 0.114611
O O2 0.293287 0.291400 0.111930
O O3 0.326873 0.497033 0.114771
O O4 0.329987 0.363428 0.252580
O O5 0.053890 0.500000 0.750000
O O6 0.064427 0.691334 0.833741
O O7 0.075887 0.672720 0.662757
O O8 0.000000 0.670550 0.750000
O O9 0.856999 0.500000 0.750000
O O10 0.865206 0.609945 0.602083
O O11 0.789554 0.576805 0.666070
O O12 0.843807 0.401658 0.610292
O O13 0.419588 0.209795 0.000000
O O14 0.250000 0.750000 0.250000
O O15 0.280133 0.673009 0.109554
O O16 0.364866 0.692104 0.102233
O O17 0.903388 0.665523 0.000000
#
# Coordination Sequence:
#
# PCOD8294094 Si02
#       7
#    16  16  16  16  16  16  16
#     4   9  19  35  56  86 117 157 213 255 300 356
#     4  11  23  41  65  95 126 153 193 249 308 382
#     4  11  19  34  59  83 120 159 207 248 299 360
#     4  11  20  37  62  87 118 156 195 244 305 367
#     4   9  19  30  56  88 115 159 214 260 301 349
#     4  10  20  35  58  86 120 164 213 259 300 357
#     4  12  23  39  61  89 127 168 201 248 314 377
#
# _framework density 19.497693000000002
#
# number of rings (size 3 to 8) (size 9 to 14) (size 15 to 20)
#    0.000    1.571    4.286    2.143    6.000    1.143 
#    0.000    5.000    0.000    1.714    0.000    2.000 
#    0.000    0.000    0.000    0.000    0.000    0.000 
#
# Total GULP energy -693864.701436 kJ/mol
# GULP energy per Si atom -12390.441097 kJ/mol
# Density = 1.945332 g / cm^3
# Si number density = 19.497693 Si / 1000 Ang^3
#
#
#
# Elastic Constant Matrix: (Units=GPa)
#
#
# Indices 1 2 3 4 5 6 
#
# 1 133.3210 56.5060 55.6959 0.0000 0.0000 0.0000
# 2 56.5060 122.8776 36.7937 0.0000 0.0000 0.0000
# 3 55.6959 36.7937 119.6389 0.0000 0.0000 0.0000
# 4 0.0000 0.0000 0.0000 15.4685 0.0000 0.0000
# 5 0.0000 0.0000 0.0000 0.0000 8.1431 0.0000
# 6 0.0000 0.0000 0.0000 0.0000 0.0000 27.3954
#
#
#
# Elastic Compliance Matrix: (Units=1/GPa)
#
#
# Indices 1 2 3 4 5 6 
#
# 1 0.010696 -0.003775 -0.003818 0.000000 0.000000 0.000000
# 2 -0.003775 0.010296 -0.001409 0.000000 0.000000 0.000000
# 3 -0.003818 -0.001409 0.010569 0.000000 0.000000 0.000000
# 4 0.000000 0.000000 0.000000 0.064648 0.000000 0.000000
# 5 0.000000 0.000000 0.000000 0.000000 0.122803 0.000000
# 6 0.000000 0.000000 0.000000 0.000000 0.000000 0.036502
#
#
# Mechanical properties :
#
#
# Convention : Reuss Voigt Hill
#
# Bulk Modulus (GPa) = 73.76585 74.86986 74.31785
# Shear Modulus (GPa) = 17.98315 25.32420 21.65368
#
# Velocity S-wave (km/s) = 3.04027 3.60784 3.33615
# Velocity P-wave (km/s) = 7.08799 7.47249 7.28277
#
# Compressibility (1/GPa) = 0.01355641
#
# Stress axis : x y z
#
# Youngs Moduli (GPa) = 93.49400 97.12373 94.61353
#
# Poissons Ratio (x) = 0.36667 0.36126
# Poissons Ratio (y) = 0.35296 0.13331
# Poissons Ratio (z) = 0.35698 0.13684
#
# Static dielectric constant tensor:
#      x y z
#    x 3.560080 0.000000 0.000000 
#    y 0.000000 3.729340 0.000000 
#    z 0.000000 0.000000 3.344400 
# 
# 
# High freq. dielectric constant tensor:
#      x y z
#    x 1.735620 0.000000 0.000000 
#    y 0.000000 1.761110 0.000000 
#    z 0.000000 0.000000 1.745720 
# 
# From -- ./inp_files/26364.got.cif
#   From: 2010.03.12/outbox.cif.g09.slc.cpg/sg72_14_cif.got.tgz:26364.got - 2010.04.16 14:54:00.
