data_PCOD8294971
_publ_section_title
;
Structure prediction by ZEFSAII (Michael W. Deem and Ramdas Pophale) SiO2 
 PCOD8294971
Probable space group: I B A M
;
_chemical_formula_sum "Si O2"
_cell_formula_units_Z 72
_cell_length_a 23.263182
_cell_length_b 8.995458
_cell_length_c 14.439262
_cell_angle_alpha 90.000000
_cell_angle_beta 90.000000
_cell_angle_gamma 90.000000
_cell_volume 3021.602946
_symmetry_space_group_name_H-M "I B A M"
_symmetry_group_IT_number 72
_symmetry_cell_setting 'orthorhombic'
loop_
_space_group_symop_operation_xyz
x,y,z
-x,-y,z
x,-y,1/2-z
-x,y,1/2-z
-x,-y,-z
x,y,-z
-x,y,1/2+z
x,-y,1/2+z
1/2+x,1/2+y,1/2+z
1/2-x,1/2-y,1/2+z
1/2+x,1/2-y,-z
1/2-x,1/2+y,-z
1/2-x,1/2-y,1/2-z
1/2+x,1/2+y,1/2-z
1/2-x,1/2+y,z
1/2+x,1/2-y,z
loop_
_atom_site_type_symbol
_atom_site_label
_atom_site_fract_x
_atom_site_fract_y
_atom_site_fract_z
Si Si1 0.500000 0.715756 0.750000
Si Si2 0.309909 0.043706 0.349609
Si Si3 0.916610 0.730009 0.101717
Si Si4 0.586053 0.574029 0.107252
Si Si5 0.296576 0.282837 0.897091
O O1 0.540952 0.819259 0.685603
O O2 0.534081 0.614346 0.824388
O O3 0.359516 0.131820 0.402245
O O4 0.254293 0.148750 0.335315
O O5 0.334137 0.000000 0.250000
O O6 0.292956 0.894803 0.403584
O O7 0.899466 0.901022 0.119513
O O8 0.946052 0.712571 0.000000
O O9 0.641415 0.666953 0.141333
O O10 0.569798 0.611561 0.000000
O O11 0.288141 0.348399 0.000000
#
# Coordination Sequence:
#
# PCOD8294971 Si02
#       5
#     8  16  16  16  16
#     4  12  23  40  67  96 129 172 225 276 317 374
#     4  12  25  42  66  97 130 165 211 265 324 389
#     4  11  23  41  66  96 131 172 217 266 323 384
#     4  10  22  40  65  97 132 173 219 268 323 382
#     4  11  23  42  66  93 128 167 208 258 322 391
#
# _framework density 23.828412
#
# number of rings (size 3 to 8) (size 9 to 14) (size 15 to 20)
#    0.000    0.889    0.000    8.000    0.000    5.333 
#    0.000    5.000    0.000    8.000    0.000    0.000 
#    0.000    0.000    0.000    0.000    0.000    0.000 
#
# Total GULP energy -446419.089818 kJ/mol
# GULP energy per Si atom -12400.530273 kJ/mol
# Density = 2.377418 g / cm^3
# Si number density = 23.828412 Si / 1000 Ang^3
#
#
#
# Elastic Constant Matrix: (Units=GPa)
#
#
# Indices 1 2 3 4 5 6 
#
# 1 143.7801 64.3953 53.0680 0.0000 0.0000 0.0000
# 2 64.3953 100.3538 21.4651 0.0000 0.0000 0.0000
# 3 53.0680 21.4651 136.9633 0.0000 0.0000 0.0000
# 4 0.0000 0.0000 0.0000 28.2291 0.0000 0.0000
# 5 0.0000 0.0000 0.0000 0.0000 30.4661 0.0000
# 6 0.0000 0.0000 0.0000 0.0000 0.0000 31.9572
#
#
#
# Elastic Compliance Matrix: (Units=1/GPa)
#
#
# Indices 1 2 3 4 5 6 
#
# 1 0.011014 -0.006368 -0.003269 0.000000 0.000000 0.000000
# 2 -0.006368 0.013992 0.000274 0.000000 0.000000 0.000000
# 3 -0.003269 0.000274 0.008525 0.000000 0.000000 0.000000
# 4 0.000000 0.000000 0.000000 0.035424 0.000000 0.000000
# 5 0.000000 0.000000 0.000000 0.000000 0.032823 0.000000
# 6 0.000000 0.000000 0.000000 0.000000 0.000000 0.031292
#
#
# Mechanical properties :
#
#
# Convention : Reuss Voigt Hill
#
# Bulk Modulus (GPa) = 67.54424 73.21712 70.38068
# Shear Modulus (GPa) = 31.90159 34.27507 33.08833
#
# Velocity S-wave (km/s) = 3.66294 3.79675 3.73045
# Velocity P-wave (km/s) = 6.80420 7.07206 6.93942
#
# Compressibility (1/GPa) = 0.01480511
#
# Stress axis : x y z
#
# Youngs Moduli (GPa) = 90.79441 71.46762 117.30226
#
# Poissons Ratio (x) = 0.45511 0.38351
# Poissons Ratio (y) = 0.57819 -0.03220
# Poissons Ratio (z) = 0.29685 -0.01962
#
# Static dielectric constant tensor:
#      x y z
#    x 4.261220 0.000000 0.000000 
#    y 0.000000 4.040160 0.000000 
#    z 0.000000 0.000000 4.531740 
# 
# 
# High freq. dielectric constant tensor:
#      x y z
#    x 1.941190 0.000000 0.000000 
#    y 0.000000 1.929700 0.000000 
#    z 0.000000 0.000000 1.965390 
# 
# From -- ./inp_files/25721.got.cif
#   From: 2010.03.12/outbox.cif.g09.slc.cpg/sg72_13_cif.got.tgz:25721.got - 2010.04.16 14:54:00.
