data_PCOD8294906
_publ_section_title
;
Structure prediction by ZEFSAII (Michael W. Deem and Ramdas Pophale) SiO2 
 PCOD8294906
Probable space group: I B A M
;
_chemical_formula_sum "Si O2"
_cell_formula_units_Z 72
_cell_length_a 10.243020
_cell_length_b 14.410336
_cell_length_c 23.126579
_cell_angle_alpha 90.000000
_cell_angle_beta 90.000000
_cell_angle_gamma 90.000000
_cell_volume 3413.607016
_symmetry_space_group_name_H-M "I B A M"
_symmetry_group_IT_number 72
_symmetry_cell_setting 'orthorhombic'
loop_
_space_group_symop_operation_xyz
x,y,z
-x,-y,z
x,-y,1/2-z
-x,y,1/2-z
-x,-y,-z
x,y,-z
-x,y,1/2+z
x,-y,1/2+z
1/2+x,1/2+y,1/2+z
1/2-x,1/2-y,1/2+z
1/2+x,1/2-y,-z
1/2-x,1/2+y,-z
1/2-x,1/2-y,1/2-z
1/2+x,1/2+y,1/2-z
1/2-x,1/2+y,z
1/2+x,1/2-y,z
loop_
_atom_site_type_symbol
_atom_site_label
_atom_site_fract_x
_atom_site_fract_y
_atom_site_fract_z
Si Si1 0.127344 0.642549 0.785808
Si Si2 0.129251 0.791825 0.883011
Si Si3 0.376263 0.399351 0.221921
Si Si4 0.000000 0.500000 0.140432
Si Si5 0.595197 0.826132 0.433542
O O1 0.159512 0.718029 0.833608
O O2 0.242427 0.647987 0.739944
O O3 0.112675 0.542318 0.817939
O O4 0.000000 0.667703 0.750000
O O5 0.109588 0.890214 0.848414
O O6 0.254281 0.797019 0.924892
O O7 0.999963 0.760372 0.917844
O O8 0.378558 0.500000 0.250000
O O9 0.500000 0.345122 0.250000
O O10 0.937775 0.581974 0.102807
O O11 0.573680 0.851652 0.500000
#
# Coordination Sequence:
#
# PCOD8294906 Si02
#       5
#    16  16  16   8  16
#     4  11  20  35  58  86 119 153 189 235 293 365
#     4  11  22  37  58  86 115 152 196 243 295 352
#     4  11  21  33  52  82 119 152 181 226 292 364
#     4  10  22  38  62  88 116 156 204 246 292 352
#     4  11  23  41  62  85 115 157 208 257 294 335
#
# _framework density 21.092058000000002
#
# number of rings (size 3 to 8) (size 9 to 14) (size 15 to 20)
#    0.000    1.111    0.000    9.333    0.000    0.000 
#    0.000    0.000    0.000    0.000    0.000   23.333 
#    0.000    0.000    0.000    0.000    0.000    0.000 
#
# Total GULP energy -446129.276047 kJ/mol
# GULP energy per Si atom -12392.479890 kJ/mol
# Density = 2.104405 g / cm^3
# Si number density = 21.092058 Si / 1000 Ang^3
#
#
#
# Elastic Constant Matrix: (Units=GPa)
#
#
# Indices 1 2 3 4 5 6 
#
# 1 140.8000 15.7820 29.1866 0.0000 0.0000 0.0000
# 2 15.7820 94.3625 29.3458 0.0000 0.0000 0.0000
# 3 29.1866 29.3458 105.1413 0.0000 0.0000 0.0000
# 4 0.0000 0.0000 0.0000 25.4389 0.0000 0.0000
# 5 0.0000 0.0000 0.0000 0.0000 38.2221 0.0000
# 6 0.0000 0.0000 0.0000 0.0000 0.0000 -364.2270
#
#
#
# Elastic Compliance Matrix: (Units=1/GPa)
#
#
# Indices 1 2 3 4 5 6 
#
# 1 0.007575 -0.000671 -0.001915 0.000000 0.000000 0.000000
# 2 -0.000671 0.011664 -0.003069 0.000000 0.000000 0.000000
# 3 -0.001915 -0.003069 0.010899 0.000000 0.000000 0.000000
# 4 0.000000 0.000000 0.000000 0.039310 0.000000 0.000000
# 5 0.000000 0.000000 0.000000 0.000000 0.026163 0.000000
# 6 0.000000 0.000000 0.000000 0.000000 0.000000 -0.002746
#
#
# Mechanical properties :
#
#
# Convention : Reuss Voigt Hill
#
# Bulk Modulus (GPa) = 53.11645 54.32585 53.72115
# Shear Modulus (GPa) = 45.26844 -42.38055 1.44394
#
# Velocity S-wave (km/s) = 4.63777 -4.48740 0.82830
# Velocity P-wave (km/s) = 7.34278 1.01811 5.14198
#
# Compressibility (1/GPa) = 0.01882656
#
# Stress axis : x y z
#
# Youngs Moduli (GPa) = 132.02135 85.73247 91.74870
#
# Poissons Ratio (x) = 0.05754 0.17573
# Poissons Ratio (y) = 0.08861 0.28160
# Poissons Ratio (z) = 0.25286 0.26313
#
# Static dielectric constant tensor:
#      x y z
#    x 4.423680 0.000000 0.000000 
#    y 0.000000 4.104780 0.000000 
#    z 0.000000 0.000000 3.992080 
# 
# 
# High freq. dielectric constant tensor:
#      x y z
#    x 1.841680 0.000000 0.000000 
#    y 0.000000 1.827220 0.000000 
#    z 0.000000 0.000000 1.818740 
# 
# From -- ./inp_files/42089.got.cif
#   From: 2010.03.12/outbox.cif.g09.slc.cpg/sg72_22_cif.got.tgz:42089.got - 2010.04.16 14:54:00.
