data_PCOD8294190
_publ_section_title
;
Structure prediction by ZEFSAII (Michael W. Deem and Ramdas Pophale) SiO2 
 PCOD8294190
Probable space group: I B A M
;
_chemical_formula_sum "Si O2"
_cell_formula_units_Z 116
_cell_length_a 18.940258
_cell_length_b 17.116928
_cell_length_c 17.688048
_cell_angle_alpha 90.000000
_cell_angle_beta 90.000000
_cell_angle_gamma 90.000000
_cell_volume 5734.448048
_symmetry_space_group_name_H-M "I B A M"
_symmetry_group_IT_number 72
_symmetry_cell_setting 'orthorhombic'
loop_
_space_group_symop_operation_xyz
x,y,z
-x,-y,z
x,-y,1/2-z
-x,y,1/2-z
-x,-y,-z
x,y,-z
-x,y,1/2+z
x,-y,1/2+z
1/2+x,1/2+y,1/2+z
1/2-x,1/2-y,1/2+z
1/2+x,1/2-y,-z
1/2-x,1/2+y,-z
1/2-x,1/2-y,1/2-z
1/2+x,1/2+y,1/2-z
1/2-x,1/2+y,z
1/2+x,1/2-y,z
loop_
_atom_site_type_symbol
_atom_site_label
_atom_site_fract_x
_atom_site_fract_y
_atom_site_fract_z
Si Si1 0.662433 0.538418 0.416383
Si Si2 0.172353 0.511190 0.083084
Si Si3 0.601449 0.124327 0.684716
Si Si4 0.891323 0.199371 0.412726
Si Si5 0.547326 0.255675 0.414452
Si Si6 0.676581 0.148237 0.160026
Si Si7 0.326179 0.626938 0.588693
Si Si8 0.500000 0.000000 0.750000
O O1 0.630496 0.549314 0.500000
O O2 0.744588 0.519902 0.418508
O O3 0.640049 0.619005 0.373995
O O4 0.636066 0.454747 0.383269
O O5 0.150088 0.593221 0.118011
O O6 0.146790 0.433707 0.127686
O O7 0.139682 0.503456 0.000000
O O8 0.552274 0.192496 0.651972
O O9 0.654144 0.149839 0.752068
O O10 0.548679 0.054294 0.699946
O O11 0.868729 0.203690 0.500000
O O12 0.859304 0.276275 0.375671
O O13 0.975408 0.196576 0.401281
O O14 0.547172 0.220468 0.500000
O O15 0.614909 0.308839 0.402492
O O16 0.760608 0.150975 0.143100
O O17 0.301088 0.619916 0.500000
#
# Coordination Sequence:
#
# PCOD8294190 Si02
#       8
#    16  16  16  16  16  16  16   4
#     4   8  17  34  60  88 116 150 194 246 299 350
#     4  10  20  38  61  89 116 148 198 251 299 351
#     4  12  24  40  60  84 120 161 201 239 304 361
#     4  10  20  36  59  89 119 158 203 244 298 364
#     4  10  23  39  58  89 124 157 204 251 298 361
#     4  11  21  38  61  86 119 159 199 246 301 365
#     4   9  19  38  62  91 123 158 199 256 307 347
#     4  12  24  44  58  84 124 166 192 244 304 360
#
# _framework density 20.228624
#
# number of rings (size 3 to 8) (size 9 to 14) (size 15 to 20)
#    0.000    1.931    1.379    3.310    1.931    1.103 
#    0.000    3.448    0.000    0.000    0.000    1.931 
#    0.000    0.000    0.000    0.000    0.000    0.000 
#
# Total GULP energy -718508.577785 kJ/mol
# GULP energy per Si atom -12388.078927 kJ/mol
# Density = 2.018258 g / cm^3
# Si number density = 20.228624 Si / 1000 Ang^3
#
#
#
# Elastic Constant Matrix: (Units=GPa)
#
#
# Indices 1 2 3 4 5 6 
#
# 1 70.3839 50.5131 30.9855 0.0000 0.0000 0.0000
# 2 50.5131 103.4898 44.4187 0.0000 0.0000 0.0000
# 3 30.9855 44.4187 77.6027 0.0000 0.0000 0.0000
# 4 0.0000 0.0000 0.0000 187.4010 0.0000 0.0000
# 5 0.0000 0.0000 0.0000 0.0000 -0.2596 0.0000
# 6 0.0000 0.0000 0.0000 0.0000 0.0000 66.4989
#
#
#
# Elastic Compliance Matrix: (Units=1/GPa)
#
#
# Indices 1 2 3 4 5 6 
#
# 1 0.022599 -0.009489 -0.003592 0.000000 0.000000 0.000000
# 2 -0.009489 0.016794 -0.005824 0.000000 0.000000 0.000000
# 3 -0.003592 -0.005824 0.017654 0.000000 0.000000 0.000000
# 4 0.000000 0.000000 0.000000 0.005336 0.000000 0.000000
# 5 0.000000 0.000000 0.000000 0.000000 -3.851477 0.000000
# 6 0.000000 0.000000 0.000000 0.000000 0.000000 0.015038
#
#
# Mechanical properties :
#
#
# Convention : Reuss Voigt Hill
#
# Bulk Modulus (GPa) = 51.98251 55.92345 53.95298
# Shear Modulus (GPa) = -1.34054 59.09866 28.87906
#
# Velocity S-wave (km/s) = -0.81494 5.41099 3.78250
# Velocity P-wave (km/s) = 4.98676 8.16971 6.76801
#
# Compressibility (1/GPa) = 0.01923724
#
# Stress axis : x y z
#
# Youngs Moduli (GPa) = 44.24954 59.54549 56.64442
#
# Poissons Ratio (x) = 0.56501 0.20348
# Poissons Ratio (y) = 0.41987 0.32989
# Poissons Ratio (z) = 0.15896 0.34679
#
# Static dielectric constant tensor:
#      x y z
#    x 3.838910 0.000000 0.000000 
#    y 0.000000 4.136210 0.000000 
#    z 0.000000 0.000000 3.624850 
# 
# 
# High freq. dielectric constant tensor:
#      x y z
#    x 1.783450 0.000000 0.000000 
#    y 0.000000 1.809770 0.000000 
#    z 0.000000 0.000000 1.766080 
# 
# From -- ./inp_files/31768.got.cif
#   From: 2010.03.12/outbox.cif.g09.slc.cpg/sg72_16_cif.got.tgz:31768.got - 2010.04.16 14:54:00.
