data_PCOD8294311
_publ_section_title
;
Structure prediction by ZEFSAII (Michael W. Deem and Ramdas Pophale) SiO2 
 PCOD8294311
Probable space group: I B A M
;
_chemical_formula_sum "Si O2"
_cell_formula_units_Z 96
_cell_length_a 20.196782
_cell_length_b 13.735734
_cell_length_c 17.102523
_cell_angle_alpha 90.000000
_cell_angle_beta 90.000000
_cell_angle_gamma 90.000000
_cell_volume 4744.541316
_symmetry_space_group_name_H-M "I B A M"
_symmetry_group_IT_number 72
_symmetry_cell_setting 'orthorhombic'
loop_
_space_group_symop_operation_xyz
x,y,z
-x,-y,z
x,-y,1/2-z
-x,y,1/2-z
-x,-y,-z
x,y,-z
-x,y,1/2+z
x,-y,1/2+z
1/2+x,1/2+y,1/2+z
1/2-x,1/2-y,1/2+z
1/2+x,1/2-y,-z
1/2-x,1/2+y,-z
1/2-x,1/2-y,1/2-z
1/2+x,1/2+y,1/2-z
1/2-x,1/2+y,z
1/2+x,1/2-y,z
loop_
_atom_site_type_symbol
_atom_site_label
_atom_site_fract_x
_atom_site_fract_y
_atom_site_fract_z
Si Si1 0.304876 0.053763 0.912705
Si Si2 0.933431 0.051568 0.407184
Si Si3 0.888940 0.264979 0.592967
Si Si4 0.427411 0.034468 0.661859
Si Si5 0.683813 0.580984 0.910763
Si Si6 0.243588 0.258208 0.659110
O O1 0.284321 0.134997 0.852328
O O2 0.378773 0.018622 0.897681
O O3 0.256740 0.962771 0.901313
O O4 0.299264 0.096321 0.000000
O O5 0.932140 0.047248 0.500000
O O6 0.926232 0.164686 0.382246
O O7 0.871208 0.990465 0.373180
O O8 0.000000 0.000000 0.374335
O O9 0.897189 0.286485 0.500000
O O10 0.921129 0.349341 0.647001
O O11 0.811188 0.256433 0.611247
O O12 0.500000 0.000000 0.638693
O O13 0.410227 0.000000 0.750000
O O14 0.686158 0.683743 0.867193
O O15 0.664735 0.600745 0.000000
O O16 0.250000 0.250000 0.750000
#
# Coordination Sequence:
#
# PCOD8294311 Si02
#       6
#    16  16  16  16  16  16
#     4  11  22  38  63  92 120 159 218 268 310 376
#     4   9  19  37  64  96 127 159 202 259 314 372
#     4  11  21  40  67  93 126 170 216 261 324 384
#     4  11  25  43  63  91 132 169 209 265 328 393
#     4  10  20  37  62  91 121 158 211 263 309 373
#     4  12  24  37  61  92 129 169 212 264 327 383
#
# _framework density 20.233778999999998
#
# number of rings (size 3 to 8) (size 9 to 14) (size 15 to 20)
#    0.000    1.333    3.333    3.000    0.000    2.667 
#    0.000    1.667    0.000    1.000    0.000    0.000 
#    0.000    0.000    0.000    0.000    0.000    0.167 
#
# Total GULP energy -595193.615209 kJ/mol
# GULP energy per Si atom -12399.866984 kJ/mol
# Density = 2.018773 g / cm^3
# Si number density = 20.233779 Si / 1000 Ang^3
#
#
#
# Elastic Constant Matrix: (Units=GPa)
#
#
# Indices 1 2 3 4 5 6 
#
# 1 116.8578 39.0872 17.7431 0.0000 0.0000 0.0000
# 2 39.0872 121.3139 34.0912 0.0000 0.0000 0.0000
# 3 17.7431 34.0912 67.3609 0.0000 0.0000 0.0000
# 4 0.0000 0.0000 0.0000 28.6265 0.0000 0.0000
# 5 0.0000 0.0000 0.0000 0.0000 22.2725 0.0000
# 6 0.0000 0.0000 0.0000 0.0000 0.0000 32.7024
#
#
#
# Elastic Compliance Matrix: (Units=1/GPa)
#
#
# Indices 1 2 3 4 5 6 
#
# 1 0.009664 -0.002796 -0.001130 0.000000 0.000000 0.000000
# 2 -0.002796 0.010419 -0.004536 0.000000 0.000000 0.000000
# 3 -0.001130 -0.004536 0.017439 0.000000 0.000000 0.000000
# 4 0.000000 0.000000 0.000000 0.034933 0.000000 0.000000
# 5 0.000000 0.000000 0.000000 0.000000 0.044898 0.000000
# 6 0.000000 0.000000 0.000000 0.000000 0.000000 0.030579
#
#
# Mechanical properties :
#
#
# Convention : Reuss Voigt Hill
#
# Bulk Modulus (GPa) = 48.55297 54.15286 51.35292
# Shear Modulus (GPa) = 29.11656 31.02769 30.07212
#
# Velocity S-wave (km/s) = 3.79754 3.92019 3.85935
# Velocity P-wave (km/s) = 6.57849 6.87839 6.73011
#
# Compressibility (1/GPa) = 0.02059606
#
# Stress axis : x y z
#
# Youngs Moduli (GPa) = 103.47332 95.98030 57.34254
#
# Poissons Ratio (x) = 0.26838 0.06483
# Poissons Ratio (y) = 0.28933 0.26013
# Poissons Ratio (z) = 0.11698 0.43541
#
# Static dielectric constant tensor:
#      x y z
#    x 4.122960 0.000000 0.000000 
#    y 0.000000 3.989830 0.000000 
#    z 0.000000 0.000000 3.474830 
# 
# 
# High freq. dielectric constant tensor:
#      x y z
#    x 1.787030 0.000000 0.000000 
#    y 0.000000 1.805700 0.000000 
#    z 0.000000 0.000000 1.772550 
# 
# From -- ./inp_files/24122.got.cif
#   From: 2010.03.12/outbox.cif.g09.slc.cpg/sg72_13_cif.got.tgz:24122.got - 2010.04.16 14:54:00.
