data_PCOD8294123
_publ_section_title
;
Structure prediction by ZEFSAII (Michael W. Deem and Ramdas Pophale) SiO2 
 PCOD8294123
Probable space group: I B A M
;
_chemical_formula_sum "Si O2"
_cell_formula_units_Z 80
_cell_length_a 25.389728
_cell_length_b 11.020738
_cell_length_c 14.181616
_cell_angle_alpha 90.000000
_cell_angle_beta 90.000000
_cell_angle_gamma 90.000000
_cell_volume 3968.208178
_symmetry_space_group_name_H-M "I B A M"
_symmetry_group_IT_number 72
_symmetry_cell_setting 'orthorhombic'
loop_
_space_group_symop_operation_xyz
x,y,z
-x,-y,z
x,-y,1/2-z
-x,y,1/2-z
-x,-y,-z
x,y,-z
-x,y,1/2+z
x,-y,1/2+z
1/2+x,1/2+y,1/2+z
1/2-x,1/2-y,1/2+z
1/2+x,1/2-y,-z
1/2-x,1/2+y,-z
1/2-x,1/2-y,1/2-z
1/2+x,1/2+y,1/2-z
1/2-x,1/2+y,z
1/2+x,1/2-y,z
loop_
_atom_site_type_symbol
_atom_site_label
_atom_site_fract_x
_atom_site_fract_y
_atom_site_fract_z
Si Si1 0.806475 0.309243 0.745948
Si Si2 0.088076 0.815006 0.713115
Si Si3 0.333756 0.008897 0.896854
Si Si4 0.559041 0.455759 0.606672
Si Si5 0.554757 0.058734 0.151066
O O1 0.750000 0.250000 0.750000
O O2 0.850494 0.212211 0.720708
O O3 0.804041 0.408505 0.663963
O O4 0.823893 0.363039 0.846714
O O5 0.091045 0.927797 0.642069
O O6 0.053373 0.704945 0.667004
O O7 0.064958 0.846755 0.817355
O O8 0.395912 0.978974 0.912674
O O9 0.307834 0.013930 0.000000
O O10 0.500000 0.500000 0.606017
O O11 0.576542 0.416367 0.500000
O O12 0.500000 0.000000 0.111331
O O13 0.568645 0.000000 0.250000
#
# Coordination Sequence:
#
# PCOD8294123 Si02
#       5
#    16  16  16  16  16
#     4  10  22  41  60  82 112 153 195 247 297 345
#     4  10  20  39  61  81 115 155 190 242 284 340
#     4  10  21  39  58  88 121 148 188 243 300 351
#     4  10  23  37  56  86 118 155 192 231 282 342
#     4  10  20  35  62  91 118 156 194 229 292 361
#
# _framework density 20.160233000000002
#
# number of rings (size 3 to 8) (size 9 to 14) (size 15 to 20)
#    0.000    2.000    4.000    1.200    5.600    8.400 
#    0.000    2.000    0.000    0.600    0.000    0.000 
#    0.000    0.000    0.000    0.000    0.000    0.000 
#
# Total GULP energy -495681.213330 kJ/mol
# GULP energy per Si atom -12392.030333 kJ/mol
# Density = 2.011435 g / cm^3
# Si number density = 20.160233 Si / 1000 Ang^3
#
#
#
# Elastic Constant Matrix: (Units=GPa)
#
#
# Indices 1 2 3 4 5 6 
#
# 1 128.0514 50.2188 26.9632 0.0000 0.0000 0.0000
# 2 50.2188 94.0836 23.4982 0.0000 0.0000 0.0000
# 3 26.9632 23.4982 118.4083 0.0000 0.0000 0.0000
# 4 0.0000 0.0000 0.0000 2.4259 0.0000 0.0000
# 5 0.0000 0.0000 0.0000 0.0000 7.6008 0.0000
# 6 0.0000 0.0000 0.0000 0.0000 0.0000 31.2939
#
#
#
# Elastic Compliance Matrix: (Units=1/GPa)
#
#
# Indices 1 2 3 4 5 6 
#
# 1 0.010061 -0.005048 -0.001289 0.000000 0.000000 0.000000
# 2 -0.005048 0.013716 -0.001572 0.000000 0.000000 0.000000
# 3 -0.001289 -0.001572 0.009051 0.000000 0.000000 0.000000
# 4 0.000000 0.000000 0.000000 0.412210 0.000000 0.000000
# 5 0.000000 0.000000 0.000000 0.000000 0.131565 0.000000
# 6 0.000000 0.000000 0.000000 0.000000 0.000000 0.031955
#
#
# Mechanical properties :
#
#
# Convention : Reuss Voigt Hill
#
# Bulk Modulus (GPa) = 58.79474 60.21151 59.50312
# Shear Modulus (GPa) = 7.93593 24.25500 16.09546
#
# Velocity S-wave (km/s) = 1.98620 3.47235 2.82862
# Velocity P-wave (km/s) = 5.87256 6.78289 6.34408
#
# Compressibility (1/GPa) = 0.01700833
#
# Stress axis : x y z
#
# Youngs Moduli (GPa) = 99.39836 72.90736 110.48543
#
# Poissons Ratio (x) = 0.36804 0.14243
# Poissons Ratio (y) = 0.50176 0.17373
# Poissons Ratio (z) = 0.12814 0.11464
#
# Static dielectric constant tensor:
#      x y z
#    x 3.414850 0.000000 0.000000 
#    y 0.000000 3.752990 0.000000 
#    z 0.000000 0.000000 3.709570 
# 
# 
# High freq. dielectric constant tensor:
#      x y z
#    x 1.772580 0.000000 0.000000 
#    y 0.000000 1.788190 0.000000 
#    z 0.000000 0.000000 1.784690 
# 
# From -- ./inp_files/24893.got.cif
#   From: 2010.03.12/outbox.cif.g09.slc.cpg/sg72_13_cif.got.tgz:24893.got - 2010.04.16 14:54:00.
