data_PCOD8294268
_publ_section_title
;
Structure prediction by ZEFSAII (Michael W. Deem and Ramdas Pophale) SiO2 
 PCOD8294268
Probable space group: I B A M
;
_chemical_formula_sum "Si O2"
_cell_formula_units_Z 116
_cell_length_a 17.391001
_cell_length_b 11.574357
_cell_length_c 29.156274
_cell_angle_alpha 90.000000
_cell_angle_beta 90.000000
_cell_angle_gamma 90.000000
_cell_volume 5868.856310
_symmetry_space_group_name_H-M "I B A M"
_symmetry_group_IT_number 72
_symmetry_cell_setting 'orthorhombic'
loop_
_space_group_symop_operation_xyz
x,y,z
-x,-y,z
x,-y,1/2-z
-x,y,1/2-z
-x,-y,-z
x,y,-z
-x,y,1/2+z
x,-y,1/2+z
1/2+x,1/2+y,1/2+z
1/2-x,1/2-y,1/2+z
1/2+x,1/2-y,-z
1/2-x,1/2+y,-z
1/2-x,1/2-y,1/2-z
1/2+x,1/2+y,1/2-z
1/2-x,1/2+y,z
1/2+x,1/2-y,z
loop_
_atom_site_type_symbol
_atom_site_label
_atom_site_fract_x
_atom_site_fract_y
_atom_site_fract_z
Si Si1 0.416672 0.452674 0.445809
Si Si2 0.762035 0.079005 0.671983
Si Si3 0.122221 0.275602 0.669205
Si Si4 0.452303 0.819339 0.818024
Si Si5 0.387709 0.377615 0.257846
Si Si6 0.154856 0.253543 0.894500
Si Si7 0.500000 0.000000 0.750000
Si Si8 0.202033 0.113791 0.395779
O O1 0.500000 0.500000 0.427579
O O2 0.418006 0.447959 0.500000
O O3 0.399728 0.322114 0.428072
O O4 0.346836 0.536131 0.430775
O O5 0.673660 0.112350 0.680427
O O6 0.805683 0.089820 0.719976
O O7 0.797277 0.168762 0.636716
O O8 0.769808 0.952943 0.649867
O O9 0.128285 0.186035 0.710648
O O10 0.146708 0.215782 0.621611
O O11 0.037470 0.323374 0.661898
O O12 0.439930 0.697215 0.792281
O O13 0.396643 0.834819 0.861498
O O14 0.442915 0.921586 0.780850
O O15 0.431112 0.500000 0.250000
O O16 0.219698 0.334232 0.919742
#
# Coordination Sequence:
#
# PCOD8294268 Si02
#       8
#    16  16  16  16  16  16   4  16
#     4  10  21  40  66  97 124 150 193 252 315 378
#     4   9  20  34  50  77 110 147 198 241 290 353
#     4  11  20  35  52  77 110 152 202 244 302 343
#     4  11  24  38  53  80 116 162 209 253 299 357
#     4  11  20  37  52  77 107 152 205 256 300 347
#     4   9  21  38  58  84 118 154 199 244 298 369
#     4  12  24  40  46  84 118 168 210 250 304 348
#     4  10  20  37  59  86 113 153 190 243 303 368
#
# _framework density 19.765350999999999
#
# number of rings (size 3 to 8) (size 9 to 14) (size 15 to 20)
#    0.000    1.793    2.759    1.241    1.931    1.655 
#    1.241    0.000    0.000    0.000    0.000    0.483 
#    0.000    0.000    0.000    0.000    0.000    0.000 
#
# Total GULP energy -718894.284970 kJ/mol
# GULP energy per Si atom -12394.729051 kJ/mol
# Density = 1.972036 g / cm^3
# Si number density = 19.765351 Si / 1000 Ang^3
#
#
#
# Elastic Constant Matrix: (Units=GPa)
#
#
# Indices 1 2 3 4 5 6 
#
# 1 133.2818 49.0140 33.6524 0.0000 0.0000 0.0000
# 2 49.0140 77.8632 19.1262 0.0000 0.0000 0.0000
# 3 33.6524 19.1262 61.7991 0.0000 0.0000 0.0000
# 4 0.0000 0.0000 0.0000 22.6311 0.0000 0.0000
# 5 0.0000 0.0000 0.0000 0.0000 18.2404 0.0000
# 6 0.0000 0.0000 0.0000 0.0000 0.0000 31.7372
#
#
#
# Elastic Compliance Matrix: (Units=1/GPa)
#
#
# Indices 1 2 3 4 5 6 
#
# 1 0.010610 -0.005693 -0.004016 0.000000 0.000000 0.000000
# 2 -0.005693 0.016954 -0.002147 0.000000 0.000000 0.000000
# 3 -0.004016 -0.002147 0.019033 0.000000 0.000000 0.000000
# 4 0.000000 0.000000 0.000000 0.044187 0.000000 0.000000
# 5 0.000000 0.000000 0.000000 0.000000 0.054823 0.000000
# 6 0.000000 0.000000 0.000000 0.000000 0.000000 0.031509
#
#
# Mechanical properties :
#
#
# Convention : Reuss Voigt Hill
#
# Bulk Modulus (GPa) = 43.69572 52.94771 48.32172
# Shear Modulus (GPa) = 23.98583 25.93184 24.95883
#
# Velocity S-wave (km/s) = 3.48735 3.62606 3.55738
# Velocity P-wave (km/s) = 6.19441 6.66164 6.43227
#
# Compressibility (1/GPa) = 0.02288554
#
# Stress axis : x y z
#
# Youngs Moduli (GPa) = 94.24767 58.98343 52.54067
#
# Poissons Ratio (x) = 0.33577 0.21100
# Poissons Ratio (y) = 0.53652 0.11282
# Poissons Ratio (z) = 0.37850 0.12665
#
# Static dielectric constant tensor:
#      x y z
#    x 3.886230 0.000000 0.000000 
#    y 0.000000 3.933280 0.000000 
#    z 0.000000 0.000000 3.246820 
# 
# 
# High freq. dielectric constant tensor:
#      x y z
#    x 1.782370 0.000000 0.000000 
#    y 0.000000 1.774250 0.000000 
#    z 0.000000 0.000000 1.729270 
# 
# From -- ./inp_files/52111.got.cif
#   From: 2010.03.12/outbox.cif.g09.slc.cpg/sg72_27_cif.got.tgz:52111.got - 2010.04.16 14:54:00.
