data_PCOD8294664
_publ_section_title
;
Structure prediction by ZEFSAII (Michael W. Deem and Ramdas Pophale) SiO2 
 PCOD8294664
Probable space group: I B A M
;
_chemical_formula_sum "Si O2"
_cell_formula_units_Z 88
_cell_length_a 20.313833
_cell_length_b 9.122300
_cell_length_c 22.288822
_cell_angle_alpha 90.000000
_cell_angle_beta 90.000000
_cell_angle_gamma 90.000000
_cell_volume 4130.316614
_symmetry_space_group_name_H-M "I B A M"
_symmetry_group_IT_number 72
_symmetry_cell_setting 'orthorhombic'
loop_
_space_group_symop_operation_xyz
x,y,z
-x,-y,z
x,-y,1/2-z
-x,y,1/2-z
-x,-y,-z
x,y,-z
-x,y,1/2+z
x,-y,1/2+z
1/2+x,1/2+y,1/2+z
1/2-x,1/2-y,1/2+z
1/2+x,1/2-y,-z
1/2-x,1/2+y,-z
1/2-x,1/2-y,1/2-z
1/2+x,1/2+y,1/2-z
1/2-x,1/2+y,z
1/2+x,1/2-y,z
loop_
_atom_site_type_symbol
_atom_site_label
_atom_site_fract_x
_atom_site_fract_y
_atom_site_fract_z
Si Si1 0.102962 0.412328 0.000000
Si Si2 0.275927 0.899081 0.500000
Si Si3 0.796320 0.363683 0.131809
Si Si4 0.435428 0.418118 0.884031
Si Si5 0.937988 0.576252 0.383819
Si Si6 0.121670 0.071417 0.000000
Si Si7 0.306562 0.564389 0.315176
O O1 0.065691 0.480675 0.056220
O O2 0.181075 0.450871 0.000000
O O3 0.096527 0.237837 0.000000
O O4 0.296881 0.811227 0.561224
O O5 0.199994 0.940547 0.500000
O O6 0.866969 0.437091 0.149451
O O7 0.736868 0.475935 0.137153
O O8 0.782747 0.231441 0.177671
O O9 0.500000 0.500000 0.861385
O O10 0.451250 0.247767 0.895606
O O11 0.383228 0.443318 0.830907
O O12 0.407884 0.489519 0.943591
O O13 0.000000 0.500000 0.348016
O O14 0.292602 0.500000 0.250000
#
# Coordination Sequence:
#
# PCOD8294664 Si02
#       7
#     8   8  16  16  16   8  16
#     4  10  22  33  57  87 126 172 198 250 319 388
#     4  10  22  34  60  96 132 164 208 270 332 394
#     4  10  23  39  65  95 127 165 215 264 327 392
#     4  11  24  40  62  93 127 170 216 266 326 402
#     4  10  21  38  58  87 127 165 208 258 317 383
#     4  12  22  37  61  93 132 168 210 266 335 404
#     4  11  24  43  65  91 126 169 215 270 320 386
#
# _framework density 21.305872999999998
#
# number of rings (size 3 to 8) (size 9 to 14) (size 15 to 20)
#    0.000    1.455    1.818    2.727    5.091    5.455 
#    0.000    0.000    0.000    2.727    0.000    0.000 
#    0.000    0.000    0.000    0.000    0.000    0.000 
#
# Total GULP energy -545361.357377 kJ/mol
# GULP energy per Si atom -12394.576304 kJ/mol
# Density = 2.125738 g / cm^3
# Si number density = 21.305873 Si / 1000 Ang^3
#
#
#
# Elastic Constant Matrix: (Units=GPa)
#
#
# Indices 1 2 3 4 5 6 
#
# 1 142.3876 66.9144 10.8908 0.0000 0.0000 0.0000
# 2 66.9144 145.7654 31.8986 0.0000 0.0000 0.0000
# 3 10.8908 31.8986 72.0073 0.0000 0.0000 0.0000
# 4 0.0000 0.0000 0.0000 26.5974 0.0000 0.0000
# 5 0.0000 0.0000 0.0000 0.0000 20.8581 0.0000
# 6 0.0000 0.0000 0.0000 0.0000 0.0000 40.4220
#
#
#
# Elastic Compliance Matrix: (Units=1/GPa)
#
#
# Indices 1 2 3 4 5 6 
#
# 1 0.008972 -0.004232 0.000518 0.000000 0.000000 0.000000
# 2 -0.004232 0.009593 -0.003610 0.000000 0.000000 0.000000
# 3 0.000518 -0.003610 0.015408 0.000000 0.000000 0.000000
# 4 0.000000 0.000000 0.000000 0.037598 0.000000 0.000000
# 5 0.000000 0.000000 0.000000 0.000000 0.047943 0.000000
# 6 0.000000 0.000000 0.000000 0.000000 0.000000 0.024739
#
#
# Mechanical properties :
#
#
# Convention : Reuss Voigt Hill
#
# Bulk Modulus (GPa) = 51.74445 64.39645 58.07045
# Shear Modulus (GPa) = 30.24022 34.27261 32.25642
#
# Velocity S-wave (km/s) = 3.77150 4.01509 3.89520
# Velocity P-wave (km/s) = 6.58064 7.19617 6.89528
#
# Compressibility (1/GPa) = 0.01932574
#
# Stress axis : x y z
#
# Youngs Moduli (GPa) = 111.45370 104.24266 64.90069
#
# Poissons Ratio (x) = 0.44117 -0.03360
# Poissons Ratio (y) = 0.47168 0.23426
# Poissons Ratio (z) = -0.05771 0.37627
#
# Static dielectric constant tensor:
#      x y z
#    x 4.279900 0.000000 0.000000 
#    y 0.000000 3.850170 0.000000 
#    z 0.000000 0.000000 3.445830 
# 
# 
# High freq. dielectric constant tensor:
#      x y z
#    x 1.862130 0.000000 0.000000 
#    y 0.000000 1.838460 0.000000 
#    z 0.000000 0.000000 1.798540 
# 
# From -- ./inp_files/45315.got.cif
#   From: 2010.03.12/outbox.cif.g09.slc.cpg/sg72_23_cif.got.tgz:45315.got - 2010.04.16 14:54:00.
