data_PCOD8294843
_publ_section_title
;
Structure prediction by ZEFSAII (Michael W. Deem and Ramdas Pophale) SiO2 
 PCOD8294843
Probable space group: I B A M
;
_chemical_formula_sum "Si O2"
_cell_formula_units_Z 64
_cell_length_a 8.602970
_cell_length_b 24.630760
_cell_length_c 13.958896
_cell_angle_alpha 90.000000
_cell_angle_beta 90.000000
_cell_angle_gamma 90.000000
_cell_volume 2957.857808
_symmetry_space_group_name_H-M "I B A M"
_symmetry_group_IT_number 72
_symmetry_cell_setting 'orthorhombic'
loop_
_space_group_symop_operation_xyz
x,y,z
-x,-y,z
x,-y,1/2-z
-x,y,1/2-z
-x,-y,-z
x,y,-z
-x,y,1/2+z
x,-y,1/2+z
1/2+x,1/2+y,1/2+z
1/2-x,1/2-y,1/2+z
1/2+x,1/2-y,-z
1/2-x,1/2+y,-z
1/2-x,1/2-y,1/2-z
1/2+x,1/2+y,1/2-z
1/2-x,1/2+y,z
1/2+x,1/2-y,z
loop_
_atom_site_type_symbol
_atom_site_label
_atom_site_fract_x
_atom_site_fract_y
_atom_site_fract_z
Si Si1 0.242436 0.776619 0.000000
Si Si2 0.073468 0.328169 0.500000
Si Si3 0.859783 0.608334 0.310618
Si Si4 0.627720 0.338495 0.681370
Si Si5 0.561419 0.558946 0.612093
O O1 0.422904 0.790065 0.000000
O O2 0.156471 0.800021 0.092482
O O3 0.224031 0.711268 0.000000
O O4 0.071730 0.365650 0.406881
O O5 0.785500 0.654450 0.242093
O O6 0.728496 0.564595 0.337044
O O7 0.000000 0.580721 0.250000
O O8 0.500000 0.309957 0.750000
O O9 0.562431 0.397170 0.648570
O O10 0.500000 0.500000 0.639481
O O11 0.586570 0.566670 0.500000
#
# Coordination Sequence:
#
# PCOD8294843 Si02
#       5
#     8   8  16  16  16
#     4  12  26  44  64  95 135 177 236 277 337 393
#     4  12  28  42  68  97 137 181 228 284 339 390
#     4  11  23  44  66  99 139 178 220 278 337 402
#     4  10  23  40  67  93 137 175 221 277 340 396
#     4  10  21  41  73 103 134 173 223 272 341 411
#
# _framework density 21.637280000000001
#
# number of rings (size 3 to 8) (size 9 to 14) (size 15 to 20)
#    0.000    1.250    5.000    0.000    7.000    6.500 
#    0.000    2.500    0.000    4.500    0.000    0.000 
#    0.000    0.000    0.000    0.000    0.000    0.000 
#
# Total GULP energy -396842.024532 kJ/mol
# GULP energy per Si atom -12401.313267 kJ/mol
# Density = 2.158803 g / cm^3
# Si number density = 21.637280 Si / 1000 Ang^3
#
#
#
# Elastic Constant Matrix: (Units=GPa)
#
#
# Indices 1 2 3 4 5 6 
#
# 1 114.3405 17.7866 52.4534 0.0006 0.0000 0.0000
# 2 17.7866 62.8041 31.6693 0.0010 0.0000 0.0000
# 3 52.4534 31.6693 156.3007 0.0034 0.0000 0.0001
# 4 0.0006 0.0010 0.0034 -64.3513 -0.0003 0.0001
# 5 0.0000 0.0000 0.0000 -0.0003 38.5245 0.0000
# 6 0.0000 0.0000 0.0001 0.0001 0.0000 23.9272
#
#
#
# Elastic Compliance Matrix: (Units=1/GPa)
#
#
# Indices 1 2 3 4 5 6 
#
# 1 0.010435 -0.001325 -0.003234 0.000000 0.000000 0.000000
# 2 -0.001325 0.017903 -0.003183 0.000000 0.000000 0.000000
# 3 -0.003234 -0.003183 0.008128 0.000000 0.000000 0.000000
# 4 0.000000 0.000000 0.000000 -0.015540 0.000000 0.000000
# 5 0.000000 0.000000 0.000000 0.000000 0.025957 0.000000
# 6 0.000000 0.000000 0.000000 0.000000 0.000000 0.041793
#
#
# Mechanical properties :
#
#
# Convention : Reuss Voigt Hill
#
# Bulk Modulus (GPa) = 47.65637 59.69600 53.67618
# Shear Modulus (GPa) = 44.98263 15.05583 30.01923
#
# Velocity S-wave (km/s) = 4.56449 2.64072 3.72880
# Velocity P-wave (km/s) = 7.06062 6.07842 6.58785
#
# Compressibility (1/GPa) = 0.02098356
#
# Stress axis : x y z
#
# Youngs Moduli (GPa) = 95.82872 55.85758 123.03174
#
# Poissons Ratio (x) = 0.07400 0.39783
# Poissons Ratio (y) = 0.12695 0.39159
# Poissons Ratio (z) = 0.30987 0.17778
#
# Static dielectric constant tensor:
#      x y z
#    x 4.095420 0.000000 0.000000 
#    y 0.000000 3.484370 0.000000 
#    z 0.000000 0.000000 4.364040 
# 
# 
# High freq. dielectric constant tensor:
#      x y z
#    x 1.859290 0.000000 0.000000 
#    y 0.000000 1.814860 0.000000 
#    z 0.000000 0.000000 1.885430 
# 
# From -- ./inp_files/18709.got.cif
#   From: 2010.03.12/outbox.cif.g09.slc.cpg/sg72_10_cif.got.tgz:18709.got - 2010.04.16 14:54:00.
