data_PCOD8294266
_publ_section_title
;
Structure prediction by ZEFSAII (Michael W. Deem and Ramdas Pophale) SiO2 
 PCOD8294266
Probable space group: I B A M
;
_chemical_formula_sum "Si O2"
_cell_formula_units_Z 112
_cell_length_a 10.964607
_cell_length_b 31.152965
_cell_length_c 15.548684
_cell_angle_alpha 90.000000
_cell_angle_beta 90.000000
_cell_angle_gamma 90.000000
_cell_volume 5311.119762
_symmetry_space_group_name_H-M "I B A M"
_symmetry_group_IT_number 72
_symmetry_cell_setting 'orthorhombic'
loop_
_space_group_symop_operation_xyz
x,y,z
-x,-y,z
x,-y,1/2-z
-x,y,1/2-z
-x,-y,-z
x,y,-z
-x,y,1/2+z
x,-y,1/2+z
1/2+x,1/2+y,1/2+z
1/2-x,1/2-y,1/2+z
1/2+x,1/2-y,-z
1/2-x,1/2+y,-z
1/2-x,1/2-y,1/2-z
1/2+x,1/2+y,1/2-z
1/2-x,1/2+y,z
1/2+x,1/2-y,z
loop_
_atom_site_type_symbol
_atom_site_label
_atom_site_fract_x
_atom_site_fract_y
_atom_site_fract_z
Si Si1 0.902529 0.889757 0.101410
Si Si2 0.790006 0.412517 0.596378
Si Si3 0.136278 0.163304 0.595212
Si Si4 0.809332 0.330991 0.096068
Si Si5 0.221879 0.950925 0.729928
Si Si6 0.545725 0.907291 0.839314
Si Si7 0.374824 0.749153 0.300554
O O1 0.817487 0.849813 0.134362
O O2 0.877056 0.930629 0.163614
O O3 0.039930 0.874591 0.115632
O O4 0.875931 0.900983 0.000000
O O5 0.748884 0.428377 0.500000
O O6 0.767866 0.360599 0.602165
O O7 0.711448 0.431188 0.674726
O O8 0.930870 0.426364 0.608897
O O9 0.114318 0.181625 0.500000
O O10 0.120747 0.202957 0.656726
O O11 0.903525 0.370035 0.100784
O O12 0.866572 0.289111 0.136843
O O13 0.783371 0.316971 0.000000
O O14 0.354668 0.943907 0.684579
O O15 0.194249 0.000000 0.750000
O O16 0.500000 0.886237 0.750000
O O17 0.500000 0.755341 0.250000
O O18 0.250000 0.750000 0.250000
#
# Coordination Sequence:
#
# PCOD8294266 Si02
#       7
#    16  16  16  16  16  16  16
#     4   9  20  41  67  92 128 176 223 269 333 397
#     4  10  22  38  60  88 125 166 209 258 322 394
#     4  10  23  43  63  87 123 174 219 268 327 392
#     4  10  20  37  59  85 119 162 208 262 317 379
#     4  10  22  39  65  95 125 162 211 271 331 396
#     4   9  19  35  59  85 122 156 203 252 317 386
#     4  12  27  39  61  94 130 167 221 276 332 393
#
# _framework density 21.087831999999999
#
# number of rings (size 3 to 8) (size 9 to 14) (size 15 to 20)
#    0.000    2.000    0.000    2.143   10.000    3.714 
#    0.000    3.571    0.000    2.571    0.000    0.000 
#    0.000    0.000    0.000    0.000    0.000    0.000 
#
# Total GULP energy -693760.707831 kJ/mol
# GULP energy per Si atom -12388.584068 kJ/mol
# Density = 2.103983 g / cm^3
# Si number density = 21.087832 Si / 1000 Ang^3
#
#
#
# Elastic Constant Matrix: (Units=GPa)
#
#
# Indices 1 2 3 4 5 6 
#
# 1 82.8222 25.3415 31.2923 0.0000 -0.0001 0.0000
# 2 25.3415 120.8368 61.9145 0.0001 0.0001 0.0000
# 3 31.2923 61.9145 112.7769 0.0004 0.0001 0.0001
# 4 0.0000 0.0001 0.0004 -1.4295 0.0000 0.0000
# 5 -0.0001 0.0001 0.0001 0.0000 27.7449 -0.0001
# 6 0.0000 0.0000 0.0001 0.0000 -0.0001 15.3445
#
#
#
# Elastic Compliance Matrix: (Units=1/GPa)
#
#
# Indices 1 2 3 4 5 6 
#
# 1 0.013629 -0.001281 -0.003078 -0.000001 0.000000 0.000000
# 2 -0.001281 0.011635 -0.006032 -0.000001 0.000000 0.000000
# 3 -0.003078 -0.006032 0.013033 0.000004 0.000000 0.000000
# 4 -0.000001 -0.000001 0.000004 -0.699554 -0.000001 0.000000
# 5 0.000000 0.000000 0.000000 -0.000001 0.036043 0.000000
# 6 0.000000 0.000000 0.000000 0.000000 0.000000 0.065170
#
#
# Mechanical properties :
#
#
# Convention : Reuss Voigt Hill
#
# Bulk Modulus (GPa) = 57.09750 61.50362 59.30056
# Shear Modulus (GPa) = -9.37342 21.52448 6.07553
#
# Velocity S-wave (km/s) = -2.11059 3.19831 1.69921
# Velocity P-wave (km/s) = 4.60384 6.54734 5.65964
#
# Compressibility (1/GPa) = 0.01751390
#
# Stress axis : x y z
#
# Youngs Moduli (GPa) = 73.37244 85.94709 76.72862
#
# Poissons Ratio (x) = 0.11009 0.23621
# Poissons Ratio (y) = 0.09398 0.46285
# Poissons Ratio (z) = 0.22587 0.51845
#
# Static dielectric constant tensor:
#      x y z
#    x 3.771730 0.000350 0.000000 
#    y 0.000350 -27.651690 -0.000030 
#    z 0.000000 -0.000030 4.037080 
# 
# 
# High freq. dielectric constant tensor:
#      x y z
#    x 1.832080 0.000000 0.000000 
#    y 0.000000 1.800600 0.000000 
#    z 0.000000 0.000000 1.839070 
# 
# From -- ./inp_files/20740.got.cif
#   From: 2010.03.12/outbox.cif.g09.slc.cpg/sg72_11_cif.got.tgz:20740.got - 2010.04.16 14:54:00.
