data_PCOD8294157
_publ_section_title
;
Structure prediction by ZEFSAII (Michael W. Deem and Ramdas Pophale) SiO2 
 PCOD8294157
Probable space group: I B A M
;
_chemical_formula_sum "Si O2"
_cell_formula_units_Z 116
_cell_length_a 19.266637
_cell_length_b 17.956637
_cell_length_c 17.471605
_cell_angle_alpha 90.000000
_cell_angle_beta 90.000000
_cell_angle_gamma 90.000000
_cell_volume 6044.546471
_symmetry_space_group_name_H-M "I B A M"
_symmetry_group_IT_number 72
_symmetry_cell_setting 'orthorhombic'
loop_
_space_group_symop_operation_xyz
x,y,z
-x,-y,z
x,-y,1/2-z
-x,y,1/2-z
-x,-y,-z
x,y,-z
-x,y,1/2+z
x,-y,1/2+z
1/2+x,1/2+y,1/2+z
1/2-x,1/2-y,1/2+z
1/2+x,1/2-y,-z
1/2-x,1/2+y,-z
1/2-x,1/2-y,1/2-z
1/2+x,1/2+y,1/2-z
1/2-x,1/2+y,z
1/2+x,1/2-y,z
loop_
_atom_site_type_symbol
_atom_site_label
_atom_site_fract_x
_atom_site_fract_y
_atom_site_fract_z
Si Si1 0.000000 0.500000 0.250000
Si Si2 0.398750 0.878702 0.196825
Si Si3 0.594741 0.214577 0.343814
Si Si4 0.191755 0.794706 0.588100
Si Si5 0.946948 0.732872 0.089771
Si Si6 0.737715 0.041568 0.177412
Si Si7 0.798937 0.828922 0.590096
Si Si8 0.807000 0.402240 0.909677
O O1 0.951143 0.447593 0.300101
O O2 0.412961 0.810424 0.255852
O O3 0.413554 0.846526 0.112558
O O4 0.320241 0.903762 0.212366
O O5 0.520401 0.244672 0.370639
O O6 0.645106 0.284008 0.359775
O O7 0.621896 0.141006 0.388745
O O8 0.191415 0.815400 0.500000
O O9 0.111606 0.794061 0.616890
O O10 0.225441 0.712830 0.599608
O O11 0.240611 0.857439 0.626770
O O12 0.957813 0.735436 0.000000
O O13 0.792820 0.088371 0.126913
O O14 0.774047 0.000000 0.250000
O O15 0.695421 0.984720 0.123730
O O16 0.820536 0.833729 0.500000
O O17 0.803252 0.407366 0.000000
#
# Coordination Sequence:
#
# PCOD8294157 Si02
#       8
#     4  16  16  16  16  16  16  16
#     4  12  20  40  50  76 132 164 180 230 292 348
#     4  12  23  36  56  80 121 159 192 234 285 349
#     4  11  21  39  60  85 114 152 197 245 295 347
#     4   8  17  33  55  81 109 142 186 242 286 331
#     4  11  21  36  58  85 114 151 199 240 287 346
#     4  12  23  36  53  84 117 157 193 232 294 349
#     4  10  21  38  60  85 116 149 196 253 289 333
#     4  10  20  36  57  81 113 151 194 240 291 349
#
# _framework density 19.190853000000001
#
# number of rings (size 3 to 8) (size 9 to 14) (size 15 to 20)
#    0.000    1.379    4.828    2.483    0.000    2.207 
#    0.000    0.345    0.000    0.828    0.000    4.828 
#    0.000    0.000    0.000    0.000    0.000    0.000 
#
# Total GULP energy -718676.076942 kJ/mol
# GULP energy per Si atom -12390.966844 kJ/mol
# Density = 1.914717 g / cm^3
# Si number density = 19.190853 Si / 1000 Ang^3
#
#
#
# Elastic Constant Matrix: (Units=GPa)
#
#
# Indices 1 2 3 4 5 6 
#
# 1 107.6047 27.0667 19.5742 0.0000 0.0000 0.0000
# 2 27.0667 48.9558 17.1134 0.0000 0.0000 0.0000
# 3 19.5742 17.1134 42.3452 0.0000 0.0000 0.0000
# 4 0.0000 0.0000 0.0000 23.4950 0.0000 0.0000
# 5 0.0000 0.0000 0.0000 0.0000 22.6753 0.0000
# 6 0.0000 0.0000 0.0000 0.0000 0.0000 22.1488
#
#
#
# Elastic Compliance Matrix: (Units=1/GPa)
#
#
# Indices 1 2 3 4 5 6 
#
# 1 0.011132 -0.005073 -0.003096 0.000000 0.000000 0.000000
# 2 -0.005073 0.026099 -0.008203 0.000000 0.000000 0.000000
# 3 -0.003096 -0.008203 0.028361 0.000000 0.000000 0.000000
# 4 0.000000 0.000000 0.000000 0.042562 0.000000 0.000000
# 5 0.000000 0.000000 0.000000 0.000000 0.044101 0.000000
# 6 0.000000 0.000000 0.000000 0.000000 0.000000 0.045149
#
#
# Mechanical properties :
#
#
# Convention : Reuss Voigt Hill
#
# Bulk Modulus (GPa) = 30.44131 36.26824 33.35477
# Shear Modulus (GPa) = 20.73854 22.67393 21.70623
#
# Velocity S-wave (km/s) = 3.29089 3.44102 3.36679
# Velocity P-wave (km/s) = 5.50788 5.89298 5.70368
#
# Compressibility (1/GPa) = 0.03285010
#
# Stress axis : x y z
#
# Youngs Moduli (GPa) = 89.82771 38.31630 35.25907
#
# Poissons Ratio (x) = 0.19437 0.10916
# Poissons Ratio (y) = 0.45567 0.28922
# Poissons Ratio (z) = 0.27810 0.31429
#
# Static dielectric constant tensor:
#      x y z
#    x 3.627950 0.000000 0.000000 
#    y 0.000000 3.827150 0.000000 
#    z 0.000000 0.000000 3.527270 
# 
# 
# High freq. dielectric constant tensor:
#      x y z
#    x 1.737460 0.000000 0.000000 
#    y 0.000000 1.726160 0.000000 
#    z 0.000000 0.000000 1.747930 
# 
# From -- ./inp_files/31735.got.cif
#   From: 2010.03.12/outbox.cif.g09.slc.cpg/sg72_16_cif.got.tgz:31735.got - 2010.04.16 14:54:00.
