data_PCOD8294714
_publ_section_title
;
Structure prediction by ZEFSAII (Michael W. Deem and Ramdas Pophale) SiO2 
 PCOD8294714
Probable space group: I B A M
;
_chemical_formula_sum "Si O2"
_cell_formula_units_Z 52
_cell_length_a 18.393459
_cell_length_b 11.995380
_cell_length_c 9.818984
_cell_angle_alpha 90.000000
_cell_angle_beta 90.000000
_cell_angle_gamma 90.000000
_cell_volume 2166.426560
_symmetry_space_group_name_H-M "I B A M"
_symmetry_group_IT_number 72
_symmetry_cell_setting 'orthorhombic'
loop_
_space_group_symop_operation_xyz
x,y,z
-x,-y,z
x,-y,1/2-z
-x,y,1/2-z
-x,-y,-z
x,y,-z
-x,y,1/2+z
x,-y,1/2+z
1/2+x,1/2+y,1/2+z
1/2-x,1/2-y,1/2+z
1/2+x,1/2-y,-z
1/2-x,1/2+y,-z
1/2-x,1/2-y,1/2-z
1/2+x,1/2+y,1/2-z
1/2-x,1/2+y,z
1/2+x,1/2-y,z
loop_
_atom_site_type_symbol
_atom_site_label
_atom_site_fract_x
_atom_site_fract_y
_atom_site_fract_z
Si Si1 0.602388 0.892861 0.340388
Si Si2 0.413634 0.703511 0.350606
Si Si3 0.768882 0.092992 0.148717
Si Si4 0.000000 0.000000 0.250000
O O1 0.580651 0.906965 0.500000
O O2 0.561619 0.786295 0.272135
O O3 0.687419 0.866878 0.320634
O O4 0.579590 0.000000 0.250000
O O5 0.434100 0.753275 0.500000
O O6 0.325783 0.694242 0.343225
O O7 0.449554 0.581211 0.340043
O O8 0.796841 0.000000 0.250000
O O9 0.770094 0.037074 0.000000
#
# Coordination Sequence:
#
# PCOD8294714 Si02
#       4
#    16  16  16   4
#     4  10  21  38  64  95 127 163 206 260 321 379
#     4  11  23  40  62  90 127 168 214 262 309 370
#     4   9  18  34  58  91 127 164 205 256 316 374
#     4  12  26  44  66  90 126 172 220 254 306 368
#
# _framework density 24.002659000000001
#
# number of rings (size 3 to 8) (size 9 to 14) (size 15 to 20)
#    0.000    1.846    1.538    2.308    0.000    4.923 
#    0.000    0.769    0.000    3.692    0.000    0.000 
#    0.000    0.000    0.000    0.000    0.000    0.000 
#
# Total GULP energy -322192.151605 kJ/mol
# GULP energy per Si atom -12392.005831 kJ/mol
# Density = 2.394803 g / cm^3
# Si number density = 24.002659 Si / 1000 Ang^3
#
#
#
# Elastic Constant Matrix: (Units=GPa)
#
#
# Indices 1 2 3 4 5 6 
#
# 1 62.5982 22.1785 16.5220 0.0000 0.0000 0.0000
# 2 22.1785 139.5207 96.3491 0.0000 0.0000 0.0000
# 3 16.5220 96.3491 218.0351 0.0000 0.0000 0.0000
# 4 0.0000 0.0000 0.0000 49.0266 0.0000 0.0000
# 5 0.0000 0.0000 0.0000 0.0000 -0.4371 0.0000
# 6 0.0000 0.0000 0.0000 0.0000 0.0000 13.9206
#
#
#
# Elastic Compliance Matrix: (Units=1/GPa)
#
#
# Indices 1 2 3 4 5 6 
#
# 1 0.016931 -0.002598 -0.000135 0.000000 0.000000 0.000000
# 2 -0.002598 0.010714 -0.004538 0.000000 0.000000 0.000000
# 3 -0.000135 -0.004538 0.006602 0.000000 0.000000 0.000000
# 4 0.000000 0.000000 0.000000 0.020397 0.000000 0.000000
# 5 0.000000 0.000000 0.000000 0.000000 -2.287810 0.000000
# 6 0.000000 0.000000 0.000000 0.000000 0.000000 0.071836
#
#
# Mechanical properties :
#
#
# Convention : Reuss Voigt Hill
#
# Bulk Modulus (GPa) = 50.74742 76.69478 63.72110
# Shear Modulus (GPa) = -2.33621 31.50897 14.58638
#
# Velocity S-wave (km/s) = -0.98764 3.62709 2.46783
# Velocity P-wave (km/s) = 4.45957 7.04010 5.89282
#
# Compressibility (1/GPa) = 0.01970544
#
# Stress axis : x y z
#
# Youngs Moduli (GPa) = 59.06304 93.33626 151.47441
#
# Poissons Ratio (x) = 0.24252 0.02042
# Poissons Ratio (y) = 0.15346 0.68733
# Poissons Ratio (z) = 0.00796 0.42352
#
# Static dielectric constant tensor:
#      x y z
#    x 4.356340 0.000000 0.000000 
#    y 0.000000 3.847810 0.000000 
#    z 0.000000 0.000000 4.396120 
# 
# 
# High freq. dielectric constant tensor:
#      x y z
#    x 1.971920 0.000000 0.000000 
#    y 0.000000 1.923400 0.000000 
#    z 0.000000 0.000000 1.960300 
# 
# From -- ./inp_files/2307.got.cif
#   From: 2010.03.12/outbox.cif.g09.slc.cpg/sg72_2_cif.got.tgz:2307.got - 2010.04.16 14:54:00.
