data_PCOD8294452
_publ_section_title
;
Structure prediction by ZEFSAII (Michael W. Deem and Ramdas Pophale) SiO2 
 PCOD8294452
Probable space group: I B A M
;
_chemical_formula_sum "Si O2"
_cell_formula_units_Z 64
_cell_length_a 21.394192
_cell_length_b 9.005375
_cell_length_c 17.162000
_cell_angle_alpha 90.000000
_cell_angle_beta 90.000000
_cell_angle_gamma 90.000000
_cell_volume 3306.477631
_symmetry_space_group_name_H-M "I B A M"
_symmetry_group_IT_number 72
_symmetry_cell_setting 'orthorhombic'
loop_
_space_group_symop_operation_xyz
x,y,z
-x,-y,z
x,-y,1/2-z
-x,y,1/2-z
-x,-y,-z
x,y,-z
-x,y,1/2+z
x,-y,1/2+z
1/2+x,1/2+y,1/2+z
1/2-x,1/2-y,1/2+z
1/2+x,1/2-y,-z
1/2-x,1/2+y,-z
1/2-x,1/2-y,1/2-z
1/2+x,1/2+y,1/2-z
1/2-x,1/2+y,z
1/2+x,1/2-y,z
loop_
_atom_site_type_symbol
_atom_site_label
_atom_site_fract_x
_atom_site_fract_y
_atom_site_fract_z
Si Si1 0.212463 0.958211 0.914200
Si Si2 0.901043 0.966002 0.000000
Si Si3 0.709195 0.179204 0.683406
Si Si4 0.899143 0.500000 0.750000
Si Si5 0.488169 0.753070 0.500000
Si Si6 0.500000 0.000000 0.874570
O O1 0.199038 0.791038 0.887431
O O2 0.144408 0.037738 0.923616
O O3 0.256241 0.034660 0.850620
O O4 0.245341 0.951143 0.000000
O O5 0.943076 0.820078 0.000000
O O6 0.938496 0.120905 0.000000
O O7 0.750000 0.250000 0.750000
O O8 0.643092 0.136397 0.720982
O O9 0.941971 0.446920 0.678198
O O10 0.479860 0.857230 0.424848
#
# Coordination Sequence:
#
# PCOD8294452 Si02
#       6
#    16   8  16   8   8   8
#     4  10  23  39  61  96 125 169 212 261 324 388
#     4   9  22  36  66  90 124 151 216 266 318 369
#     4  12  22  41  61  94 135 168 204 265 326 393
#     4  11  24  40  64  90 132 163 216 250 334 385
#     4  10  20  44  64  90 118 164 220 274 308 362
#     4  10  24  42  66  90 118 172 214 268 308 384
#
# _framework density 19.355945999999999
#
# number of rings (size 3 to 8) (size 9 to 14) (size 15 to 20)
#    0.750    0.750    2.500    2.250    3.500    0.000 
#    4.500    0.000    0.000    3.000    0.000    0.000 
#    0.000    0.000    0.000    0.000    0.000    0.000 
#
# Total GULP energy -396662.253843 kJ/mol
# GULP energy per Si atom -12395.695433 kJ/mol
# Density = 1.931189 g / cm^3
# Si number density = 19.355946 Si / 1000 Ang^3
#
#
#
# Elastic Constant Matrix: (Units=GPa)
#
#
# Indices 1 2 3 4 5 6 
#
# 1 108.1185 28.8354 47.2294 0.0000 0.0000 0.0000
# 2 28.8354 91.2700 44.8814 0.0000 0.0000 0.0000
# 3 47.2294 44.8814 120.2322 0.0000 0.0000 0.0000
# 4 0.0000 0.0000 0.0000 38.1682 0.0000 0.0000
# 5 0.0000 0.0000 0.0000 0.0000 32.4080 0.0000
# 6 0.0000 0.0000 0.0000 0.0000 0.0000 36.5375
#
#
#
# Elastic Compliance Matrix: (Units=1/GPa)
#
#
# Indices 1 2 3 4 5 6 
#
# 1 0.011379 -0.001711 -0.003831 0.000000 0.000000 0.000000
# 2 -0.001711 0.013677 -0.004433 0.000000 0.000000 0.000000
# 3 -0.003831 -0.004433 0.011477 0.000000 0.000000 0.000000
# 4 0.000000 0.000000 0.000000 0.026200 0.000000 0.000000
# 5 0.000000 0.000000 0.000000 0.000000 0.030857 0.000000
# 6 0.000000 0.000000 0.000000 0.000000 0.000000 0.027369
#
#
# Mechanical properties :
#
#
# Convention : Reuss Voigt Hill
#
# Bulk Modulus (GPa) = 60.30619 62.39035 61.34827
# Shear Modulus (GPa) = 34.14425 34.66771 34.40598
#
# Velocity S-wave (km/s) = 4.20458 4.23669 4.22066
# Velocity P-wave (km/s) = 7.40239 7.49905 7.45088
#
# Compressibility (1/GPa) = 0.01658205
#
# Stress axis : x y z
#
# Youngs Moduli (GPa) = 87.88103 73.11447 87.12981
#
# Poissons Ratio (x) = 0.12511 0.33381
# Poissons Ratio (y) = 0.15037 0.38628
# Poissons Ratio (z) = 0.33669 0.32415
#
# Static dielectric constant tensor:
#      x y z
#    x 3.696020 0.000000 0.000000 
#    y 0.000000 3.580670 0.000000 
#    z 0.000000 0.000000 3.568720 
# 
# 
# High freq. dielectric constant tensor:
#      x y z
#    x 1.753550 0.000000 0.000000 
#    y 0.000000 1.751190 0.000000 
#    z 0.000000 0.000000 1.762180 
# 
# From -- ./inp_files/33089.got.cif
#   From: 2010.03.12/outbox.cif.g09.slc.cpg/sg72_17_cif.got.tgz:33089.got - 2010.04.16 14:54:00.
