data_PCOD8294048
_publ_section_title
;
Structure prediction by ZEFSAII (Michael W. Deem and Ramdas Pophale) SiO2 
 PCOD8294048
Probable space group: I B A M
;
_chemical_formula_sum "Si O2"
_cell_formula_units_Z 80
_cell_length_a 9.866526
_cell_length_b 19.813663
_cell_length_c 21.844057
_cell_angle_alpha 90.000000
_cell_angle_beta 90.000000
_cell_angle_gamma 90.000000
_cell_volume 4270.338853
_symmetry_space_group_name_H-M "I B A M"
_symmetry_group_IT_number 72
_symmetry_cell_setting 'orthorhombic'
loop_
_space_group_symop_operation_xyz
x,y,z
-x,-y,z
x,-y,1/2-z
-x,y,1/2-z
-x,-y,-z
x,y,-z
-x,y,1/2+z
x,-y,1/2+z
1/2+x,1/2+y,1/2+z
1/2-x,1/2-y,1/2+z
1/2+x,1/2-y,-z
1/2-x,1/2+y,-z
1/2-x,1/2-y,1/2-z
1/2+x,1/2+y,1/2-z
1/2-x,1/2+y,z
1/2+x,1/2-y,z
loop_
_atom_site_type_symbol
_atom_site_label
_atom_site_fract_x
_atom_site_fract_y
_atom_site_fract_z
Si Si1 0.072881 0.850505 0.368512
Si Si2 0.869562 0.277341 0.291183
Si Si3 0.265402 0.385055 0.871032
Si Si4 0.344861 0.484719 0.319792
Si Si5 0.559274 0.305367 0.000000
Si Si6 0.749492 0.321854 0.500000
O O1 0.106705 0.776889 0.344141
O O2 0.174107 0.905940 0.337846
O O3 0.097242 0.850779 0.441414
O O4 0.917081 0.863930 0.351775
O O5 0.750000 0.250000 0.250000
O O6 0.834969 0.347246 0.324674
O O7 0.000000 0.290324 0.250000
O O8 0.251662 0.465997 0.861302
O O9 0.230340 0.368916 0.940983
O O10 0.500000 0.500000 0.334377
O O11 0.306690 0.500000 0.250000
O O12 0.638166 0.235484 0.000000
O O13 0.399110 0.287767 0.000000
#
# Coordination Sequence:
#
# PCOD8294048 Si02
#       6
#    16  16  16  16   8   8
#     4  10  20  35  56  84 114 149 191 238 283 343
#     4  12  22  33  56  85 114 146 195 238 284 338
#     4  10  20  36  55  85 114 149 190 237 287 335
#     4   9  18  32  54  81 117 148 183 233 289 338
#     4  10  20  35  55  85 113 145 190 238 286 334
#     4  10  20  35  57  83 115 145 190 238 282 338
#
# _framework density 18.733875000000001
#
# number of rings (size 3 to 8) (size 9 to 14) (size 15 to 20)
#    0.000    1.800    4.000    1.200    2.800    0.800 
#    0.000    4.000    0.000    5.400    0.000    1.400 
#    0.000    0.000    0.000    0.000    0.000    0.000 
#
# Total GULP energy -495966.642376 kJ/mol
# GULP energy per Si atom -12399.166059 kJ/mol
# Density = 1.869124 g / cm^3
# Si number density = 18.733875 Si / 1000 Ang^3
#
#
#
# Elastic Constant Matrix: (Units=GPa)
#
#
# Indices 1 2 3 4 5 6 
#
# 1 62.2075 31.1291 47.8400 0.0000 0.0000 0.0000
# 2 31.1291 117.7972 57.3349 0.0000 0.0000 0.0000
# 3 47.8400 57.3349 138.6507 0.0000 0.0000 0.0000
# 4 0.0000 0.0000 0.0000 32.2521 0.0000 0.0000
# 5 0.0000 0.0000 0.0000 0.0000 23.4125 0.0000
# 6 0.0000 0.0000 0.0000 0.0000 0.0000 24.9615
#
#
#
# Elastic Compliance Matrix: (Units=1/GPa)
#
#
# Indices 1 2 3 4 5 6 
#
# 1 0.022557 -0.002720 -0.006658 0.000000 0.000000 0.000000
# 2 -0.002720 0.010956 -0.003592 0.000000 0.000000 0.000000
# 3 -0.006658 -0.003592 0.010995 0.000000 0.000000 0.000000
# 4 0.000000 0.000000 0.000000 0.031006 0.000000 0.000000
# 5 0.000000 0.000000 0.000000 0.000000 0.042712 0.000000
# 6 0.000000 0.000000 0.000000 0.000000 0.000000 0.040062
#
#
# Mechanical properties :
#
#
# Convention : Reuss Voigt Hill
#
# Bulk Modulus (GPa) = 53.85781 65.69596 59.77688
# Shear Modulus (GPa) = 26.25800 28.28196 27.26998
#
# Velocity S-wave (km/s) = 3.74790 3.88966 3.81944
# Velocity P-wave (km/s) = 6.89495 7.43752 7.17137
#
# Compressibility (1/GPa) = 0.01856741
#
# Stress axis : x y z
#
# Youngs Moduli (GPa) = 44.33247 91.27099 90.94946
#
# Poissons Ratio (x) = 0.24827 0.60556
# Poissons Ratio (y) = 0.12059 0.32670
# Poissons Ratio (z) = 0.29517 0.32786
#
# Static dielectric constant tensor:
#      x y z
#    x 3.232530 0.000000 0.000000 
#    y 0.000000 3.730360 0.000000 
#    z 0.000000 0.000000 3.556680 
# 
# 
# High freq. dielectric constant tensor:
#      x y z
#    x 1.692700 0.000000 0.000000 
#    y 0.000000 1.725070 0.000000 
#    z 0.000000 0.000000 1.743000 
# 
# From -- ./inp_files/29224.got.cif
#   From: 2010.03.12/outbox.cif.g09.slc.cpg/sg72_15_cif.got.tgz:29224.got - 2010.04.16 14:54:00.
