data_PCOD8294322
_publ_section_title
;
Structure prediction by ZEFSAII (Michael W. Deem and Ramdas Pophale) SiO2 
 PCOD8294322
Probable space group: I B A M
;
_chemical_formula_sum "Si O2"
_cell_formula_units_Z 52
_cell_length_a 14.997698
_cell_length_b 7.147406
_cell_length_c 21.529172
_cell_angle_alpha 90.000000
_cell_angle_beta 90.000000
_cell_angle_gamma 90.000000
_cell_volume 2307.811770
_symmetry_space_group_name_H-M "I B A M"
_symmetry_group_IT_number 72
_symmetry_cell_setting 'orthorhombic'
loop_
_space_group_symop_operation_xyz
x,y,z
-x,-y,z
x,-y,1/2-z
-x,y,1/2-z
-x,-y,-z
x,y,-z
-x,y,1/2+z
x,-y,1/2+z
1/2+x,1/2+y,1/2+z
1/2-x,1/2-y,1/2+z
1/2+x,1/2-y,-z
1/2-x,1/2+y,-z
1/2-x,1/2-y,1/2-z
1/2+x,1/2+y,1/2-z
1/2-x,1/2+y,z
1/2+x,1/2-y,z
loop_
_atom_site_type_symbol
_atom_site_label
_atom_site_fract_x
_atom_site_fract_y
_atom_site_fract_z
Si Si1 0.624558 0.691287 0.930718
Si Si2 0.179774 0.768917 0.569393
Si Si3 0.966186 0.307053 0.341818
Si Si4 0.000000 0.000000 0.250000
O O1 0.717829 0.783776 0.908264
O O2 0.634931 0.469592 0.931159
O O3 0.546344 0.737192 0.884365
O O4 0.599426 0.761379 0.000000
O O5 0.178066 0.677860 0.500000
O O6 0.120891 0.644298 0.616672
O O7 0.000000 0.500000 0.309776
O O8 0.941370 0.143349 0.292092
#
# Coordination Sequence:
#
# PCOD8294322 Si02
#       4
#    16  16  16   4
#     4  10  20  37  64  99 133 162 200 258 325 387
#     4  10  20  37  64  99 133 162 200 258 325 387
#     4  12  24  42  68  89 127 168 214 262 317 363
#     4  12  26  48  62  86 124 174 226 270 284 370
#
# _framework density 22.532169
#
# number of rings (size 3 to 8) (size 9 to 14) (size 15 to 20)
#    0.000    1.231    3.077    3.231    0.000    7.385 
#    0.000    1.538    0.000    0.000    0.000    0.000 
#    0.000    0.000    0.000    0.000    0.000    0.000 
#
# Total GULP energy -322283.094282 kJ/mol
# GULP energy per Si atom -12395.503626 kJ/mol
# Density = 2.248088 g / cm^3
# Si number density = 22.532169 Si / 1000 Ang^3
#
#
#
# Elastic Constant Matrix: (Units=GPa)
#
#
# Indices 1 2 3 4 5 6 
#
# 1 111.1367 7.8599 56.8124 0.0000 0.0000 0.0000
# 2 7.8599 85.6634 29.0996 0.0000 0.0000 0.0000
# 3 56.8124 29.0996 101.2869 0.0000 0.0000 0.0000
# 4 0.0000 0.0000 0.0000 21.3220 0.0000 0.0000
# 5 0.0000 0.0000 0.0000 0.0000 -5.9347 0.0000
# 6 0.0000 0.0000 0.0000 0.0000 0.0000 34.8211
#
#
#
# Elastic Compliance Matrix: (Units=1/GPa)
#
#
# Indices 1 2 3 4 5 6 
#
# 1 0.012764 0.001397 -0.007561 0.000000 0.000000 0.000000
# 2 0.001397 0.013089 -0.004544 0.000000 0.000000 0.000000
# 3 -0.007561 -0.004544 0.015419 0.000000 0.000000 0.000000
# 4 0.000000 0.000000 0.000000 0.046900 0.000000 0.000000
# 5 0.000000 0.000000 0.000000 0.000000 -0.168501 0.000000
# 6 0.000000 0.000000 0.000000 0.000000 0.000000 0.028718
#
#
# Mechanical properties :
#
#
# Convention : Reuss Voigt Hill
#
# Bulk Modulus (GPa) = 50.36017 53.95897 52.15957
# Shear Modulus (GPa) = -212.08833 23.66268 -94.21282
#
# Velocity S-wave (km/s) = -9.71243 3.24415 -6.47328
# Velocity P-wave (km/s) = 10.16741 6.16703 5.71594
#
# Compressibility (1/GPa) = 0.01985696
#
# Stress axis : x y z
#
# Youngs Moduli (GPa) = 78.34403 76.39976 64.85309
#
# Poissons Ratio (x) = -0.10675 0.49035
# Poissons Ratio (y) = -0.10947 0.29471
# Poissons Ratio (z) = 0.59236 0.34718
#
# Static dielectric constant tensor:
#      x y z
#    x 4.053020 0.000000 0.000000 
#    y 0.000000 4.422800 0.000000 
#    z 0.000000 0.000000 4.181000 
# 
# 
# High freq. dielectric constant tensor:
#      x y z
#    x 1.875840 0.000000 0.000000 
#    y 0.000000 1.906660 0.000000 
#    z 0.000000 0.000000 1.866340 
# 
# From -- ./inp_files/27436.got.cif
#   From: 2010.03.12/outbox.cif.g09.slc.cpg/sg72_14_cif.got.tgz:27436.got - 2010.04.16 14:54:00.
