data_PCOD8294558
_publ_section_title
;
Structure prediction by ZEFSAII (Michael W. Deem and Ramdas Pophale) SiO2 
 PCOD8294558
Probable space group: I B A M
;
_chemical_formula_sum "Si O2"
_cell_formula_units_Z 48
_cell_length_a 19.039140
_cell_length_b 8.545452
_cell_length_c 15.253196
_cell_angle_alpha 90.000000
_cell_angle_beta 90.000000
_cell_angle_gamma 90.000000
_cell_volume 2481.665352
_symmetry_space_group_name_H-M "I B A M"
_symmetry_group_IT_number 72
_symmetry_cell_setting 'orthorhombic'
loop_
_space_group_symop_operation_xyz
x,y,z
-x,-y,z
x,-y,1/2-z
-x,y,1/2-z
-x,-y,-z
x,y,-z
-x,y,1/2+z
x,-y,1/2+z
1/2+x,1/2+y,1/2+z
1/2-x,1/2-y,1/2+z
1/2+x,1/2-y,-z
1/2-x,1/2+y,-z
1/2-x,1/2-y,1/2-z
1/2+x,1/2+y,1/2-z
1/2-x,1/2+y,z
1/2+x,1/2-y,z
loop_
_atom_site_type_symbol
_atom_site_label
_atom_site_fract_x
_atom_site_fract_y
_atom_site_fract_z
Si Si1 0.062514 0.396977 0.597517
Si Si2 0.326129 0.934122 0.000000
Si Si3 0.829329 0.064015 0.500000
Si Si4 0.576787 0.559571 0.154741
O O1 0.037826 0.338576 0.500000
O O2 0.133230 0.501603 0.586871
O O3 0.077444 0.248121 0.658166
O O4 0.000000 0.500000 0.640142
O O5 0.326888 0.749078 0.000000
O O6 0.248045 0.995955 0.000000
O O7 0.867206 0.002708 0.586271
O O8 0.500000 0.500000 0.127632
O O9 0.599247 0.500000 0.250000
#
# Coordination Sequence:
#
# PCOD8294558 Si02
#       4
#    16   8   8  16
#     4   9  18  37  63  89 117 151 205 240 296 345
#     4  10  21  36  63  90 110 162 200 246 297 362
#     4  12  21  40  61  84 124 158 200 246 303 354
#     4  11  23  38  60  91 120 157 199 246 297 355
#
# _framework density 19.341850999999998
#
# number of rings (size 3 to 8) (size 9 to 14) (size 15 to 20)
#    1.000    0.667    1.667    4.500    0.000    0.000 
#    0.000   18.333    0.000    0.000    0.000    0.000 
#    0.000    0.000    0.000    0.000    0.000    0.000 
#
# Total GULP energy -297559.765167 kJ/mol
# GULP energy per Si atom -12398.323549 kJ/mol
# Density = 1.929783 g / cm^3
# Si number density = 19.341851 Si / 1000 Ang^3
#
#
#
# Elastic Constant Matrix: (Units=GPa)
#
#
# Indices 1 2 3 4 5 6 
#
# 1 179.2075 80.6578 62.0387 0.0000 0.0000 0.0000
# 2 80.6578 206.4971 66.9011 0.0000 0.0000 0.0000
# 3 62.0387 66.9011 96.8837 0.0000 0.0000 0.0000
# 4 0.0000 0.0000 0.0000 -73.1948 0.0000 0.0000
# 5 0.0000 0.0000 0.0000 0.0000 24.6482 0.0000
# 6 0.0000 0.0000 0.0000 0.0000 0.0000 40.6688
#
#
#
# Elastic Compliance Matrix: (Units=1/GPa)
#
#
# Indices 1 2 3 4 5 6 
#
# 1 0.007659 -0.001807 -0.003657 0.000000 0.000000 0.000000
# 2 -0.001807 0.006665 -0.003445 0.000000 0.000000 0.000000
# 3 -0.003657 -0.003445 0.015042 0.000000 0.000000 0.000000
# 4 0.000000 0.000000 0.000000 -0.013662 0.000000 0.000000
# 5 0.000000 0.000000 0.000000 0.000000 0.040571 0.000000
# 6 0.000000 0.000000 0.000000 0.000000 0.000000 0.024589
#
#
# Mechanical properties :
#
#
# Convention : Reuss Voigt Hill
#
# Bulk Modulus (GPa) = 86.59172 100.19818 93.39495
# Shear Modulus (GPa) = 48.76582 16.62382 32.69482
#
# Velocity S-wave (km/s) = 5.02666 2.93486 4.11587
# Velocity P-wave (km/s) = 8.86319 7.96246 8.42487
#
# Compressibility (1/GPa) = 0.01154845
#
# Stress axis : x y z
#
# Youngs Moduli (GPa) = 130.55938 150.04606 66.47987
#
# Poissons Ratio (x) = 0.27113 0.24310
# Poissons Ratio (y) = 0.23592 0.22902
# Poissons Ratio (z) = 0.47743 0.51691
#
# Static dielectric constant tensor:
#      x y z
#    x 3.487890 0.000000 0.000000 
#    y 0.000000 3.686120 0.000000 
#    z 0.000000 0.000000 3.240370 
# 
# 
# High freq. dielectric constant tensor:
#      x y z
#    x 1.752740 0.000000 0.000000 
#    y 0.000000 1.772450 0.000000 
#    z 0.000000 0.000000 1.722230 
# 
# From -- ./inp_files/18051.got.cif
#   From: 2010.03.12/outbox.cif.g09.slc.cpg/sg72_10_cif.got.tgz:18051.got - 2010.04.16 14:54:00.
