data_PCOD8294467
_publ_section_title
;
Structure prediction by ZEFSAII (Michael W. Deem and Ramdas Pophale) SiO2 
 PCOD8294467
Probable space group: I B A M
;
_chemical_formula_sum "Si O2"
_cell_formula_units_Z 96
_cell_length_a 24.935615
_cell_length_b 13.574122
_cell_length_c 12.978625
_cell_angle_alpha 90.000000
_cell_angle_beta 90.000000
_cell_angle_gamma 90.000000
_cell_volume 4392.993052
_symmetry_space_group_name_H-M "I B A M"
_symmetry_group_IT_number 72
_symmetry_cell_setting 'orthorhombic'
loop_
_space_group_symop_operation_xyz
x,y,z
-x,-y,z
x,-y,1/2-z
-x,y,1/2-z
-x,-y,-z
x,y,-z
-x,y,1/2+z
x,-y,1/2+z
1/2+x,1/2+y,1/2+z
1/2-x,1/2-y,1/2+z
1/2+x,1/2-y,-z
1/2-x,1/2+y,-z
1/2-x,1/2-y,1/2-z
1/2+x,1/2+y,1/2-z
1/2-x,1/2+y,z
1/2+x,1/2-y,z
loop_
_atom_site_type_symbol
_atom_site_label
_atom_site_fract_x
_atom_site_fract_y
_atom_site_fract_z
Si Si1 0.212663 0.822795 0.878651
Si Si2 0.040834 0.419412 0.618591
Si Si3 0.912748 0.845344 0.188514
Si Si4 0.131306 0.500000 0.750000
Si Si5 0.974550 0.803130 0.614198
Si Si6 0.833892 0.000000 0.750000
Si Si7 0.326474 0.803416 0.799216
O O1 0.202588 0.928336 0.821551
O O2 0.273773 0.784404 0.867484
O O3 0.178240 0.740123 0.817692
O O4 0.197188 0.827088 0.000000
O O5 0.051481 0.438742 0.500000
O O6 0.097464 0.432703 0.672748
O O7 0.016474 0.311928 0.640466
O O8 0.000000 0.500000 0.663686
O O9 0.930662 0.846596 0.308778
O O10 0.879695 0.748029 0.153514
O O11 0.967022 0.854762 0.122098
O O12 0.872441 0.936938 0.173857
O O13 0.168212 0.578946 0.692923
O O14 0.951598 0.819397 0.500000
#
# Coordination Sequence:
#
# PCOD8294467 Si02
#       7
#    16  16  16   8  16   8  16
#     4  10  23  45  68  91 127 166 210 274 333 386
#     4  10  21  33  51  82 119 160 202 241 293 363
#     4  10  21  39  61  89 127 170 205 269 317 369
#     4  12  20  34  60  85 121 156 198 252 308 364
#     4  10  21  37  57  88 126 170 217 257 308 379
#     4  10  23  43  64  95 127 163 224 269 328 384
#     4  10  22  39  63  95 123 162 213 260 320 397
#
# _framework density 21.852982999999998
#
# number of rings (size 3 to 8) (size 9 to 14) (size 15 to 20)
#    0.000    1.833    1.667    1.750    2.333    6.667 
#    0.000   12.500    0.000    0.000    0.000    0.000 
#    0.000    0.000    0.000    0.000    0.000    0.000 
#
# Total GULP energy -594966.434034 kJ/mol
# GULP energy per Si atom -12395.134042 kJ/mol
# Density = 2.180324 g / cm^3
# Si number density = 21.852983 Si / 1000 Ang^3
#
#
#
# Elastic Constant Matrix: (Units=GPa)
#
#
# Indices 1 2 3 4 5 6 
#
# 1 88.9750 14.4576 2.5406 0.0000 0.0000 0.0000
# 2 14.4576 78.3150 8.5264 0.0000 0.0000 0.0000
# 3 2.5406 8.5264 92.2875 0.0000 0.0000 0.0000
# 4 0.0000 0.0000 0.0000 20.7712 0.0000 0.0000
# 5 0.0000 0.0000 0.0000 0.0000 9.3511 0.0000
# 6 0.0000 0.0000 0.0000 0.0000 0.0000 38.3519
#
#
#
# Elastic Compliance Matrix: (Units=1/GPa)
#
#
# Indices 1 2 3 4 5 6 
#
# 1 0.011588 -0.002126 -0.000123 0.000000 0.000000 0.000000
# 2 -0.002126 0.013289 -0.001169 0.000000 0.000000 0.000000
# 3 -0.000123 -0.001169 0.010947 0.000000 0.000000 0.000000
# 4 0.000000 0.000000 0.000000 0.048144 0.000000 0.000000
# 5 0.000000 0.000000 0.000000 0.000000 0.106940 0.000000
# 6 0.000000 0.000000 0.000000 0.000000 0.000000 0.026074
#
#
# Mechanical properties :
#
#
# Convention : Reuss Voigt Hill
#
# Bulk Modulus (GPa) = 34.49653 34.51408 34.50531
# Shear Modulus (GPa) = 21.41514 29.29837 25.35676
#
# Velocity S-wave (km/s) = 3.13383 3.66553 3.41006
# Velocity P-wave (km/s) = 5.37723 5.80886 5.59721
#
# Compressibility (1/GPa) = 0.02898842
#
# Stress axis : x y z
#
# Youngs Moduli (GPa) = 86.29582 75.25194 91.34842
#
# Poissons Ratio (x) = 0.15998 0.01120
# Poissons Ratio (y) = 0.18346 0.10681
# Poissons Ratio (z) = 0.01058 0.08799
#
# Static dielectric constant tensor:
#      x y z
#    x 3.958160 0.000000 0.000000 
#    y 0.000000 3.950590 0.000000 
#    z 0.000000 0.000000 3.652850 
# 
# 
# High freq. dielectric constant tensor:
#      x y z
#    x 1.869700 0.000000 0.000000 
#    y 0.000000 1.856400 0.000000 
#    z 0.000000 0.000000 1.834510 
# 
# From -- ./inp_files/25140.got.cif
#   From: 2010.03.12/outbox.cif.g09.slc.cpg/sg72_13_cif.got.tgz:25140.got - 2010.04.16 14:54:00.
