data_PCOD8294372
_publ_section_title
;
Structure prediction by ZEFSAII (Michael W. Deem and Ramdas Pophale) SiO2 
 PCOD8294372
Probable space group: I B A M
;
_chemical_formula_sum "Si O2"
_cell_formula_units_Z 96
_cell_length_a 9.985972
_cell_length_b 22.377919
_cell_length_c 21.345384
_cell_angle_alpha 90.000000
_cell_angle_beta 90.000000
_cell_angle_gamma 90.000000
_cell_volume 4769.952053
_symmetry_space_group_name_H-M "I B A M"
_symmetry_group_IT_number 72
_symmetry_cell_setting 'orthorhombic'
loop_
_space_group_symop_operation_xyz
x,y,z
-x,-y,z
x,-y,1/2-z
-x,y,1/2-z
-x,-y,-z
x,y,-z
-x,y,1/2+z
x,-y,1/2+z
1/2+x,1/2+y,1/2+z
1/2-x,1/2-y,1/2+z
1/2+x,1/2-y,-z
1/2-x,1/2+y,-z
1/2-x,1/2-y,1/2-z
1/2+x,1/2+y,1/2-z
1/2-x,1/2+y,z
1/2+x,1/2-y,z
loop_
_atom_site_type_symbol
_atom_site_label
_atom_site_fract_x
_atom_site_fract_y
_atom_site_fract_z
Si Si1 0.083324 0.682410 0.609757
Si Si2 0.310761 0.126911 0.130492
Si Si3 0.342643 0.995366 0.425824
Si Si4 0.309220 0.388312 0.931425
Si Si5 0.444899 0.684957 0.074366
Si Si6 0.152057 0.694612 0.744237
O O1 0.195727 0.663262 0.560008
O O2 0.034471 0.750363 0.605116
O O3 0.160197 0.666829 0.675111
O O4 0.953232 0.641992 0.599645
O O5 0.282890 0.057437 0.117250
O O6 0.200752 0.164015 0.093495
O O7 0.311818 0.144037 0.204220
O O8 0.318485 0.984017 0.500000
O O9 0.500000 0.000000 0.411799
O O10 0.260433 0.053366 0.400497
O O11 0.441271 0.360348 0.897769
O O12 0.357411 0.407882 0.000000
O O13 0.458927 0.690877 0.000000
O O14 0.250000 0.750000 0.750000
O O15 0.000000 0.718497 0.750000
#
# Coordination Sequence:
#
# PCOD8294372 Si02
#       6
#    16  16  16  16  16  16
#     4  11  21  37  60  87 119 160 203 247 303 369
#     4  11  22  38  60  86 116 159 206 246 299 363
#     4  10  20  38  63  86 117 162 206 247 301 365
#     4  10  22  38  58  88 124 159 199 252 307 362
#     4  11  23  35  56  92 126 156 196 253 310 368
#     4  10  22  38  59  87 116 155 199 244 301 356
#
# _framework density 20.125988
#
# number of rings (size 3 to 8) (size 9 to 14) (size 15 to 20)
#    0.000    1.500    3.333    2.000    2.333    4.000 
#    0.000    3.333    0.000    0.000    0.000    2.333 
#    0.000    0.000    0.000    0.000    0.000    0.000 
#
# Total GULP energy -594867.143232 kJ/mol
# GULP energy per Si atom -12393.065484 kJ/mol
# Density = 2.008018 g / cm^3
# Si number density = 20.125988 Si / 1000 Ang^3
#
#
#
# Elastic Constant Matrix: (Units=GPa)
#
#
# Indices 1 2 3 4 5 6 
#
# 1 85.9459 32.9896 22.0417 0.0000 0.0000 0.0000
# 2 32.9896 127.6151 33.1825 0.0000 0.0000 0.0000
# 3 22.0417 33.1825 69.2928 0.0000 0.0000 0.0000
# 4 0.0000 0.0000 0.0000 26.4262 0.0000 0.0000
# 5 0.0000 0.0000 0.0000 0.0000 24.0085 0.0000
# 6 0.0000 0.0000 0.0000 0.0000 0.0000 32.9065
#
#
#
# Elastic Compliance Matrix: (Units=1/GPa)
#
#
# Indices 1 2 3 4 5 6 
#
# 1 0.013435 -0.002698 -0.002982 0.000000 0.000000 0.000000
# 2 -0.002698 0.009492 -0.003687 0.000000 0.000000 0.000000
# 3 -0.002982 -0.003687 0.017146 0.000000 0.000000 0.000000
# 4 0.000000 0.000000 0.000000 0.037841 0.000000 0.000000
# 5 0.000000 0.000000 0.000000 0.000000 0.041652 0.000000
# 6 0.000000 0.000000 0.000000 0.000000 0.000000 0.030389
#
#
# Mechanical properties :
#
#
# Convention : Reuss Voigt Hill
#
# Bulk Modulus (GPa) = 46.86174 51.03128 48.94651
# Shear Modulus (GPa) = 28.44087 29.64423 29.04255
#
# Velocity S-wave (km/s) = 3.76326 3.84204 3.80285
# Velocity P-wave (km/s) = 6.49750 6.71511 6.60720
#
# Compressibility (1/GPa) = 0.02133937
#
# Stress axis : x y z
#
# Youngs Moduli (GPa) = 74.42968 105.34861 58.32316
#
# Poissons Ratio (x) = 0.28422 0.17391
# Poissons Ratio (y) = 0.20080 0.21506
# Poissons Ratio (z) = 0.22194 0.38847
#
# Static dielectric constant tensor:
#      x y z
#    x 3.832240 0.000000 0.000000 
#    y 0.000000 3.730040 0.000000 
#    z 0.000000 0.000000 3.805660 
# 
# 
# High freq. dielectric constant tensor:
#      x y z
#    x 1.796250 0.000000 0.000000 
#    y 0.000000 1.780230 0.000000 
#    z 0.000000 0.000000 1.767060 
# 
# From -- ./inp_files/42444.got.cif
#   From: 2010.03.12/outbox.cif.g09.slc.cpg/sg72_22_cif.got.tgz:42444.got - 2010.04.16 14:54:00.
