data_PCOD8294349
_publ_section_title
;
Structure prediction by ZEFSAII (Michael W. Deem and Ramdas Pophale) SiO2 
 PCOD8294349
Probable space group: I B A M
;
_chemical_formula_sum "Si O2"
_cell_formula_units_Z 96
_cell_length_a 29.024889
_cell_length_b 10.202978
_cell_length_c 16.920448
_cell_angle_alpha 90.000000
_cell_angle_beta 90.000000
_cell_angle_gamma 90.000000
_cell_volume 5010.826613
_symmetry_space_group_name_H-M "I B A M"
_symmetry_group_IT_number 72
_symmetry_cell_setting 'orthorhombic'
loop_
_space_group_symop_operation_xyz
x,y,z
-x,-y,z
x,-y,1/2-z
-x,y,1/2-z
-x,-y,-z
x,y,-z
-x,y,1/2+z
x,-y,1/2+z
1/2+x,1/2+y,1/2+z
1/2-x,1/2-y,1/2+z
1/2+x,1/2-y,-z
1/2-x,1/2+y,-z
1/2-x,1/2-y,1/2-z
1/2+x,1/2+y,1/2-z
1/2-x,1/2+y,z
1/2+x,1/2-y,z
loop_
_atom_site_type_symbol
_atom_site_label
_atom_site_fract_x
_atom_site_fract_y
_atom_site_fract_z
Si Si1 0.371657 0.515497 0.908125
Si Si2 0.113044 0.286733 0.594111
Si Si3 0.691520 0.866953 0.201986
Si Si4 0.704969 0.376079 0.194458
Si Si5 0.986259 0.354952 0.159101
Si Si6 0.966503 0.890099 0.907357
O O1 0.375409 0.363247 0.886085
O O2 0.325517 0.585871 0.880099
O O3 0.415844 0.589187 0.870257
O O4 0.371201 0.534969 0.000000
O O5 0.107522 0.311775 0.500000
O O6 0.155667 0.369529 0.629209
O O7 0.067456 0.330640 0.641320
O O8 0.682099 0.747940 0.262253
O O9 0.742840 0.847422 0.166083
O O10 0.685796 0.000000 0.250000
O O11 0.705476 0.500000 0.250000
O O12 0.000000 0.500000 0.131330
O O13 0.000000 0.333047 0.250000
O O14 0.016122 0.255449 0.107726
O O15 0.963995 0.916341 0.000000
O O16 0.000000 0.000000 0.869120
#
# Coordination Sequence:
#
# PCOD8294349 Si02
#       6
#    16  16  16  16  16  16
#     4  10  21  37  64  94 121 158 210 260 302 365
#     4  11  23  42  65  90 124 167 205 252 317 373
#     4  10  23  39  63  92 126 159 205 259 308 374
#     4  10  20  39  63  91 121 164 204 253 316 362
#     4  11  26  41  60  90 125 163 201 251 305 370
#     4  10  20  38  60  88 123 156 199 252 300 358
#
# _framework density 19.158517
#
# number of rings (size 3 to 8) (size 9 to 14) (size 15 to 20)
#    0.000    1.667    3.333    0.500    4.667    2.333 
#    0.000    2.500    0.000    0.000    0.000    0.000 
#    0.000    0.000    0.000    0.000    0.000    0.000 
#
# Total GULP energy -595124.301319 kJ/mol
# GULP energy per Si atom -12398.422944 kJ/mol
# Density = 1.911491 g / cm^3
# Si number density = 19.158517 Si / 1000 Ang^3
#
#
#
# Elastic Constant Matrix: (Units=GPa)
#
#
# Indices 1 2 3 4 5 6 
#
# 1 147.8886 48.1972 62.4491 0.0000 0.0000 0.0000
# 2 48.1972 105.6159 36.8907 0.0000 0.0000 0.0000
# 3 62.4491 36.8907 62.5029 0.0000 0.0000 0.0000
# 4 0.0000 0.0000 0.0000 28.9973 0.0000 0.0000
# 5 0.0000 0.0000 0.0000 0.0000 37.0212 0.0000
# 6 0.0000 0.0000 0.0000 0.0000 0.0000 36.0136
#
#
#
# Elastic Compliance Matrix: (Units=1/GPa)
#
#
# Indices 1 2 3 4 5 6 
#
# 1 0.011910 -0.001611 -0.010950 0.000000 0.000000 0.000000
# 2 -0.001611 0.012145 -0.005559 0.000000 0.000000 0.000000
# 3 -0.010950 -0.005559 0.030220 0.000000 0.000000 0.000000
# 4 0.000000 0.000000 0.000000 0.034486 0.000000 0.000000
# 5 0.000000 0.000000 0.000000 0.000000 0.027012 0.000000
# 6 0.000000 0.000000 0.000000 0.000000 0.000000 0.027767
#
#
# Mechanical properties :
#
#
# Convention : Reuss Voigt Hill
#
# Bulk Modulus (GPa) = 55.44015 67.89795 61.66905
# Shear Modulus (GPa) = 26.91189 31.63777 29.27483
#
# Velocity S-wave (km/s) = 3.75199 4.06811 3.91325
# Velocity P-wave (km/s) = 6.91161 7.58835 7.25787
#
# Compressibility (1/GPa) = 0.01803747
#
# Stress axis : x y z
#
# Youngs Moduli (GPa) = 83.95994 82.33844 33.09026
#
# Poissons Ratio (x) = 0.13262 0.36232
# Poissons Ratio (y) = 0.13523 0.18395
# Poissons Ratio (z) = 0.91932 0.45772
#
# Static dielectric constant tensor:
#      x y z
#    x 4.073870 0.000000 0.000000 
#    y 0.000000 3.609430 0.000000 
#    z 0.000000 0.000000 3.287440 
# 
# 
# High freq. dielectric constant tensor:
#      x y z
#    x 1.761870 0.000000 0.000000 
#    y 0.000000 1.753240 0.000000 
#    z 0.000000 0.000000 1.726440 
# 
# From -- ./inp_files/33260.got.cif
#   From: 2010.03.12/outbox.cif.g09.slc.cpg/sg72_17_cif.got.tgz:33260.got - 2010.04.16 14:54:00.
