data_PCOD8294628
_publ_section_title
;
Structure prediction by ZEFSAII (Michael W. Deem and Ramdas Pophale) SiO2 
 PCOD8294628
Probable space group: I B A M
;
_chemical_formula_sum "Si O2"
_cell_formula_units_Z 96
_cell_length_a 13.529913
_cell_length_b 23.259615
_cell_length_c 15.046236
_cell_angle_alpha 90.000000
_cell_angle_beta 90.000000
_cell_angle_gamma 90.000000
_cell_volume 4735.059006
_symmetry_space_group_name_H-M "I B A M"
_symmetry_group_IT_number 72
_symmetry_cell_setting 'orthorhombic'
loop_
_space_group_symop_operation_xyz
x,y,z
-x,-y,z
x,-y,1/2-z
-x,y,1/2-z
-x,-y,-z
x,y,-z
-x,y,1/2+z
x,-y,1/2+z
1/2+x,1/2+y,1/2+z
1/2-x,1/2-y,1/2+z
1/2+x,1/2-y,-z
1/2-x,1/2+y,-z
1/2-x,1/2-y,1/2-z
1/2+x,1/2+y,1/2-z
1/2-x,1/2+y,z
1/2+x,1/2-y,z
loop_
_atom_site_type_symbol
_atom_site_label
_atom_site_fract_x
_atom_site_fract_y
_atom_site_fract_z
Si Si1 0.255990 0.585975 0.397338
Si Si2 0.302899 0.217170 0.172017
Si Si3 0.627085 0.649113 0.398698
Si Si4 0.613935 0.100398 0.260710
Si Si5 0.584605 0.676327 0.103824
Si Si6 0.249395 0.455630 0.397201
O O1 0.229370 0.600874 0.500000
O O2 0.160041 0.594898 0.337291
O O3 0.341441 0.627527 0.358134
O O4 0.291150 0.519987 0.388820
O O5 0.250000 0.250000 0.250000
O O6 0.213660 0.195942 0.109760
O O7 0.370131 0.164819 0.204361
O O8 0.375620 0.259957 0.120942
O O9 0.599702 0.641360 0.500000
O O10 0.524425 0.668518 0.351102
O O11 0.664903 0.587508 0.362279
O O12 0.500000 0.086364 0.250000
O O13 0.656298 0.054337 0.332000
O O14 0.577373 0.666444 0.000000
O O15 0.219169 0.442011 0.500000
#
# Coordination Sequence:
#
# PCOD8294628 Si02
#       6
#    16  16  16  16  16  16
#     4  10  21  39  61  89 121 156 197 247 296 349
#     4  11  22  37  57  81 118 154 193 241 294 345
#     4   9  20  38  59  85 115 153 193 240 292 354
#     4  11  24  40  60  87 118 158 203 246 294 351
#     4  10  21  37  61  89 118 153 196 242 297 355
#     4   9  20  40  63  87 121 156 196 245 298 352
#
# _framework density 20.274298999999999
#
# number of rings (size 3 to 8) (size 9 to 14) (size 15 to 20)
#    0.000    2.000    1.667    1.000    2.333    3.333 
#    0.000    5.000    0.000    2.000    0.000    0.000 
#    0.000    0.000    0.000    0.000    0.000    0.000 
#
# Total GULP energy -595063.706663 kJ/mol
# GULP energy per Si atom -12397.160555 kJ/mol
# Density = 2.022815 g / cm^3
# Si number density = 20.274299 Si / 1000 Ang^3
#
#
#
# Elastic Constant Matrix: (Units=GPa)
#
#
# Indices 1 2 3 4 5 6 
#
# 1 156.4389 55.2122 36.2953 0.0000 0.0000 0.0000
# 2 55.2122 128.7130 20.9998 -0.0001 0.0000 0.0000
# 3 36.2953 20.9998 54.5846 -0.0001 0.0000 0.0000
# 4 0.0000 -0.0001 -0.0001 28.8462 0.0000 0.0000
# 5 0.0000 0.0000 0.0000 0.0000 25.5035 0.0000
# 6 0.0000 0.0000 0.0000 0.0000 0.0000 15.6404
#
#
#
# Elastic Compliance Matrix: (Units=1/GPa)
#
#
# Indices 1 2 3 4 5 6 
#
# 1 0.008460 -0.002893 -0.004513 0.000000 0.000000 0.000000
# 2 -0.002893 0.009279 -0.001646 0.000000 0.000000 0.000000
# 3 -0.004513 -0.001646 0.021954 0.000000 0.000000 0.000000
# 4 0.000000 0.000000 0.000000 0.034667 0.000000 0.000000
# 5 0.000000 0.000000 0.000000 0.000000 0.039210 0.000000
# 6 0.000000 0.000000 0.000000 0.000000 0.000000 0.063937
#
#
# Mechanical properties :
#
#
# Convention : Reuss Voigt Hill
#
# Bulk Modulus (GPa) = 46.31802 62.75013 54.53407
# Shear Modulus (GPa) = 24.65404 29.14664 26.90034
#
# Velocity S-wave (km/s) = 3.49094 3.79570 3.64651
# Velocity P-wave (km/s) = 6.25653 7.08714 6.68475
#
# Compressibility (1/GPa) = 0.02158987
#
# Stress axis : x y z
#
# Youngs Moduli (GPa) = 118.20055 107.77382 45.54962
#
# Poissons Ratio (x) = 0.31177 0.20555
# Poissons Ratio (y) = 0.34193 0.07498
# Poissons Ratio (z) = 0.53339 0.17741
#
# Static dielectric constant tensor:
#      x y z
#    x 3.834580 0.000000 0.000000 
#    y 0.000000 4.535560 0.000000 
#    z 0.000000 0.000000 3.691190 
# 
# 
# High freq. dielectric constant tensor:
#      x y z
#    x 1.782050 0.000000 0.000000 
#    y 0.000000 1.803200 0.000000 
#    z 0.000000 0.000000 1.793760 
# 
# From -- ./inp_files/29458.got.cif
#   From: 2010.03.12/outbox.cif.g09.slc.cpg/sg72_15_cif.got.tgz:29458.got - 2010.04.16 14:54:00.
