data_PCOD8294788
_publ_section_title
;
Structure prediction by ZEFSAII (Michael W. Deem and Ramdas Pophale) SiO2 
 PCOD8294788
Probable space group: I B A M
;
_chemical_formula_sum "Si O2"
_cell_formula_units_Z 56
_cell_length_a 9.934658
_cell_length_b 26.576023
_cell_length_c 9.759008
_cell_angle_alpha 90.000000
_cell_angle_beta 90.000000
_cell_angle_gamma 90.000000
_cell_volume 2576.609396
_symmetry_space_group_name_H-M "I B A M"
_symmetry_group_IT_number 72
_symmetry_cell_setting 'orthorhombic'
loop_
_space_group_symop_operation_xyz
x,y,z
-x,-y,z
x,-y,1/2-z
-x,y,1/2-z
-x,-y,-z
x,y,-z
-x,y,1/2+z
x,-y,1/2+z
1/2+x,1/2+y,1/2+z
1/2-x,1/2-y,1/2+z
1/2+x,1/2-y,-z
1/2-x,1/2+y,-z
1/2-x,1/2-y,1/2-z
1/2+x,1/2+y,1/2-z
1/2-x,1/2+y,z
1/2+x,1/2-y,z
loop_
_atom_site_type_symbol
_atom_site_label
_atom_site_fract_x
_atom_site_fract_y
_atom_site_fract_z
Si Si1 0.859405 0.689461 0.000000
Si Si2 0.619509 0.069717 0.500000
Si Si3 0.188437 0.460450 0.000000
Si Si4 0.000000 0.165286 0.250000
Si Si5 0.271601 0.113219 0.728759
Si Si6 0.419936 0.267794 0.000000
O O1 0.843860 0.655739 0.136052
O O2 0.009760 0.712935 0.000000
O O3 0.744174 0.733706 0.000000
O O4 0.468287 0.051709 0.500000
O O5 0.640098 0.102423 0.636822
O O6 0.715347 0.020336 0.500000
O O7 0.252095 0.436703 0.137297
O O8 0.873276 0.130300 0.282359
O O9 0.971451 0.201720 0.127100
#
# Coordination Sequence:
#
# PCOD8294788 Si02
#       6
#     8   8   8   8  16   8
#     4   9  22  43  60  88 127 156 207 250 304 355
#     4  11  21  39  64  88 120 162 196 244 309 349
#     4  10  22  40  59  90 128 152 195 255 298 349
#     4  10  22  42  63  82 128 160 193 248 314 340
#     4  10  21  40  61  89 119 159 201 244 293 369
#     4  10  21  42  61  87 121 169 195 259 300 359
#
# _framework density 21.733989000000001
#
# number of rings (size 3 to 8) (size 9 to 14) (size 15 to 20)
#    0.000    2.000    0.000    3.429    0.000    6.857 
#   25.714    4.286    0.000    0.000    0.000    0.000 
#    0.000    0.000    0.000    0.000    0.000    0.000 
#
# Total GULP energy -347171.282311 kJ/mol
# GULP energy per Si atom -12398.974368 kJ/mol
# Density = 2.168452 g / cm^3
# Si number density = 21.733989 Si / 1000 Ang^3
#
#
#
# Elastic Constant Matrix: (Units=GPa)
#
#
# Indices 1 2 3 4 5 6 
#
# 1 41.5209 37.2992 9.4916 -0.0013 -0.0023 -0.0005
# 2 37.2992 94.7874 20.7366 -0.0006 -0.0033 -0.0004
# 3 9.4916 20.7366 127.5643 -0.0033 -0.0120 -0.0021
# 4 -0.0013 -0.0006 -0.0033 18.7355 -0.0013 0.0001
# 5 -0.0023 -0.0033 -0.0120 -0.0013 36.6197 0.0012
# 6 -0.0005 -0.0004 -0.0021 0.0001 0.0012 35.3901
#
#
#
# Elastic Compliance Matrix: (Units=1/GPa)
#
#
# Indices 1 2 3 4 5 6 
#
# 1 0.037273 -0.014579 -0.000403 0.000002 0.000001 0.000000
# 2 -0.014579 0.016641 -0.001620 -0.000001 0.000000 0.000000
# 3 -0.000403 -0.001620 0.008133 0.000001 0.000002 0.000000
# 4 0.000002 -0.000001 0.000001 0.053374 0.000002 0.000000
# 5 0.000001 0.000000 0.000002 0.000002 0.027308 -0.000001
# 6 0.000000 0.000000 0.000000 0.000000 -0.000001 0.028256
#
#
# Mechanical properties :
#
#
# Convention : Reuss Voigt Hill
#
# Bulk Modulus (GPa) = 34.67227 44.32526 39.49876
# Shear Modulus (GPa) = 23.38587 31.23875 27.31231
#
# Velocity S-wave (km/s) = 3.28381 3.79532 3.54879
# Velocity P-wave (km/s) = 5.51049 6.29640 5.91651
#
# Compressibility (1/GPa) = 0.02884149
#
# Stress axis : x y z
#
# Youngs Moduli (GPa) = 26.82918 60.09180 122.96168
#
# Poissons Ratio (x) = 0.87606 0.04961
# Poissons Ratio (y) = 0.39114 0.19925
# Poissons Ratio (z) = 0.01082 0.09737
#
# Static dielectric constant tensor:
#      x y z
#    x 4.099680 0.000000 0.000000 
#    y 0.000000 4.285760 0.000000 
#    z 0.000000 0.000000 3.961860 
# 
# 
# High freq. dielectric constant tensor:
#      x y z
#    x 1.843260 0.000000 0.000000 
#    y 0.000000 1.853810 0.000000 
#    z 0.000000 0.000000 1.869660 
# 
# From -- ./inp_files/2436.got.cif
#   From: 2010.03.12/outbox.cif.g09.slc.cpg/sg72_2_cif.got.tgz:2436.got - 2010.04.16 14:54:00.
