data_PCOD8294277
_publ_section_title
;
Structure prediction by ZEFSAII (Michael W. Deem and Ramdas Pophale) SiO2 
 PCOD8294277
Probable space group: I B A M
;
_chemical_formula_sum "Si O2"
_cell_formula_units_Z 112
_cell_length_a 15.893864
_cell_length_b 16.191307
_cell_length_c 23.367413
_cell_angle_alpha 90.000000
_cell_angle_beta 90.000000
_cell_angle_gamma 90.000000
_cell_volume 6013.426878
_symmetry_space_group_name_H-M "I B A M"
_symmetry_group_IT_number 72
_symmetry_cell_setting 'orthorhombic'
loop_
_space_group_symop_operation_xyz
x,y,z
-x,-y,z
x,-y,1/2-z
-x,y,1/2-z
-x,-y,-z
x,y,-z
-x,y,1/2+z
x,-y,1/2+z
1/2+x,1/2+y,1/2+z
1/2-x,1/2-y,1/2+z
1/2+x,1/2-y,-z
1/2-x,1/2+y,-z
1/2-x,1/2-y,1/2-z
1/2+x,1/2+y,1/2-z
1/2-x,1/2+y,z
1/2+x,1/2-y,z
loop_
_atom_site_type_symbol
_atom_site_label
_atom_site_fract_x
_atom_site_fract_y
_atom_site_fract_z
Si Si1 0.261127 0.586060 0.231769
Si Si2 0.520298 0.091483 0.435421
Si Si3 0.596420 0.485696 0.847140
Si Si4 0.655950 0.177807 0.064435
Si Si5 0.334903 0.364738 0.566208
Si Si6 0.701256 0.646618 0.852839
Si Si7 0.328354 0.165101 0.871180
O O1 0.216789 0.500000 0.250000
O O2 0.350701 0.560454 0.202820
O O3 0.275855 0.645800 0.285735
O O4 0.197059 0.634719 0.191653
O O5 0.558350 0.093215 0.500000
O O6 0.434549 0.139727 0.433482
O O7 0.581489 0.132104 0.389412
O O8 0.500000 0.000000 0.414974
O O9 0.500000 0.500000 0.827926
O O10 0.601579 0.427152 0.902512
O O11 0.634222 0.574610 0.864414
O O12 0.641798 0.271847 0.083942
O O13 0.716895 0.129186 0.107942
O O14 0.694299 0.173822 0.000000
O O15 0.345094 0.383486 0.500000
O O16 0.237864 0.375477 0.584714
O O17 0.665721 0.735605 0.871570
#
# Coordination Sequence:
#
# PCOD8294277 Si02
#       7
#    16  16  16  16  16  16  16
#     4   9  20  37  59  80 111 151 187 234 284 336
#     4  10  22  36  58  85 114 150 189 233 279 337
#     4  10  22  36  58  85 114 148 187 236 281 339
#     4   9  20  38  58  83 114 148 185 233 284 338
#     4   9  19  36  57  82 115 150 183 228 286 338
#     4  10  21  37  61  83 111 149 191 233 283 342
#     4  10  20  37  60  83 111 148 193 234 283 334
#
# _framework density 18.624987999999998
#
# number of rings (size 3 to 8) (size 9 to 14) (size 15 to 20)
#    0.000    2.429    0.000    0.857    8.000    4.000 
#    0.000    0.714    3.143    0.000    0.000    0.000 
#    0.000    0.000    0.000    0.000    0.000    0.000 
#
# Total GULP energy -694278.355260 kJ/mol
# GULP energy per Si atom -12397.827772 kJ/mol
# Density = 1.858260 g / cm^3
# Si number density = 18.624988 Si / 1000 Ang^3
#
#
#
# Elastic Constant Matrix: (Units=GPa)
#
#
# Indices 1 2 3 4 5 6 
#
# 1 80.6251 41.6027 41.2565 0.0000 0.0000 0.0000
# 2 41.6027 77.8821 34.3491 0.0000 0.0000 0.0000
# 3 41.2565 34.3491 95.1292 0.0000 0.0000 0.0000
# 4 0.0000 0.0000 0.0000 37.2833 0.0000 0.0000
# 5 0.0000 0.0000 0.0000 0.0000 17.0547 0.0000
# 6 0.0000 0.0000 0.0000 0.0000 0.0000 24.8233
#
#
#
# Elastic Compliance Matrix: (Units=1/GPa)
#
#
# Indices 1 2 3 4 5 6 
#
# 1 0.019290 -0.007867 -0.005525 0.000000 0.000000 0.000000
# 2 -0.007867 0.018481 -0.003261 0.000000 0.000000 0.000000
# 3 -0.005525 -0.003261 0.014086 0.000000 0.000000 0.000000
# 4 0.000000 0.000000 0.000000 0.026822 0.000000 0.000000
# 5 0.000000 0.000000 0.000000 0.000000 0.058635 0.000000
# 6 0.000000 0.000000 0.000000 0.000000 0.000000 0.040285
#
#
# Mechanical properties :
#
#
# Convention : Reuss Voigt Hill
#
# Bulk Modulus (GPa) = 53.91025 54.22813 54.06919
# Shear Modulus (GPa) = 23.03216 24.92746 23.97981
#
# Velocity S-wave (km/s) = 3.52039 3.66237 3.59208
# Velocity P-wave (km/s) = 6.74775 6.86024 6.80423
#
# Compressibility (1/GPa) = 0.01854935
#
# Stress axis : x y z
#
# Youngs Moduli (GPa) = 51.84050 54.11042 70.99421
#
# Poissons Ratio (x) = 0.42571 0.39225
# Poissons Ratio (y) = 0.40785 0.23151
# Poissons Ratio (z) = 0.28642 0.17645
#
# Static dielectric constant tensor:
#      x y z
#    x 3.121920 0.000000 0.000000 
#    y 0.000000 3.478840 0.000000 
#    z 0.000000 0.000000 3.593530 
# 
# 
# High freq. dielectric constant tensor:
#      x y z
#    x 1.702100 0.000000 0.000000 
#    y 0.000000 1.736090 0.000000 
#    z 0.000000 0.000000 1.727520 
# 
# From -- ./inp_files/44334.got.cif
#   From: 2010.03.12/outbox.cif.g09.slc.cpg/sg72_23_cif.got.tgz:44334.got - 2010.04.16 14:54:00.
