data_PCOD8294759
_publ_section_title
;
Structure prediction by ZEFSAII (Michael W. Deem and Ramdas Pophale) SiO2 
 PCOD8294759
Probable space group: I B A M
;
_chemical_formula_sum "Si O2"
_cell_formula_units_Z 112
_cell_length_a 30.672846
_cell_length_b 10.253058
_cell_length_c 15.623488
_cell_angle_alpha 90.000000
_cell_angle_beta 90.000000
_cell_angle_gamma 90.000000
_cell_volume 4913.438070
_symmetry_space_group_name_H-M "I B A M"
_symmetry_group_IT_number 72
_symmetry_cell_setting 'orthorhombic'
loop_
_space_group_symop_operation_xyz
x,y,z
-x,-y,z
x,-y,1/2-z
-x,y,1/2-z
-x,-y,-z
x,y,-z
-x,y,1/2+z
x,-y,1/2+z
1/2+x,1/2+y,1/2+z
1/2-x,1/2-y,1/2+z
1/2+x,1/2-y,-z
1/2-x,1/2+y,-z
1/2-x,1/2-y,1/2-z
1/2+x,1/2+y,1/2-z
1/2-x,1/2+y,z
1/2+x,1/2-y,z
loop_
_atom_site_type_symbol
_atom_site_label
_atom_site_fract_x
_atom_site_fract_y
_atom_site_fract_z
Si Si1 0.929939 0.380478 0.636527
Si Si2 0.144709 0.202878 0.596299
Si Si3 0.067911 0.334563 0.333796
Si Si4 0.005486 0.163751 0.094200
Si Si5 0.915337 0.019541 0.349402
Si Si6 0.646794 0.737102 0.596243
Si Si7 0.709083 0.345225 0.749750
O O1 0.949226 0.527447 0.630571
O O2 0.929062 0.330787 0.733192
O O3 0.963897 0.290946 0.586201
O O4 0.878700 0.376429 0.604162
O O5 0.163539 0.220691 0.500000
O O6 0.116505 0.326113 0.626642
O O7 0.184028 0.178390 0.661302
O O8 0.109473 0.087746 0.595683
O O9 0.037483 0.207390 0.352261
O O10 0.032528 0.036090 0.132117
O O11 0.989145 0.127580 0.000000
O O12 0.895666 0.151931 0.385023
O O13 0.904364 0.000000 0.250000
O O14 0.666249 0.719186 0.500000
O O15 0.683165 0.699340 0.665416
O O16 0.721365 0.500000 0.750000
O O17 0.750000 0.250000 0.750000
#
# Coordination Sequence:
#
# PCOD8294759 Si02
#       7
#    16  16  16  16  16  16  16
#     4  10  21  39  63  91 130 184 237 284 343 410
#     4  12  23  42  70  97 134 183 228 279 345 420
#     4  11  23  39  60  92 138 184 231 288 346 405
#     4  11  23  37  57  94 135 179 235 290 342 404
#     4  11  20  40  67  94 130 181 234 285 339 408
#     4  11  21  42  74 100 128 174 229 281 348 422
#     4  12  27  49  74 108 142 180 223 288 359 433
#
# _framework density 22.794629
#
# number of rings (size 3 to 8) (size 9 to 14) (size 15 to 20)
#    0.000    0.857    4.286    4.714    0.000    6.286 
#    0.000    4.286    0.000    0.000    0.000    0.000 
#    0.000    0.000    0.000    0.000    0.000    0.000 
#
# Total GULP energy -693864.549827 kJ/mol
# GULP energy per Si atom -12390.438390 kJ/mol
# Density = 2.274275 g / cm^3
# Si number density = 22.794629 Si / 1000 Ang^3
#
#
#
# Elastic Constant Matrix: (Units=GPa)
#
#
# Indices 1 2 3 4 5 6 
#
# 1 127.8656 42.0837 43.5357 0.0000 0.0000 0.0000
# 2 42.0837 85.9776 31.7422 0.0000 0.0000 0.0000
# 3 43.5357 31.7422 162.5243 0.0000 0.0000 0.0000
# 4 0.0000 0.0000 0.0000 -2.3145 0.0000 0.0000
# 5 0.0000 0.0000 0.0000 0.0000 11.2592 0.0000
# 6 0.0000 0.0000 0.0000 0.0000 0.0000 32.0064
#
#
#
# Elastic Compliance Matrix: (Units=1/GPa)
#
#
# Indices 1 2 3 4 5 6 
#
# 1 0.009797 -0.004124 -0.001819 0.000000 0.000000 0.000000
# 2 -0.004124 0.014271 -0.001682 0.000000 0.000000 0.000000
# 3 -0.001819 -0.001682 0.006969 0.000000 0.000000 0.000000
# 4 0.000000 0.000000 0.000000 -0.432056 0.000000 0.000000
# 5 0.000000 0.000000 0.000000 0.000000 0.088816 0.000000
# 6 0.000000 0.000000 0.000000 0.000000 0.000000 0.031244
#
#
# Mechanical properties :
#
#
# Convention : Reuss Voigt Hill
#
# Bulk Modulus (GPa) = 63.34761 67.89897 65.62329
# Shear Modulus (GPa) = -19.19783 25.45728 3.12972
#
# Velocity S-wave (km/s) = -2.90523 3.34550 1.17303
# Velocity P-wave (km/s) = 4.07395 6.69142 5.53950
#
# Compressibility (1/GPa) = 0.01578592
#
# Stress axis : x y z
#
# Youngs Moduli (GPa) = 102.06847 70.07385 143.49710
#
# Poissons Ratio (x) = 0.28898 0.26102
# Poissons Ratio (y) = 0.42093 0.24143
# Poissons Ratio (z) = 0.18566 0.11790
#
# Static dielectric constant tensor:
#      x y z
#    x 4.050270 0.000000 0.000000 
#    y 0.000000 5.546110 0.000000 
#    z 0.000000 0.000000 4.122490 
# 
# 
# High freq. dielectric constant tensor:
#      x y z
#    x 1.877250 0.000000 0.000000 
#    y 0.000000 1.920990 0.000000 
#    z 0.000000 0.000000 1.906760 
# 
# From -- ./inp_files/26396.got.cif
#   From: 2010.03.12/outbox.cif.g09.slc.cpg/sg72_14_cif.got.tgz:26396.got - 2010.04.16 14:54:00.
