data_PCOD8294940
_publ_section_title
;
Structure prediction by ZEFSAII (Michael W. Deem and Ramdas Pophale) SiO2 
 PCOD8294940
Probable space group: I B A M
;
_chemical_formula_sum "Si O2"
_cell_formula_units_Z 84
_cell_length_a 11.904351
_cell_length_b 20.345553
_cell_length_c 13.947542
_cell_angle_alpha 90.000000
_cell_angle_beta 90.000000
_cell_angle_gamma 90.000000
_cell_volume 3378.103100
_symmetry_space_group_name_H-M "I B A M"
_symmetry_group_IT_number 72
_symmetry_cell_setting 'orthorhombic'
loop_
_space_group_symop_operation_xyz
x,y,z
-x,-y,z
x,-y,1/2-z
-x,y,1/2-z
-x,-y,-z
x,y,-z
-x,y,1/2+z
x,-y,1/2+z
1/2+x,1/2+y,1/2+z
1/2-x,1/2-y,1/2+z
1/2+x,1/2-y,-z
1/2-x,1/2+y,-z
1/2-x,1/2-y,1/2-z
1/2+x,1/2+y,1/2-z
1/2-x,1/2+y,z
1/2+x,1/2-y,z
loop_
_atom_site_type_symbol
_atom_site_label
_atom_site_fract_x
_atom_site_fract_y
_atom_site_fract_z
Si Si1 0.078752 0.106038 0.608308
Si Si2 0.500000 0.500000 0.750000
Si Si3 0.968153 0.768050 0.857613
Si Si4 0.840837 0.322993 0.101352
Si Si5 0.977294 0.572527 0.891555
Si Si6 0.798865 0.668377 0.186201
O O1 0.088508 0.079006 0.500000
O O2 0.182468 0.152115 0.635859
O O3 0.968388 0.153546 0.618463
O O4 0.076201 0.044812 0.680888
O O5 0.846825 0.732475 0.872601
O O6 0.000000 0.752064 0.750000
O O7 0.064443 0.732372 0.918091
O O8 0.772172 0.314023 0.201451
O O9 0.902998 0.392465 0.111386
O O10 0.769287 0.324164 0.000000
O O11 0.887361 0.608762 0.822701
O O12 0.000000 0.500000 0.851111
O O13 0.927848 0.570184 0.000000
#
# Coordination Sequence:
#
# PCOD8294940 Si02
#       6
#    16   4  16  16  16  16
#     4  12  26  48  78 103 138 189 236 290 353 424
#     4  12  30  56  68  98 146 188 236 292 336 422
#     4   9  19  41  70 103 142 179 226 297 356 404
#     4   9  18  33  56  95 143 181 223 281 344 410
#     4   9  17  31  54  87 130 178 227 283 346 409
#     4  10  22  39  69 102 138 180 233 287 352 419
#
# _framework density 24.866025
#
# number of rings (size 3 to 8) (size 9 to 14) (size 15 to 20)
#    0.000    2.095    0.952    3.143    0.000    8.381 
#    0.000    3.810    0.000    0.000    0.000    0.000 
#    0.000    0.000    0.000    0.000    0.000    0.000 
#
# Total GULP energy -520444.154772 kJ/mol
# GULP energy per Si atom -12391.527495 kJ/mol
# Density = 2.480943 g / cm^3
# Si number density = 24.866025 Si / 1000 Ang^3
#
#
#
# Elastic Constant Matrix: (Units=GPa)
#
#
# Indices 1 2 3 4 5 6 
#
# 1 62.5984 32.9798 36.3922 0.0005 0.0000 0.0000
# 2 32.9798 151.1605 39.1289 -0.0010 0.0001 0.0001
# 3 36.3922 39.1289 192.3653 -0.0029 0.0002 0.0000
# 4 0.0005 -0.0010 -0.0029 80.7432 0.0005 0.0000
# 5 0.0000 0.0001 0.0002 0.0005 26.1199 0.0000
# 6 0.0000 0.0001 0.0000 0.0000 0.0000 24.0603
#
#
#
# Elastic Compliance Matrix: (Units=1/GPa)
#
#
# Indices 1 2 3 4 5 6 
#
# 1 0.019552 -0.003492 -0.002989 0.000000 0.000000 0.000000
# 2 -0.003492 0.007607 -0.000887 0.000000 0.000000 0.000000
# 3 -0.002989 -0.000887 0.005944 0.000000 0.000000 0.000000
# 4 0.000000 0.000000 0.000000 0.012385 0.000000 0.000000
# 5 0.000000 0.000000 0.000000 0.000000 0.038285 0.000000
# 6 0.000000 0.000000 0.000000 0.000000 0.000000 0.041562
#
#
# Mechanical properties :
#
#
# Convention : Reuss Voigt Hill
#
# Bulk Modulus (GPa) = 54.44144 69.23621 61.83882
# Shear Modulus (GPa) = 34.20132 46.02622 40.11377
#
# Velocity S-wave (km/s) = 3.71269 4.30696 4.02082
# Velocity P-wave (km/s) = 6.34982 7.25516 6.81753
#
# Compressibility (1/GPa) = 0.01836836
#
# Stress axis : x y z
#
# Youngs Moduli (GPa) = 51.14523 131.45915 168.23168
#
# Poissons Ratio (x) = 0.45908 0.50277
# Poissons Ratio (y) = 0.17861 0.14916
# Poissons Ratio (z) = 0.15285 0.11656
#
# Static dielectric constant tensor:
#      x y z
#    x 4.170490 0.000000 0.000000 
#    y 0.000000 4.560080 0.000000 
#    z 0.000000 0.000000 4.780620 
# 
# 
# High freq. dielectric constant tensor:
#      x y z
#    x 1.954190 0.000000 0.000000 
#    y 0.000000 1.990700 0.000000 
#    z 0.000000 0.000000 2.012340 
# 
# From -- ./inp_files/20310.got.cif
#   From: 2010.03.12/outbox.cif.g09.slc.cpg/sg72_11_cif.got.tgz:20310.got - 2010.04.16 14:54:00.
