data_PCOD8294009
_publ_section_title
;
Structure prediction by ZEFSAII (Michael W. Deem and Ramdas Pophale) SiO2 
 PCOD8294009
Probable space group: I B A M
;
_chemical_formula_sum "Si O2"
_cell_formula_units_Z 96
_cell_length_a 17.225398
_cell_length_b 15.899807
_cell_length_c 18.477020
_cell_angle_alpha 90.000000
_cell_angle_beta 90.000000
_cell_angle_gamma 90.000000
_cell_volume 5060.495544
_symmetry_space_group_name_H-M "I B A M"
_symmetry_group_IT_number 72
_symmetry_cell_setting 'orthorhombic'
loop_
_space_group_symop_operation_xyz
x,y,z
-x,-y,z
x,-y,1/2-z
-x,y,1/2-z
-x,-y,-z
x,y,-z
-x,y,1/2+z
x,-y,1/2+z
1/2+x,1/2+y,1/2+z
1/2-x,1/2-y,1/2+z
1/2+x,1/2-y,-z
1/2-x,1/2+y,-z
1/2-x,1/2-y,1/2-z
1/2+x,1/2+y,1/2-z
1/2-x,1/2+y,z
1/2+x,1/2-y,z
loop_
_atom_site_type_symbol
_atom_site_label
_atom_site_fract_x
_atom_site_fract_y
_atom_site_fract_z
Si Si1 0.154618 0.082114 0.918013
Si Si2 0.674294 0.854418 0.581039
Si Si3 0.208953 0.944631 0.178986
Si Si4 0.108414 0.221887 0.691402
Si Si5 0.790435 0.300687 0.921622
Si Si6 0.435477 0.734204 0.850922
O O1 0.243701 0.112969 0.913516
O O2 0.097431 0.149080 0.883607
O O3 0.151738 0.995704 0.873999
O O4 0.128349 0.064877 0.000000
O O5 0.668356 0.894069 0.500000
O O6 0.710175 0.921509 0.637875
O O7 0.730088 0.774942 0.580129
O O8 0.589213 0.817718 0.603697
O O9 0.158071 0.863172 0.197563
O O10 0.228762 0.000000 0.250000
O O11 0.151729 0.293509 0.645393
O O12 0.098755 0.254867 0.772097
O O13 0.026314 0.213647 0.651379
O O14 0.833812 0.299080 0.000000
#
# Coordination Sequence:
#
# PCOD8294009 Si02
#       6
#    16  16  16  16  16  16
#     4  10  20  35  53  79 110 143 180 225 276 334
#     4   9  19  35  55  79 107 143 190 237 273 322
#     4  11  21  34  55  83 113 148 180 226 279 337
#     4  10  21  34  52  81 111 142 184 225 272 331
#     4   8  17  32  53  75 102 137 183 230 266 314
#     4  10  20  35  53  78 110 146 182 230 274 324
#
# _framework density 18.970473999999999
#
# number of rings (size 3 to 8) (size 9 to 14) (size 15 to 20)
#    0.000    2.333    1.667    2.000    2.333    4.667 
#    0.000    0.833    0.000    1.000    0.000    3.500 
#    0.000    0.000    0.000    0.000    0.000    0.000 
#
# Total GULP energy -594851.549543 kJ/mol
# GULP energy per Si atom -12392.740615 kJ/mol
# Density = 1.892730 g / cm^3
# Si number density = 18.970474 Si / 1000 Ang^3
#
#
#
# Elastic Constant Matrix: (Units=GPa)
#
#
# Indices 1 2 3 4 5 6 
#
# 1 42.4280 25.1337 29.8626 0.0000 0.0000 0.0000
# 2 25.1337 28.0878 12.5623 0.0000 0.0000 0.0000
# 3 29.8626 12.5623 74.7016 0.0000 0.0000 0.0000
# 4 0.0000 0.0000 0.0000 26.1410 0.0000 0.0000
# 5 0.0000 0.0000 0.0000 0.0000 22.2313 0.0000
# 6 0.0000 0.0000 0.0000 0.0000 0.0000 9.8283
#
#
#
# Elastic Compliance Matrix: (Units=1/GPa)
#
#
# Indices 1 2 3 4 5 6 
#
# 1 0.067032 -0.051901 -0.018069 0.000000 0.000000 0.000000
# 2 -0.051901 0.078683 0.007516 0.000000 0.000000 0.000000
# 3 -0.018069 0.007516 0.019346 0.000000 0.000000 0.000000
# 4 0.000000 0.000000 0.000000 0.038254 0.000000 0.000000
# 5 0.000000 0.000000 0.000000 0.000000 0.044982 0.000000
# 6 0.000000 0.000000 0.000000 0.000000 0.000000 0.101747
#
#
# Mechanical properties :
#
#
# Convention : Reuss Voigt Hill
#
# Bulk Modulus (GPa) = 24.90406 31.14828 28.02617
# Shear Modulus (GPa) = 10.23886 16.81737 13.52812
#
# Velocity S-wave (km/s) = 2.32572 2.98065 2.67332
# Velocity P-wave (km/s) = 4.51312 5.31984 4.93300
#
# Compressibility (1/GPa) = 0.04015409
#
# Stress axis : x y z
#
# Youngs Moduli (GPa) = 14.91824 12.70916 51.69083
#
# Poissons Ratio (x) = 0.65962 0.93399
# Poissons Ratio (y) = 0.77427 -0.38850
# Poissons Ratio (z) = 0.26955 -0.09552
#
# Static dielectric constant tensor:
#      x y z
#    x 3.342120 0.000000 0.000000 
#    y 0.000000 3.358600 0.000000 
#    z 0.000000 0.000000 3.851870 
# 
# 
# High freq. dielectric constant tensor:
#      x y z
#    x 1.708560 0.000000 0.000000 
#    y 0.000000 1.714830 0.000000 
#    z 0.000000 0.000000 1.762340 
# 
# From -- ./inp_files/31598.got.cif
#   From: 2010.03.12/outbox.cif.g09.slc.cpg/sg72_16_cif.got.tgz:31598.got - 2010.04.16 14:54:00.
