data_PCOD8294463
_publ_section_title
;
Structure prediction by ZEFSAII (Michael W. Deem and Ramdas Pophale) SiO2 
 PCOD8294463
Probable space group: I B A M
;
_chemical_formula_sum "Si O2"
_cell_formula_units_Z 80
_cell_length_a 22.176129
_cell_length_b 23.000868
_cell_length_c 9.558086
_cell_angle_alpha 90.000000
_cell_angle_beta 90.000000
_cell_angle_gamma 90.000000
_cell_volume 4875.294989
_symmetry_space_group_name_H-M "I B A M"
_symmetry_group_IT_number 72
_symmetry_cell_setting 'orthorhombic'
loop_
_space_group_symop_operation_xyz
x,y,z
-x,-y,z
x,-y,1/2-z
-x,y,1/2-z
-x,-y,-z
x,y,-z
-x,y,1/2+z
x,-y,1/2+z
1/2+x,1/2+y,1/2+z
1/2-x,1/2-y,1/2+z
1/2+x,1/2-y,-z
1/2-x,1/2+y,-z
1/2-x,1/2-y,1/2-z
1/2+x,1/2+y,1/2-z
1/2-x,1/2+y,z
1/2+x,1/2-y,z
loop_
_atom_site_type_symbol
_atom_site_label
_atom_site_fract_x
_atom_site_fract_y
_atom_site_fract_z
Si Si1 0.760410 0.116613 0.661654
Si Si2 0.133948 0.325913 0.715620
Si Si3 0.785777 0.500000 0.750000
Si Si4 0.051331 0.381174 0.500000
Si Si5 0.301975 0.716861 0.334034
Si Si6 0.623732 0.996831 0.000000
Si Si7 0.089081 0.372029 0.000000
O O1 0.782817 0.109502 0.500000
O O2 0.694373 0.145027 0.656234
O O3 0.757764 0.055951 0.747214
O O4 0.807356 0.154908 0.754548
O O5 0.076593 0.351412 0.637950
O O6 0.138070 0.256175 0.688077
O O7 0.124516 0.341244 0.875700
O O8 0.831283 0.510314 0.625791
O O9 0.069297 0.449651 0.500000
O O10 0.981909 0.363784 0.500000
O O11 0.287525 0.708894 0.500000
O O12 0.250000 0.750000 0.250000
O O13 0.593846 0.059106 0.000000
#
# Coordination Sequence:
#
# PCOD8294463 Si02
#       7
#    16  16   8   8  16   8   8
#     4  11  21  34  52  74 100 132 168 209 256 312
#     4  11  20  36  49  69  99 126 167 223 261 300
#     4  12  20  32  53  70 106 136 165 212 260 296
#     4  12  21  40  48  67 101 135 181 226 261 280
#     4  10  21  32  53  74  94 125 164 212 263 317
#     4  12  21  36  48  68  98 140 178 222 257 288
#     4  12  25  30  54  73  91 139 185 218 255 306
#
# _framework density 16.409264
#
# number of rings (size 3 to 8) (size 9 to 14) (size 15 to 20)
#    0.000    0.800    7.000    2.700    8.400    0.000 
#    0.000    3.000    0.000    0.000    0.000    0.000 
#    0.000    0.000    0.000    5.400    0.000    0.000 
#
# Total GULP energy -495633.510161 kJ/mol
# GULP energy per Si atom -12390.837754 kJ/mol
# Density = 1.637192 g / cm^3
# Si number density = 16.409264 Si / 1000 Ang^3
#
#
#
# Elastic Constant Matrix: (Units=GPa)
#
#
# Indices 1 2 3 4 5 6 
#
# 1 29.8749 29.5232 12.5055 0.0000 0.0000 0.0000
# 2 29.5232 95.9936 15.5260 0.0000 0.0000 0.0000
# 3 12.5055 15.5260 100.4206 0.0000 0.0000 0.0000
# 4 0.0000 0.0000 0.0000 27.3874 0.0000 0.0000
# 5 0.0000 0.0000 0.0000 0.0000 13.2708 0.0000
# 6 0.0000 0.0000 0.0000 0.0000 0.0000 16.2586
#
#
#
# Elastic Compliance Matrix: (Units=1/GPa)
#
#
# Indices 1 2 3 4 5 6 
#
# 1 0.049543 -0.014604 -0.003912 0.000000 0.000000 0.000000
# 2 -0.014604 0.014990 -0.000499 0.000000 0.000000 0.000000
# 3 -0.003912 -0.000499 0.010522 0.000000 0.000000 0.000000
# 4 0.000000 0.000000 0.000000 0.036513 0.000000 0.000000
# 5 0.000000 0.000000 0.000000 0.000000 0.075354 0.000000
# 6 0.000000 0.000000 0.000000 0.000000 0.000000 0.061506
#
#
# Mechanical properties :
#
#
# Convention : Reuss Voigt Hill
#
# Bulk Modulus (GPa) = 27.00874 37.93317 32.47095
# Shear Modulus (GPa) = 16.73364 22.63230 19.68297
#
# Velocity S-wave (km/s) = 3.19684 3.71784 3.46714
# Velocity P-wave (km/s) = 5.48831 6.44956 5.98826
#
# Compressibility (1/GPa) = 0.03702505
#
# Stress axis : x y z
#
# Youngs Moduli (GPa) = 20.18455 66.71254 95.03564
#
# Poissons Ratio (x) = 0.97430 0.37175
# Poissons Ratio (y) = 0.29478 0.04741
# Poissons Ratio (z) = 0.07896 0.03328
#
# Static dielectric constant tensor:
#      x y z
#    x 2.849160 0.000000 0.000000 
#    y 0.000000 3.875560 0.000000 
#    z 0.000000 0.000000 3.318110 
# 
# 
# High freq. dielectric constant tensor:
#      x y z
#    x 1.570970 0.000000 0.000000 
#    y 0.000000 1.635800 0.000000 
#    z 0.000000 0.000000 1.658130 
# 
# From -- ./inp_files/5731.got.cif
#   From: 2010.03.12/outbox.cif.g09.slc.cpg/sg72_3_cif.got.tgz:5731.got - 2010.04.16 14:54:00.
