data_PCOD8294725
_publ_section_title
;
Structure prediction by ZEFSAII (Michael W. Deem and Ramdas Pophale) SiO2 
 PCOD8294725
Probable space group: I B A M
;
_chemical_formula_sum "Si O2"
_cell_formula_units_Z 68
_cell_length_a 5.347488
_cell_length_b 25.895993
_cell_length_c 27.195739
_cell_angle_alpha 90.000000
_cell_angle_beta 90.000000
_cell_angle_gamma 90.000000
_cell_volume 3766.025464
_symmetry_space_group_name_H-M "I B A M"
_symmetry_group_IT_number 72
_symmetry_cell_setting 'orthorhombic'
loop_
_space_group_symop_operation_xyz
x,y,z
-x,-y,z
x,-y,1/2-z
-x,y,1/2-z
-x,-y,-z
x,y,-z
-x,y,1/2+z
x,-y,1/2+z
1/2+x,1/2+y,1/2+z
1/2-x,1/2-y,1/2+z
1/2+x,1/2-y,-z
1/2-x,1/2+y,-z
1/2-x,1/2-y,1/2-z
1/2+x,1/2+y,1/2-z
1/2-x,1/2+y,z
1/2+x,1/2-y,z
loop_
_atom_site_type_symbol
_atom_site_label
_atom_site_fract_x
_atom_site_fract_y
_atom_site_fract_z
Si Si1 0.534325 0.558663 0.057454
Si Si2 0.607587 0.055284 0.301529
Si Si3 0.000000 0.000000 0.750000
Si Si4 0.024626 0.281745 0.556835
Si Si5 0.537097 0.892144 0.098987
O O1 0.500000 0.500000 0.074878
O O2 0.278106 0.588536 0.068960
O O3 0.778550 0.580935 0.083884
O O4 0.587827 0.562852 0.000000
O O5 0.500000 0.076436 0.250000
O O6 0.583109 0.098147 0.343325
O O7 0.886960 0.040601 0.288343
O O8 0.500000 0.000000 0.318522
O O9 0.019006 0.299242 0.500000
O O10 0.781849 0.247550 0.568992
O O11 0.009757 0.331384 0.591358
#
# Coordination Sequence:
#
# PCOD8294725 Si02
#       5
#    16  16   4  16  16
#     4  11  23  36  52  84 124 154 185 226 281 357
#     4   9  20  35  56  85 116 151 191 236 281 342
#     4   8  18  36  56  78 118 148 190 236 278 332
#     4  10  21  39  59  81 110 146 196 251 291 335
#     4  12  23  36  62  84 112 158 197 235 291 345
#
# _framework density 18.056170999999999
#
# number of rings (size 3 to 8) (size 9 to 14) (size 15 to 20)
#    0.000    1.882    0.000    5.647    8.235    3.765 
#    0.000    0.000    0.000    1.412    0.000    0.000 
#    0.000    0.000    0.000    0.000    0.000    0.000 
#
# Total GULP energy -421210.823774 kJ/mol
# GULP energy per Si atom -12388.553640 kJ/mol
# Density = 1.801507 g / cm^3
# Si number density = 18.056171 Si / 1000 Ang^3
#
#
#
# Elastic Constant Matrix: (Units=GPa)
#
#
# Indices 1 2 3 4 5 6 
#
# 1 141.0741 52.7189 34.4872 0.0000 0.0000 0.0000
# 2 52.7189 122.8119 73.2530 0.0000 0.0000 0.0000
# 3 34.4872 73.2530 104.9517 0.0000 0.0000 0.0000
# 4 0.0000 0.0000 0.0000 34.2955 0.0000 0.0000
# 5 0.0000 0.0000 0.0000 0.0000 -116.6855 0.0000
# 6 0.0000 0.0000 0.0000 0.0000 0.0000 29.0250
#
#
#
# Elastic Compliance Matrix: (Units=1/GPa)
#
#
# Indices 1 2 3 4 5 6 
#
# 1 0.008454 -0.003378 -0.000420 0.000000 0.000000 0.000000
# 2 -0.003378 0.015300 -0.009569 0.000000 0.000000 0.000000
# 3 -0.000420 -0.009569 0.016345 0.000000 0.000000 0.000000
# 4 0.000000 0.000000 0.000000 0.029158 0.000000 0.000000
# 5 0.000000 0.000000 0.000000 0.000000 -0.008570 0.000000
# 6 0.000000 0.000000 0.000000 0.000000 0.000000 0.034453
#
#
# Mechanical properties :
#
#
# Convention : Reuss Voigt Hill
#
# Bulk Modulus (GPa) = 74.82537 76.63954 75.73245
# Shear Modulus (GPa) = 39.57896 3.21891 21.39894
#
# Velocity S-wave (km/s) = 4.68695 1.33663 3.44631
# Velocity P-wave (km/s) = 8.41548 6.70219 7.60722
#
# Compressibility (1/GPa) = 0.01336445
#
# Stress axis : x y z
#
# Youngs Moduli (GPa) = 118.29262 65.35793 61.18068
#
# Poissons Ratio (x) = 0.22081 0.02568
# Poissons Ratio (y) = 0.39964 0.58544
# Poissons Ratio (z) = 0.04966 0.62541
#
# Static dielectric constant tensor:
#      x y z
#    x 3.649400 0.000000 0.000000 
#    y 0.000000 3.107640 0.000000 
#    z 0.000000 0.000000 1.632530 
# 
# 
# High freq. dielectric constant tensor:
#      x y z
#    x 1.726980 0.000000 0.000000 
#    y 0.000000 1.677540 0.000000 
#    z 0.000000 0.000000 1.691320 
# 
# From -- ./inp_files/46564.got.cif
#   From: 2010.03.12/outbox.cif.g09.slc.cpg/sg72_24_cif.got.tgz:46564.got - 2010.04.16 14:54:00.
