data_PCOD8294411
_publ_section_title
;
Structure prediction by ZEFSAII (Michael W. Deem and Ramdas Pophale) SiO2 
 PCOD8294411
Probable space group: I B A M
;
_chemical_formula_sum "Si O2"
_cell_formula_units_Z 112
_cell_length_a 13.258291
_cell_length_b 27.920838
_cell_length_c 14.175928
_cell_angle_alpha 90.000000
_cell_angle_beta 90.000000
_cell_angle_gamma 90.000000
_cell_volume 5247.681816
_symmetry_space_group_name_H-M "I B A M"
_symmetry_group_IT_number 72
_symmetry_cell_setting 'orthorhombic'
loop_
_space_group_symop_operation_xyz
x,y,z
-x,-y,z
x,-y,1/2-z
-x,y,1/2-z
-x,-y,-z
x,y,-z
-x,y,1/2+z
x,-y,1/2+z
1/2+x,1/2+y,1/2+z
1/2-x,1/2-y,1/2+z
1/2+x,1/2-y,-z
1/2-x,1/2+y,-z
1/2-x,1/2-y,1/2-z
1/2+x,1/2+y,1/2-z
1/2-x,1/2+y,z
1/2+x,1/2-y,z
loop_
_atom_site_type_symbol
_atom_site_label
_atom_site_fract_x
_atom_site_fract_y
_atom_site_fract_z
Si Si1 0.368247 0.163605 0.892252
Si Si2 0.110319 0.513334 0.641878
Si Si3 0.780670 0.387651 0.389954
Si Si4 0.739723 0.928534 0.896800
Si Si5 0.578482 0.197735 0.112437
Si Si6 0.344650 0.700263 0.109406
Si Si7 0.886191 0.890246 0.765044
O O1 0.334926 0.111662 0.849700
O O2 0.468372 0.184965 0.842946
O O3 0.277049 0.201401 0.882287
O O4 0.397850 0.154150 0.000000
O O5 0.114095 0.500000 0.750000
O O6 0.143397 0.567650 0.624711
O O7 0.190140 0.479885 0.589293
O O8 0.000000 0.500000 0.600595
O O9 0.752498 0.383337 0.500000
O O10 0.841060 0.341366 0.352052
O O11 0.675670 0.389147 0.333156
O O12 0.836794 0.931725 0.829812
O O13 0.773426 0.909434 0.000000
O O14 0.612506 0.249734 0.148456
O O15 0.575245 0.197799 0.000000
O O16 0.388262 0.659539 0.177672
O O17 0.376644 0.691296 0.000000
O O18 0.000000 0.906728 0.750000
#
# Coordination Sequence:
#
# PCOD8294411 Si02
#       7
#    16  16  16  16  16  16  16
#     4   8  15  30  55  86 118 155 198 241 291 352
#     4  11  22  39  67  98 132 164 196 243 303 369
#     4  11  24  41  61  92 128 162 203 251 308 368
#     4  10  20  39  65  91 121 162 206 250 305 371
#     4   9  18  34  58  89 127 163 198 248 304 363
#     4   9  19  37  61  88 119 161 209 251 302 368
#     4  11  24  42  62  86 121 157 210 266 310 357
#
# _framework density 21.342756999999999
#
# number of rings (size 3 to 8) (size 9 to 14) (size 15 to 20)
#    0.000    2.143    1.429    2.571    0.000    5.143 
#    0.000    5.714    0.000    1.714    0.000    0.000 
#    0.000    0.000    0.000    0.000    0.000    0.000 
#
# Total GULP energy -694179.841229 kJ/mol
# GULP energy per Si atom -12396.068593 kJ/mol
# Density = 2.129418 g / cm^3
# Si number density = 21.342757 Si / 1000 Ang^3
#
#
#
# Elastic Constant Matrix: (Units=GPa)
#
#
# Indices 1 2 3 4 5 6 
#
# 1 149.3560 40.8384 39.1853 0.0001 -0.0002 0.0000
# 2 40.8384 110.3771 14.8178 0.0007 -0.0003 -0.0001
# 3 39.1853 14.8178 71.8315 0.0021 -0.0018 -0.0004
# 4 0.0001 0.0007 0.0021 25.7652 -0.0006 -0.0001
# 5 -0.0002 -0.0003 -0.0018 -0.0006 15.6185 0.0001
# 6 0.0000 -0.0001 -0.0004 -0.0001 0.0001 27.7465
#
#
#
# Elastic Compliance Matrix: (Units=1/GPa)
#
#
# Indices 1 2 3 4 5 6 
#
# 1 0.008476 -0.002587 -0.004090 0.000000 0.000000 0.000000
# 2 -0.002587 0.010107 -0.000674 0.000000 0.000000 0.000000
# 3 -0.004090 -0.000674 0.016292 -0.000001 0.000002 0.000000
# 4 0.000000 0.000000 -0.000001 0.038812 0.000001 0.000000
# 5 0.000000 0.000000 0.000002 0.000001 0.064027 0.000000
# 6 0.000000 0.000000 0.000000 0.000000 0.000000 0.036041
#
#
# Mechanical properties :
#
#
# Convention : Reuss Voigt Hill
#
# Bulk Modulus (GPa) = 49.57033 57.91640 53.74336
# Shear Modulus (GPa) = 25.61735 29.60759 27.61247
#
# Velocity S-wave (km/s) = 3.46827 3.72861 3.60079
# Velocity P-wave (km/s) = 6.27015 6.76254 6.52099
#
# Compressibility (1/GPa) = 0.02017336
#
# Stress axis : x y z
#
# Youngs Moduli (GPa) = 117.98270 98.93709 61.38105
#
# Poissons Ratio (x) = 0.25594 0.25105
# Poissons Ratio (y) = 0.30521 0.04136
# Poissons Ratio (z) = 0.48256 0.06667
#
# Static dielectric constant tensor:
#      x y z
#    x 3.884790 0.000000 0.000000 
#    y 0.000000 3.870850 0.000000 
#    z 0.000000 0.000000 3.826910 
# 
# 
# High freq. dielectric constant tensor:
#      x y z
#    x 1.822560 0.000000 0.000000 
#    y 0.000000 1.829200 0.000000 
#    z 0.000000 0.000000 1.844830 
# 
# From -- ./inp_files/20727.got.cif
#   From: 2010.03.12/outbox.cif.g09.slc.cpg/sg72_11_cif.got.tgz:20727.got - 2010.04.16 14:54:00.
