data_PCOD8294563
_publ_section_title
;
Structure prediction by ZEFSAII (Michael W. Deem and Ramdas Pophale) SiO2 
 PCOD8294563
Probable space group: I B A M
;
_chemical_formula_sum "Si O2"
_cell_formula_units_Z 116
_cell_length_a 28.131034
_cell_length_b 22.299837
_cell_length_c 9.069651
_cell_angle_alpha 90.000000
_cell_angle_beta 90.000000
_cell_angle_gamma 90.000000
_cell_volume 5689.550545
_symmetry_space_group_name_H-M "I B A M"
_symmetry_group_IT_number 72
_symmetry_cell_setting 'orthorhombic'
loop_
_space_group_symop_operation_xyz
x,y,z
-x,-y,z
x,-y,1/2-z
-x,y,1/2-z
-x,-y,-z
x,y,-z
-x,y,1/2+z
x,-y,1/2+z
1/2+x,1/2+y,1/2+z
1/2-x,1/2-y,1/2+z
1/2+x,1/2-y,-z
1/2-x,1/2+y,-z
1/2-x,1/2-y,1/2-z
1/2+x,1/2+y,1/2-z
1/2-x,1/2+y,z
1/2+x,1/2-y,z
loop_
_atom_site_type_symbol
_atom_site_label
_atom_site_fract_x
_atom_site_fract_y
_atom_site_fract_z
Si Si1 0.353122 0.561299 0.824450
Si Si2 0.299084 0.241270 0.166959
Si Si3 0.254840 0.442327 0.830374
Si Si4 0.619908 0.327553 0.334045
Si Si5 0.337972 0.867512 0.168090
Si Si6 0.000000 0.500000 0.750000
Si Si7 0.453470 0.227708 0.173003
Si Si8 0.424365 0.096944 0.834091
O O1 0.371838 0.500000 0.750000
O O2 0.301034 0.576916 0.761660
O O3 0.387098 0.615902 0.774494
O O4 0.352763 0.555256 0.000000
O O5 0.250000 0.250000 0.250000
O O6 0.325504 0.305199 0.168074
O O7 0.335477 0.194026 0.240915
O O8 0.288627 0.220300 0.000000
O O9 0.232516 0.500000 0.750000
O O10 0.215268 0.391920 0.823247
O O11 0.269285 0.456452 0.000000
O O12 0.605799 0.347066 0.500000
O O13 0.587969 0.272547 0.278126
O O14 0.377027 0.914321 0.235362
O O15 0.352613 0.854720 0.000000
O O16 0.035982 0.455947 0.663212
O O17 0.500000 0.253220 0.250000
O O18 0.444651 0.159654 0.228920
O O19 0.461094 0.227195 0.000000
O O20 0.406360 0.105072 0.000000
#
# Coordination Sequence:
#
# PCOD8294563 Si02
#       8
#    16  16  16  16  16   4  16  16
#     4  11  22  37  61  91 122 159 200 244 293 354
#     4  11  22  37  58  87 124 165 206 253 311 374
#     4  10  21  37  55  80 115 159 205 250 300 358
#     4  10  21  39  60  85 120 160 200 246 305 367
#     4  11  24  39  57  84 118 159 207 261 315 372
#     4  12  26  44  68  98 122 160 218 282 330 396
#     4  10  21  41  65  90 120 158 200 252 312 371
#     4  11  24  43  64  88 119 160 207 261 326 382
#
# _framework density 20.388254
#
# number of rings (size 3 to 8) (size 9 to 14) (size 15 to 20)
#    0.000    1.379    2.069    4.345    0.966    8.828 
#    0.000    0.000    0.000    0.414    0.000    2.897 
#    0.000    0.000    0.000    0.000    0.000    0.000 
#
# Total GULP energy -718965.494752 kJ/mol
# GULP energy per Si atom -12395.956806 kJ/mol
# Density = 2.034185 g / cm^3
# Si number density = 20.388254 Si / 1000 Ang^3
#
#
#
# Elastic Constant Matrix: (Units=GPa)
#
#
# Indices 1 2 3 4 5 6 
#
# 1 79.4512 40.9407 37.3280 0.0000 0.0000 0.0000
# 2 40.9407 123.7564 54.7824 0.0000 0.0000 0.0000
# 3 37.3280 54.7824 135.8848 0.0000 0.0000 0.0000
# 4 0.0000 0.0000 0.0000 30.8065 0.0000 0.0000
# 5 0.0000 0.0000 0.0000 0.0000 29.9700 0.0000
# 6 0.0000 0.0000 0.0000 0.0000 0.0000 32.7770
#
#
#
# Elastic Compliance Matrix: (Units=1/GPa)
#
#
# Indices 1 2 3 4 5 6 
#
# 1 0.015974 -0.004068 -0.002748 0.000000 0.000000 0.000000
# 2 -0.004068 0.010872 -0.003265 0.000000 0.000000 0.000000
# 3 -0.002748 -0.003265 0.009431 0.000000 0.000000 0.000000
# 4 0.000000 0.000000 0.000000 0.032461 0.000000 0.000000
# 5 0.000000 0.000000 0.000000 0.000000 0.033367 0.000000
# 6 0.000000 0.000000 0.000000 0.000000 0.000000 0.030509
#
#
# Mechanical properties :
#
#
# Convention : Reuss Voigt Hill
#
# Bulk Modulus (GPa) = 62.06162 67.24383 64.65273
# Shear Modulus (GPa) = 31.61634 32.44678 32.03156
#
# Velocity S-wave (km/s) = 3.94218 3.99362 3.96798
# Velocity P-wave (km/s) = 7.15731 7.37011 7.26449
#
# Compressibility (1/GPa) = 0.01611302
#
# Stress axis : x y z
#
# Youngs Moduli (GPa) = 62.60338 91.98260 106.03834
#
# Poissons Ratio (x) = 0.37417 0.29139
# Poissons Ratio (y) = 0.25466 0.34627
# Poissons Ratio (z) = 0.17204 0.30037
#
# Static dielectric constant tensor:
#      x y z
#    x 3.528290 0.000000 0.000000 
#    y 0.000000 3.794000 0.000000 
#    z 0.000000 0.000000 3.710300 
# 
# 
# High freq. dielectric constant tensor:
#      x y z
#    x 1.780150 0.000000 0.000000 
#    y 0.000000 1.796890 0.000000 
#    z 0.000000 0.000000 1.799910 
# 
# From -- ./inp_files/8399.got.cif
#   From: 2010.03.12/outbox.cif.g09.slc.cpg/sg72_5_cif.got.tgz:8399.got - 2010.04.16 14:54:00.
