data_PCOD8294822
_publ_section_title
;
Structure prediction by ZEFSAII (Michael W. Deem and Ramdas Pophale) SiO2 
 PCOD8294822
Probable space group: I B A M
;
_chemical_formula_sum "Si O2"
_cell_formula_units_Z 80
_cell_length_a 15.285384
_cell_length_b 10.475790
_cell_length_c 24.466842
_cell_angle_alpha 90.000000
_cell_angle_beta 90.000000
_cell_angle_gamma 90.000000
_cell_volume 3917.789111
_symmetry_space_group_name_H-M "I B A M"
_symmetry_group_IT_number 72
_symmetry_cell_setting 'orthorhombic'
loop_
_space_group_symop_operation_xyz
x,y,z
-x,-y,z
x,-y,1/2-z
-x,y,1/2-z
-x,-y,-z
x,y,-z
-x,y,1/2+z
x,-y,1/2+z
1/2+x,1/2+y,1/2+z
1/2-x,1/2-y,1/2+z
1/2+x,1/2-y,-z
1/2-x,1/2+y,-z
1/2-x,1/2-y,1/2-z
1/2+x,1/2+y,1/2-z
1/2-x,1/2+y,z
1/2+x,1/2-y,z
loop_
_atom_site_type_symbol
_atom_site_label
_atom_site_fract_x
_atom_site_fract_y
_atom_site_fract_z
Si Si1 0.249639 0.116719 0.282531
Si Si2 0.866461 0.912852 0.386591
Si Si3 0.555952 0.113698 0.196929
Si Si4 0.552299 0.319531 0.109520
Si Si5 0.151636 0.763477 0.500000
Si Si6 0.222987 0.036959 0.500000
O O1 0.250000 0.250000 0.250000
O O2 0.201191 0.136441 0.340781
O O3 0.347915 0.064187 0.288774
O O4 0.201573 0.000000 0.250000
O O5 0.947404 0.816787 0.392252
O O6 0.905110 0.049359 0.370767
O O7 0.824193 0.914868 0.445933
O O8 0.500000 0.159483 0.250000
O O9 0.579468 0.224721 0.156312
O O10 0.500000 0.000000 0.168848
O O11 0.589207 0.277583 0.051570
O O12 0.225302 0.879805 0.500000
O O13 0.186966 0.617714 0.500000
#
# Coordination Sequence:
#
# PCOD8294822 Si02
#       6
#    16  16  16  16   8   8
#     4  12  24  40  63  95 128 170 219 268 326 391
#     4  10  22  39  67  92 124 171 219 265 319 386
#     4  11  22  41  60  89 131 169 208 264 334 383
#     4  10  21  41  63  92 126 170 214 266 322 387
#     4  10  21  41  66  95 132 165 214 267 331 383
#     4  10  21  41  63  96 125 164 211 265 314 388
#
# _framework density 20.41968
#
# number of rings (size 3 to 8) (size 9 to 14) (size 15 to 20)
#    0.000    1.400    2.000    4.200    0.000    4.000 
#    3.600    2.500    0.000    0.000    0.000    0.000 
#    0.000    0.000    0.000    0.000    0.000    0.000 
#
# Total GULP energy -495609.707330 kJ/mol
# GULP energy per Si atom -12390.242683 kJ/mol
# Density = 2.037320 g / cm^3
# Si number density = 20.419680 Si / 1000 Ang^3
#
#
#
# Elastic Constant Matrix: (Units=GPa)
#
#
# Indices 1 2 3 4 5 6 
#
# 1 122.8933 31.5493 47.3240 0.0000 0.0000 0.0000
# 2 31.5493 91.2724 45.9347 0.0000 0.0000 0.0000
# 3 47.3240 45.9347 137.8248 0.0000 0.0000 0.0000
# 4 0.0000 0.0000 0.0000 40.9966 0.0000 0.0000
# 5 0.0000 0.0000 0.0000 0.0000 614.2064 0.0000
# 6 0.0000 0.0000 0.0000 0.0000 0.0000 29.5520
#
#
#
# Elastic Compliance Matrix: (Units=1/GPa)
#
#
# Indices 1 2 3 4 5 6 
#
# 1 0.009674 -0.002009 -0.002652 0.000000 0.000000 0.000000
# 2 -0.002009 0.013582 -0.003837 0.000000 0.000000 0.000000
# 3 -0.002652 -0.003837 0.009445 0.000000 0.000000 0.000000
# 4 0.000000 0.000000 0.000000 0.024392 0.000000 0.000000
# 5 0.000000 0.000000 0.000000 0.000000 0.001628 0.000000
# 6 0.000000 0.000000 0.000000 0.000000 0.000000 0.033839
#
#
# Mechanical properties :
#
#
# Convention : Reuss Voigt Hill
#
# Bulk Modulus (GPa) = 63.67505 66.84516 65.26010
# Shear Modulus (GPa) = 43.55753 152.09650 97.82701
#
# Velocity S-wave (km/s) = 4.62358 8.63985 6.92908
# Velocity P-wave (km/s) = 7.73008 11.50374 9.80026
#
# Compressibility (1/GPa) = 0.01570474
#
# Stress axis : x y z
#
# Youngs Moduli (GPa) = 103.36719 73.62910 105.87721
#
# Poissons Ratio (x) = 0.14794 0.28080
# Poissons Ratio (y) = 0.20769 0.40621
# Poissons Ratio (z) = 0.27414 0.28249
#
# Static dielectric constant tensor:
#      x y z
#    x 3.810440 0.000000 0.000000 
#    y 0.000000 3.731300 0.000000 
#    z 0.000000 0.000000 3.752930 
# 
# 
# High freq. dielectric constant tensor:
#      x y z
#    x 1.799610 0.000000 0.000000 
#    y 0.000000 1.797320 0.000000 
#    z 0.000000 0.000000 1.809500 
# 
# From -- ./inp_files/44101.got.cif
#   From: 2010.03.12/outbox.cif.g09.slc.cpg/sg72_23_cif.got.tgz:44101.got - 2010.04.16 14:54:00.
