data_PCOD8294858
_publ_section_title
;
Structure prediction by ZEFSAII (Michael W. Deem and Ramdas Pophale) SiO2 
 PCOD8294858
Probable space group: I B A M
;
_chemical_formula_sum "Si O2"
_cell_formula_units_Z 64
_cell_length_a 9.503112
_cell_length_b 18.057273
_cell_length_c 18.125313
_cell_angle_alpha 90.000000
_cell_angle_beta 90.000000
_cell_angle_gamma 90.000000
_cell_volume 3110.308926
_symmetry_space_group_name_H-M "I B A M"
_symmetry_group_IT_number 72
_symmetry_cell_setting 'orthorhombic'
loop_
_space_group_symop_operation_xyz
x,y,z
-x,-y,z
x,-y,1/2-z
-x,y,1/2-z
-x,-y,-z
x,y,-z
-x,y,1/2+z
x,-y,1/2+z
1/2+x,1/2+y,1/2+z
1/2-x,1/2-y,1/2+z
1/2+x,1/2-y,-z
1/2-x,1/2+y,-z
1/2-x,1/2-y,1/2-z
1/2+x,1/2+y,1/2-z
1/2-x,1/2+y,z
1/2+x,1/2-y,z
loop_
_atom_site_type_symbol
_atom_site_label
_atom_site_fract_x
_atom_site_fract_y
_atom_site_fract_z
Si Si1 0.845768 0.464576 0.179371
Si Si2 0.521195 0.695976 0.910665
Si Si3 0.227421 0.703555 0.174151
Si Si4 0.359606 0.454294 0.919855
O O1 0.768764 0.500000 0.250000
O O2 0.839913 0.376589 0.190549
O O3 0.760196 0.492877 0.110270
O O4 0.000000 0.500000 0.172969
O O5 0.371251 0.697522 0.870867
O O6 0.613021 0.763392 0.881606
O O7 0.605022 0.623485 0.880509
O O8 0.502171 0.697817 0.000000
O O9 0.250000 0.750000 0.250000
O O10 0.500000 0.500000 0.923668
O O11 0.303654 0.432467 0.000000
#
# Coordination Sequence:
#
# PCOD8294858 Si02
#       4
#    16  16  16  16
#     4  11  26  43  66  97 135 172 223 276 336 400
#     4  11  25  44  69  99 135 174 224 279 337 403
#     4  12  26  44  69  99 136 180 225 277 338 403
#     4  10  21  43  68  94 126 169 218 271 330 399
#
# _framework density 20.576734999999999
#
# number of rings (size 3 to 8) (size 9 to 14) (size 15 to 20)
#    0.000    1.000    2.500    3.000   10.500    2.000 
#    0.000    0.000    0.000    0.000    0.000    0.000 
#    0.000    0.000    0.000    0.000    0.000    0.000 
#
# Total GULP energy -396505.088313 kJ/mol
# GULP energy per Si atom -12390.784010 kJ/mol
# Density = 2.052990 g / cm^3
# Si number density = 20.576735 Si / 1000 Ang^3
#
#
#
# Elastic Constant Matrix: (Units=GPa)
#
#
# Indices 1 2 3 4 5 6 
#
# 1 95.4032 54.1003 47.3868 0.0000 0.0000 0.0000
# 2 54.1003 183.2869 57.4838 0.0000 0.0000 0.0000
# 3 47.3868 57.4838 102.9086 0.0000 0.0000 0.0000
# 4 0.0000 0.0000 0.0000 36.1539 0.0000 0.0000
# 5 0.0000 0.0000 0.0000 0.0000 38.8779 0.0000
# 6 0.0000 0.0000 0.0000 0.0000 0.0000 37.1919
#
#
#
# Elastic Compliance Matrix: (Units=1/GPa)
#
#
# Indices 1 2 3 4 5 6 
#
# 1 0.014592 -0.002667 -0.005229 0.000000 0.000000 0.000000
# 2 -0.002667 0.007102 -0.002739 0.000000 0.000000 0.000000
# 3 -0.005229 -0.002739 0.013655 0.000000 0.000000 0.000000
# 4 0.000000 0.000000 0.000000 0.027660 0.000000 0.000000
# 5 0.000000 0.000000 0.000000 0.000000 0.025722 0.000000
# 6 0.000000 0.000000 0.000000 0.000000 0.000000 0.026888
#
#
# Mechanical properties :
#
#
# Convention : Reuss Voigt Hill
#
# Bulk Modulus (GPa) = 71.03112 77.72674 74.37893
# Shear Modulus (GPa) = 35.31537 37.28660 36.30099
#
# Velocity S-wave (km/s) = 4.14729 4.26147 4.20477
# Velocity P-wave (km/s) = 7.58475 7.87842 7.73298
#
# Compressibility (1/GPa) = 0.01407834
#
# Stress axis : x y z
#
# Youngs Moduli (GPa) = 68.53281 140.80172 73.23094
#
# Poissons Ratio (x) = 0.37550 0.38295
# Poissons Ratio (y) = 0.18277 0.20059
# Poissons Ratio (z) = 0.35838 0.38568
#
# Static dielectric constant tensor:
#      x y z
#    x 3.589690 0.000000 0.000000 
#    y 0.000000 4.053830 0.000000 
#    z 0.000000 0.000000 4.647580 
# 
# 
# High freq. dielectric constant tensor:
#      x y z
#    x 1.808930 0.000000 0.000000 
#    y 0.000000 1.827570 0.000000 
#    z 0.000000 0.000000 1.812990 
# 
# From -- ./inp_files/22794.got.cif
#   From: 2010.03.12/outbox.cif.g09.slc.cpg/sg72_12_cif.got.tgz:22794.got - 2010.04.16 14:54:00.
