data_PCOD8294827
_publ_section_title
;
Structure prediction by ZEFSAII (Michael W. Deem and Ramdas Pophale) SiO2 
 PCOD8294827
Probable space group: I B A M
;
_chemical_formula_sum "Si O2"
_cell_formula_units_Z 104
_cell_length_a 22.674196
_cell_length_b 23.816590
_cell_length_c 9.736068
_cell_angle_alpha 90.000000
_cell_angle_beta 90.000000
_cell_angle_gamma 90.000000
_cell_volume 5257.691203
_symmetry_space_group_name_H-M "I B A M"
_symmetry_group_IT_number 72
_symmetry_cell_setting 'orthorhombic'
loop_
_space_group_symop_operation_xyz
x,y,z
-x,-y,z
x,-y,1/2-z
-x,y,1/2-z
-x,-y,-z
x,y,-z
-x,y,1/2+z
x,-y,1/2+z
1/2+x,1/2+y,1/2+z
1/2-x,1/2-y,1/2+z
1/2+x,1/2-y,-z
1/2-x,1/2+y,-z
1/2-x,1/2-y,1/2-z
1/2+x,1/2+y,1/2-z
1/2-x,1/2+y,z
1/2+x,1/2-y,z
loop_
_atom_site_type_symbol
_atom_site_label
_atom_site_fract_x
_atom_site_fract_y
_atom_site_fract_z
Si Si1 0.304978 0.234652 0.158538
Si Si2 0.722719 0.422964 0.347703
Si Si3 0.916031 0.115183 0.500000
Si Si4 0.376233 0.661770 0.274328
Si Si5 0.448468 0.056901 0.836468
Si Si6 0.177927 0.606197 0.844273
Si Si7 0.052512 0.101836 0.500000
Si Si8 0.642220 0.503946 0.000000
O O1 0.250000 0.250000 0.250000
O O2 0.361645 0.273443 0.193239
O O3 0.320454 0.171107 0.194572
O O4 0.287562 0.241967 0.000000
O O5 0.744620 0.404530 0.500000
O O6 0.684355 0.372493 0.286537
O O7 0.779146 0.431877 0.250376
O O8 0.681636 0.479165 0.365187
O O9 0.902607 0.156215 0.624189
O O10 0.982678 0.092774 0.500000
O O11 0.872363 0.061474 0.500000
O O12 0.427319 0.637605 0.370078
O O13 0.500000 0.089584 0.750000
O O14 0.389065 0.090723 0.819917
O O15 0.440465 0.000000 0.750000
O O16 0.463385 0.047889 0.000000
O O17 0.198137 0.594352 0.000000
O O18 0.082085 0.040284 0.500000
#
# Coordination Sequence:
#
# PCOD8294827 Si02
#       8
#    16  16   8  16  16  16   8   8
#     4  11  22  38  66  90 125 161 202 259 317 382
#     4   9  19  38  58  86 126 161 195 257 328 359
#     4  12  25  38  64  90 120 175 225 258 318 386
#     4  11  22  40  61  91 123 158 213 275 320 368
#     4  10  21  41  65  92 125 162 203 247 301 368
#     4  10  22  38  64  98 122 160 211 251 313 392
#     4  10  21  44  65  82 121 173 220 273 315 370
#     4   8  21  42  61  86 127 165 218 270 314 365
#
# _framework density 19.780545
#
# number of rings (size 3 to 8) (size 9 to 14) (size 15 to 20)
#    0.462    1.385    3.077    1.615    2.154    3.692 
#    2.769    4.615    1.692    0.000    0.000    0.000 
#    0.000    0.000    0.000    0.000    0.000    0.000 
#
# Total GULP energy -644437.473807 kJ/mol
# GULP energy per Si atom -12393.028342 kJ/mol
# Density = 1.973552 g / cm^3
# Si number density = 19.780545 Si / 1000 Ang^3
#
#
#
# Elastic Constant Matrix: (Units=GPa)
#
#
# Indices 1 2 3 4 5 6 
#
# 1 122.2670 39.9860 61.3959 0.0000 0.0000 0.0000
# 2 39.9860 60.6558 32.7924 0.0000 0.0000 0.0000
# 3 61.3959 32.7924 147.4838 0.0000 0.0000 0.0000
# 4 0.0000 0.0000 0.0000 29.1902 0.0000 0.0000
# 5 0.0000 0.0000 0.0000 0.0000 40.4993 0.0000
# 6 0.0000 0.0000 0.0000 0.0000 0.0000 26.2320
#
#
#
# Elastic Compliance Matrix: (Units=1/GPa)
#
#
# Indices 1 2 3 4 5 6 
#
# 1 0.011946 -0.005895 -0.003662 0.000000 0.000000 0.000000
# 2 -0.005895 0.021648 -0.002359 0.000000 0.000000 0.000000
# 3 -0.003662 -0.002359 0.008829 0.000000 0.000000 0.000000
# 4 0.000000 0.000000 0.000000 0.034258 0.000000 0.000000
# 5 0.000000 0.000000 0.000000 0.000000 0.024692 0.000000
# 6 0.000000 0.000000 0.000000 0.000000 0.000000 0.038121
#
#
# Mechanical properties :
#
#
# Convention : Reuss Voigt Hill
#
# Bulk Modulus (GPa) = 53.79139 66.52837 60.15988
# Shear Modulus (GPa) = 29.49430 32.26646 30.88038
#
# Velocity S-wave (km/s) = 3.86563 4.04322 3.95542
# Velocity P-wave (km/s) = 6.86857 7.45004 7.16521
#
# Compressibility (1/GPa) = 0.01859033
#
# Stress axis : x y z
#
# Youngs Moduli (GPa) = 83.71255 46.19322 113.25688
#
# Poissons Ratio (x) = 0.27231 0.41476
# Poissons Ratio (y) = 0.49349 0.26721
# Poissons Ratio (z) = 0.30656 0.10899
#
# Static dielectric constant tensor:
#      x y z
#    x 4.536920 0.000000 0.000000 
#    y 0.000000 4.634320 0.000000 
#    z 0.000000 0.000000 3.806580 
# 
# 
# High freq. dielectric constant tensor:
#      x y z
#    x 1.767390 0.000000 0.000000 
#    y 0.000000 1.754780 0.000000 
#    z 0.000000 0.000000 1.787650 
# 
# From -- ./inp_files/7233.got.cif
#   From: 2010.03.12/outbox.cif.g09.slc.cpg/sg72_4_cif.got.tgz:7233.got - 2010.04.16 14:54:00.
