data_PCOD8294584
_publ_section_title
;
Structure prediction by ZEFSAII (Michael W. Deem and Ramdas Pophale) SiO2 
 PCOD8294584
Probable space group: I B A M
;
_chemical_formula_sum "Si O2"
_cell_formula_units_Z 56
_cell_length_a 4.982471
_cell_length_b 17.563972
_cell_length_c 25.593755
_cell_angle_alpha 90.000000
_cell_angle_beta 90.000000
_cell_angle_gamma 90.000000
_cell_volume 2239.760205
_symmetry_space_group_name_H-M "I B A M"
_symmetry_group_IT_number 72
_symmetry_cell_setting 'orthorhombic'
loop_
_space_group_symop_operation_xyz
x,y,z
-x,-y,z
x,-y,1/2-z
-x,y,1/2-z
-x,-y,-z
x,y,-z
-x,y,1/2+z
x,-y,1/2+z
1/2+x,1/2+y,1/2+z
1/2-x,1/2-y,1/2+z
1/2+x,1/2-y,-z
1/2-x,1/2+y,-z
1/2-x,1/2-y,1/2-z
1/2+x,1/2+y,1/2-z
1/2-x,1/2+y,z
1/2+x,1/2-y,z
loop_
_atom_site_type_symbol
_atom_site_label
_atom_site_fract_x
_atom_site_fract_y
_atom_site_fract_z
Si Si1 0.506138 0.298814 0.809805
Si Si2 0.248821 0.554972 0.500000
Si Si3 0.492924 0.410922 0.898040
Si Si4 0.618819 0.799387 0.061755
O O1 0.500000 0.326292 0.750000
O O2 0.810581 0.272613 0.821473
O O3 0.407003 0.369643 0.844905
O O4 0.500000 0.500000 0.500000
O O5 0.279963 0.606595 0.553119
O O6 0.000000 0.500000 0.500000
O O7 0.500000 0.500000 0.886765
O O8 0.791061 0.380766 0.913991
O O9 0.345699 0.761167 0.081364
O O10 0.611002 0.813927 0.000000
#
# Coordination Sequence:
#
# PCOD8294584 Si02
#       4
#    16   8  16  16
#     4  10  23  45  70  95 127 169 222 284 344 400
#     4  10  24  40  56  90 138 178 209 258 329 396
#     4  11  23  41  64  95 133 174 217 271 331 405
#     4  10  21  37  57  83 117 163 215 259 305 375
#
# _framework density 25.002678
#
# number of rings (size 3 to 8) (size 9 to 14) (size 15 to 20)
#    0.000    1.714    1.429    1.714    0.000    9.714 
#    0.000    0.000    0.000    5.143    0.000    0.000 
#    0.000    0.000    0.000    0.000    0.000    0.000 
#
# Total GULP energy -347154.027047 kJ/mol
# GULP energy per Si atom -12398.358109 kJ/mol
# Density = 2.494577 g / cm^3
# Si number density = 25.002678 Si / 1000 Ang^3
#
#
#
# Elastic Constant Matrix: (Units=GPa)
#
#
# Indices 1 2 3 4 5 6 
#
# 1 52.2906 4.5514 49.5772 0.0000 0.0000 0.0000
# 2 4.5514 146.0348 84.1306 0.0000 0.0000 0.0000
# 3 49.5772 84.1306 172.2191 0.0000 0.0000 0.0000
# 4 0.0000 0.0000 0.0000 43.0090 0.0000 0.0000
# 5 0.0000 0.0000 0.0000 0.0000 31.7950 0.0000
# 6 0.0000 0.0000 0.0000 0.0000 0.0000 20.5785
#
#
#
# Elastic Compliance Matrix: (Units=1/GPa)
#
#
# Indices 1 2 3 4 5 6 
#
# 1 0.029127 0.005459 -0.011052 0.000000 0.000000 0.000000
# 2 0.005459 0.010553 -0.006727 0.000000 0.000000 0.000000
# 3 -0.011052 -0.006727 0.012274 0.000000 0.000000 0.000000
# 4 0.000000 0.000000 0.000000 0.023251 0.000000 0.000000
# 5 0.000000 0.000000 0.000000 0.000000 0.031452 0.000000
# 6 0.000000 0.000000 0.000000 0.000000 0.000000 0.048594
#
#
# Mechanical properties :
#
#
# Convention : Reuss Voigt Hill
#
# Bulk Modulus (GPa) = 36.60954 71.89588 54.25271
# Shear Modulus (GPa) = 26.45584 34.56217 30.50901
#
# Velocity S-wave (km/s) = 3.25641 3.72202 3.49697
# Velocity P-wave (km/s) = 5.36777 6.87669 6.16854
#
# Compressibility (1/GPa) = 0.02731529
#
# Stress axis : x y z
#
# Youngs Moduli (GPa) = 34.33251 94.76191 81.47266
#
# Poissons Ratio (x) = -0.51731 0.90041
# Poissons Ratio (y) = -0.18742 0.54804
# Poissons Ratio (z) = 0.37943 0.63743
#
# Static dielectric constant tensor:
#      x y z
#    x 4.976490 0.000000 0.000000 
#    y 0.000000 4.617050 0.000000 
#    z 0.000000 0.000000 5.425590 
# 
# 
# High freq. dielectric constant tensor:
#      x y z
#    x 2.012940 0.000000 0.000000 
#    y 0.000000 1.997130 0.000000 
#    z 0.000000 0.000000 2.002050 
# 
# From -- ./inp_files/46449.got.cif
#   From: 2010.03.12/outbox.cif.g09.slc.cpg/sg72_24_cif.got.tgz:46449.got - 2010.04.16 14:54:00.
