data_PCOD8294491
_publ_section_title
;
Structure prediction by ZEFSAII (Michael W. Deem and Ramdas Pophale) SiO2 
 PCOD8294491
Probable space group: I B A M
;
_chemical_formula_sum "Si O2"
_cell_formula_units_Z 96
_cell_length_a 7.505082
_cell_length_b 28.568513
_cell_length_c 20.784053
_cell_angle_alpha 90.000000
_cell_angle_beta 90.000000
_cell_angle_gamma 90.000000
_cell_volume 4456.288699
_symmetry_space_group_name_H-M "I B A M"
_symmetry_group_IT_number 72
_symmetry_cell_setting 'orthorhombic'
loop_
_space_group_symop_operation_xyz
x,y,z
-x,-y,z
x,-y,1/2-z
-x,y,1/2-z
-x,-y,-z
x,y,-z
-x,y,1/2+z
x,-y,1/2+z
1/2+x,1/2+y,1/2+z
1/2-x,1/2-y,1/2+z
1/2+x,1/2-y,-z
1/2-x,1/2+y,-z
1/2-x,1/2-y,1/2-z
1/2+x,1/2+y,1/2-z
1/2-x,1/2+y,z
1/2+x,1/2-y,z
loop_
_atom_site_type_symbol
_atom_site_label
_atom_site_fract_x
_atom_site_fract_y
_atom_site_fract_z
Si Si1 0.226925 0.556509 0.071507
Si Si2 0.037782 0.313998 0.821797
Si Si3 0.869306 0.599563 0.890484
Si Si4 0.202959 0.512920 0.317918
Si Si5 0.560909 0.712042 0.176416
Si Si6 0.003214 0.860558 0.571943
O O1 0.283055 0.516849 0.122749
O O2 0.351727 0.600297 0.088108
O O3 0.013344 0.568150 0.071018
O O4 0.270923 0.537657 0.000000
O O5 0.000791 0.358485 0.866413
O O6 0.242722 0.304685 0.829065
O O7 0.000000 0.329613 0.750000
O O8 0.934921 0.266943 0.842497
O O9 0.783310 0.568383 0.832794
O O10 0.699505 0.619167 0.929158
O O11 0.300752 0.500000 0.250000
O O12 0.000000 0.500000 0.309617
O O13 0.500000 0.705129 0.250000
O O14 0.455549 0.680353 0.124522
O O15 0.035732 0.840335 0.500000
#
# Coordination Sequence:
#
# PCOD8294491 Si02
#       6
#    16  16  16  16  16  16
#     4  10  22  38  62  85 115 161 198 241 298 357
#     4  10  21  34  60  88 116 158 195 246 302 352
#     4  10  22  37  62  85 119 156 195 243 295 353
#     4   9  20  37  59  91 120 151 195 244 296 353
#     4  10  21  37  58  89 118 154 201 250 296 355
#     4  10  23  41  59  87 121 157 201 248 297 355
#
# _framework density 21.542590000000001
#
# number of rings (size 3 to 8) (size 9 to 14) (size 15 to 20)
#    0.000    2.167    0.000    2.500    9.333    5.667 
#    0.000    6.667    0.000    0.000    0.000    0.000 
#    0.000    0.000    0.000    0.000    0.000    0.000 
#
# Total GULP energy -594701.900221 kJ/mol
# GULP energy per Si atom -12389.622921 kJ/mol
# Density = 2.149356 g / cm^3
# Si number density = 21.542590 Si / 1000 Ang^3
#
#
#
# Elastic Constant Matrix: (Units=GPa)
#
#
# Indices 1 2 3 4 5 6 
#
# 1 36.6378 0.7252 5.2878 0.0000 0.0000 0.0000
# 2 0.7252 113.6000 77.5556 0.0000 0.0000 0.0000
# 3 5.2878 77.5556 151.0210 0.0000 0.0000 0.0001
# 4 0.0000 0.0000 0.0000 4.0636 0.0000 0.0000
# 5 0.0000 0.0000 0.0000 0.0000 21.2560 0.0000
# 6 0.0000 0.0000 0.0001 0.0000 0.0000 34.3271
#
#
#
# Elastic Compliance Matrix: (Units=1/GPa)
#
#
# Indices 1 2 3 4 5 6 
#
# 1 0.027473 0.000741 -0.001343 0.000000 0.000000 0.000000
# 2 0.000741 0.013575 -0.006997 0.000000 0.000000 0.000000
# 3 -0.001343 -0.006997 0.010262 0.000000 0.000000 0.000000
# 4 0.000000 0.000000 0.000000 0.246088 0.000000 0.000000
# 5 0.000000 0.000000 0.000000 0.000000 0.047045 0.000000
# 6 0.000000 0.000000 0.000000 0.000000 0.000000 0.029132
#
#
# Mechanical properties :
#
#
# Convention : Reuss Voigt Hill
#
# Bulk Modulus (GPa) = 27.69079 52.04401 39.86740
# Shear Modulus (GPa) = 12.47471 26.44202 19.45836
#
# Velocity S-wave (km/s) = 2.40900 3.50727 3.00867
# Velocity P-wave (km/s) = 4.54088 6.37278 5.53317
#
# Compressibility (1/GPa) = 0.03611309
#
# Stress axis : x y z
#
# Youngs Moduli (GPa) = 36.39892 73.66326 97.44613
#
# Poissons Ratio (x) = -0.05460 0.13083
# Poissons Ratio (y) = -0.02698 0.68187
# Poissons Ratio (z) = 0.04887 0.51545
#
# Static dielectric constant tensor:
#      x y z
#    x 3.742900 0.000000 0.000000 
#    y 0.000000 3.180110 0.000000 
#    z 0.000000 0.000000 4.030450 
# 
# 
# High freq. dielectric constant tensor:
#      x y z
#    x 1.841860 0.000000 0.000000 
#    y 0.000000 1.846810 0.000000 
#    z 0.000000 0.000000 1.839870 
# 
# From -- ./inp_files/36054.got.cif
#   From: 2010.03.12/outbox.cif.g09.slc.cpg/sg72_19_cif.got.tgz:36054.got - 2010.04.16 14:54:00.
