data_PCOD8294644
_publ_section_title
;
Structure prediction by ZEFSAII (Michael W. Deem and Ramdas Pophale) SiO2 
 PCOD8294644
Probable space group: I B A M
;
_chemical_formula_sum "Si O2"
_cell_formula_units_Z 112
_cell_length_a 18.122945
_cell_length_b 19.859174
_cell_length_c 17.408922
_cell_angle_alpha 90.000000
_cell_angle_beta 90.000000
_cell_angle_gamma 90.000000
_cell_volume 6265.587984
_symmetry_space_group_name_H-M "I B A M"
_symmetry_group_IT_number 72
_symmetry_cell_setting 'orthorhombic'
loop_
_space_group_symop_operation_xyz
x,y,z
-x,-y,z
x,-y,1/2-z
-x,y,1/2-z
-x,-y,-z
x,y,-z
-x,y,1/2+z
x,-y,1/2+z
1/2+x,1/2+y,1/2+z
1/2-x,1/2-y,1/2+z
1/2+x,1/2-y,-z
1/2-x,1/2+y,-z
1/2-x,1/2-y,1/2-z
1/2+x,1/2+y,1/2-z
1/2-x,1/2+y,z
1/2+x,1/2-y,z
loop_
_atom_site_type_symbol
_atom_site_label
_atom_site_fract_x
_atom_site_fract_y
_atom_site_fract_z
Si Si1 0.371599 0.426909 0.283555
Si Si2 0.232659 0.856448 0.087204
Si Si3 0.081124 0.676570 0.259482
Si Si4 0.586148 0.684059 0.168263
Si Si5 0.629449 0.227091 0.916429
Si Si6 0.288235 0.924369 0.235080
Si Si7 0.441735 0.637980 0.914555
O O1 0.386460 0.500000 0.250000
O O2 0.414539 0.370798 0.235313
O O3 0.284282 0.410468 0.286990
O O4 0.410119 0.425470 0.367123
O O5 0.153189 0.829274 0.110823
O O6 0.284802 0.791332 0.093038
O O7 0.263591 0.913729 0.145715
O O8 0.230431 0.885825 0.000000
O O9 0.090584 0.742450 0.206581
O O10 0.082761 0.692985 0.349549
O O11 0.146015 0.624546 0.238023
O O12 0.000000 0.643834 0.250000
O O13 0.512378 0.675894 0.119673
O O14 0.624147 0.307574 0.913258
O O15 0.599949 0.201191 0.000000
O O16 0.316228 0.000000 0.250000
O O17 0.459821 0.612013 0.000000
#
# Coordination Sequence:
#
# PCOD8294644 Si02
#       7
#    16  16  16  16  16  16  16
#     4  10  21  38  55  74 106 145 184 227 269 317
#     4   9  19  34  56  78 106 144 180 221 273 327
#     4  11  19  33  57  83 112 145 178 226 278 326
#     4  11  20  33  54  83 109 138 182 222 271 327
#     4   9  18  32  51  78 107 139 176 219 270 322
#     4   9  21  37  57  81 109 143 191 233 265 320
#     4  11  21  34  53  78 113 142 176 224 275 327
#
# _framework density 17.875416000000001
#
# number of rings (size 3 to 8) (size 9 to 14) (size 15 to 20)
#    0.000    2.000    2.857    0.857    2.000    3.143 
#    0.000    7.857    0.000    3.429    0.000    4.000 
#    0.000    0.000    0.000    0.000    0.000    0.000 
#
# Total GULP energy -694097.505035 kJ/mol
# GULP energy per Si atom -12394.598304 kJ/mol
# Density = 1.783473 g / cm^3
# Si number density = 17.875416 Si / 1000 Ang^3
#
#
#
# Elastic Constant Matrix: (Units=GPa)
#
#
# Indices 1 2 3 4 5 6 
#
# 1 101.2011 58.6212 65.4147 0.0000 0.0000 0.0000
# 2 58.6212 106.4066 55.7137 0.0000 0.0000 0.0000
# 3 65.4147 55.7137 120.8780 0.0000 0.0000 0.0000
# 4 0.0000 0.0000 0.0000 19.5747 0.0000 0.0000
# 5 0.0000 0.0000 0.0000 0.0000 24.7510 0.0000
# 6 0.0000 0.0000 0.0000 0.0000 0.0000 17.8446
#
#
#
# Elastic Compliance Matrix: (Units=1/GPa)
#
#
# Indices 1 2 3 4 5 6 
#
# 1 0.017934 -0.006325 -0.006790 0.000000 0.000000 0.000000
# 2 -0.006325 0.014618 -0.003315 0.000000 0.000000 0.000000
# 3 -0.006790 -0.003315 0.013475 0.000000 0.000000 0.000000
# 4 0.000000 0.000000 0.000000 0.051086 0.000000 0.000000
# 5 0.000000 0.000000 0.000000 0.000000 0.040402 0.000000
# 6 0.000000 0.000000 0.000000 0.000000 0.000000 0.056039
#
#
# Mechanical properties :
#
#
# Convention : Reuss Voigt Hill
#
# Bulk Modulus (GPa) = 75.94322 76.44278 76.19300
# Shear Modulus (GPa) = 21.66342 22.34980 22.00661
#
# Velocity S-wave (km/s) = 3.48503 3.53981 3.51252
# Velocity P-wave (km/s) = 7.66622 7.71777 7.69204
#
# Compressibility (1/GPa) = 0.01316773
#
# Stress axis : x y z
#
# Youngs Moduli (GPa) = 55.75994 68.40881 74.21097
#
# Poissons Ratio (x) = 0.43268 0.50389
# Poissons Ratio (y) = 0.35268 0.24599
# Poissons Ratio (z) = 0.37861 0.22676
#
# Static dielectric constant tensor:
#      x y z
#    x 3.447520 0.000000 0.000000 
#    y 0.000000 3.138550 0.000000 
#    z 0.000000 0.000000 3.557830 
# 
# 
# High freq. dielectric constant tensor:
#      x y z
#    x 1.700470 0.000000 0.000000 
#    y 0.000000 1.667940 0.000000 
#    z 0.000000 0.000000 1.697030 
# 
# From -- ./inp_files/32749.got.cif
#   From: 2010.03.12/outbox.cif.g09.slc.cpg/sg72_17_cif.got.tgz:32749.got - 2010.04.16 14:54:00.
