data_PCOD8294980
_publ_section_title
;
Structure prediction by ZEFSAII (Michael W. Deem and Ramdas Pophale) SiO2 
 PCOD8294980
Probable space group: I B A M
;
_chemical_formula_sum "Si O2"
_cell_formula_units_Z 88
_cell_length_a 22.811422
_cell_length_b 12.824146
_cell_length_c 14.294642
_cell_angle_alpha 90.000000
_cell_angle_beta 90.000000
_cell_angle_gamma 90.000000
_cell_volume 4181.711775
_symmetry_space_group_name_H-M "I B A M"
_symmetry_group_IT_number 72
_symmetry_cell_setting 'orthorhombic'
loop_
_space_group_symop_operation_xyz
x,y,z
-x,-y,z
x,-y,1/2-z
-x,y,1/2-z
-x,-y,-z
x,y,-z
-x,y,1/2+z
x,-y,1/2+z
1/2+x,1/2+y,1/2+z
1/2-x,1/2-y,1/2+z
1/2+x,1/2-y,-z
1/2-x,1/2+y,-z
1/2-x,1/2-y,1/2-z
1/2+x,1/2+y,1/2-z
1/2-x,1/2+y,z
1/2+x,1/2-y,z
loop_
_atom_site_type_symbol
_atom_site_label
_atom_site_fract_x
_atom_site_fract_y
_atom_site_fract_z
Si Si1 0.091292 0.067123 0.500000
Si Si2 0.960769 0.849667 0.000000
Si Si3 0.066428 0.471200 0.892957
Si Si4 0.059566 0.738041 0.693034
Si Si5 0.242026 0.000000 0.250000
Si Si6 0.675090 0.893021 0.107874
Si Si7 0.153565 0.167102 0.324286
O O1 0.125434 0.103361 0.408599
O O2 0.026896 0.112533 0.500000
O O3 0.086816 0.942310 0.500000
O O4 0.952342 0.781433 0.909031
O O5 0.085517 0.378312 0.822813
O O6 0.107742 0.571180 0.875310
O O7 0.000000 0.500000 0.869033
O O8 0.072238 0.433520 0.000000
O O9 0.105274 0.811326 0.745538
O O10 0.000000 0.734311 0.750000
O O11 0.281645 0.030575 0.162082
O O12 0.204020 0.099495 0.277669
O O13 0.681763 0.774290 0.140060
O O14 0.692777 0.902022 0.000000
#
# Coordination Sequence:
#
# PCOD8294980 Si02
#       7
#     8   8  16  16   8  16  16
#     4  11  24  44  67  94 139 179 229 284 338 413
#     4  11  24  42  62 101 142 184 222 274 342 413
#     4  10  22  40  69 104 141 175 220 274 346 418
#     4  12  23  40  68 102 141 181 227 283 343 417
#     4  12  28  48  68 102 134 182 244 292 346 420
#     4  11  25  46  73 102 139 179 229 292 353 411
#     4  12  25  46  72  99 134 183 233 285 353 415
#
# _framework density 21.044013
#
# number of rings (size 3 to 8) (size 9 to 14) (size 15 to 20)
#    0.000    0.727    3.636    3.818    1.273    1.818 
#    1.636    1.818    0.000    0.000    0.000    0.000 
#    0.000    0.000    0.000    0.000    0.000    0.000 
#
# Total GULP energy -545839.841642 kJ/mol
# GULP energy per Si atom -12405.450946 kJ/mol
# Density = 2.099612 g / cm^3
# Si number density = 21.044013 Si / 1000 Ang^3
#
#
#
# Elastic Constant Matrix: (Units=GPa)
#
#
# Indices 1 2 3 4 5 6 
#
# 1 103.3734 46.8570 44.1335 0.0000 0.0000 0.0000
# 2 46.8570 121.3977 48.2426 0.0000 0.0000 0.0000
# 3 44.1335 48.2426 142.6492 0.0000 0.0000 0.0000
# 4 0.0000 0.0000 0.0000 69.6616 0.0000 0.0000
# 5 0.0000 0.0000 0.0000 0.0000 24.0951 0.0000
# 6 0.0000 0.0000 0.0000 0.0000 0.0000 32.6119
#
#
#
# Elastic Compliance Matrix: (Units=1/GPa)
#
#
# Indices 1 2 3 4 5 6 
#
# 1 0.012497 -0.003798 -0.002582 0.000000 0.000000 0.000000
# 2 -0.003798 0.010670 -0.002434 0.000000 0.000000 0.000000
# 3 -0.002582 -0.002434 0.008632 0.000000 0.000000 0.000000
# 4 0.000000 0.000000 0.000000 0.014355 0.000000 0.000000
# 5 0.000000 0.000000 0.000000 0.000000 0.041502 0.000000
# 6 0.000000 0.000000 0.000000 0.000000 0.000000 0.030664
#
#
# Mechanical properties :
#
#
# Convention : Reuss Voigt Hill
#
# Bulk Modulus (GPa) = 70.55701 71.76516 71.16109
# Shear Modulus (GPa) = 35.54362 40.48619 38.01490
#
# Velocity S-wave (km/s) = 4.11422 4.39097 4.25484
# Velocity P-wave (km/s) = 7.49468 7.73847 7.61755
#
# Compressibility (1/GPa) = 0.01417294
#
# Stress axis : x y z
#
# Youngs Moduli (GPa) = 80.01617 93.71794 115.84609
#
# Poissons Ratio (x) = 0.35591 0.29914
# Poissons Ratio (y) = 0.30387 0.28193
# Poissons Ratio (z) = 0.20662 0.22808
#
# Static dielectric constant tensor:
#      x y z
#    x 3.720020 0.000000 0.000000 
#    y 0.000000 3.976290 0.000000 
#    z 0.000000 0.000000 4.019750 
# 
# 
# High freq. dielectric constant tensor:
#      x y z
#    x 1.816620 0.000000 0.000000 
#    y 0.000000 1.837330 0.000000 
#    z 0.000000 0.000000 1.850930 
# 
# From -- ./inp_files/25861.got.cif
#   From: 2010.03.12/outbox.cif.g09.slc.cpg/sg72_13_cif.got.tgz:25861.got - 2010.04.16 14:54:00.
