data_PCOD8294216
_publ_section_title
;
Structure prediction by ZEFSAII (Michael W. Deem and Ramdas Pophale) SiO2 
 PCOD8294216
Probable space group: I B A M
;
_chemical_formula_sum "Si O2"
_cell_formula_units_Z 84
_cell_length_a 16.684213
_cell_length_b 10.312027
_cell_length_c 25.205494
_cell_angle_alpha 90.000000
_cell_angle_beta 90.000000
_cell_angle_gamma 90.000000
_cell_volume 4336.556216
_symmetry_space_group_name_H-M "I B A M"
_symmetry_group_IT_number 72
_symmetry_cell_setting 'orthorhombic'
loop_
_space_group_symop_operation_xyz
x,y,z
-x,-y,z
x,-y,1/2-z
-x,y,1/2-z
-x,-y,-z
x,y,-z
-x,y,1/2+z
x,-y,1/2+z
1/2+x,1/2+y,1/2+z
1/2-x,1/2-y,1/2+z
1/2+x,1/2-y,-z
1/2-x,1/2+y,-z
1/2-x,1/2-y,1/2-z
1/2+x,1/2+y,1/2-z
1/2-x,1/2+y,z
1/2+x,1/2-y,z
loop_
_atom_site_type_symbol
_atom_site_label
_atom_site_fract_x
_atom_site_fract_y
_atom_site_fract_z
Si Si1 0.598306 0.885068 0.104578
Si Si2 0.500000 0.500000 0.250000
Si Si3 0.428175 0.814497 0.895171
Si Si4 0.862826 0.173581 0.294132
Si Si5 0.188165 0.384413 0.712940
Si Si6 0.807537 0.408976 0.000000
Si Si7 0.836325 0.714329 0.000000
O O1 0.523321 0.784398 0.107472
O O2 0.649974 0.865403 0.156309
O O3 0.646782 0.855508 0.051364
O O4 0.572848 0.032472 0.103753
O O5 0.557776 0.412372 0.213677
O O6 0.378365 0.761619 0.845355
O O7 0.390769 0.759788 0.948835
O O8 0.838963 0.255251 0.242636
O O9 0.782006 0.089389 0.300928
O O10 0.155051 0.500000 0.750000
O O11 0.798313 0.567491 0.000000
O O12 0.724334 0.333778 0.000000
#
# Coordination Sequence:
#
# PCOD8294216 Si02
#       7
#    16   4  16  16  16   8   8
#     4  10  20  36  61  88 116 155 209 258 299 360
#     4  12  24  40  54  90 128 162 192 254 332 374
#     4  10  20  37  59  87 117 156 199 257 306 361
#     4  11  23  38  59  85 125 162 200 251 316 372
#     4  11  21  39  60  86 115 160 211 251 298 374
#     4  10  21  39  61  89 119 158 204 257 310 373
#     4  10  21  39  63  91 121 158 208 256 316 371
#
# _framework density 19.370208999999999
#
# number of rings (size 3 to 8) (size 9 to 14) (size 15 to 20)
#    0.000    1.524    2.857    2.857    0.000    2.286 
#    0.000    1.905    0.000    1.714    0.000    0.000 
#    0.000    0.000    0.000    0.000    0.000    0.000 
#
# Total GULP energy -520438.291646 kJ/mol
# GULP energy per Si atom -12391.387896 kJ/mol
# Density = 1.932612 g / cm^3
# Si number density = 19.370209 Si / 1000 Ang^3
#
#
#
# Elastic Constant Matrix: (Units=GPa)
#
#
# Indices 1 2 3 4 5 6 
#
# 1 145.9156 44.0989 78.2920 0.0000 0.0000 0.0000
# 2 44.0989 32.7309 19.0478 0.0000 0.0000 0.0000
# 3 78.2920 19.0478 170.1078 0.0000 0.0000 0.0000
# 4 0.0000 0.0000 0.0000 22.0996 0.0000 0.0000
# 5 0.0000 0.0000 0.0000 0.0000 37.3807 0.0000
# 6 0.0000 0.0000 0.0000 0.0000 0.0000 55.1845
#
#
#
# Elastic Compliance Matrix: (Units=1/GPa)
#
#
# Indices 1 2 3 4 5 6 
#
# 1 0.014475 -0.016715 -0.004791 0.000000 0.000000 0.000000
# 2 -0.016715 0.051983 0.001872 0.000000 0.000000 0.000000
# 3 -0.004791 0.001872 0.007874 0.000000 0.000000 0.000000
# 4 0.000000 0.000000 0.000000 0.045250 0.000000 0.000000
# 5 0.000000 0.000000 0.000000 0.000000 0.026752 0.000000
# 6 0.000000 0.000000 0.000000 0.000000 0.000000 0.018121
#
#
# Mechanical properties :
#
#
# Convention : Reuss Voigt Hill
#
# Bulk Modulus (GPa) = 28.51802 70.18129 49.34965
# Shear Modulus (GPa) = 23.21156 36.75399 29.98278
#
# Velocity S-wave (km/s) = 3.46542 4.36070 3.93858
# Velocity P-wave (km/s) = 5.54678 7.85267 6.79821
#
# Compressibility (1/GPa) = 0.03506555
#
# Stress axis : x y z
#
# Youngs Moduli (GPa) = 69.08290 19.23706 127.00251
#
# Poissons Ratio (x) = 0.32155 0.60842
# Poissons Ratio (y) = 1.15472 -0.23779
# Poissons Ratio (z) = 0.33095 -0.03602
#
# Static dielectric constant tensor:
#      x y z
#    x 3.743110 0.000000 0.000000 
#    y 0.000000 3.307540 0.000000 
#    z 0.000000 0.000000 3.444920 
# 
# 
# High freq. dielectric constant tensor:
#      x y z
#    x 1.766550 0.000000 0.000000 
#    y 0.000000 1.731080 0.000000 
#    z 0.000000 0.000000 1.769570 
# 
# From -- ./inp_files/36832.got.cif
#   From: 2010.03.12/outbox.cif.g09.slc.cpg/sg72_19_cif.got.tgz:36832.got - 2010.04.16 14:54:00.
