data_PCOD8294382
_publ_section_title
;
Structure prediction by ZEFSAII (Michael W. Deem and Ramdas Pophale) SiO2 
 PCOD8294382
Probable space group: I B A M
;
_chemical_formula_sum "Si O2"
_cell_formula_units_Z 104
_cell_length_a 9.286481
_cell_length_b 19.930762
_cell_length_c 27.760441
_cell_angle_alpha 90.000000
_cell_angle_beta 90.000000
_cell_angle_gamma 90.000000
_cell_volume 5138.086823
_symmetry_space_group_name_H-M "I B A M"
_symmetry_group_IT_number 72
_symmetry_cell_setting 'orthorhombic'
loop_
_space_group_symop_operation_xyz
x,y,z
-x,-y,z
x,-y,1/2-z
-x,y,1/2-z
-x,-y,-z
x,y,-z
-x,y,1/2+z
x,-y,1/2+z
1/2+x,1/2+y,1/2+z
1/2-x,1/2-y,1/2+z
1/2+x,1/2-y,-z
1/2-x,1/2+y,-z
1/2-x,1/2-y,1/2-z
1/2+x,1/2+y,1/2-z
1/2-x,1/2+y,z
1/2+x,1/2-y,z
loop_
_atom_site_type_symbol
_atom_site_label
_atom_site_fract_x
_atom_site_fract_y
_atom_site_fract_z
Si Si1 0.500000 0.232315 0.250000
Si Si2 0.849913 0.345621 0.175289
Si Si3 0.845024 0.331487 0.554541
Si Si4 0.961641 0.844800 0.177958
Si Si5 0.583656 0.261055 0.402558
Si Si6 0.090312 0.438256 0.132880
Si Si7 0.640571 0.534500 0.198517
O O1 0.625025 0.185443 0.271834
O O2 0.432174 0.276504 0.292637
O O3 0.694063 0.383254 0.175665
O O4 0.837570 0.286587 0.135983
O O5 0.982800 0.394633 0.165352
O O6 0.858347 0.357335 0.500000
O O7 0.697961 0.291124 0.560574
O O8 0.845408 0.396131 0.589047
O O9 0.974234 0.281456 0.565855
O O10 0.009110 0.823940 0.124306
O O11 0.086366 0.888190 0.204314
O O12 0.218272 0.467671 0.165836
O O13 0.000000 0.500000 0.111063
O O14 0.500000 0.500000 0.173333
O O15 0.673209 0.500000 0.250000
#
# Coordination Sequence:
#
# PCOD8294382 Si02
#       7
#     8  16  16  16  16  16  16
#     4  10  22  30  56  90 122 162 210 252 312 374
#     4  10  22  37  60  86 126 166 203 254 312 376
#     4  11  22  41  69  98 126 159 203 263 330 394
#     4  11  20  38  58  85 128 162 209 259 313 373
#     4  10  20  38  64  96 126 159 196 255 325 387
#     4  11  25  43  61  88 124 171 216 261 315 370
#     4  11  24  40  61  87 120 171 223 264 306 366
#
# _framework density 20.240998000000001
#
# number of rings (size 3 to 8) (size 9 to 14) (size 15 to 20)
#    0.000    1.385    3.077    2.769    0.000    5.538 
#    0.000    0.769    0.000    0.462    0.000    0.000 
#    0.000    0.000    0.000    0.000    0.000    0.000 
#
# Total GULP energy -644776.947747 kJ/mol
# GULP energy per Si atom -12399.556687 kJ/mol
# Density = 2.019493 g / cm^3
# Si number density = 20.240998 Si / 1000 Ang^3
#
#
#
# Elastic Constant Matrix: (Units=GPa)
#
#
# Indices 1 2 3 4 5 6 
#
# 1 127.2857 32.2327 49.8081 0.0000 0.0000 0.0000
# 2 32.2327 78.2358 35.6862 0.0000 0.0000 0.0000
# 3 49.8081 35.6862 114.8761 0.0000 0.0000 0.0000
# 4 0.0000 0.0000 0.0000 22.2935 0.0000 0.0000
# 5 0.0000 0.0000 0.0000 0.0000 21.9749 0.0000
# 6 0.0000 0.0000 0.0000 0.0000 0.0000 36.5939
#
#
#
# Elastic Compliance Matrix: (Units=1/GPa)
#
#
# Indices 1 2 3 4 5 6 
#
# 1 0.009852 -0.002459 -0.003508 0.000000 0.000000 0.000000
# 2 -0.002459 0.015506 -0.003751 0.000000 0.000000 0.000000
# 3 -0.003508 -0.003751 0.011391 0.000000 0.000000 0.000000
# 4 0.000000 0.000000 0.000000 0.044856 0.000000 0.000000
# 5 0.000000 0.000000 0.000000 0.000000 0.045506 0.000000
# 6 0.000000 0.000000 0.000000 0.000000 0.000000 0.027327
#
#
# Mechanical properties :
#
#
# Convention : Reuss Voigt Hill
#
# Bulk Modulus (GPa) = 57.75690 61.76128 59.75909
# Shear Modulus (GPa) = 27.83292 29.68386 28.75839
#
# Velocity S-wave (km/s) = 3.71222 3.83367 3.77344
# Velocity P-wave (km/s) = 6.85352 7.08345 6.96943
#
# Compressibility (1/GPa) = 0.01731395
#
# Stress axis : x y z
#
# Youngs Moduli (GPa) = 101.50688 64.49225 87.78840
#
# Poissons Ratio (x) = 0.15858 0.30793
# Poissons Ratio (y) = 0.24959 0.32927
# Poissons Ratio (z) = 0.35605 0.24189
#
# Static dielectric constant tensor:
#      x y z
#    x 3.751540 0.000000 0.000000 
#    y 0.000000 3.791230 0.000000 
#    z 0.000000 0.000000 3.379250 
# 
# 
# High freq. dielectric constant tensor:
#      x y z
#    x 1.806190 0.000000 0.000000 
#    y 0.000000 1.792180 0.000000 
#    z 0.000000 0.000000 1.761360 
# 
# From -- ./inp_files/47395.got.cif
#   From: 2010.03.12/outbox.cif.g09.slc.cpg/sg72_24_cif.got.tgz:47395.got - 2010.04.16 14:54:00.
