data_PCOD8294346
_publ_section_title
;
Structure prediction by ZEFSAII (Michael W. Deem and Ramdas Pophale) SiO2 
 PCOD8294346
Probable space group: I B A M
;
_chemical_formula_sum "Si O2"
_cell_formula_units_Z 72
_cell_length_a 17.023607
_cell_length_b 14.027957
_cell_length_c 14.211533
_cell_angle_alpha 90.000000
_cell_angle_beta 90.000000
_cell_angle_gamma 90.000000
_cell_volume 3393.805418
_symmetry_space_group_name_H-M "I B A M"
_symmetry_group_IT_number 72
_symmetry_cell_setting 'orthorhombic'
loop_
_space_group_symop_operation_xyz
x,y,z
-x,-y,z
x,-y,1/2-z
-x,y,1/2-z
-x,-y,-z
x,y,-z
-x,y,1/2+z
x,-y,1/2+z
1/2+x,1/2+y,1/2+z
1/2-x,1/2-y,1/2+z
1/2+x,1/2-y,-z
1/2-x,1/2+y,-z
1/2-x,1/2-y,1/2-z
1/2+x,1/2+y,1/2-z
1/2-x,1/2+y,z
1/2+x,1/2-y,z
loop_
_atom_site_type_symbol
_atom_site_label
_atom_site_fract_x
_atom_site_fract_y
_atom_site_fract_z
Si Si1 0.158877 0.690202 0.795188
Si Si2 0.720033 0.531426 0.351513
Si Si3 0.259745 0.827649 0.895651
Si Si4 0.500000 0.747859 0.750000
Si Si5 0.550303 0.591172 0.394879
O O1 0.206069 0.603376 0.842468
O O2 0.177814 0.784709 0.856319
O O3 0.177907 0.703271 0.683877
O O4 0.064678 0.681602 0.796928
O O5 0.689917 0.500000 0.250000
O O6 0.752424 0.440906 0.407806
O O7 0.644131 0.573850 0.401972
O O8 0.281322 0.786946 0.000000
O O9 0.537582 0.681726 0.670575
O O10 0.500000 0.500000 0.357780
O O11 0.520810 0.615601 0.500000
#
# Coordination Sequence:
#
# PCOD8294346 Si02
#       5
#    16  16  16   8  16
#     4  10  23  38  58  87 119 157 199 243 293 352
#     4  10  20  38  60  85 116 151 193 241 298 354
#     4  10  20  38  63  88 114 148 194 244 297 356
#     4  12  23  38  55  80 122 160 194 240 290 350
#     4  11  22  35  57  89 119 150 191 245 308 363
#
# _framework density 21.215123999999999
#
# number of rings (size 3 to 8) (size 9 to 14) (size 15 to 20)
#    0.000    1.556    0.000    7.667    0.000    7.111 
#    0.000    5.000    0.000    1.333    0.000    0.000 
#    0.000    0.000    0.000    0.000    0.000    0.000 
#
# Total GULP energy -446138.764052 kJ/mol
# GULP energy per Si atom -12392.743446 kJ/mol
# Density = 2.116684 g / cm^3
# Si number density = 21.215124 Si / 1000 Ang^3
#
#
#
# Elastic Constant Matrix: (Units=GPa)
#
#
# Indices 1 2 3 4 5 6 
#
# 1 134.1517 67.2936 12.2268 0.0000 0.0000 0.0000
# 2 67.2936 96.1506 38.9387 0.0000 0.0000 0.0000
# 3 12.2268 38.9387 111.0785 0.0000 0.0000 0.0000
# 4 0.0000 0.0000 0.0000 17.2519 0.0000 0.0000
# 5 0.0000 0.0000 0.0000 0.0000 5.5089 0.0000
# 6 0.0000 0.0000 0.0000 0.0000 0.0000 26.6015
#
#
#
# Elastic Compliance Matrix: (Units=1/GPa)
#
#
# Indices 1 2 3 4 5 6 
#
# 1 0.011808 -0.009018 0.001862 0.000000 0.000000 0.000000
# 2 -0.009018 0.019009 -0.005671 0.000000 0.000000 0.000000
# 3 0.001862 -0.005671 0.010786 0.000000 0.000000 0.000000
# 4 0.000000 0.000000 0.000000 0.057965 0.000000 0.000000
# 5 0.000000 0.000000 0.000000 0.000000 0.181525 0.000000
# 6 0.000000 0.000000 0.000000 0.000000 0.000000 0.037592
#
#
# Mechanical properties :
#
#
# Convention : Reuss Voigt Hill
#
# Bulk Modulus (GPa) = 62.70552 64.25543 63.48048
# Shear Modulus (GPa) = 14.29981 24.73390 19.51686
#
# Velocity S-wave (km/s) = 2.59904 3.41818 3.03636
# Velocity P-wave (km/s) = 6.21513 6.77731 6.50230
#
# Compressibility (1/GPa) = 0.01594756
#
# Stress axis : x y z
#
# Youngs Moduli (GPa) = 84.68573 52.60776 92.71582
#
# Poissons Ratio (x) = 0.47443 -0.17260
# Poissons Ratio (y) = 0.76372 0.52577
# Poissons Ratio (z) = -0.15765 0.29833
#
# Static dielectric constant tensor:
#      x y z
#    x 3.663640 0.000000 0.000000 
#    y 0.000000 3.731610 0.000000 
#    z 0.000000 0.000000 3.839590 
# 
# 
# High freq. dielectric constant tensor:
#      x y z
#    x 1.813370 0.000000 0.000000 
#    y 0.000000 1.819260 0.000000 
#    z 0.000000 0.000000 1.840590 
# 
# From -- ./inp_files/21433.got.cif
#   From: 2010.03.12/outbox.cif.g09.slc.cpg/sg72_11_cif.got.tgz:21433.got - 2010.04.16 14:54:00.
