data_PCOD8294143
_publ_section_title
;
Structure prediction by ZEFSAII (Michael W. Deem and Ramdas Pophale) SiO2 
 PCOD8294143
Probable space group: I B A M
;
_chemical_formula_sum "Si O2"
_cell_formula_units_Z 80
_cell_length_a 27.721119
_cell_length_b 17.681984
_cell_length_c 8.497844
_cell_angle_alpha 90.000000
_cell_angle_beta 90.000000
_cell_angle_gamma 90.000000
_cell_volume 4165.340458
_symmetry_space_group_name_H-M "I B A M"
_symmetry_group_IT_number 72
_symmetry_cell_setting 'orthorhombic'
loop_
_space_group_symop_operation_xyz
x,y,z
-x,-y,z
x,-y,1/2-z
-x,y,1/2-z
-x,-y,-z
x,y,-z
-x,y,1/2+z
x,-y,1/2+z
1/2+x,1/2+y,1/2+z
1/2-x,1/2-y,1/2+z
1/2+x,1/2-y,-z
1/2-x,1/2+y,-z
1/2-x,1/2-y,1/2-z
1/2+x,1/2+y,1/2-z
1/2-x,1/2+y,z
1/2+x,1/2-y,z
loop_
_atom_site_type_symbol
_atom_site_label
_atom_site_fract_x
_atom_site_fract_y
_atom_site_fract_z
Si Si1 0.289304 0.916961 0.816514
Si Si2 0.948212 0.766070 0.187141
Si Si3 0.694941 0.650599 0.316313
Si Si4 0.146247 0.295282 0.315745
Si Si5 0.595888 0.420600 0.816339
O O1 0.240623 0.869860 0.788322
O O2 0.333968 0.878229 0.726271
O O3 0.281833 0.000000 0.750000
O O4 0.300849 0.919885 0.000000
O O5 0.909207 0.709070 0.260961
O O6 0.936619 0.851345 0.247934
O O7 0.000000 0.740784 0.250000
O O8 0.945514 0.760550 0.000000
O O9 0.708316 0.644342 0.500000
O O10 0.678726 0.735708 0.279856
O O11 0.651558 0.593753 0.270132
O O12 0.150475 0.278969 0.500000
O O13 0.577179 0.500000 0.750000
O O14 0.589763 0.423949 0.000000
#
# Coordination Sequence:
#
# PCOD8294143 Si02
#       5
#    16  16  16  16  16
#     4  12  24  38  56  82 114 148 184 226 272 325
#     4  10  21  38  57  80 106 139 182 230 279 331
#     4  10  20  36  55  80 113 151 190 227 267 320
#     4  11  22  38  59  83 110 145 184 227 275 326
#     4   9  19  32  49  74 109 146 183 223 266 314
#
# _framework density 19.206115
#
# number of rings (size 3 to 8) (size 9 to 14) (size 15 to 20)
#    0.000    1.600    0.000    7.200    0.000    6.800 
#    0.000    2.000    0.000    0.600    0.000    4.200 
#    0.000    0.000    0.000    0.000    0.000    0.000 
#
# Total GULP energy -496159.365945 kJ/mol
# GULP energy per Si atom -12403.984149 kJ/mol
# Density = 1.916240 g / cm^3
# Si number density = 19.206115 Si / 1000 Ang^3
#
#
#
# Elastic Constant Matrix: (Units=GPa)
#
#
# Indices 1 2 3 4 5 6 
#
# 1 121.5024 35.3710 26.7895 0.0000 0.0000 0.0000
# 2 35.3710 44.8417 12.9268 0.0000 0.0000 0.0000
# 3 26.7895 12.9268 69.9396 0.0000 0.0000 0.0000
# 4 0.0000 0.0000 0.0000 29.6917 0.0000 0.0000
# 5 0.0000 0.0000 0.0000 0.0000 29.3960 0.0000
# 6 0.0000 0.0000 0.0000 0.0000 0.0000 14.3394
#
#
#
# Elastic Compliance Matrix: (Units=1/GPa)
#
#
# Indices 1 2 3 4 5 6 
#
# 1 0.011180 -0.008011 -0.002802 0.000000 0.000000 0.000000
# 2 -0.008011 0.029296 -0.002346 0.000000 0.000000 0.000000
# 3 -0.002802 -0.002346 0.015805 0.000000 0.000000 0.000000
# 4 0.000000 0.000000 0.000000 0.033679 0.000000 0.000000
# 5 0.000000 0.000000 0.000000 0.000000 0.034018 0.000000
# 6 0.000000 0.000000 0.000000 0.000000 0.000000 0.069738
#
#
# Mechanical properties :
#
#
# Convention : Reuss Voigt Hill
#
# Bulk Modulus (GPa) = 33.37447 42.93983 38.15715
# Shear Modulus (GPa) = 21.73696 25.43184 23.58440
#
# Velocity S-wave (km/s) = 3.36783 3.64284 3.50803
# Velocity P-wave (km/s) = 5.70419 6.33243 6.02650
#
# Compressibility (1/GPa) = 0.02996302
#
# Stress axis : x y z
#
# Youngs Moduli (GPa) = 89.44364 34.13404 63.27168
#
# Poissons Ratio (x) = 0.27346 0.17727
# Poissons Ratio (y) = 0.71656 0.14845
# Poissons Ratio (z) = 0.25060 0.08008
#
# Static dielectric constant tensor:
#      x y z
#    x 3.533670 0.000000 0.000000 
#    y 0.000000 5.065520 0.000000 
#    z 0.000000 0.000000 3.504660 
# 
# 
# High freq. dielectric constant tensor:
#      x y z
#    x 1.741290 0.000000 0.000000 
#    y 0.000000 1.730860 0.000000 
#    z 0.000000 0.000000 1.757390 
# 
# From -- ./inp_files/4756.got.cif
#   From: 2010.03.12/outbox.cif.g09.slc.cpg/sg72_3_cif.got.tgz:4756.got - 2010.04.16 14:54:00.
