data_PCOD8294205
_publ_section_title
;
Structure prediction by ZEFSAII (Michael W. Deem and Ramdas Pophale) SiO2 
 PCOD8294205
Probable space group: I B A M
;
_chemical_formula_sum "Si O2"
_cell_formula_units_Z 96
_cell_length_a 11.388680
_cell_length_b 22.094507
_cell_length_c 18.885997
_cell_angle_alpha 90.000000
_cell_angle_beta 90.000000
_cell_angle_gamma 90.000000
_cell_volume 4752.231866
_symmetry_space_group_name_H-M "I B A M"
_symmetry_group_IT_number 72
_symmetry_cell_setting 'orthorhombic'
loop_
_space_group_symop_operation_xyz
x,y,z
-x,-y,z
x,-y,1/2-z
-x,y,1/2-z
-x,-y,-z
x,y,-z
-x,y,1/2+z
x,-y,1/2+z
1/2+x,1/2+y,1/2+z
1/2-x,1/2-y,1/2+z
1/2+x,1/2-y,-z
1/2-x,1/2+y,-z
1/2-x,1/2-y,1/2-z
1/2+x,1/2+y,1/2-z
1/2-x,1/2+y,z
1/2+x,1/2-y,z
loop_
_atom_site_type_symbol
_atom_site_label
_atom_site_fract_x
_atom_site_fract_y
_atom_site_fract_z
Si Si1 0.438276 0.562530 0.579629
Si Si2 0.077909 0.227577 0.684665
Si Si3 0.489595 0.931675 0.834178
Si Si4 0.692450 0.148898 0.328210
Si Si5 0.257878 0.381452 0.178970
Si Si6 0.907709 0.179560 0.579779
O O1 0.500000 0.500000 0.596019
O O2 0.382969 0.563439 0.500000
O O3 0.341477 0.570156 0.640667
O O4 0.536145 0.613692 0.585753
O O5 0.122494 0.294074 0.705285
O O6 0.190737 0.185831 0.665159
O O7 0.000000 0.201336 0.750000
O O8 0.991119 0.228948 0.617286
O O9 0.500000 0.932456 0.750000
O O10 0.599377 0.894970 0.866948
O O11 0.370219 0.895709 0.854370
O O12 0.500000 0.000000 0.864449
O O13 0.755366 0.111684 0.264505
O O14 0.780695 0.175693 0.385082
O O15 0.890365 0.201738 0.500000
#
# Coordination Sequence:
#
# PCOD8294205 Si02
#       6
#    16  16  16  16  16  16
#     4   9  20  39  62  86 121 163 200 250 307 356
#     4  11  21  37  64  89 115 156 201 252 306 368
#     4   9  20  36  54  85 123 159 194 242 297 354
#     4  11  22  36  63  85 121 159 197 252 308 366
#     4  10  20  36  60  89 116 152 207 250 295 365
#     4  10  23  40  58  88 121 154 200 252 306 365
#
# _framework density 20.201034
#
# number of rings (size 3 to 8) (size 9 to 14) (size 15 to 20)
#    0.000    2.000    1.667    2.000    4.667    0.667 
#    0.000    1.667    0.000    1.000    0.000    0.000 
#    0.000    0.000    0.000    0.000    0.000    0.000 
#
# Total GULP energy -594968.548533 kJ/mol
# GULP energy per Si atom -12395.178094 kJ/mol
# Density = 2.015506 g / cm^3
# Si number density = 20.201034 Si / 1000 Ang^3
#
#
#
# Elastic Constant Matrix: (Units=GPa)
#
#
# Indices 1 2 3 4 5 6 
#
# 1 132.3820 48.1708 54.7776 0.0000 0.0000 0.0000
# 2 48.1708 94.4698 27.7893 0.0000 0.0000 0.0000
# 3 54.7776 27.7893 105.8002 0.0001 0.0000 0.0000
# 4 0.0000 0.0000 0.0001 18.2807 0.0000 0.0000
# 5 0.0000 0.0000 0.0000 0.0000 20.1016 0.0000
# 6 0.0000 0.0000 0.0000 0.0000 0.0000 24.4746
#
#
#
# Elastic Compliance Matrix: (Units=1/GPa)
#
#
# Indices 1 2 3 4 5 6 
#
# 1 0.010998 -0.004262 -0.004575 0.000000 0.000000 0.000000
# 2 -0.004262 0.013124 -0.001240 0.000000 0.000000 0.000000
# 3 -0.004575 -0.001240 0.012146 0.000000 0.000000 0.000000
# 4 0.000000 0.000000 0.000000 0.054702 0.000000 0.000000
# 5 0.000000 0.000000 0.000000 0.000000 0.049747 0.000000
# 6 0.000000 0.000000 0.000000 0.000000 0.000000 0.040859
#
#
# Mechanical properties :
#
#
# Convention : Reuss Voigt Hill
#
# Bulk Modulus (GPa) = 62.06058 66.01415 64.03737
# Shear Modulus (GPa) = 24.14284 26.03232 25.08758
#
# Velocity S-wave (km/s) = 3.46081 3.59369 3.52788
# Velocity P-wave (km/s) = 6.83797 7.06888 6.95438
#
# Compressibility (1/GPa) = 0.01611329
#
# Stress axis : x y z
#
# Youngs Moduli (GPa) = 90.92849 76.19901 82.33174
#
# Poissons Ratio (x) = 0.32477 0.37663
# Poissons Ratio (y) = 0.38755 0.10212
# Poissons Ratio (z) = 0.41595 0.09451
#
# Static dielectric constant tensor:
#      x y z
#    x 3.882030 0.000000 0.000000 
#    y 0.000000 3.614630 0.000000 
#    z 0.000000 0.000000 3.492500 
# 
# 
# High freq. dielectric constant tensor:
#      x y z
#    x 1.800400 0.000000 0.000000 
#    y 0.000000 1.783560 0.000000 
#    z 0.000000 0.000000 1.757210 
# 
# From -- ./inp_files/29463.got.cif
#   From: 2010.03.12/outbox.cif.g09.slc.cpg/sg72_15_cif.got.tgz:29463.got - 2010.04.16 14:54:00.
