data_PCOD8294247
_publ_section_title
;
Structure prediction by ZEFSAII (Michael W. Deem and Ramdas Pophale) SiO2 
 PCOD8294247
Probable space group: I B A M
;
_chemical_formula_sum "Si O2"
_cell_formula_units_Z 72
_cell_length_a 25.606296
_cell_length_b 8.604617
_cell_length_c 17.463667
_cell_angle_alpha 90.000000
_cell_angle_beta 90.000000
_cell_angle_gamma 90.000000
_cell_volume 3847.811137
_symmetry_space_group_name_H-M "I B A M"
_symmetry_group_IT_number 72
_symmetry_cell_setting 'orthorhombic'
loop_
_space_group_symop_operation_xyz
x,y,z
-x,-y,z
x,-y,1/2-z
-x,y,1/2-z
-x,-y,-z
x,y,-z
-x,y,1/2+z
x,-y,1/2+z
1/2+x,1/2+y,1/2+z
1/2-x,1/2-y,1/2+z
1/2+x,1/2-y,-z
1/2-x,1/2+y,-z
1/2-x,1/2-y,1/2-z
1/2+x,1/2+y,1/2-z
1/2-x,1/2+y,z
1/2+x,1/2-y,z
loop_
_atom_site_type_symbol
_atom_site_label
_atom_site_fract_x
_atom_site_fract_y
_atom_site_fract_z
Si Si1 0.750755 0.000000 0.750000
Si Si2 0.402220 0.842826 0.585674
Si Si3 0.511964 0.320593 0.087838
Si Si4 0.910210 0.624779 0.814509
Si Si5 0.825239 0.258084 0.795712
O O1 0.788911 0.108970 0.797611
O O2 0.713353 0.095279 0.692519
O O3 0.382445 0.831450 0.500000
O O4 0.460815 0.783841 0.595152
O O5 0.364197 0.733244 0.634156
O O6 0.395998 0.020891 0.612169
O O7 0.500000 0.500000 0.106960
O O8 0.549868 0.255203 0.154410
O O9 0.533961 0.307064 0.000000
O O10 0.931739 0.500000 0.750000
O O11 0.859504 0.715003 0.781708
#
# Coordination Sequence:
#
# PCOD8294247 Si02
#       5
#     8  16  16  16  16
#     4  10  20  40  60  78 110 140 188 240 300 314
#     4  10  20  37  57  83 118 153 184 225 282 345
#     4  10  22  37  57  85 122 154 184 231 288 340
#     4  10  20  37  56  88 111 155 193 228 275 343
#     4  10  21  37  61  83 108 146 187 241 278 342
#
# _framework density 18.711938
#
# number of rings (size 3 to 8) (size 9 to 14) (size 15 to 20)
#    0.000    2.000    3.333    1.333    3.111    8.000 
#    0.000    5.556    0.000    0.000    0.000    0.000 
#    0.000    0.000    0.000    0.000    0.000    0.000 
#
# Total GULP energy -446031.141178 kJ/mol
# GULP energy per Si atom -12389.753922 kJ/mol
# Density = 1.866935 g / cm^3
# Si number density = 18.711938 Si / 1000 Ang^3
#
#
#
# Elastic Constant Matrix: (Units=GPa)
#
#
# Indices 1 2 3 4 5 6 
#
# 1 98.5719 38.7047 53.6021 0.0000 0.0000 0.0000
# 2 38.7047 83.9994 36.1136 0.0000 0.0000 0.0000
# 3 53.6021 36.1136 74.8103 0.0000 0.0000 0.0000
# 4 0.0000 0.0000 0.0000 20.5251 0.0000 0.0000
# 5 0.0000 0.0000 0.0000 0.0000 11.5999 0.0000
# 6 0.0000 0.0000 0.0000 0.0000 0.0000 89.5172
#
#
#
# Elastic Compliance Matrix: (Units=1/GPa)
#
#
# Indices 1 2 3 4 5 6 
#
# 1 0.017333 -0.003341 -0.010807 0.000000 0.000000 0.000000
# 2 -0.003341 0.015666 -0.005169 0.000000 0.000000 0.000000
# 3 -0.010807 -0.005169 0.023606 0.000000 0.000000 0.000000
# 4 0.000000 0.000000 0.000000 0.048721 0.000000 0.000000
# 5 0.000000 0.000000 0.000000 0.000000 0.086207 0.000000
# 6 0.000000 0.000000 0.000000 0.000000 0.000000 0.011171
#
#
# Mechanical properties :
#
#
# Convention : Reuss Voigt Hill
#
# Bulk Modulus (GPa) = 55.64144 57.13582 56.38863
# Shear Modulus (GPa) = 20.21606 32.92586 26.57096
#
# Velocity S-wave (km/s) = 3.29048 4.19933 3.77238
# Velocity P-wave (km/s) = 6.65107 7.35617 7.01249
#
# Compressibility (1/GPa) = 0.01797221
#
# Stress axis : x y z
#
# Youngs Moduli (GPa) = 57.69317 63.83050 42.36291
#
# Poissons Ratio (x) = 0.21323 0.45780
# Poissons Ratio (y) = 0.19273 0.21898
# Poissons Ratio (z) = 0.62347 0.32996
#
# Static dielectric constant tensor:
#      x y z
#    x 3.549770 0.000000 0.000000 
#    y 0.000000 3.576490 0.000000 
#    z 0.000000 0.000000 3.501070 
# 
# 
# High freq. dielectric constant tensor:
#      x y z
#    x 1.726080 0.000000 0.000000 
#    y 0.000000 1.733150 0.000000 
#    z 0.000000 0.000000 1.710060 
# 
# From -- ./inp_files/33103.got.cif
#   From: 2010.03.12/outbox.cif.g09.slc.cpg/sg72_17_cif.got.tgz:33103.got - 2010.04.16 14:54:00.
