data_PCOD8294673
_publ_section_title
;
Structure prediction by ZEFSAII (Michael W. Deem and Ramdas Pophale) SiO2 
 PCOD8294673
Probable space group: I B A M
;
_chemical_formula_sum "Si O2"
_cell_formula_units_Z 112
_cell_length_a 16.417513
_cell_length_b 12.443481
_cell_length_c 26.507451
_cell_angle_alpha 90.000000
_cell_angle_beta 90.000000
_cell_angle_gamma 90.000000
_cell_volume 5415.233966
_symmetry_space_group_name_H-M "I B A M"
_symmetry_group_IT_number 72
_symmetry_cell_setting 'orthorhombic'
loop_
_space_group_symop_operation_xyz
x,y,z
-x,-y,z
x,-y,1/2-z
-x,y,1/2-z
-x,-y,-z
x,y,-z
-x,y,1/2+z
x,-y,1/2+z
1/2+x,1/2+y,1/2+z
1/2-x,1/2-y,1/2+z
1/2+x,1/2-y,-z
1/2-x,1/2+y,-z
1/2-x,1/2-y,1/2-z
1/2+x,1/2+y,1/2-z
1/2-x,1/2+y,z
1/2+x,1/2-y,z
loop_
_atom_site_type_symbol
_atom_site_label
_atom_site_fract_x
_atom_site_fract_y
_atom_site_fract_z
Si Si1 0.954736 0.893383 0.872070
Si Si2 0.109229 0.781426 0.157381
Si Si3 0.636753 0.054097 0.697567
Si Si4 0.091436 0.481998 0.092537
Si Si5 0.640626 0.751672 0.558099
Si Si6 0.676880 0.503151 0.192981
Si Si7 0.675017 0.187603 0.557341
O O1 0.924972 0.832363 0.921545
O O2 0.016210 0.821400 0.838657
O O3 0.877878 0.919823 0.837470
O O4 0.000000 0.000000 0.891201
O O5 0.121277 0.682391 0.195899
O O6 0.171447 0.875400 0.172524
O O7 0.123374 0.753260 0.098397
O O8 0.586576 0.000522 0.652512
O O9 0.731548 0.036045 0.687946
O O10 0.607895 0.000000 0.750000
O O11 0.127062 0.364288 0.085364
O O12 0.153704 0.562083 0.064326
O O13 0.000000 0.500000 0.070810
O O14 0.622354 0.768893 0.500000
O O15 0.730147 0.705594 0.568448
O O16 0.645479 0.500000 0.250000
O O17 0.653469 0.224063 0.500000
#
# Coordination Sequence:
#
# PCOD8294673 Si02
#       7
#    16  16  16  16  16  16  16
#     4  10  22  39  59  86 118 153 195 244 293 349
#     4  10  21  38  59  87 120 153 192 242 295 346
#     4  10  22  39  62  91 119 152 196 245 292 341
#     4  11  23  40  61  88 124 160 197 244 300 365
#     4  11  23  39  62  88 117 159 201 243 299 355
#     4  10  22  40  63  86 114 157 200 236 287 356
#     4  10  22  40  61  85 116 155 199 244 291 351
#
# _framework density 20.682393999999999
#
# number of rings (size 3 to 8) (size 9 to 14) (size 15 to 20)
#    0.000    1.714    0.000    4.714    0.000   10.571 
#    0.000    7.857    0.000    0.000    0.000    0.000 
#    0.000    0.000    0.000    0.000    0.000    0.000 
#
# Total GULP energy -694531.431544 kJ/mol
# GULP energy per Si atom -12402.346992 kJ/mol
# Density = 2.063532 g / cm^3
# Si number density = 20.682394 Si / 1000 Ang^3
#
#
#
# Elastic Constant Matrix: (Units=GPa)
#
#
# Indices 1 2 3 4 5 6 
#
# 1 87.5219 57.7811 15.5656 0.0000 0.0000 0.0000
# 2 57.7811 150.7237 47.5563 0.0000 0.0000 0.0000
# 3 15.5656 47.5563 83.0974 0.0000 0.0000 0.0000
# 4 0.0000 0.0000 0.0000 24.3216 0.0000 0.0000
# 5 0.0000 0.0000 0.0000 0.0000 16.2956 0.0000
# 6 0.0000 0.0000 0.0000 0.0000 0.0000 28.3646
#
#
#
# Elastic Compliance Matrix: (Units=1/GPa)
#
#
# Indices 1 2 3 4 5 6 
#
# 1 0.015322 -0.006063 0.000600 0.000000 0.000000 0.000000
# 2 -0.006063 0.010496 -0.004871 0.000000 0.000000 0.000000
# 3 0.000600 -0.004871 0.014709 0.000000 0.000000 0.000000
# 4 0.000000 0.000000 0.000000 0.041116 0.000000 0.000000
# 5 0.000000 0.000000 0.000000 0.000000 0.061366 0.000000
# 6 0.000000 0.000000 0.000000 0.000000 0.000000 0.035255
#
#
# Mechanical properties :
#
#
# Convention : Reuss Voigt Hill
#
# Bulk Modulus (GPa) = 50.35609 62.57210 56.46409
# Shear Modulus (GPa) = 24.32476 27.15904 25.74190
#
# Velocity S-wave (km/s) = 3.43317 3.62767 3.53176
# Velocity P-wave (km/s) = 6.33369 6.91853 6.63256
#
# Compressibility (1/GPa) = 0.01985857
#
# Stress axis : x y z
#
# Youngs Moduli (GPa) = 65.26667 95.27576 67.98373
#
# Poissons Ratio (x) = 0.57765 -0.04077
# Poissons Ratio (y) = 0.39571 0.33115
# Poissons Ratio (z) = -0.03915 0.46409
#
# Static dielectric constant tensor:
#      x y z
#    x 3.766440 0.000000 0.000000 
#    y 0.000000 3.855920 0.000000 
#    z 0.000000 0.000000 3.830050 
# 
# 
# High freq. dielectric constant tensor:
#      x y z
#    x 1.819020 0.000000 0.000000 
#    y 0.000000 1.817190 0.000000 
#    z 0.000000 0.000000 1.807850 
# 
# From -- ./inp_files/51782.got.cif
#   From: 2010.03.12/outbox.cif.g09.slc.cpg/sg72_26_cif.got.tgz:51782.got - 2010.04.16 14:54:00.
