data_PCOD8294192
_publ_section_title
;
Structure prediction by ZEFSAII (Michael W. Deem and Ramdas Pophale) SiO2 
 PCOD8294192
Probable space group: I B A M
;
_chemical_formula_sum "Si O2"
_cell_formula_units_Z 88
_cell_length_a 19.987219
_cell_length_b 10.041598
_cell_length_c 19.919517
_cell_angle_alpha 90.000000
_cell_angle_beta 90.000000
_cell_angle_gamma 90.000000
_cell_volume 3997.919137
_symmetry_space_group_name_H-M "I B A M"
_symmetry_group_IT_number 72
_symmetry_cell_setting 'orthorhombic'
loop_
_space_group_symop_operation_xyz
x,y,z
-x,-y,z
x,-y,1/2-z
-x,y,1/2-z
-x,-y,-z
x,y,-z
-x,y,1/2+z
x,-y,1/2+z
1/2+x,1/2+y,1/2+z
1/2-x,1/2-y,1/2+z
1/2+x,1/2-y,-z
1/2-x,1/2+y,-z
1/2-x,1/2-y,1/2-z
1/2+x,1/2+y,1/2-z
1/2-x,1/2+y,z
1/2+x,1/2-y,z
loop_
_atom_site_type_symbol
_atom_site_label
_atom_site_fract_x
_atom_site_fract_y
_atom_site_fract_z
Si Si1 0.258246 0.621503 0.158002
Si Si2 0.741267 0.367298 0.576502
Si Si3 0.500000 0.500000 0.395915
Si Si4 0.902412 0.113574 0.704321
Si Si5 0.884976 0.365483 0.211475
Si Si6 0.093478 0.767099 0.926675
O O1 0.236373 0.510216 0.104224
O O2 0.279773 0.755105 0.118771
O O3 0.324120 0.578221 0.196928
O O4 0.196101 0.642102 0.208838
O O5 0.764708 0.359103 0.500000
O O6 0.662894 0.342455 0.586614
O O7 0.446413 0.401132 0.361510
O O8 0.540583 0.386817 0.435356
O O9 0.913915 0.254049 0.739554
O O10 0.934217 0.000000 0.750000
O O11 0.907901 0.500000 0.250000
O O12 0.915698 0.338262 0.135733
O O13 0.094366 0.692768 0.000000
#
# Coordination Sequence:
#
# PCOD8294192 Si02
#       6
#    16  16   8  16  16  16
#     4  11  20  37  57  93 127 165 210 263 326 383
#     4  10  20  36  59  90 130 169 208 257 322 390
#     4  12  22  42  66  96 123 169 228 278 317 373
#     4  12  22  38  63  92 125 162 222 275 318 372
#     4  11  23  39  63  95 131 171 209 267 330 391
#     4  10  22  41  65  94 129 172 219 268 321 380
#
# _framework density 22.011451000000001
#
# number of rings (size 3 to 8) (size 9 to 14) (size 15 to 20)
#    0.000    1.091    3.636    4.364    0.000    0.727 
#    0.000    1.818    0.000    3.273    0.000    0.000 
#    0.000    0.000    0.000    0.000    0.000    0.000 
#
# Total GULP energy -545160.212382 kJ/mol
# GULP energy per Si atom -12390.004827 kJ/mol
# Density = 2.196135 g / cm^3
# Si number density = 22.011451 Si / 1000 Ang^3
#
#
#
# Elastic Constant Matrix: (Units=GPa)
#
#
# Indices 1 2 3 4 5 6 
#
# 1 52.6298 11.1938 17.8691 0.0000 0.0000 0.0000
# 2 11.1938 115.7546 49.5051 0.0000 0.0000 0.0000
# 3 17.8691 49.5051 117.5999 0.0000 0.0000 0.0000
# 4 0.0000 0.0000 0.0000 23.7933 0.0000 0.0000
# 5 0.0000 0.0000 0.0000 0.0000 11.2269 0.0000
# 6 0.0000 0.0000 0.0000 0.0000 0.0000 34.4049
#
#
#
# Elastic Compliance Matrix: (Units=1/GPa)
#
#
# Indices 1 2 3 4 5 6 
#
# 1 0.020091 -0.000777 -0.002726 0.000000 0.000000 0.000000
# 2 -0.000777 0.010566 -0.004330 0.000000 0.000000 0.000000
# 3 -0.002726 -0.004330 0.010740 0.000000 0.000000 0.000000
# 4 0.000000 0.000000 0.000000 0.042029 0.000000 0.000000
# 5 0.000000 0.000000 0.000000 0.000000 0.089072 0.000000
# 6 0.000000 0.000000 0.000000 0.000000 0.000000 0.029066
#
#
# Mechanical properties :
#
#
# Convention : Reuss Voigt Hill
#
# Bulk Modulus (GPa) = 38.86176 49.23559 44.04868
# Shear Modulus (GPa) = 22.14290 27.71277 24.92784
#
# Velocity S-wave (km/s) = 3.17515 3.55211 3.36891
# Velocity P-wave (km/s) = 5.57993 6.26419 5.93194
#
# Compressibility (1/GPa) = 0.02573224
#
# Stress axis : x y z
#
# Youngs Moduli (GPa) = 49.77259 94.64472 93.10790
#
# Poissons Ratio (x) = 0.07356 0.25378
# Poissons Ratio (y) = 0.03868 0.40313
# Poissons Ratio (z) = 0.13566 0.40979
#
# Static dielectric constant tensor:
#      x y z
#    x 3.753730 0.000000 0.000000 
#    y 0.000000 3.688310 0.000000 
#    z 0.000000 0.000000 4.083970 
# 
# 
# High freq. dielectric constant tensor:
#      x y z
#    x 1.850160 0.000000 0.000000 
#    y 0.000000 1.859870 0.000000 
#    z 0.000000 0.000000 1.870070 
# 
# From -- ./inp_files/45256.got.cif
#   From: 2010.03.12/outbox.cif.g09.slc.cpg/sg72_23_cif.got.tgz:45256.got - 2010.04.16 14:54:00.
