data_PCOD8294471
_publ_section_title
;
Structure prediction by ZEFSAII (Michael W. Deem and Ramdas Pophale) SiO2 
 PCOD8294471
Probable space group: I B A M
;
_chemical_formula_sum "Si O2"
_cell_formula_units_Z 128
_cell_length_a 12.255024
_cell_length_b 24.392556
_cell_length_c 21.630835
_cell_angle_alpha 90.000000
_cell_angle_beta 90.000000
_cell_angle_gamma 90.000000
_cell_volume 6466.134907
_symmetry_space_group_name_H-M "I B A M"
_symmetry_group_IT_number 72
_symmetry_cell_setting 'orthorhombic'
loop_
_space_group_symop_operation_xyz
x,y,z
-x,-y,z
x,-y,1/2-z
-x,y,1/2-z
-x,-y,-z
x,y,-z
-x,y,1/2+z
x,-y,1/2+z
1/2+x,1/2+y,1/2+z
1/2-x,1/2-y,1/2+z
1/2+x,1/2-y,-z
1/2-x,1/2+y,-z
1/2-x,1/2-y,1/2-z
1/2+x,1/2+y,1/2-z
1/2-x,1/2+y,z
1/2+x,1/2-y,z
loop_
_atom_site_type_symbol
_atom_site_label
_atom_site_fract_x
_atom_site_fract_y
_atom_site_fract_z
Si Si1 0.394325 0.532991 0.428289
Si Si2 0.442000 0.714177 0.849718
Si Si3 0.734433 0.314662 0.758836
Si Si4 0.749126 0.753080 0.570954
Si Si5 0.339485 0.999564 0.929145
Si Si6 0.080920 0.312571 0.346548
Si Si7 0.499715 0.090825 0.573483
Si Si8 0.847202 0.851513 0.629266
O O1 0.500000 0.500000 0.403405
O O2 0.411154 0.549296 0.500000
O O3 0.289650 0.493818 0.418902
O O4 0.364996 0.585912 0.388691
O O5 0.371856 0.678887 0.801471
O O6 0.370562 0.735565 0.907079
O O7 0.497837 0.767620 0.817978
O O8 0.532891 0.673579 0.874895
O O9 0.750000 0.250000 0.750000
O O10 0.844376 0.338513 0.791595
O O11 0.710164 0.347263 0.696285
O O12 0.759621 0.738367 0.500000
O O13 0.838939 0.718548 0.606946
O O14 0.768881 0.818247 0.582076
O O15 0.389446 0.941482 0.905221
O O16 0.398489 0.053430 0.903319
O O17 0.373098 0.998415 0.000000
O O18 0.008598 0.355540 0.384550
O O19 0.502207 0.105691 0.500000
#
# Coordination Sequence:
#
# PCOD8294471 Si02
#       8
#    16  16  16  16  16  16  16  16
#     4  10  22  39  59  86 118 157 201 243 298 359
#     4  10  21  35  55  81 115 155 190 236 290 356
#     4  11  20  38  56  79 110 151 202 241 284 346
#     4  10  21  34  50  82 120 151 185 235 298 355
#     4   8  17  34  56  81 115 150 186 234 289 356
#     4  10  21  33  55  82 114 150 192 237 290 355
#     4   9  17  32  56  86 114 147 187 238 302 355
#     4  11  22  37  59  81 116 155 201 246 286 349
#
# _framework density 19.795442000000001
#
# number of rings (size 3 to 8) (size 9 to 14) (size 15 to 20)
#    0.000    2.125    3.750    1.875    1.750    5.000 
#    0.000    1.250    0.000    5.250    0.000    1.750 
#    0.000    0.000    0.000    0.000    0.000    0.000 
#
# Total GULP energy -793195.828690 kJ/mol
# GULP energy per Si atom -12393.684823 kJ/mol
# Density = 1.975039 g / cm^3
# Si number density = 19.795442 Si / 1000 Ang^3
#
#
#
# Elastic Constant Matrix: (Units=GPa)
#
#
# Indices 1 2 3 4 5 6 
#
# 1 68.0254 -4.2332 7.5062 0.0000 0.0000 0.0000
# 2 -4.2332 50.6388 9.5163 0.0000 0.0000 0.0000
# 3 7.5062 9.5163 65.9432 0.0000 0.0000 0.0000
# 4 0.0000 0.0000 0.0000 23.9104 0.0000 0.0000
# 5 0.0000 0.0000 0.0000 0.0000 19.8840 0.0000
# 6 0.0000 0.0000 0.0000 0.0000 0.0000 24.2251
#
#
#
# Elastic Compliance Matrix: (Units=1/GPa)
#
#
# Indices 1 2 3 4 5 6 
#
# 1 0.015016 0.001620 -0.001943 0.000000 0.000000 0.000000
# 2 0.001620 0.020473 -0.003139 0.000000 0.000000 0.000000
# 3 -0.001943 -0.003139 0.015839 0.000000 0.000000 0.000000
# 4 0.000000 0.000000 0.000000 0.041823 0.000000 0.000000
# 5 0.000000 0.000000 0.000000 0.000000 0.050292 0.000000
# 6 0.000000 0.000000 0.000000 0.000000 0.000000 0.041280
#
#
# Mechanical properties :
#
#
# Convention : Reuss Voigt Hill
#
# Bulk Modulus (GPa) = 22.52036 23.35400 22.93718
# Shear Modulus (GPa) = 24.21942 25.05844 24.63893
#
# Velocity S-wave (km/s) = 3.50163 3.56177 3.53183
# Velocity P-wave (km/s) = 5.26781 5.36080 5.31451
#
# Compressibility (1/GPa) = 0.04440426
#
# Stress axis : x y z
#
# Youngs Moduli (GPa) = 66.59723 48.84469 63.13646
#
# Poissons Ratio (x) = -0.07915 0.12268
# Poissons Ratio (y) = -0.10791 0.19818
# Poissons Ratio (z) = 0.12940 0.15332
#
# Static dielectric constant tensor:
#      x y z
#    x 4.051050 0.000000 0.000000 
#    y 0.000000 3.396500 0.000000 
#    z 0.000000 0.000000 3.585840 
# 
# 
# High freq. dielectric constant tensor:
#      x y z
#    x 1.795270 0.000000 0.000000 
#    y 0.000000 1.745370 0.000000 
#    z 0.000000 0.000000 1.746980 
# 
# From -- ./inp_files/43712.got.cif
#   From: 2010.03.12/outbox.cif.g09.slc.cpg/sg72_22_cif.got.tgz:43712.got - 2010.04.16 14:54:00.
