data_PCOD8294529
_publ_section_title
;
Structure prediction by ZEFSAII (Michael W. Deem and Ramdas Pophale) SiO2 
 PCOD8294529
Probable space group: I B A M
;
_chemical_formula_sum "Si O2"
_cell_formula_units_Z 72
_cell_length_a 30.744104
_cell_length_b 11.669938
_cell_length_c 10.661708
_cell_angle_alpha 90.000000
_cell_angle_beta 90.000000
_cell_angle_gamma 90.000000
_cell_volume 3825.226655
_symmetry_space_group_name_H-M "I B A M"
_symmetry_group_IT_number 72
_symmetry_cell_setting 'orthorhombic'
loop_
_space_group_symop_operation_xyz
x,y,z
-x,-y,z
x,-y,1/2-z
-x,y,1/2-z
-x,-y,-z
x,y,-z
-x,y,1/2+z
x,-y,1/2+z
1/2+x,1/2+y,1/2+z
1/2-x,1/2-y,1/2+z
1/2+x,1/2-y,-z
1/2-x,1/2+y,-z
1/2-x,1/2-y,1/2-z
1/2+x,1/2+y,1/2-z
1/2-x,1/2+y,z
1/2+x,1/2-y,z
loop_
_atom_site_type_symbol
_atom_site_label
_atom_site_fract_x
_atom_site_fract_y
_atom_site_fract_z
Si Si1 0.476061 0.878354 0.637417
Si Si2 0.355347 0.413691 0.857539
Si Si3 0.691057 0.000000 0.250000
Si Si4 0.757192 0.158350 0.139621
Si Si5 0.120768 0.661637 0.142160
O O1 0.500000 0.807481 0.750000
O O2 0.479446 0.817196 0.500000
O O3 0.425768 0.893635 0.676274
O O4 0.500000 0.000000 0.628688
O O5 0.372040 0.500000 0.750000
O O6 0.304200 0.396157 0.842617
O O7 0.380997 0.296444 0.829406
O O8 0.365870 0.457278 0.000000
O O9 0.722337 0.054541 0.144423
O O10 0.660494 0.105117 0.286201
O O11 0.750000 0.250000 0.250000
O O12 0.753614 0.215116 0.000000
O O13 0.132427 0.637526 0.000000
#
# Coordination Sequence:
#
# PCOD8294529 Si02
#       5
#    16  16   8  16  16
#     4   9  17  32  54  80 110 141 169 210 274 341
#     4  10  21  39  57  78 109 153 196 238 281 327
#     4  12  20  34  55  84 112 148 197 236 282 328
#     4  11  23  36  53  76 110 154 196 238 282 332
#     4  10  21  36  55  82 117 149 182 230 288 338
#
# _framework density 18.822414999999999
#
# number of rings (size 3 to 8) (size 9 to 14) (size 15 to 20)
#    0.000    1.778    3.333    2.000    0.000    1.778 
#    0.000    2.222    0.000    0.667    0.000    4.667 
#    0.000    0.000    0.000    0.000    0.000    0.000 
#
# Total GULP energy -445981.369322 kJ/mol
# GULP energy per Si atom -12388.371370 kJ/mol
# Density = 1.877957 g / cm^3
# Si number density = 18.822415 Si / 1000 Ang^3
#
#
#
# Elastic Constant Matrix: (Units=GPa)
#
#
# Indices 1 2 3 4 5 6 
#
# 1 97.7723 30.8039 26.8057 0.0000 0.0000 0.0000
# 2 30.8039 59.9015 37.8288 0.0000 0.0000 0.0000
# 3 26.8057 37.8288 128.5642 0.0000 0.0000 0.0000
# 4 0.0000 0.0000 0.0000 29.1533 0.0000 0.0000
# 5 0.0000 0.0000 0.0000 0.0000 22.1792 0.0000
# 6 0.0000 0.0000 0.0000 0.0000 0.0000 19.2586
#
#
#
# Elastic Compliance Matrix: (Units=1/GPa)
#
#
# Indices 1 2 3 4 5 6 
#
# 1 0.012283 -0.005771 -0.000863 0.000000 0.000000 0.000000
# 2 -0.005771 0.023216 -0.005628 0.000000 0.000000 0.000000
# 3 -0.000863 -0.005628 0.009614 0.000000 0.000000 0.000000
# 4 0.000000 0.000000 0.000000 0.034301 0.000000 0.000000
# 5 0.000000 0.000000 0.000000 0.000000 0.045087 0.000000
# 6 0.000000 0.000000 0.000000 0.000000 0.000000 0.051925
#
#
# Mechanical properties :
#
#
# Convention : Reuss Voigt Hill
#
# Bulk Modulus (GPa) = 48.57001 53.01277 50.79139
# Shear Modulus (GPa) = 24.06007 26.83820 25.44914
#
# Velocity S-wave (km/s) = 3.57916 3.78016 3.68103
# Velocity P-wave (km/s) = 6.55293 6.87595 6.71638
#
# Compressibility (1/GPa) = 0.02058884
#
# Stress axis : x y z
#
# Youngs Moduli (GPa) = 81.41519 43.07370 104.01484
#
# Poissons Ratio (x) = 0.24860 0.08974
# Poissons Ratio (y) = 0.46988 0.58537
# Poissons Ratio (z) = 0.07024 0.24241
#
# Static dielectric constant tensor:
#      x y z
#    x 3.541130 0.000000 0.000000 
#    y 0.000000 3.291000 0.000000 
#    z 0.000000 0.000000 4.339900 
# 
# 
# High freq. dielectric constant tensor:
#      x y z
#    x 1.731320 0.000000 0.000000 
#    y 0.000000 1.694620 0.000000 
#    z 0.000000 0.000000 1.743760 
# 
# From -- ./inp_files/11623.got.cif
#   From: 2010.03.12/outbox.cif.g09.slc.cpg/sg72_6_cif.got.tgz:11623.got - 2010.04.16 14:54:00.
