data_PCOD8294331
_publ_section_title
;
Structure prediction by ZEFSAII (Michael W. Deem and Ramdas Pophale) SiO2 
 PCOD8294331
Probable space group: I B A M
;
_chemical_formula_sum "Si O2"
_cell_formula_units_Z 120
_cell_length_a 13.713986
_cell_length_b 15.842637
_cell_length_c 28.251107
_cell_angle_alpha 90.000000
_cell_angle_beta 90.000000
_cell_angle_gamma 90.000000
_cell_volume 6137.996595
_symmetry_space_group_name_H-M "I B A M"
_symmetry_group_IT_number 72
_symmetry_cell_setting 'orthorhombic'
loop_
_space_group_symop_operation_xyz
x,y,z
-x,-y,z
x,-y,1/2-z
-x,y,1/2-z
-x,-y,-z
x,y,-z
-x,y,1/2+z
x,-y,1/2+z
1/2+x,1/2+y,1/2+z
1/2-x,1/2-y,1/2+z
1/2+x,1/2-y,-z
1/2-x,1/2+y,-z
1/2-x,1/2-y,1/2-z
1/2+x,1/2+y,1/2-z
1/2-x,1/2+y,z
1/2+x,1/2-y,z
loop_
_atom_site_type_symbol
_atom_site_label
_atom_site_fract_x
_atom_site_fract_y
_atom_site_fract_z
Si Si1 0.360356 0.038666 0.649599
Si Si2 0.860821 0.385625 0.552053
Si Si3 0.360356 0.538666 0.649598
Si Si4 0.000000 0.750000 0.090154
Si Si5 0.000000 0.250000 0.750000
Si Si6 0.451758 0.366265 0.329463
Si Si7 0.860820 0.114375 0.052053
Si Si8 0.951758 0.366265 0.829463
O O1 0.380287 0.044287 0.592767
O O2 0.250000 0.065307 0.662398
O O3 0.435497 0.102248 0.674653
O O4 0.377650 0.944082 0.667968
O O5 0.880974 0.425862 0.500000
O O6 0.927892 0.303425 0.557549
O O7 0.750000 0.353523 0.555770
O O8 0.435497 0.602248 0.674653
O O9 0.377650 0.444082 0.667968
O O10 0.380287 0.544287 0.592767
O O11 0.935524 0.810977 0.123599
O O12 0.072109 0.803425 0.057549
O O13 0.064477 0.689023 0.123599
O O14 0.068322 0.190859 0.783178
O O15 0.068322 0.309141 0.716822
O O16 0.880973 0.074138 0.000000
#
# Coordination Sequence:
#
# PCOD8294331 Si02
#       8
#    16  16  16  16   8  16  16  16
#     4   9  18  34  53  73 101 133 166 202 243 292
#     4   9  17  30  49  73 102 136 170 203 238 281
#     4   9  18  34  53  73 101 133 166 202 243 292
#     4   9  17  31  49  72 102 132 165 203 247 291
#     4  10  20  38  56  72 102 124 158 212 250 304
#     4   9  19  35  53  73  97 131 163 202 255 294
#     4   9  17  30  49  73 102 136 170 203 238 281
#     4   9  19  35  53  73  97 131 163 202 255 294
#
# _framework density 19.550353000000001
#
# number of rings (size 3 to 8) (size 9 to 14) (size 15 to 20)
#    0.000    2.933    0.000    0.400    0.000    3.200 
#    0.000   20.000    0.000    3.200    0.000    0.000 
#    0.000    0.000    0.000    0.000    0.000    0.000 
#
# Total GULP energy -743620.263156 kJ/mol
# GULP energy per Si atom -12393.671053 kJ/mol
# Density = 1.950586 g / cm^3
# Si number density = 19.550353 Si / 1000 Ang^3
#
#
#
# Elastic Constant Matrix: (Units=GPa)
#
#
# Indices 1 2 3 4 5 6 
#
# 1 74.5129 18.4414 25.2025 0.0000 0.0000 0.0000
# 2 18.4414 91.8660 43.3637 0.0000 0.0000 0.0000
# 3 25.2025 43.3637 106.9066 0.0000 0.0000 0.0000
# 4 0.0000 0.0000 0.0000 26.8383 0.0000 0.0000
# 5 0.0000 0.0000 0.0000 0.0000 15.0486 0.0000
# 6 0.0000 0.0000 0.0000 0.0000 0.0000 19.8402
#
#
#
# Elastic Compliance Matrix: (Units=1/GPa)
#
#
# Indices 1 2 3 4 5 6 
#
# 1 0.014779 -0.001635 -0.002821 0.000000 0.000000 0.000000
# 2 -0.001635 0.013644 -0.005149 0.000000 0.000000 0.000000
# 3 -0.002821 -0.005149 0.012107 0.000000 0.000000 0.000000
# 4 0.000000 0.000000 0.000000 0.037260 0.000000 0.000000
# 5 0.000000 0.000000 0.000000 0.000000 0.066451 0.000000
# 6 0.000000 0.000000 0.000000 0.000000 0.000000 0.050403
#
#
# Mechanical properties :
#
#
# Convention : Reuss Voigt Hill
#
# Bulk Modulus (GPa) = 46.90227 49.70007 48.30117
# Shear Modulus (GPa) = 22.62835 24.76396 23.69616
#
# Velocity S-wave (km/s) = 3.40581 3.56290 3.48524
# Velocity P-wave (km/s) = 6.28559 6.51172 6.39965
#
# Compressibility (1/GPa) = 0.02132093
#
# Stress axis : x y z
#
# Youngs Moduli (GPa) = 67.66221 73.29165 82.59394
#
# Poissons Ratio (x) = 0.11986 0.23298
# Poissons Ratio (y) = 0.11065 0.42526
# Poissons Ratio (z) = 0.19086 0.37737
#
# Static dielectric constant tensor:
#      x y z
#    x 3.361310 0.000000 0.000000 
#    y 0.000000 3.546610 0.000000 
#    z 0.000000 0.000000 3.651200 
# 
# 
# High freq. dielectric constant tensor:
#      x y z
#    x 1.738130 0.000000 0.000000 
#    y 0.000000 1.753100 0.000000 
#    z 0.000000 0.000000 1.762590 
# 
# From -- ./inp_files/51910.got.cif
#   From: 2010.03.12/outbox.cif.g09.slc.cpg/sg72_26_cif.got.tgz:51910.got - 2010.04.16 14:54:00.
