data_PCOD8294387
_publ_section_title
;
Structure prediction by ZEFSAII (Michael W. Deem and Ramdas Pophale) SiO2 
 PCOD8294387
Probable space group: I B A M
;
_chemical_formula_sum "Si O2"
_cell_formula_units_Z 52
_cell_length_a 14.356826
_cell_length_b 8.551722
_cell_length_c 18.569878
_cell_angle_alpha 90.000000
_cell_angle_beta 90.000000
_cell_angle_gamma 90.000000
_cell_volume 2279.927630
_symmetry_space_group_name_H-M "I B A M"
_symmetry_group_IT_number 72
_symmetry_cell_setting 'orthorhombic'
loop_
_space_group_symop_operation_xyz
x,y,z
-x,-y,z
x,-y,1/2-z
-x,y,1/2-z
-x,-y,-z
x,y,-z
-x,y,1/2+z
x,-y,1/2+z
1/2+x,1/2+y,1/2+z
1/2-x,1/2-y,1/2+z
1/2+x,1/2-y,-z
1/2-x,1/2+y,-z
1/2-x,1/2-y,1/2-z
1/2+x,1/2+y,1/2-z
1/2-x,1/2+y,z
1/2+x,1/2-y,z
loop_
_atom_site_type_symbol
_atom_site_label
_atom_site_fract_x
_atom_site_fract_y
_atom_site_fract_z
Si Si1 0.621276 0.849362 0.630145
Si Si2 0.500000 0.000000 0.250000
Si Si3 0.713977 0.165913 0.415035
Si Si4 0.038318 0.156436 0.419265
O O1 0.694287 0.703808 0.632790
O O2 0.537036 0.795872 0.578834
O O3 0.570709 0.889940 0.705301
O O4 0.680248 0.989694 0.596506
O O5 0.734603 0.189857 0.500000
O O6 0.633166 0.279969 0.384087
O O7 0.064565 0.108117 0.500000
O O8 0.000000 0.000000 0.378730
#
# Coordination Sequence:
#
# PCOD8294387 Si02
#       4
#    16   4  16  16
#     4  12  24  45  67 102 141 189 238 281 348 422
#     4  12  28  48  68  92 150 208 238 266 332 436
#     4  11  22  39  70 103 132 173 231 307 363 395
#     4  10  20  38  66 102 137 171 226 298 364 410
#
# _framework density 22.807742000000001
#
# number of rings (size 3 to 8) (size 9 to 14) (size 15 to 20)
#    0.000    0.923    3.077    4.615    0.000    6.154 
#    0.000    0.769    0.000    0.000    0.000    0.000 
#    0.000    0.000    0.000    0.000    0.000    0.000 
#
# Total GULP energy -322154.081347 kJ/mol
# GULP energy per Si atom -12390.541590 kJ/mol
# Density = 2.275583 g / cm^3
# Si number density = 22.807742 Si / 1000 Ang^3
#
#
#
# Elastic Constant Matrix: (Units=GPa)
#
#
# Indices 1 2 3 4 5 6 
#
# 1 161.5039 32.1092 45.1668 0.0000 0.0000 0.0000
# 2 32.1092 78.9854 34.4818 0.0000 0.0000 0.0000
# 3 45.1668 34.4818 55.9780 0.0000 0.0000 0.0000
# 4 0.0000 0.0000 0.0000 19.5824 0.0000 0.0000
# 5 0.0000 0.0000 0.0000 0.0000 30.7616 0.0000
# 6 0.0000 0.0000 0.0000 0.0000 0.0000 51.5501
#
#
#
# Elastic Compliance Matrix: (Units=1/GPa)
#
#
# Indices 1 2 3 4 5 6 
#
# 1 0.008017 -0.000595 -0.006102 0.000000 0.000000 0.000000
# 2 -0.000595 0.017362 -0.010214 0.000000 0.000000 0.000000
# 3 -0.006102 -0.010214 0.029079 0.000000 0.000000 0.000000
# 4 0.000000 0.000000 0.000000 0.051066 0.000000 0.000000
# 5 0.000000 0.000000 0.000000 0.000000 0.032508 0.000000
# 6 0.000000 0.000000 0.000000 0.000000 0.000000 0.019399
#
#
# Mechanical properties :
#
#
# Convention : Reuss Voigt Hill
#
# Bulk Modulus (GPa) = 48.46103 57.77588 53.11845
# Shear Modulus (GPa) = 25.23576 32.69278 28.96427
#
# Velocity S-wave (km/s) = 3.32995 3.79014 3.56748
# Velocity P-wave (km/s) = 6.00654 6.67385 6.34897
#
# Compressibility (1/GPa) = 0.02063514
#
# Stress axis : x y z
#
# Youngs Moduli (GPa) = 124.74213 57.59802 34.38865
#
# Poissons Ratio (x) = 0.03428 0.20983
# Poissons Ratio (y) = 0.07424 0.35126
# Poissons Ratio (z) = 0.76114 0.58833
#
# Static dielectric constant tensor:
#      x y z
#    x 4.543200 0.000000 0.000000 
#    y 0.000000 4.484490 0.000000 
#    z 0.000000 0.000000 3.531500 
# 
# 
# High freq. dielectric constant tensor:
#      x y z
#    x 1.930870 0.000000 0.000000 
#    y 0.000000 1.914100 0.000000 
#    z 0.000000 0.000000 1.835510 
# 
# From -- ./inp_files/35165.got.cif
#   From: 2010.03.12/outbox.cif.g09.slc.cpg/sg72_18_cif.got.tgz:35165.got - 2010.04.16 14:54:00.
