data_PCOD8294240
_publ_section_title
;
Structure prediction by ZEFSAII (Michael W. Deem and Ramdas Pophale) SiO2 
 PCOD8294240
Probable space group: I B A M
;
_chemical_formula_sum "Si O2"
_cell_formula_units_Z 56
_cell_length_a 17.605591
_cell_length_b 8.709690
_cell_length_c 18.260927
_cell_angle_alpha 90.000000
_cell_angle_beta 90.000000
_cell_angle_gamma 90.000000
_cell_volume 2800.116666
_symmetry_space_group_name_H-M "I B A M"
_symmetry_group_IT_number 72
_symmetry_cell_setting 'orthorhombic'
loop_
_space_group_symop_operation_xyz
x,y,z
-x,-y,z
x,-y,1/2-z
-x,y,1/2-z
-x,-y,-z
x,y,-z
-x,y,1/2+z
x,-y,1/2+z
1/2+x,1/2+y,1/2+z
1/2-x,1/2-y,1/2+z
1/2+x,1/2-y,-z
1/2-x,1/2+y,-z
1/2-x,1/2-y,1/2-z
1/2+x,1/2+y,1/2-z
1/2-x,1/2+y,z
1/2+x,1/2-y,z
loop_
_atom_site_type_symbol
_atom_site_label
_atom_site_fract_x
_atom_site_fract_y
_atom_site_fract_z
Si Si1 0.335306 0.017692 0.832691
Si Si2 0.376919 0.526750 0.500000
Si Si3 0.480269 0.748223 0.000000
Si Si4 0.263464 0.297722 0.082046
Si Si5 0.500000 0.000000 0.880612
O O1 0.298545 0.167643 0.867573
O O2 0.426409 0.032788 0.831305
O O3 0.305636 0.000000 0.750000
O O4 0.310623 0.868928 0.879702
O O5 0.402627 0.350434 0.500000
O O6 0.448157 0.638752 0.500000
O O7 0.326343 0.565600 0.427686
O O8 0.481682 0.851666 0.928474
O O9 0.243763 0.231417 0.000000
#
# Coordination Sequence:
#
# PCOD8294240 Si02
#       5
#    16   8   8  16   8
#     4  12  25  42  61  93 132 169 207 267 335 388
#     4   9  20  38  64  96 125 150 225 266 308 366
#     4  10  20  36  66  97 123 167 210 279 305 366
#     4  10  23  41  65  93 123 164 222 264 314 389
#     4  11  23  38  64  92 130 170 218 254 328 388
#
# _framework density 19.999168000000001
#
# number of rings (size 3 to 8) (size 9 to 14) (size 15 to 20)
#    0.857    0.571    2.857    2.143   10.000    0.000 
#    0.000    0.000    0.000    0.000    0.000    0.000 
#    0.000    0.000    0.000    0.000    0.000    0.000 
#
# Total GULP energy -347122.637208 kJ/mol
# GULP energy per Si atom -12397.237043 kJ/mol
# Density = 1.995365 g / cm^3
# Si number density = 19.999168 Si / 1000 Ang^3
#
#
#
# Elastic Constant Matrix: (Units=GPa)
#
#
# Indices 1 2 3 4 5 6 
#
# 1 107.1609 44.3519 40.4239 0.0000 0.0000 0.0000
# 2 44.3519 102.2359 53.2864 0.0000 0.0000 0.0000
# 3 40.4239 53.2864 140.9061 0.0000 0.0000 0.0000
# 4 0.0000 0.0000 0.0000 20.0817 0.0000 0.0000
# 5 0.0000 0.0000 0.0000 0.0000 24.8431 0.0000
# 6 0.0000 0.0000 0.0000 0.0000 0.0000 38.4389
#
#
#
# Elastic Compliance Matrix: (Units=1/GPa)
#
#
# Indices 1 2 3 4 5 6 
#
# 1 0.011727 -0.004152 -0.001794 0.000000 0.000000 0.000000
# 2 -0.004152 0.013653 -0.003972 0.000000 0.000000 0.000000
# 3 -0.001794 -0.003972 0.009114 0.000000 0.000000 0.000000
# 4 0.000000 0.000000 0.000000 0.049797 0.000000 0.000000
# 5 0.000000 0.000000 0.000000 0.000000 0.040253 0.000000
# 6 0.000000 0.000000 0.000000 0.000000 0.000000 0.026015
#
#
# Mechanical properties :
#
#
# Convention : Reuss Voigt Hill
#
# Bulk Modulus (GPa) = 68.22632 69.60303 68.91467
# Shear Modulus (GPa) = 28.52572 30.82211 29.67391
#
# Velocity S-wave (km/s) = 3.78080 3.93003 3.85614
# Velocity P-wave (km/s) = 7.29711 7.44796 7.37292
#
# Compressibility (1/GPa) = 0.01465710
#
# Stress axis : x y z
#
# Youngs Moduli (GPa) = 85.27248 73.24478 109.72572
#
# Poissons Ratio (x) = 0.30414 0.19685
# Poissons Ratio (y) = 0.35408 0.43581
# Poissons Ratio (z) = 0.15298 0.29092
#
# Static dielectric constant tensor:
#      x y z
#    x 3.773360 0.000000 0.000000 
#    y 0.000000 3.636980 0.000000 
#    z 0.000000 0.000000 3.375380 
# 
# 
# High freq. dielectric constant tensor:
#      x y z
#    x 1.797640 0.000000 0.000000 
#    y 0.000000 1.785760 0.000000 
#    z 0.000000 0.000000 1.757630 
# 
# From -- ./inp_files/31129.got.cif
#   From: 2010.03.12/outbox.cif.g09.slc.cpg/sg72_16_cif.got.tgz:31129.got - 2010.04.16 14:54:00.
