data_PCOD8294802
_publ_section_title
;
Structure prediction by ZEFSAII (Michael W. Deem and Ramdas Pophale) SiO2 
 PCOD8294802
Probable space group: I B A M
;
_chemical_formula_sum "Si O2"
_cell_formula_units_Z 116
_cell_length_a 21.696767
_cell_length_b 18.133426
_cell_length_c 14.804946
_cell_angle_alpha 90.000000
_cell_angle_beta 90.000000
_cell_angle_gamma 90.000000
_cell_volume 5824.809377
_symmetry_space_group_name_H-M "I B A M"
_symmetry_group_IT_number 72
_symmetry_cell_setting 'orthorhombic'
loop_
_space_group_symop_operation_xyz
x,y,z
-x,-y,z
x,-y,1/2-z
-x,y,1/2-z
-x,-y,-z
x,y,-z
-x,y,1/2+z
x,-y,1/2+z
1/2+x,1/2+y,1/2+z
1/2-x,1/2-y,1/2+z
1/2+x,1/2-y,-z
1/2-x,1/2+y,-z
1/2-x,1/2-y,1/2-z
1/2+x,1/2+y,1/2-z
1/2-x,1/2+y,z
1/2+x,1/2-y,z
loop_
_atom_site_type_symbol
_atom_site_label
_atom_site_fract_x
_atom_site_fract_y
_atom_site_fract_z
Si Si1 0.304448 0.136546 0.599851
Si Si2 0.593579 0.028155 0.154546
Si Si3 0.818352 0.768610 0.214986
Si Si4 0.943652 0.753242 0.680802
Si Si5 0.425307 0.593693 0.395998
Si Si6 0.307195 0.418432 0.788565
Si Si7 0.500000 0.500000 0.250000
Si Si8 0.479058 0.896958 0.400469
O O1 0.275659 0.139293 0.500000
O O2 0.360030 0.079130 0.599894
O O3 0.325897 0.220829 0.623414
O O4 0.258138 0.105262 0.673425
O O5 0.531979 0.077955 0.170214
O O6 0.620293 0.000000 0.250000
O O7 0.576931 0.955536 0.097526
O O8 0.750000 0.750000 0.250000
O O9 0.875694 0.743594 0.276774
O O10 0.824400 0.858505 0.209001
O O11 0.946308 0.822042 0.612690
O O12 0.952292 0.681934 0.621027
O O13 0.000000 0.762708 0.750000
O O14 0.437692 0.567178 0.500000
O O15 0.353333 0.585820 0.373257
O O16 0.458982 0.547703 0.317738
O O17 0.304935 0.500000 0.750000
O O18 0.509000 0.895237 0.500000
#
# Coordination Sequence:
#
# PCOD8294802 Si02
#       8
#    16  16  16  16  16  16   4  16
#     4  11  21  37  59  87 119 159 208 256 300 366
#     4  11  21  35  54  80 117 164 202 243 305 360
#     4   9  21  39  59  83 117 160 196 244 311 369
#     4  11  21  37  61  86 118 159 204 251 309 369
#     4  11  23  41  64  91 120 158 200 250 317 385
#     4  10  21  40  65  87 119 157 202 257 312 374
#     4  12  22  44  64  90 124 154 186 254 324 378
#     4  11  21  34  53  84 120 155 198 256 300 356
#
# _framework density 19.914814
#
# number of rings (size 3 to 8) (size 9 to 14) (size 15 to 20)
#    0.000    1.379    1.379    6.414    0.000    1.103 
#    0.000    2.759    0.000    0.000    0.000    0.000 
#    0.000    0.000    0.000    0.000    0.000    0.000 
#
# Total GULP energy -718586.498315 kJ/mol
# GULP energy per Si atom -12389.422385 kJ/mol
# Density = 1.986949 g / cm^3
# Si number density = 19.914814 Si / 1000 Ang^3
#
#
#
# Elastic Constant Matrix: (Units=GPa)
#
#
# Indices 1 2 3 4 5 6 
#
# 1 82.3529 30.2324 29.2922 0.0000 0.0000 0.0000
# 2 30.2324 167.7210 57.7722 0.0000 0.0000 0.0000
# 3 29.2922 57.7722 102.2222 0.0000 0.0000 0.0000
# 4 0.0000 0.0000 0.0000 13.7885 0.0000 0.0000
# 5 0.0000 0.0000 0.0000 0.0000 19.8744 0.0000
# 6 0.0000 0.0000 0.0000 0.0000 0.0000 31.4473
#
#
#
# Elastic Compliance Matrix: (Units=1/GPa)
#
#
# Indices 1 2 3 4 5 6 
#
# 1 0.013779 -0.001395 -0.003160 0.000000 0.000000 0.000000
# 2 -0.001395 0.007545 -0.003864 0.000000 0.000000 0.000000
# 3 -0.003160 -0.003864 0.012872 0.000000 0.000000 0.000000
# 4 0.000000 0.000000 0.000000 0.072524 0.000000 0.000000
# 5 0.000000 0.000000 0.000000 0.000000 0.050316 0.000000
# 6 0.000000 0.000000 0.000000 0.000000 0.000000 0.031799
#
#
# Mechanical properties :
#
#
# Convention : Reuss Voigt Hill
#
# Bulk Modulus (GPa) = 57.61339 65.20996 61.41167
# Shear Modulus (GPa) = 23.64516 28.68866 26.16691
#
# Velocity S-wave (km/s) = 3.44948 3.79960 3.62877
# Velocity P-wave (km/s) = 6.69761 7.21560 6.96142
#
# Compressibility (1/GPa) = 0.01735708
#
# Stress axis : x y z
#
# Youngs Moduli (GPa) = 72.57402 132.54087 77.68794
#
# Poissons Ratio (x) = 0.18493 0.24548
# Poissons Ratio (y) = 0.10126 0.30020
# Poissons Ratio (z) = 0.22932 0.51217
#
# Static dielectric constant tensor:
#      x y z
#    x 3.751490 0.000000 0.000000 
#    y 0.000000 3.995120 0.000000 
#    z 0.000000 0.000000 3.398940 
# 
# 
# High freq. dielectric constant tensor:
#      x y z
#    x 1.780470 0.000000 0.000000 
#    y 0.000000 1.794060 0.000000 
#    z 0.000000 0.000000 1.758290 
# 
# From -- ./inp_files/25386.got.cif
#   From: 2010.03.12/outbox.cif.g09.slc.cpg/sg72_13_cif.got.tgz:25386.got - 2010.04.16 14:54:00.
