data_PCOD8294758
_publ_section_title
;
Structure prediction by ZEFSAII (Michael W. Deem and Ramdas Pophale) SiO2 
 PCOD8294758
Probable space group: I B A M
;
_chemical_formula_sum "Si O2"
_cell_formula_units_Z 80
_cell_length_a 15.858018
_cell_length_b 8.999642
_cell_length_c 24.623050
_cell_angle_alpha 90.000000
_cell_angle_beta 90.000000
_cell_angle_gamma 90.000000
_cell_volume 3514.115142
_symmetry_space_group_name_H-M "I B A M"
_symmetry_group_IT_number 72
_symmetry_cell_setting 'orthorhombic'
loop_
_space_group_symop_operation_xyz
x,y,z
-x,-y,z
x,-y,1/2-z
-x,y,1/2-z
-x,-y,-z
x,y,-z
-x,y,1/2+z
x,-y,1/2+z
1/2+x,1/2+y,1/2+z
1/2-x,1/2-y,1/2+z
1/2+x,1/2-y,-z
1/2-x,1/2+y,-z
1/2-x,1/2-y,1/2-z
1/2+x,1/2+y,1/2-z
1/2-x,1/2+y,z
1/2+x,1/2-y,z
loop_
_atom_site_type_symbol
_atom_site_label
_atom_site_fract_x
_atom_site_fract_y
_atom_site_fract_z
Si Si1 0.362964 0.937298 0.805839
Si Si2 0.677916 0.341068 0.060252
Si Si3 0.533357 0.851033 0.591335
Si Si4 0.776595 0.732960 0.662552
Si Si5 0.079305 0.091173 0.376475
O O1 0.436833 0.895574 0.847325
O O2 0.301666 0.791836 0.800347
O O3 0.403496 0.000000 0.750000
O O4 0.299360 0.065548 0.824205
O O5 0.609100 0.210547 0.055595
O O6 0.750382 0.276519 0.099011
O O7 0.631900 0.487625 0.082925
O O8 0.714044 0.373282 0.000000
O O9 0.457575 0.733169 0.592171
O O10 0.500000 0.000000 0.562673
O O11 0.856560 0.844792 0.668924
O O12 0.000000 0.000000 0.350223
#
# Coordination Sequence:
#
# PCOD8294758 Si02
#       5
#    16  16  16  16  16
#     4  11  23  40  67  93 124 169 216 260 321 379
#     4  10  23  41  65  92 123 169 212 253 317 383
#     4  10  21  39  63  90 128 162 202 265 311 372
#     4  11  21  42  64  93 128 163 211 273 308 373
#     4  10  21  40  63  86 132 168 201 255 324 370
#
# _framework density 22.765332000000001
#
# number of rings (size 3 to 8) (size 9 to 14) (size 15 to 20)
#    0.000    1.600    4.000    0.600    0.000    5.200 
#    0.000    0.000    0.000    0.000    0.000    0.000 
#    0.000    0.000    0.000    0.000    0.000    0.000 
#
# Total GULP energy -495645.164460 kJ/mol
# GULP energy per Si atom -12391.129112 kJ/mol
# Density = 2.271352 g / cm^3
# Si number density = 22.765332 Si / 1000 Ang^3
#
#
#
# Elastic Constant Matrix: (Units=GPa)
#
#
# Indices 1 2 3 4 5 6 
#
# 1 64.4724 26.1801 -2.3815 0.0000 0.0000 0.0000
# 2 26.1801 119.0578 -9.3719 0.0000 0.0000 0.0000
# 3 -2.3815 -9.3719 63.8912 0.0000 0.0000 0.0000
# 4 0.0000 0.0000 0.0000 21.0181 0.0000 0.0000
# 5 0.0000 0.0000 0.0000 0.0000 10.7605 0.0000
# 6 0.0000 0.0000 0.0000 0.0000 0.0000 39.9015
#
#
#
# Elastic Compliance Matrix: (Units=1/GPa)
#
#
# Indices 1 2 3 4 5 6 
#
# 1 0.017032 -0.003738 0.000086 0.000000 0.000000 0.000000
# 2 -0.003738 0.009318 0.001227 0.000000 0.000000 0.000000
# 3 0.000086 0.001227 0.015835 0.000000 0.000000 0.000000
# 4 0.000000 0.000000 0.000000 0.047578 0.000000 0.000000
# 5 0.000000 0.000000 0.000000 0.000000 0.092933 0.000000
# 6 0.000000 0.000000 0.000000 0.000000 0.000000 0.025062
#
#
# Mechanical properties :
#
#
# Convention : Reuss Voigt Hill
#
# Bulk Modulus (GPa) = 26.78402 30.69721 28.74062
# Shear Modulus (GPa) = 22.21715 29.86898 26.04307
#
# Velocity S-wave (km/s) = 3.12736 3.62614 3.38595
# Velocity P-wave (km/s) = 4.98310 5.57183 5.28567
#
# Compressibility (1/GPa) = 0.03733570
#
# Stress axis : x y z
#
# Youngs Moduli (GPa) = 58.71392 107.31977 63.15175
#
# Poissons Ratio (x) = 0.40120 -0.00546
# Poissons Ratio (y) = 0.21949 -0.07752
# Poissons Ratio (z) = -0.00508 -0.13173
#
# Static dielectric constant tensor:
#      x y z
#    x 4.135170 0.000000 0.000000 
#    y 0.000000 4.465480 0.000000 
#    z 0.000000 0.000000 3.725440 
# 
# 
# High freq. dielectric constant tensor:
#      x y z
#    x 1.904600 0.000000 0.000000 
#    y 0.000000 1.923360 0.000000 
#    z 0.000000 0.000000 1.848400 
# 
# From -- ./inp_files/47153.got.cif
#   From: 2010.03.12/outbox.cif.g09.slc.cpg/sg72_24_cif.got.tgz:47153.got - 2010.04.16 14:54:00.
