data_PCOD8294543
_publ_section_title
;
Structure prediction by ZEFSAII (Michael W. Deem and Ramdas Pophale) SiO2 
 PCOD8294543
Probable space group: I B A M
;
_chemical_formula_sum "Si O2"
_cell_formula_units_Z 96
_cell_length_a 10.870751
_cell_length_b 23.279024
_cell_length_c 18.180092
_cell_angle_alpha 90.000000
_cell_angle_beta 90.000000
_cell_angle_gamma 90.000000
_cell_volume 4600.662688
_symmetry_space_group_name_H-M "I B A M"
_symmetry_group_IT_number 72
_symmetry_cell_setting 'orthorhombic'
loop_
_space_group_symop_operation_xyz
x,y,z
-x,-y,z
x,-y,1/2-z
-x,y,1/2-z
-x,-y,-z
x,y,-z
-x,y,1/2+z
x,-y,1/2+z
1/2+x,1/2+y,1/2+z
1/2-x,1/2-y,1/2+z
1/2+x,1/2-y,-z
1/2-x,1/2+y,-z
1/2-x,1/2-y,1/2-z
1/2+x,1/2+y,1/2-z
1/2-x,1/2+y,z
1/2+x,1/2-y,z
loop_
_atom_site_type_symbol
_atom_site_label
_atom_site_fract_x
_atom_site_fract_y
_atom_site_fract_z
Si Si1 0.947491 0.128628 0.831546
Si Si2 0.230504 0.310520 0.085625
Si Si3 0.304056 0.079166 0.916399
Si Si4 0.793285 0.981468 0.667432
Si Si5 0.838341 0.813505 0.916637
Si Si6 0.580367 0.081276 0.084105
O O1 0.829702 0.166309 0.855384
O O2 0.911242 0.060840 0.841235
O O3 0.000000 0.140579 0.750000
O O4 0.052623 0.148499 0.885386
O O5 0.188924 0.248719 0.118153
O O6 0.110698 0.351014 0.087793
O O7 0.280203 0.307198 0.000000
O O8 0.282106 0.147166 0.906898
O O9 0.442556 0.068517 0.887673
O O10 0.197913 0.042026 0.875521
O O11 0.293107 0.060362 0.000000
O O12 0.670493 0.951977 0.637814
O O13 0.774308 0.000000 0.750000
O O14 0.874248 0.801558 0.000000
O O15 0.597715 0.059573 0.000000
#
# Coordination Sequence:
#
# PCOD8294543 Si02
#       6
#    16  16  16  16  16  16
#     4  11  24  41  60  85 122 164 204 246 300 360
#     4   9  20  39  65  90 118 156 203 254 302 356
#     4  10  21  36  58  90 123 153 195 253 307 357
#     4  11  23  39  59  83 117 163 206 246 295 356
#     4  10  22  38  62  92 119 156 203 250 303 364
#     4   9  19  37  61  89 119 154 197 253 309 351
#
# _framework density 20.866558000000001
#
# number of rings (size 3 to 8) (size 9 to 14) (size 15 to 20)
#    0.000    2.000    0.000    2.500    2.333    7.667 
#    0.000    1.667    0.000    0.000    0.000    0.000 
#    0.000    0.000    0.000    0.000    0.000    0.000 
#
# Total GULP energy -594722.292786 kJ/mol
# GULP energy per Si atom -12390.047766 kJ/mol
# Density = 2.081907 g / cm^3
# Si number density = 20.866558 Si / 1000 Ang^3
#
#
#
# Elastic Constant Matrix: (Units=GPa)
#
#
# Indices 1 2 3 4 5 6 
#
# 1 68.6153 28.7881 30.8051 0.0000 0.0000 0.0000
# 2 28.7881 137.8955 50.3113 0.0000 0.0000 0.0000
# 3 30.8051 50.3113 56.5951 0.0000 0.0000 0.0000
# 4 0.0000 0.0000 0.0000 47.6954 0.0000 0.0000
# 5 0.0000 0.0000 0.0000 0.0000 46.1399 0.0000
# 6 0.0000 0.0000 0.0000 0.0000 0.0000 27.5263
#
#
#
# Elastic Compliance Matrix: (Units=1/GPa)
#
#
# Indices 1 2 3 4 5 6 
#
# 1 0.019295 -0.000291 -0.010244 0.000000 0.000000 0.000000
# 2 -0.000291 0.010737 -0.009387 0.000000 0.000000 0.000000
# 3 -0.010244 -0.009387 0.031590 0.000000 0.000000 0.000000
# 4 0.000000 0.000000 0.000000 0.020966 0.000000 0.000000
# 5 0.000000 0.000000 0.000000 0.000000 0.021673 0.000000
# 6 0.000000 0.000000 0.000000 0.000000 0.000000 0.036329
#
#
# Mechanical properties :
#
#
# Convention : Reuss Voigt Hill
#
# Bulk Modulus (GPa) = 45.91562 53.65719 49.78640
# Shear Modulus (GPa) = 26.63906 34.48574 30.56240
#
# Velocity S-wave (km/s) = 3.57688 4.06973 3.83124
# Velocity P-wave (km/s) = 6.25388 6.91765 6.59412
#
# Compressibility (1/GPa) = 0.02177908
#
# Stress axis : x y z
#
# Youngs Moduli (GPa) = 51.82672 93.13234 31.65550
#
# Poissons Ratio (x) = 0.02707 0.32428
# Poissons Ratio (y) = 0.01506 0.29715
# Poissons Ratio (z) = 0.53092 0.87424
#
# Static dielectric constant tensor:
#      x y z
#    x 4.179650 0.000000 0.000000 
#    y 0.000000 4.204550 0.000000 
#    z 0.000000 0.000000 3.763330 
# 
# 
# High freq. dielectric constant tensor:
#      x y z
#    x 1.811830 0.000000 0.000000 
#    y 0.000000 1.838190 0.000000 
#    z 0.000000 0.000000 1.799550 
# 
# From -- ./inp_files/29436.got.cif
#   From: 2010.03.12/outbox.cif.g09.slc.cpg/sg72_15_cif.got.tgz:29436.got - 2010.04.16 14:54:00.
