data_PCOD8294204
_publ_section_title
;
Structure prediction by ZEFSAII (Michael W. Deem and Ramdas Pophale) SiO2 
 PCOD8294204
Probable space group: I B A M
;
_chemical_formula_sum "Si O2"
_cell_formula_units_Z 96
_cell_length_a 9.854566
_cell_length_b 20.174149
_cell_length_c 23.485043
_cell_angle_alpha 90.000000
_cell_angle_beta 90.000000
_cell_angle_gamma 90.000000
_cell_volume 4669.002283
_symmetry_space_group_name_H-M "I B A M"
_symmetry_group_IT_number 72
_symmetry_cell_setting 'orthorhombic'
loop_
_space_group_symop_operation_xyz
x,y,z
-x,-y,z
x,-y,1/2-z
-x,y,1/2-z
-x,-y,-z
x,y,-z
-x,y,1/2+z
x,-y,1/2+z
1/2+x,1/2+y,1/2+z
1/2-x,1/2-y,1/2+z
1/2+x,1/2-y,-z
1/2-x,1/2+y,-z
1/2-x,1/2-y,1/2-z
1/2+x,1/2+y,1/2-z
1/2-x,1/2+y,z
1/2+x,1/2-y,z
loop_
_atom_site_type_symbol
_atom_site_label
_atom_site_fract_x
_atom_site_fract_y
_atom_site_fract_z
Si Si1 0.048357 0.795397 0.814471
Si Si2 0.358479 0.128055 0.436468
Si Si3 0.170463 0.618035 0.935511
Si Si4 0.785727 0.757647 0.121878
Si Si5 0.155054 0.505568 0.355767
Si Si6 0.583801 0.444605 0.690986
O O1 0.179403 0.749043 0.825619
O O2 0.082814 0.870745 0.834016
O O3 0.000000 0.790262 0.750000
O O4 0.934135 0.764898 0.853567
O O5 0.309751 0.112837 0.500000
O O6 0.517287 0.143584 0.433579
O O7 0.274993 0.191024 0.414716
O O8 0.326798 0.062901 0.401387
O O9 0.261790 0.680205 0.918836
O O10 0.196337 0.561426 0.888412
O O11 0.206645 0.594032 0.000000
O O12 0.261177 0.525793 0.305290
O O13 0.000000 0.500000 0.331917
O O14 0.500000 0.500000 0.653684
O O15 0.500000 0.440705 0.750000
#
# Coordination Sequence:
#
# PCOD8294204 Si02
#       6
#    16  16  16  16  16  16
#     4  11  24  40  63  90 121 167 212 260 320 375
#     4  10  20  36  60  88 123 162 204 255 315 372
#     4  10  21  37  61  93 125 160 208 258 315 375
#     4  12  21  40  61  90 124 165 205 262 315 374
#     4  10  20  38  64  90 122 166 213 258 307 374
#     4  10  21  40  62  88 126 168 203 257 324 372
#
# _framework density 20.561138
#
# number of rings (size 3 to 8) (size 9 to 14) (size 15 to 20)
#    0.000    1.500    3.333    2.500    0.000    2.000 
#    0.000    1.667    0.000    2.000    0.000    0.000 
#    0.000    0.000    0.000    0.000    0.000    0.000 
#
# Total GULP energy -594764.678465 kJ/mol
# GULP energy per Si atom -12390.930801 kJ/mol
# Density = 2.051434 g / cm^3
# Si number density = 20.561138 Si / 1000 Ang^3
#
#
#
# Elastic Constant Matrix: (Units=GPa)
#
#
# Indices 1 2 3 4 5 6 
#
# 1 111.5300 38.7519 36.2812 0.0000 0.0000 0.0000
# 2 38.7519 105.8917 23.5020 0.0000 0.0000 0.0000
# 3 36.2812 23.5020 71.5567 0.0000 0.0000 0.0000
# 4 0.0000 0.0000 0.0000 22.3645 0.0000 0.0000
# 5 0.0000 0.0000 0.0000 0.0000 16.9650 0.0000
# 6 0.0000 0.0000 0.0000 0.0000 0.0000 26.3478
#
#
#
# Elastic Compliance Matrix: (Units=1/GPa)
#
#
# Indices 1 2 3 4 5 6 
#
# 1 0.011655 -0.003186 -0.004863 0.000000 0.000000 0.000000
# 2 -0.003186 0.011057 -0.002016 0.000000 0.000000 0.000000
# 3 -0.004863 -0.002016 0.017103 0.000000 0.000000 0.000000
# 4 0.000000 0.000000 0.000000 0.044714 0.000000 0.000000
# 5 0.000000 0.000000 0.000000 0.000000 0.058945 0.000000
# 6 0.000000 0.000000 0.000000 0.000000 0.000000 0.037954
#
#
# Mechanical properties :
#
#
# Convention : Reuss Voigt Hill
#
# Bulk Modulus (GPa) = 50.80129 54.00540 52.40335
# Shear Modulus (GPa) = 24.02467 25.83169 24.92818
#
# Velocity S-wave (km/s) = 3.42197 3.54833 3.48572
# Velocity P-wave (km/s) = 6.35407 6.56584 6.46083
#
# Compressibility (1/GPa) = 0.01968454
#
# Stress axis : x y z
#
# Youngs Moduli (GPa) = 85.79887 90.44031 58.46983
#
# Poissons Ratio (x) = 0.28814 0.28434
# Poissons Ratio (y) = 0.27335 0.11789
# Poissons Ratio (z) = 0.41725 0.18235
#
# Static dielectric constant tensor:
#      x y z
#    x 3.973160 0.000000 0.000000 
#    y 0.000000 4.241740 0.000000 
#    z 0.000000 0.000000 3.571240 
# 
# 
# High freq. dielectric constant tensor:
#      x y z
#    x 1.805850 0.000000 0.000000 
#    y 0.000000 1.822520 0.000000 
#    z 0.000000 0.000000 1.781160 
# 
# From -- ./inp_files/42449.got.cif
#   From: 2010.03.12/outbox.cif.g09.slc.cpg/sg72_22_cif.got.tgz:42449.got - 2010.04.16 14:54:00.
