data_PCOD8294381
_publ_section_title
;
Structure prediction by ZEFSAII (Michael W. Deem and Ramdas Pophale) SiO2 
 PCOD8294381
Probable space group: I B A M
;
_chemical_formula_sum "Si O2"
_cell_formula_units_Z 80
_cell_length_a 24.168489
_cell_length_b 8.221286
_cell_length_c 18.324053
_cell_angle_alpha 90.000000
_cell_angle_beta 90.000000
_cell_angle_gamma 90.000000
_cell_volume 3640.917139
_symmetry_space_group_name_H-M "I B A M"
_symmetry_group_IT_number 72
_symmetry_cell_setting 'orthorhombic'
loop_
_space_group_symop_operation_xyz
x,y,z
-x,-y,z
x,-y,1/2-z
-x,y,1/2-z
-x,-y,-z
x,y,-z
-x,y,1/2+z
x,-y,1/2+z
1/2+x,1/2+y,1/2+z
1/2-x,1/2-y,1/2+z
1/2+x,1/2-y,-z
1/2-x,1/2+y,-z
1/2-x,1/2-y,1/2-z
1/2+x,1/2+y,1/2-z
1/2-x,1/2+y,z
1/2+x,1/2-y,z
loop_
_atom_site_type_symbol
_atom_site_label
_atom_site_fract_x
_atom_site_fract_y
_atom_site_fract_z
Si Si1 0.073163 0.317016 0.085635
Si Si2 0.980596 0.185676 0.824699
Si Si3 0.118039 0.597849 0.825709
Si Si4 0.323156 0.380854 0.584959
Si Si5 0.292205 0.263712 0.086174
O O1 0.080568 0.491424 0.121155
O O2 0.120276 0.193689 0.118085
O O3 0.011879 0.256914 0.104926
O O4 0.079328 0.334381 0.000000
O O5 0.915003 0.228027 0.824637
O O6 0.000000 0.273182 0.750000
O O7 0.000000 0.000000 0.821758
O O8 0.127027 0.500000 0.750000
O O9 0.176621 0.630516 0.864395
O O10 0.332063 0.404100 0.500000
O O11 0.309501 0.559141 0.616069
O O12 0.273020 0.257182 0.601159
O O13 0.305208 0.236005 0.000000
#
# Coordination Sequence:
#
# PCOD8294381 Si02
#       5
#    16  16  16  16  16
#     4  11  23  40  66  95 123 161 213 265 313 379
#     4  11  24  43  65  87 124 169 208 258 325 380
#     4  12  24  40  62  92 127 168 210 263 317 384
#     4   9  19  38  64  96 128 164 209 263 319 371
#     4  10  20  38  64  91 128 169 210 260 317 379
#
# _framework density 21.972484999999999
#
# number of rings (size 3 to 8) (size 9 to 14) (size 15 to 20)
#    0.000    1.400    2.000    3.600    0.000    6.000 
#    0.000    4.000    0.000    0.000    0.000    0.000 
#    0.000    0.000    0.000    0.000    0.000    0.000 
#
# Total GULP energy -495688.477758 kJ/mol
# GULP energy per Si atom -12392.211944 kJ/mol
# Density = 2.192247 g / cm^3
# Si number density = 21.972485 Si / 1000 Ang^3
#
#
#
# Elastic Constant Matrix: (Units=GPa)
#
#
# Indices 1 2 3 4 5 6 
#
# 1 86.5524 9.7030 25.4598 0.0000 0.0000 0.0000
# 2 9.7030 81.1633 26.4561 0.0000 0.0000 0.0000
# 3 25.4598 26.4561 82.9144 0.0000 0.0000 0.0000
# 4 0.0000 0.0000 0.0000 23.9001 0.0000 0.0000
# 5 0.0000 0.0000 0.0000 0.0000 19.9196 0.0000
# 6 0.0000 0.0000 0.0000 0.0000 0.0000 34.1226
#
#
#
# Elastic Compliance Matrix: (Units=1/GPa)
#
#
# Indices 1 2 3 4 5 6 
#
# 1 0.012706 -0.000276 -0.003814 0.000000 0.000000 0.000000
# 2 -0.000276 0.013757 -0.004305 0.000000 0.000000 0.000000
# 3 -0.003814 -0.004305 0.014605 0.000000 0.000000 0.000000
# 4 0.000000 0.000000 0.000000 0.041841 0.000000 0.000000
# 5 0.000000 0.000000 0.000000 0.000000 0.050202 0.000000
# 6 0.000000 0.000000 0.000000 0.000000 0.000000 0.029306
#
#
# Mechanical properties :
#
#
# Convention : Reuss Voigt Hill
#
# Bulk Modulus (GPa) = 41.18630 41.54088 41.36359
# Shear Modulus (GPa) = 26.69521 28.18919 27.44220
#
# Velocity S-wave (km/s) = 3.48938 3.58569 3.53786
# Velocity P-wave (km/s) = 5.91773 6.00748 5.96277
#
# Compressibility (1/GPa) = 0.02427992
#
# Stress axis : x y z
#
# Youngs Moduli (GPa) = 78.70035 72.69006 68.46869
#
# Poissons Ratio (x) = 0.02006 0.26111
# Poissons Ratio (y) = 0.02172 0.29475
# Poissons Ratio (z) = 0.30013 0.31292
#
# Static dielectric constant tensor:
#      x y z
#    x 4.001700 0.000000 0.000000 
#    y 0.000000 4.118930 0.000000 
#    z 0.000000 0.000000 4.016080 
# 
# 
# High freq. dielectric constant tensor:
#      x y z
#    x 1.867390 0.000000 0.000000 
#    y 0.000000 1.870440 0.000000 
#    z 0.000000 0.000000 1.844470 
# 
# From -- ./inp_files/33795.got.cif
#   From: 2010.03.12/outbox.cif.g09.slc.cpg/sg72_17_cif.got.tgz:33795.got - 2010.04.16 14:54:00.
