data_PCOD8294842
_publ_section_title
;
Structure prediction by ZEFSAII (Michael W. Deem and Ramdas Pophale) SiO2 
 PCOD8294842
Probable space group: I B A M
;
_chemical_formula_sum "Si O2"
_cell_formula_units_Z 116
_cell_length_a 9.738318
_cell_length_b 27.059224
_cell_length_c 21.514971
_cell_angle_alpha 90.000000
_cell_angle_beta 90.000000
_cell_angle_gamma 90.000000
_cell_volume 5669.438583
_symmetry_space_group_name_H-M "I B A M"
_symmetry_group_IT_number 72
_symmetry_cell_setting 'orthorhombic'
loop_
_space_group_symop_operation_xyz
x,y,z
-x,-y,z
x,-y,1/2-z
-x,y,1/2-z
-x,-y,-z
x,y,-z
-x,y,1/2+z
x,-y,1/2+z
1/2+x,1/2+y,1/2+z
1/2-x,1/2-y,1/2+z
1/2+x,1/2-y,-z
1/2-x,1/2+y,-z
1/2-x,1/2-y,1/2-z
1/2+x,1/2+y,1/2-z
1/2-x,1/2+y,z
1/2+x,1/2-y,z
loop_
_atom_site_type_symbol
_atom_site_label
_atom_site_fract_x
_atom_site_fract_y
_atom_site_fract_z
Si Si1 0.662823 0.649805 0.735214
Si Si2 0.181870 0.566501 0.162557
Si Si3 0.234013 0.789374 0.380701
Si Si4 0.535191 0.143337 0.425465
Si Si5 0.758245 0.673763 0.866199
Si Si6 0.378617 0.463354 0.430051
Si Si7 0.500000 0.000000 0.750000
Si Si8 0.007907 0.145395 0.932025
O O1 0.500000 0.646721 0.750000
O O2 0.713447 0.599290 0.703429
O O3 0.692123 0.694722 0.688527
O O4 0.763069 0.662366 0.792949
O O5 0.262893 0.526002 0.121163
O O6 0.087896 0.536108 0.208100
O O7 0.097430 0.597567 0.111919
O O8 0.383740 0.807652 0.403385
O O9 0.236044 0.730892 0.383451
O O10 0.120442 0.811398 0.427145
O O11 0.545834 0.135434 0.500000
O O12 0.377831 0.147050 0.404257
O O13 0.612605 0.650750 0.883492
O O14 0.500000 0.500000 0.414019
O O15 0.324712 0.472788 0.500000
O O16 0.419188 0.406516 0.420341
O O17 0.941639 0.147709 0.000000
#
# Coordination Sequence:
#
# PCOD8294842 Si02
#       8
#    16  16  16  16  16  16   4  16
#     4  11  22  42  66  90 127 172 222 266 321 382
#     4  11  24  45  65  91 127 172 206 267 334 391
#     4  11  23  40  63  93 132 176 217 267 320 386
#     4  11  24  42  65  92 132 174 209 257 331 394
#     4  12  24  38  61  98 133 171 222 267 316 379
#     4  10  21  41  71  99 122 159 217 275 334 392
#     4  12  28  44  64  96 128 160 220 268 328 404
#     4  11  22  41  64  91 130 170 218 272 320 389
#
# _framework density 20.460581000000001
#
# number of rings (size 3 to 8) (size 9 to 14) (size 15 to 20)
#    0.000    0.966    4.138    3.310    0.000    8.276 
#    0.000    2.759    0.000    0.000    0.000    0.000 
#    0.000    0.000    0.000    0.000    0.000    0.000 
#
# Total GULP energy -719127.805284 kJ/mol
# GULP energy per Si atom -12398.755264 kJ/mol
# Density = 2.041401 g / cm^3
# Si number density = 20.460581 Si / 1000 Ang^3
#
#
#
# Elastic Constant Matrix: (Units=GPa)
#
#
# Indices 1 2 3 4 5 6 
#
# 1 96.1642 19.1225 53.4542 0.0000 0.0000 0.0000
# 2 19.1225 50.1802 56.2195 0.0000 0.0000 0.0000
# 3 53.4542 56.2195 143.2248 -0.0003 0.0001 -0.0001
# 4 0.0000 0.0000 -0.0003 15.6733 0.0001 0.0000
# 5 0.0000 0.0000 0.0001 0.0001 47.8455 0.0000
# 6 0.0000 0.0000 -0.0001 0.0000 0.0000 23.9901
#
#
#
# Elastic Compliance Matrix: (Units=1/GPa)
#
#
# Indices 1 2 3 4 5 6 
#
# 1 0.013142 0.000869 -0.005246 0.000000 0.000000 0.000000
# 2 0.000869 0.035629 -0.014310 0.000000 0.000000 0.000000
# 3 -0.005246 -0.014310 0.014557 0.000000 0.000000 0.000000
# 4 0.000000 0.000000 0.000000 0.063803 0.000000 0.000000
# 5 0.000000 0.000000 0.000000 0.000000 0.020901 0.000000
# 6 0.000000 0.000000 0.000000 0.000000 0.000000 0.041684
#
#
# Mechanical properties :
#
#
# Convention : Reuss Voigt Hill
#
# Bulk Modulus (GPa) = 38.52835 60.79574 49.66204
# Shear Modulus (GPa) = 21.20981 28.21996 24.71489
#
# Velocity S-wave (km/s) = 3.22315 3.71784 3.47929
# Velocity P-wave (km/s) = 5.72040 6.94319 6.36124
#
# Compressibility (1/GPa) = 0.02595491
#
# Stress axis : x y z
#
# Youngs Moduli (GPa) = 76.09101 28.06713 68.69573
#
# Poissons Ratio (x) = -0.02440 0.36039
# Poissons Ratio (y) = -0.06615 0.98302
# Poissons Ratio (z) = 0.39918 0.40163
#
# Static dielectric constant tensor:
#      x y z
#    x 3.766920 0.000000 0.000000 
#    y 0.000000 3.522320 0.000000 
#    z 0.000000 0.000000 4.077890 
# 
# 
# High freq. dielectric constant tensor:
#      x y z
#    x 1.805410 0.000000 0.000000 
#    y 0.000000 1.789010 0.000000 
#    z 0.000000 0.000000 1.824510 
# 
# From -- ./inp_files/42758.got.cif
#   From: 2010.03.12/outbox.cif.g09.slc.cpg/sg72_22_cif.got.tgz:42758.got - 2010.04.16 14:54:00.
