data_PCOD8294691
_publ_section_title
;
Structure prediction by ZEFSAII (Michael W. Deem and Ramdas Pophale) SiO2 
 PCOD8294691
Probable space group: I B A M
;
_chemical_formula_sum "Si O2"
_cell_formula_units_Z 64
_cell_length_a 35.169446
_cell_length_b 5.050676
_cell_length_c 16.387885
_cell_angle_alpha 90.000000
_cell_angle_beta 90.000000
_cell_angle_gamma 90.000000
_cell_volume 2910.971439
_symmetry_space_group_name_H-M "I B A M"
_symmetry_group_IT_number 72
_symmetry_cell_setting 'orthorhombic'
loop_
_space_group_symop_operation_xyz
x,y,z
-x,-y,z
x,-y,1/2-z
-x,y,1/2-z
-x,-y,-z
x,y,-z
-x,y,1/2+z
x,-y,1/2+z
1/2+x,1/2+y,1/2+z
1/2-x,1/2-y,1/2+z
1/2+x,1/2-y,-z
1/2-x,1/2+y,-z
1/2-x,1/2-y,1/2-z
1/2+x,1/2+y,1/2-z
1/2-x,1/2+y,z
1/2+x,1/2-y,z
loop_
_atom_site_type_symbol
_atom_site_label
_atom_site_fract_x
_atom_site_fract_y
_atom_site_fract_z
Si Si1 0.644677 0.607175 0.660376
Si Si2 0.225547 0.135218 0.094533
Si Si3 0.606283 0.120977 0.406333
Si Si4 0.522636 0.749324 0.902916
O O1 0.636302 0.500000 0.750000
O O2 0.688539 0.686836 0.649029
O O3 0.635360 0.366497 0.598901
O O4 0.619282 0.867165 0.645562
O O5 0.242727 0.851085 0.116596
O O6 0.213726 0.159144 0.000000
O O7 0.603273 0.027266 0.500000
O O8 0.565984 0.228114 0.372020
O O9 0.500000 0.500000 0.865553
O O10 0.500000 0.000000 0.870263
O O11 0.522702 0.731256 0.000000
#
# Coordination Sequence:
#
# PCOD8294691 Si02
#       4
#    16  16  16  16
#     4  12  25  40  60  90 128 164 202 253 312 372
#     4  10  21  38  61  87 116 154 203 256 307 365
#     4  11  22  39  64  90 121 163 209 255 306 370
#     4   9  17  31  55  88 118 146 193 253 299 340
#
# _framework density 21.985789
#
# number of rings (size 3 to 8) (size 9 to 14) (size 15 to 20)
#    0.000    1.500    0.000    6.000    0.000    7.000 
#    0.000    0.000    0.000   11.250    0.000    0.000 
#    0.000    0.000    0.000    0.000    0.000    1.000 
#
# Total GULP energy -396926.295316 kJ/mol
# GULP energy per Si atom -12403.946729 kJ/mol
# Density = 2.193575 g / cm^3
# Si number density = 21.985789 Si / 1000 Ang^3
#
#
#
# Elastic Constant Matrix: (Units=GPa)
#
#
# Indices 1 2 3 4 5 6 
#
# 1 140.4940 60.0468 42.6969 0.0000 0.0000 0.0000
# 2 60.0468 162.7242 28.3108 0.0000 0.0000 0.0000
# 3 42.6969 28.3108 48.7592 0.0000 0.0000 0.0000
# 4 0.0000 0.0000 0.0000 19.3883 0.0000 0.0000
# 5 0.0000 0.0000 0.0000 0.0000 10.8007 0.0000
# 6 0.0000 0.0000 0.0000 0.0000 0.0000 42.9205
#
#
#
# Elastic Compliance Matrix: (Units=1/GPa)
#
#
# Indices 1 2 3 4 5 6 
#
# 1 0.010570 -0.002547 -0.007777 0.000000 0.000000 0.000000
# 2 -0.002547 0.007450 -0.002095 0.000000 0.000000 0.000000
# 3 -0.007777 -0.002095 0.028535 0.000000 0.000000 0.000000
# 4 0.000000 0.000000 0.000000 0.051578 0.000000 0.000000
# 5 0.000000 0.000000 0.000000 0.000000 0.092587 0.000000
# 6 0.000000 0.000000 0.000000 0.000000 0.000000 0.023299
#
#
# Mechanical properties :
#
#
# Convention : Reuss Voigt Hill
#
# Bulk Modulus (GPa) = 46.04703 68.23183 57.13943
# Shear Modulus (GPa) = 20.31740 29.35009 24.83374
#
# Velocity S-wave (km/s) = 3.04322 3.65767 3.36450
# Velocity P-wave (km/s) = 5.77389 6.99571 6.41396
#
# Compressibility (1/GPa) = 0.02171693
#
# Stress axis : x y z
#
# Youngs Moduli (GPa) = 94.60876 134.23078 35.04468
#
# Poissons Ratio (x) = 0.34194 0.27253
# Poissons Ratio (y) = 0.24101 0.07341
# Poissons Ratio (z) = 0.73573 0.28120
#
# Static dielectric constant tensor:
#      x y z
#    x 4.168250 0.000000 0.000000 
#    y 0.000000 4.101510 0.000000 
#    z 0.000000 0.000000 3.536880 
# 
# 
# High freq. dielectric constant tensor:
#      x y z
#    x 1.876620 0.000000 0.000000 
#    y 0.000000 1.881820 0.000000 
#    z 0.000000 0.000000 1.828110 
# 
# From -- ./inp_files/27034.got.cif
#   From: 2010.03.12/outbox.cif.g09.slc.cpg/sg72_14_cif.got.tgz:27034.got - 2010.04.16 14:54:00.
