data_PCOD8294261
_publ_section_title
;
Structure prediction by ZEFSAII (Michael W. Deem and Ramdas Pophale) SiO2 
 PCOD8294261
Probable space group: I B A M
;
_chemical_formula_sum "Si O2"
_cell_formula_units_Z 128
_cell_length_a 11.522315
_cell_length_b 23.800512
_cell_length_c 25.010767
_cell_angle_alpha 90.000000
_cell_angle_beta 90.000000
_cell_angle_gamma 90.000000
_cell_volume 6858.877620
_symmetry_space_group_name_H-M "I B A M"
_symmetry_group_IT_number 72
_symmetry_cell_setting 'orthorhombic'
loop_
_space_group_symop_operation_xyz
x,y,z
-x,-y,z
x,-y,1/2-z
-x,y,1/2-z
-x,-y,-z
x,y,-z
-x,y,1/2+z
x,-y,1/2+z
1/2+x,1/2+y,1/2+z
1/2-x,1/2-y,1/2+z
1/2+x,1/2-y,-z
1/2-x,1/2+y,-z
1/2-x,1/2-y,1/2-z
1/2+x,1/2+y,1/2-z
1/2-x,1/2+y,z
1/2+x,1/2-y,z
loop_
_atom_site_type_symbol
_atom_site_label
_atom_site_fract_x
_atom_site_fract_y
_atom_site_fract_z
Si Si1 0.442583 0.940622 0.852995
Si Si2 0.845825 0.632894 0.656525
Si Si3 0.278679 0.587037 0.059231
Si Si4 0.422709 0.367965 0.802228
Si Si5 0.734522 0.040546 0.939833
Si Si6 0.481720 0.437168 0.099767
Si Si7 0.124778 0.254768 0.281040
Si Si8 0.720833 0.937524 0.258678
O O1 0.528822 0.888948 0.860291
O O2 0.344377 0.928178 0.896708
O O3 0.398348 0.941027 0.791838
O O4 0.500000 0.000000 0.865745
O O5 0.763918 0.630741 0.604290
O O6 0.856475 0.696375 0.676193
O O7 0.794233 0.592668 0.702227
O O8 0.224593 0.525968 0.071389
O O9 0.417351 0.580355 0.059177
O O10 0.242074 0.608164 0.000000
O O11 0.500000 0.374183 0.750000
O O12 0.491157 0.392594 0.852268
O O13 0.391082 0.303191 0.812818
O O14 0.306848 0.403573 0.796163
O O15 0.863081 0.065240 0.933079
O O16 0.692680 0.054018 0.000000
O O17 0.500000 0.500000 0.123207
O O18 0.250000 0.250000 0.250000
O O19 0.000000 0.266150 0.250000
O O20 0.770598 0.000000 0.250000
#
# Coordination Sequence:
#
# PCOD8294261 Si02
#       8
#    16  16  16  16  16  16  16  16
#     4  12  22  35  53  90 126 163 199 247 307 369
#     4  12  24  39  62  87 123 164 204 248 309 366
#     4  10  21  38  61  90 122 161 207 255 307 369
#     4  11  24  37  59  89 124 159 202 250 305 368
#     4  10  20  37  58  87 127 166 205 249 307 374
#     4  10  21  36  58  90 124 157 201 251 316 370
#     4  11  25  45  63  90 123 168 215 251 302 377
#     4  12  22  34  56  90 127 158 193 245 310 376
#
# _framework density 18.661943999999998
#
# number of rings (size 3 to 8) (size 9 to 14) (size 15 to 20)
#    0.000    1.000    5.000    2.250    5.250    2.250 
#    0.000    0.000    0.000    1.500    0.000    0.000 
#    0.000    0.000    0.000    0.000    0.000    0.000 
#
# Total GULP energy -793440.479153 kJ/mol
# GULP energy per Si atom -12397.507487 kJ/mol
# Density = 1.861947 g / cm^3
# Si number density = 18.661944 Si / 1000 Ang^3
#
#
#
# Elastic Constant Matrix: (Units=GPa)
#
#
# Indices 1 2 3 4 5 6 
#
# 1 96.1687 32.4554 33.7336 0.0000 0.0000 0.0000
# 2 32.4554 115.5457 42.6117 0.0000 0.0000 0.0000
# 3 33.7336 42.6117 110.3456 0.0000 0.0000 0.0000
# 4 0.0000 0.0000 0.0000 17.2457 0.0000 0.0000
# 5 0.0000 0.0000 0.0000 0.0000 21.7113 0.0000
# 6 0.0000 0.0000 0.0000 0.0000 0.0000 10.2826
#
#
#
# Elastic Compliance Matrix: (Units=1/GPa)
#
#
# Indices 1 2 3 4 5 6 
#
# 1 0.012188 -0.002390 -0.002803 0.000000 0.000000 0.000000
# 2 -0.002390 0.010560 -0.003347 0.000000 0.000000 0.000000
# 3 -0.002803 -0.003347 0.011212 0.000000 0.000000 0.000000
# 4 0.000000 0.000000 0.000000 0.057985 0.000000 0.000000
# 5 0.000000 0.000000 0.000000 0.000000 0.046059 0.000000
# 6 0.000000 0.000000 0.000000 0.000000 0.000000 0.097252
#
#
# Mechanical properties :
#
#
# Convention : Reuss Voigt Hill
#
# Bulk Modulus (GPa) = 59.24250 59.96240 59.60245
# Shear Modulus (GPa) = 19.38254 24.06521 21.72388
#
# Velocity S-wave (km/s) = 3.22625 3.59490 3.41555
# Velocity P-wave (km/s) = 6.75960 7.03077 6.89652
#
# Compressibility (1/GPa) = 0.01687977
#
# Stress axis : x y z
#
# Youngs Moduli (GPa) = 82.04671 94.69391 89.18946
#
# Poissons Ratio (x) = 0.22629 0.25002
# Poissons Ratio (y) = 0.19607 0.29856
# Poissons Ratio (z) = 0.22999 0.31699
#
# Static dielectric constant tensor:
#      x y z
#    x 4.096340 0.000000 0.000000 
#    y 0.000000 3.344970 0.000000 
#    z 0.000000 0.000000 3.344260 
# 
# 
# High freq. dielectric constant tensor:
#      x y z
#    x 1.741900 0.000000 0.000000 
#    y 0.000000 1.697920 0.000000 
#    z 0.000000 0.000000 1.717450 
# 
# From -- ./inp_files/43691.got.cif
#   From: 2010.03.12/outbox.cif.g09.slc.cpg/sg72_22_cif.got.tgz:43691.got - 2010.04.16 14:54:00.
