data_PCOD8294873
_publ_section_title
;
Structure prediction by ZEFSAII (Michael W. Deem and Ramdas Pophale) SiO2 
 PCOD8294873
Probable space group: I B A M
;
_chemical_formula_sum "Si O2"
_cell_formula_units_Z 80
_cell_length_a 11.959605
_cell_length_b 19.209024
_cell_length_c 17.115941
_cell_angle_alpha 90.000000
_cell_angle_beta 90.000000
_cell_angle_gamma 90.000000
_cell_volume 3932.085168
_symmetry_space_group_name_H-M "I B A M"
_symmetry_group_IT_number 72
_symmetry_cell_setting 'orthorhombic'
loop_
_space_group_symop_operation_xyz
x,y,z
-x,-y,z
x,-y,1/2-z
-x,y,1/2-z
-x,-y,-z
x,y,-z
-x,y,1/2+z
x,-y,1/2+z
1/2+x,1/2+y,1/2+z
1/2-x,1/2-y,1/2+z
1/2+x,1/2-y,-z
1/2-x,1/2+y,-z
1/2-x,1/2-y,1/2-z
1/2+x,1/2+y,1/2-z
1/2-x,1/2+y,z
1/2+x,1/2-y,z
loop_
_atom_site_type_symbol
_atom_site_label
_atom_site_fract_x
_atom_site_fract_y
_atom_site_fract_z
Si Si1 0.106275 0.219297 0.500000
Si Si2 0.987248 0.634867 0.500000
Si Si3 0.107660 0.853617 0.500000
Si Si4 0.603189 0.048408 0.128113
Si Si5 0.762263 0.226890 0.628282
Si Si6 0.780671 0.537981 0.500000
Si Si7 0.869330 0.662689 0.240336
O O1 0.182664 0.222957 0.423080
O O2 0.016926 0.282354 0.500000
O O3 0.028665 0.149616 0.500000
O O4 0.053291 0.610437 0.575990
O O5 0.860611 0.605823 0.500000
O O6 0.150809 0.815901 0.577361
O O7 0.153245 0.933585 0.500000
O O8 0.658733 0.086224 0.203209
O O9 0.500000 0.000000 0.154535
O O10 0.695429 0.006802 0.078010
O O11 0.830125 0.274601 0.686553
O O12 0.689360 0.169400 0.675400
O O13 0.000000 0.670241 0.250000
#
# Coordination Sequence:
#
# PCOD8294873 Si02
#       7
#     8   8   8  16  16   8  16
#     4  11  20  36  63  84 108 159 203 235 298 348
#     4   9  14  31  52  77 114 143 197 241 292 355
#     4  11  20  35  57  77 115 159 197 248 292 339
#     4   9  19  32  54  82 115 157 183 241 304 356
#     4  10  22  36  56  84 118 152 191 251 290 357
#     4   9  18  32  52  81 120 150 195 247 284 352
#     4  11  22  36  54  86 122 148 189 238 310 368
#
# _framework density 20.34544
#
# number of rings (size 3 to 8) (size 9 to 14) (size 15 to 20)
#    0.000    2.000    2.000    4.800    2.800    2.800 
#    0.000    0.000    0.000    2.400    0.000    0.000 
#    6.000    0.000    0.000    0.000    0.000    0.000 
#
# Total GULP energy -495957.741705 kJ/mol
# GULP energy per Si atom -12398.943543 kJ/mol
# Density = 2.029913 g / cm^3
# Si number density = 20.345440 Si / 1000 Ang^3
#
#
#
# Elastic Constant Matrix: (Units=GPa)
#
#
# Indices 1 2 3 4 5 6 
#
# 1 63.1797 18.8898 28.6307 0.0000 0.0000 0.0000
# 2 18.8898 59.4162 18.8808 0.0000 0.0000 0.0000
# 3 28.6307 18.8808 100.5653 0.0000 0.0000 0.0000
# 4 0.0000 0.0000 0.0000 31.4303 0.0000 0.0000
# 5 0.0000 0.0000 0.0000 0.0000 15.3312 0.0000
# 6 0.0000 0.0000 0.0000 0.0000 0.0000 27.1831
#
#
#
# Elastic Compliance Matrix: (Units=1/GPa)
#
#
# Indices 1 2 3 4 5 6 
#
# 1 0.019320 -0.004673 -0.004623 0.000000 0.000000 0.000000
# 2 -0.004673 0.019029 -0.002242 0.000000 0.000000 0.000000
# 3 -0.004623 -0.002242 0.011681 0.000000 0.000000 0.000000
# 4 0.000000 0.000000 0.000000 0.031816 0.000000 0.000000
# 5 0.000000 0.000000 0.000000 0.000000 0.065226 0.000000
# 6 0.000000 0.000000 0.000000 0.000000 0.000000 0.036788
#
#
# Mechanical properties :
#
#
# Convention : Reuss Voigt Hill
#
# Bulk Modulus (GPa) = 37.10175 39.55155 38.32665
# Shear Modulus (GPa) = 23.15663 25.23958 24.19810
#
# Velocity S-wave (km/s) = 3.37734 3.52597 3.45246
# Velocity P-wave (km/s) = 5.78654 6.00490 5.89673
#
# Compressibility (1/GPa) = 0.02695291
#
# Stress axis : x y z
#
# Youngs Moduli (GPa) = 51.75967 52.55237 85.60991
#
# Poissons Ratio (x) = 0.24559 0.39577
# Poissons Ratio (y) = 0.24189 0.19195
# Poissons Ratio (z) = 0.23928 0.11783
#
# Static dielectric constant tensor:
#      x y z
#    x 3.550440 0.000000 0.000000 
#    y 0.000000 3.658140 0.000000 
#    z 0.000000 0.000000 4.051540 
# 
# 
# High freq. dielectric constant tensor:
#      x y z
#    x 1.766620 0.000000 0.000000 
#    y 0.000000 1.780410 0.000000 
#    z 0.000000 0.000000 1.811140 
# 
# From -- ./inp_files/29232.got.cif
#   From: 2010.03.12/outbox.cif.g09.slc.cpg/sg72_15_cif.got.tgz:29232.got - 2010.04.16 14:54:00.
