data_PCOD8294106
_publ_section_title
;
Structure prediction by ZEFSAII (Michael W. Deem and Ramdas Pophale) SiO2 
 PCOD8294106
Probable space group: I B A M
;
_chemical_formula_sum "Si O2"
_cell_formula_units_Z 112
_cell_length_a 12.353278
_cell_length_b 25.578461
_cell_length_c 18.230243
_cell_angle_alpha 90.000000
_cell_angle_beta 90.000000
_cell_angle_gamma 90.000000
_cell_volume 5760.352798
_symmetry_space_group_name_H-M "I B A M"
_symmetry_group_IT_number 72
_symmetry_cell_setting 'orthorhombic'
loop_
_space_group_symop_operation_xyz
x,y,z
-x,-y,z
x,-y,1/2-z
-x,y,1/2-z
-x,-y,-z
x,y,-z
-x,y,1/2+z
x,-y,1/2+z
1/2+x,1/2+y,1/2+z
1/2-x,1/2-y,1/2+z
1/2+x,1/2-y,-z
1/2-x,1/2+y,-z
1/2-x,1/2-y,1/2-z
1/2+x,1/2+y,1/2-z
1/2-x,1/2+y,z
1/2+x,1/2-y,z
loop_
_atom_site_type_symbol
_atom_site_label
_atom_site_fract_x
_atom_site_fract_y
_atom_site_fract_z
Si Si1 0.699741 0.989276 0.170975
Si Si2 0.329151 0.905143 0.913919
Si Si3 0.439929 0.549859 0.825110
Si Si4 0.580339 0.899005 0.085927
Si Si5 0.547600 0.651036 0.413330
Si Si6 0.229449 0.304290 0.587352
Si Si7 0.319657 0.689822 0.587293
O O1 0.814579 0.962566 0.188173
O O2 0.623570 0.950270 0.126198
O O3 0.644686 0.000000 0.250000
O O4 0.712787 0.043161 0.126601
O O5 0.454012 0.893021 0.896561
O O6 0.261664 0.855174 0.884156
O O7 0.309643 0.913782 0.000000
O O8 0.500000 0.500000 0.858477
O O9 0.500000 0.567096 0.750000
O O10 0.451804 0.592099 0.887501
O O11 0.640544 0.846541 0.114405
O O12 0.602207 0.907377 0.000000
O O13 0.550216 0.650530 0.500000
O O14 0.652850 0.680178 0.381977
O O15 0.440366 0.679053 0.383809
O O16 0.227490 0.302424 0.500000
O O17 0.208530 0.246709 0.620019
O O18 0.314338 0.691090 0.500000
#
# Coordination Sequence:
#
# PCOD8294106 Si02
#       7
#    16  16  16  16  16  16  16
#     4  12  23  38  60  83 113 152 196 236 286 347
#     4  10  22  38  59  88 120 151 189 237 290 341
#     4  11  22  38  57  80 114 154 190 233 292 340
#     4  10  21  38  60  87 118 153 190 236 289 342
#     4  10  20  35  59  88 113 147 194 236 283 345
#     4   9  18  33  56  87 118 148 186 235 287 338
#     4   9  19  33  55  88 120 148 184 236 287 336
#
# _framework density 19.443252999999999
#
# number of rings (size 3 to 8) (size 9 to 14) (size 15 to 20)
#    0.000    1.857    2.857    1.714    2.000    3.143 
#    0.000    0.000    0.000    3.429    0.000    0.000 
#    0.000    0.000    0.000    0.000    0.000    0.000 
#
# Total GULP energy -694345.369280 kJ/mol
# GULP energy per Si atom -12399.024451 kJ/mol
# Density = 1.939900 g / cm^3
# Si number density = 19.443253 Si / 1000 Ang^3
#
#
#
# Elastic Constant Matrix: (Units=GPa)
#
#
# Indices 1 2 3 4 5 6 
#
# 1 133.6710 50.2779 29.8713 0.0000 0.0000 0.0000
# 2 50.2779 145.8697 28.5737 -0.0001 0.0000 0.0000
# 3 29.8713 28.5737 31.3750 -0.0004 0.0000 0.0000
# 4 0.0000 -0.0001 -0.0004 0.2091 0.0000 0.0000
# 5 0.0000 0.0000 0.0000 0.0000 15.5946 0.0000
# 6 0.0000 0.0000 0.0000 0.0000 0.0000 55.0087
#
#
#
# Elastic Compliance Matrix: (Units=1/GPa)
#
#
# Indices 1 2 3 4 5 6 
#
# 1 0.009922 -0.001910 -0.007707 -0.000014 0.000000 0.000000
# 2 -0.001910 0.008712 -0.006115 -0.000007 0.000000 0.000000
# 3 -0.007707 -0.006115 0.044779 0.000074 0.000000 0.000000
# 4 -0.000014 -0.000007 0.000074 4.782449 -0.000002 -0.000002
# 5 0.000000 0.000000 0.000000 -0.000002 0.064125 0.000000
# 6 0.000000 0.000000 0.000000 -0.000002 0.000000 0.018179
#
#
# Mechanical properties :
#
#
# Convention : Reuss Voigt Hill
#
# Bulk Modulus (GPa) = 31.30044 58.70683 45.00364
# Shear Modulus (GPa) = 1.00598 27.64200 14.32399
#
# Velocity S-wave (km/s) = 0.72008 3.77460 2.71718
# Velocity P-wave (km/s) = 4.10179 7.01828 5.74809
#
# Compressibility (1/GPa) = 0.03194843
#
# Stress axis : x y z
#
# Youngs Moduli (GPa) = 100.78904 114.78785 22.33187
#
# Poissons Ratio (x) = 0.21927 0.17210
# Poissons Ratio (y) = 0.19253 0.13657
# Poissons Ratio (z) = 0.77674 0.70196
#
# Static dielectric constant tensor:
#      x y z
#    x 3.854080 0.000000 0.000000 
#    y 0.000000 3.643220 0.000000 
#    z 0.000000 0.000000 3.227800 
# 
# 
# High freq. dielectric constant tensor:
#      x y z
#    x 1.774660 0.000000 0.000000 
#    y 0.000000 1.767630 0.000000 
#    z 0.000000 0.000000 1.716000 
# 
# From -- ./inp_files/37307.got.cif
#   From: 2010.03.12/outbox.cif.g09.slc.cpg/sg72_19_cif.got.tgz:37307.got - 2010.04.16 14:54:00.
