data_PCOD8294881
_publ_section_title
;
Structure prediction by ZEFSAII (Michael W. Deem and Ramdas Pophale) SiO2 
 PCOD8294881
Probable space group: I B A M
;
_chemical_formula_sum "Si O2"
_cell_formula_units_Z 72
_cell_length_a 30.977898
_cell_length_b 8.397023
_cell_length_c 13.638550
_cell_angle_alpha 90.000000
_cell_angle_beta 90.000000
_cell_angle_gamma 90.000000
_cell_volume 3547.688567
_symmetry_space_group_name_H-M "I B A M"
_symmetry_group_IT_number 72
_symmetry_cell_setting 'orthorhombic'
loop_
_space_group_symop_operation_xyz
x,y,z
-x,-y,z
x,-y,1/2-z
-x,y,1/2-z
-x,-y,-z
x,y,-z
-x,y,1/2+z
x,-y,1/2+z
1/2+x,1/2+y,1/2+z
1/2-x,1/2-y,1/2+z
1/2+x,1/2-y,-z
1/2-x,1/2+y,-z
1/2-x,1/2-y,1/2-z
1/2+x,1/2+y,1/2-z
1/2-x,1/2+y,z
1/2+x,1/2-y,z
loop_
_atom_site_type_symbol
_atom_site_label
_atom_site_fract_x
_atom_site_fract_y
_atom_site_fract_z
Si Si1 0.566281 0.949734 0.500000
Si Si2 0.010235 0.235517 0.500000
Si Si3 0.957919 0.166407 0.200266
Si Si4 0.705871 0.764945 0.886331
Si Si5 0.118145 0.401288 0.337681
Si Si6 0.758627 0.000000 0.750000
O O1 0.541022 0.780079 0.500000
O O2 0.533827 0.096088 0.500000
O O3 0.596723 0.964235 0.594356
O O4 0.026424 0.129908 0.409784
O O5 0.917534 0.282534 0.206100
O O6 0.000000 0.248726 0.250000
O O7 0.945501 0.000000 0.250000
O O8 0.654993 0.802678 0.893140
O O9 0.730424 0.904902 0.829325
O O10 0.711546 0.607990 0.820012
O O11 0.722342 0.745230 0.000000
O O12 0.140006 0.500000 0.250000
#
# Coordination Sequence:
#
# PCOD8294881 Si02
#       6
#     8   8  16  16  16   8
#     4   9  18  34  58  86 114 154 204 258 302 352
#     4   9  18  35  58  80 112 158 206 248 310 364
#     4  10  22  37  55  81 118 162 204 255 307 361
#     4  11  22  42  67  95 129 163 207 258 315 386
#     4  11  21  36  60  90 120 157 206 258 305 368
#     4  10  24  42  68  96 126 168 202 256 322 384
#
# _framework density 20.294903999999999
#
# number of rings (size 3 to 8) (size 9 to 14) (size 15 to 20)
#    0.000    1.778    2.222    2.000    1.556    4.000 
#    0.000    1.111    2.444    0.000    0.000    0.000 
#    0.000    0.000    0.000    0.000    0.000    0.000 
#
# Total GULP energy -446149.026597 kJ/mol
# GULP energy per Si atom -12393.028517 kJ/mol
# Density = 2.024871 g / cm^3
# Si number density = 20.294904 Si / 1000 Ang^3
#
#
#
# Elastic Constant Matrix: (Units=GPa)
#
#
# Indices 1 2 3 4 5 6 
#
# 1 84.7087 27.1228 34.6473 0.0000 0.0000 0.0000
# 2 27.1228 86.9916 52.6221 0.0000 0.0000 0.0000
# 3 34.6473 52.6221 165.4503 0.0000 0.0000 0.0000
# 4 0.0000 0.0000 0.0000 38.2833 0.0000 0.0000
# 5 0.0000 0.0000 0.0000 0.0000 47.0032 0.0000
# 6 0.0000 0.0000 0.0000 0.0000 0.0000 27.1746
#
#
#
# Elastic Compliance Matrix: (Units=1/GPa)
#
#
# Indices 1 2 3 4 5 6 
#
# 1 0.013557 -0.003107 -0.001851 0.000000 0.000000 0.000000
# 2 -0.003107 0.014946 -0.004103 0.000000 0.000000 0.000000
# 3 -0.001851 -0.004103 0.007737 0.000000 0.000000 0.000000
# 4 0.000000 0.000000 0.000000 0.026121 0.000000 0.000000
# 5 0.000000 0.000000 0.000000 0.000000 0.021275 0.000000
# 6 0.000000 0.000000 0.000000 0.000000 0.000000 0.036799
#
#
# Mechanical properties :
#
#
# Convention : Reuss Voigt Hill
#
# Bulk Modulus (GPa) = 55.19455 62.88169 59.03812
# Shear Modulus (GPa) = 34.57900 37.34278 35.96089
#
# Velocity S-wave (km/s) = 4.13222 4.29418 4.21398
# Velocity P-wave (km/s) = 7.07264 7.45908 7.26843
#
# Compressibility (1/GPa) = 0.01811773
#
# Stress axis : x y z
#
# Youngs Moduli (GPa) = 73.76213 66.90695 129.25531
#
# Poissons Ratio (x) = 0.20791 0.23921
# Poissons Ratio (y) = 0.22921 0.53033
# Poissons Ratio (z) = 0.13651 0.27452
#
# Static dielectric constant tensor:
#      x y z
#    x 3.561160 0.000000 0.000000 
#    y 0.000000 3.487530 0.000000 
#    z 0.000000 0.000000 3.998870 
# 
# 
# High freq. dielectric constant tensor:
#      x y z
#    x 1.784060 0.000000 0.000000 
#    y 0.000000 1.777630 0.000000 
#    z 0.000000 0.000000 1.815790 
# 
# From -- ./inp_files/26226.got.cif
#   From: 2010.03.12/outbox.cif.g09.slc.cpg/sg72_14_cif.got.tgz:26226.got - 2010.04.16 14:54:00.
