data_PCOD8294969
_publ_section_title
;
Structure prediction by ZEFSAII (Michael W. Deem and Ramdas Pophale) SiO2 
 PCOD8294969
Probable space group: I B A M
;
_chemical_formula_sum "Si O2"
_cell_formula_units_Z 116
_cell_length_a 17.124620
_cell_length_b 18.142588
_cell_length_c 18.252320
_cell_angle_alpha 90.000000
_cell_angle_beta 90.000000
_cell_angle_gamma 90.000000
_cell_volume 5670.720676
_symmetry_space_group_name_H-M "I B A M"
_symmetry_group_IT_number 72
_symmetry_cell_setting 'orthorhombic'
loop_
_space_group_symop_operation_xyz
x,y,z
-x,-y,z
x,-y,1/2-z
-x,y,1/2-z
-x,-y,-z
x,y,-z
-x,y,1/2+z
x,-y,1/2+z
1/2+x,1/2+y,1/2+z
1/2-x,1/2-y,1/2+z
1/2+x,1/2-y,-z
1/2-x,1/2+y,-z
1/2-x,1/2-y,1/2-z
1/2+x,1/2+y,1/2-z
1/2-x,1/2+y,z
1/2+x,1/2-y,z
loop_
_atom_site_type_symbol
_atom_site_label
_atom_site_fract_x
_atom_site_fract_y
_atom_site_fract_z
Si Si1 0.228057 0.833293 0.581734
Si Si2 0.319359 0.794876 0.715282
Si Si3 0.436219 0.558708 0.586451
Si Si4 0.464815 0.299358 0.822515
Si Si5 0.411363 0.224147 0.584740
Si Si6 0.267366 0.495634 0.084007
Si Si7 0.000000 0.500000 0.750000
Si Si8 0.134578 0.586622 0.330331
O O1 0.253440 0.811314 0.500000
O O2 0.301283 0.815042 0.631840
O O3 0.152025 0.786705 0.604432
O O4 0.210255 0.919025 0.589317
O O5 0.250000 0.750000 0.750000
O O6 0.392133 0.741919 0.712486
O O7 0.332179 0.869656 0.760613
O O8 0.500000 0.500000 0.617195
O O9 0.445949 0.563309 0.500000
O O10 0.450797 0.638985 0.617757
O O11 0.347668 0.541796 0.609487
O O12 0.500000 0.337208 0.750000
O O13 0.516180 0.236883 0.861780
O O14 0.436016 0.227792 0.500000
O O15 0.379679 0.142802 0.602745
O O16 0.197955 0.472475 0.139435
O O17 0.244848 0.474903 0.000000
O O18 0.054861 0.547364 0.695581
#
# Coordination Sequence:
#
# PCOD8294969 Si02
#       8
#    16  16  16  16  16  16   4  16
#     4  10  22  41  64  93 130 167 211 268 326 386
#     4  12  23  41  65  96 125 166 218 274 331 382
#     4  10  22  40  65  95 133 175 213 264 334 406
#     4  12  23  40  60  92 128 166 216 268 324 388
#     4  11  23  41  66  93 129 173 218 271 329 386
#     4  10  22  41  66  98 133 171 218 271 329 397
#     4  12  28  44  66  92 134 184 224 272 344 392
#     4  12  23  44  65  96 130 178 223 276 330 398
#
# _framework density 20.455953999999998
#
# number of rings (size 3 to 8) (size 9 to 14) (size 15 to 20)
#    0.000    0.966    2.759    4.138    0.000    3.586 
#    0.000    5.517    0.000    0.000    0.000    0.000 
#    0.000    0.000    0.000    0.000    0.000    0.000 
#
# Total GULP energy -719161.231805 kJ/mol
# GULP energy per Si atom -12399.331583 kJ/mol
# Density = 2.040940 g / cm^3
# Si number density = 20.455954 Si / 1000 Ang^3
#
#
#
# Elastic Constant Matrix: (Units=GPa)
#
#
# Indices 1 2 3 4 5 6 
#
# 1 124.4497 47.5120 56.9466 0.0000 0.0000 0.0000
# 2 47.5120 96.9272 27.2432 0.0000 0.0000 0.0000
# 3 56.9466 27.2432 85.6216 0.0000 0.0000 0.0000
# 4 0.0000 0.0000 0.0000 33.1386 0.0000 0.0000
# 5 0.0000 0.0000 0.0000 0.0000 40.7006 0.0000
# 6 0.0000 0.0000 0.0000 0.0000 0.0000 29.1507
#
#
#
# Elastic Compliance Matrix: (Units=1/GPa)
#
#
# Indices 1 2 3 4 5 6 
#
# 1 0.013023 -0.004337 -0.007282 0.000000 0.000000 0.000000
# 2 -0.004337 0.012775 -0.001180 0.000000 0.000000 0.000000
# 3 -0.007282 -0.001180 0.016898 0.000000 0.000000 0.000000
# 4 0.000000 0.000000 0.000000 0.030176 0.000000 0.000000
# 5 0.000000 0.000000 0.000000 0.000000 0.024570 0.000000
# 6 0.000000 0.000000 0.000000 0.000000 0.000000 0.034305
#
#
# Mechanical properties :
#
#
# Convention : Reuss Voigt Hill
#
# Bulk Modulus (GPa) = 58.48658 63.37800 60.93229
# Shear Modulus (GPa) = 30.66673 32.28442 31.47558
#
# Velocity S-wave (km/s) = 3.87610 3.97702 3.92688
# Velocity P-wave (km/s) = 6.97752 7.22072 7.10016
#
# Compressibility (1/GPa) = 0.01709794
#
# Stress axis : x y z
#
# Youngs Moduli (GPa) = 76.78619 78.27996 59.17933
#
# Poissons Ratio (x) = 0.33951 0.43092
# Poissons Ratio (y) = 0.33303 0.06984
# Poissons Ratio (z) = 0.55913 0.09238
#
# Static dielectric constant tensor:
#      x y z
#    x 3.908310 0.000000 0.000000 
#    y 0.000000 3.764080 0.000000 
#    z 0.000000 0.000000 4.282540 
# 
# 
# High freq. dielectric constant tensor:
#      x y z
#    x 1.802690 0.000000 0.000000 
#    y 0.000000 1.805450 0.000000 
#    z 0.000000 0.000000 1.812770 
# 
# From -- ./inp_files/31729.got.cif
#   From: 2010.03.12/outbox.cif.g09.slc.cpg/sg72_16_cif.got.tgz:31729.got - 2010.04.16 14:54:00.
