data_PCOD8294677
_publ_section_title
;
Structure prediction by ZEFSAII (Michael W. Deem and Ramdas Pophale) SiO2 
 PCOD8294677
Probable space group: I B A M
;
_chemical_formula_sum "Si O2"
_cell_formula_units_Z 80
_cell_length_a 8.968747
_cell_length_b 27.574539
_cell_length_c 14.200255
_cell_angle_alpha 90.000000
_cell_angle_beta 90.000000
_cell_angle_gamma 90.000000
_cell_volume 3511.851772
_symmetry_space_group_name_H-M "I B A M"
_symmetry_group_IT_number 72
_symmetry_cell_setting 'orthorhombic'
loop_
_space_group_symop_operation_xyz
x,y,z
-x,-y,z
x,-y,1/2-z
-x,y,1/2-z
-x,-y,-z
x,y,-z
-x,y,1/2+z
x,-y,1/2+z
1/2+x,1/2+y,1/2+z
1/2-x,1/2-y,1/2+z
1/2+x,1/2-y,-z
1/2-x,1/2+y,-z
1/2-x,1/2-y,1/2-z
1/2+x,1/2+y,1/2-z
1/2-x,1/2+y,z
1/2+x,1/2-y,z
loop_
_atom_site_type_symbol
_atom_site_label
_atom_site_fract_x
_atom_site_fract_y
_atom_site_fract_z
Si Si1 0.061332 0.049757 0.146631
Si Si2 0.652378 0.628395 0.104681
Si Si3 0.342575 0.811846 0.611967
Si Si4 0.842487 0.591050 0.723943
Si Si5 0.519914 0.719787 0.610867
O O1 0.241483 0.055027 0.158500
O O2 0.000000 0.052557 0.250000
O O3 0.995843 0.095205 0.089895
O O4 0.000000 0.000000 0.098706
O O5 0.765621 0.603813 0.176689
O O6 0.597719 0.679586 0.148280
O O7 0.725668 0.634436 0.000000
O O8 0.342753 0.820349 0.500000
O O9 0.380721 0.861290 0.664235
O O10 0.469189 0.773196 0.642676
O O11 0.184898 0.790819 0.648439
O O12 0.000000 0.565517 0.750000
O O13 0.517179 0.715129 0.500000
#
# Coordination Sequence:
#
# PCOD8294677 Si02
#       5
#    16  16  16  16  16
#     4   9  19  40  66  88 116 158 209 258 319 385
#     4  10  21  40  61  87 125 167 214 262 309 377
#     4  10  21  38  59  88 129 176 215 258 311 366
#     4  11  24  39  60  97 129 162 206 263 324 376
#     4   9  19  35  57  85 123 168 212 257 303 359
#
# _framework density 22.780004000000002
#
# number of rings (size 3 to 8) (size 9 to 14) (size 15 to 20)
#    0.000    2.200    2.000    0.000    2.800    2.000 
#    0.000    8.000    0.000    1.200    0.000    0.000 
#    0.000    0.000    0.000    0.000    0.000    0.000 
#
# Total GULP energy -495703.493359 kJ/mol
# GULP energy per Si atom -12392.587334 kJ/mol
# Density = 2.272816 g / cm^3
# Si number density = 22.780004 Si / 1000 Ang^3
#
#
#
# Elastic Constant Matrix: (Units=GPa)
#
#
# Indices 1 2 3 4 5 6 
#
# 1 128.9720 27.7879 8.3600 -0.0001 0.0000 0.0000
# 2 27.7879 106.2924 5.2522 -0.0002 0.0000 0.0001
# 3 8.3600 5.2522 62.5800 -0.0016 0.0000 0.0004
# 4 -0.0001 -0.0002 -0.0016 28.1269 -0.0001 0.0001
# 5 0.0000 0.0000 0.0000 -0.0001 16.4801 -0.0001
# 6 0.0000 0.0001 0.0004 0.0001 -0.0001 31.8748
#
#
#
# Elastic Compliance Matrix: (Units=1/GPa)
#
#
# Indices 1 2 3 4 5 6 
#
# 1 0.008270 -0.002116 -0.000927 0.000000 0.000000 0.000000
# 2 -0.002116 0.009989 -0.000556 0.000000 0.000000 0.000000
# 3 -0.000927 -0.000556 0.016150 0.000001 0.000000 0.000000
# 4 0.000000 0.000000 0.000001 0.035553 0.000000 0.000000
# 5 0.000000 0.000000 0.000000 0.000000 0.060679 0.000000
# 6 0.000000 0.000000 0.000000 0.000000 0.000000 0.031373
#
#
# Mechanical properties :
#
#
# Convention : Reuss Voigt Hill
#
# Bulk Modulus (GPa) = 36.75042 42.29386 39.52214
# Shear Modulus (GPa) = 28.04552 32.39263 30.21907
#
# Velocity S-wave (km/s) = 3.51258 3.77500 3.64615
# Velocity P-wave (km/s) = 5.71128 6.13248 5.92563
#
# Compressibility (1/GPa) = 0.02721058
#
# Stress axis : x y z
#
# Youngs Moduli (GPa) = 120.92410 100.11331 61.91941
#
# Poissons Ratio (x) = 0.21185 0.05741
# Poissons Ratio (y) = 0.25589 0.03441
# Poissons Ratio (z) = 0.11211 0.05563
#
# Static dielectric constant tensor:
#      x y z
#    x 4.414370 0.000000 0.000000 
#    y 0.000000 4.711780 0.000000 
#    z 0.000000 0.000000 3.909630 
# 
# 
# High freq. dielectric constant tensor:
#      x y z
#    x 1.889260 0.000000 0.000000 
#    y 0.000000 1.885260 0.000000 
#    z 0.000000 0.000000 1.893050 
# 
# From -- ./inp_files/28314.got.cif
#   From: 2010.03.12/outbox.cif.g09.slc.cpg/sg72_15_cif.got.tgz:28314.got - 2010.04.16 14:54:00.
