data_PCOD8294613
_publ_section_title
;
Structure prediction by ZEFSAII (Michael W. Deem and Ramdas Pophale) SiO2 
 PCOD8294613
Probable space group: I B A M
;
_chemical_formula_sum "Si O2"
_cell_formula_units_Z 88
_cell_length_a 33.425088
_cell_length_b 5.096155
_cell_length_c 25.192115
_cell_angle_alpha 90.000000
_cell_angle_beta 90.000000
_cell_angle_gamma 90.000000
_cell_volume 4291.210493
_symmetry_space_group_name_H-M "I B A M"
_symmetry_group_IT_number 72
_symmetry_cell_setting 'orthorhombic'
loop_
_space_group_symop_operation_xyz
x,y,z
-x,-y,z
x,-y,1/2-z
-x,y,1/2-z
-x,-y,-z
x,y,-z
-x,y,1/2+z
x,-y,1/2+z
1/2+x,1/2+y,1/2+z
1/2-x,1/2-y,1/2+z
1/2+x,1/2-y,-z
1/2-x,1/2+y,-z
1/2-x,1/2-y,1/2-z
1/2+x,1/2+y,1/2-z
1/2-x,1/2+y,z
1/2+x,1/2-y,z
loop_
_atom_site_type_symbol
_atom_site_label
_atom_site_fract_x
_atom_site_fract_y
_atom_site_fract_z
Si Si1 0.224741 0.916212 0.000000
Si Si2 0.379710 0.932711 0.062236
Si Si3 0.334271 0.435631 0.095572
Si Si4 0.953069 0.978333 0.808129
Si Si5 0.453286 0.979624 0.374091
Si Si6 0.776189 0.011313 0.688740
O O1 0.200084 0.978432 0.052507
O O2 0.237631 0.612550 0.000000
O O3 0.368777 0.647842 0.084840
O O4 0.426821 0.981071 0.073195
O O5 0.352768 0.146666 0.092091
O O6 0.371699 0.954104 0.000000
O O7 0.315967 0.474484 0.153947
O O8 0.939695 0.205980 0.848200
O O9 0.932565 0.000000 0.750000
O O10 0.941238 0.698195 0.831357
O O11 0.000000 0.000000 0.800665
O O12 0.500000 0.000000 0.390099
O O13 0.756258 0.289098 0.675056
O O14 0.789666 0.000000 0.750000
#
# Coordination Sequence:
#
# PCOD8294613 Si02
#       6
#     8  16  16  16  16  16
#     4  12  22  36  62  92 117 148 195 242 284 346
#     4  12  24  42  59  82 122 165 196 252 321 349
#     4  12  23  41  61  90 124 158 196 245 302 367
#     4   9  17  33  57  85 115 143 183 250 312 351
#     4  10  21  37  60  87 113 157 212 252 296 367
#     4  10  21  40  65  91 122 160 196 238 290 351
#
# _framework density 20.507035999999999
#
# number of rings (size 3 to 8) (size 9 to 14) (size 15 to 20)
#    0.000    1.273    1.818    4.909    0.000    2.545 
#    0.000    5.455    0.000    5.455    0.000    0.000 
#    0.000    0.000    0.000    0.000    0.000    0.000 
#
# Total GULP energy -545774.593943 kJ/mol
# GULP energy per Si atom -12403.968044 kJ/mol
# Density = 2.046036 g / cm^3
# Si number density = 20.507036 Si / 1000 Ang^3
#
#
#
# Elastic Constant Matrix: (Units=GPa)
#
#
# Indices 1 2 3 4 5 6 
#
# 1 70.1328 8.1153 38.6991 0.0000 0.0000 0.0000
# 2 8.1153 90.2613 10.3650 0.0000 0.0000 0.0000
# 3 38.6991 10.3650 88.1806 0.0000 0.0000 0.0000
# 4 0.0000 0.0000 0.0000 25.6288 0.0000 0.0000
# 5 0.0000 0.0000 0.0000 0.0000 10.1934 0.0000
# 6 0.0000 0.0000 0.0000 0.0000 0.0000 26.1625
#
#
#
# Elastic Compliance Matrix: (Units=1/GPa)
#
#
# Indices 1 2 3 4 5 6 
#
# 1 0.018866 -0.000756 -0.008191 0.000000 0.000000 0.000000
# 2 -0.000756 0.011261 -0.000992 0.000000 0.000000 0.000000
# 3 -0.008191 -0.000992 0.015052 0.000000 0.000000 0.000000
# 4 0.000000 0.000000 0.000000 0.039019 0.000000 0.000000
# 5 0.000000 0.000000 0.000000 0.000000 0.098103 0.000000
# 6 0.000000 0.000000 0.000000 0.000000 0.000000 0.038223
#
#
# Mechanical properties :
#
#
# Convention : Reuss Voigt Hill
#
# Bulk Modulus (GPa) = 39.52339 40.32595 39.92467
# Shear Modulus (GPa) = 20.09385 25.15661 22.62523
#
# Velocity S-wave (km/s) = 3.13365 3.50627 3.32519
# Velocity P-wave (km/s) = 5.69280 6.00825 5.85265
#
# Compressibility (1/GPa) = 0.02530147
#
# Stress axis : x y z
#
# Youngs Moduli (GPa) = 53.00631 88.80362 66.43848
#
# Poissons Ratio (x) = 0.06710 0.54417
# Poissons Ratio (y) = 0.04005 0.06591
# Poissons Ratio (z) = 0.43415 0.08809
#
# Static dielectric constant tensor:
#      x y z
#    x 3.530390 0.000000 0.000000 
#    y 0.000000 4.170970 0.000000 
#    z 0.000000 0.000000 3.784740 
# 
# 
# High freq. dielectric constant tensor:
#      x y z
#    x 1.784350 0.000000 0.000000 
#    y 0.000000 1.822430 0.000000 
#    z 0.000000 0.000000 1.800350 
# 
# From -- ./inp_files/46135.got.cif
#   From: 2010.03.12/outbox.cif.g09.slc.cpg/sg72_24_cif.got.tgz:46135.got - 2010.04.16 14:54:00.
