data_PCOD8294120
_publ_section_title
;
Structure prediction by ZEFSAII (Michael W. Deem and Ramdas Pophale) SiO2 
 PCOD8294120
Probable space group: I B A M
;
_chemical_formula_sum "Si O2"
_cell_formula_units_Z 96
_cell_length_a 22.189433
_cell_length_b 11.225270
_cell_length_c 18.872420
_cell_angle_alpha 90.000000
_cell_angle_beta 90.000000
_cell_angle_gamma 90.000000
_cell_volume 4700.787225
_symmetry_space_group_name_H-M "I B A M"
_symmetry_group_IT_number 72
_symmetry_cell_setting 'orthorhombic'
loop_
_space_group_symop_operation_xyz
x,y,z
-x,-y,z
x,-y,1/2-z
-x,y,1/2-z
-x,-y,-z
x,y,-z
-x,y,1/2+z
x,-y,1/2+z
1/2+x,1/2+y,1/2+z
1/2-x,1/2-y,1/2+z
1/2+x,1/2-y,-z
1/2-x,1/2+y,-z
1/2-x,1/2-y,1/2-z
1/2+x,1/2+y,1/2-z
1/2-x,1/2+y,z
1/2+x,1/2-y,z
loop_
_atom_site_type_symbol
_atom_site_label
_atom_site_fract_x
_atom_site_fract_y
_atom_site_fract_z
Si Si1 0.563042 0.958700 0.418450
Si Si2 0.265426 0.624926 0.208903
Si Si3 0.606552 0.661562 0.922497
Si Si4 0.971261 0.802459 0.919977
Si Si5 0.891787 0.954946 0.176824
Si Si6 0.176898 0.398610 0.580204
O O1 0.560805 0.001785 0.500000
O O2 0.567062 0.817428 0.409933
O O3 0.500000 0.000000 0.381677
O O4 0.623892 0.016873 0.386750
O O5 0.252890 0.500000 0.250000
O O6 0.250000 0.750000 0.250000
O O7 0.336455 0.634580 0.191438
O O8 0.232035 0.607257 0.134207
O O9 0.541367 0.716012 0.901200
O O10 0.632550 0.568141 0.866637
O O11 0.653846 0.765827 0.924776
O O12 0.602235 0.600909 0.000000
O O13 0.945983 0.899099 0.866727
O O14 0.963495 0.849220 0.000000
O O15 0.920309 0.000000 0.250000
O O16 0.196550 0.440624 0.500000
#
# Coordination Sequence:
#
# PCOD8294120 Si02
#       6
#    16  16  16  16  16  16
#     4   9  16  32  58  91 124 152 187 246 310 363
#     4  11  26  47  65  84 125 173 212 259 321 369
#     4  10  20  38  62  91 126 158 190 246 314 372
#     4  10  20  35  61  93 124 154 192 243 310 374
#     4  11  24  40  59  82 117 164 208 247 300 362
#     4  10  20  37  66  94 119 157 208 256 302 362
#
# _framework density 20.422111000000001
#
# number of rings (size 3 to 8) (size 9 to 14) (size 15 to 20)
#    0.000    1.833    1.667    3.000    2.333    4.000 
#    0.000    0.833    0.000    0.500    0.000    0.000 
#    0.000    0.000    0.000    0.000    0.000    0.000 
#
# Total GULP energy -594872.886548 kJ/mol
# GULP energy per Si atom -12393.185136 kJ/mol
# Density = 2.037563 g / cm^3
# Si number density = 20.422111 Si / 1000 Ang^3
#
#
#
# Elastic Constant Matrix: (Units=GPa)
#
#
# Indices 1 2 3 4 5 6 
#
# 1 51.6720 5.4233 41.0771 0.0000 0.0000 0.0000
# 2 5.4233 79.2965 35.8869 0.0000 0.0000 0.0000
# 3 41.0771 35.8869 108.0869 0.0000 0.0000 0.0000
# 4 0.0000 0.0000 0.0000 27.6950 0.0000 0.0000
# 5 0.0000 0.0000 0.0000 0.0000 72.3783 0.0000
# 6 0.0000 0.0000 0.0000 0.0000 0.0000 35.9037
#
#
#
# Elastic Compliance Matrix: (Units=1/GPa)
#
#
# Indices 1 2 3 4 5 6 
#
# 1 0.028523 0.003477 -0.011994 0.000000 0.000000 0.000000
# 2 0.003477 0.015265 -0.006390 0.000000 0.000000 0.000000
# 3 -0.011994 -0.006390 0.015932 0.000000 0.000000 0.000000
# 4 0.000000 0.000000 0.000000 0.036108 0.000000 0.000000
# 5 0.000000 0.000000 0.000000 0.000000 0.013816 0.000000
# 6 0.000000 0.000000 0.000000 0.000000 0.000000 0.027852
#
#
# Mechanical properties :
#
#
# Convention : Reuss Voigt Hill
#
# Bulk Modulus (GPa) = 33.43806 44.87000 39.15403
# Shear Modulus (GPa) = 28.20438 37.63995 32.92216
#
# Velocity S-wave (km/s) = 3.72031 4.29779 4.01943
# Velocity P-wave (km/s) = 5.90451 6.82986 6.38397
#
# Compressibility (1/GPa) = 0.02990604
#
# Stress axis : x y z
#
# Youngs Moduli (GPa) = 35.05965 65.50994 62.76822
#
# Poissons Ratio (x) = -0.22781 0.75286
# Poissons Ratio (y) = -0.12192 0.40108
# Poissons Ratio (z) = 0.42052 0.41859
#
# Static dielectric constant tensor:
#      x y z
#    x 3.623250 0.000000 0.000000 
#    y 0.000000 3.809390 0.000000 
#    z 0.000000 0.000000 3.956600 
# 
# 
# High freq. dielectric constant tensor:
#      x y z
#    x 1.793300 0.000000 0.000000 
#    y 0.000000 1.802450 0.000000 
#    z 0.000000 0.000000 1.783580 
# 
# From -- ./inp_files/33272.got.cif
#   From: 2010.03.12/outbox.cif.g09.slc.cpg/sg72_17_cif.got.tgz:33272.got - 2010.04.16 14:54:00.
