data_PCOD8294730
_publ_section_title
;
Structure prediction by ZEFSAII (Michael W. Deem and Ramdas Pophale) SiO2 
 PCOD8294730
Probable space group: I B A M
;
_chemical_formula_sum "Si O2"
_cell_formula_units_Z 64
_cell_length_a 10.583669
_cell_length_b 8.460740
_cell_length_c 33.691887
_cell_angle_alpha 90.000000
_cell_angle_beta 90.000000
_cell_angle_gamma 90.000000
_cell_volume 3016.962651
_symmetry_space_group_name_H-M "I B A M"
_symmetry_group_IT_number 72
_symmetry_cell_setting 'orthorhombic'
loop_
_space_group_symop_operation_xyz
x,y,z
-x,-y,z
x,-y,1/2-z
-x,y,1/2-z
-x,-y,-z
x,y,-z
-x,y,1/2+z
x,-y,1/2+z
1/2+x,1/2+y,1/2+z
1/2-x,1/2-y,1/2+z
1/2+x,1/2-y,-z
1/2-x,1/2+y,-z
1/2-x,1/2-y,1/2-z
1/2+x,1/2+y,1/2-z
1/2-x,1/2+y,z
1/2+x,1/2-y,z
loop_
_atom_site_type_symbol
_atom_site_label
_atom_site_fract_x
_atom_site_fract_y
_atom_site_fract_z
Si Si1 0.372688 0.093501 0.327150
Si Si2 0.371718 0.418131 0.546369
Si Si3 0.866051 0.414520 0.416691
Si Si4 0.317856 0.625271 0.221857
O O1 0.327836 0.131466 0.371743
O O2 0.401447 0.265078 0.306972
O O3 0.500000 0.000000 0.327703
O O4 0.274984 0.982665 0.304224
O O5 0.500000 0.500000 0.562604
O O6 0.356980 0.451236 0.500000
O O7 0.246816 0.477860 0.567909
O O8 0.381155 0.233786 0.554750
O O9 0.000000 0.500000 0.418084
O O10 0.394150 0.500000 0.250000
O O11 0.250000 0.750000 0.250000
#
# Coordination Sequence:
#
# PCOD8294730 Si02
#       4
#    16  16  16  16
#     4  10  21  39  60  85 119 156 198 249 301 359
#     4  11  24  41  63  92 125 162 206 256 310 368
#     4  11  23  40  64  91 124 166 208 254 309 368
#     4   9  19  36  58  85 115 149 193 242 295 357
#
# _framework density 21.213388999999999
#
# number of rings (size 3 to 8) (size 9 to 14) (size 15 to 20)
#    0.000    1.750    0.000    3.750    0.000   10.500 
#    0.000    8.750    0.000    0.000    0.000    0.000 
#    0.000    0.000    0.000    0.000    0.000    0.000 
#
# Total GULP energy -396522.525700 kJ/mol
# GULP energy per Si atom -12391.328928 kJ/mol
# Density = 2.116511 g / cm^3
# Si number density = 21.213389 Si / 1000 Ang^3
#
#
#
# Elastic Constant Matrix: (Units=GPa)
#
#
# Indices 1 2 3 4 5 6 
#
# 1 94.5766 29.1300 43.2170 0.0000 0.0000 0.0000
# 2 29.1300 119.6323 40.4159 0.0000 0.0000 0.0000
# 3 43.2170 40.4159 111.1882 0.0000 0.0000 0.0000
# 4 0.0000 0.0000 0.0000 -79.2271 0.0000 0.0000
# 5 0.0000 0.0000 0.0000 0.0000 0.0930 0.0000
# 6 0.0000 0.0000 0.0000 0.0000 0.0000 28.1537
#
#
#
# Elastic Compliance Matrix: (Units=1/GPa)
#
#
# Indices 1 2 3 4 5 6 
#
# 1 0.013147 -0.001681 -0.004499 0.000000 0.000000 0.000000
# 2 -0.001681 0.009744 -0.002888 0.000000 0.000000 0.000000
# 3 -0.004499 -0.002888 0.011792 0.000000 0.000000 0.000000
# 4 0.000000 0.000000 0.000000 -0.012622 -0.000001 0.000000
# 5 0.000000 0.000000 0.000000 -0.000001 10.756667 0.000000
# 6 0.000000 0.000000 0.000000 0.000000 0.000000 0.035519
#
#
# Mechanical properties :
#
#
# Convention : Reuss Voigt Hill
#
# Bulk Modulus (GPa) = 60.43672 61.21365 60.82519
# Shear Modulus (GPa) = 0.46134 3.97953 2.22044
#
# Velocity S-wave (km/s) = 0.46685 1.37114 1.02420
# Velocity P-wave (km/s) = 5.37051 5.60584 5.48944
#
# Compressibility (1/GPa) = 0.01654623
#
# Stress axis : x y z
#
# Youngs Moduli (GPa) = 76.06244 102.62562 84.80105
#
# Poissons Ratio (x) = 0.17255 0.38151
# Poissons Ratio (y) = 0.12789 0.24494
# Poissons Ratio (z) = 0.34220 0.29642
#
# Static dielectric constant tensor:
#      x y z
#    x 3.617390 0.000000 0.000000 
#    y 0.000000 4.292410 0.000000 
#    z 0.000000 0.000000 4.446450 
# 
# 
# High freq. dielectric constant tensor:
#      x y z
#    x 1.820950 0.000000 0.000000 
#    y 0.000000 1.851990 0.000000 
#    z 0.000000 0.000000 1.851190 
# 
# From -- ./inp_files/50572.got.cif
#   From: 2010.03.12/outbox.cif.g09.slc.cpg/sg72_26_cif.got.tgz:50572.got - 2010.04.16 14:54:00.
