data_PCOD8294918
_publ_section_title
;
Structure prediction by ZEFSAII (Michael W. Deem and Ramdas Pophale) SiO2 
 PCOD8294918
Probable space group: I B A M
;
_chemical_formula_sum "Si O2"
_cell_formula_units_Z 128
_cell_length_a 22.507400
_cell_length_b 11.340576
_cell_length_c 25.228306
_cell_angle_alpha 90.000000
_cell_angle_beta 90.000000
_cell_angle_gamma 90.000000
_cell_volume 6439.446401
_symmetry_space_group_name_H-M "I B A M"
_symmetry_group_IT_number 72
_symmetry_cell_setting 'orthorhombic'
loop_
_space_group_symop_operation_xyz
x,y,z
-x,-y,z
x,-y,1/2-z
-x,y,1/2-z
-x,-y,-z
x,y,-z
-x,y,1/2+z
x,-y,1/2+z
1/2+x,1/2+y,1/2+z
1/2-x,1/2-y,1/2+z
1/2+x,1/2-y,-z
1/2-x,1/2+y,-z
1/2-x,1/2-y,1/2-z
1/2+x,1/2+y,1/2-z
1/2-x,1/2+y,z
1/2+x,1/2-y,z
loop_
_atom_site_type_symbol
_atom_site_label
_atom_site_fract_x
_atom_site_fract_y
_atom_site_fract_z
Si Si1 0.712109 0.574044 0.561467
Si Si2 0.431134 0.480439 0.687599
Si Si3 0.318787 0.602169 0.642231
Si Si4 0.859810 0.766830 0.143098
Si Si5 0.936773 0.642970 0.557979
Si Si6 0.176281 0.644893 0.884395
Si Si7 0.933088 0.364849 0.558883
Si Si8 0.700606 0.947874 0.306958
O O1 0.692223 0.591170 0.500000
O O2 0.695078 0.442576 0.581710
O O3 0.682240 0.655976 0.605932
O O4 0.782172 0.602386 0.566588
O O5 0.500000 0.500000 0.668544
O O6 0.427259 0.500000 0.750000
O O7 0.386468 0.573327 0.659467
O O8 0.408211 0.348404 0.673215
O O9 0.300510 0.739347 0.645938
O O10 0.271367 0.540669 0.681963
O O11 0.888199 0.676903 0.102444
O O12 0.824045 0.686136 0.185676
O O13 0.928257 0.698265 0.500000
O O14 0.886678 0.695113 0.595489
O O15 0.929317 0.503641 0.554991
O O16 0.001941 0.677165 0.578614
O O17 0.165875 0.535323 0.846044
O O18 0.919281 0.312392 0.500000
O O19 0.686469 0.000000 0.250000
#
# Coordination Sequence:
#
# PCOD8294918 Si02
#       8
#    16  16  16  16  16  16  16  16
#     4  10  22  39  59  88 123 160 202 251 310 374
#     4  10  24  44  66  89 116 166 216 257 313 373
#     4  10  23  41  61  89 125 165 206 258 311 375
#     4  11  21  41  62  89 122 158 206 259 306 374
#     4   9  18  32  53  86 120 154 196 237 297 370
#     4  11  21  37  59  90 125 157 205 251 316 364
#     4   9  18  34  57  83 117 159 195 241 301 366
#     4  11  24  40  61  94 123 160 210 262 317 373
#
# _framework density 19.877486000000001
#
# number of rings (size 3 to 8) (size 9 to 14) (size 15 to 20)
#    0.000    1.875    2.500    1.875    3.500    1.500 
#    0.000    0.000    0.000    2.625    0.000    0.000 
#    0.000    0.000    0.000    0.000    0.000    0.000 
#
# Total GULP energy -792970.616637 kJ/mol
# GULP energy per Si atom -12390.165885 kJ/mol
# Density = 1.983224 g / cm^3
# Si number density = 19.877486 Si / 1000 Ang^3
#
#
#
# Elastic Constant Matrix: (Units=GPa)
#
#
# Indices 1 2 3 4 5 6 
#
# 1 96.3153 15.3991 33.7357 0.0000 0.0000 0.0000
# 2 15.3991 82.4639 27.9483 0.0000 0.0000 0.0000
# 3 33.7357 27.9483 87.1682 0.0000 0.0000 0.0000
# 4 0.0000 0.0000 0.0000 21.8131 0.0000 0.0000
# 5 0.0000 0.0000 0.0000 0.0000 35.9269 0.0000
# 6 0.0000 0.0000 0.0000 0.0000 0.0000 25.3706
#
#
#
# Elastic Compliance Matrix: (Units=1/GPa)
#
#
# Indices 1 2 3 4 5 6 
#
# 1 0.012052 -0.000751 -0.004423 0.000000 0.000000 0.000000
# 2 -0.000751 0.013652 -0.004086 0.000000 0.000000 0.000000
# 3 -0.004423 -0.004086 0.014494 0.000000 0.000000 0.000000
# 4 0.000000 0.000000 0.000000 0.045844 0.000000 0.000000
# 5 0.000000 0.000000 0.000000 0.000000 0.027834 0.000000
# 6 0.000000 0.000000 0.000000 0.000000 0.000000 0.039416
#
#
# Mechanical properties :
#
#
# Convention : Reuss Voigt Hill
#
# Bulk Modulus (GPa) = 46.13453 46.67927 46.40690
# Shear Modulus (GPa) = 27.92681 29.21308 28.56994
#
# Velocity S-wave (km/s) = 3.75233 3.83777 3.79529
# Velocity P-wave (km/s) = 6.48329 6.57057 6.52708
#
# Compressibility (1/GPa) = 0.02167574
#
# Stress axis : x y z
#
# Youngs Moduli (GPa) = 82.97328 73.25083 68.99317
#
# Poissons Ratio (x) = 0.05504 0.30519
# Poissons Ratio (y) = 0.06235 0.28192
# Poissons Ratio (z) = 0.36703 0.29932
#
# Static dielectric constant tensor:
#      x y z
#    x 3.922130 0.000000 0.000000 
#    y 0.000000 3.651860 0.000000 
#    z 0.000000 0.000000 3.624490 
# 
# 
# High freq. dielectric constant tensor:
#      x y z
#    x 1.781510 0.000000 0.000000 
#    y 0.000000 1.770470 0.000000 
#    z 0.000000 0.000000 1.761590 
# 
# From -- ./inp_files/45788.got.cif
#   From: 2010.03.12/outbox.cif.g09.slc.cpg/sg72_23_cif.got.tgz:45788.got - 2010.04.16 14:54:00.
