data_PCOD8294528
_publ_section_title
;
Structure prediction by ZEFSAII (Michael W. Deem and Ramdas Pophale) SiO2 
 PCOD8294528
Probable space group: I B A M
;
_chemical_formula_sum "Si O2"
_cell_formula_units_Z 112
_cell_length_a 16.039260
_cell_length_b 24.600824
_cell_length_c 14.999611
_cell_angle_alpha 90.000000
_cell_angle_beta 90.000000
_cell_angle_gamma 90.000000
_cell_volume 5918.531694
_symmetry_space_group_name_H-M "I B A M"
_symmetry_group_IT_number 72
_symmetry_cell_setting 'orthorhombic'
loop_
_space_group_symop_operation_xyz
x,y,z
-x,-y,z
x,-y,1/2-z
-x,y,1/2-z
-x,-y,-z
x,y,-z
-x,y,1/2+z
x,-y,1/2+z
1/2+x,1/2+y,1/2+z
1/2-x,1/2-y,1/2+z
1/2+x,1/2-y,-z
1/2-x,1/2+y,-z
1/2-x,1/2-y,1/2-z
1/2+x,1/2+y,1/2-z
1/2-x,1/2+y,z
1/2+x,1/2-y,z
loop_
_atom_site_type_symbol
_atom_site_label
_atom_site_fract_x
_atom_site_fract_y
_atom_site_fract_z
Si Si1 0.855524 0.357643 0.640935
Si Si2 0.520758 0.770786 0.596656
Si Si3 0.913502 0.183746 0.733873
Si Si4 0.483221 0.939755 0.103804
Si Si5 0.110283 0.350607 0.342645
Si Si6 0.299141 0.706364 0.601471
Si Si7 0.778166 0.177337 0.599250
O O1 0.917114 0.321165 0.582224
O O2 0.887964 0.419853 0.624657
O O3 0.863676 0.339570 0.742333
O O4 0.760510 0.346867 0.610653
O O5 0.516492 0.740598 0.500000
O O6 0.554102 0.735039 0.677195
O O7 0.429877 0.795172 0.619447
O O8 0.876211 0.200072 0.830271
O O9 0.844864 0.154357 0.671508
O O10 0.000000 0.149200 0.750000
O O11 0.549046 0.901505 0.154145
O O12 0.500000 0.000000 0.141381
O O13 0.503462 0.937616 0.000000
O O14 0.195820 0.360296 0.397342
O O15 0.333677 0.709040 0.500000
O O16 0.245124 0.760259 0.624606
O O17 0.816803 0.174547 0.500000
#
# Coordination Sequence:
#
# PCOD8294528 Si02
#       7
#    16  16  16  16  16  16  16
#     4  11  19  33  52  74 103 144 182 223 268 317
#     4  11  20  31  48  73 103 139 180 219 263 321
#     4  12  23  34  48  69 100 135 180 229 273 319
#     4  10  21  36  55  82 115 146 181 223 269 328
#     4  11  21  34  54  77 107 146 187 226 268 325
#     4  11  22  36  52  72 102 140 187 232 270 319
#     4  11  21  34  51  72 102 140 184 229 268 318
#
# _framework density 18.923613
#
# number of rings (size 3 to 8) (size 9 to 14) (size 15 to 20)
#    0.000    1.000    2.857    8.571    0.000    3.429 
#    0.000    0.000    0.000    0.000    0.000    0.000 
#    0.000    2.286    0.000    6.000    0.000    0.000 
#
# Total GULP energy -694013.035659 kJ/mol
# GULP energy per Si atom -12393.089922 kJ/mol
# Density = 1.888054 g / cm^3
# Si number density = 18.923613 Si / 1000 Ang^3
#
#
#
# Elastic Constant Matrix: (Units=GPa)
#
#
# Indices 1 2 3 4 5 6 
#
# 1 115.8600 18.8170 37.3470 0.0000 0.0000 0.0000
# 2 18.8170 47.5853 1.1186 -0.0001 0.0000 0.0000
# 3 37.3470 1.1186 132.4972 -0.0001 0.0001 0.0000
# 4 0.0000 -0.0001 -0.0001 15.7438 0.0001 0.0000
# 5 0.0000 0.0000 0.0001 0.0001 17.0080 0.0000
# 6 0.0000 0.0000 0.0000 0.0000 0.0000 17.8496
#
#
#
# Elastic Compliance Matrix: (Units=1/GPa)
#
#
# Indices 1 2 3 4 5 6 
#
# 1 0.010190 -0.003963 -0.002839 0.000000 0.000000 0.000000
# 2 -0.003963 0.022560 0.000926 0.000000 0.000000 0.000000
# 3 -0.002839 0.000926 0.008340 0.000000 0.000000 0.000000
# 4 0.000000 0.000000 0.000000 0.063517 0.000000 0.000000
# 5 0.000000 0.000000 0.000000 0.000000 0.058796 0.000000
# 6 0.000000 0.000000 0.000000 0.000000 0.000000 0.056024
#
#
# Mechanical properties :
#
#
# Convention : Reuss Voigt Hill
#
# Bulk Modulus (GPa) = 34.08352 45.61198 39.84775
# Shear Modulus (GPa) = 20.75072 26.03095 23.39084
#
# Velocity S-wave (km/s) = 3.31501 3.71291 3.51959
# Velocity P-wave (km/s) = 5.71862 6.52200 6.13348
#
# Compressibility (1/GPa) = 0.02933969
#
# Stress axis : x y z
#
# Youngs Moduli (GPa) = 98.13790 44.32603 119.90895
#
# Poissons Ratio (x) = 0.17565 0.34039
# Poissons Ratio (y) = 0.38889 -0.11109
# Poissons Ratio (z) = 0.27859 -0.04107
#
# Static dielectric constant tensor:
#      x y z
#    x 3.869220 0.000000 0.000000 
#    y 0.000000 3.007520 0.000000 
#    z 0.000000 0.000000 3.722780 
# 
# 
# High freq. dielectric constant tensor:
#      x y z
#    x 1.742030 0.000000 0.000000 
#    y 0.000000 1.643400 0.000000 
#    z 0.000000 0.000000 1.769150 
# 
# From -- ./inp_files/22262.got.cif
#   From: 2010.03.12/outbox.cif.g09.slc.cpg/sg72_12_cif.got.tgz:22262.got - 2010.04.16 14:54:00.
