data_PCOD8294900
_publ_section_title
;
Structure prediction by ZEFSAII (Michael W. Deem and Ramdas Pophale) SiO2 
 PCOD8294900
Probable space group: I B A M
;
_chemical_formula_sum "Si O2"
_cell_formula_units_Z 96
_cell_length_a 20.550397
_cell_length_b 27.485487
_cell_length_c 8.663092
_cell_angle_alpha 90.000000
_cell_angle_beta 90.000000
_cell_angle_gamma 90.000000
_cell_volume 4893.240697
_symmetry_space_group_name_H-M "I B A M"
_symmetry_group_IT_number 72
_symmetry_cell_setting 'orthorhombic'
loop_
_space_group_symop_operation_xyz
x,y,z
-x,-y,z
x,-y,1/2-z
-x,y,1/2-z
-x,-y,-z
x,y,-z
-x,y,1/2+z
x,-y,1/2+z
1/2+x,1/2+y,1/2+z
1/2-x,1/2-y,1/2+z
1/2+x,1/2-y,-z
1/2-x,1/2+y,-z
1/2-x,1/2-y,1/2-z
1/2+x,1/2+y,1/2-z
1/2-x,1/2+y,z
1/2+x,1/2-y,z
loop_
_atom_site_type_symbol
_atom_site_label
_atom_site_fract_x
_atom_site_fract_y
_atom_site_fract_z
Si Si1 0.569144 0.447840 0.682932
Si Si2 0.567245 0.787511 0.317219
Si Si3 0.684176 0.386667 0.182509
Si Si4 0.800651 0.552791 0.816412
Si Si5 0.567151 0.897725 0.318297
Si Si6 0.312739 0.725347 0.181590
O O1 0.589552 0.500000 0.750000
O O2 0.500000 0.430680 0.750000
O O3 0.564364 0.451640 0.500000
O O4 0.622855 0.409377 0.731651
O O5 0.500000 0.766975 0.250000
O O6 0.563982 0.785473 0.500000
O O7 0.579185 0.842726 0.258511
O O8 0.624304 0.753336 0.251920
O O9 0.750689 0.409598 0.242721
O O10 0.684493 0.330546 0.231114
O O11 0.677615 0.394475 0.000000
O O12 0.785274 0.500000 0.750000
O O13 0.872911 0.568812 0.764212
O O14 0.792402 0.552896 0.000000
O O15 0.500000 0.919082 0.250000
O O16 0.560712 0.898338 0.500000
O O17 0.250000 0.750000 0.250000
O O18 0.309861 0.731215 0.000000
#
# Coordination Sequence:
#
# PCOD8294900 Si02
#       6
#    16  16  16  16  16  16
#     4  11  22  39  62  87 116 151 189 234 284 340
#     4   9  18  35  56  81 110 143 181 223 269 323
#     4  11  23  39  58  84 115 150 191 236 283 337
#     4  11  23  39  58  82 111 147 187 233 284 337
#     4   9  19  35  57  81 110 145 183 225 274 329
#     4  10  22  38  58  83 114 148 188 234 280 331
#
# _framework density 19.618898999999999
#
# number of rings (size 3 to 8) (size 9 to 14) (size 15 to 20)
#    0.000    1.833    0.000    4.500    0.000    5.667 
#    0.000    6.667    0.000    0.000    0.000    0.000 
#    0.000    0.000    0.000    0.000    0.000    0.000 
#
# Total GULP energy -595379.782402 kJ/mol
# GULP energy per Si atom -12403.745467 kJ/mol
# Density = 1.957425 g / cm^3
# Si number density = 19.618899 Si / 1000 Ang^3
#
#
#
# Elastic Constant Matrix: (Units=GPa)
#
#
# Indices 1 2 3 4 5 6 
#
# 1 127.8541 45.4459 36.0608 0.0000 0.0000 0.0000
# 2 45.4459 79.0060 33.8061 0.0000 0.0000 0.0000
# 3 36.0608 33.8061 73.8524 0.0000 0.0000 0.0000
# 4 0.0000 0.0000 0.0000 25.5246 0.0000 0.0000
# 5 0.0000 0.0000 0.0000 0.0000 38.7377 0.0000
# 6 0.0000 0.0000 0.0000 0.0000 0.0000 43.6118
#
#
#
# Elastic Compliance Matrix: (Units=1/GPa)
#
#
# Indices 1 2 3 4 5 6 
#
# 1 0.010302 -0.004693 -0.002882 0.000000 0.000000 0.000000
# 2 -0.004693 0.017878 -0.005892 0.000000 0.000000 0.000000
# 3 -0.002882 -0.005892 0.017645 0.000000 0.000000 0.000000
# 4 0.000000 0.000000 0.000000 0.039178 0.000000 0.000000
# 5 0.000000 0.000000 0.000000 0.000000 0.025815 0.000000
# 6 0.000000 0.000000 0.000000 0.000000 0.000000 0.022930
#
#
# Mechanical properties :
#
#
# Convention : Reuss Voigt Hill
#
# Bulk Modulus (GPa) = 52.93625 56.81534 54.87579
# Shear Modulus (GPa) = 29.94384 32.60146 31.27265
#
# Velocity S-wave (km/s) = 3.91100 4.08086 3.99683
# Velocity P-wave (km/s) = 6.88733 7.15730 7.02361
#
# Compressibility (1/GPa) = 0.01889065
#
# Stress axis : x y z
#
# Youngs Moduli (GPa) = 97.06422 55.93489 56.67302
#
# Poissons Ratio (x) = 0.26249 0.16335
# Poissons Ratio (y) = 0.45551 0.33393
# Poissons Ratio (z) = 0.27977 0.32958
#
# Static dielectric constant tensor:
#      x y z
#    x 3.794650 0.000000 0.000000 
#    y 0.000000 3.627180 0.000000 
#    z 0.000000 0.000000 3.769760 
# 
# 
# High freq. dielectric constant tensor:
#      x y z
#    x 1.781770 0.000000 0.000000 
#    y 0.000000 1.765760 0.000000 
#    z 0.000000 0.000000 1.764520 
# 
# From -- ./inp_files/6004.got.cif
#   From: 2010.03.12/outbox.cif.g09.slc.cpg/sg72_4_cif.got.tgz:6004.got - 2010.04.16 14:54:00.
