data_PCOD8294565
_publ_section_title
;
Structure prediction by ZEFSAII (Michael W. Deem and Ramdas Pophale) SiO2 
 PCOD8294565
Probable space group: I B A M
;
_chemical_formula_sum "Si O2"
_cell_formula_units_Z 80
_cell_length_a 8.848270
_cell_length_b 25.343436
_cell_length_c 18.218522
_cell_angle_alpha 90.000000
_cell_angle_beta 90.000000
_cell_angle_gamma 90.000000
_cell_volume 4085.422749
_symmetry_space_group_name_H-M "I B A M"
_symmetry_group_IT_number 72
_symmetry_cell_setting 'orthorhombic'
loop_
_space_group_symop_operation_xyz
x,y,z
-x,-y,z
x,-y,1/2-z
-x,y,1/2-z
-x,-y,-z
x,y,-z
-x,y,1/2+z
x,-y,1/2+z
1/2+x,1/2+y,1/2+z
1/2-x,1/2-y,1/2+z
1/2+x,1/2-y,-z
1/2-x,1/2+y,-z
1/2-x,1/2-y,1/2-z
1/2+x,1/2+y,1/2-z
1/2-x,1/2+y,z
1/2+x,1/2-y,z
loop_
_atom_site_type_symbol
_atom_site_label
_atom_site_fract_x
_atom_site_fract_y
_atom_site_fract_z
Si Si1 0.102300 0.354426 0.821744
Si Si2 0.577032 0.221061 0.584310
Si Si3 0.314961 0.629476 0.083302
Si Si4 0.536250 0.060565 0.415519
Si Si5 0.069075 0.824286 0.174907
O O1 0.277526 0.353155 0.800850
O O2 0.000000 0.351558 0.750000
O O3 0.063948 0.305685 0.874992
O O4 0.079803 0.409002 0.864266
O O5 0.531305 0.229401 0.500000
O O6 0.723585 0.184137 0.592647
O O7 0.608964 0.277495 0.619555
O O8 0.207839 0.579346 0.104117
O O9 0.458869 0.632558 0.136926
O O10 0.373012 0.623254 0.000000
O O11 0.505452 0.075984 0.500000
O O12 0.500000 0.000000 0.400515
O O13 0.000000 0.801200 0.250000
#
# Coordination Sequence:
#
# PCOD8294565 Si02
#       5
#    16  16  16  16  16
#     4  11  23  38  56  80 111 148 189 226 271 335
#     4  10  21  37  56  79 110 149 188 225 274 336
#     4   9  19  35  55  82 113 142 180 229 277 328
#     4   9  19  39  64  84 105 139 182 226 275 334
#     4  12  23  34  52  80 115 149 183 229 277 321
#
# _framework density 19.581817000000001
#
# number of rings (size 3 to 8) (size 9 to 14) (size 15 to 20)
#    0.000    1.800    0.000    6.600    0.000    7.600 
#    0.000    1.000    0.000    4.800    0.000    0.000 
#    0.000    0.000    0.000    0.000    0.000    0.000 
#
# Total GULP energy -496020.818852 kJ/mol
# GULP energy per Si atom -12400.520471 kJ/mol
# Density = 1.953725 g / cm^3
# Si number density = 19.581817 Si / 1000 Ang^3
#
#
#
# Elastic Constant Matrix: (Units=GPa)
#
#
# Indices 1 2 3 4 5 6 
#
# 1 133.6931 52.3685 60.9841 0.0000 0.0000 0.0000
# 2 52.3685 104.3737 58.3043 0.0001 0.0000 0.0000
# 3 60.9841 58.3043 121.6129 0.0001 0.0000 0.0001
# 4 0.0000 0.0001 0.0001 18.7700 0.0000 0.0000
# 5 0.0000 0.0000 0.0000 0.0000 35.0213 0.0000
# 6 0.0000 0.0000 0.0001 0.0000 0.0000 13.9017
#
#
#
# Elastic Compliance Matrix: (Units=1/GPa)
#
#
# Indices 1 2 3 4 5 6 
#
# 1 0.010405 -0.003149 -0.003708 0.000000 0.000000 0.000000
# 2 -0.003149 0.014039 -0.005151 0.000000 0.000000 0.000000
# 3 -0.003708 -0.005151 0.012552 0.000000 0.000000 0.000000
# 4 0.000000 0.000000 0.000000 0.053277 0.000000 0.000000
# 5 0.000000 0.000000 0.000000 0.000000 0.028554 0.000000
# 6 0.000000 0.000000 0.000000 0.000000 0.000000 0.071934
#
#
# Mechanical properties :
#
#
# Convention : Reuss Voigt Hill
#
# Bulk Modulus (GPa) = 77.04996 78.11037 77.58017
# Shear Modulus (GPa) = 22.82044 26.07346 24.44695
#
# Velocity S-wave (km/s) = 3.41748 3.65295 3.53718
# Velocity P-wave (km/s) = 7.41656 7.60052 7.50910
#
# Compressibility (1/GPa) = 0.01297859
#
# Stress axis : x y z
#
# Youngs Moduli (GPa) = 96.11064 71.23208 79.67049
#
# Poissons Ratio (x) = 0.22433 0.29539
# Poissons Ratio (y) = 0.30268 0.41040
# Poissons Ratio (z) = 0.35635 0.36693
#
# Static dielectric constant tensor:
#      x y z
#    x 3.538650 0.000000 0.000000 
#    y 0.000000 3.344820 0.000000 
#    z 0.000000 0.000000 3.752520 
# 
# 
# High freq. dielectric constant tensor:
#      x y z
#    x 1.756710 0.000000 0.000000 
#    y 0.000000 1.735310 0.000000 
#    z 0.000000 0.000000 1.779910 
# 
# From -- ./inp_files/28147.got.cif
#   From: 2010.03.12/outbox.cif.g09.slc.cpg/sg72_15_cif.got.tgz:28147.got - 2010.04.16 14:54:00.
