data_PCOD8294627
_publ_section_title
;
Structure prediction by ZEFSAII (Michael W. Deem and Ramdas Pophale) SiO2 
 PCOD8294627
Probable space group: I B A M
;
_chemical_formula_sum "Si O2"
_cell_formula_units_Z 112
_cell_length_a 13.700092
_cell_length_b 17.855215
_cell_length_c 23.480255
_cell_angle_alpha 90.000000
_cell_angle_beta 90.000000
_cell_angle_gamma 90.000000
_cell_volume 5743.695088
_symmetry_space_group_name_H-M "I B A M"
_symmetry_group_IT_number 72
_symmetry_cell_setting 'orthorhombic'
loop_
_space_group_symop_operation_xyz
x,y,z
-x,-y,z
x,-y,1/2-z
-x,y,1/2-z
-x,-y,-z
x,y,-z
-x,y,1/2+z
x,-y,1/2+z
1/2+x,1/2+y,1/2+z
1/2-x,1/2-y,1/2+z
1/2+x,1/2-y,-z
1/2-x,1/2+y,-z
1/2-x,1/2-y,1/2-z
1/2+x,1/2+y,1/2-z
1/2-x,1/2+y,z
1/2+x,1/2-y,z
loop_
_atom_site_type_symbol
_atom_site_label
_atom_site_fract_x
_atom_site_fract_y
_atom_site_fract_z
Si Si1 0.294978 0.165160 0.063998
Si Si2 0.349576 0.842843 0.860014
Si Si3 0.166403 0.167727 0.434723
Si Si4 0.654993 0.671294 0.665321
Si Si5 0.538151 0.416808 0.650524
Si Si6 0.723854 0.416754 0.730639
Si Si7 0.509797 0.913423 0.064773
O O1 0.349919 0.243921 0.075967
O O2 0.205897 0.147799 0.106075
O O3 0.375762 0.101960 0.072226
O O4 0.251264 0.164956 0.000000
O O5 0.271918 0.852088 0.910350
O O6 0.357542 0.760268 0.833533
O O7 0.315548 0.895736 0.808691
O O8 0.451756 0.866684 0.887658
O O9 0.165161 0.144945 0.500000
O O10 0.080235 0.120006 0.406575
O O11 0.550821 0.632918 0.672177
O O12 0.721485 0.642361 0.717409
O O13 0.500000 0.500000 0.637662
O O14 0.620284 0.415452 0.698787
O O15 0.746280 0.500000 0.750000
O O16 0.500000 0.000000 0.077977
O O17 0.476134 0.893089 0.000000
#
# Coordination Sequence:
#
# PCOD8294627 Si02
#       7
#    16  16  16  16  16  16  16
#     4   9  20  38  59  87 119 156 195 242 296 356
#     4  10  22  39  61  89 114 157 204 248 295 353
#     4   9  19  36  58  86 122 152 191 245 299 353
#     4  11  22  38  63  87 117 156 203 246 296 365
#     4  11  22  36  59  89 117 159 198 245 301 364
#     4  11  23  40  63  84 120 157 200 249 306 360
#     4  10  21  37  61  87 120 161 200 240 296 364
#
# _framework density 19.499642000000001
#
# number of rings (size 3 to 8) (size 9 to 14) (size 15 to 20)
#    0.000    1.857    1.429    2.143    2.000    1.429 
#    0.000    3.571    0.000    0.000    0.000    0.000 
#    0.000    0.000    0.000    0.000    0.000    0.000 
#
# Total GULP energy -694480.178802 kJ/mol
# GULP energy per Si atom -12401.431764 kJ/mol
# Density = 1.945526 g / cm^3
# Si number density = 19.499642 Si / 1000 Ang^3
#
#
#
# Elastic Constant Matrix: (Units=GPa)
#
#
# Indices 1 2 3 4 5 6 
#
# 1 43.0693 17.3140 11.8174 0.0000 0.0000 0.0000
# 2 17.3140 102.0377 39.3390 0.0000 0.0000 0.0000
# 3 11.8174 39.3390 96.1143 0.0000 0.0000 0.0000
# 4 0.0000 0.0000 0.0000 30.3235 0.0000 0.0000
# 5 0.0000 0.0000 0.0000 0.0000 37.7845 0.0000
# 6 0.0000 0.0000 0.0000 0.0000 0.0000 28.6974
#
#
#
# Elastic Compliance Matrix: (Units=1/GPa)
#
#
# Indices 1 2 3 4 5 6 
#
# 1 0.025123 -0.003648 -0.001596 0.000000 0.000000 0.000000
# 2 -0.003648 0.012166 -0.004531 0.000000 0.000000 0.000000
# 3 -0.001596 -0.004531 0.012455 0.000000 0.000000 0.000000
# 4 0.000000 0.000000 0.000000 0.032978 0.000000 0.000000
# 5 0.000000 0.000000 0.000000 0.000000 0.026466 0.000000
# 6 0.000000 0.000000 0.000000 0.000000 0.000000 0.034846
#
#
# Mechanical properties :
#
#
# Convention : Reuss Voigt Hill
#
# Bulk Modulus (GPa) = 33.11844 42.01800 37.56822
# Shear Modulus (GPa) = 28.79393 30.87780 29.83587
#
# Velocity S-wave (km/s) = 3.84687 3.98365 3.91586
# Velocity P-wave (km/s) = 6.06236 6.53866 6.30501
#
# Compressibility (1/GPa) = 0.03019466
#
# Stress axis : x y z
#
# Youngs Moduli (GPa) = 39.80477 82.19566 80.28888
#
# Poissons Ratio (x) = 0.29982 0.12814
# Poissons Ratio (y) = 0.14519 0.36379
# Poissons Ratio (z) = 0.06353 0.37243
#
# Static dielectric constant tensor:
#      x y z
#    x 3.425740 0.000000 0.000000 
#    y 0.000000 3.647890 0.000000 
#    z 0.000000 0.000000 3.680670 
# 
# 
# High freq. dielectric constant tensor:
#      x y z
#    x 1.749800 0.000000 0.000000 
#    y 0.000000 1.766810 0.000000 
#    z 0.000000 0.000000 1.766650 
# 
# From -- ./inp_files/44356.got.cif
#   From: 2010.03.12/outbox.cif.g09.slc.cpg/sg72_23_cif.got.tgz:44356.got - 2010.04.16 14:54:00.
