data_PCOD8294016
_publ_section_title
;
Structure prediction by ZEFSAII (Michael W. Deem and Ramdas Pophale) SiO2 
 PCOD8294016
Probable space group: I B A M
;
_chemical_formula_sum "Si O2"
_cell_formula_units_Z 104
_cell_length_a 9.034637
_cell_length_b 21.455512
_cell_length_c 28.967236
_cell_angle_alpha 90.000000
_cell_angle_beta 90.000000
_cell_angle_gamma 90.000000
_cell_volume 5615.089050
_symmetry_space_group_name_H-M "I B A M"
_symmetry_group_IT_number 72
_symmetry_cell_setting 'orthorhombic'
loop_
_space_group_symop_operation_xyz
x,y,z
-x,-y,z
x,-y,1/2-z
-x,y,1/2-z
-x,-y,-z
x,y,-z
-x,y,1/2+z
x,-y,1/2+z
1/2+x,1/2+y,1/2+z
1/2-x,1/2-y,1/2+z
1/2+x,1/2-y,-z
1/2-x,1/2+y,-z
1/2-x,1/2-y,1/2-z
1/2+x,1/2+y,1/2-z
1/2-x,1/2+y,z
1/2+x,1/2-y,z
loop_
_atom_site_type_symbol
_atom_site_label
_atom_site_fract_x
_atom_site_fract_y
_atom_site_fract_z
Si Si1 0.827110 0.988285 0.448232
Si Si2 0.868988 0.200926 0.612953
Si Si3 0.752301 0.709527 0.812135
Si Si4 0.605142 0.811745 0.551909
Si Si5 0.176255 0.616041 0.947701
Si Si6 0.337905 0.630847 0.608685
Si Si7 0.000000 0.743137 0.750000
O O1 0.773359 0.966221 0.500000
O O2 0.809561 0.939939 0.406227
O O3 0.730052 0.047688 0.431969
O O4 0.000000 0.000000 0.452489
O O5 0.793396 0.226870 0.659835
O O6 0.950491 0.256686 0.585450
O O7 0.740966 0.170901 0.582922
O O8 0.992509 0.147589 0.620100
O O9 0.752877 0.648904 0.845052
O O10 0.591823 0.715650 0.787327
O O11 0.881217 0.698527 0.774899
O O12 0.605365 0.786219 0.500000
O O13 0.501020 0.873653 0.556426
O O14 0.772848 0.828824 0.566184
O O15 0.231716 0.625907 0.000000
#
# Coordination Sequence:
#
# PCOD8294016 Si02
#       7
#    16  16  16  16  16  16   8
#     4  10  20  35  54  76 109 157 203 233 258 304
#     4  11  20  33  53  82 116 143 183 224 278 339
#     4  10  21  36  57  89 112 141 171 225 288 354
#     4  10  21  32  48  76 113 151 185 231 279 317
#     4  10  21  35  52  77 114 158 196 228 265 313
#     4  11  21  34  53  79 111 141 189 229 271 323
#     4  10  20  38  60  82 118 138 168 222 302 356
#
# _framework density 18.521522000000001
#
# number of rings (size 3 to 8) (size 9 to 14) (size 15 to 20)
#    0.000    1.692    3.077    2.769    2.154    3.692 
#    0.000    2.308    0.000    0.000    0.000   11.308 
#    0.000    0.000    0.000    0.000    0.000    0.000 
#
# Total GULP energy -644307.324660 kJ/mol
# GULP energy per Si atom -12390.525474 kJ/mol
# Density = 1.847937 g / cm^3
# Si number density = 18.521522 Si / 1000 Ang^3
#
#
#
# Elastic Constant Matrix: (Units=GPa)
#
#
# Indices 1 2 3 4 5 6 
#
# 1 80.3881 22.9674 33.6743 0.0000 0.0000 0.0000
# 2 22.9674 85.3221 45.5308 0.0000 0.0000 0.0000
# 3 33.6743 45.5308 90.9356 0.0000 0.0000 0.0000
# 4 0.0000 0.0000 0.0000 24.0426 0.0000 0.0000
# 5 0.0000 0.0000 0.0000 0.0000 59.6112 0.0000
# 6 0.0000 0.0000 0.0000 0.0000 0.0000 24.6049
#
#
#
# Elastic Compliance Matrix: (Units=1/GPa)
#
#
# Indices 1 2 3 4 5 6 
#
# 1 0.014854 -0.001451 -0.004774 0.000000 0.000000 0.000000
# 2 -0.001451 0.016135 -0.007542 0.000000 0.000000 0.000000
# 3 -0.004774 -0.007542 0.016541 0.000000 0.000000 0.000000
# 4 0.000000 0.000000 0.000000 0.041593 0.000000 0.000000
# 5 0.000000 0.000000 0.000000 0.000000 0.016775 0.000000
# 6 0.000000 0.000000 0.000000 0.000000 0.000000 0.040642
#
#
# Mechanical properties :
#
#
# Convention : Reuss Voigt Hill
#
# Bulk Modulus (GPa) = 50.00769 51.22119 50.61444
# Shear Modulus (GPa) = 27.66417 31.94997 29.80707
#
# Velocity S-wave (km/s) = 3.86893 4.15784 4.01599
# Velocity P-wave (km/s) = 6.85686 7.12497 6.99220
#
# Compressibility (1/GPa) = 0.01999693
#
# Stress axis : x y z
#
# Youngs Moduli (GPa) = 67.32169 61.97610 60.45686
#
# Poissons Ratio (x) = 0.08992 0.28863
# Poissons Ratio (y) = 0.09767 0.45594
# Poissons Ratio (z) = 0.32141 0.46740
#
# Static dielectric constant tensor:
#      x y z
#    x 3.495540 0.000000 0.000000 
#    y 0.000000 3.245540 0.000000 
#    z 0.000000 0.000000 3.491170 
# 
# 
# High freq. dielectric constant tensor:
#      x y z
#    x 1.732770 0.000000 0.000000 
#    y 0.000000 1.683230 0.000000 
#    z 0.000000 0.000000 1.709170 
# 
# From -- ./inp_files/50900.got.cif
#   From: 2010.03.12/outbox.cif.g09.slc.cpg/sg72_26_cif.got.tgz:50900.got - 2010.04.16 14:54:00.
