data_PCOD8294981
_publ_section_title
;
Structure prediction by ZEFSAII (Michael W. Deem and Ramdas Pophale) SiO2 
 PCOD8294981
Probable space group: I B A M
;
_chemical_formula_sum "Si O2"
_cell_formula_units_Z 112
_cell_length_a 27.988776
_cell_length_b 10.814736
_cell_length_c 17.723034
_cell_angle_alpha 90.000000
_cell_angle_beta 90.000000
_cell_angle_gamma 90.000000
_cell_volume 5364.606844
_symmetry_space_group_name_H-M "I B A M"
_symmetry_group_IT_number 72
_symmetry_cell_setting 'orthorhombic'
loop_
_space_group_symop_operation_xyz
x,y,z
-x,-y,z
x,-y,1/2-z
-x,y,1/2-z
-x,-y,-z
x,y,-z
-x,y,1/2+z
x,-y,1/2+z
1/2+x,1/2+y,1/2+z
1/2-x,1/2-y,1/2+z
1/2+x,1/2-y,-z
1/2-x,1/2+y,-z
1/2-x,1/2-y,1/2-z
1/2+x,1/2+y,1/2-z
1/2-x,1/2+y,z
1/2+x,1/2-y,z
loop_
_atom_site_type_symbol
_atom_site_label
_atom_site_fract_x
_atom_site_fract_y
_atom_site_fract_z
Si Si1 0.425138 0.683814 0.914998
Si Si2 0.887646 0.928165 0.411939
Si Si3 0.548192 0.059477 0.329377
Si Si4 0.299056 0.122671 0.298022
Si Si5 0.123767 0.575941 0.588631
Si Si6 0.980171 0.163141 0.171371
Si Si7 0.688943 0.369450 0.708007
O O1 0.384560 0.577302 0.909675
O O2 0.405402 0.807838 0.876631
O O3 0.476064 0.646137 0.884059
O O4 0.435213 0.720412 0.000000
O O5 0.888735 0.881753 0.500000
O O6 0.936420 0.907250 0.366457
O O7 0.843543 0.865609 0.367497
O O8 0.538654 0.200847 0.313996
O O9 0.500000 0.000000 0.364568
O O10 0.562116 0.000000 0.250000
O O11 0.593279 0.044082 0.385649
O O12 0.323810 0.089226 0.376847
O O13 0.321195 0.247299 0.259295
O O14 0.243643 0.140805 0.317646
O O15 0.307629 0.000000 0.250000
O O16 0.130926 0.573393 0.500000
O O17 0.000000 0.106974 0.250000
O O18 0.678496 0.500000 0.750000
#
# Coordination Sequence:
#
# PCOD8294981 Si02
#       7
#    16  16  16  16  16  16  16
#     4  10  22  41  58  83 126 168 204 253 311 371
#     4  11  26  42  62  92 128 164 209 268 319 373
#     4  11  21  39  58  84 122 165 209 257 308 366
#     4  10  23  43  67  97 129 160 210 278 326 377
#     4  11  23  37  63  93 124 167 208 254 320 388
#     4  12  24  37  60  91 122 168 213 254 305 376
#     4  10  23  44  71  94 122 171 217 259 326 398
#
# _framework density 20.877578
#
# number of rings (size 3 to 8) (size 9 to 14) (size 15 to 20)
#    0.000    1.286    2.857    2.143    8.000    3.714 
#    0.000    0.000    0.000    5.143    0.000    0.000 
#    0.000    0.000    0.000    0.000    0.000    0.000 
#
# Total GULP energy -694006.039042 kJ/mol
# GULP energy per Si atom -12392.964983 kJ/mol
# Density = 2.083006 g / cm^3
# Si number density = 20.877578 Si / 1000 Ang^3
#
#
#
# Elastic Constant Matrix: (Units=GPa)
#
#
# Indices 1 2 3 4 5 6 
#
# 1 107.3838 20.1778 71.4754 0.0000 0.0000 0.0000
# 2 20.1778 100.2280 35.7002 0.0000 0.0000 0.0000
# 3 71.4754 35.7002 123.1689 0.0000 0.0000 0.0000
# 4 0.0000 0.0000 0.0000 9.3206 0.0000 0.0000
# 5 0.0000 0.0000 0.0000 0.0000 34.2365 0.0000
# 6 0.0000 0.0000 0.0000 0.0000 0.0000 28.0518
#
#
#
# Elastic Compliance Matrix: (Units=1/GPa)
#
#
# Indices 1 2 3 4 5 6 
#
# 1 0.015174 0.000091 -0.008832 0.000000 0.000000 0.000000
# 2 0.000091 0.011126 -0.003278 0.000000 0.000000 0.000000
# 3 -0.008832 -0.003278 0.014194 0.000000 0.000000 0.000000
# 4 0.000000 0.000000 0.000000 0.107289 0.000000 0.000000
# 5 0.000000 0.000000 0.000000 0.000000 0.029209 0.000000
# 6 0.000000 0.000000 0.000000 0.000000 0.000000 0.035648
#
#
# Mechanical properties :
#
#
# Convention : Reuss Voigt Hill
#
# Bulk Modulus (GPa) = 60.76359 65.05417 62.90888
# Shear Modulus (GPa) = 20.64719 27.88360 24.26539
#
# Velocity S-wave (km/s) = 3.14819 3.65852 3.41291
# Velocity P-wave (km/s) = 6.51020 7.00527 6.76227
#
# Compressibility (1/GPa) = 0.01645722
#
# Stress axis : x y z
#
# Youngs Moduli (GPa) = 65.90306 89.87605 70.45172
#
# Poissons Ratio (x) = -0.00818 0.62222
# Poissons Ratio (y) = -0.00600 0.23093
# Poissons Ratio (z) = 0.58204 0.29459
#
# Static dielectric constant tensor:
#      x y z
#    x 3.774120 0.000000 0.000000 
#    y 0.000000 4.221240 0.000000 
#    z 0.000000 0.000000 3.901310 
# 
# 
# High freq. dielectric constant tensor:
#      x y z
#    x 1.815080 0.000000 0.000000 
#    y 0.000000 1.833590 0.000000 
#    z 0.000000 0.000000 1.809860 
# 
# From -- ./inp_files/26421.got.cif
#   From: 2010.03.12/outbox.cif.g09.slc.cpg/sg72_14_cif.got.tgz:26421.got - 2010.04.16 14:54:00.
