data_PCOD8294717
_publ_section_title
;
Structure prediction by ZEFSAII (Michael W. Deem and Ramdas Pophale) SiO2 
 PCOD8294717
Probable space group: I B A M
;
_chemical_formula_sum "Si O2"
_cell_formula_units_Z 56
_cell_length_a 15.992500
_cell_length_b 15.560262
_cell_length_c 10.191746
_cell_angle_alpha 90.000000
_cell_angle_beta 90.000000
_cell_angle_gamma 90.000000
_cell_volume 2536.190411
_symmetry_space_group_name_H-M "I B A M"
_symmetry_group_IT_number 72
_symmetry_cell_setting 'orthorhombic'
loop_
_space_group_symop_operation_xyz
x,y,z
-x,-y,z
x,-y,1/2-z
-x,y,1/2-z
-x,-y,-z
x,y,-z
-x,y,1/2+z
x,-y,1/2+z
1/2+x,1/2+y,1/2+z
1/2-x,1/2-y,1/2+z
1/2+x,1/2-y,-z
1/2-x,1/2+y,-z
1/2-x,1/2-y,1/2-z
1/2+x,1/2+y,1/2-z
1/2-x,1/2+y,z
1/2+x,1/2-y,z
loop_
_atom_site_type_symbol
_atom_site_label
_atom_site_fract_x
_atom_site_fract_y
_atom_site_fract_z
Si Si1 0.177250 0.590942 0.000000
Si Si2 0.745552 0.351318 0.262640
Si Si3 0.974504 0.715993 0.500000
Si Si4 0.861901 0.400038 0.500000
Si Si5 0.560813 0.376852 0.356321
O O1 0.235836 0.599362 0.127412
O O2 0.125169 0.502406 0.000000
O O3 0.112191 0.667024 0.000000
O O4 0.750000 0.250000 0.250000
O O5 0.813037 0.376033 0.370021
O O6 0.654832 0.382366 0.306038
O O7 0.050735 0.650036 0.500000
O O8 0.972390 0.778002 0.627848
O O9 0.500000 0.422293 0.250000
O O10 0.556128 0.422852 0.500000
#
# Coordination Sequence:
#
# PCOD8294717 Si02
#       5
#     8  16   8   8  16
#     4  12  26  38  66 101 136 188 212 271 346 399
#     4  12  22  44  65  95 131 181 233 271 323 405
#     4  10  22  40  61  97 139 175 222 253 341 400
#     4  12  25  42  65  98 145 171 214 282 342 412
#     4  10  21  38  65  98 123 167 230 276 326 377
#
# _framework density 22.080359999999999
#
# number of rings (size 3 to 8) (size 9 to 14) (size 15 to 20)
#    0.857    0.000    4.286    3.857    2.000    0.000 
#    0.000    2.857    0.000    5.143    0.000    0.000 
#    0.000    0.000    0.000    0.000    0.000    0.000 
#
# Total GULP energy -347082.238680 kJ/mol
# GULP energy per Si atom -12395.794239 kJ/mol
# Density = 2.203010 g / cm^3
# Si number density = 22.080360 Si / 1000 Ang^3
#
#
#
# Elastic Constant Matrix: (Units=GPa)
#
#
# Indices 1 2 3 4 5 6 
#
# 1 128.2165 -6.6390 64.1281 0.0000 0.0000 0.0000
# 2 -6.6390 59.1671 6.0078 0.0000 0.0000 0.0000
# 3 64.1281 6.0078 186.3360 0.0000 0.0000 0.0000
# 4 0.0000 0.0000 0.0000 -8.9476 0.0000 0.0000
# 5 0.0000 0.0000 0.0000 0.0000 28.8362 0.0000
# 6 0.0000 0.0000 0.0000 0.0000 0.0000 -0.0756
#
#
#
# Elastic Compliance Matrix: (Units=1/GPa)
#
#
# Indices 1 2 3 4 5 6 
#
# 1 0.009536 0.001408 -0.003327 0.000000 0.000000 0.000000
# 2 0.001408 0.017165 -0.001038 0.000000 0.000000 0.000000
# 3 -0.003327 -0.001038 0.006545 0.000000 0.000000 0.000000
# 4 0.000000 0.000000 0.000000 -0.111762 0.000000 0.000000
# 5 0.000000 0.000000 0.000000 0.000000 0.034679 0.000000
# 6 0.000000 0.000000 0.000000 0.000000 0.000000-13.232414
#
#
# Mechanical properties :
#
#
# Convention : Reuss Voigt Hill
#
# Bulk Modulus (GPa) = 36.58786 55.63480 46.11133
# Shear Modulus (GPa) = -0.37704 24.64414 12.13355
#
# Velocity S-wave (km/s) = -0.41368 3.34445 2.34672
# Velocity P-wave (km/s) = 4.04699 6.33759 5.31710
#
# Compressibility (1/GPa) = 0.02733147
#
# Stress axis : x y z
#
# Youngs Moduli (GPa) = 104.86121 58.25930 152.78272
#
# Poissons Ratio (x) = -0.08202 0.50837
# Poissons Ratio (y) = -0.14764 0.15858
# Poissons Ratio (z) = 0.34891 0.06047
#
# Static dielectric constant tensor:
#      x y z
#    x 3.968240 0.000000 0.000000 
#    y 0.000000 3.266960 0.000000 
#    z 0.000000 0.000000 4.258190 
# 
# 
# High freq. dielectric constant tensor:
#      x y z
#    x 1.872400 0.000000 0.000000 
#    y 0.000000 1.864750 0.000000 
#    z 0.000000 0.000000 1.886920 
# 
# From -- ./inp_files/4213.got.cif
#   From: 2010.03.12/outbox.cif.g09.slc.cpg/sg72_3_cif.got.tgz:4213.got - 2010.04.16 14:54:00.
