data_PCOD8294620
_publ_section_title
;
Structure prediction by ZEFSAII (Michael W. Deem and Ramdas Pophale) SiO2 
 PCOD8294620
Probable space group: I B A M
;
_chemical_formula_sum "Si O2"
_cell_formula_units_Z 116
_cell_length_a 22.338866
_cell_length_b 27.167914
_cell_length_c 9.108108
_cell_angle_alpha 90.000000
_cell_angle_beta 90.000000
_cell_angle_gamma 90.000000
_cell_volume 5527.714301
_symmetry_space_group_name_H-M "I B A M"
_symmetry_group_IT_number 72
_symmetry_cell_setting 'orthorhombic'
loop_
_space_group_symop_operation_xyz
x,y,z
-x,-y,z
x,-y,1/2-z
-x,y,1/2-z
-x,-y,-z
x,y,-z
-x,y,1/2+z
x,-y,1/2+z
1/2+x,1/2+y,1/2+z
1/2-x,1/2-y,1/2+z
1/2+x,1/2-y,-z
1/2-x,1/2+y,-z
1/2-x,1/2-y,1/2-z
1/2+x,1/2+y,1/2-z
1/2-x,1/2+y,z
1/2+x,1/2-y,z
loop_
_atom_site_type_symbol
_atom_site_label
_atom_site_fract_x
_atom_site_fract_y
_atom_site_fract_z
Si Si1 0.627702 0.178933 0.671377
Si Si2 0.937079 0.049097 0.826830
Si Si3 0.762906 0.849448 0.164019
Si Si4 0.223735 0.456601 0.664073
Si Si5 0.620606 0.347840 0.329745
Si Si6 0.560280 0.261964 0.174510
Si Si7 0.599463 0.925928 0.834868
Si Si8 0.500000 0.000000 0.250000
O O1 0.615973 0.191549 0.500000
O O2 0.697829 0.170954 0.703401
O O3 0.611205 0.224008 0.775466
O O4 0.589422 0.130048 0.723739
O O5 0.892171 0.094641 0.800721
O O6 0.000000 0.061712 0.750000
O O7 0.909903 0.000000 0.750000
O O8 0.946865 0.039733 0.000000
O O9 0.763245 0.908291 0.172358
O O10 0.812626 0.832014 0.279662
O O11 0.781678 0.832461 0.000000
O O12 0.257644 0.500000 0.750000
O O13 0.215491 0.475650 0.500000
O O14 0.157873 0.449209 0.742396
O O15 0.613011 0.334057 0.500000
O O16 0.573954 0.316435 0.234309
O O17 0.500000 0.242609 0.250000
O O18 0.554016 0.262959 0.000000
O O19 0.542170 0.962326 0.838915
O O20 0.621271 0.916185 0.000000
#
# Coordination Sequence:
#
# PCOD8294620 Si02
#       8
#    16  16  16  16  16  16  16   4
#     4   9  20  42  64  85 120 162 206 256 307 361
#     4  10  21  37  60  90 124 163 201 244 298 357
#     4   9  20  38  61  85 117 161 202 249 307 362
#     4   9  17  33  52  75 110 153 197 243 297 353
#     4  11  24  41  63  93 126 159 202 252 298 358
#     4  12  26  44  67  94 122 158 200 245 304 363
#     4   9  19  33  50  77 116 155 195 247 303 356
#     4  12  18  28  52  86 116 156 206 248 306 356
#
# _framework density 20.985164999999999
#
# number of rings (size 3 to 8) (size 9 to 14) (size 15 to 20)
#    0.000    2.069    0.690    4.759    0.966    5.517 
#    0.000    5.517    0.000    0.000    0.000    0.000 
#    0.000    0.000    0.000    0.000    0.000    0.000 
#
# Total GULP energy -718770.175299 kJ/mol
# GULP energy per Si atom -12392.589229 kJ/mol
# Density = 2.093740 g / cm^3
# Si number density = 20.985165 Si / 1000 Ang^3
#
#
#
# Elastic Constant Matrix: (Units=GPa)
#
#
# Indices 1 2 3 4 5 6 
#
# 1 78.0482 24.6019 39.7258 0.0000 0.0000 0.0000
# 2 24.6019 103.1076 53.0999 0.0000 0.0000 0.0000
# 3 39.7258 53.0999 129.3427 0.0000 0.0000 0.0000
# 4 0.0000 0.0000 0.0000 34.7828 0.0000 0.0000
# 5 0.0000 0.0000 0.0000 0.0000 26.2775 0.0000
# 6 0.0000 0.0000 0.0000 0.0000 0.0000 19.6986
#
#
#
# Elastic Compliance Matrix: (Units=1/GPa)
#
#
# Indices 1 2 3 4 5 6 
#
# 1 0.015384 -0.001569 -0.004081 0.000000 0.000000 0.000000
# 2 -0.001569 0.012459 -0.004633 0.000000 0.000000 0.000000
# 3 -0.004081 -0.004633 0.010887 0.000000 0.000000 0.000000
# 4 0.000000 0.000000 0.000000 0.028750 0.000000 0.000000
# 5 0.000000 0.000000 0.000000 0.000000 0.038055 0.000000
# 6 0.000000 0.000000 0.000000 0.000000 0.000000 0.050765
#
#
# Mechanical properties :
#
#
# Convention : Reuss Voigt Hill
#
# Bulk Modulus (GPa) = 55.05346 60.59486 57.82416
# Shear Modulus (GPa) = 27.33425 29.02320 28.17872
#
# Velocity S-wave (km/s) = 3.61300 3.72295 3.66839
# Velocity P-wave (km/s) = 6.61033 6.88609 6.74962
#
# Compressibility (1/GPa) = 0.01816416
#
# Stress axis : x y z
#
# Youngs Moduli (GPa) = 65.00119 80.26374 91.85467
#
# Poissons Ratio (x) = 0.12594 0.37485
# Poissons Ratio (y) = 0.10200 0.42555
# Poissons Ratio (z) = 0.26526 0.37185
#
# Static dielectric constant tensor:
#      x y z
#    x 3.589230 0.000000 0.000000 
#    y 0.000000 3.872400 0.000000 
#    z 0.000000 0.000000 3.611550 
# 
# 
# High freq. dielectric constant tensor:
#      x y z
#    x 1.813950 0.000000 0.000000 
#    y 0.000000 1.831020 0.000000 
#    z 0.000000 0.000000 1.806340 
# 
# From -- ./inp_files/7281.got.cif
#   From: 2010.03.12/outbox.cif.g09.slc.cpg/sg72_4_cif.got.tgz:7281.got - 2010.04.16 14:54:00.
