data_PCOD8294506
_publ_section_title
;
Structure prediction by ZEFSAII (Michael W. Deem and Ramdas Pophale) SiO2 
 PCOD8294506
Probable space group: I B A M
;
_chemical_formula_sum "Si O2"
_cell_formula_units_Z 72
_cell_length_a 17.374306
_cell_length_b 14.393749
_cell_length_c 15.014601
_cell_angle_alpha 90.000000
_cell_angle_beta 90.000000
_cell_angle_gamma 90.000000
_cell_volume 3754.872433
_symmetry_space_group_name_H-M "I B A M"
_symmetry_group_IT_number 72
_symmetry_cell_setting 'orthorhombic'
loop_
_space_group_symop_operation_xyz
x,y,z
-x,-y,z
x,-y,1/2-z
-x,y,1/2-z
-x,-y,-z
x,y,-z
-x,y,1/2+z
x,-y,1/2+z
1/2+x,1/2+y,1/2+z
1/2-x,1/2-y,1/2+z
1/2+x,1/2-y,-z
1/2-x,1/2+y,-z
1/2-x,1/2-y,1/2-z
1/2+x,1/2+y,1/2-z
1/2-x,1/2+y,z
1/2+x,1/2-y,z
loop_
_atom_site_type_symbol
_atom_site_label
_atom_site_fract_x
_atom_site_fract_y
_atom_site_fract_z
Si Si1 0.687799 0.998691 0.602690
Si Si2 0.188761 0.000000 0.750000
Si Si3 0.400769 0.815769 0.398419
Si Si4 0.922877 0.331245 0.601465
Si Si5 0.910381 0.819683 0.244844
O O1 0.713229 0.991181 0.500000
O O2 0.621110 0.925478 0.625301
O O3 0.760736 0.977175 0.663551
O O4 0.656190 0.100638 0.625423
O O5 0.135942 0.912753 0.727691
O O6 0.389890 0.782892 0.500000
O O7 0.487376 0.851189 0.380829
O O8 0.381668 0.728398 0.336042
O O9 0.907908 0.300554 0.500000
O O10 0.892194 0.248518 0.662936
O O11 0.000000 0.845015 0.250000
#
# Coordination Sequence:
#
# PCOD8294506 Si02
#       5
#    16   8  16  16  16
#     4  10  21  35  55  85 115 139 165 209 272 331
#     4  12  25  38  51  74 110 148 184 220 259 306
#     4   9  18  35  59  84 108 136 173 217 265 317
#     4   9  18  35  59  84 108 136 173 217 265 317
#     4  10  22  39  57  75 100 141 189 228 259 300
#
# _framework density 19.175084999999999
#
# number of rings (size 3 to 8) (size 9 to 14) (size 15 to 20)
#    0.000    2.222    0.000    2.333    0.000    8.000 
#    0.000    8.889    0.000    6.667    0.000    0.000 
#    0.000    0.000    0.000    0.000    0.000    0.000 
#
# Total GULP energy -446541.791517 kJ/mol
# GULP energy per Si atom -12403.938653 kJ/mol
# Density = 1.913144 g / cm^3
# Si number density = 19.175085 Si / 1000 Ang^3
#
#
#
# Elastic Constant Matrix: (Units=GPa)
#
#
# Indices 1 2 3 4 5 6 
#
# 1 44.1239 15.8289 26.4135 0.0000 0.0000 0.0000
# 2 15.8289 58.6375 25.4905 0.0000 0.0000 0.0000
# 3 26.4135 25.4905 89.2464 0.0000 0.0000 0.0000
# 4 0.0000 0.0000 0.0000 17.4428 0.0000 0.0000
# 5 0.0000 0.0000 0.0000 0.0000 26.3578 0.0000
# 6 0.0000 0.0000 0.0000 0.0000 0.0000 -103.7043
#
#
#
# Elastic Compliance Matrix: (Units=1/GPa)
#
#
# Indices 1 2 3 4 5 6 
#
# 1 0.028596 -0.004613 -0.007146 0.000000 0.000000 0.000000
# 2 -0.004613 0.020216 -0.004409 0.000000 0.000000 0.000000
# 3 -0.007146 -0.004409 0.014579 0.000000 0.000000 0.000000
# 4 0.000000 0.000000 0.000000 0.057330 0.000000 0.000000
# 5 0.000000 0.000000 0.000000 0.000000 0.037939 0.000000
# 6 0.000000 0.000000 0.000000 0.000000 0.000000 -0.009643
#
#
# Mechanical properties :
#
#
# Convention : Reuss Voigt Hill
#
# Bulk Modulus (GPa) = 32.20017 36.38596 34.29306
# Shear Modulus (GPa) = 26.08184 -3.69574 11.19305
#
# Velocity S-wave (km/s) = 3.69208 -1.38980 2.41867
# Velocity P-wave (km/s) = 5.91646 4.05480 5.07178
#
# Compressibility (1/GPa) = 0.03105574
#
# Stress axis : x y z
#
# Youngs Moduli (GPa) = 34.97001 49.46650 68.59170
#
# Poissons Ratio (x) = 0.22819 0.49014
# Poissons Ratio (y) = 0.16132 0.30240
# Poissons Ratio (z) = 0.24989 0.21808
#
# Static dielectric constant tensor:
#      x y z
#    x 3.365810 0.000000 0.000000 
#    y 0.000000 3.334740 0.000000 
#    z 0.000000 0.000000 3.702780 
# 
# 
# High freq. dielectric constant tensor:
#      x y z
#    x 1.736790 0.000000 0.000000 
#    y 0.000000 1.738450 0.000000 
#    z 0.000000 0.000000 1.760160 
# 
# From -- ./inp_files/30278.got.cif
#   From: 2010.03.12/outbox.cif.g09.slc.cpg/sg72_16_cif.got.tgz:30278.got - 2010.04.16 14:54:00.
