data_PCOD8294361
_publ_section_title
;
Structure prediction by ZEFSAII (Michael W. Deem and Ramdas Pophale) SiO2 
 PCOD8294361
Probable space group: I B A M
;
_chemical_formula_sum "Si O2"
_cell_formula_units_Z 104
_cell_length_a 14.613524
_cell_length_b 25.583143
_cell_length_c 13.867371
_cell_angle_alpha 90.000000
_cell_angle_beta 90.000000
_cell_angle_gamma 90.000000
_cell_volume 5184.453578
_symmetry_space_group_name_H-M "I B A M"
_symmetry_group_IT_number 72
_symmetry_cell_setting 'orthorhombic'
loop_
_space_group_symop_operation_xyz
x,y,z
-x,-y,z
x,-y,1/2-z
-x,y,1/2-z
-x,-y,-z
x,y,-z
-x,y,1/2+z
x,-y,1/2+z
1/2+x,1/2+y,1/2+z
1/2-x,1/2-y,1/2+z
1/2+x,1/2-y,-z
1/2-x,1/2+y,-z
1/2-x,1/2-y,1/2-z
1/2+x,1/2+y,1/2-z
1/2-x,1/2+y,z
1/2+x,1/2-y,z
loop_
_atom_site_type_symbol
_atom_site_label
_atom_site_fract_x
_atom_site_fract_y
_atom_site_fract_z
Si Si1 0.356322 0.255456 0.234616
Si Si2 0.414392 0.669110 0.109895
Si Si3 0.787597 0.587915 0.886003
Si Si4 0.387608 0.647139 0.389599
Si Si5 0.760939 0.500000 0.250000
Si Si6 0.243810 0.911641 0.614099
Si Si7 0.397380 0.139300 0.762677
O O1 0.250000 0.250000 0.250000
O O2 0.409665 0.278395 0.327537
O O3 0.367249 0.295395 0.148011
O O4 0.399939 0.199942 0.206811
O O5 0.505747 0.634702 0.133278
O O6 0.327315 0.634290 0.135382
O O7 0.415063 0.687475 0.000000
O O8 0.681965 0.601501 0.854805
O O9 0.818066 0.536317 0.825317
O O10 0.849612 0.634582 0.843089
O O11 0.803307 0.580260 0.000000
O O12 0.365908 0.652190 0.500000
O O13 0.706906 0.461979 0.174884
O O14 0.250113 0.924634 0.500000
O O15 0.342855 0.893860 0.655381
O O16 0.500000 0.117572 0.750000
#
# Coordination Sequence:
#
# PCOD8294361 Si02
#       7
#    16  16  16  16   8  16  16
#     4  12  20  35  57  83 117 155 189 229 274 322
#     4  10  21  37  58  84 116 154 189 223 271 332
#     4  10  21  39  60  82 113 147 185 233 284 335
#     4  10  21  37  58  84 116 154 189 223 271 332
#     4  10  20  38  62  88 108 142 184 232 290 342
#     4  10  21  39  60  82 113 147 185 233 284 335
#     4  11  23  37  55  84 116 149 193 234 273 327
#
# _framework density 20.059974
#
# number of rings (size 3 to 8) (size 9 to 14) (size 15 to 20)
#    0.000    1.538    3.077    2.769    0.000    2.462 
#    0.000    7.692    0.000   11.077    0.000    0.000 
#    0.000    0.000    0.000    0.000    0.000    0.000 
#
# Total GULP energy -644192.588726 kJ/mol
# GULP energy per Si atom -12388.319014 kJ/mol
# Density = 2.001432 g / cm^3
# Si number density = 20.059974 Si / 1000 Ang^3
#
#
#
# Elastic Constant Matrix: (Units=GPa)
#
#
# Indices 1 2 3 4 5 6 
#
# 1 118.8553 15.9818 30.9379 -0.0001 0.0000 0.0000
# 2 15.9818 90.5166 43.4302 0.0000 0.0000 0.0000
# 3 30.9379 43.4302 111.1477 0.0001 0.0001 -0.0001
# 4 -0.0001 0.0000 0.0001 16.9948 0.0001 0.0000
# 5 0.0000 0.0000 0.0001 0.0001 26.2058 0.0000
# 6 0.0000 0.0000 -0.0001 0.0000 0.0000 8.3600
#
#
#
# Elastic Compliance Matrix: (Units=1/GPa)
#
#
# Indices 1 2 3 4 5 6 
#
# 1 0.009088 -0.000481 -0.002342 0.000000 0.000000 0.000000
# 2 -0.000481 0.013622 -0.005189 0.000000 0.000000 0.000000
# 3 -0.002342 -0.005189 0.011676 0.000000 0.000000 0.000000
# 4 0.000000 0.000000 0.000000 0.058841 0.000000 0.000000
# 5 0.000000 0.000000 0.000000 0.000000 0.038159 0.000000
# 6 0.000000 0.000000 0.000000 0.000000 0.000000 0.119617
#
#
# Mechanical properties :
#
#
# Convention : Reuss Voigt Hill
#
# Bulk Modulus (GPa) = 54.45648 55.69104 55.07376
# Shear Modulus (GPa) = 18.30506 25.65678 21.98092
#
# Velocity S-wave (km/s) = 3.02407 3.58020 3.31382
# Velocity P-wave (km/s) = 6.27687 6.70171 6.49277
#
# Compressibility (1/GPa) = 0.01836329
#
# Stress axis : x y z
#
# Youngs Moduli (GPa) = 110.03767 73.40904 85.64317
#
# Poissons Ratio (x) = 0.03531 0.20054
# Poissons Ratio (y) = 0.05293 0.44440
# Poissons Ratio (z) = 0.25767 0.38091
#
# Static dielectric constant tensor:
#      x y z
#    x 3.768610 0.000000 0.000000 
#    y 0.000000 3.846480 0.000000 
#    z 0.000000 0.000000 3.814230 
# 
# 
# High freq. dielectric constant tensor:
#      x y z
#    x 1.771710 0.000000 0.000000 
#    y 0.000000 1.773140 0.000000 
#    z 0.000000 0.000000 1.799330 
# 
# From -- ./inp_files/22127.got.cif
#   From: 2010.03.12/outbox.cif.g09.slc.cpg/sg72_12_cif.got.tgz:22127.got - 2010.04.16 14:54:00.
