data_PCOD8294456
_publ_section_title
;
Structure prediction by ZEFSAII (Michael W. Deem and Ramdas Pophale) SiO2 
 PCOD8294456
Probable space group: I B A M
;
_chemical_formula_sum "Si O2"
_cell_formula_units_Z 96
_cell_length_a 15.597641
_cell_length_b 13.792880
_cell_length_c 22.789510
_cell_angle_alpha 90.000000
_cell_angle_beta 90.000000
_cell_angle_gamma 90.000000
_cell_volume 4902.852925
_symmetry_space_group_name_H-M "I B A M"
_symmetry_group_IT_number 72
_symmetry_cell_setting 'orthorhombic'
loop_
_space_group_symop_operation_xyz
x,y,z
-x,-y,z
x,-y,1/2-z
-x,y,1/2-z
-x,-y,-z
x,y,-z
-x,y,1/2+z
x,-y,1/2+z
1/2+x,1/2+y,1/2+z
1/2-x,1/2-y,1/2+z
1/2+x,1/2-y,-z
1/2-x,1/2+y,-z
1/2-x,1/2-y,1/2-z
1/2+x,1/2+y,1/2-z
1/2-x,1/2+y,z
1/2+x,1/2-y,z
loop_
_atom_site_type_symbol
_atom_site_label
_atom_site_fract_x
_atom_site_fract_y
_atom_site_fract_z
Si Si1 0.133499 0.057512 0.000000
Si Si2 0.353820 0.385647 0.622332
Si Si3 0.026309 0.220043 0.623501
Si Si4 0.557204 0.640610 0.000000
Si Si5 0.950887 0.397575 0.197068
Si Si6 0.239430 0.359336 0.269584
Si Si7 0.388223 0.559184 0.302888
O O1 0.182611 0.099844 0.056634
O O2 0.035781 0.092960 0.000000
O O3 0.131630 0.940649 0.000000
O O4 0.425477 0.302092 0.622688
O O5 0.278600 0.358563 0.665459
O O6 0.393392 0.489791 0.640522
O O7 0.068701 0.203233 0.559586
O O8 0.042100 0.332766 0.638617
O O9 0.067978 0.158602 0.677042
O O10 0.853978 0.405842 0.221496
O O11 0.000000 0.500000 0.185721
O O12 0.000000 0.343137 0.250000
O O13 0.250000 0.250000 0.250000
O O14 0.291479 0.421342 0.221006
O O15 0.435861 0.500000 0.250000
#
# Coordination Sequence:
#
# PCOD8294456 Si02
#       7
#     8  16  16   8  16  16  16
#     4   9  16  34  53  93 124 157 182 245 314 383
#     4  10  21  33  61  89 128 152 194 251 319 370
#     4  11  20  39  59  95 122 164 195 259 305 380
#     4   9  18  32  60  85 127 155 199 236 314 369
#     4  11  26  42  62  84 121 167 215 250 312 377
#     4  11  22  40  58  89 122 164 205 264 308 372
#     4  10  21  31  58  92 126 150 196 254 319 370
#
# _framework density 19.580435999999999
#
# number of rings (size 3 to 8) (size 9 to 14) (size 15 to 20)
#    0.000    1.667    3.333    1.500    9.333    2.000 
#    0.000    1.250    0.000    0.000    0.000    0.000 
#    0.000    0.000    0.000    0.000    0.000    0.000 
#
# Total GULP energy -594673.756409 kJ/mol
# GULP energy per Si atom -12389.036592 kJ/mol
# Density = 1.953587 g / cm^3
# Si number density = 19.580436 Si / 1000 Ang^3
#
#
#
# Elastic Constant Matrix: (Units=GPa)
#
#
# Indices 1 2 3 4 5 6 
#
# 1 95.7093 23.7477 29.9546 0.0000 0.0000 0.0000
# 2 23.7477 102.8707 40.0833 0.0000 0.0000 0.0000
# 3 29.9546 40.0833 147.3739 0.0000 0.0000 0.0000
# 4 0.0000 0.0000 0.0000 34.1079 0.0000 0.0000
# 5 0.0000 0.0000 0.0000 0.0000 22.5742 0.0000
# 6 0.0000 0.0000 0.0000 0.0000 0.0000 25.4752
#
#
#
# Elastic Compliance Matrix: (Units=1/GPa)
#
#
# Indices 1 2 3 4 5 6 
#
# 1 0.011498 -0.001950 -0.001806 0.000000 0.000000 0.000000
# 2 -0.001950 0.011204 -0.002651 0.000000 0.000000 0.000000
# 3 -0.001806 -0.002651 0.007874 0.000000 0.000000 0.000000
# 4 0.000000 0.000000 0.000000 0.029319 0.000000 0.000000
# 5 0.000000 0.000000 0.000000 0.000000 0.044298 0.000000
# 6 0.000000 0.000000 0.000000 0.000000 0.000000 0.039254
#
#
# Mechanical properties :
#
#
# Convention : Reuss Voigt Hill
#
# Bulk Modulus (GPa) = 56.30670 59.28056 57.79363
# Shear Modulus (GPa) = 30.82958 33.24266 32.03612
#
# Velocity S-wave (km/s) = 3.97231 4.12484 4.04930
# Velocity P-wave (km/s) = 7.06102 7.28196 7.17234
#
# Compressibility (1/GPa) = 0.01775988
#
# Stress axis : x y z
#
# Youngs Moduli (GPa) = 86.97456 89.25303 127.00594
#
# Poissons Ratio (x) = 0.17407 0.22944
# Poissons Ratio (y) = 0.16963 0.33668
# Poissons Ratio (z) = 0.15712 0.23660
#
# Static dielectric constant tensor:
#      x y z
#    x 3.385780 0.000000 0.000000 
#    y 0.000000 3.629310 0.000000 
#    z 0.000000 0.000000 3.774020 
# 
# 
# High freq. dielectric constant tensor:
#      x y z
#    x 1.740540 0.000000 0.000000 
#    y 0.000000 1.759140 0.000000 
#    z 0.000000 0.000000 1.765430 
# 
# From -- ./inp_files/44302.got.cif
#   From: 2010.03.12/outbox.cif.g09.slc.cpg/sg72_23_cif.got.tgz:44302.got - 2010.04.16 14:54:00.
