data_PCOD8294492
_publ_section_title
;
Structure prediction by ZEFSAII (Michael W. Deem and Ramdas Pophale) SiO2 
 PCOD8294492
Probable space group: I B A M
;
_chemical_formula_sum "Si O2"
_cell_formula_units_Z 64
_cell_length_a 10.339179
_cell_length_b 19.318511
_cell_length_c 14.906607
_cell_angle_alpha 90.000000
_cell_angle_beta 90.000000
_cell_angle_gamma 90.000000
_cell_volume 2977.409060
_symmetry_space_group_name_H-M "I B A M"
_symmetry_group_IT_number 72
_symmetry_cell_setting 'orthorhombic'
loop_
_space_group_symop_operation_xyz
x,y,z
-x,-y,z
x,-y,1/2-z
-x,y,1/2-z
-x,-y,-z
x,y,-z
-x,y,1/2+z
x,-y,1/2+z
1/2+x,1/2+y,1/2+z
1/2-x,1/2-y,1/2+z
1/2+x,1/2-y,-z
1/2-x,1/2+y,-z
1/2-x,1/2-y,1/2-z
1/2+x,1/2+y,1/2-z
1/2-x,1/2+y,z
1/2+x,1/2-y,z
loop_
_atom_site_type_symbol
_atom_site_label
_atom_site_fract_x
_atom_site_fract_y
_atom_site_fract_z
Si Si1 0.094699 0.310871 0.106172
Si Si2 0.098584 0.946481 0.102020
Si Si3 0.881310 0.794166 0.394632
Si Si4 0.120885 0.463763 0.845981
O O1 0.232452 0.272913 0.124789
O O2 0.089814 0.382243 0.160925
O O3 0.980447 0.262301 0.145204
O O4 0.080373 0.326991 0.000000
O O5 0.091369 0.870431 0.147801
O O6 0.244366 0.976125 0.103256
O O7 0.053678 0.938412 0.000000
O O8 0.000000 0.000000 0.150860
O O9 0.906337 0.798291 0.500000
O O10 0.133197 0.500000 0.750000
O O11 0.000000 0.500000 0.897680
#
# Coordination Sequence:
#
# PCOD8294492 Si02
#       4
#    16  16  16  16
#     4   9  17  31  53  80 107 135 172 220 271 320
#     4   9  18  33  55  82 107 134 176 227 276 325
#     4   8  15  28  48  77 106 129 162 213 270 322
#     4  10  21  35  51  72 107 148 183 218 259 314
#
# _framework density 21.495200000000001
#
# number of rings (size 3 to 8) (size 9 to 14) (size 15 to 20)
#    0.000    3.000    0.000    2.250    0.000    4.500 
#    0.000    5.000    0.000   37.500    0.000    0.000 
#    0.000    0.000    0.000    0.000    0.000    0.000 
#
# Total GULP energy -396489.342164 kJ/mol
# GULP energy per Si atom -12390.291943 kJ/mol
# Density = 2.144628 g / cm^3
# Si number density = 21.495200 Si / 1000 Ang^3
#
#
#
# Elastic Constant Matrix: (Units=GPa)
#
#
# Indices 1 2 3 4 5 6 
#
# 1 187.6932 110.1450 -0.0679 0.0000 0.0000 0.0000
# 2 110.1450 145.5454 23.1472 -0.0001 0.0001 0.0000
# 3 -0.0679 23.1472 24.5268 -0.0002 0.0001 0.0000
# 4 0.0000 -0.0001 -0.0002 24.0867 0.0001 0.0000
# 5 0.0000 0.0001 0.0001 0.0001 9.4454 0.0000
# 6 0.0000 0.0000 0.0000 0.0000 0.0000 52.4724
#
#
#
# Elastic Compliance Matrix: (Units=1/GPa)
#
#
# Indices 1 2 3 4 5 6 
#
# 1 0.011173 -0.009954 0.009425 0.000000 0.000000 0.000000
# 2 -0.009954 0.016953 -0.016027 0.000000 0.000000 0.000000
# 3 0.009425 -0.016027 0.055923 0.000000 0.000000 0.000000
# 4 0.000000 0.000000 0.000000 0.041517 0.000000 0.000000
# 5 0.000000 0.000000 0.000000 0.000000 0.105871 0.000000
# 6 0.000000 0.000000 0.000000 0.000000 0.000000 0.019058
#
#
# Mechanical properties :
#
#
# Convention : Reuss Voigt Hill
#
# Bulk Modulus (GPa) = 19.63204 69.35711 44.49457
# Shear Modulus (GPa) = 16.63428 32.17032 24.40230
#
# Velocity S-wave (km/s) = 2.78485 3.87282 3.37299
# Velocity P-wave (km/s) = 4.41515 7.23427 5.99284
#
# Compressibility (1/GPa) = 0.05093715
#
# Stress axis : x y z
#
# Youngs Moduli (GPa) = 89.50365 58.98791 17.88173
#
# Poissons Ratio (x) = 0.58718 -0.16854
# Poissons Ratio (y) = 0.89094 0.28658
# Poissons Ratio (z) = -0.84359 0.94538
#
# Static dielectric constant tensor:
#      x y z
#    x 4.368500 0.000000 0.000000 
#    y 0.000000 4.156400 0.000000 
#    z 0.000000 0.000000 3.261660 
# 
# 
# High freq. dielectric constant tensor:
#      x y z
#    x 1.858210 0.000000 0.000000 
#    y 0.000000 1.841960 0.000000 
#    z 0.000000 0.000000 1.796230 
# 
# From -- ./inp_files/19677.got.cif
#   From: 2010.03.12/outbox.cif.g09.slc.cpg/sg72_10_cif.got.tgz:19677.got - 2010.04.16 14:54:00.
