data_PCOD8294231
_publ_section_title
;
Structure prediction by ZEFSAII (Michael W. Deem and Ramdas Pophale) SiO2 
 PCOD8294231
Probable space group: I B A M
;
_chemical_formula_sum "Si O2"
_cell_formula_units_Z 88
_cell_length_a 11.886112
_cell_length_b 24.162345
_cell_length_c 14.534473
_cell_angle_alpha 90.000000
_cell_angle_beta 90.000000
_cell_angle_gamma 90.000000
_cell_volume 4174.247433
_symmetry_space_group_name_H-M "I B A M"
_symmetry_group_IT_number 72
_symmetry_cell_setting 'orthorhombic'
loop_
_space_group_symop_operation_xyz
x,y,z
-x,-y,z
x,-y,1/2-z
-x,y,1/2-z
-x,-y,-z
x,y,-z
-x,y,1/2+z
x,-y,1/2+z
1/2+x,1/2+y,1/2+z
1/2-x,1/2-y,1/2+z
1/2+x,1/2-y,-z
1/2-x,1/2+y,-z
1/2-x,1/2-y,1/2-z
1/2+x,1/2+y,1/2-z
1/2-x,1/2+y,z
1/2+x,1/2-y,z
loop_
_atom_site_type_symbol
_atom_site_label
_atom_site_fract_x
_atom_site_fract_y
_atom_site_fract_z
Si Si1 0.617705 0.470237 0.102469
Si Si2 0.369761 0.878616 0.749609
Si Si3 0.214827 0.500000 0.250000
Si Si4 0.789768 0.824057 0.609561
Si Si5 0.247002 0.699172 0.894179
Si Si6 0.467410 0.356915 0.606344
O O1 0.500000 0.500000 0.099445
O O2 0.706303 0.505413 0.160566
O O3 0.594489 0.410483 0.149962
O O4 0.668568 0.464099 0.000000
O O5 0.500000 0.862411 0.750000
O O6 0.309915 0.858245 0.843181
O O7 0.315758 0.848226 0.662377
O O8 0.360350 0.945051 0.741584
O O9 0.777451 0.830776 0.500000
O O10 0.784566 0.760140 0.639839
O O11 0.910430 0.844588 0.649834
O O12 0.382451 0.694443 0.881587
O O13 0.212077 0.690095 0.000000
O O14 0.490097 0.370823 0.500000
#
# Coordination Sequence:
#
# PCOD8294231 Si02
#       6
#    16  16   8  16  16  16
#     4  10  20  36  62  93 124 158 205 264 322 377
#     4  12  27  43  62  92 128 173 220 259 308 380
#     4  12  24  42  62  86 126 173 215 260 312 366
#     4  10  23  42  68  99 130 163 206 266 322 379
#     4  10  22  43  68  94 127 168 209 260 322 381
#     4   9  18  37  64  95 124 155 203 260 320 378
#
# _framework density 21.081645000000002
#
# number of rings (size 3 to 8) (size 9 to 14) (size 15 to 20)
#    0.000    1.636    1.818    2.182    2.545    3.636 
#    0.000    0.000    0.000    3.273    0.000    0.000 
#    0.000    0.000    0.000    0.000    0.000    0.000 
#
# Total GULP energy -545594.053528 kJ/mol
# GULP energy per Si atom -12399.864853 kJ/mol
# Density = 2.103366 g / cm^3
# Si number density = 21.081645 Si / 1000 Ang^3
#
#
#
# Elastic Constant Matrix: (Units=GPa)
#
#
# Indices 1 2 3 4 5 6 
#
# 1 131.5445 33.2508 34.7805 0.0000 -0.0001 0.0000
# 2 33.2508 111.4603 29.4467 -0.0001 -0.0003 0.0000
# 3 34.7805 29.4467 72.7671 -0.0004 -0.0008 0.0001
# 4 0.0000 -0.0001 -0.0004 26.4813 -0.0004 0.0000
# 5 -0.0001 -0.0003 -0.0008 -0.0004 67.7897 0.0001
# 6 0.0000 0.0000 0.0001 0.0000 0.0001 35.1944
#
#
#
# Elastic Compliance Matrix: (Units=1/GPa)
#
#
# Indices 1 2 3 4 5 6 
#
# 1 0.008991 -0.001732 -0.003596 0.000000 0.000000 0.000000
# 2 -0.001732 0.010379 -0.003372 0.000000 0.000000 0.000000
# 3 -0.003596 -0.003372 0.016826 0.000000 0.000000 0.000000
# 4 0.000000 0.000000 0.000000 0.037762 0.000000 0.000000
# 5 0.000000 0.000000 0.000000 0.000000 0.014751 0.000000
# 6 0.000000 0.000000 0.000000 0.000000 0.000000 0.028414
#
#
# Mechanical properties :
#
#
# Convention : Reuss Voigt Hill
#
# Bulk Modulus (GPa) = 53.20648 56.74755 54.97701
# Shear Modulus (GPa) = 35.51380 40.44602 37.97991
#
# Velocity S-wave (km/s) = 4.10882 4.38487 4.24909
# Velocity P-wave (km/s) = 6.91397 7.25345 7.08574
#
# Compressibility (1/GPa) = 0.01879470
#
# Stress axis : x y z
#
# Youngs Moduli (GPa) = 111.22636 96.34429 59.43126
#
# Poissons Ratio (x) = 0.16686 0.21374
# Poissons Ratio (y) = 0.19264 0.20043
# Poissons Ratio (z) = 0.40001 0.32491
#
# Static dielectric constant tensor:
#      x y z
#    x 3.766820 0.000000 0.000000 
#    y 0.000000 3.994260 0.000000 
#    z 0.000000 0.000000 3.812670 
# 
# 
# High freq. dielectric constant tensor:
#      x y z
#    x 1.817380 0.000000 0.000000 
#    y 0.000000 1.836180 0.000000 
#    z 0.000000 0.000000 1.824170 
# 
# From -- ./inp_files/20313.got.cif
#   From: 2010.03.12/outbox.cif.g09.slc.cpg/sg72_11_cif.got.tgz:20313.got - 2010.04.16 14:54:00.
