data_PCOD8294284
_publ_section_title
;
Structure prediction by ZEFSAII (Michael W. Deem and Ramdas Pophale) SiO2 
 PCOD8294284
Probable space group: I B A M
;
_chemical_formula_sum "Si O2"
_cell_formula_units_Z 80
_cell_length_a 19.797146
_cell_length_b 9.733077
_cell_length_c 22.037198
_cell_angle_alpha 90.000000
_cell_angle_beta 90.000000
_cell_angle_gamma 90.000000
_cell_volume 4246.284797
_symmetry_space_group_name_H-M "I B A M"
_symmetry_group_IT_number 72
_symmetry_cell_setting 'orthorhombic'
loop_
_space_group_symop_operation_xyz
x,y,z
-x,-y,z
x,-y,1/2-z
-x,y,1/2-z
-x,-y,-z
x,y,-z
-x,y,1/2+z
x,-y,1/2+z
1/2+x,1/2+y,1/2+z
1/2-x,1/2-y,1/2+z
1/2+x,1/2-y,-z
1/2-x,1/2+y,-z
1/2-x,1/2-y,1/2-z
1/2+x,1/2+y,1/2-z
1/2-x,1/2+y,z
1/2+x,1/2-y,z
loop_
_atom_site_type_symbol
_atom_site_label
_atom_site_fract_x
_atom_site_fract_y
_atom_site_fract_z
Si Si1 0.098068 0.384487 0.000000
Si Si2 0.029084 0.148387 0.612264
Si Si3 0.279834 0.870906 0.790442
Si Si4 0.058191 0.314932 0.500000
Si Si5 0.113726 0.249466 0.124698
Si Si6 0.146138 0.032057 0.678467
O O1 0.107106 0.550838 0.000000
O O2 0.131498 0.313281 0.941058
O O3 0.019260 0.357032 0.000000
O O4 0.071213 0.220647 0.558642
O O5 0.082695 0.132501 0.666842
O O6 0.967526 0.245691 0.634886
O O7 0.000000 0.000000 0.590781
O O8 0.250000 0.750000 0.750000
O O9 0.349506 0.839174 0.824368
O O10 0.218912 0.902991 0.837573
O O11 0.298918 0.000000 0.750000
O O12 0.141360 0.095661 0.132565
O O13 0.144536 0.000000 0.750000
#
# Coordination Sequence:
#
# PCOD8294284 Si02
#       6
#     8  16  16   8  16  16
#     4   9  20  36  59  79 126 155 193 253 296 356
#     4   9  19  33  62  88 120 151 203 254 295 360
#     4  11  21  39  62  85 117 165 201 242 304 369
#     4   9  17  36  55  85 117 162 193 234 319 353
#     4  10  20  39  59  88 115 160 198 244 305 351
#     4  10  20  37  60  88 118 154 199 251 303 358
#
# _framework density 18.839998000000001
#
# number of rings (size 3 to 8) (size 9 to 14) (size 15 to 20)
#    0.000    2.200    4.000    0.300    0.000    7.600 
#    0.000    2.000    0.000    0.000    0.000    0.000 
#    0.000    0.000    0.000    0.000    0.000    0.000 
#
# Total GULP energy -495638.318429 kJ/mol
# GULP energy per Si atom -12390.957961 kJ/mol
# Density = 1.879712 g / cm^3
# Si number density = 18.839998 Si / 1000 Ang^3
#
#
#
# Elastic Constant Matrix: (Units=GPa)
#
#
# Indices 1 2 3 4 5 6 
#
# 1 105.1603 48.6081 54.2695 0.0000 0.0000 0.0000
# 2 48.6081 101.5510 59.2783 0.0000 0.0000 0.0000
# 3 54.2695 59.2783 101.8620 0.0000 0.0000 0.0000
# 4 0.0000 0.0000 0.0000 33.1607 0.0000 0.0000
# 5 0.0000 0.0000 0.0000 0.0000 18.9299 0.0000
# 6 0.0000 0.0000 0.0000 0.0000 0.0000 30.9729
#
#
#
# Elastic Compliance Matrix: (Units=1/GPa)
#
#
# Indices 1 2 3 4 5 6 
#
# 1 0.013904 -0.003530 -0.005353 0.000000 0.000000 0.000000
# 2 -0.003530 0.015810 -0.007320 0.000000 0.000000 0.000000
# 3 -0.005353 -0.007320 0.016929 0.000000 0.000000 0.000000
# 4 0.000000 0.000000 0.000000 0.030156 0.000000 0.000000
# 5 0.000000 0.000000 0.000000 0.000000 0.052826 0.000000
# 6 0.000000 0.000000 0.000000 0.000000 0.000000 0.032286
#
#
# Mechanical properties :
#
#
# Convention : Reuss Voigt Hill
#
# Bulk Modulus (GPa) = 70.24314 70.32057 70.28185
# Shear Modulus (GPa) = 25.11778 26.37387 25.74583
#
# Velocity S-wave (km/s) = 3.65528 3.74557 3.70070
# Velocity P-wave (km/s) = 7.42831 7.49078 7.45961
#
# Compressibility (1/GPa) = 0.01423626
#
# Stress axis : x y z
#
# Youngs Moduli (GPa) = 71.92377 63.25218 59.07111
#
# Poissons Ratio (x) = 0.22330 0.31621
# Poissons Ratio (y) = 0.25392 0.43237
# Poissons Ratio (z) = 0.38501 0.46298
#
# Static dielectric constant tensor:
#      x y z
#    x 3.625700 0.000000 0.000000 
#    y 0.000000 3.686330 0.000000 
#    z 0.000000 0.000000 3.386560 
# 
# 
# High freq. dielectric constant tensor:
#      x y z
#    x 1.720590 0.000000 0.000000 
#    y 0.000000 1.737030 0.000000 
#    z 0.000000 0.000000 1.714970 
# 
# From -- ./inp_files/40112.got.cif
#   From: 2010.03.12/outbox.cif.g09.slc.cpg/sg72_21_cif.got.tgz:40112.got - 2010.04.16 14:54:00.
