data_PCOD8294287
_publ_section_title
;
Structure prediction by ZEFSAII (Michael W. Deem and Ramdas Pophale) SiO2 
 PCOD8294287
Probable space group: I B A M
;
_chemical_formula_sum "Si O2"
_cell_formula_units_Z 96
_cell_length_a 23.460339
_cell_length_b 11.272052
_cell_length_c 16.703217
_cell_angle_alpha 90.000000
_cell_angle_beta 90.000000
_cell_angle_gamma 90.000000
_cell_volume 4417.101614
_symmetry_space_group_name_H-M "I B A M"
_symmetry_group_IT_number 72
_symmetry_cell_setting 'orthorhombic'
loop_
_space_group_symop_operation_xyz
x,y,z
-x,-y,z
x,-y,1/2-z
-x,y,1/2-z
-x,-y,-z
x,y,-z
-x,y,1/2+z
x,-y,1/2+z
1/2+x,1/2+y,1/2+z
1/2-x,1/2-y,1/2+z
1/2+x,1/2-y,-z
1/2-x,1/2+y,-z
1/2-x,1/2-y,1/2-z
1/2+x,1/2+y,1/2-z
1/2-x,1/2+y,z
1/2+x,1/2-y,z
loop_
_atom_site_type_symbol
_atom_site_label
_atom_site_fract_x
_atom_site_fract_y
_atom_site_fract_z
Si Si1 0.520199 0.211096 0.588992
Si Si2 0.198878 0.204823 0.405255
Si Si3 0.092313 0.907345 0.145531
Si Si4 0.419616 0.671343 0.175390
Si Si5 0.327938 0.178833 0.404423
Si Si6 0.127465 0.426425 0.594744
O O1 0.496125 0.181699 0.500000
O O2 0.559052 0.329189 0.580348
O O3 0.467844 0.234665 0.648562
O O4 0.561967 0.104885 0.620175
O O5 0.198437 0.200153 0.500000
O O6 0.160145 0.096877 0.371500
O O7 0.262909 0.186452 0.374790
O O8 0.172257 0.328553 0.372334
O O9 0.079291 0.842981 0.229840
O O10 0.069373 0.040785 0.139106
O O11 0.359465 0.715981 0.141931
O O12 0.334030 0.194637 0.500000
O O13 0.354740 0.055100 0.373209
O O14 0.131336 0.424663 0.500000
#
# Coordination Sequence:
#
# PCOD8294287 Si02
#       6
#    16  16  16  16  16  16
#     4  10  20  37  61  84 114 153 196 247 299 353
#     4   9  19  36  60  83 112 155 199 244 292 349
#     4  10  22  39  56  81 119 157 192 243 296 352
#     4  11  23  36  55  86 118 153 196 243 300 357
#     4  10  21  35  58  89 118 154 200 246 291 352
#     4   8  17  35  55  83 118 151 190 244 304 342
#
# _framework density 21.733708
#
# number of rings (size 3 to 8) (size 9 to 14) (size 15 to 20)
#    0.000    2.333    0.000    3.000    2.333    6.000 
#    0.000    5.833    0.000    4.000    0.000    0.000 
#    0.000    0.000    0.000    0.000    0.000    0.000 
#
# Total GULP energy -595004.036827 kJ/mol
# GULP energy per Si atom -12395.917434 kJ/mol
# Density = 2.168424 g / cm^3
# Si number density = 21.733708 Si / 1000 Ang^3
#
#
#
# Elastic Constant Matrix: (Units=GPa)
#
#
# Indices 1 2 3 4 5 6 
#
# 1 138.2052 18.4511 26.7208 0.0000 0.0000 0.0000
# 2 18.4511 59.8221 20.5821 0.0000 0.0000 0.0000
# 3 26.7208 20.5821 32.5631 0.0000 0.0000 0.0000
# 4 0.0000 0.0000 0.0000 25.2979 0.0000 0.0000
# 5 0.0000 0.0000 0.0000 0.0000 14.9039 0.0000
# 6 0.0000 0.0000 0.0000 0.0000 0.0000 29.8227
#
#
#
# Elastic Compliance Matrix: (Units=1/GPa)
#
#
# Indices 1 2 3 4 5 6 
#
# 1 0.008604 -0.000287 -0.006879 0.000000 0.000000 0.000000
# 2 -0.000287 0.021371 -0.013273 0.000000 0.000000 0.000000
# 3 -0.006879 -0.013273 0.044743 0.000000 0.000000 0.000000
# 4 0.000000 0.000000 0.000000 0.039529 0.000000 0.000000
# 5 0.000000 0.000000 0.000000 0.000000 0.067096 0.000000
# 6 0.000000 0.000000 0.000000 0.000000 0.000000 0.033531
#
#
# Mechanical properties :
#
#
# Convention : Reuss Voigt Hill
#
# Bulk Modulus (GPa) = 29.54929 40.23314 34.89122
# Shear Modulus (GPa) = 18.72430 24.99401 21.85916
#
# Velocity S-wave (km/s) = 2.93837 3.39486 3.17483
# Velocity P-wave (km/s) = 5.01374 5.82399 5.43399
#
# Compressibility (1/GPa) = 0.03384176
#
# Stress axis : x y z
#
# Youngs Moduli (GPa) = 116.22640 46.79186 22.34970
#
# Poissons Ratio (x) = 0.01343 0.15374
# Poissons Ratio (y) = 0.03336 0.29664
# Poissons Ratio (z) = 0.79950 0.62105
#
# Static dielectric constant tensor:
#      x y z
#    x 4.140360 0.000000 0.000000 
#    y 0.000000 4.046340 0.000000 
#    z 0.000000 0.000000 3.558810 
# 
# 
# High freq. dielectric constant tensor:
#      x y z
#    x 1.864130 0.000000 0.000000 
#    y 0.000000 1.847660 0.000000 
#    z 0.000000 0.000000 1.825290 
# 
# From -- ./inp_files/33235.got.cif
#   From: 2010.03.12/outbox.cif.g09.slc.cpg/sg72_17_cif.got.tgz:33235.got - 2010.04.16 14:54:00.
