data_PCOD8294375
_publ_section_title
;
Structure prediction by ZEFSAII (Michael W. Deem and Ramdas Pophale) SiO2 
 PCOD8294375
Probable space group: I B A M
;
_chemical_formula_sum "Si O2"
_cell_formula_units_Z 116
_cell_length_a 30.600838
_cell_length_b 21.927798
_cell_length_c 8.816887
_cell_angle_alpha 90.000000
_cell_angle_beta 90.000000
_cell_angle_gamma 90.000000
_cell_volume 5916.210479
_symmetry_space_group_name_H-M "I B A M"
_symmetry_group_IT_number 72
_symmetry_cell_setting 'orthorhombic'
loop_
_space_group_symop_operation_xyz
x,y,z
-x,-y,z
x,-y,1/2-z
-x,y,1/2-z
-x,-y,-z
x,y,-z
-x,y,1/2+z
x,-y,1/2+z
1/2+x,1/2+y,1/2+z
1/2-x,1/2-y,1/2+z
1/2+x,1/2-y,-z
1/2-x,1/2+y,-z
1/2-x,1/2-y,1/2-z
1/2+x,1/2+y,1/2-z
1/2-x,1/2+y,z
1/2+x,1/2-y,z
loop_
_atom_site_type_symbol
_atom_site_label
_atom_site_fract_x
_atom_site_fract_y
_atom_site_fract_z
Si Si1 0.288595 0.831824 0.174608
Si Si2 0.500000 0.000000 0.250000
Si Si3 0.545430 0.228054 0.820587
Si Si4 0.400238 0.330743 0.824668
Si Si5 0.658288 0.061813 0.677020
Si Si6 0.429585 0.092638 0.333019
Si Si7 0.694514 0.708864 0.172220
Si Si8 0.546281 0.435795 0.180304
O O1 0.311541 0.882637 0.274453
O O2 0.308472 0.766162 0.215914
O O3 0.236777 0.832441 0.210067
O O4 0.298918 0.845283 0.000000
O O5 0.468940 0.044112 0.347835
O O6 0.500000 0.250852 0.750000
O O7 0.583546 0.266507 0.741663
O O8 0.552343 0.157584 0.777129
O O9 0.545179 0.239629 0.000000
O O10 0.347958 0.332995 0.807361
O O11 0.418254 0.385810 0.724621
O O12 0.414533 0.337439 0.000000
O O13 0.661069 0.053890 0.500000
O O14 0.607586 0.071083 0.718676
O O15 0.676676 0.000000 0.750000
O O16 0.408574 0.099649 0.500000
O O17 0.698061 0.733839 0.000000
O O18 0.561423 0.500000 0.250000
O O19 0.500000 0.415687 0.250000
O O20 0.542254 0.441268 0.000000
#
# Coordination Sequence:
#
# PCOD8294375 Si02
#       8
#    16   4  16  16  16  16  16  16
#     4  10  20  38  63  89 118 149 190 239 290 349
#     4  12  22  40  64  86 118 160 208 252 302 352
#     4  11  23  38  55  82 117 156 200 246 295 343
#     4  11  22  38  59  87 120 154 193 238 290 345
#     4  12  25  40  60  85 115 152 196 242 294 348
#     4  11  24  40  60  86 117 157 205 252 300 351
#     4   9  20  38  62  90 118 152 189 233 289 348
#     4  11  22  39  62  88 118 155 195 235 282 341
#
# _framework density 19.607144000000002
#
# number of rings (size 3 to 8) (size 9 to 14) (size 15 to 20)
#    0.000    1.241    1.379    5.586    0.000    5.517 
#    0.000    0.690    0.000    0.000    0.000    0.000 
#    0.000    0.000    0.000    0.000    0.000    0.000 
#
# Total GULP energy -719426.109868 kJ/mol
# GULP energy per Si atom -12403.898446 kJ/mol
# Density = 1.956252 g / cm^3
# Si number density = 19.607144 Si / 1000 Ang^3
#
#
#
# Elastic Constant Matrix: (Units=GPa)
#
#
# Indices 1 2 3 4 5 6 
#
# 1 110.8068 57.5816 45.6881 0.0000 0.0000 0.0000
# 2 57.5816 106.3465 46.3570 0.0000 0.0000 0.0000
# 3 45.6881 46.3570 137.2168 0.0000 0.0000 0.0000
# 4 0.0000 0.0000 0.0000 31.7714 0.0000 0.0000
# 5 0.0000 0.0000 0.0000 0.0000 18.3772 0.0000
# 6 0.0000 0.0000 0.0000 0.0000 0.0000 24.1133
#
#
#
# Elastic Compliance Matrix: (Units=1/GPa)
#
#
# Indices 1 2 3 4 5 6 
#
# 1 0.013157 -0.006115 -0.002315 0.000000 0.000000 0.000000
# 2 -0.006115 0.013869 -0.002650 0.000000 0.000000 0.000000
# 3 -0.002315 -0.002650 0.008954 0.000000 0.000000 0.000000
# 4 0.000000 0.000000 0.000000 0.031475 0.000000 0.000000
# 5 0.000000 0.000000 0.000000 0.000000 0.054415 0.000000
# 6 0.000000 0.000000 0.000000 0.000000 0.000000 0.041471
#
#
# Mechanical properties :
#
#
# Convention : Reuss Voigt Hill
#
# Bulk Modulus (GPa) = 72.35304 72.62484 72.48894
# Shear Modulus (GPa) = 26.30120 28.50196 27.40158
#
# Velocity S-wave (km/s) = 3.66650 3.81681 3.74241
# Velocity P-wave (km/s) = 7.40984 7.51961 7.46493
#
# Compressibility (1/GPa) = 0.01382112
#
# Stress axis : x y z
#
# Youngs Moduli (GPa) = 76.00655 72.10341 111.68656
#
# Poissons Ratio (x) = 0.44089 0.25855
# Poissons Ratio (y) = 0.46476 0.29591
# Poissons Ratio (z) = 0.17595 0.19104
#
# Static dielectric constant tensor:
#      x y z
#    x 3.579850 0.000000 0.000000 
#    y 0.000000 3.575070 0.000000 
#    z 0.000000 0.000000 3.629180 
# 
# 
# High freq. dielectric constant tensor:
#      x y z
#    x 1.762720 0.000000 0.000000 
#    y 0.000000 1.762930 0.000000 
#    z 0.000000 0.000000 1.775880 
# 
# From -- ./inp_files/8451.got.cif
#   From: 2010.03.12/outbox.cif.g09.slc.cpg/sg72_5_cif.got.tgz:8451.got - 2010.04.16 14:54:00.
