data_PCOD8294991
_publ_section_title
;
Structure prediction by ZEFSAII (Michael W. Deem and Ramdas Pophale) SiO2 
 PCOD8294991
Probable space group: I B A M
;
_chemical_formula_sum "Si O2"
_cell_formula_units_Z 56
_cell_length_a 17.008727
_cell_length_b 17.225841
_cell_length_c 8.909705
_cell_angle_alpha 90.000000
_cell_angle_beta 90.000000
_cell_angle_gamma 90.000000
_cell_volume 2610.451144
_symmetry_space_group_name_H-M "I B A M"
_symmetry_group_IT_number 72
_symmetry_cell_setting 'orthorhombic'
loop_
_space_group_symop_operation_xyz
x,y,z
-x,-y,z
x,-y,1/2-z
-x,y,1/2-z
-x,-y,-z
x,y,-z
-x,y,1/2+z
x,-y,1/2+z
1/2+x,1/2+y,1/2+z
1/2-x,1/2-y,1/2+z
1/2+x,1/2-y,-z
1/2-x,1/2+y,-z
1/2-x,1/2-y,1/2-z
1/2+x,1/2+y,1/2-z
1/2-x,1/2+y,z
1/2+x,1/2-y,z
loop_
_atom_site_type_symbol
_atom_site_label
_atom_site_fract_x
_atom_site_fract_y
_atom_site_fract_z
Si Si1 0.426068 0.656107 0.334123
Si Si2 0.715145 0.582896 0.678865
Si Si3 0.874700 0.422966 0.331737
Si Si4 0.000000 0.695262 0.750000
O O1 0.500000 0.614578 0.250000
O O2 0.414713 0.620297 0.500000
O O3 0.348254 0.645391 0.234959
O O4 0.445367 0.748345 0.351785
O O5 0.692808 0.500000 0.750000
O O6 0.714486 0.579580 0.500000
O O7 0.800452 0.609466 0.738308
O O8 0.907510 0.500000 0.250000
O O9 0.847178 0.445018 0.500000
O O10 0.942665 0.359129 0.346430
#
# Coordination Sequence:
#
# PCOD8294991 Si02
#       4
#    16  16  16   8
#     4  10  22  41  63  92 125 162 205 252 306 366
#     4  11  23  41  65  93 124 162 206 256 307 363
#     4  11  23  41  65  93 124 163 206 255 308 363
#     4  10  25  40  65  88 128 162 206 250 305 368
#
# _framework density 21.45223
#
# number of rings (size 3 to 8) (size 9 to 14) (size 15 to 20)
#    0.857    0.571    0.000    7.286    0.000    7.429 
#    0.000    2.857    0.000    0.000    0.000    0.000 
#    0.000    0.000    0.000    0.000    0.000    0.000 
#
# Total GULP energy -347012.324852 kJ/mol
# GULP energy per Si atom -12393.297316 kJ/mol
# Density = 2.140340 g / cm^3
# Si number density = 21.452230 Si / 1000 Ang^3
#
#
#
# Elastic Constant Matrix: (Units=GPa)
#
#
# Indices 1 2 3 4 5 6 
#
# 1 130.5893 69.1554 58.1448 0.0000 0.0000 0.0000
# 2 69.1554 80.6999 37.2135 0.0000 0.0000 0.0000
# 3 58.1448 37.2135 210.6765 0.0000 0.0000 0.0000
# 4 0.0000 0.0000 0.0000 21.5436 0.0000 0.0000
# 5 0.0000 0.0000 0.0000 0.0000 26.9191 0.0000
# 6 0.0000 0.0000 0.0000 0.0000 0.0000 46.0655
#
#
#
# Elastic Compliance Matrix: (Units=1/GPa)
#
#
# Indices 1 2 3 4 5 6 
#
# 1 0.014757 -0.011723 -0.002002 0.000000 0.000000 0.000000
# 2 -0.011723 0.022803 -0.000792 0.000000 0.000000 0.000000
# 3 -0.002002 -0.000792 0.005439 0.000000 0.000000 0.000000
# 4 0.000000 0.000000 0.000000 0.046418 0.000000 0.000000
# 5 0.000000 0.000000 0.000000 0.000000 0.037148 0.000000
# 6 0.000000 0.000000 0.000000 0.000000 0.000000 0.021708
#
#
# Mechanical properties :
#
#
# Convention : Reuss Voigt Hill
#
# Bulk Modulus (GPa) = 71.61113 83.44368 77.52741
# Shear Modulus (GPa) = 27.47826 36.06911 31.77369
#
# Velocity S-wave (km/s) = 3.58286 4.10490 3.85273
# Velocity P-wave (km/s) = 7.11126 7.83893 7.48394
#
# Compressibility (1/GPa) = 0.01396431
#
# Stress axis : x y z
#
# Youngs Moduli (GPa) = 67.76489 43.85454 183.85191
#
# Poissons Ratio (x) = 0.51409 0.36809
# Poissons Ratio (y) = 0.79438 0.14570
# Poissons Ratio (z) = 0.13567 0.03475
#
# Static dielectric constant tensor:
#      x y z
#    x 3.860960 0.000000 0.000000 
#    y 0.000000 3.594100 0.000000 
#    z 0.000000 0.000000 3.760780 
# 
# 
# High freq. dielectric constant tensor:
#      x y z
#    x 1.848000 0.000000 0.000000 
#    y 0.000000 1.817580 0.000000 
#    z 0.000000 0.000000 1.852040 
# 
# From -- ./inp_files/3238.got.cif
#   From: 2010.03.12/outbox.cif.g09.slc.cpg/sg72_2_cif.got.tgz:3238.got - 2010.04.16 14:54:00.
