data_PCOD8294533
_publ_section_title
;
Structure prediction by ZEFSAII (Michael W. Deem and Ramdas Pophale) SiO2 
 PCOD8294533
Probable space group: I B A M
;
_chemical_formula_sum "Si O2"
_cell_formula_units_Z 104
_cell_length_a 25.345600
_cell_length_b 23.376662
_cell_length_c 8.832702
_cell_angle_alpha 90.000000
_cell_angle_beta 90.000000
_cell_angle_gamma 90.000000
_cell_volume 5233.336403
_symmetry_space_group_name_H-M "I B A M"
_symmetry_group_IT_number 72
_symmetry_cell_setting 'orthorhombic'
loop_
_space_group_symop_operation_xyz
x,y,z
-x,-y,z
x,-y,1/2-z
-x,y,1/2-z
-x,-y,-z
x,y,-z
-x,y,1/2+z
x,-y,1/2+z
1/2+x,1/2+y,1/2+z
1/2-x,1/2-y,1/2+z
1/2+x,1/2-y,-z
1/2-x,1/2+y,-z
1/2-x,1/2-y,1/2-z
1/2+x,1/2+y,1/2-z
1/2-x,1/2+y,z
1/2+x,1/2-y,z
loop_
_atom_site_type_symbol
_atom_site_label
_atom_site_fract_x
_atom_site_fract_y
_atom_site_fract_z
Si Si1 0.093925 0.779836 0.665495
Si Si2 0.376987 0.843465 0.824046
Si Si3 0.555469 0.060519 0.680017
Si Si4 0.233222 0.689662 0.819718
Si Si5 0.417887 0.556475 0.665253
Si Si6 0.169213 0.859949 0.177997
Si Si7 0.500000 0.354088 0.750000
O O1 0.121020 0.787178 0.500000
O O2 0.085953 0.712501 0.697509
O O3 0.133284 0.803927 0.792507
O O4 0.037875 0.812263 0.655459
O O5 0.400369 0.894130 0.724322
O O6 0.319612 0.830738 0.759426
O O7 0.373466 0.861533 0.000000
O O8 0.500000 0.080643 0.750000
O O9 0.550446 0.055390 0.500000
O O10 0.572478 0.000000 0.750000
O O11 0.250000 0.750000 0.750000
O O12 0.277629 0.642751 0.775847
O O13 0.226699 0.694183 0.000000
O O14 0.437051 0.500000 0.750000
O O15 0.403404 0.534856 0.500000
O O16 0.364969 0.585240 0.735273
O O17 0.464009 0.603754 0.649800
O O18 0.181962 0.862577 0.000000
#
# Coordination Sequence:
#
# PCOD8294533 Si02
#       7
#    16  16  16  16  16  16   8
#     4  10  21  36  56  84 119 158 199 245 301 358
#     4  11  23  39  61  94 127 160 204 250 299 362
#     4  11  23  43  68  94 125 164 205 251 304 362
#     4  12  23  38  61  90 123 161 200 245 303 367
#     4  10  22  38  58  83 115 156 204 253 299 352
#     4  10  21  38  59  84 116 154 199 252 304 358
#     4  10  21  36  56  86 119 158 204 250 300 350
#
# _framework density 19.872599999999998
#
# number of rings (size 3 to 8) (size 9 to 14) (size 15 to 20)
#    0.000    1.385    1.538    4.846    1.077    5.538 
#    0.000    0.769    0.000    1.846    0.000    0.000 
#    0.000    0.000    0.000    0.000    0.000    0.000 
#
# Total GULP energy -644599.904597 kJ/mol
# GULP energy per Si atom -12396.152011 kJ/mol
# Density = 1.982737 g / cm^3
# Si number density = 19.872600 Si / 1000 Ang^3
#
#
#
# Elastic Constant Matrix: (Units=GPa)
#
#
# Indices 1 2 3 4 5 6 
#
# 1 111.1654 66.8403 32.2881 0.0000 0.0000 0.0000
# 2 66.8403 108.1618 42.8729 0.0000 0.0000 0.0000
# 3 32.2881 42.8729 119.5578 0.0000 0.0000 0.0000
# 4 0.0000 0.0000 0.0000 28.5993 0.0000 0.0000
# 5 0.0000 0.0000 0.0000 0.0000 29.8754 0.0000
# 6 0.0000 0.0000 0.0000 0.0000 0.0000 29.7196
#
#
#
# Elastic Compliance Matrix: (Units=1/GPa)
#
#
# Indices 1 2 3 4 5 6 
#
# 1 0.014382 -0.008565 -0.000812 0.000000 0.000000 0.000000
# 2 -0.008565 0.015879 -0.003381 0.000000 0.000000 0.000000
# 3 -0.000812 -0.003381 0.009796 0.000000 0.000000 0.000000
# 4 0.000000 0.000000 0.000000 0.034966 0.000000 0.000000
# 5 0.000000 0.000000 0.000000 0.000000 0.033472 0.000000
# 6 0.000000 0.000000 0.000000 0.000000 0.000000 0.033648
#
#
# Mechanical properties :
#
#
# Convention : Reuss Voigt Hill
#
# Bulk Modulus (GPa) = 68.78078 69.20970 68.99524
# Shear Modulus (GPa) = 28.98456 30.76445 29.87450
#
# Velocity S-wave (km/s) = 3.82320 3.93884 3.88145
# Velocity P-wave (km/s) = 7.36038 7.45575 7.40822
#
# Compressibility (1/GPa) = 0.01453895
#
# Stress axis : x y z
#
# Youngs Moduli (GPa) = 69.53308 62.97800 102.08338
#
# Poissons Ratio (x) = 0.53943 0.08294
# Poissons Ratio (y) = 0.59557 0.34512
# Poissons Ratio (z) = 0.05649 0.21292
#
# Static dielectric constant tensor:
#      x y z
#    x 4.040200 0.000000 0.000000 
#    y 0.000000 3.657010 0.000000 
#    z 0.000000 0.000000 3.673860 
# 
# 
# High freq. dielectric constant tensor:
#      x y z
#    x 1.773250 0.000000 0.000000 
#    y 0.000000 1.768240 0.000000 
#    z 0.000000 0.000000 1.782910 
# 
# From -- ./inp_files/8191.got.cif
#   From: 2010.03.12/outbox.cif.g09.slc.cpg/sg72_5_cif.got.tgz:8191.got - 2010.04.16 14:54:00.
