data_PCOD8294996
_publ_section_title
;
Structure prediction by ZEFSAII (Michael W. Deem and Ramdas Pophale) SiO2 
 PCOD8294996
Probable space group: I B A M
;
_chemical_formula_sum "Si O2"
_cell_formula_units_Z 60
_cell_length_a 13.453217
_cell_length_b 20.628086
_cell_length_c 10.132685
_cell_angle_alpha 90.000000
_cell_angle_beta 90.000000
_cell_angle_gamma 90.000000
_cell_volume 2811.963133
_symmetry_space_group_name_H-M "I B A M"
_symmetry_group_IT_number 72
_symmetry_cell_setting 'orthorhombic'
loop_
_space_group_symop_operation_xyz
x,y,z
-x,-y,z
x,-y,1/2-z
-x,y,1/2-z
-x,-y,-z
x,y,-z
-x,y,1/2+z
x,-y,1/2+z
1/2+x,1/2+y,1/2+z
1/2-x,1/2-y,1/2+z
1/2+x,1/2-y,-z
1/2-x,1/2+y,-z
1/2-x,1/2-y,1/2-z
1/2+x,1/2+y,1/2-z
1/2-x,1/2+y,z
1/2+x,1/2-y,z
loop_
_atom_site_type_symbol
_atom_site_label
_atom_site_fract_x
_atom_site_fract_y
_atom_site_fract_z
Si Si1 0.867088 0.554875 0.848182
Si Si2 0.000000 0.335858 0.250000
Si Si3 0.659815 0.738614 0.151630
Si Si4 0.343257 0.404131 0.851211
Si Si5 0.000000 0.000000 0.250000
O O1 0.911055 0.500000 0.750000
O O2 0.759237 0.572807 0.782679
O O3 0.935570 0.618890 0.846817
O O4 0.863767 0.529060 0.000000
O O5 0.927650 0.290516 0.164864
O O6 0.750000 0.750000 0.250000
O O7 0.619445 0.667044 0.192540
O O8 0.697803 0.740870 0.000000
O O9 0.431989 0.455049 0.840110
O O10 0.308329 0.399750 0.000000
#
# Coordination Sequence:
#
# PCOD8294996 Si02
#       5
#    16   8  16  16   4
#     4  11  24  44  67  97 135 174 219 274 330 395
#     4  12  24  42  72 100 128 180 224 270 336 406
#     4  11  24  44  69  99 134 175 223 278 336 401
#     4  10  22  41  64  94 131 167 214 273 327 386
#     4  12  20  40  68  94 120 176 220 264 326 400
#
# _framework density 21.337406999999999
#
# number of rings (size 3 to 8) (size 9 to 14) (size 15 to 20)
#    0.000    1.067    4.000    2.400    0.000    4.267 
#    0.000    2.667    0.000    0.000    0.000    0.000 
#    0.000    0.000    0.000    0.000    0.000    0.000 
#
# Total GULP energy -371830.220448 kJ/mol
# GULP energy per Si atom -12394.340682 kJ/mol
# Density = 2.128884 g / cm^3
# Si number density = 21.337407 Si / 1000 Ang^3
#
#
#
# Elastic Constant Matrix: (Units=GPa)
#
#
# Indices 1 2 3 4 5 6 
#
# 1 137.0828 70.7245 34.9998 0.0000 0.0000 0.0000
# 2 70.7245 174.3730 52.4433 0.0000 0.0000 0.0000
# 3 34.9998 52.4433 104.7017 0.0003 0.0001 0.0000
# 4 0.0000 0.0000 0.0003 27.0498 0.0000 0.0000
# 5 0.0000 0.0000 0.0001 0.0000 21.8178 0.0000
# 6 0.0000 0.0000 0.0000 0.0000 0.0000 46.8018
#
#
#
# Elastic Compliance Matrix: (Units=1/GPa)
#
#
# Indices 1 2 3 4 5 6 
#
# 1 0.009409 -0.003379 -0.001453 0.000000 0.000000 0.000000
# 2 -0.003379 0.007966 -0.002860 0.000000 0.000000 0.000000
# 3 -0.001453 -0.002860 0.011469 0.000000 0.000000 0.000000
# 4 0.000000 0.000000 0.000000 0.036969 0.000000 0.000000
# 5 0.000000 0.000000 0.000000 0.000000 0.045834 0.000000
# 6 0.000000 0.000000 0.000000 0.000000 0.000000 0.021367
#
#
# Mechanical properties :
#
#
# Convention : Reuss Voigt Hill
#
# Bulk Modulus (GPa) = 74.29654 81.38809 77.84231
# Shear Modulus (GPa) = 32.70429 36.33319 34.51874
#
# Velocity S-wave (km/s) = 3.91925 4.13097 4.02650
# Velocity P-wave (km/s) = 7.44151 7.80893 7.62743
#
# Compressibility (1/GPa) = 0.01345958
#
# Stress axis : x y z
#
# Youngs Moduli (GPa) = 106.27788 125.53763 87.19035
#
# Poissons Ratio (x) = 0.42425 0.12666
# Poissons Ratio (y) = 0.35916 0.24938
# Poissons Ratio (z) = 0.15438 0.35906
#
# Static dielectric constant tensor:
#      x y z
#    x 3.897070 0.000000 0.000010 
#    y 0.000000 4.267400 0.000000 
#    z 0.000010 0.000000 3.836850 
# 
# 
# High freq. dielectric constant tensor:
#      x y z
#    x 1.846340 0.000000 0.000000 
#    y 0.000000 1.856470 0.000000 
#    z 0.000000 0.000000 1.813410 
# 
# From -- ./inp_files/11216.got.cif
#   From: 2010.03.12/outbox.cif.g09.slc.cpg/sg72_6_cif.got.tgz:11216.got - 2010.04.16 14:54:00.
