data_PCOD8294945
_publ_section_title
;
Structure prediction by ZEFSAII (Michael W. Deem and Ramdas Pophale) SiO2 
 PCOD8294945
Probable space group: I B A M
;
_chemical_formula_sum "Si O2"
_cell_formula_units_Z 100
_cell_length_a 20.858479
_cell_length_b 26.126936
_cell_length_c 9.081506
_cell_angle_alpha 90.000000
_cell_angle_beta 90.000000
_cell_angle_gamma 90.000000
_cell_volume 4949.131487
_symmetry_space_group_name_H-M "I B A M"
_symmetry_group_IT_number 72
_symmetry_cell_setting 'orthorhombic'
loop_
_space_group_symop_operation_xyz
x,y,z
-x,-y,z
x,-y,1/2-z
-x,y,1/2-z
-x,-y,-z
x,y,-z
-x,y,1/2+z
x,-y,1/2+z
1/2+x,1/2+y,1/2+z
1/2-x,1/2-y,1/2+z
1/2+x,1/2-y,-z
1/2-x,1/2+y,-z
1/2-x,1/2-y,1/2-z
1/2+x,1/2+y,1/2-z
1/2-x,1/2+y,z
1/2+x,1/2-y,z
loop_
_atom_site_type_symbol
_atom_site_label
_atom_site_fract_x
_atom_site_fract_y
_atom_site_fract_z
Si Si1 0.935724 0.693252 0.826894
Si Si2 0.816417 0.760533 0.829134
Si Si3 0.776591 0.450316 0.830741
Si Si4 0.932131 0.051199 0.824352
Si Si5 0.000000 0.500000 0.250000
Si Si6 0.338128 0.377935 0.668299
Si Si7 0.599157 0.079700 0.162722
O O1 0.873427 0.724244 0.768936
O O2 0.928015 0.633962 0.782388
O O3 0.000000 0.714749 0.750000
O O4 0.944189 0.701411 0.000000
O O5 0.750000 0.750000 0.750000
O O6 0.837041 0.818327 0.798177
O O7 0.804700 0.749959 0.000000
O O8 0.747415 0.500000 0.750000
O O9 0.732088 0.401302 0.803037
O O10 0.847381 0.438245 0.775631
O O11 0.782008 0.465074 0.000000
O O12 0.886939 0.098406 0.785207
O O13 0.000000 0.062336 0.750000
O O14 0.902737 0.000000 0.750000
O O15 0.938499 0.044755 0.000000
O O16 0.043588 0.537235 0.349003
O O17 0.359935 0.389149 0.500000
O O18 0.629308 0.086263 0.000000
#
# Coordination Sequence:
#
# PCOD8294945 Si02
#       7
#    16  16  16  16   4  16  16
#     4  10  22  40  61  88 119 155 197 248 300 355
#     4  10  22  41  64  88 119 157 205 257 308 363
#     4  11  23  37  57  84 118 155 195 240 293 348
#     4  11  22  38  62  91 124 162 198 243 299 365
#     4  12  22  36  60  86 118 156 192 232 288 340
#     4  10  22  40  60  87 120 157 201 253 302 357
#     4  11  23  38  58  86 120 155 197 241 289 350
#
# _framework density 20.205566999999999
#
# number of rings (size 3 to 8) (size 9 to 14) (size 15 to 20)
#    0.000    1.440    1.600    4.080    0.000    5.760 
#    0.000    1.600    0.000    0.000    0.000    0.000 
#    0.000    0.000    0.000    0.000    0.000    0.000 
#
# Total GULP energy -620128.556440 kJ/mol
# GULP energy per Si atom -12402.571129 kJ/mol
# Density = 2.015958 g / cm^3
# Si number density = 20.205567 Si / 1000 Ang^3
#
#
#
# Elastic Constant Matrix: (Units=GPa)
#
#
# Indices 1 2 3 4 5 6 
#
# 1 127.4453 73.8997 54.7070 0.0000 0.0000 0.0000
# 2 73.8997 131.6541 47.1855 0.0000 0.0000 0.0000
# 3 54.7070 47.1855 109.5242 0.0000 0.0000 0.0000
# 4 0.0000 0.0000 0.0000 28.2648 0.0000 0.0000
# 5 0.0000 0.0000 0.0000 0.0000 32.7168 0.0000
# 6 0.0000 0.0000 0.0000 0.0000 0.0000 33.1912
#
#
#
# Elastic Compliance Matrix: (Units=1/GPa)
#
#
# Indices 1 2 3 4 5 6 
#
# 1 0.012926 -0.005844 -0.003939 0.000000 0.000000 0.000000
# 2 -0.005844 0.011625 -0.002089 0.000000 0.000000 0.000000
# 3 -0.003939 -0.002089 0.011998 0.000000 0.000000 0.000000
# 4 0.000000 0.000000 0.000000 0.035380 0.000000 0.000000
# 5 0.000000 0.000000 0.000000 0.000000 0.030565 0.000000
# 6 0.000000 0.000000 0.000000 0.000000 0.000000 0.030128
#
#
# Mechanical properties :
#
#
# Convention : Reuss Voigt Hill
#
# Bulk Modulus (GPa) = 78.09563 80.02311 79.05937
# Shear Modulus (GPa) = 31.12671 31.68998 31.40835
#
# Velocity S-wave (km/s) = 3.92918 3.96457 3.94692
# Velocity P-wave (km/s) = 7.70189 7.78766 7.74489
#
# Compressibility (1/GPa) = 0.01280481
#
# Stress axis : x y z
#
# Youngs Moduli (GPa) = 77.36459 86.02397 83.34811
#
# Poissons Ratio (x) = 0.50271 0.32829
# Poissons Ratio (y) = 0.45210 0.17413
# Poissons Ratio (z) = 0.30472 0.17972
#
# Static dielectric constant tensor:
#      x y z
#    x 3.685120 0.000000 0.000000 
#    y 0.000000 4.895260 0.000000 
#    z 0.000000 0.000000 4.135660 
# 
# 
# High freq. dielectric constant tensor:
#      x y z
#    x 1.794180 0.000000 0.000000 
#    y 0.000000 1.796650 0.000000 
#    z 0.000000 0.000000 1.785340 
# 
# From -- ./inp_files/6192.got.cif
#   From: 2010.03.12/outbox.cif.g09.slc.cpg/sg72_4_cif.got.tgz:6192.got - 2010.04.16 14:54:00.
