data_PCOD8294235
_publ_section_title
;
Structure prediction by ZEFSAII (Michael W. Deem and Ramdas Pophale) SiO2 
 PCOD8294235
Probable space group: I B A M
;
_chemical_formula_sum "Si O2"
_cell_formula_units_Z 88
_cell_length_a 9.028348
_cell_length_b 18.587681
_cell_length_c 26.462241
_cell_angle_alpha 90.000000
_cell_angle_beta 90.000000
_cell_angle_gamma 90.000000
_cell_volume 4440.788827
_symmetry_space_group_name_H-M "I B A M"
_symmetry_group_IT_number 72
_symmetry_cell_setting 'orthorhombic'
loop_
_space_group_symop_operation_xyz
x,y,z
-x,-y,z
x,-y,1/2-z
-x,y,1/2-z
-x,-y,-z
x,y,-z
-x,y,1/2+z
x,-y,1/2+z
1/2+x,1/2+y,1/2+z
1/2-x,1/2-y,1/2+z
1/2+x,1/2-y,-z
1/2-x,1/2+y,-z
1/2-x,1/2-y,1/2-z
1/2+x,1/2+y,1/2-z
1/2-x,1/2+y,z
1/2+x,1/2-y,z
loop_
_atom_site_type_symbol
_atom_site_label
_atom_site_fract_x
_atom_site_fract_y
_atom_site_fract_z
Si Si1 0.808825 0.207689 0.905036
Si Si2 0.891294 0.181406 0.445735
Si Si3 0.741055 0.191936 0.315680
Si Si4 0.175807 0.581401 0.901839
Si Si5 0.638010 0.925014 0.439532
Si Si6 0.000000 0.238773 0.750000
O O1 0.742760 0.261327 0.946984
O O2 0.752765 0.237317 0.851413
O O3 0.762481 0.127542 0.919126
O O4 0.987449 0.206259 0.904839
O O5 0.970088 0.178036 0.500000
O O6 0.818075 0.104217 0.434717
O O7 0.704255 0.118172 0.346620
O O8 0.900092 0.187540 0.286714
O O9 0.608170 0.205259 0.277418
O O10 0.165937 0.495373 0.904845
O O11 0.021563 0.610021 0.926128
O O12 0.648041 0.940948 0.500000
#
# Coordination Sequence:
#
# PCOD8294235 Si02
#       6
#    16  16  16  16  16   8
#     4  11  22  34  55  81 115 145 190 231 282 334
#     4  11  20  33  51  79 113 153 193 237 270 323
#     4  10  20  37  58  86 105 143 179 241 293 336
#     4  10  21  36  56  79 116 150 193 230 279 332
#     4  11  21  36  56  84 119 164 193 220 262 332
#     4  10  20  36  64  82 106 130 190 238 298 356
#
# _framework density 19.816299999999998
#
# number of rings (size 3 to 8) (size 9 to 14) (size 15 to 20)
#    0.000    1.455    0.000    9.273    0.000    0.727 
#    0.000    1.818    0.000   17.455    0.000    0.000 
#    0.000    0.000    0.000    0.000    0.000    0.000 
#
# Total GULP energy -545111.188398 kJ/mol
# GULP energy per Si atom -12388.890645 kJ/mol
# Density = 1.977120 g / cm^3
# Si number density = 19.816300 Si / 1000 Ang^3
#
#
#
# Elastic Constant Matrix: (Units=GPa)
#
#
# Indices 1 2 3 4 5 6 
#
# 1 129.7521 41.3907 43.0120 0.0000 0.0000 0.0000
# 2 41.3907 89.5372 40.9052 0.0000 0.0000 0.0000
# 3 43.0120 40.9052 118.9250 0.0000 0.0000 0.0000
# 4 0.0000 0.0000 0.0000 25.8635 0.0000 0.0000
# 5 0.0000 0.0000 0.0000 0.0000 38.5791 0.0000
# 6 0.0000 0.0000 0.0000 0.0000 0.0000 33.5768
#
#
#
# Elastic Compliance Matrix: (Units=1/GPa)
#
#
# Indices 1 2 3 4 5 6 
#
# 1 0.009540 -0.003362 -0.002294 0.000000 0.000000 0.000000
# 2 -0.003362 0.014436 -0.003749 0.000000 0.000000 0.000000
# 3 -0.002294 -0.003749 0.010528 0.000000 0.000000 0.000000
# 4 0.000000 0.000000 0.000000 0.038664 0.000000 0.000000
# 5 0.000000 0.000000 0.000000 0.000000 0.025921 0.000000
# 6 0.000000 0.000000 0.000000 0.000000 0.000000 0.029782
#
#
# Mechanical properties :
#
#
# Convention : Reuss Voigt Hill
#
# Bulk Modulus (GPa) = 63.72310 65.42556 64.57433
# Shear Modulus (GPa) = 32.69841 33.79765 33.24803
#
# Velocity S-wave (km/s) = 4.06652 4.13431 4.10055
# Velocity P-wave (km/s) = 7.36719 7.47514 7.42136
#
# Compressibility (1/GPa) = 0.01569290
#
# Stress axis : x y z
#
# Youngs Moduli (GPa) = 104.82271 69.27323 94.98570
#
# Poissons Ratio (x) = 0.23290 0.21789
# Poissons Ratio (y) = 0.35242 0.35613
# Poissons Ratio (z) = 0.24046 0.25972
#
# Static dielectric constant tensor:
#      x y z
#    x 3.957520 0.000000 0.000000 
#    y 0.000000 3.362240 0.000000 
#    z 0.000000 0.000000 3.692710 
# 
# 
# High freq. dielectric constant tensor:
#      x y z
#    x 1.794260 0.000000 0.000000 
#    y 0.000000 1.749140 0.000000 
#    z 0.000000 0.000000 1.765340 
# 
# From -- ./inp_files/50795.got.cif
#   From: 2010.03.12/outbox.cif.g09.slc.cpg/sg72_26_cif.got.tgz:50795.got - 2010.04.16 14:54:00.
