data_PCOD8294712
_publ_section_title
;
Structure prediction by ZEFSAII (Michael W. Deem and Ramdas Pophale) SiO2 
 PCOD8294712
Probable space group: I B A M
;
_chemical_formula_sum "Si O2"
_cell_formula_units_Z 56
_cell_length_a 5.191821
_cell_length_b 27.786534
_cell_length_c 19.715371
_cell_angle_alpha 90.000000
_cell_angle_beta 90.000000
_cell_angle_gamma 90.000000
_cell_volume 2844.192864
_symmetry_space_group_name_H-M "I B A M"
_symmetry_group_IT_number 72
_symmetry_cell_setting 'orthorhombic'
loop_
_space_group_symop_operation_xyz
x,y,z
-x,-y,z
x,-y,1/2-z
-x,y,1/2-z
-x,-y,-z
x,y,-z
-x,y,1/2+z
x,-y,1/2+z
1/2+x,1/2+y,1/2+z
1/2-x,1/2-y,1/2+z
1/2+x,1/2-y,-z
1/2-x,1/2+y,-z
1/2-x,1/2-y,1/2-z
1/2+x,1/2+y,1/2-z
1/2-x,1/2+y,z
1/2+x,1/2-y,z
loop_
_atom_site_type_symbol
_atom_site_label
_atom_site_fract_x
_atom_site_fract_y
_atom_site_fract_z
Si Si1 0.163253 0.044788 0.075399
Si Si2 0.051461 0.139532 0.385771
Si Si3 0.527553 0.717537 0.000000
Si Si4 0.560820 0.106036 0.325632
O O1 0.398520 0.058290 0.126766
O O2 0.973717 0.090840 0.069854
O O3 0.271447 0.033017 0.000000
O O4 0.000000 0.000000 0.104593
O O5 0.329191 0.139778 0.350705
O O6 0.025635 0.185819 0.432521
O O7 0.820354 0.138779 0.329608
O O8 0.776532 0.750281 0.000000
O O9 0.500000 0.088080 0.250000
#
# Coordination Sequence:
#
# PCOD8294712 Si02
#       4
#    16  16   8  16
#     4   9  20  37  63  96 129 168 215 266 311 371
#     4  10  21  39  62  92 124 164 214 258 321 381
#     4  12  24  40  69  99 125 157 214 280 330 388
#     4  10  21  38  64  88 131 176 207 254 313 384
#
# _framework density 19.689243000000001
#
# number of rings (size 3 to 8) (size 9 to 14) (size 15 to 20)
#    1.714    0.286    1.429    2.571    2.000    1.143 
#    0.000    7.143    0.000   17.143    0.000    0.000 
#    0.000    0.000    0.000    0.000    0.000    0.000 
#
# Total GULP energy -346887.812844 kJ/mol
# GULP energy per Si atom -12388.850459 kJ/mol
# Density = 1.964443 g / cm^3
# Si number density = 19.689243 Si / 1000 Ang^3
#
#
#
# Elastic Constant Matrix: (Units=GPa)
#
#
# Indices 1 2 3 4 5 6 
#
# 1 160.6484 52.0927 59.3902 0.0000 0.0000 0.0000
# 2 52.0927 113.2410 43.6322 0.0000 0.0000 0.0000
# 3 59.3902 43.6322 139.5610 0.0000 0.0000 0.0000
# 4 0.0000 0.0000 0.0000 11.6190 0.0000 0.0000
# 5 0.0000 0.0000 0.0000 0.0000 24.7996 0.0000
# 6 0.0000 0.0000 0.0000 0.0000 0.0000 25.8139
#
#
#
# Elastic Compliance Matrix: (Units=1/GPa)
#
#
# Indices 1 2 3 4 5 6 
#
# 1 0.008059 -0.002713 -0.002581 0.000000 0.000000 0.000000
# 2 -0.002713 0.010953 -0.002270 0.000000 0.000000 0.000000
# 3 -0.002581 -0.002270 0.008974 0.000000 0.000000 0.000000
# 4 0.000000 0.000000 0.000000 0.086066 0.000000 0.000000
# 5 0.000000 0.000000 0.000000 0.000000 0.040323 0.000000
# 6 0.000000 0.000000 0.000000 0.000000 0.000000 0.038739
#
#
# Mechanical properties :
#
#
# Convention : Reuss Voigt Hill
#
# Bulk Modulus (GPa) = 77.77547 80.40896 79.09222
# Shear Modulus (GPa) = 23.52641 29.66884 26.59763
#
# Velocity S-wave (km/s) = 3.46046 3.88603 3.67941
# Velocity P-wave (km/s) = 7.45343 7.81426 7.63598
#
# Compressibility (1/GPa) = 0.01285752
#
# Stress axis : x y z
#
# Youngs Moduli (GPa) = 124.09049 91.29756 111.43892
#
# Poissons Ratio (x) = 0.24765 0.28766
# Poissons Ratio (y) = 0.33660 0.25298
# Poissons Ratio (z) = 0.32032 0.20725
#
# Static dielectric constant tensor:
#      x y z
#    x 3.564790 0.000000 0.000000 
#    y 0.000000 3.323330 0.000000 
#    z 0.000000 0.000000 3.374280 
# 
# 
# High freq. dielectric constant tensor:
#      x y z
#    x 1.775680 0.000000 0.000000 
#    y 0.000000 1.743440 0.000000 
#    z 0.000000 0.000000 1.754940 
# 
# From -- ./inp_files/33649.got.cif
#   From: 2010.03.12/outbox.cif.g09.slc.cpg/sg72_17_cif.got.tgz:33649.got - 2010.04.16 14:54:00.
