data_PCOD8294948
_publ_section_title
;
Structure prediction by ZEFSAII (Michael W. Deem and Ramdas Pophale) SiO2 
 PCOD8294948
Probable space group: I B A M
;
_chemical_formula_sum "Si O2"
_cell_formula_units_Z 88
_cell_length_a 12.418847
_cell_length_b 23.202959
_cell_length_c 14.851897
_cell_angle_alpha 90.000000
_cell_angle_beta 90.000000
_cell_angle_gamma 90.000000
_cell_volume 4279.633495
_symmetry_space_group_name_H-M "I B A M"
_symmetry_group_IT_number 72
_symmetry_cell_setting 'orthorhombic'
loop_
_space_group_symop_operation_xyz
x,y,z
-x,-y,z
x,-y,1/2-z
-x,y,1/2-z
-x,-y,-z
x,y,-z
-x,y,1/2+z
x,-y,1/2+z
1/2+x,1/2+y,1/2+z
1/2-x,1/2-y,1/2+z
1/2+x,1/2-y,-z
1/2-x,1/2+y,-z
1/2-x,1/2-y,1/2-z
1/2+x,1/2+y,1/2-z
1/2-x,1/2+y,z
1/2+x,1/2-y,z
loop_
_atom_site_type_symbol
_atom_site_label
_atom_site_fract_x
_atom_site_fract_y
_atom_site_fract_z
Si Si1 0.710848 0.062514 0.258042
Si Si2 0.993586 0.160724 0.646702
Si Si3 0.500000 0.138344 0.250000
Si Si4 0.078891 0.282763 0.102802
Si Si5 0.404789 0.456403 0.399318
Si Si6 0.777916 0.859402 0.399821
O O1 0.607503 0.102623 0.273752
O O2 0.800671 0.052296 0.335523
O O3 0.770703 0.086399 0.168542
O O4 0.657794 0.000000 0.250000
O O5 0.918465 0.216383 0.633580
O O6 0.952164 0.107201 0.589635
O O7 0.000000 0.142358 0.750000
O O8 0.111204 0.174867 0.609364
O O9 0.499610 0.178595 0.337483
O O10 0.196472 0.307954 0.120289
O O11 0.041144 0.288277 0.000000
O O12 0.500000 0.500000 0.362809
O O13 0.369684 0.477024 0.500000
O O14 0.760998 0.885043 0.500000
#
# Coordination Sequence:
#
# PCOD8294948 Si02
#       6
#    16  16   8  16  16  16
#     4  11  23  40  65  90 124 164 210 256 316 366
#     4  12  22  38  65  91 122 160 204 249 310 373
#     4  10  23  42  62  92 123 160 212 264 302 372
#     4  10  22  40  61  87 122 162 204 253 309 367
#     4  11  25  42  63  95 131 164 207 259 312 375
#     4  10  22  40  61  87 123 163 202 252 309 367
#
# _framework density 20.562508999999999
#
# number of rings (size 3 to 8) (size 9 to 14) (size 15 to 20)
#    0.000    1.273    2.727    3.000    0.000    5.091 
#    0.000    0.000    0.000    6.000    0.000    0.000 
#    0.000    0.000    0.000    0.000    0.000    0.000 
#
# Total GULP energy -545185.193608 kJ/mol
# GULP energy per Si atom -12390.572582 kJ/mol
# Density = 2.051571 g / cm^3
# Si number density = 20.562509 Si / 1000 Ang^3
#
#
#
# Elastic Constant Matrix: (Units=GPa)
#
#
# Indices 1 2 3 4 5 6 
#
# 1 102.0052 46.9161 37.4536 0.0000 0.0000 0.0000
# 2 46.9161 145.8877 30.8121 0.0001 0.0000 0.0000
# 3 37.4536 30.8121 99.1304 0.0001 0.0000 -0.0001
# 4 0.0000 0.0001 0.0001 22.4339 0.0000 0.0000
# 5 0.0000 0.0000 0.0000 0.0000 33.0515 0.0000
# 6 0.0000 0.0000 -0.0001 0.0000 0.0000 18.6224
#
#
#
# Elastic Compliance Matrix: (Units=1/GPa)
#
#
# Indices 1 2 3 4 5 6 
#
# 1 0.012702 -0.003287 -0.003777 0.000000 0.000000 0.000000
# 2 -0.003287 0.008187 -0.001303 0.000000 0.000000 0.000000
# 3 -0.003777 -0.001303 0.011920 0.000000 0.000000 0.000000
# 4 0.000000 0.000000 0.000000 0.044575 0.000000 0.000000
# 5 0.000000 0.000000 0.000000 0.000000 0.030256 0.000000
# 6 0.000000 0.000000 0.000000 0.000000 0.000000 0.053699
#
#
# Mechanical properties :
#
#
# Convention : Reuss Voigt Hill
#
# Bulk Modulus (GPa) = 62.21097 64.15410 63.18253
# Shear Modulus (GPa) = 27.25809 30.27765 28.76787
#
# Velocity S-wave (km/s) = 3.64486 3.84144 3.74444
# Velocity P-wave (km/s) = 6.93062 7.13742 7.03478
#
# Compressibility (1/GPa) = 0.01607434
#
# Stress axis : x y z
#
# Youngs Moduli (GPa) = 78.72601 122.14732 83.89368
#
# Poissons Ratio (x) = 0.40151 0.31691
# Poissons Ratio (y) = 0.25878 0.10929
# Poissons Ratio (z) = 0.29739 0.15912
#
# Static dielectric constant tensor:
#      x y z
#    x 3.717020 0.000000 0.000000 
#    y 0.000000 3.830810 0.000000 
#    z 0.000000 0.000000 3.939120 
# 
# 
# High freq. dielectric constant tensor:
#      x y z
#    x 1.801640 0.000000 0.000000 
#    y 0.000000 1.814500 0.000000 
#    z 0.000000 0.000000 1.814600 
# 
# From -- ./inp_files/20306.got.cif
#   From: 2010.03.12/outbox.cif.g09.slc.cpg/sg72_11_cif.got.tgz:20306.got - 2010.04.16 14:54:00.
