data_PCOD8294537
_publ_section_title
;
Structure prediction by ZEFSAII (Michael W. Deem and Ramdas Pophale) SiO2 
 PCOD8294537
Probable space group: I B A M
;
_chemical_formula_sum "Si O2"
_cell_formula_units_Z 80
_cell_length_a 28.497866
_cell_length_b 8.422220
_cell_length_c 16.595277
_cell_angle_alpha 90.000000
_cell_angle_beta 90.000000
_cell_angle_gamma 90.000000
_cell_volume 3983.120338
_symmetry_space_group_name_H-M "I B A M"
_symmetry_group_IT_number 72
_symmetry_cell_setting 'orthorhombic'
loop_
_space_group_symop_operation_xyz
x,y,z
-x,-y,z
x,-y,1/2-z
-x,y,1/2-z
-x,-y,-z
x,y,-z
-x,y,1/2+z
x,-y,1/2+z
1/2+x,1/2+y,1/2+z
1/2-x,1/2-y,1/2+z
1/2+x,1/2-y,-z
1/2-x,1/2+y,-z
1/2-x,1/2-y,1/2-z
1/2+x,1/2+y,1/2-z
1/2-x,1/2+y,z
1/2+x,1/2-y,z
loop_
_atom_site_type_symbol
_atom_site_label
_atom_site_fract_x
_atom_site_fract_y
_atom_site_fract_z
Si Si1 0.276939 0.207375 0.332610
Si Si2 0.371915 0.607638 0.174441
Si Si3 0.554016 0.185134 0.739607
Si Si4 0.892453 0.199381 0.091629
Si Si5 0.200966 0.613662 0.090947
O O1 0.250000 0.250000 0.250000
O O2 0.326338 0.291998 0.345292
O O3 0.243084 0.259398 0.405511
O O4 0.287574 0.021004 0.342923
O O5 0.359246 0.500000 0.250000
O O6 0.415860 0.721773 0.193352
O O7 0.384323 0.490092 0.100773
O O8 0.500000 0.229487 0.750000
O O9 0.566403 0.240232 0.649415
O O10 0.563856 0.000000 0.750000
O O11 0.846235 0.296753 0.117234
O O12 0.907052 0.234417 0.000000
O O13 0.196648 0.546798 0.000000
#
# Coordination Sequence:
#
# PCOD8294537 Si02
#       5
#    16  16  16  16  16
#     4  12  22  35  56  83 114 155 204 246 286 345
#     4  10  21  36  57  84 115 152 194 243 296 348
#     4  10  21  41  65  88 116 153 192 239 299 360
#     4  10  22  40  61  87 119 154 198 248 298 356
#     4  11  23  37  55  81 118 159 195 241 297 346
#
# _framework density 20.084757
#
# number of rings (size 3 to 8) (size 9 to 14) (size 15 to 20)
#    0.000    1.400    0.000    7.200    0.000    6.800 
#    0.000    5.000    0.000    0.000    0.000    0.000 
#    0.000    0.000    0.000    0.000    0.000    0.000 
#
# Total GULP energy -496034.303937 kJ/mol
# GULP energy per Si atom -12400.857598 kJ/mol
# Density = 2.003904 g / cm^3
# Si number density = 20.084757 Si / 1000 Ang^3
#
#
#
# Elastic Constant Matrix: (Units=GPa)
#
#
# Indices 1 2 3 4 5 6 
#
# 1 154.2457 67.1775 57.8151 0.0000 0.0000 0.0000
# 2 67.1775 122.3444 46.4369 0.0000 0.0000 0.0000
# 3 57.8151 46.4369 92.7333 0.0000 0.0000 0.0000
# 4 0.0000 0.0000 0.0000 29.6551 0.0000 0.0000
# 5 0.0000 0.0000 0.0000 0.0000 26.4462 0.0000
# 6 0.0000 0.0000 0.0000 0.0000 0.0000 35.1551
#
#
#
# Elastic Compliance Matrix: (Units=1/GPa)
#
#
# Indices 1 2 3 4 5 6 
#
# 1 0.009666 -0.003729 -0.004159 0.000000 0.000000 0.000000
# 2 -0.003729 0.011530 -0.003449 0.000000 0.000000 0.000000
# 3 -0.004159 -0.003449 0.015104 0.000000 0.000000 0.000000
# 4 0.000000 0.000000 0.000000 0.033721 0.000000 0.000000
# 5 0.000000 0.000000 0.000000 0.000000 0.037813 0.000000
# 6 0.000000 0.000000 0.000000 0.000000 0.000000 0.028445
#
#
# Mechanical properties :
#
#
# Convention : Reuss Voigt Hill
#
# Bulk Modulus (GPa) = 73.38911 79.13137 76.26024
# Shear Modulus (GPa) = 30.58190 31.44419 31.01305
#
# Velocity S-wave (km/s) = 3.90634 3.96103 3.93378
# Velocity P-wave (km/s) = 7.54752 7.77199 7.66058
#
# Compressibility (1/GPa) = 0.01362600
#
# Stress axis : x y z
#
# Youngs Moduli (GPa) = 103.45406 86.72838 66.20847
#
# Poissons Ratio (x) = 0.32340 0.27537
# Poissons Ratio (y) = 0.38577 0.22836
# Poissons Ratio (z) = 0.43028 0.29913
#
# Static dielectric constant tensor:
#      x y z
#    x 3.609930 0.000000 0.000000 
#    y 0.000000 3.979970 0.000000 
#    z 0.000000 0.000000 3.541860 
# 
# 
# High freq. dielectric constant tensor:
#      x y z
#    x 1.783650 0.000000 0.000000 
#    y 0.000000 1.799030 0.000000 
#    z 0.000000 0.000000 1.775690 
# 
# From -- ./inp_files/33765.got.cif
#   From: 2010.03.12/outbox.cif.g09.slc.cpg/sg72_17_cif.got.tgz:33765.got - 2010.04.16 14:54:00.
