data_PCOD8294757
_publ_section_title
;
Structure prediction by ZEFSAII (Michael W. Deem and Ramdas Pophale) SiO2 
 PCOD8294757
Probable space group: I B A M
;
_chemical_formula_sum "Si O2"
_cell_formula_units_Z 96
_cell_length_a 25.231554
_cell_length_b 8.620832
_cell_length_c 23.000764
_cell_angle_alpha 90.000000
_cell_angle_beta 90.000000
_cell_angle_gamma 90.000000
_cell_volume 5003.056910
_symmetry_space_group_name_H-M "I B A M"
_symmetry_group_IT_number 72
_symmetry_cell_setting 'orthorhombic'
loop_
_space_group_symop_operation_xyz
x,y,z
-x,-y,z
x,-y,1/2-z
-x,y,1/2-z
-x,-y,-z
x,y,-z
-x,y,1/2+z
x,-y,1/2+z
1/2+x,1/2+y,1/2+z
1/2-x,1/2-y,1/2+z
1/2+x,1/2-y,-z
1/2-x,1/2+y,-z
1/2-x,1/2-y,1/2-z
1/2+x,1/2+y,1/2-z
1/2-x,1/2+y,z
1/2+x,1/2-y,z
loop_
_atom_site_type_symbol
_atom_site_label
_atom_site_fract_x
_atom_site_fract_y
_atom_site_fract_z
Si Si1 0.100890 0.186824 0.374296
Si Si2 0.591309 0.678178 0.364442
Si Si3 0.298901 0.818162 0.566963
Si Si4 0.812252 0.318922 0.566655
Si Si5 0.561633 0.817485 0.753605
Si Si6 0.003255 0.321570 0.567045
O O1 0.160368 0.228006 0.392192
O O2 0.086754 0.261563 0.313188
O O3 0.062175 0.256406 0.423574
O O4 0.096716 0.003901 0.370320
O O5 0.638988 0.764770 0.395339
O O6 0.592236 0.728936 0.297522
O O7 0.535978 0.724270 0.393273
O O8 0.308189 0.768888 0.500000
O O9 0.240332 0.769804 0.587243
O O10 0.304704 0.999792 0.576063
O O11 0.825266 0.278992 0.500000
O O12 0.500000 0.773148 0.750000
O O13 0.570565 0.000000 0.750000
O O14 0.986983 0.304160 0.500000
O O15 0.000000 0.500000 0.587066
#
# Coordination Sequence:
#
# PCOD8294757 Si02
#       6
#    16  16  16  16  16  16
#     4  12  24  38  60  89 121 155 198 247 299 356
#     4  12  24  38  60  89 121 155 198 247 299 356
#     4  10  21  39  63  90 122 160 201 245 296 354
#     4  10  21  39  63  90 122 160 201 245 296 354
#     4  11  23  41  64  85 115 160 204 245 297 357
#     4  11  23  38  57  84 119 157 197 243 296 353
#
# _framework density 19.188268999999998
#
# number of rings (size 3 to 8) (size 9 to 14) (size 15 to 20)
#    0.000    1.000    1.667    6.000    0.000    8.000 
#    0.000    0.833    0.000    0.000    0.000    0.000 
#    0.000    0.000    0.000    0.000    0.000    0.000 
#
# Total GULP energy -595551.016776 kJ/mol
# GULP energy per Si atom -12407.312850 kJ/mol
# Density = 1.914460 g / cm^3
# Si number density = 19.188269 Si / 1000 Ang^3
#
#
#
# Elastic Constant Matrix: (Units=GPa)
#
#
# Indices 1 2 3 4 5 6 
#
# 1 76.3303 11.3749 19.9696 0.0000 0.0000 0.0000
# 2 11.3749 85.4272 18.0700 0.0000 0.0000 0.0000
# 3 19.9696 18.0700 72.9720 0.0000 0.0000 0.0000
# 4 0.0000 0.0000 0.0000 19.3422 0.0000 0.0000
# 5 0.0000 0.0000 0.0000 0.0000 43.0085 0.0000
# 6 0.0000 0.0000 0.0000 0.0000 0.0000 37.4693
#
#
#
# Elastic Compliance Matrix: (Units=1/GPa)
#
#
# Indices 1 2 3 4 5 6 
#
# 1 0.014214 -0.001129 -0.003610 0.000000 0.000000 0.000000
# 2 -0.001129 0.012443 -0.002772 0.000000 0.000000 0.000000
# 3 -0.003610 -0.002772 0.015378 0.000000 0.000000 0.000000
# 4 0.000000 0.000000 0.000000 0.051701 0.000000 0.000000
# 5 0.000000 0.000000 0.000000 0.000000 0.023251 0.000000
# 6 0.000000 0.000000 0.000000 0.000000 0.000000 0.026689
#
#
# Mechanical properties :
#
#
# Convention : Reuss Voigt Hill
#
# Bulk Modulus (GPa) = 37.02064 37.06206 37.04135
# Shear Modulus (GPa) = 29.81487 32.31831 31.06659
#
# Velocity S-wave (km/s) = 3.94611 4.10844 4.02810
# Velocity P-wave (km/s) = 6.33227 6.47013 6.40157
#
# Compressibility (1/GPa) = 0.02701196
#
# Stress axis : x y z
#
# Youngs Moduli (GPa) = 70.35467 80.36910 65.02660
#
# Poissons Ratio (x) = 0.09073 0.23476
# Poissons Ratio (y) = 0.07943 0.18027
# Poissons Ratio (z) = 0.25399 0.22280
#
# Static dielectric constant tensor:
#      x y z
#    x 3.491940 0.000000 0.000000 
#    y 0.000000 3.622560 0.000000 
#    z 0.000000 0.000000 3.552840 
# 
# 
# High freq. dielectric constant tensor:
#      x y z
#    x 1.750200 0.000000 0.000000 
#    y 0.000000 1.766110 0.000000 
#    z 0.000000 0.000000 1.746970 
# 
# From -- ./inp_files/42445.got.cif
#   From: 2010.03.12/outbox.cif.g09.slc.cpg/sg72_22_cif.got.tgz:42445.got - 2010.04.16 14:54:00.
