data_PCOD8294793
_publ_section_title
;
Structure prediction by ZEFSAII (Michael W. Deem and Ramdas Pophale) SiO2 
 PCOD8294793
Probable space group: I B A M
;
_chemical_formula_sum "Si O2"
_cell_formula_units_Z 80
_cell_length_a 14.319077
_cell_length_b 19.785094
_cell_length_c 14.247777
_cell_angle_alpha 90.000000
_cell_angle_beta 90.000000
_cell_angle_gamma 90.000000
_cell_volume 4036.456268
_symmetry_space_group_name_H-M "I B A M"
_symmetry_group_IT_number 72
_symmetry_cell_setting 'orthorhombic'
loop_
_space_group_symop_operation_xyz
x,y,z
-x,-y,z
x,-y,1/2-z
-x,y,1/2-z
-x,-y,-z
x,y,-z
-x,y,1/2+z
x,-y,1/2+z
1/2+x,1/2+y,1/2+z
1/2-x,1/2-y,1/2+z
1/2+x,1/2-y,-z
1/2-x,1/2+y,-z
1/2-x,1/2-y,1/2-z
1/2+x,1/2+y,1/2-z
1/2-x,1/2+y,z
1/2+x,1/2-y,z
loop_
_atom_site_type_symbol
_atom_site_label
_atom_site_fract_x
_atom_site_fract_y
_atom_site_fract_z
Si Si1 0.885647 0.249198 0.167923
Si Si2 0.682011 0.931867 0.305153
Si Si3 0.706906 0.672196 0.680078
Si Si4 0.932390 0.155612 0.000000
Si Si5 0.224640 0.047945 0.500000
Si Si6 0.000000 0.637067 0.750000
Si Si7 0.631536 0.596140 0.500000
O O1 0.780417 0.272343 0.140928
O O2 0.879685 0.210460 0.268847
O O3 0.933457 0.202105 0.091469
O O4 0.948736 0.316053 0.173786
O O5 0.746688 0.874348 0.259994
O O6 0.708448 0.948190 0.411184
O O7 0.573923 0.909906 0.303875
O O8 0.698291 0.000000 0.250000
O O9 0.672108 0.629567 0.593018
O O10 0.839617 0.112825 0.000000
O O11 0.020350 0.105214 0.000000
O O12 0.159117 0.982022 0.500000
#
# Coordination Sequence:
#
# PCOD8294793 Si02
#       7
#    16  16  16   8   8   8   8
#     4  10  21  40  62  95 128 160 212 262 326 384
#     4  11  22  44  68  91 131 169 214 262 320 385
#     4  10  21  40  66  89 127 175 205 264 326 383
#     4  12  24  40  63  94 131 163 220 268 315 380
#     4  12  25  43  65  96 124 176 215 262 321 385
#     4  10  23  40  66  98 125 164 214 264 322 380
#     4  12  24  39  63  91 127 166 222 259 317 379
#
# _framework density 19.819364
#
# number of rings (size 3 to 8) (size 9 to 14) (size 15 to 20)
#    0.000    1.200    4.000    2.400    0.000    0.800 
#    3.600    3.000    0.000    0.000    0.000    0.000 
#    0.000    0.000    0.000    0.000    0.000    0.000 
#
# Total GULP energy -496088.950979 kJ/mol
# GULP energy per Si atom -12402.223774 kJ/mol
# Density = 1.977425 g / cm^3
# Si number density = 19.819364 Si / 1000 Ang^3
#
#
#
# Elastic Constant Matrix: (Units=GPa)
#
#
# Indices 1 2 3 4 5 6 
#
# 1 87.4761 25.2386 48.3736 0.0000 0.0000 0.0000
# 2 25.2386 88.0431 35.2450 -0.0002 -0.0001 0.0000
# 3 48.3736 35.2450 123.8112 -0.0004 -0.0001 0.0000
# 4 0.0000 -0.0002 -0.0004 34.2719 -0.0001 0.0000
# 5 0.0000 -0.0001 -0.0001 -0.0001 21.7577 0.0000
# 6 0.0000 0.0000 0.0000 0.0000 0.0000 36.7982
#
#
#
# Elastic Compliance Matrix: (Units=1/GPa)
#
#
# Indices 1 2 3 4 5 6 
#
# 1 0.014950 -0.002198 -0.005215 0.000000 0.000000 0.000000
# 2 -0.002198 0.013142 -0.002882 0.000000 0.000000 0.000000
# 3 -0.005215 -0.002882 0.010935 0.000000 0.000000 0.000000
# 4 0.000000 0.000000 0.000000 0.029178 0.000000 0.000000
# 5 0.000000 0.000000 0.000000 0.000000 0.045961 0.000000
# 6 0.000000 0.000000 0.000000 0.000000 0.000000 0.027175
#
#
# Mechanical properties :
#
#
# Convention : Reuss Voigt Hill
#
# Bulk Modulus (GPa) = 54.24239 57.44941 55.84590
# Shear Modulus (GPa) = 29.74819 31.26378 30.50599
#
# Velocity S-wave (km/s) = 3.87843 3.97600 3.92752
# Velocity P-wave (km/s) = 6.89087 7.08008 6.98612
#
# Compressibility (1/GPa) = 0.01843577
#
# Stress axis : x y z
#
# Youngs Moduli (GPa) = 66.89044 76.09218 91.44959
#
# Poissons Ratio (x) = 0.16723 0.47694
# Poissons Ratio (y) = 0.14701 0.26359
# Poissons Ratio (z) = 0.34886 0.21933
#
# Static dielectric constant tensor:
#      x y z
#    x 3.674570 0.000000 0.000000 
#    y 0.000000 3.805310 0.000000 
#    z 0.000000 0.000000 3.411370 
# 
# 
# High freq. dielectric constant tensor:
#      x y z
#    x 1.778140 0.000000 0.000000 
#    y 0.000000 1.790210 0.000000 
#    z 0.000000 0.000000 1.766630 
# 
# From -- ./inp_files/12828.got.cif
#   From: 2010.03.12/outbox.cif.g09.slc.cpg/sg72_7_cif.got.tgz:12828.got - 2010.04.16 14:54:00.
