data_PCOD8294585
_publ_section_title
;
Structure prediction by ZEFSAII (Michael W. Deem and Ramdas Pophale) SiO2 
 PCOD8294585
Probable space group: I B A M
;
_chemical_formula_sum "Si O2"
_cell_formula_units_Z 96
_cell_length_a 9.600309
_cell_length_b 22.119690
_cell_length_c 24.259900
_cell_angle_alpha 90.000000
_cell_angle_beta 90.000000
_cell_angle_gamma 90.000000
_cell_volume 5151.731903
_symmetry_space_group_name_H-M "I B A M"
_symmetry_group_IT_number 72
_symmetry_cell_setting 'orthorhombic'
loop_
_space_group_symop_operation_xyz
x,y,z
-x,-y,z
x,-y,1/2-z
-x,y,1/2-z
-x,-y,-z
x,y,-z
-x,y,1/2+z
x,-y,1/2+z
1/2+x,1/2+y,1/2+z
1/2-x,1/2-y,1/2+z
1/2+x,1/2-y,-z
1/2-x,1/2+y,-z
1/2-x,1/2-y,1/2-z
1/2+x,1/2+y,1/2-z
1/2-x,1/2+y,z
1/2+x,1/2-y,z
loop_
_atom_site_type_symbol
_atom_site_label
_atom_site_fract_x
_atom_site_fract_y
_atom_site_fract_z
Si Si1 0.947350 0.682341 0.935975
Si Si2 0.822385 0.831591 0.299594
Si Si3 0.380004 0.637290 0.179250
Si Si4 0.591241 0.087039 0.153039
Si Si5 0.724907 0.767018 0.884700
Si Si6 0.316970 0.031912 0.190890
O O1 0.083376 0.717114 0.915431
O O2 0.931408 0.617579 0.906251
O O3 0.812982 0.723506 0.924330
O O4 0.959665 0.668409 0.000000
O O5 0.844590 0.824915 0.234473
O O6 0.683024 0.869798 0.308463
O O7 0.810116 0.765731 0.326916
O O8 0.953480 0.866296 0.327753
O O9 0.311393 0.672112 0.127852
O O10 0.325922 0.568285 0.182387
O O11 0.444068 0.078960 0.184328
O O12 0.666798 0.021750 0.145635
O O13 0.321992 0.000000 0.250000
#
# Coordination Sequence:
#
# PCOD8294585 Si02
#       6
#    16  16  16  16  16  16
#     4  11  23  40  64  84 110 153 201 250 298 343
#     4  10  22  35  54  89 122 157 187 228 288 356
#     4  11  21  36  56  86 122 157 193 227 286 360
#     4  10  21  37  57  84 117 149 195 242 286 336
#     4  11  21  40  58  87 120 147 192 245 299 348
#     4  11  21  36  59  87 118 156 191 231 291 347
#
# _framework density 18.634511
#
# number of rings (size 3 to 8) (size 9 to 14) (size 15 to 20)
#    0.000    1.333    5.000    2.000    0.000    0.667 
#    0.000    1.667    0.000    0.000    0.000    2.333 
#    0.000    0.000    0.000    0.000    0.000    0.000 
#
# Total GULP energy -595233.786537 kJ/mol
# GULP energy per Si atom -12400.703886 kJ/mol
# Density = 1.859210 g / cm^3
# Si number density = 18.634511 Si / 1000 Ang^3
#
#
#
# Elastic Constant Matrix: (Units=GPa)
#
#
# Indices 1 2 3 4 5 6 
#
# 1 82.6519 41.8573 15.3617 0.0000 0.0000 0.0000
# 2 41.8573 100.6522 43.9983 0.0000 0.0000 0.0000
# 3 15.3617 43.9983 64.4507 0.0000 0.0000 0.0000
# 4 0.0000 0.0000 0.0000 18.4985 0.0000 0.0000
# 5 0.0000 0.0000 0.0000 0.0000 17.2732 0.0000
# 6 0.0000 0.0000 0.0000 0.0000 0.0000 25.6552
#
#
#
# Elastic Compliance Matrix: (Units=1/GPa)
#
#
# Indices 1 2 3 4 5 6 
#
# 1 0.015372 -0.006829 0.000998 0.000000 0.000000 0.000000
# 2 -0.006829 0.017195 -0.010111 0.000000 0.000000 0.000000
# 3 0.000998 -0.010111 0.022180 0.000000 0.000000 0.000000
# 4 0.000000 0.000000 0.000000 0.054059 0.000000 0.000000
# 5 0.000000 0.000000 0.000000 0.000000 0.057893 0.000000
# 6 0.000000 0.000000 0.000000 0.000000 0.000000 0.038979
#
#
# Mechanical properties :
#
#
# Convention : Reuss Voigt Hill
#
# Bulk Modulus (GPa) = 43.73759 50.02103 46.87931
# Shear Modulus (GPa) = 20.39314 22.05454 21.22384
#
# Velocity S-wave (km/s) = 3.31172 3.44398 3.37850
# Velocity P-wave (km/s) = 6.17621 6.53576 6.35853
#
# Compressibility (1/GPa) = 0.02286363
#
# Stress axis : x y z
#
# Youngs Moduli (GPa) = 65.05454 58.15756 45.08557
#
# Poissons Ratio (x) = 0.39714 -0.04499
# Poissons Ratio (y) = 0.44424 0.45584
# Poissons Ratio (z) = -0.06492 0.58801
#
# Static dielectric constant tensor:
#      x y z
#    x 3.603840 0.000000 0.000000 
#    y 0.000000 3.545660 0.000000 
#    z 0.000000 0.000000 3.183620 
# 
# 
# High freq. dielectric constant tensor:
#      x y z
#    x 1.739120 0.000000 0.000000 
#    y 0.000000 1.724820 0.000000 
#    z 0.000000 0.000000 1.686110 
# 
# From -- ./inp_files/42426.got.cif
#   From: 2010.03.12/outbox.cif.g09.slc.cpg/sg72_22_cif.got.tgz:42426.got - 2010.04.16 14:54:00.
