data_PCOD8294455
_publ_section_title
;
Structure prediction by ZEFSAII (Michael W. Deem and Ramdas Pophale) SiO2 
 PCOD8294455
Probable space group: I B A M
;
_chemical_formula_sum "Si O2"
_cell_formula_units_Z 96
_cell_length_a 25.188937
_cell_length_b 25.110453
_cell_length_c 9.794367
_cell_angle_alpha 90.000000
_cell_angle_beta 90.000000
_cell_angle_gamma 90.000000
_cell_volume 6194.992159
_symmetry_space_group_name_H-M "I B A M"
_symmetry_group_IT_number 72
_symmetry_cell_setting 'orthorhombic'
loop_
_space_group_symop_operation_xyz
x,y,z
-x,-y,z
x,-y,1/2-z
-x,y,1/2-z
-x,-y,-z
x,y,-z
-x,y,1/2+z
x,-y,1/2+z
1/2+x,1/2+y,1/2+z
1/2-x,1/2-y,1/2+z
1/2+x,1/2-y,-z
1/2-x,1/2+y,-z
1/2-x,1/2-y,1/2-z
1/2+x,1/2+y,1/2-z
1/2-x,1/2+y,z
1/2+x,1/2-y,z
loop_
_atom_site_type_symbol
_atom_site_label
_atom_site_fract_x
_atom_site_fract_y
_atom_site_fract_z
Si Si1 0.701780 0.727541 0.340617
Si Si2 0.105368 0.422216 0.000000
Si Si3 0.403590 0.042186 0.000000
Si Si4 0.269573 0.078070 0.500000
Si Si5 0.061391 0.379405 0.272603
Si Si6 0.776436 0.457876 0.000000
Si Si7 0.244747 0.625697 0.784047
Si Si8 0.645782 0.800098 0.154400
O O1 0.703555 0.745677 0.500000
O O2 0.750000 0.750000 0.250000
O O3 0.706087 0.663473 0.330893
O O4 0.649793 0.751659 0.264851
O O5 0.078704 0.480654 0.000000
O O6 0.088126 0.388782 0.871230
O O7 0.167789 0.425867 0.000000
O O8 0.428752 0.069320 0.132978
O O9 0.340133 0.045550 0.000000
O O10 0.247526 0.110966 0.372881
O O11 0.251182 0.016672 0.500000
O O12 0.087797 0.326726 0.337765
O O13 0.000000 0.367908 0.250000
O O14 0.753909 0.429086 0.133554
O O15 0.188981 0.654632 0.812129
O O16 0.655175 0.778796 0.000000
#
# Coordination Sequence:
#
# PCOD8294455 Si02
#       8
#    16   8   8   8  16   8  16  16
#     4  10  21  31  51  71  90 116 147 191 241 280
#     4  11  23  34  50  66  85 121 165 209 237 293
#     4  11  21  38  48  62  89 123 163 201 253 281
#     4  11  22  27  50  72  90 124 159 190 232 284
#     4  12  23  35  50  66  89 120 154 205 258 291
#     4  11  18  35  48  64  94 128 155 192 240 274
#     4  11  18  33  48  67  93 116 150 194 231 275
#     4  11  21  36  49  66  90 117 153 201 243 290
#
# _framework density 15.496389000000001
#
# number of rings (size 3 to 8) (size 9 to 14) (size 15 to 20)
#    0.000    1.000    5.833    3.000    7.000    4.667 
#    0.000    0.000    0.000    0.000    0.000    0.000 
#    0.000    0.000    0.000    0.000    0.000    5.000 
#
# Total GULP energy -595092.250134 kJ/mol
# GULP energy per Si atom -12397.755211 kJ/mol
# Density = 1.546112 g / cm^3
# Si number density = 15.496389 Si / 1000 Ang^3
#
#
#
# Elastic Constant Matrix: (Units=GPa)
#
#
# Indices 1 2 3 4 5 6 
#
# 1 30.2848 26.7145 12.2683 0.0000 0.0000 0.0000
# 2 26.7145 64.5207 32.1410 0.0000 0.0000 0.0000
# 3 12.2683 32.1410 140.1349 0.0000 0.0000 0.0000
# 4 0.0000 0.0000 0.0000 7.9645 0.0000 0.0000
# 5 0.0000 0.0000 0.0000 0.0000 20.7871 0.0000
# 6 0.0000 0.0000 0.0000 0.0000 0.0000 22.9993
#
#
#
# Elastic Compliance Matrix: (Units=1/GPa)
#
#
# Indices 1 2 3 4 5 6 
#
# 1 0.052042 -0.021765 0.000436 0.000000 0.000000 0.000000
# 2 -0.021765 0.026601 -0.004196 0.000000 0.000000 0.000000
# 3 0.000436 -0.004196 0.008060 0.000000 0.000000 0.000000
# 4 0.000000 0.000000 0.000000 0.125556 0.000000 0.000000
# 5 0.000000 0.000000 0.000000 0.000000 0.048107 0.000000
# 6 0.000000 0.000000 0.000000 0.000000 0.000000 0.043480
#
#
# Mechanical properties :
#
#
# Convention : Reuss Voigt Hill
#
# Bulk Modulus (GPa) = 28.04761 41.90975 34.97868
# Shear Modulus (GPa) = 13.63215 21.27131 17.45173
#
# Velocity S-wave (km/s) = 2.96919 3.70896 3.35950
# Velocity P-wave (km/s) = 5.46750 6.74132 6.13755
#
# Compressibility (1/GPa) = 0.03565366
#
# Stress axis : x y z
#
# Youngs Moduli (GPa) = 19.21507 37.59307 124.06765
#
# Poissons Ratio (x) = 0.81821 -0.05407
# Poissons Ratio (y) = 0.41822 0.52054
# Poissons Ratio (z) = -0.00837 0.15773
#
# Static dielectric constant tensor:
#      x y z
#    x 2.797760 0.000000 0.000000 
#    y 0.000000 3.301630 0.000000 
#    z 0.000000 0.000000 3.266690 
# 
# 
# High freq. dielectric constant tensor:
#      x y z
#    x 1.533370 0.000000 0.000000 
#    y 0.000000 1.585200 0.000000 
#    z 0.000000 0.000000 1.623920 
# 
# From -- ./inp_files/7161.got.cif
#   From: 2010.03.12/outbox.cif.g09.slc.cpg/sg72_4_cif.got.tgz:7161.got - 2010.04.16 14:54:00.
