data_PCOD8294637
_publ_section_title
;
Structure prediction by ZEFSAII (Michael W. Deem and Ramdas Pophale) SiO2 
 PCOD8294637
Probable space group: I B A M
;
_chemical_formula_sum "Si O2"
_cell_formula_units_Z 88
_cell_length_a 14.345770
_cell_length_b 20.031575
_cell_length_c 14.980372
_cell_angle_alpha 90.000000
_cell_angle_beta 90.000000
_cell_angle_gamma 90.000000
_cell_volume 4304.885049
_symmetry_space_group_name_H-M "I B A M"
_symmetry_group_IT_number 72
_symmetry_cell_setting 'orthorhombic'
loop_
_space_group_symop_operation_xyz
x,y,z
-x,-y,z
x,-y,1/2-z
-x,y,1/2-z
-x,-y,-z
x,y,-z
-x,y,1/2+z
x,-y,1/2+z
1/2+x,1/2+y,1/2+z
1/2-x,1/2-y,1/2+z
1/2+x,1/2-y,-z
1/2-x,1/2+y,-z
1/2-x,1/2-y,1/2-z
1/2+x,1/2+y,1/2-z
1/2-x,1/2+y,z
1/2+x,1/2-y,z
loop_
_atom_site_type_symbol
_atom_site_label
_atom_site_fract_x
_atom_site_fract_y
_atom_site_fract_z
Si Si1 0.089018 0.034698 0.599059
Si Si2 0.566035 0.661556 0.000000
Si Si3 0.614878 0.874483 0.850186
Si Si4 0.099852 0.630894 0.354548
Si Si5 0.388057 0.757428 0.000000
Si Si6 0.813882 0.282291 0.000000
Si Si7 0.208328 0.493966 0.849792
O O1 0.102673 0.002653 0.500000
O O2 0.069598 0.114353 0.588693
O O3 0.180954 0.016745 0.653804
O O4 0.000000 0.000000 0.646586
O O5 0.476305 0.708794 0.000000
O O6 0.660357 0.704230 0.000000
O O7 0.506661 0.892434 0.859991
O O8 0.635046 0.855581 0.746786
O O9 0.676125 0.935623 0.891661
O O10 0.640974 0.811725 0.910503
O O11 0.113597 0.697778 0.411180
O O12 0.160255 0.569980 0.396708
O O13 0.297450 0.710289 0.000000
O O14 0.168497 0.500000 0.750000
#
# Coordination Sequence:
#
# PCOD8294637 Si02
#       7
#    16   8  16  16   8   8  16
#     4   9  21  38  63  82 118 155 204 252 302 350
#     4  10  21  41  56  90 116 163 205 247 301 366
#     4  10  22  38  63  90 128 152 206 251 317 365
#     4  10  21  42  60  91 123 162 197 262 304 373
#     4  12  24  38  65  83 127 168 213 244 310 362
#     4  12  24  37  63  89 123 165 202 252 300 380
#     4  10  21  37  62  91 119 156 199 258 314 359
#
# _framework density 20.441893
#
# number of rings (size 3 to 8) (size 9 to 14) (size 15 to 20)
#    0.545    1.273    1.818    1.636    5.091    3.273 
#    0.000    1.818    4.000    0.000    0.000    0.000 
#    0.000    0.000    0.000    0.000    0.000    0.000 
#
# Total GULP energy -545406.432479 kJ/mol
# GULP energy per Si atom -12395.600738 kJ/mol
# Density = 2.039537 g / cm^3
# Si number density = 20.441893 Si / 1000 Ang^3
#
#
#
# Elastic Constant Matrix: (Units=GPa)
#
#
# Indices 1 2 3 4 5 6 
#
# 1 128.5108 49.0515 21.4746 0.0001 -0.0001 0.0000
# 2 49.0515 119.3207 35.4534 -0.0002 0.0003 -0.0001
# 3 21.4746 35.4534 74.1015 -0.0003 0.0006 -0.0003
# 4 0.0001 -0.0002 -0.0003 12.0149 0.0002 -0.0001
# 5 -0.0001 0.0003 0.0006 0.0002 21.9560 0.0003
# 6 0.0000 -0.0001 -0.0003 -0.0001 0.0003 39.1185
#
#
#
# Elastic Compliance Matrix: (Units=1/GPa)
#
#
# Indices 1 2 3 4 5 6 
#
# 1 0.009294 -0.003521 -0.001009 0.000000 0.000000 0.000000
# 2 -0.003521 0.011103 -0.004292 0.000000 0.000000 0.000000
# 3 -0.001009 -0.004292 0.015841 0.000000 0.000000 0.000000
# 4 0.000000 0.000000 0.000000 0.083230 -0.000001 0.000000
# 5 0.000000 0.000000 0.000000 -0.000001 0.045546 0.000000
# 6 0.000000 0.000000 0.000000 0.000000 0.000000 0.025563
#
#
# Mechanical properties :
#
#
# Convention : Reuss Voigt Hill
#
# Bulk Modulus (GPa) = 53.77862 59.32132 56.54997
# Shear Modulus (GPa) = 23.31884 29.01478 26.16681
#
# Velocity S-wave (km/s) = 3.38114 3.77155 3.58167
# Velocity P-wave (km/s) = 6.45043 6.93171 6.69539
#
# Compressibility (1/GPa) = 0.01859475
#
# Stress axis : x y z
#
# Youngs Moduli (GPa) = 107.59725 90.06218 63.12789
#
# Poissons Ratio (x) = 0.31710 0.06369
# Poissons Ratio (y) = 0.37884 0.27095
# Poissons Ratio (z) = 0.10855 0.38655
#
# Static dielectric constant tensor:
#      x y z
#    x 3.666410 0.000000 0.000000 
#    y 0.000000 3.685680 0.000000 
#    z 0.000000 0.000000 3.508950 
# 
# 
# High freq. dielectric constant tensor:
#      x y z
#    x 1.808480 0.000000 0.000000 
#    y 0.000000 1.796300 0.000000 
#    z 0.000000 0.000000 1.779600 
# 
# From -- ./inp_files/21737.got.cif
#   From: 2010.03.12/outbox.cif.g09.slc.cpg/sg72_11_cif.got.tgz:21737.got - 2010.04.16 14:54:00.
