data_PCOD8294358
_publ_section_title
;
Structure prediction by ZEFSAII (Michael W. Deem and Ramdas Pophale) SiO2 
 PCOD8294358
Probable space group: I B A M
;
_chemical_formula_sum "Si O2"
_cell_formula_units_Z 96
_cell_length_a 19.155752
_cell_length_b 12.846379
_cell_length_c 20.445655
_cell_angle_alpha 90.000000
_cell_angle_beta 90.000000
_cell_angle_gamma 90.000000
_cell_volume 5031.308701
_symmetry_space_group_name_H-M "I B A M"
_symmetry_group_IT_number 72
_symmetry_cell_setting 'orthorhombic'
loop_
_space_group_symop_operation_xyz
x,y,z
-x,-y,z
x,-y,1/2-z
-x,y,1/2-z
-x,-y,-z
x,y,-z
-x,y,1/2+z
x,-y,1/2+z
1/2+x,1/2+y,1/2+z
1/2-x,1/2-y,1/2+z
1/2+x,1/2-y,-z
1/2-x,1/2+y,-z
1/2-x,1/2-y,1/2-z
1/2+x,1/2+y,1/2-z
1/2-x,1/2+y,z
1/2+x,1/2-y,z
loop_
_atom_site_type_symbol
_atom_site_label
_atom_site_fract_x
_atom_site_fract_y
_atom_site_fract_z
Si Si1 0.468729 0.887669 0.683050
Si Si2 0.121706 0.879050 0.424236
Si Si3 0.313413 0.111348 0.226757
Si Si4 0.478427 0.719190 0.575381
Si Si5 0.664790 0.396040 0.423097
Si Si6 0.779227 0.737271 0.150336
O O1 0.500000 0.839360 0.750000
O O2 0.386470 0.901433 0.690539
O O3 0.489297 0.817730 0.621654
O O4 0.500000 0.000000 0.668821
O O5 0.136954 0.884432 0.500000
O O6 0.161940 0.777974 0.398393
O O7 0.039145 0.865332 0.410387
O O8 0.150117 0.988052 0.395000
O O9 0.262061 0.161078 0.173928
O O10 0.319853 0.185533 0.289518
O O11 0.284103 0.000000 0.250000
O O12 0.482023 0.756465 0.500000
O O13 0.404394 0.669185 0.591987
O O14 0.682216 0.395513 0.500000
O O15 0.729322 0.346528 0.384405
#
# Coordination Sequence:
#
# PCOD8294358 Si02
#       6
#    16  16  16  16  16  16
#     4  11  21  37  62  85 117 158 199 243 296 357
#     4  10  21  37  59  87 115 154 195 239 296 352
#     4  11  22  38  57  86 113 157 196 235 297 350
#     4  10  21  39  62  87 118 154 202 250 297 350
#     4  10  20  38  62  87 118 155 194 243 299 355
#     4  11  22  37  61  84 122 150 195 245 290 361
#
# _framework density 19.080522999999999
#
# number of rings (size 3 to 8) (size 9 to 14) (size 15 to 20)
#    0.000    1.500    3.333    3.000    0.000    2.333 
#    0.000    0.000    0.000    1.000    0.000    0.000 
#    0.000    0.000    0.000    0.000    0.000    0.000 
#
# Total GULP energy -595250.724021 kJ/mol
# GULP energy per Si atom -12401.056750 kJ/mol
# Density = 1.903709 g / cm^3
# Si number density = 19.080523 Si / 1000 Ang^3
#
#
#
# Elastic Constant Matrix: (Units=GPa)
#
#
# Indices 1 2 3 4 5 6 
#
# 1 66.5562 21.9614 25.9982 0.0000 0.0000 0.0000
# 2 21.9614 79.8196 37.2695 0.0000 0.0000 0.0000
# 3 25.9982 37.2695 62.3067 0.0000 0.0000 0.0000
# 4 0.0000 0.0000 0.0000 30.7768 0.0000 0.0000
# 5 0.0000 0.0000 0.0000 0.0000 12.2691 0.0000
# 6 0.0000 0.0000 0.0000 0.0000 0.0000 23.7575
#
#
#
# Elastic Compliance Matrix: (Units=1/GPa)
#
#
# Indices 1 2 3 4 5 6 
#
# 1 0.018184 -0.002026 -0.006375 0.000000 0.000000 0.000000
# 2 -0.002026 0.017609 -0.009688 0.000000 0.000000 0.000000
# 3 -0.006375 -0.009688 0.024505 0.000000 0.000000 0.000000
# 4 0.000000 0.000000 0.000000 0.032492 0.000000 0.000000
# 5 0.000000 0.000000 0.000000 0.000000 0.081506 0.000000
# 6 0.000000 0.000000 0.000000 0.000000 0.000000 0.042092
#
#
# Mechanical properties :
#
#
# Convention : Reuss Voigt Hill
#
# Bulk Modulus (GPa) = 41.46104 42.12675 41.79389
# Shear Modulus (GPa) = 19.18610 21.59092 20.38851
#
# Velocity S-wave (km/s) = 3.17445 3.36753 3.27242
# Velocity P-wave (km/s) = 5.93405 6.10300 6.01912
#
# Compressibility (1/GPa) = 0.02411903
#
# Stress axis : x y z
#
# Youngs Moduli (GPa) = 54.99387 56.78877 40.80859
#
# Poissons Ratio (x) = 0.11507 0.26017
# Poissons Ratio (y) = 0.11143 0.39534
# Poissons Ratio (z) = 0.35061 0.55015
#
# Static dielectric constant tensor:
#      x y z
#    x 3.510530 0.000000 0.000000 
#    y 0.000000 3.654960 0.000000 
#    z 0.000000 0.000000 3.445700 
# 
# 
# High freq. dielectric constant tensor:
#      x y z
#    x 1.750860 0.000000 0.000000 
#    y 0.000000 1.746210 0.000000 
#    z 0.000000 0.000000 1.737830 
# 
# From -- ./inp_files/37118.got.cif
#   From: 2010.03.12/outbox.cif.g09.slc.cpg/sg72_19_cif.got.tgz:37118.got - 2010.04.16 14:54:00.
