data_PCOD8294947
_publ_section_title
;
Structure prediction by ZEFSAII (Michael W. Deem and Ramdas Pophale) SiO2 
 PCOD8294947
Probable space group: I B A M
;
_chemical_formula_sum "Si O2"
_cell_formula_units_Z 96
_cell_length_a 8.778630
_cell_length_b 24.562563
_cell_length_c 20.517225
_cell_angle_alpha 90.000000
_cell_angle_beta 90.000000
_cell_angle_gamma 90.000000
_cell_volume 4424.040027
_symmetry_space_group_name_H-M "I B A M"
_symmetry_group_IT_number 72
_symmetry_cell_setting 'orthorhombic'
loop_
_space_group_symop_operation_xyz
x,y,z
-x,-y,z
x,-y,1/2-z
-x,y,1/2-z
-x,-y,-z
x,y,-z
-x,y,1/2+z
x,-y,1/2+z
1/2+x,1/2+y,1/2+z
1/2-x,1/2-y,1/2+z
1/2+x,1/2-y,-z
1/2-x,1/2+y,-z
1/2-x,1/2-y,1/2-z
1/2+x,1/2+y,1/2-z
1/2-x,1/2+y,z
1/2+x,1/2-y,z
loop_
_atom_site_type_symbol
_atom_site_label
_atom_site_fract_x
_atom_site_fract_y
_atom_site_fract_z
Si Si1 0.120892 0.399897 0.806842
Si Si2 0.280517 0.710699 0.307782
Si Si3 0.417137 0.371502 0.571110
Si Si4 0.968387 0.243934 0.608229
Si Si5 0.427913 0.858947 0.426133
Si Si6 0.932581 0.942080 0.680365
O O1 0.225196 0.348674 0.785568
O O2 0.247319 0.447501 0.815315
O O3 0.000000 0.413835 0.750000
O O4 0.038269 0.389208 0.875380
O O5 0.250000 0.750000 0.250000
O O6 0.192170 0.729729 0.372696
O O7 0.457249 0.716962 0.326448
O O8 0.448138 0.398279 0.500000
O O9 0.449787 0.307091 0.560399
O O10 0.241444 0.379209 0.591417
O O11 0.525570 0.398091 0.625159
O O12 0.067388 0.293219 0.578378
O O13 0.472872 0.875971 0.500000
O O14 0.000000 0.923876 0.750000
O O15 0.000000 0.000000 0.659016
#
# Coordination Sequence:
#
# PCOD8294947 Si02
#       6
#    16  16  16  16  16  16
#     4  11  23  41  66  96 132 167 212 270 328 389
#     4  11  21  32  54  93 132 176 213 256 321 379
#     4  11  23  41  65  92 129 176 218 271 328 384
#     4  11  20  35  54  89 133 176 214 265 309 388
#     4  10  22  40  60  93 136 178 218 257 317 392
#     4  11  26  47  70  96 123 163 218 280 341 393
#
# _framework density 21.699622999999999
#
# number of rings (size 3 to 8) (size 9 to 14) (size 15 to 20)
#    0.000    1.167    3.333    4.000    2.333    1.000 
#    0.000    5.833    0.000    2.000    0.000    0.000 
#    0.000    0.000    0.000    0.000    0.000    0.000 
#
# Total GULP energy -594963.516775 kJ/mol
# GULP energy per Si atom -12395.073266 kJ/mol
# Density = 2.165023 g / cm^3
# Si number density = 21.699623 Si / 1000 Ang^3
#
#
#
# Elastic Constant Matrix: (Units=GPa)
#
#
# Indices 1 2 3 4 5 6 
#
# 1 113.8567 30.6968 38.8614 0.0000 0.0000 0.0000
# 2 30.6968 69.4211 21.9901 0.0000 0.0000 0.0000
# 3 38.8614 21.9901 107.1465 -0.0001 0.0000 0.0000
# 4 0.0000 0.0000 -0.0001 13.9150 0.0000 0.0000
# 5 0.0000 0.0000 0.0000 0.0000 33.0668 0.0000
# 6 0.0000 0.0000 0.0000 0.0000 0.0000 31.2038
#
#
#
# Elastic Compliance Matrix: (Units=1/GPa)
#
#
# Indices 1 2 3 4 5 6 
#
# 1 0.010892 -0.003813 -0.003168 0.000000 0.000000 0.000000
# 2 -0.003813 0.016741 -0.002053 0.000000 0.000000 0.000000
# 3 -0.003168 -0.002053 0.010903 0.000000 0.000000 0.000000
# 4 0.000000 0.000000 0.000000 0.071865 0.000000 0.000000
# 5 0.000000 0.000000 0.000000 0.000000 0.030242 0.000000
# 6 0.000000 0.000000 0.000000 0.000000 0.000000 0.032047
#
#
# Mechanical properties :
#
#
# Convention : Reuss Voigt Hill
#
# Bulk Modulus (GPa) = 48.85415 52.61345 50.73380
# Shear Modulus (GPa) = 25.30602 28.89552 27.10077
#
# Velocity S-wave (km/s) = 3.41867 3.65309 3.53782
# Velocity P-wave (km/s) = 6.17622 6.48786 6.33396
#
# Compressibility (1/GPa) = 0.02046909
#
# Stress axis : x y z
#
# Youngs Moduli (GPa) = 91.80830 59.73315 91.71471
#
# Poissons Ratio (x) = 0.22775 0.29056
# Poissons Ratio (y) = 0.35005 0.18829
# Poissons Ratio (z) = 0.29085 0.12263
#
# Static dielectric constant tensor:
#      x y z
#    x 4.533240 0.000000 0.000000 
#    y 0.000000 3.569310 0.000000 
#    z 0.000000 0.000000 3.484100 
# 
# 
# High freq. dielectric constant tensor:
#      x y z
#    x 1.865970 0.000000 0.000000 
#    y 0.000000 1.819780 0.000000 
#    z 0.000000 0.000000 1.852860 
# 
# From -- ./inp_files/36042.got.cif
#   From: 2010.03.12/outbox.cif.g09.slc.cpg/sg72_19_cif.got.tgz:36042.got - 2010.04.16 14:54:00.
