data_PCOD8294782
_publ_section_title
;
Structure prediction by ZEFSAII (Michael W. Deem and Ramdas Pophale) SiO2 
 PCOD8294782
Probable space group: I B A M
;
_chemical_formula_sum "Si O2"
_cell_formula_units_Z 72
_cell_length_a 9.175715
_cell_length_b 26.757298
_cell_length_c 14.328533
_cell_angle_alpha 90.000000
_cell_angle_beta 90.000000
_cell_angle_gamma 90.000000
_cell_volume 3517.903317
_symmetry_space_group_name_H-M "I B A M"
_symmetry_group_IT_number 72
_symmetry_cell_setting 'orthorhombic'
loop_
_space_group_symop_operation_xyz
x,y,z
-x,-y,z
x,-y,1/2-z
-x,y,1/2-z
-x,-y,-z
x,y,-z
-x,y,1/2+z
x,-y,1/2+z
1/2+x,1/2+y,1/2+z
1/2-x,1/2-y,1/2+z
1/2+x,1/2-y,-z
1/2-x,1/2+y,-z
1/2-x,1/2-y,1/2-z
1/2+x,1/2+y,1/2-z
1/2-x,1/2+y,z
1/2+x,1/2-y,z
loop_
_atom_site_type_symbol
_atom_site_label
_atom_site_fract_x
_atom_site_fract_y
_atom_site_fract_z
Si Si1 0.915367 0.297109 0.153534
Si Si2 0.032892 0.123078 0.000000
Si Si3 0.779555 0.456153 0.000000
Si Si4 0.770483 0.428650 0.500000
Si Si5 0.486961 0.906290 0.361085
Si Si6 0.577152 0.295756 0.848224
O O1 0.932598 0.351161 0.105885
O O2 0.746804 0.283025 0.166447
O O3 0.000000 0.300938 0.250000
O O4 0.996522 0.251260 0.100051
O O5 0.064354 0.154777 0.908301
O O6 0.868371 0.106023 0.000000
O O7 0.132372 0.074653 0.000000
O O8 0.730649 0.513260 0.000000
O O9 0.873860 0.445360 0.906546
O O10 0.855854 0.415391 0.594586
O O11 0.500000 0.913739 0.250000
O O12 0.500000 0.306568 0.750000
#
# Coordination Sequence:
#
# PCOD8294782 Si02
#       6
#    16   8   8   8  16  16
#     4  10  21  39  67  94 129 163 204 252 310 369
#     4  12  27  40  64  93 126 171 212 250 315 377
#     4  11  23  48  60  94 126 159 213 270 313 359
#     4  11  27  40  68  89 126 164 210 270 314 365
#     4  10  22  42  70  95 123 162 208 256 315 377
#     4  11  24  41  64  94 133 166 205 253 307 373
#
# _framework density 20.466736000000001
#
# number of rings (size 3 to 8) (size 9 to 14) (size 15 to 20)
#    0.000    1.333    2.222    4.333    9.333    4.444 
#    0.000    0.000    0.000    4.000    0.000    0.000 
#    0.000    0.000    0.000    0.000    0.000    0.000 
#
# Total GULP energy -446279.542082 kJ/mol
# GULP energy per Si atom -12396.653947 kJ/mol
# Density = 2.042015 g / cm^3
# Si number density = 20.466736 Si / 1000 Ang^3
#
#
#
# Elastic Constant Matrix: (Units=GPa)
#
#
# Indices 1 2 3 4 5 6 
#
# 1 153.5008 46.4696 31.7433 0.0001 0.0000 0.0000
# 2 46.4696 109.8829 30.0855 0.0002 0.0000 0.0000
# 3 31.7433 30.0855 110.1178 0.0010 -0.0010 -0.0001
# 4 0.0001 0.0002 0.0010 27.6186 -0.0001 -0.0001
# 5 0.0000 0.0000 -0.0010 -0.0001 96.5493 -0.0001
# 6 0.0000 0.0000 -0.0001 -0.0001 -0.0001 37.7525
#
#
#
# Elastic Compliance Matrix: (Units=1/GPa)
#
#
# Indices 1 2 3 4 5 6 
#
# 1 0.007675 -0.002853 -0.001433 0.000000 0.000000 0.000000
# 2 -0.002853 0.010897 -0.002155 0.000000 0.000000 0.000000
# 3 -0.001433 -0.002155 0.010083 0.000000 0.000000 0.000000
# 4 0.000000 0.000000 0.000000 0.036207 0.000000 0.000000
# 5 0.000000 0.000000 0.000000 0.000000 0.010357 0.000000
# 6 0.000000 0.000000 0.000000 0.000000 0.000000 0.026488
#
#
# Mechanical properties :
#
#
# Convention : Reuss Voigt Hill
#
# Bulk Modulus (GPa) = 63.39906 65.56650 64.48278
# Shear Modulus (GPa) = 41.71969 50.06429 45.89199
#
# Velocity S-wave (km/s) = 4.51978 4.95120 4.74040
# Velocity P-wave (km/s) = 7.63425 8.04929 7.84451
#
# Compressibility (1/GPa) = 0.01577311
#
# Stress axis : x y z
#
# Youngs Moduli (GPa) = 130.29787 91.76636 99.17770
#
# Poissons Ratio (x) = 0.26184 0.14210
# Poissons Ratio (y) = 0.37179 0.21370
# Poissons Ratio (z) = 0.18669 0.19773
#
# Static dielectric constant tensor:
#      x y z
#    x 3.802490 0.000000 0.000000 
#    y 0.000000 4.329180 0.000000 
#    z 0.000000 0.000000 3.523320 
# 
# 
# High freq. dielectric constant tensor:
#      x y z
#    x 1.811150 0.000000 0.000000 
#    y 0.000000 1.815030 0.000000 
#    z 0.000000 0.000000 1.790910 
# 
# From -- ./inp_files/18931.got.cif
#   From: 2010.03.12/outbox.cif.g09.slc.cpg/sg72_10_cif.got.tgz:18931.got - 2010.04.16 14:54:00.
