data_PCOD8294254
_publ_section_title
;
Structure prediction by ZEFSAII (Michael W. Deem and Ramdas Pophale) SiO2 
 PCOD8294254
Probable space group: I B A M
;
_chemical_formula_sum "Si O2"
_cell_formula_units_Z 84
_cell_length_a 16.501035
_cell_length_b 25.780129
_cell_length_c 10.251153
_cell_angle_alpha 90.000000
_cell_angle_beta 90.000000
_cell_angle_gamma 90.000000
_cell_volume 4360.828297
_symmetry_space_group_name_H-M "I B A M"
_symmetry_group_IT_number 72
_symmetry_cell_setting 'orthorhombic'
loop_
_space_group_symop_operation_xyz
x,y,z
-x,-y,z
x,-y,1/2-z
-x,y,1/2-z
-x,-y,-z
x,y,-z
-x,y,1/2+z
x,-y,1/2+z
1/2+x,1/2+y,1/2+z
1/2-x,1/2-y,1/2+z
1/2+x,1/2-y,-z
1/2-x,1/2+y,-z
1/2-x,1/2-y,1/2-z
1/2+x,1/2+y,1/2-z
1/2-x,1/2+y,z
1/2+x,1/2-y,z
loop_
_atom_site_type_symbol
_atom_site_label
_atom_site_fract_x
_atom_site_fract_y
_atom_site_fract_z
Si Si1 0.866077 0.576492 0.650271
Si Si2 0.061737 0.120597 0.857361
Si Si3 0.000000 0.500000 0.750000
Si Si4 0.651400 0.722235 0.353128
Si Si5 0.803263 0.960749 0.852019
Si Si6 0.166775 0.690764 0.848255
O O1 0.847153 0.583303 0.500000
O O2 0.786103 0.549775 0.708535
O O3 0.872023 0.635880 0.702170
O O4 0.944381 0.539639 0.667962
O O5 0.079505 0.181073 0.837510
O O6 0.147205 0.092013 0.847940
O O7 0.000000 0.099412 0.750000
O O8 0.022624 0.110720 0.000000
O O9 0.651677 0.746027 0.500000
O O10 0.736415 0.692785 0.327735
O O11 0.629841 0.765765 0.246658
O O12 0.845154 0.000000 0.750000
O O13 0.800946 0.983494 0.000000
O O14 0.143971 0.701845 0.000000
#
# Coordination Sequence:
#
# PCOD8294254 Si02
#       6
#    16  16   4  16  16  16
#     4  10  20  37  58  81 112 149 190 232 285 340
#     4  10  21  37  58  81 115 152 189 234 285 339
#     4  12  22  36  60  86 114 148 198 240 288 344
#     4   9  17  33  56  83 110 144 188 232 279 335
#     4  10  20  38  60  82 110 150 188 230 283 338
#     4   9  17  33  58  82 110 147 186 230 281 338
#
# _framework density 19.262395999999999
#
# number of rings (size 3 to 8) (size 9 to 14) (size 15 to 20)
#    0.000    2.286    2.857    0.286    0.000    1.905 
#    1.714    4.762    0.000    0.000    0.000    0.000 
#    0.000    0.000    0.000    0.000    0.000    0.000 
#
# Total GULP energy -520418.543890 kJ/mol
# GULP energy per Si atom -12390.917712 kJ/mol
# Density = 1.921855 g / cm^3
# Si number density = 19.262396 Si / 1000 Ang^3
#
#
#
# Elastic Constant Matrix: (Units=GPa)
#
#
# Indices 1 2 3 4 5 6 
#
# 1 70.1244 28.0217 34.8218 0.0001 0.0000 0.0000
# 2 28.0217 120.2781 61.4808 0.0002 0.0000 0.0000
# 3 34.8218 61.4808 106.7353 0.0019 0.0005 0.0000
# 4 0.0001 0.0002 0.0019 27.8184 0.0001 0.0000
# 5 0.0000 0.0000 0.0005 0.0001 24.6322 0.0000
# 6 0.0000 0.0000 0.0000 0.0000 0.0000 26.8109
#
#
#
# Elastic Compliance Matrix: (Units=1/GPa)
#
#
# Indices 1 2 3 4 5 6 
#
# 1 0.017236 -0.001618 -0.004692 0.000000 0.000000 0.000000
# 2 -0.001618 0.011935 -0.006347 0.000000 0.000000 0.000000
# 3 -0.004692 -0.006347 0.014556 -0.000001 0.000000 0.000000
# 4 0.000000 0.000000 -0.000001 0.035947 0.000000 0.000000
# 5 0.000000 0.000000 0.000000 0.000000 0.040597 0.000000
# 6 0.000000 0.000000 0.000000 0.000000 0.000000 0.037298
#
#
# Mechanical properties :
#
#
# Convention : Reuss Voigt Hill
#
# Bulk Modulus (GPa) = 54.30408 60.64292 57.47350
# Shear Modulus (GPa) = 26.45206 27.37320 26.91263
#
# Velocity S-wave (km/s) = 3.70976 3.77380 3.74191
# Velocity P-wave (km/s) = 6.82662 7.10912 6.96930
#
# Compressibility (1/GPa) = 0.01841482
#
# Stress axis : x y z
#
# Youngs Moduli (GPa) = 58.01662 83.78504 68.70193
#
# Poissons Ratio (x) = 0.13552 0.32232
# Poissons Ratio (y) = 0.09384 0.43606
# Poissons Ratio (z) = 0.27219 0.53180
#
# Static dielectric constant tensor:
#      x y z
#    x 3.231340 0.000000 0.000000 
#    y 0.000000 3.549620 0.000000 
#    z 0.000000 0.000000 3.561760 
# 
# 
# High freq. dielectric constant tensor:
#      x y z
#    x 1.730350 0.000000 0.000000 
#    y 0.000000 1.750810 0.000000 
#    z 0.000000 0.000000 1.741370 
# 
# From -- ./inp_files/12854.got.cif
#   From: 2010.03.12/outbox.cif.g09.slc.cpg/sg72_7_cif.got.tgz:12854.got - 2010.04.16 14:54:00.
