data_PCOD8294970
_publ_section_title
;
Structure prediction by ZEFSAII (Michael W. Deem and Ramdas Pophale) SiO2 
 PCOD8294970
Probable space group: I B A M
;
_chemical_formula_sum "Si O2"
_cell_formula_units_Z 80
_cell_length_a 9.698759
_cell_length_b 17.203259
_cell_length_c 22.847025
_cell_angle_alpha 90.000000
_cell_angle_beta 90.000000
_cell_angle_gamma 90.000000
_cell_volume 3812.032131
_symmetry_space_group_name_H-M "I B A M"
_symmetry_group_IT_number 72
_symmetry_cell_setting 'orthorhombic'
loop_
_space_group_symop_operation_xyz
x,y,z
-x,-y,z
x,-y,1/2-z
-x,y,1/2-z
-x,-y,-z
x,y,-z
-x,y,1/2+z
x,-y,1/2+z
1/2+x,1/2+y,1/2+z
1/2-x,1/2-y,1/2+z
1/2+x,1/2-y,-z
1/2-x,1/2+y,-z
1/2-x,1/2-y,1/2-z
1/2+x,1/2+y,1/2-z
1/2-x,1/2+y,z
1/2+x,1/2-y,z
loop_
_atom_site_type_symbol
_atom_site_label
_atom_site_fract_x
_atom_site_fract_y
_atom_site_fract_z
Si Si1 0.677540 0.830612 0.500000
Si Si2 0.347671 0.173761 0.000000
Si Si3 0.717271 0.161190 0.625489
Si Si4 0.972499 0.585238 0.817716
Si Si5 0.229725 0.843178 0.123243
Si Si6 0.976068 0.091029 0.316895
O O1 0.513631 0.813975 0.500000
O O2 0.775283 0.756370 0.500000
O O3 0.721646 0.875699 0.440535
O O4 0.294925 0.130010 0.058379
O O5 0.566964 0.150795 0.653038
O O6 0.758507 0.251380 0.627735
O O7 0.821202 0.109270 0.663194
O O8 0.815420 0.610665 0.827743
O O9 0.000000 0.500000 0.845247
O O10 0.000000 0.582536 0.750000
O O11 0.071435 0.862083 0.137402
O O12 0.000000 0.118889 0.250000
O O13 0.000000 0.000000 0.322773
#
# Coordination Sequence:
#
# PCOD8294970 Si02
#       6
#     8   8  16  16  16  16
#     4  10  22  40  65  96 130 164 204 262 324 372
#     4  10  22  40  65  96 130 164 204 262 324 372
#     4  11  23  40  66  94 124 161 213 264 307 372
#     4  11  23  40  61  88 126 169 206 253 320 375
#     4  11  23  40  66  94 124 161 213 264 307 372
#     4  11  25  44  63  90 132 173 208 257 322 379
#
# _framework density 20.986183
#
# number of rings (size 3 to 8) (size 9 to 14) (size 15 to 20)
#    0.000    1.200    2.000    3.600    8.400    8.000 
#    0.000    6.000    0.000    0.000    0.000    0.000 
#    0.000    0.000    0.000    0.000    0.000    0.000 
#
# Total GULP energy -495978.844197 kJ/mol
# GULP energy per Si atom -12399.471105 kJ/mol
# Density = 2.093842 g / cm^3
# Si number density = 20.986183 Si / 1000 Ang^3
#
#
#
# Elastic Constant Matrix: (Units=GPa)
#
#
# Indices 1 2 3 4 5 6 
#
# 1 83.6854 9.3235 38.8398 0.0000 0.0000 0.0000
# 2 9.3235 68.4097 30.3685 0.0000 0.0000 0.0000
# 3 38.8398 30.3685 131.8958 0.0000 0.0000 0.0000
# 4 0.0000 0.0000 0.0000 12.0376 0.0000 0.0000
# 5 0.0000 0.0000 0.0000 0.0000 41.9380 0.0000
# 6 0.0000 0.0000 0.0000 0.0000 0.0000 23.0165
#
#
#
# Elastic Compliance Matrix: (Units=1/GPa)
#
#
# Indices 1 2 3 4 5 6 
#
# 1 0.013842 -0.000086 -0.004056 0.000000 0.000000 0.000000
# 2 -0.000086 0.016283 -0.003724 0.000000 0.000000 0.000000
# 3 -0.004056 -0.003724 0.009634 0.000000 0.000000 0.000000
# 4 0.000000 0.000000 0.000000 0.083073 0.000000 0.000000
# 5 0.000000 0.000000 0.000000 0.000000 0.023845 0.000000
# 6 0.000000 0.000000 0.000000 0.000000 0.000000 0.043447
#
#
# Mechanical properties :
#
#
# Convention : Reuss Voigt Hill
#
# Bulk Modulus (GPa) = 41.62121 49.00607 45.31364
# Shear Modulus (GPa) = 23.37948 29.09569 26.23759
#
# Velocity S-wave (km/s) = 3.34135 3.72751 3.53970
# Velocity P-wave (km/s) = 5.89592 6.47519 6.19233
#
# Compressibility (1/GPa) = 0.02402621
#
# Stress axis : x y z
#
# Youngs Moduli (GPa) = 72.24572 61.41544 103.80367
#
# Poissons Ratio (x) = 0.00527 0.42105
# Poissons Ratio (y) = 0.00620 0.38654
# Poissons Ratio (z) = 0.29305 0.22869
#
# Static dielectric constant tensor:
#      x y z
#    x 3.796550 0.000000 0.000000 
#    y 0.000000 3.665680 0.000000 
#    z 0.000000 0.000000 4.620580 
# 
# 
# High freq. dielectric constant tensor:
#      x y z
#    x 1.836220 0.000000 0.000000 
#    y 0.000000 1.799760 0.000000 
#    z 0.000000 0.000000 1.839220 
# 
# From -- ./inp_files/47208.got.cif
#   From: 2010.03.12/outbox.cif.g09.slc.cpg/sg72_24_cif.got.tgz:47208.got - 2010.04.16 14:54:00.
