data_PCOD8294473
_publ_section_title
;
Structure prediction by ZEFSAII (Michael W. Deem and Ramdas Pophale) SiO2 
 PCOD8294473
Probable space group: I B A M
;
_chemical_formula_sum "Si O2"
_cell_formula_units_Z 112
_cell_length_a 14.000996
_cell_length_b 24.563900
_cell_length_c 17.492616
_cell_angle_alpha 90.000000
_cell_angle_beta 90.000000
_cell_angle_gamma 90.000000
_cell_volume 6016.044150
_symmetry_space_group_name_H-M "I B A M"
_symmetry_group_IT_number 72
_symmetry_cell_setting 'orthorhombic'
loop_
_space_group_symop_operation_xyz
x,y,z
-x,-y,z
x,-y,1/2-z
-x,y,1/2-z
-x,-y,-z
x,y,-z
-x,y,1/2+z
x,-y,1/2+z
1/2+x,1/2+y,1/2+z
1/2-x,1/2-y,1/2+z
1/2+x,1/2-y,-z
1/2-x,1/2+y,-z
1/2-x,1/2-y,1/2-z
1/2+x,1/2+y,1/2-z
1/2-x,1/2+y,z
1/2+x,1/2-y,z
loop_
_atom_site_type_symbol
_atom_site_label
_atom_site_fract_x
_atom_site_fract_y
_atom_site_fract_z
Si Si1 0.303579 0.610098 0.410825
Si Si2 0.204410 0.672932 0.091483
Si Si3 0.397219 0.279128 0.911125
Si Si4 0.615642 0.052399 0.090586
Si Si5 0.418030 0.339132 0.590753
Si Si6 0.014819 0.938703 0.839471
Si Si7 0.905104 0.568090 0.590914
O O1 0.318997 0.595602 0.500000
O O2 0.317640 0.674377 0.397129
O O3 0.198671 0.592909 0.381461
O O4 0.377682 0.576696 0.360563
O O5 0.142617 0.723265 0.125543
O O6 0.313682 0.678633 0.120588
O O7 0.159271 0.617020 0.124255
O O8 0.203410 0.673612 0.000000
O O9 0.500073 0.297964 0.876442
O O10 0.412837 0.268663 0.000000
O O11 0.513981 0.074335 0.121493
O O12 0.635349 0.990408 0.119107
O O13 0.610632 0.051330 0.000000
O O14 0.422804 0.339559 0.500000
O O15 0.438965 0.400284 0.618018
O O16 0.000000 0.932318 0.750000
O O17 0.000000 0.000000 0.867824
O O18 0.903548 0.571258 0.500000
#
# Coordination Sequence:
#
# PCOD8294473 Si02
#       7
#    16  16  16  16  16  16  16
#     4   9  17  29  48  69  91 126 162 195 233 284
#     4   9  16  25  42  67  96 127 154 190 240 282
#     4   8  15  27  39  61  94 120 151 190 227 270
#     4   8  14  24  38  60  92 121 149 186 230 279
#     4   9  18  31  48  71  96 125 162 198 234 284
#     4  10  21  34  47  67  96 125 157 198 252 297
#     4   8  14  23  35  60  95 122 146 185 233 277
#
# _framework density 18.616883999999999
#
# number of rings (size 3 to 8) (size 9 to 14) (size 15 to 20)
#    0.000    3.286    0.000    2.143    2.000    2.286 
#    0.000    5.714    0.000    3.429    0.000    1.000 
#    0.000    0.000    0.000    0.000    0.000    0.000 
#
# Total GULP energy -693983.354237 kJ/mol
# GULP energy per Si atom -12392.559897 kJ/mol
# Density = 1.857451 g / cm^3
# Si number density = 18.616884 Si / 1000 Ang^3
#
#
#
# Elastic Constant Matrix: (Units=GPa)
#
#
# Indices 1 2 3 4 5 6 
#
# 1 153.5383 89.4176 13.1386 0.0000 0.0000 0.0000
# 2 89.4176 134.7575 6.6581 0.0001 0.0000 0.0000
# 3 13.1386 6.6581 9.7894 0.0000 0.0000 -0.0001
# 4 0.0000 0.0001 0.0000 8.7612 0.0000 0.0000
# 5 0.0000 0.0000 0.0000 0.0000 4.5940 0.0000
# 6 0.0000 0.0000 -0.0001 0.0000 0.0000 30.8762
#
#
#
# Elastic Compliance Matrix: (Units=1/GPa)
#
#
# Indices 1 2 3 4 5 6 
#
# 1 0.011605 -0.007172 -0.010698 0.000000 0.000000 0.000000
# 2 -0.007172 0.012111 0.001389 0.000000 0.000000 0.000000
# 3 -0.010698 0.001389 0.115564 0.000000 0.000001 0.000000
# 4 0.000000 0.000000 0.000000 0.114140 0.000001 0.000000
# 5 0.000000 0.000000 0.000001 0.000001 0.217674 0.000000
# 6 0.000000 0.000000 0.000000 0.000000 0.000000 0.032387
#
#
# Mechanical properties :
#
#
# Convention : Reuss Voigt Hill
#
# Bulk Modulus (GPa) = 9.40573 57.39043 33.39808
# Shear Modulus (GPa) = 8.74305 21.43769 15.09037
#
# Velocity S-wave (km/s) = 2.16945 3.39708 2.85015
# Velocity P-wave (km/s) = 3.36728 6.80301 5.36747
#
# Compressibility (1/GPa) = 0.10631819
#
# Stress axis : x y z
#
# Youngs Moduli (GPa) = 86.16693 82.56853 8.65320
#
# Poissons Ratio (x) = 0.59219 0.09257
# Poissons Ratio (y) = 0.61800 -0.01202
# Poissons Ratio (z) = 0.92180 -0.11467
#
# Static dielectric constant tensor:
#      x y z
#    x 3.826020 0.000000 0.000000 
#    y 0.000000 3.662800 0.000000 
#    z 0.000000 0.000000 2.733440 
# 
# 
# High freq. dielectric constant tensor:
#      x y z
#    x 1.731450 0.000000 0.000000 
#    y 0.000000 1.727030 0.000000 
#    z 0.000000 0.000000 1.650370 
# 
# From -- ./inp_files/22111.got.cif
#   From: 2010.03.12/outbox.cif.g09.slc.cpg/sg72_12_cif.got.tgz:22111.got - 2010.04.16 14:54:00.
