data_PCOD8294256
_publ_section_title
;
Structure prediction by ZEFSAII (Michael W. Deem and Ramdas Pophale) SiO2 
 PCOD8294256
Probable space group: I B A M
;
_chemical_formula_sum "Si O2"
_cell_formula_units_Z 100
_cell_length_a 17.997879
_cell_length_b 14.508656
_cell_length_c 20.160745
_cell_angle_alpha 90.000000
_cell_angle_beta 90.000000
_cell_angle_gamma 90.000000
_cell_volume 5264.475247
_symmetry_space_group_name_H-M "I B A M"
_symmetry_group_IT_number 72
_symmetry_cell_setting 'orthorhombic'
loop_
_space_group_symop_operation_xyz
x,y,z
-x,-y,z
x,-y,1/2-z
-x,y,1/2-z
-x,-y,-z
x,y,-z
-x,y,1/2+z
x,-y,1/2+z
1/2+x,1/2+y,1/2+z
1/2-x,1/2-y,1/2+z
1/2+x,1/2-y,-z
1/2-x,1/2+y,-z
1/2-x,1/2-y,1/2-z
1/2+x,1/2+y,1/2-z
1/2-x,1/2+y,z
1/2+x,1/2-y,z
loop_
_atom_site_type_symbol
_atom_site_label
_atom_site_fract_x
_atom_site_fract_y
_atom_site_fract_z
Si Si1 0.000000 0.500000 0.250000
Si Si2 0.434545 0.882044 0.862220
Si Si3 0.409192 0.684096 0.182436
Si Si4 0.182755 0.989009 0.673728
Si Si5 0.815623 0.507185 0.425003
Si Si6 0.075899 0.845046 0.167101
Si Si7 0.913189 0.679218 0.424023
O O1 0.054821 0.563542 0.293386
O O2 0.395697 0.783623 0.849748
O O3 0.383028 0.937226 0.912629
O O4 0.515215 0.870876 0.894055
O O5 0.344711 0.614729 0.158879
O O6 0.406456 0.697274 0.261231
O O7 0.487693 0.641503 0.158983
O O8 0.208392 0.000000 0.750000
O O9 0.250540 0.014095 0.626428
O O10 0.114558 0.056794 0.657747
O O11 0.786850 0.491928 0.500000
O O12 0.843390 0.611559 0.415803
O O13 0.107014 0.773408 0.113337
O O14 0.929192 0.703547 0.500000
#
# Coordination Sequence:
#
# PCOD8294256 Si02
#       7
#     4  16  16  16  16  16  16
#     4  12  20  32  62  96 118 136 184 248 280 336
#     4  11  21  35  60  87 116 145 186 235 289 337
#     4   9  19  36  60  87 112 142 183 244 290 336
#     4  10  22  38  58  82 113 153 194 234 285 340
#     4  11  24  39  55  79 120 158 189 230 283 347
#     4   9  18  36  60  85 110 142 189 239 290 337
#     4  10  20  37  58  82 112 150 192 233 283 343
#
# _framework density 18.995245000000001
#
# number of rings (size 3 to 8) (size 9 to 14) (size 15 to 20)
#    0.000    1.920    1.600    2.880    1.120    5.120 
#    0.000    8.800    0.000    4.800    0.000    0.000 
#    0.000    0.000    0.000    0.000    0.000    0.000 
#
# Total GULP energy -620163.853106 kJ/mol
# GULP energy per Si atom -12403.277062 kJ/mol
# Density = 1.895201 g / cm^3
# Si number density = 18.995245 Si / 1000 Ang^3
#
#
#
# Elastic Constant Matrix: (Units=GPa)
#
#
# Indices 1 2 3 4 5 6 
#
# 1 50.2066 25.4690 36.2389 0.0000 0.0000 0.0000
# 2 25.4690 99.1903 50.2255 0.0000 0.0000 0.0000
# 3 36.2389 50.2255 104.7559 0.0000 0.0000 0.0000
# 4 0.0000 0.0000 0.0000 23.0247 0.0000 0.0000
# 5 0.0000 0.0000 0.0000 0.0000 20.3303 0.0000
# 6 0.0000 0.0000 0.0000 0.0000 0.0000 16.5259
#
#
#
# Elastic Compliance Matrix: (Units=1/GPa)
#
#
# Indices 1 2 3 4 5 6 
#
# 1 0.027175 -0.002929 -0.007997 0.000000 0.000000 0.000000
# 2 -0.002929 0.013629 -0.005522 0.000000 0.000000 0.000000
# 3 -0.007997 -0.005522 0.014960 0.000000 0.000000 0.000000
# 4 0.000000 0.000000 0.000000 0.043432 0.000000 0.000000
# 5 0.000000 0.000000 0.000000 0.000000 0.049188 0.000000
# 6 0.000000 0.000000 0.000000 0.000000 0.000000 0.060511
#
#
# Mechanical properties :
#
#
# Convention : Reuss Voigt Hill
#
# Bulk Modulus (GPa) = 43.72426 53.11330 48.41878
# Shear Modulus (GPa) = 20.04710 21.45747 20.75228
#
# Velocity S-wave (km/s) = 3.25218 3.36463 3.30888
# Velocity P-wave (km/s) = 6.09678 6.56631 6.33589
#
# Compressibility (1/GPa) = 0.02287060
#
# Stress axis : x y z
#
# Youngs Moduli (GPa) = 36.79803 73.37033 66.84605
#
# Poissons Ratio (x) = 0.21487 0.53456
# Poissons Ratio (y) = 0.10777 0.36910
# Poissons Ratio (z) = 0.29427 0.40512
#
# Static dielectric constant tensor:
#      x y z
#    x 3.296540 0.000000 0.000000 
#    y 0.000000 3.551970 0.000000 
#    z 0.000000 0.000000 3.471930 
# 
# 
# High freq. dielectric constant tensor:
#      x y z
#    x 1.721780 0.000000 0.000000 
#    y 0.000000 1.747720 0.000000 
#    z 0.000000 0.000000 1.735200 
# 
# From -- ./inp_files/39085.got.cif
#   From: 2010.03.12/outbox.cif.g09.slc.cpg/sg72_20_cif.got.tgz:39085.got - 2010.04.16 14:54:00.
