data_PCOD8294432
_publ_section_title
;
Structure prediction by ZEFSAII (Michael W. Deem and Ramdas Pophale) SiO2 
 PCOD8294432
Probable space group: I B A M
;
_chemical_formula_sum "Si O2"
_cell_formula_units_Z 96
_cell_length_a 13.869218
_cell_length_b 10.691462
_cell_length_c 31.916652
_cell_angle_alpha 90.000000
_cell_angle_beta 90.000000
_cell_angle_gamma 90.000000
_cell_volume 4732.671925
_symmetry_space_group_name_H-M "I B A M"
_symmetry_group_IT_number 72
_symmetry_cell_setting 'orthorhombic'
loop_
_space_group_symop_operation_xyz
x,y,z
-x,-y,z
x,-y,1/2-z
-x,y,1/2-z
-x,-y,-z
x,y,-z
-x,y,1/2+z
x,-y,1/2+z
1/2+x,1/2+y,1/2+z
1/2-x,1/2-y,1/2+z
1/2+x,1/2-y,-z
1/2-x,1/2+y,-z
1/2-x,1/2-y,1/2-z
1/2+x,1/2+y,1/2-z
1/2-x,1/2+y,z
1/2+x,1/2-y,z
loop_
_atom_site_type_symbol
_atom_site_label
_atom_site_fract_x
_atom_site_fract_y
_atom_site_fract_z
Si Si1 0.510880 0.351940 0.702190
Si Si2 0.607298 0.519596 0.080555
Si Si3 0.656069 0.264560 0.359696
Si Si4 0.625801 0.718697 0.631029
Si Si5 0.773534 0.061997 0.000000
Si Si6 0.356644 0.827871 0.500000
Si Si7 0.967743 0.362577 0.082850
O O1 0.500000 0.500000 0.696883
O O2 0.500000 0.309732 0.750000
O O3 0.615444 0.303725 0.685950
O O4 0.428886 0.283298 0.675349
O O5 0.500000 0.500000 0.064022
O O6 0.606208 0.648638 0.105350
O O7 0.644358 0.419538 0.114209
O O8 0.675834 0.513749 0.041348
O O9 0.770239 0.278906 0.359705
O O10 0.610482 0.134758 0.378072
O O11 0.567116 0.793722 0.595904
O O12 0.771858 0.216504 0.000000
O O13 0.677330 0.974557 0.000000
O O14 0.421440 0.801648 0.540976
O O15 0.000000 0.500000 0.071202
#
# Coordination Sequence:
#
# PCOD8294432 Si02
#       7
#    16  16  16  16   8   8  16
#     4  10  20  40  66  94 124 159 205 261 317 379
#     4  12  21  43  62  90 121 167 220 260 310 366
#     4  11  22  40  64  91 127 157 214 252 314 379
#     4  11  23  39  68  91 125 170 205 264 312 378
#     4  12  27  38  66  91 130 169 220 272 315 373
#     4  12  25  46  60  95 132 171 222 275 322 379
#     4  11  25  41  60  91 128 167 209 260 322 374
#
# _framework density 20.284524000000001
#
# number of rings (size 3 to 8) (size 9 to 14) (size 15 to 20)
#    0.000    0.833    6.667    1.500    4.667    1.333 
#    0.000    0.833    0.000    8.000    0.000    0.000 
#    0.000    0.000    0.000    0.000    0.000    0.000 
#
# Total GULP energy -594901.084348 kJ/mol
# GULP energy per Si atom -12393.772591 kJ/mol
# Density = 2.023836 g / cm^3
# Si number density = 20.284524 Si / 1000 Ang^3
#
#
#
# Elastic Constant Matrix: (Units=GPa)
#
#
# Indices 1 2 3 4 5 6 
#
# 1 120.0231 27.8376 38.1882 0.0000 0.0000 0.0000
# 2 27.8376 67.0376 27.5575 0.0000 0.0000 0.0000
# 3 38.1882 27.5575 138.2230 0.0000 0.0000 0.0000
# 4 0.0000 0.0000 0.0000 17.8215 0.0000 0.0000
# 5 0.0000 0.0000 0.0000 0.0000 31.4228 0.0000
# 6 0.0000 0.0000 0.0000 0.0000 0.0000 30.9186
#
#
#
# Elastic Compliance Matrix: (Units=1/GPa)
#
#
# Indices 1 2 3 4 5 6 
#
# 1 0.009725 -0.003196 -0.002050 0.000000 0.000000 0.000000
# 2 -0.003196 0.017299 -0.002566 0.000000 0.000000 0.000000
# 3 -0.002050 -0.002566 0.008313 0.000000 0.000000 0.000000
# 4 0.000000 0.000000 0.000000 0.056112 0.000000 0.000000
# 5 0.000000 0.000000 0.000000 0.000000 0.031824 0.000000
# 6 0.000000 0.000000 0.000000 0.000000 0.000000 0.032343
#
#
# Mechanical properties :
#
#
# Convention : Reuss Voigt Hill
#
# Bulk Modulus (GPa) = 50.72628 56.93890 53.83259
# Shear Modulus (GPa) = 28.11997 31.47928 29.79962
#
# Velocity S-wave (km/s) = 3.72731 3.94367 3.83702
# Velocity P-wave (km/s) = 6.60193 6.99055 6.79902
#
# Compressibility (1/GPa) = 0.01971365
#
# Stress axis : x y z
#
# Youngs Moduli (GPa) = 102.82656 57.80724 120.30009
#
# Poissons Ratio (x) = 0.18474 0.24658
# Poissons Ratio (y) = 0.32861 0.30868
# Poissons Ratio (z) = 0.21076 0.14833
#
# Static dielectric constant tensor:
#      x y z
#    x 3.704140 0.000000 0.000000 
#    y 0.000000 3.835420 0.000000 
#    z 0.000000 0.000000 3.743210 
# 
# 
# High freq. dielectric constant tensor:
#      x y z
#    x 1.790150 0.000000 0.000000 
#    y 0.000000 1.791340 0.000000 
#    z 0.000000 0.000000 1.787800 
# 
# From -- ./inp_files/51718.got.cif
#   From: 2010.03.12/outbox.cif.g09.slc.cpg/sg72_26_cif.got.tgz:51718.got - 2010.04.16 14:54:00.
