data_PCOD8294188
_publ_section_title
;
Structure prediction by ZEFSAII (Michael W. Deem and Ramdas Pophale) SiO2 
 PCOD8294188
Probable space group: I B A M
;
_chemical_formula_sum "Si O2"
_cell_formula_units_Z 104
_cell_length_a 20.478618
_cell_length_b 8.549817
_cell_length_c 26.962079
_cell_angle_alpha 90.000000
_cell_angle_beta 90.000000
_cell_angle_gamma 90.000000
_cell_volume 4720.748252
_symmetry_space_group_name_H-M "I B A M"
_symmetry_group_IT_number 72
_symmetry_cell_setting 'orthorhombic'
loop_
_space_group_symop_operation_xyz
x,y,z
-x,-y,z
x,-y,1/2-z
-x,y,1/2-z
-x,-y,-z
x,y,-z
-x,y,1/2+z
x,-y,1/2+z
1/2+x,1/2+y,1/2+z
1/2-x,1/2-y,1/2+z
1/2+x,1/2-y,-z
1/2-x,1/2+y,-z
1/2-x,1/2-y,1/2-z
1/2+x,1/2+y,1/2-z
1/2-x,1/2+y,z
1/2+x,1/2-y,z
loop_
_atom_site_type_symbol
_atom_site_label
_atom_site_fract_x
_atom_site_fract_y
_atom_site_fract_z
Si Si1 0.743340 0.361613 0.119474
Si Si2 0.115142 0.538997 0.861686
Si Si3 0.933468 0.251884 0.055726
Si Si4 0.888268 0.187922 0.328487
Si Si5 0.925084 0.333372 0.235431
Si Si6 0.500000 0.500000 0.619284
Si Si7 0.205226 0.110008 0.553775
O O1 0.806522 0.450289 0.141103
O O2 0.685365 0.362297 0.159267
O O3 0.762292 0.189226 0.101951
O O4 0.717614 0.430143 0.066999
O O5 0.085743 0.587798 0.915308
O O6 0.093160 0.360506 0.850647
O O7 0.085574 0.672163 0.823877
O O8 0.870901 0.141805 0.051834
O O9 0.957844 0.295830 0.000000
O O10 0.986699 0.149958 0.084682
O O11 0.890101 0.198699 0.268115
O O12 0.939007 0.054371 0.346433
O O13 0.893574 0.500000 0.250000
O O14 0.000000 0.325540 0.250000
O O15 0.236956 0.147915 0.500000
#
# Coordination Sequence:
#
# PCOD8294188 Si02
#       7
#    16  16  16  16  16   8  16
#     4  11  20  38  62  91 127 163 210 266 321 382
#     4  10  22  42  66  90 127 166 215 267 315 385
#     4  10  22  40  61  88 125 167 210 261 321 377
#     4  11  23  40  65  94 125 169 211 264 323 382
#     4   9  19  39  65  89 118 163 211 252 314 375
#     4  12  23  40  65  90 132 164 210 272 320 382
#     4  10  20  36  59  88 122 166 215 262 313 376
#
# _framework density 22.030405999999999
#
# number of rings (size 3 to 8) (size 9 to 14) (size 15 to 20)
#    0.000    1.692    3.077    1.615    0.000    3.077 
#    0.000    5.769    0.000    0.000    0.000    0.000 
#    0.000    0.000    0.000    0.000    0.000    0.000 
#
# Total GULP energy -644344.955225 kJ/mol
# GULP energy per Si atom -12391.249139 kJ/mol
# Density = 2.198026 g / cm^3
# Si number density = 22.030406 Si / 1000 Ang^3
#
#
#
# Elastic Constant Matrix: (Units=GPa)
#
#
# Indices 1 2 3 4 5 6 
#
# 1 63.3562 4.7164 15.0796 0.0000 0.0000 0.0000
# 2 4.7164 46.3375 8.5923 0.0000 0.0000 0.0000
# 3 15.0796 8.5923 100.0276 0.0000 0.0000 0.0000
# 4 0.0000 0.0000 0.0000 29.3682 0.0000 0.0000
# 5 0.0000 0.0000 0.0000 0.0000 24.7111 0.0000
# 6 0.0000 0.0000 0.0000 0.0000 0.0000 18.8336
#
#
#
# Elastic Compliance Matrix: (Units=1/GPa)
#
#
# Indices 1 2 3 4 5 6 
#
# 1 0.016440 -0.001233 -0.002372 0.000000 0.000000 0.000000
# 2 -0.001233 0.022023 -0.001706 0.000000 0.000000 0.000000
# 3 -0.002372 -0.001706 0.010501 0.000000 0.000000 0.000000
# 4 0.000000 0.000000 0.000000 0.034050 0.000000 0.000000
# 5 0.000000 0.000000 0.000000 0.000000 0.040468 0.000000
# 6 0.000000 0.000000 0.000000 0.000000 0.000000 0.053096
#
#
# Mechanical properties :
#
#
# Convention : Reuss Voigt Hill
#
# Bulk Modulus (GPa) = 26.08178 29.61087 27.84633
# Shear Modulus (GPa) = 25.00219 26.67147 25.83683
#
# Velocity S-wave (km/s) = 3.37247 3.48324 3.42830
# Velocity P-wave (km/s) = 5.19899 5.44494 5.32338
#
# Compressibility (1/GPa) = 0.03834093
#
# Stress axis : x y z
#
# Youngs Moduli (GPa) = 60.82627 45.40787 95.22512
#
# Poissons Ratio (x) = 0.05601 0.22592
# Poissons Ratio (y) = 0.07502 0.16243
# Poissons Ratio (z) = 0.14431 0.07746
#
# Static dielectric constant tensor:
#      x y z
#    x 3.781480 0.000000 0.000000 
#    y 0.000000 3.846210 0.000000 
#    z 0.000000 0.000000 4.257410 
# 
# 
# High freq. dielectric constant tensor:
#      x y z
#    x 1.855340 0.000000 0.000000 
#    y 0.000000 1.858910 0.000000 
#    z 0.000000 0.000000 1.867990 
# 
# From -- ./inp_files/49425.got.cif
#   From: 2010.03.12/outbox.cif.g09.slc.cpg/sg72_25_cif.got.tgz:49425.got - 2010.04.16 14:54:00.
