data_PCOD8294477
_publ_section_title
;
Structure prediction by ZEFSAII (Michael W. Deem and Ramdas Pophale) SiO2 
 PCOD8294477
Probable space group: I B A M
;
_chemical_formula_sum "Si O2"
_cell_formula_units_Z 64
_cell_length_a 9.853577
_cell_length_b 19.965724
_cell_length_c 17.170044
_cell_angle_alpha 90.000000
_cell_angle_beta 90.000000
_cell_angle_gamma 90.000000
_cell_volume 3377.927982
_symmetry_space_group_name_H-M "I B A M"
_symmetry_group_IT_number 72
_symmetry_cell_setting 'orthorhombic'
loop_
_space_group_symop_operation_xyz
x,y,z
-x,-y,z
x,-y,1/2-z
-x,y,1/2-z
-x,-y,-z
x,y,-z
-x,y,1/2+z
x,-y,1/2+z
1/2+x,1/2+y,1/2+z
1/2-x,1/2-y,1/2+z
1/2+x,1/2-y,-z
1/2-x,1/2+y,-z
1/2-x,1/2-y,1/2-z
1/2+x,1/2+y,1/2-z
1/2-x,1/2+y,z
1/2+x,1/2-y,z
loop_
_atom_site_type_symbol
_atom_site_label
_atom_site_fract_x
_atom_site_fract_y
_atom_site_fract_z
Si Si1 0.847343 0.000223 0.588550
Si Si2 0.127730 0.440608 0.186510
Si Si3 0.360953 0.801810 0.724480
Si Si4 0.624374 0.108573 0.410139
O O1 0.855096 0.975800 0.500000
O O2 0.769685 0.071144 0.595948
O O3 0.761259 0.945485 0.634645
O O4 0.000000 0.000000 0.623633
O O5 0.115570 0.500000 0.250000
O O6 0.149770 0.372395 0.232163
O O7 0.992095 0.436372 0.132101
O O8 0.500000 0.766162 0.750000
O O9 0.250000 0.750000 0.750000
O O10 0.358147 0.819127 0.631971
O O11 0.583125 0.120145 0.500000
#
# Coordination Sequence:
#
# PCOD8294477 Si02
#       4
#    16  16  16  16
#     4  10  21  34  52  87 124 152 187 244 305 352
#     4  11  21  37  62  91 118 153 205 250 299 366
#     4  10  23  40  59  83 119 155 200 246 295 363
#     4  10  21  38  62  87 118 158 201 250 301 357
#
# _framework density 18.946525999999999
#
# number of rings (size 3 to 8) (size 9 to 14) (size 15 to 20)
#    0.000    1.750    2.500    1.500    7.000    4.500 
#    0.000    6.250    0.000    0.000    0.000    0.000 
#    0.000    0.000    0.000    0.000    0.000    0.000 
#
# Total GULP energy -396501.217059 kJ/mol
# GULP energy per Si atom -12390.663033 kJ/mol
# Density = 1.890340 g / cm^3
# Si number density = 18.946526 Si / 1000 Ang^3
#
#
#
# Elastic Constant Matrix: (Units=GPa)
#
#
# Indices 1 2 3 4 5 6 
#
# 1 186.7514 57.2234 70.6497 0.0000 0.0000 0.0000
# 2 57.2234 92.5463 53.1788 0.0000 0.0000 0.0000
# 3 70.6497 53.1788 133.1152 0.0000 0.0000 0.0000
# 4 0.0000 0.0000 0.0000 14.9182 0.0000 0.0000
# 5 0.0000 0.0000 0.0000 0.0000 33.1890 0.0000
# 6 0.0000 0.0000 0.0000 0.0000 0.0000 28.2235
#
#
#
# Elastic Compliance Matrix: (Units=1/GPa)
#
#
# Indices 1 2 3 4 5 6 
#
# 1 0.007275 -0.002959 -0.002679 0.000000 0.000000 0.000000
# 2 -0.002959 0.015228 -0.004513 0.000000 0.000000 0.000000
# 3 -0.002679 -0.004513 0.010737 0.000000 0.000000 0.000000
# 4 0.000000 0.000000 0.000000 0.067032 0.000000 0.000000
# 5 0.000000 0.000000 0.000000 0.000000 0.030130 0.000000
# 6 0.000000 0.000000 0.000000 0.000000 0.000000 0.035431
#
#
# Mechanical properties :
#
#
# Convention : Reuss Voigt Hill
#
# Bulk Modulus (GPa) = 77.29084 86.05742 81.67413
# Shear Modulus (GPa) = 26.25369 30.69020 28.47195
#
# Velocity S-wave (km/s) = 3.72650 4.02908 3.88074
# Velocity P-wave (km/s) = 7.70704 8.19539 7.95497
#
# Compressibility (1/GPa) = 0.01293814
#
# Stress axis : x y z
#
# Youngs Moduli (GPa) = 137.46038 65.66725 93.13416
#
# Poissons Ratio (x) = 0.19429 0.24951
# Poissons Ratio (y) = 0.40671 0.42034
# Poissons Ratio (z) = 0.36826 0.29638
#
# Static dielectric constant tensor:
#      x y z
#    x 5.832140 0.000000 0.000000 
#    y 0.000000 3.321410 0.000000 
#    z 0.000000 0.000000 3.970950 
# 
# 
# High freq. dielectric constant tensor:
#      x y z
#    x 1.747100 0.000000 0.000000 
#    y 0.000000 1.702340 0.000000 
#    z 0.000000 0.000000 1.753910 
# 
# From -- ./inp_files/27664.got.cif
#   From: 2010.03.12/outbox.cif.g09.slc.cpg/sg72_14_cif.got.tgz:27664.got - 2010.04.16 14:54:00.
