data_PCOD8294726
_publ_section_title
;
Structure prediction by ZEFSAII (Michael W. Deem and Ramdas Pophale) SiO2 
 PCOD8294726
Probable space group: I B A M
;
_chemical_formula_sum "Si O2"
_cell_formula_units_Z 104
_cell_length_a 26.881597
_cell_length_b 21.039491
_cell_length_c 9.150467
_cell_angle_alpha 90.000000
_cell_angle_beta 90.000000
_cell_angle_gamma 90.000000
_cell_volume 5175.276455
_symmetry_space_group_name_H-M "I B A M"
_symmetry_group_IT_number 72
_symmetry_cell_setting 'orthorhombic'
loop_
_space_group_symop_operation_xyz
x,y,z
-x,-y,z
x,-y,1/2-z
-x,y,1/2-z
-x,-y,-z
x,y,-z
-x,y,1/2+z
x,-y,1/2+z
1/2+x,1/2+y,1/2+z
1/2-x,1/2-y,1/2+z
1/2+x,1/2-y,-z
1/2-x,1/2+y,-z
1/2-x,1/2-y,1/2-z
1/2+x,1/2+y,1/2-z
1/2-x,1/2+y,z
1/2+x,1/2-y,z
loop_
_atom_site_type_symbol
_atom_site_label
_atom_site_fract_x
_atom_site_fract_y
_atom_site_fract_z
Si Si1 0.949143 0.604561 0.332188
Si Si2 0.623344 0.316117 0.338359
Si Si3 0.183969 0.061846 0.328095
Si Si4 0.373745 0.000000 0.750000
Si Si5 0.447267 0.230063 0.325001
Si Si6 0.705952 0.094870 0.161581
Si Si7 0.291837 0.784956 0.659859
O O1 0.961704 0.623709 0.500000
O O2 0.909435 0.547359 0.339495
O O3 0.925391 0.664475 0.244140
O O4 0.000000 0.583126 0.250000
O O5 0.599581 0.328782 0.500000
O O6 0.650424 0.378853 0.277157
O O7 0.583467 0.292658 0.219844
O O8 0.662430 0.260844 0.357184
O O9 0.180903 0.052249 0.500000
O O10 0.241179 0.070180 0.276967
O O11 0.161591 0.000000 0.250000
O O12 0.336429 0.040853 0.649165
O O13 0.500000 0.239091 0.250000
O O14 0.449785 0.224898 0.500000
O O15 0.687926 0.151416 0.264738
O O16 0.714821 0.122802 0.000000
O O17 0.270457 0.802303 0.500000
O O18 0.250000 0.750000 0.750000
#
# Coordination Sequence:
#
# PCOD8294726 Si02
#       7
#    16  16  16   8  16  16  16
#     4  11  24  42  63  87 119 160 205 257 311 363
#     4  10  21  39  61  87 121 159 197 246 305 359
#     4  10  21  39  59  83 119 161 201 243 291 353
#     4  12  25  38  60  88 120 164 213 260 302 354
#     4  11  23  41  67  96 123 155 197 251 307 368
#     4  11  23  39  56  82 118 159 206 253 301 354
#     4  11  22  37  58  84 116 156 202 253 307 358
#
# _framework density 20.095545000000001
#
# number of rings (size 3 to 8) (size 9 to 14) (size 15 to 20)
#    0.000    1.231    2.308    4.846    0.000    9.231 
#    0.000    0.000    0.000    0.462    0.000    3.231 
#    0.000    0.000    0.000    0.000    0.000    0.000 
#
# Total GULP energy -644608.473829 kJ/mol
# GULP energy per Si atom -12396.316804 kJ/mol
# Density = 2.004981 g / cm^3
# Si number density = 20.095545 Si / 1000 Ang^3
#
#
#
# Elastic Constant Matrix: (Units=GPa)
#
#
# Indices 1 2 3 4 5 6 
#
# 1 79.7505 59.7610 42.5977 0.0000 0.0000 0.0000
# 2 59.7610 150.9398 58.4230 0.0000 0.0000 0.0000
# 3 42.5977 58.4230 138.7598 0.0000 0.0000 0.0000
# 4 0.0000 0.0000 0.0000 27.8945 0.0000 0.0000
# 5 0.0000 0.0000 0.0000 0.0000 25.6317 0.0000
# 6 0.0000 0.0000 0.0000 0.0000 0.0000 42.8480
#
#
#
# Elastic Compliance Matrix: (Units=1/GPa)
#
#
# Indices 1 2 3 4 5 6 
#
# 1 0.018930 -0.006267 -0.003173 0.000000 0.000000 0.000000
# 2 -0.006267 0.009990 -0.002282 0.000000 0.000000 0.000000
# 3 -0.003173 -0.002282 0.009142 0.000000 0.000000 0.000000
# 4 0.000000 0.000000 0.000000 0.035849 0.000000 0.000000
# 5 0.000000 0.000000 0.000000 0.000000 0.039014 0.000000
# 6 0.000000 0.000000 0.000000 0.000000 0.000000 0.023338
#
#
# Mechanical properties :
#
#
# Convention : Reuss Voigt Hill
#
# Bulk Modulus (GPa) = 68.41016 76.77928 72.59472
# Shear Modulus (GPa) = 30.38061 33.18607 31.78334
#
# Velocity S-wave (km/s) = 3.89242 4.06817 3.98126
# Velocity P-wave (km/s) = 7.37004 7.76896 7.57213
#
# Compressibility (1/GPa) = 0.01461771
#
# Stress axis : x y z
#
# Youngs Moduli (GPa) = 52.82693 100.10339 109.39043
#
# Poissons Ratio (x) = 0.62732 0.34706
# Poissons Ratio (y) = 0.33105 0.24965
# Poissons Ratio (z) = 0.16760 0.22846
#
# Static dielectric constant tensor:
#      x y z
#    x 3.229950 0.000000 0.000000 
#    y 0.000000 3.770770 0.000000 
#    z 0.000000 0.000000 3.774450 
# 
# 
# High freq. dielectric constant tensor:
#      x y z
#    x 1.771410 0.000000 0.000000 
#    y 0.000000 1.781690 0.000000 
#    z 0.000000 0.000000 1.787600 
# 
# From -- ./inp_files/8174.got.cif
#   From: 2010.03.12/outbox.cif.g09.slc.cpg/sg72_5_cif.got.tgz:8174.got - 2010.04.16 14:54:00.
