data_PCOD8294848
_publ_section_title
;
Structure prediction by ZEFSAII (Michael W. Deem and Ramdas Pophale) SiO2 
 PCOD8294848
Probable space group: I B A M
;
_chemical_formula_sum "Si O2"
_cell_formula_units_Z 72
_cell_length_a 26.920965
_cell_length_b 9.405076
_cell_length_c 14.011834
_cell_angle_alpha 90.000000
_cell_angle_beta 90.000000
_cell_angle_gamma 90.000000
_cell_volume 3547.708400
_symmetry_space_group_name_H-M "I B A M"
_symmetry_group_IT_number 72
_symmetry_cell_setting 'orthorhombic'
loop_
_space_group_symop_operation_xyz
x,y,z
-x,-y,z
x,-y,1/2-z
-x,y,1/2-z
-x,-y,-z
x,y,-z
-x,y,1/2+z
x,-y,1/2+z
1/2+x,1/2+y,1/2+z
1/2-x,1/2-y,1/2+z
1/2+x,1/2-y,-z
1/2-x,1/2+y,-z
1/2-x,1/2-y,1/2-z
1/2+x,1/2+y,1/2-z
1/2-x,1/2+y,z
1/2+x,1/2-y,z
loop_
_atom_site_type_symbol
_atom_site_label
_atom_site_fract_x
_atom_site_fract_y
_atom_site_fract_z
Si Si1 0.592385 0.987730 0.111894
Si Si2 0.703133 0.071494 0.388180
Si Si3 0.943094 0.269430 0.255794
Si Si4 0.623428 0.500000 0.750000
Si Si5 0.795710 0.891507 0.386123
O O1 0.650756 0.001559 0.137136
O O2 0.572555 0.840290 0.155498
O O3 0.563754 0.119689 0.157772
O O4 0.581975 0.984498 0.000000
O O5 0.709944 0.085522 0.500000
O O6 0.706761 0.230652 0.346101
O O7 0.746450 0.971127 0.347520
O O8 0.000000 0.222243 0.250000
O O9 0.910597 0.132341 0.277848
O O10 0.656576 0.530675 0.842811
O O11 0.800840 0.897732 0.500000
#
# Coordination Sequence:
#
# PCOD8294848 Si02
#       5
#    16  16  16   8  16
#     4  10  21  42  68  91 119 157 202 253 307 366
#     4   9  19  37  61  89 124 158 195 244 297 357
#     4  11  25  42  62  90 121 157 208 261 307 357
#     4  12  25  40  62  88 126 168 201 248 308 368
#     4  10  22  39  59  89 126 164 200 244 298 362
#
# _framework density 20.294791
#
# number of rings (size 3 to 8) (size 9 to 14) (size 15 to 20)
#    0.000    1.778    2.222    1.667    3.111    5.333 
#    0.000    0.000    0.000    4.000    0.000    0.000 
#    0.000    0.000    0.000    0.000    0.000    0.000 
#
# Total GULP energy -446509.735933 kJ/mol
# GULP energy per Si atom -12403.048220 kJ/mol
# Density = 2.024860 g / cm^3
# Si number density = 20.294791 Si / 1000 Ang^3
#
#
#
# Elastic Constant Matrix: (Units=GPa)
#
#
# Indices 1 2 3 4 5 6 
#
# 1 129.5093 25.7069 19.7683 0.0000 0.0000 0.0000
# 2 25.7069 83.0448 19.4164 0.0000 0.0000 0.0000
# 3 19.7683 19.4164 86.9142 0.0000 0.0000 0.0000
# 4 0.0000 0.0000 0.0000 16.9341 0.0000 0.0000
# 5 0.0000 0.0000 0.0000 0.0000 25.4940 0.0000
# 6 0.0000 0.0000 0.0000 0.0000 0.0000 19.8100
#
#
#
# Elastic Compliance Matrix: (Units=1/GPa)
#
#
# Indices 1 2 3 4 5 6 
#
# 1 0.008385 -0.002268 -0.001401 0.000000 0.000000 0.000000
# 2 -0.002268 0.013319 -0.002459 0.000000 0.000000 0.000000
# 3 -0.001401 -0.002459 0.012374 0.000000 0.000000 0.000000
# 4 0.000000 0.000000 0.000000 0.059052 0.000000 0.000000
# 5 0.000000 0.000000 0.000000 0.000000 0.039225 0.000000
# 6 0.000000 0.000000 0.000000 0.000000 0.000000 0.050480
#
#
# Mechanical properties :
#
#
# Convention : Reuss Voigt Hill
#
# Bulk Modulus (GPa) = 45.82669 47.69460 46.76064
# Shear Modulus (GPa) = 24.70782 28.08609 26.39696
#
# Velocity S-wave (km/s) = 3.49298 3.72413 3.61040
# Velocity P-wave (km/s) = 6.23678 6.48414 6.36166
#
# Compressibility (1/GPa) = 0.02182135
#
# Stress axis : x y z
#
# Youngs Moduli (GPa) = 119.25389 75.08126 80.81737
#
# Poissons Ratio (x) = 0.17031 0.11319
# Poissons Ratio (y) = 0.27050 0.19877
# Poissons Ratio (z) = 0.16702 0.18466
#
# Static dielectric constant tensor:
#      x y z
#    x 3.822770 0.000000 0.000000 
#    y 0.000000 3.870220 0.000000 
#    z 0.000000 0.000000 3.519900 
# 
# 
# High freq. dielectric constant tensor:
#      x y z
#    x 1.802600 0.000000 0.000000 
#    y 0.000000 1.794720 0.000000 
#    z 0.000000 0.000000 1.789010 
# 
# From -- ./inp_files/18866.got.cif
#   From: 2010.03.12/outbox.cif.g09.slc.cpg/sg72_10_cif.got.tgz:18866.got - 2010.04.16 14:54:00.
