data_PCOD8294990
_publ_section_title
;
Structure prediction by ZEFSAII (Michael W. Deem and Ramdas Pophale) SiO2 
 PCOD8294990
Probable space group: I B A M
;
_chemical_formula_sum "Si O2"
_cell_formula_units_Z 80
_cell_length_a 16.667158
_cell_length_b 26.129558
_cell_length_c 9.360339
_cell_angle_alpha 90.000000
_cell_angle_beta 90.000000
_cell_angle_gamma 90.000000
_cell_volume 4076.478851
_symmetry_space_group_name_H-M "I B A M"
_symmetry_group_IT_number 72
_symmetry_cell_setting 'orthorhombic'
loop_
_space_group_symop_operation_xyz
x,y,z
-x,-y,z
x,-y,1/2-z
-x,y,1/2-z
-x,-y,-z
x,y,-z
-x,y,1/2+z
x,-y,1/2+z
1/2+x,1/2+y,1/2+z
1/2-x,1/2-y,1/2+z
1/2+x,1/2-y,-z
1/2-x,1/2+y,-z
1/2-x,1/2-y,1/2-z
1/2+x,1/2+y,1/2-z
1/2-x,1/2+y,z
1/2+x,1/2-y,z
loop_
_atom_site_type_symbol
_atom_site_label
_atom_site_fract_x
_atom_site_fract_y
_atom_site_fract_z
Si Si1 0.180123 0.900065 0.762896
Si Si2 0.738345 0.801065 0.163011
Si Si3 0.432276 0.572484 0.500000
Si Si4 0.111552 0.954031 0.500000
Si Si5 0.657880 0.948245 0.337098
Si Si6 0.923512 0.361007 0.832169
O O1 0.195679 0.842859 0.708114
O O2 0.164825 0.939287 0.634730
O O3 0.256424 0.920458 0.849292
O O4 0.101362 0.898763 0.861317
O O5 0.750000 0.750000 0.250000
O O6 0.648979 0.821696 0.187810
O O7 0.753317 0.786927 0.000000
O O8 0.527969 0.576875 0.500000
O O9 0.403476 0.514045 0.500000
O O10 0.627380 0.957365 0.500000
O O11 0.595538 0.914096 0.247875
O O12 0.666639 0.000000 0.250000
O O13 0.000000 0.336930 0.750000
O O14 0.940703 0.370989 0.000000
#
# Coordination Sequence:
#
# PCOD8294990 Si02
#       6
#    16  16   8   8  16  16
#     4  11  22  38  59  89 122 161 208 259 304 363
#     4  10  23  42  68  91 117 157 203 257 309 365
#     4  11  22  36  59  90 121 177 208 251 310 374
#     4  11  22  38  57  84 133 167 214 253 308 366
#     4  11  22  35  58  88 120 162 205 247 296 357
#     4  10  22  41  63  91 124 155 195 245 301 360
#
# _framework density 19.624780000000001
#
# number of rings (size 3 to 8) (size 9 to 14) (size 15 to 20)
#    0.000    1.400    2.000    3.600    4.200    3.600 
#    0.000    4.000    0.000    0.000    0.000    0.000 
#    0.000    0.000    0.000    0.000    0.000    0.000 
#
# Total GULP energy -496112.068748 kJ/mol
# GULP energy per Si atom -12402.801719 kJ/mol
# Density = 1.958011 g / cm^3
# Si number density = 19.624780 Si / 1000 Ang^3
#
#
#
# Elastic Constant Matrix: (Units=GPa)
#
#
# Indices 1 2 3 4 5 6 
#
# 1 85.1767 27.0114 42.6176 0.0000 -0.0001 0.0000
# 2 27.0114 108.3613 52.6041 -0.0002 0.0000 0.0000
# 3 42.6176 52.6041 159.7554 -0.0041 0.0001 -0.0002
# 4 0.0000 -0.0002 -0.0041 40.9879 -0.0001 -0.0001
# 5 -0.0001 0.0000 0.0001 -0.0001 34.7455 0.0000
# 6 0.0000 0.0000 -0.0002 -0.0001 0.0000 16.1051
#
#
#
# Elastic Compliance Matrix: (Units=1/GPa)
#
#
# Indices 1 2 3 4 5 6 
#
# 1 0.013897 -0.001981 -0.003055 0.000000 0.000000 0.000000
# 2 -0.001981 0.011267 -0.003181 0.000000 0.000000 0.000000
# 3 -0.003055 -0.003181 0.008122 0.000001 0.000000 0.000000
# 4 0.000000 0.000000 0.000001 0.024397 0.000000 0.000000
# 5 0.000000 0.000000 0.000000 0.000000 0.028781 0.000000
# 6 0.000000 0.000000 0.000000 0.000000 0.000000 0.062092
#
#
# Mechanical properties :
#
#
# Convention : Reuss Voigt Hill
#
# Bulk Modulus (GPa) = 59.34393 66.41771 62.88082
# Shear Modulus (GPa) = 29.30700 33.77175 31.53938
#
# Velocity S-wave (km/s) = 3.86860 4.15284 4.01324
# Velocity P-wave (km/s) = 7.08941 7.54401 7.32024
#
# Compressibility (1/GPa) = 0.01685092
#
# Stress axis : x y z
#
# Youngs Moduli (GPa) = 71.95762 88.75785 123.12108
#
# Poissons Ratio (x) = 0.17584 0.37613
# Poissons Ratio (y) = 0.14256 0.39169
# Poissons Ratio (z) = 0.21983 0.28237
#
# Static dielectric constant tensor:
#      x y z
#    x 3.676070 0.000000 0.000000 
#    y 0.000000 3.381830 0.000000 
#    z 0.000000 0.000000 3.714460 
# 
# 
# High freq. dielectric constant tensor:
#      x y z
#    x 1.766170 0.000000 0.000000 
#    y 0.000000 1.743660 0.000000 
#    z 0.000000 0.000000 1.786200 
# 
# From -- ./inp_files/4849.got.cif
#   From: 2010.03.12/outbox.cif.g09.slc.cpg/sg72_3_cif.got.tgz:4849.got - 2010.04.16 14:54:00.
