data_PCOD8294748
_publ_section_title
;
Structure prediction by ZEFSAII (Michael W. Deem and Ramdas Pophale) SiO2 
 PCOD8294748
Probable space group: I B A M
;
_chemical_formula_sum "Si O2"
_cell_formula_units_Z 116
_cell_length_a 11.642381
_cell_length_b 28.072337
_cell_length_c 17.740480
_cell_angle_alpha 90.000000
_cell_angle_beta 90.000000
_cell_angle_gamma 90.000000
_cell_volume 5798.100551
_symmetry_space_group_name_H-M "I B A M"
_symmetry_group_IT_number 72
_symmetry_cell_setting 'orthorhombic'
loop_
_space_group_symop_operation_xyz
x,y,z
-x,-y,z
x,-y,1/2-z
-x,y,1/2-z
-x,-y,-z
x,y,-z
-x,y,1/2+z
x,-y,1/2+z
1/2+x,1/2+y,1/2+z
1/2-x,1/2-y,1/2+z
1/2+x,1/2-y,-z
1/2-x,1/2+y,-z
1/2-x,1/2-y,1/2-z
1/2+x,1/2+y,1/2-z
1/2-x,1/2+y,z
1/2+x,1/2-y,z
loop_
_atom_site_type_symbol
_atom_site_label
_atom_site_fract_x
_atom_site_fract_y
_atom_site_fract_z
Si Si1 0.108256 0.171568 0.681767
Si Si2 0.864636 0.212587 0.663438
Si Si3 0.387570 0.053043 0.282433
Si Si4 0.982488 0.601064 0.084901
Si Si5 0.349035 0.584179 0.780945
Si Si6 0.000000 0.000000 0.750000
Si Si7 0.178884 0.309594 0.086327
Si Si8 0.262877 0.866833 0.588795
O O1 0.153844 0.208477 0.746129
O O2 0.087804 0.120403 0.723133
O O3 0.199928 0.169740 0.614956
O O4 0.988212 0.188296 0.645434
O O5 0.866570 0.266854 0.637864
O O6 0.759869 0.187141 0.617679
O O7 0.500000 0.080477 0.250000
O O8 0.414954 0.058404 0.371617
O O9 0.271886 0.078584 0.260725
O O10 0.384516 0.000000 0.250000
O O11 0.112534 0.612697 0.111259
O O12 0.915639 0.650104 0.094113
O O13 0.984084 0.582603 0.000000
O O14 0.416746 0.534978 0.796467
O O15 0.331889 0.602948 0.865372
O O16 0.193159 0.292927 0.000000
O O17 0.239882 0.870529 0.500000
#
# Coordination Sequence:
#
# PCOD8294748 Si02
#       8
#    16  16  16  16  16   4  16  16
#     4  10  22  42  60  87 125 166 209 252 307 355
#     4  10  22  39  59  89 123 166 215 252 294 359
#     4  11  21  39  64  93 115 154 205 248 310 374
#     4  10  22  40  61  92 129 160 199 255 315 366
#     4  11  21  40  65  89 121 160 204 256 304 369
#     4  12  24  40  68  92 116 152 212 264 300 364
#     4  11  23  37  60  91 125 165 207 255 305 355
#     4  10  21  39  62  89 126 164 198 250 310 365
#
# _framework density 20.006551000000002
#
# number of rings (size 3 to 8) (size 9 to 14) (size 15 to 20)
#    0.000    1.517    3.448    2.483    1.931    1.103 
#    4.966    2.414    0.000    0.828    0.000    0.000 
#    0.000    0.000    0.000    0.000    0.000    0.000 
#
# Total GULP energy -718611.963372 kJ/mol
# GULP energy per Si atom -12389.861437 kJ/mol
# Density = 1.996102 g / cm^3
# Si number density = 20.006551 Si / 1000 Ang^3
#
#
#
# Elastic Constant Matrix: (Units=GPa)
#
#
# Indices 1 2 3 4 5 6 
#
# 1 81.8254 17.9771 21.1469 0.0000 0.0000 0.0000
# 2 17.9771 90.4040 36.6310 0.0002 -0.0001 -0.0001
# 3 21.1469 36.6310 87.9991 0.0005 -0.0006 0.0000
# 4 0.0000 0.0002 0.0005 22.7871 -0.0003 0.0000
# 5 0.0000 -0.0001 -0.0006 -0.0003 24.4322 0.0000
# 6 0.0000 -0.0001 0.0000 0.0000 0.0000 28.6497
#
#
#
# Elastic Compliance Matrix: (Units=1/GPa)
#
#
# Indices 1 2 3 4 5 6 
#
# 1 0.013223 -0.001614 -0.002506 0.000000 0.000000 0.000000
# 2 -0.001614 0.013503 -0.005233 0.000000 0.000000 0.000000
# 3 -0.002506 -0.005233 0.014144 0.000000 0.000000 0.000000
# 4 0.000000 0.000000 0.000000 0.043884 0.000000 0.000000
# 5 0.000000 0.000000 0.000000 0.000000 0.040930 0.000000
# 6 0.000000 0.000000 0.000000 0.000000 0.000000 0.034904
#
#
# Mechanical properties :
#
#
# Convention : Reuss Voigt Hill
#
# Bulk Modulus (GPa) = 45.11673 45.74872 45.43273
# Shear Modulus (GPa) = 26.78345 27.47203 27.12774
#
# Velocity S-wave (km/s) = 3.66284 3.70963 3.68631
# Velocity P-wave (km/s) = 6.36306 6.42378 6.39349
#
# Compressibility (1/GPa) = 0.02216473
#
# Stress axis : x y z
#
# Youngs Moduli (GPa) = 75.62366 74.05900 70.70059
#
# Poissons Ratio (x) = 0.11955 0.17716
# Poissons Ratio (y) = 0.12207 0.36996
# Poissons Ratio (z) = 0.18949 0.38754
#
# Static dielectric constant tensor:
#      x y z
#    x 4.035050 0.000000 0.000000 
#    y 0.000000 3.527700 0.000000 
#    z 0.000000 0.000000 3.658230 
# 
# 
# High freq. dielectric constant tensor:
#      x y z
#    x 1.801270 0.000000 0.000000 
#    y 0.000000 1.771480 0.000000 
#    z 0.000000 0.000000 1.771030 
# 
# From -- ./inp_files/29710.got.cif
#   From: 2010.03.12/outbox.cif.g09.slc.cpg/sg72_15_cif.got.tgz:29710.got - 2010.04.16 14:54:00.
