data_PCOD8294445
_publ_section_title
;
Structure prediction by ZEFSAII (Michael W. Deem and Ramdas Pophale) SiO2 
 PCOD8294445
Probable space group: I B A M
;
_chemical_formula_sum "Si O2"
_cell_formula_units_Z 80
_cell_length_a 16.837989
_cell_length_b 23.596147
_cell_length_c 9.943997
_cell_angle_alpha 90.000000
_cell_angle_beta 90.000000
_cell_angle_gamma 90.000000
_cell_volume 3950.865991
_symmetry_space_group_name_H-M "I B A M"
_symmetry_group_IT_number 72
_symmetry_cell_setting 'orthorhombic'
loop_
_space_group_symop_operation_xyz
x,y,z
-x,-y,z
x,-y,1/2-z
-x,y,1/2-z
-x,-y,-z
x,y,-z
-x,y,1/2+z
x,-y,1/2+z
1/2+x,1/2+y,1/2+z
1/2-x,1/2-y,1/2+z
1/2+x,1/2-y,-z
1/2-x,1/2+y,-z
1/2-x,1/2-y,1/2-z
1/2+x,1/2+y,1/2-z
1/2-x,1/2+y,z
1/2+x,1/2-y,z
loop_
_atom_site_type_symbol
_atom_site_label
_atom_site_fract_x
_atom_site_fract_y
_atom_site_fract_z
Si Si1 0.422766 0.648181 0.841149
Si Si2 0.209129 0.064470 0.247324
Si Si3 0.912878 0.683993 0.500000
Si Si4 0.179990 0.429178 0.500000
Si Si5 0.157907 0.263171 0.766213
Si Si6 0.316852 0.941343 0.000000
Si Si7 0.402220 0.834123 0.000000
O O1 0.500000 0.647569 0.750000
O O2 0.368068 0.602553 0.766584
O O3 0.383903 0.709400 0.831933
O O4 0.438353 0.634006 0.000000
O O5 0.260520 0.075256 0.378001
O O6 0.179131 0.000000 0.250000
O O7 0.266119 0.081615 0.127161
O O8 0.889704 0.617426 0.500000
O O9 0.880424 0.718695 0.625966
O O10 0.007634 0.686710 0.500000
O O11 0.149393 0.494319 0.500000
O O12 0.250000 0.250000 0.750000
O O13 0.144934 0.314253 0.868628
O O14 0.395757 0.902581 0.000000
#
# Coordination Sequence:
#
# PCOD8294445 Si02
#       7
#    16  16   8   8  16   8   8
#     4  12  26  44  66  96 135 169 213 272 331 390
#     4  10  22  42  67  93 127 172 219 267 317 383
#     4  12  25  40  68  94 134 171 212 273 334 379
#     4  10  20  42  65  95 126 177 215 268 323 375
#     4  12  26  43  67  93 127 175 222 264 322 393
#     4  10  22  38  67  95 132 167 225 264 313 393
#     4  12  23  42  60 100 132 167 216 273 328 389
#
# _framework density 20.248726000000001
#
# number of rings (size 3 to 8) (size 9 to 14) (size 15 to 20)
#    0.000    0.800    2.000    6.000    2.800    0.800 
#    0.000    1.000    0.000    6.000    0.000    0.000 
#    0.000    0.000    0.000    0.000    0.000    0.000 
#
# Total GULP energy -495960.790657 kJ/mol
# GULP energy per Si atom -12399.019766 kJ/mol
# Density = 2.020264 g / cm^3
# Si number density = 20.248726 Si / 1000 Ang^3
#
#
#
# Elastic Constant Matrix: (Units=GPa)
#
#
# Indices 1 2 3 4 5 6 
#
# 1 121.8749 43.0609 36.3803 0.0000 0.0000 0.0000
# 2 43.0609 95.7334 15.8100 0.0000 0.0000 0.0000
# 3 36.3803 15.8100 133.9711 0.0000 0.0000 0.0000
# 4 0.0000 0.0000 0.0000 33.9530 0.0000 0.0000
# 5 0.0000 0.0000 0.0000 0.0000 46.4760 0.0000
# 6 0.0000 0.0000 0.0000 0.0000 0.0000 25.0728
#
#
#
# Elastic Compliance Matrix: (Units=1/GPa)
#
#
# Indices 1 2 3 4 5 6 
#
# 1 0.010418 -0.004303 -0.002321 0.000000 0.000000 0.000000
# 2 -0.004303 0.012430 -0.000298 0.000000 0.000000 0.000000
# 3 -0.002321 -0.000298 0.008130 0.000000 0.000000 0.000000
# 4 0.000000 0.000000 0.000000 0.029452 0.000000 0.000000
# 5 0.000000 0.000000 0.000000 0.000000 0.021516 0.000000
# 6 0.000000 0.000000 0.000000 0.000000 0.000000 0.039884
#
#
# Mechanical properties :
#
#
# Convention : Reuss Voigt Hill
#
# Bulk Modulus (GPa) = 58.36579 60.23131 59.29855
# Shear Modulus (GPa) = 35.36372 38.18891 36.77632
#
# Velocity S-wave (km/s) = 4.18361 4.34751 4.26635
# Velocity P-wave (km/s) = 7.22660 7.41697 7.32240
#
# Compressibility (1/GPa) = 0.01713333
#
# Stress axis : x y z
#
# Youngs Moduli (GPa) = 95.98450 80.44809 123.00293
#
# Poissons Ratio (x) = 0.34615 0.28553
# Poissons Ratio (y) = 0.41300 0.03671
# Poissons Ratio (z) = 0.22281 0.02401
#
# Static dielectric constant tensor:
#      x y z
#    x 3.601830 0.000000 0.000000 
#    y 0.000000 3.966460 0.000000 
#    z 0.000000 0.000000 3.899150 
# 
# 
# High freq. dielectric constant tensor:
#      x y z
#    x 1.784150 0.000000 0.000000 
#    y 0.000000 1.808030 0.000000 
#    z 0.000000 0.000000 1.815250 
# 
# From -- ./inp_files/12986.got.cif
#   From: 2010.03.12/outbox.cif.g09.slc.cpg/sg72_7_cif.got.tgz:12986.got - 2010.04.16 14:54:00.
