data_PCOD8294200
_publ_section_title
;
Structure prediction by ZEFSAII (Michael W. Deem and Ramdas Pophale) SiO2 
 PCOD8294200
Probable space group: I B A M
;
_chemical_formula_sum "Si O2"
_cell_formula_units_Z 52
_cell_length_a 19.172088
_cell_length_b 15.698125
_cell_length_c 8.974413
_cell_angle_alpha 90.000000
_cell_angle_beta 90.000000
_cell_angle_gamma 90.000000
_cell_volume 2700.991693
_symmetry_space_group_name_H-M "I B A M"
_symmetry_group_IT_number 72
_symmetry_cell_setting 'orthorhombic'
loop_
_space_group_symop_operation_xyz
x,y,z
-x,-y,z
x,-y,1/2-z
-x,y,1/2-z
-x,-y,-z
x,y,-z
-x,y,1/2+z
x,-y,1/2+z
1/2+x,1/2+y,1/2+z
1/2-x,1/2-y,1/2+z
1/2+x,1/2-y,-z
1/2-x,1/2+y,-z
1/2-x,1/2-y,1/2-z
1/2+x,1/2+y,1/2-z
1/2-x,1/2+y,z
1/2+x,1/2-y,z
loop_
_atom_site_type_symbol
_atom_site_label
_atom_site_fract_x
_atom_site_fract_y
_atom_site_fract_z
Si Si1 0.064706 0.162177 0.164510
Si Si2 0.675713 0.756657 0.825363
Si Si3 0.000000 0.000000 0.250000
Si Si4 0.073420 0.588983 0.177227
O O1 0.133511 0.176246 0.261471
O O2 0.000000 0.207874 0.250000
O O3 0.072655 0.201921 0.000000
O O4 0.049645 0.060749 0.150137
O O5 0.750000 0.750000 0.750000
O O6 0.633620 0.842618 0.783976
O O7 0.685182 0.746426 0.000000
O O8 0.097818 0.500000 0.250000
O O9 0.000000 0.617528 0.250000
O O10 0.063922 0.578789 0.000000
#
# Coordination Sequence:
#
# PCOD8294200 Si02
#       4
#    16  16   4  16
#     4  10  20  36  60  87 118 153 194 240 287 344
#     4  11  24  40  59  86 120 158 198 240 294 354
#     4   8  22  36  62  92 120 148 196 236 294 344
#     4  10  21  38  62  89 114 148 193 242 290 341
#
# _framework density 19.252188
#
# number of rings (size 3 to 8) (size 9 to 14) (size 15 to 20)
#    0.923    0.923    0.000    5.077    0.000    7.385 
#    2.769    0.000    0.000    0.000    0.000    0.000 
#    0.000    0.000    0.000    0.000    0.000    0.000 
#
# Total GULP energy -322196.691779 kJ/mol
# GULP energy per Si atom -12392.180453 kJ/mol
# Density = 1.920837 g / cm^3
# Si number density = 19.252188 Si / 1000 Ang^3
#
#
#
# Elastic Constant Matrix: (Units=GPa)
#
#
# Indices 1 2 3 4 5 6 
#
# 1 177.2488 68.3758 80.2876 0.0000 0.0000 0.0000
# 2 68.3758 107.0097 54.0216 0.0000 0.0000 0.0000
# 3 80.2876 54.0216 154.1310 0.0000 0.0000 0.0000
# 4 0.0000 0.0000 0.0000 27.1860 0.0000 0.0000
# 5 0.0000 0.0000 0.0000 0.0000 38.8540 0.0000
# 6 0.0000 0.0000 0.0000 0.0000 0.0000 21.8674
#
#
#
# Elastic Compliance Matrix: (Units=1/GPa)
#
#
# Indices 1 2 3 4 5 6 
#
# 1 0.008544 -0.003903 -0.003082 0.000000 0.000000 0.000000
# 2 -0.003903 0.013137 -0.002571 0.000000 0.000000 0.000000
# 3 -0.003082 -0.002571 0.008995 0.000000 0.000000 0.000000
# 4 0.000000 0.000000 0.000000 0.036784 0.000000 0.000000
# 5 0.000000 0.000000 0.000000 0.000000 0.025737 0.000000
# 6 0.000000 0.000000 0.000000 0.000000 0.000000 0.045730
#
#
# Mechanical properties :
#
#
# Convention : Reuss Voigt Hill
#
# Bulk Modulus (GPa) = 86.49070 93.75103 90.12087
# Shear Modulus (GPa) = 30.88439 33.29512 32.08976
#
# Velocity S-wave (km/s) = 4.00959 4.16314 4.08709
# Velocity P-wave (km/s) = 8.15221 8.48004 8.31774
#
# Compressibility (1/GPa) = 0.01156194
#
# Stress axis : x y z
#
# Youngs Moduli (GPa) = 117.04565 76.12148 111.17449
#
# Poissons Ratio (x) = 0.29710 0.34269
# Poissons Ratio (y) = 0.45683 0.28586
# Poissons Ratio (z) = 0.36079 0.19573
#
# Static dielectric constant tensor:
#      x y z
#    x 3.338660 0.000000 0.000000 
#    y 0.000000 3.469980 0.000000 
#    z 0.000000 0.000000 3.529740 
# 
# 
# High freq. dielectric constant tensor:
#      x y z
#    x 1.736550 0.000000 0.000000 
#    y 0.000000 1.744570 0.000000 
#    z 0.000000 0.000000 1.765080 
# 
# From -- ./inp_files/3120.got.cif
#   From: 2010.03.12/outbox.cif.g09.slc.cpg/sg72_2_cif.got.tgz:3120.got - 2010.04.16 14:54:00.
