data_PCOD8294376
_publ_section_title
;
Structure prediction by ZEFSAII (Michael W. Deem and Ramdas Pophale) SiO2 
 PCOD8294376
Probable space group: I B A M
;
_chemical_formula_sum "Si O2"
_cell_formula_units_Z 80
_cell_length_a 16.407022
_cell_length_b 8.793163
_cell_length_c 26.688930
_cell_angle_alpha 90.000000
_cell_angle_beta 90.000000
_cell_angle_gamma 90.000000
_cell_volume 3850.401757
_symmetry_space_group_name_H-M "I B A M"
_symmetry_group_IT_number 72
_symmetry_cell_setting 'orthorhombic'
loop_
_space_group_symop_operation_xyz
x,y,z
-x,-y,z
x,-y,1/2-z
-x,y,1/2-z
-x,-y,-z
x,y,-z
-x,y,1/2+z
x,-y,1/2+z
1/2+x,1/2+y,1/2+z
1/2-x,1/2-y,1/2+z
1/2+x,1/2-y,-z
1/2-x,1/2+y,-z
1/2-x,1/2-y,1/2-z
1/2+x,1/2+y,1/2-z
1/2-x,1/2+y,z
1/2+x,1/2-y,z
loop_
_atom_site_type_symbol
_atom_site_label
_atom_site_fract_x
_atom_site_fract_y
_atom_site_fract_z
Si Si1 0.851142 0.794277 0.558732
Si Si2 0.146820 0.709116 0.665435
Si Si3 0.594842 0.666730 0.762276
Si Si4 0.523776 0.673463 0.861640
Si Si5 0.755443 0.456951 0.112164
O O1 0.863443 0.806137 0.500000
O O2 0.940997 0.801517 0.583160
O O3 0.809322 0.636103 0.572856
O O4 0.798869 0.934933 0.578067
O O5 0.143683 0.716053 0.726417
O O6 0.185895 0.550354 0.649417
O O7 0.198440 0.850419 0.645225
O O8 0.054805 0.719230 0.644071
O O9 0.630593 0.500000 0.750000
O O10 0.500000 0.672068 0.750000
O O11 0.597975 0.710896 0.821525
O O12 0.500000 0.500000 0.850834
#
# Coordination Sequence:
#
# PCOD8294376 Si02
#       5
#    16  16  16  16  16
#     4  11  23  41  63  88 120 163 209 260 313 363
#     4  10  20  38  63  90 121 165 198 252 310 369
#     4   9  14  30  59  86 114 153 193 236 297 355
#     4  11  19  37  63  92 120 159 210 251 300 369
#     4  10  22  41  60  89 127 159 204 258 312 372
#
# _framework density 20.777052999999999
#
# number of rings (size 3 to 8) (size 9 to 14) (size 15 to 20)
#    0.000    1.800    6.000    0.600    0.000    1.200 
#    0.000   15.000    0.000    3.600    0.000    0.000 
#    0.000    0.000    0.000    0.000    0.000    0.000 
#
# Total GULP energy -495902.741458 kJ/mol
# GULP energy per Si atom -12397.568536 kJ/mol
# Density = 2.072976 g / cm^3
# Si number density = 20.777053 Si / 1000 Ang^3
#
#
#
# Elastic Constant Matrix: (Units=GPa)
#
#
# Indices 1 2 3 4 5 6 
#
# 1 80.4754 30.5656 58.2703 0.0000 0.0000 0.0000
# 2 30.5656 77.6170 34.6585 0.0000 0.0000 0.0000
# 3 58.2703 34.6585 150.7902 0.0000 0.0000 0.0000
# 4 0.0000 0.0000 0.0000 22.1751 0.0000 0.0000
# 5 0.0000 0.0000 0.0000 0.0000 27.2726 0.0000
# 6 0.0000 0.0000 0.0000 0.0000 0.0000 19.3292
#
#
#
# Elastic Compliance Matrix: (Units=1/GPa)
#
#
# Indices 1 2 3 4 5 6 
#
# 1 0.018614 -0.004589 -0.006138 0.000000 0.000000 0.000000
# 2 -0.004589 0.015489 -0.001787 0.000000 0.000000 0.000000
# 3 -0.006138 -0.001787 0.009414 0.000000 0.000000 0.000000
# 4 0.000000 0.000000 0.000000 0.045096 0.000000 0.000000
# 5 0.000000 0.000000 0.000000 0.000000 0.036667 0.000000
# 6 0.000000 0.000000 0.000000 0.000000 0.000000 0.051735
#
#
# Mechanical properties :
#
#
# Convention : Reuss Voigt Hill
#
# Bulk Modulus (GPa) = 54.08644 61.76348 57.92496
# Shear Modulus (GPa) = 24.01477 26.11461 25.06469
#
# Velocity S-wave (km/s) = 3.40344 3.54912 3.47704
# Velocity P-wave (km/s) = 6.44460 6.82542 6.63774
#
# Compressibility (1/GPa) = 0.01848892
#
# Stress axis : x y z
#
# Youngs Moduli (GPa) = 53.72397 64.56283 106.22090
#
# Poissons Ratio (x) = 0.29629 0.65200
# Poissons Ratio (y) = 0.24655 0.18978
# Poissons Ratio (z) = 0.32976 0.11535
#
# Static dielectric constant tensor:
#      x y z
#    x 3.781220 0.000000 0.000000 
#    y 0.000000 3.696010 0.000000 
#    z 0.000000 0.000000 4.033690 
# 
# 
# High freq. dielectric constant tensor:
#      x y z
#    x 1.811270 0.000000 0.000000 
#    y 0.000000 1.801950 0.000000 
#    z 0.000000 0.000000 1.812140 
# 
# From -- ./inp_files/47175.got.cif
#   From: 2010.03.12/outbox.cif.g09.slc.cpg/sg72_24_cif.got.tgz:47175.got - 2010.04.16 14:54:00.
