data_PCOD8294154
_publ_section_title
;
Structure prediction by ZEFSAII (Michael W. Deem and Ramdas Pophale) SiO2 
 PCOD8294154
Probable space group: I B A M
;
_chemical_formula_sum "Si O2"
_cell_formula_units_Z 80
_cell_length_a 25.090288
_cell_length_b 9.323226
_cell_length_c 16.412056
_cell_angle_alpha 90.000000
_cell_angle_beta 90.000000
_cell_angle_gamma 90.000000
_cell_volume 3839.147946
_symmetry_space_group_name_H-M "I B A M"
_symmetry_group_IT_number 72
_symmetry_cell_setting 'orthorhombic'
loop_
_space_group_symop_operation_xyz
x,y,z
-x,-y,z
x,-y,1/2-z
-x,y,1/2-z
-x,-y,-z
x,y,-z
-x,y,1/2+z
x,-y,1/2+z
1/2+x,1/2+y,1/2+z
1/2-x,1/2-y,1/2+z
1/2+x,1/2-y,-z
1/2-x,1/2+y,-z
1/2-x,1/2-y,1/2-z
1/2+x,1/2+y,1/2-z
1/2-x,1/2+y,z
1/2+x,1/2-y,z
loop_
_atom_site_type_symbol
_atom_site_label
_atom_site_fract_x
_atom_site_fract_y
_atom_site_fract_z
Si Si1 0.417489 0.344330 0.903764
Si Si2 0.198144 0.768456 0.906823
Si Si3 0.512935 0.157562 0.902832
Si Si4 0.610433 0.341653 0.096323
Si Si5 0.217416 0.064679 0.160685
O O1 0.362979 0.266298 0.875686
O O2 0.468234 0.263654 0.865411
O O3 0.418258 0.510228 0.877204
O O4 0.420650 0.335464 0.000000
O O5 0.229988 0.660784 0.848451
O O6 0.219228 0.932029 0.902016
O O7 0.203933 0.717218 0.000000
O O8 0.571703 0.211648 0.875927
O O9 0.500000 0.000000 0.868071
O O10 0.509949 0.158318 0.000000
O O11 0.666910 0.331461 0.142434
O O12 0.621460 0.337437 0.000000
O O13 0.213597 0.000000 0.250000
#
# Coordination Sequence:
#
# PCOD8294154 Si02
#       5
#    16  16  16  16  16
#     4   8  15  28  47  71  98 134 179 226 276 330
#     4  10  20  36  57  79 107 145 191 237 284 343
#     4   9  16  26  45  77 108 132 170 227 283 328
#     4   9  17  31  51  73 103 143 183 223 273 337
#     4  11  22  36  54  82 114 149 190 236 289 344
#
# _framework density 20.837955999999998
#
# number of rings (size 3 to 8) (size 9 to 14) (size 15 to 20)
#    0.000    2.600    0.000    4.200    0.000    4.000 
#    0.000    4.000    0.000    9.600    0.000    5.600 
#    0.000    0.000    0.000    0.000    0.000    0.600 
#
# Total GULP energy -495872.982939 kJ/mol
# GULP energy per Si atom -12396.824573 kJ/mol
# Density = 2.079053 g / cm^3
# Si number density = 20.837956 Si / 1000 Ang^3
#
#
#
# Elastic Constant Matrix: (Units=GPa)
#
#
# Indices 1 2 3 4 5 6 
#
# 1 109.1770 50.0462 34.9893 0.0000 0.0000 0.0000
# 2 50.0462 79.8324 21.2057 0.0000 0.0000 0.0000
# 3 34.9893 21.2057 47.5713 0.0000 0.0000 0.0000
# 4 0.0000 0.0000 0.0000 17.2236 0.0000 0.0000
# 5 0.0000 0.0000 0.0000 0.0000 9.1182 0.0000
# 6 0.0000 0.0000 0.0000 0.0000 0.0000 45.5177
#
#
#
# Elastic Compliance Matrix: (Units=1/GPa)
#
#
# Indices 1 2 3 4 5 6 
#
# 1 0.015020 -0.007352 -0.007770 0.000000 0.000000 0.000000
# 2 -0.007352 0.017807 -0.002531 0.000000 0.000000 0.000000
# 3 -0.007770 -0.002531 0.027864 0.000000 0.000000 0.000000
# 4 0.000000 0.000000 0.000000 0.058060 0.000000 0.000000
# 5 0.000000 0.000000 0.000000 0.000000 0.109671 0.000000
# 6 0.000000 0.000000 0.000000 0.000000 0.000000 0.021969
#
#
# Mechanical properties :
#
#
# Convention : Reuss Voigt Hill
#
# Bulk Modulus (GPa) = 39.39129 49.89589 44.64359
# Shear Modulus (GPa) = 16.99772 23.06122 20.02947
#
# Velocity S-wave (km/s) = 2.85916 3.33031 3.10369
# Velocity P-wave (km/s) = 5.46300 6.22773 5.85786
#
# Compressibility (1/GPa) = 0.02538632
#
# Stress axis : x y z
#
# Youngs Moduli (GPa) = 66.57984 56.15731 35.88856
#
# Poissons Ratio (x) = 0.41285 0.27885
# Poissons Ratio (y) = 0.48947 0.09082
# Poissons Ratio (z) = 0.51732 0.14211
#
# Static dielectric constant tensor:
#      x y z
#    x 3.988730 0.000000 0.000000 
#    y 0.000000 3.873870 0.000000 
#    z 0.000000 0.000000 3.265230 
# 
# 
# High freq. dielectric constant tensor:
#      x y z
#    x 1.823120 0.000000 0.000000 
#    y 0.000000 1.808070 0.000000 
#    z 0.000000 0.000000 1.770260 
# 
# From -- ./inp_files/33778.got.cif
#   From: 2010.03.12/outbox.cif.g09.slc.cpg/sg72_17_cif.got.tgz:33778.got - 2010.04.16 14:54:00.
