data_PCOD8294127
_publ_section_title
;
Structure prediction by ZEFSAII (Michael W. Deem and Ramdas Pophale) SiO2 
 PCOD8294127
Probable space group: I B A M
;
_chemical_formula_sum "Si O2"
_cell_formula_units_Z 116
_cell_length_a 26.668136
_cell_length_b 27.223519
_cell_length_c 8.935664
_cell_angle_alpha 90.000000
_cell_angle_beta 90.000000
_cell_angle_gamma 90.000000
_cell_volume 6487.296595
_symmetry_space_group_name_H-M "I B A M"
_symmetry_group_IT_number 72
_symmetry_cell_setting 'orthorhombic'
loop_
_space_group_symop_operation_xyz
x,y,z
-x,-y,z
x,-y,1/2-z
-x,y,1/2-z
-x,-y,-z
x,y,-z
-x,y,1/2+z
x,-y,1/2+z
1/2+x,1/2+y,1/2+z
1/2-x,1/2-y,1/2+z
1/2+x,1/2-y,-z
1/2-x,1/2+y,-z
1/2-x,1/2-y,1/2-z
1/2+x,1/2+y,1/2-z
1/2-x,1/2+y,z
1/2+x,1/2-y,z
loop_
_atom_site_type_symbol
_atom_site_label
_atom_site_fract_x
_atom_site_fract_y
_atom_site_fract_z
Si Si1 0.000000 0.500000 0.250000
Si Si2 0.816185 0.286140 0.821636
Si Si3 0.842328 0.815950 0.822903
Si Si4 0.080164 0.423695 0.833993
Si Si5 0.687635 0.049332 0.176657
Si Si6 0.586447 0.817846 0.676916
Si Si7 0.255966 0.640878 0.322967
Si Si8 0.549032 0.285868 0.826035
O O1 0.036189 0.464167 0.157599
O O2 0.820002 0.234015 0.742342
O O3 0.861613 0.320293 0.766138
O O4 0.766162 0.312280 0.763925
O O5 0.815920 0.280262 0.000000
O O6 0.813484 0.860993 0.739510
O O7 0.901806 0.817780 0.784882
O O8 0.833698 0.818128 0.000000
O O9 0.131481 0.441097 0.752678
O O10 0.060087 0.370132 0.777956
O O11 0.099111 0.413614 0.000000
O O12 0.725894 0.092196 0.222991
O O13 0.708984 0.000000 0.250000
O O14 0.686158 0.041985 0.000000
O O15 0.597372 0.812033 0.500000
O O16 0.554784 0.770748 0.731471
O O17 0.254896 0.649457 0.500000
O O18 0.500000 0.309344 0.750000
O O19 0.538957 0.286477 0.000000
#
# Coordination Sequence:
#
# PCOD8294127 Si02
#       8
#     4  16  16  16  16  16  16  16
#     4  12  22  32  52  74  92 124 182 232 280 320
#     4  11  20  31  50  77 103 132 170 212 257 315
#     4  10  21  36  52  75 107 138 170 210 254 305
#     4  10  20  36  51  66  94 129 168 222 278 318
#     4  10  21  38  57  75  99 133 170 215 270 319
#     4   9  18  35  51  66  96 134 171 215 266 311
#     4  11  21  35  54  75 102 137 170 210 263 315
#     4   9  19  33  52  73 101 136 168 206 251 299
#
# _framework density 17.881101000000001
#
# number of rings (size 3 to 8) (size 9 to 14) (size 15 to 20)
#    0.000    1.931    2.069    3.517    0.966    3.862 
#    0.000    1.379    0.000    0.000    0.000    0.000 
#    0.000    0.552    0.000    6.069    0.000    4.414 
#
# Total GULP energy -718638.437595 kJ/mol
# GULP energy per Si atom -12390.317890 kJ/mol
# Density = 1.784040 g / cm^3
# Si number density = 17.881101 Si / 1000 Ang^3
#
#
#
# Elastic Constant Matrix: (Units=GPa)
#
#
# Indices 1 2 3 4 5 6 
#
# 1 126.0262 52.3882 33.9656 0.0000 0.0000 0.0000
# 2 52.3882 61.8359 22.4800 0.0000 0.0000 0.0000
# 3 33.9656 22.4800 48.1278 0.0000 0.0000 0.0000
# 4 0.0000 0.0000 0.0000 22.3073 0.0000 0.0000
# 5 0.0000 0.0000 0.0000 0.0000 28.0771 0.0000
# 6 0.0000 0.0000 0.0000 0.0000 0.0000 28.7168
#
#
#
# Elastic Compliance Matrix: (Units=1/GPa)
#
#
# Indices 1 2 3 4 5 6 
#
# 1 0.013146 -0.009353 -0.004909 0.000000 0.000000 0.000000
# 2 -0.009353 0.026134 -0.005606 0.000000 0.000000 0.000000
# 3 -0.004909 -0.005606 0.026861 0.000000 0.000000 0.000000
# 4 0.000000 0.000000 0.000000 0.044828 0.000000 0.000000
# 5 0.000000 0.000000 0.000000 0.000000 0.035616 0.000000
# 6 0.000000 0.000000 0.000000 0.000000 0.000000 0.034823
#
#
# Mechanical properties :
#
#
# Convention : Reuss Voigt Hill
#
# Bulk Modulus (GPa) = 37.87189 50.40638 44.13913
# Shear Modulus (GPa) = 21.74436 24.29732 23.02084
#
# Velocity S-wave (km/s) = 3.49098 3.69023 3.59198
# Velocity P-wave (km/s) = 6.12169 6.81234 6.47623
#
# Compressibility (1/GPa) = 0.02640481
#
# Stress axis : x y z
#
# Youngs Moduli (GPa) = 76.07063 38.26495 37.22871
#
# Poissons Ratio (x) = 0.35788 0.18275
# Poissons Ratio (y) = 0.71146 0.20871
# Poissons Ratio (z) = 0.37342 0.21452
#
# Static dielectric constant tensor:
#      x y z
#    x 3.461430 0.000000 0.000000 
#    y 0.000000 3.213000 0.000000 
#    z 0.000000 0.000000 3.167390 
# 
# 
# High freq. dielectric constant tensor:
#      x y z
#    x 1.689350 0.000000 0.000000 
#    y 0.000000 1.659830 0.000000 
#    z 0.000000 0.000000 1.683860 
# 
# From -- ./inp_files/9490.got.cif
#   From: 2010.03.12/outbox.cif.g09.slc.cpg/sg72_5_cif.got.tgz:9490.got - 2010.04.16 14:54:00.
