data_PCOD8294303
_publ_section_title
;
Structure prediction by ZEFSAII (Michael W. Deem and Ramdas Pophale) SiO2 
 PCOD8294303
Probable space group: I B A M
;
_chemical_formula_sum "Si O2"
_cell_formula_units_Z 108
_cell_length_a 18.776206
_cell_length_b 14.350979
_cell_length_c 20.390080
_cell_angle_alpha 90.000000
_cell_angle_beta 90.000000
_cell_angle_gamma 90.000000
_cell_volume 5494.248522
_symmetry_space_group_name_H-M "I B A M"
_symmetry_group_IT_number 72
_symmetry_cell_setting 'orthorhombic'
loop_
_space_group_symop_operation_xyz
x,y,z
-x,-y,z
x,-y,1/2-z
-x,y,1/2-z
-x,-y,-z
x,y,-z
-x,y,1/2+z
x,-y,1/2+z
1/2+x,1/2+y,1/2+z
1/2-x,1/2-y,1/2+z
1/2+x,1/2-y,-z
1/2-x,1/2+y,-z
1/2-x,1/2-y,1/2-z
1/2+x,1/2+y,1/2-z
1/2-x,1/2+y,z
1/2+x,1/2-y,z
loop_
_atom_site_type_symbol
_atom_site_label
_atom_site_fract_x
_atom_site_fract_y
_atom_site_fract_z
Si Si1 0.796156 0.026660 0.574956
Si Si2 0.441403 0.422980 0.370406
Si Si3 0.500000 0.319535 0.250000
Si Si4 0.281046 0.846798 0.076950
Si Si5 0.314450 0.815408 0.425842
Si Si6 0.500000 0.000000 0.750000
Si Si7 0.430801 0.222885 0.575580
Si Si8 0.054301 0.659834 0.835673
O O1 0.820304 0.004367 0.500000
O O2 0.864653 0.027933 0.622339
O O3 0.757148 0.124679 0.578221
O O4 0.738855 0.950562 0.600359
O O5 0.500000 0.500000 0.390308
O O6 0.453236 0.386426 0.296386
O O7 0.444290 0.333776 0.418469
O O8 0.553728 0.252966 0.290724
O O9 0.211782 0.786426 0.095822
O O10 0.354922 0.808357 0.107518
O O11 0.293727 0.841807 0.000000
O O12 0.345629 0.817130 0.500000
O O13 0.373315 0.848907 0.375600
O O14 0.449463 0.934051 0.706621
O O15 0.437285 0.195034 0.500000
O O16 0.488578 0.163417 0.614573
#
# Coordination Sequence:
#
# PCOD8294303 Si02
#       8
#    16  16   8  16  16   4  16  16
#     4  10  21  36  59  92 124 156 189 238 311 373
#     4  11  22  38  62  84 120 161 202 247 291 350
#     4   9  23  43  59  80 118 162 211 255 291 331
#     4   9  19  35  56  86 130 157 178 230 305 376
#     4  10  20  38  62  94 125 148 189 250 312 372
#     4  10  24  44  60  76 114 160 216 258 284 330
#     4  10  20  37  61  93 123 154 189 243 313 366
#     4  10  22  40  65  81 115 160 207 250 295 354
#
# _framework density 19.656918999999998
#
# number of rings (size 3 to 8) (size 9 to 14) (size 15 to 20)
#    0.000    2.074    1.481    1.111    6.222    1.185 
#    0.000    1.481    3.259    0.000    0.000    0.000 
#    0.000    0.000    0.000    0.000    0.000    0.000 
#
# Total GULP energy -669494.280664 kJ/mol
# GULP energy per Si atom -12398.042235 kJ/mol
# Density = 1.961218 g / cm^3
# Si number density = 19.656919 Si / 1000 Ang^3
#
#
#
# Elastic Constant Matrix: (Units=GPa)
#
#
# Indices 1 2 3 4 5 6 
#
# 1 117.1385 35.2363 52.8291 0.0000 0.0000 0.0000
# 2 35.2363 91.3179 27.5397 0.0000 0.0000 0.0000
# 3 52.8291 27.5397 84.4756 0.0000 0.0000 0.0000
# 4 0.0000 0.0000 0.0000 25.9283 0.0000 0.0000
# 5 0.0000 0.0000 0.0000 0.0000 16.5717 0.0000
# 6 0.0000 0.0000 0.0000 0.0000 0.0000 24.6795
#
#
#
# Elastic Compliance Matrix: (Units=1/GPa)
#
#
# Indices 1 2 3 4 5 6 
#
# 1 0.012475 -0.002729 -0.006912 0.000000 0.000000 0.000000
# 2 -0.002729 0.012742 -0.002447 0.000000 0.000000 0.000000
# 3 -0.006912 -0.002447 0.016958 0.000000 0.000000 0.000000
# 4 0.000000 0.000000 0.000000 0.038568 0.000000 0.000000
# 5 0.000000 0.000000 0.000000 0.000000 0.060344 0.000000
# 6 0.000000 0.000000 0.000000 0.000000 0.000000 0.040519
#
#
# Mechanical properties :
#
#
# Convention : Reuss Voigt Hill
#
# Bulk Modulus (GPa) = 55.56017 58.23805 56.89911
# Shear Modulus (GPa) = 23.60916 25.25771 24.43344
#
# Velocity S-wave (km/s) = 3.46939 3.58848 3.52944
# Velocity P-wave (km/s) = 6.66147 6.84552 6.75412
#
# Compressibility (1/GPa) = 0.01799850
#
# Stress axis : x y z
#
# Youngs Moduli (GPa) = 80.15954 78.48139 58.96897
#
# Poissons Ratio (x) = 0.21419 0.40759
# Poissons Ratio (y) = 0.21877 0.14431
# Poissons Ratio (z) = 0.55406 0.19206
#
# Static dielectric constant tensor:
#      x y z
#    x 3.481220 0.000000 0.000000 
#    y 0.000000 3.742970 0.000000 
#    z 0.000000 0.000000 3.460980 
# 
# 
# High freq. dielectric constant tensor:
#      x y z
#    x 1.760600 0.000000 0.000000 
#    y 0.000000 1.778460 0.000000 
#    z 0.000000 0.000000 1.742900 
# 
# From -- ./inp_files/39859.got.cif
#   From: 2010.03.12/outbox.cif.g09.slc.cpg/sg72_20_cif.got.tgz:39859.got - 2010.04.16 14:54:00.
