data_PCOD8294760
_publ_section_title
;
Structure prediction by ZEFSAII (Michael W. Deem and Ramdas Pophale) SiO2 
 PCOD8294760
Probable space group: I B A M
;
_chemical_formula_sum "Si O2"
_cell_formula_units_Z 64
_cell_length_a 14.329255
_cell_length_b 24.066344
_cell_length_c 8.652170
_cell_angle_alpha 90.000000
_cell_angle_beta 90.000000
_cell_angle_gamma 90.000000
_cell_volume 2983.724878
_symmetry_space_group_name_H-M "I B A M"
_symmetry_group_IT_number 72
_symmetry_cell_setting 'orthorhombic'
loop_
_space_group_symop_operation_xyz
x,y,z
-x,-y,z
x,-y,1/2-z
-x,y,1/2-z
-x,-y,-z
x,y,-z
-x,y,1/2+z
x,-y,1/2+z
1/2+x,1/2+y,1/2+z
1/2-x,1/2-y,1/2+z
1/2+x,1/2-y,-z
1/2-x,1/2+y,-z
1/2-x,1/2-y,1/2-z
1/2+x,1/2+y,1/2-z
1/2-x,1/2+y,z
1/2+x,1/2-y,z
loop_
_atom_site_type_symbol
_atom_site_label
_atom_site_fract_x
_atom_site_fract_y
_atom_site_fract_z
Si Si1 0.101067 0.266602 0.321433
Si Si2 0.103841 0.843182 0.317561
Si Si3 0.724239 0.441761 0.682146
Si Si4 0.897799 0.610449 0.679535
O O1 0.093285 0.249688 0.500000
O O2 0.152594 0.215906 0.231456
O O3 0.147377 0.327488 0.300905
O O4 0.000000 0.273878 0.250000
O O5 0.102655 0.848556 0.500000
O O6 0.159337 0.894134 0.248824
O O7 0.000000 0.843839 0.250000
O O8 0.688685 0.500000 0.750000
O O9 0.715673 0.442947 0.500000
O O10 0.831066 0.432107 0.732141
O O11 0.902435 0.594383 0.500000
O O12 0.000000 0.605096 0.750000
#
# Coordination Sequence:
#
# PCOD8294760 Si02
#       4
#    16  16  16  16
#     4   9  17  32  57  89 123 156 193 238 291 351
#     4  11  22  39  63  91 123 158 197 242 296 354
#     4  12  26  44  63  86 117 155 203 252 298 351
#     4  10  21  39  63  92 124 159 198 243 297 353
#
# _framework density 21.449698999999999
#
# number of rings (size 3 to 8) (size 9 to 14) (size 15 to 20)
#    0.000    1.500    0.000    7.500    0.000    5.000 
#    0.000    5.000    0.000    0.000    0.000    0.000 
#    0.000    0.000    0.000    0.000    0.000    0.000 
#
# Total GULP energy -396743.459929 kJ/mol
# GULP energy per Si atom -12398.233123 kJ/mol
# Density = 2.140088 g / cm^3
# Si number density = 21.449699 Si / 1000 Ang^3
#
#
#
# Elastic Constant Matrix: (Units=GPa)
#
#
# Indices 1 2 3 4 5 6 
#
# 1 29.2291 6.9270 20.3728 -0.0021 -0.0006 -0.0001
# 2 6.9270 95.3102 43.6390 0.0000 0.0000 0.0001
# 3 20.3728 43.6390 195.6749 -0.0078 0.0016 0.0027
# 4 -0.0021 0.0000 -0.0078 -58.5338 0.0068 -0.0022
# 5 -0.0006 0.0000 0.0016 0.0068 34.3255 -0.0004
# 6 -0.0001 0.0001 0.0027 -0.0022 -0.0004 37.4003
#
#
#
# Elastic Compliance Matrix: (Units=1/GPa)
#
#
# Indices 1 2 3 4 5 6 
#
# 1 0.036980 -0.001030 -0.003620 -0.000001 0.000001 0.000000
# 2 -0.001030 0.011714 -0.002505 0.000000 0.000000 0.000000
# 3 -0.003620 -0.002505 0.006046 -0.000001 0.000000 0.000000
# 4 -0.000001 0.000000 -0.000001 -0.017084 0.000003 -0.000001
# 5 0.000001 0.000000 0.000000 0.000003 0.029133 0.000000
# 6 0.000000 0.000000 0.000000 -0.000001 0.000000 0.026738
#
#
# Mechanical properties :
#
#
# Convention : Reuss Voigt Hill
#
# Bulk Modulus (GPa) = 24.73477 51.34352 38.03914
# Shear Modulus (GPa) = 41.21527 19.25676 30.23602
#
# Velocity S-wave (km/s) = 4.38823 2.99952 3.75857
# Velocity P-wave (km/s) = 6.10180 5.99874 6.05049
#
# Compressibility (1/GPa) = 0.04042892
#
# Stress axis : x y z
#
# Youngs Moduli (GPa) = 27.04157 85.36835 165.39400
#
# Poissons Ratio (x) = 0.08793 0.59881
# Poissons Ratio (y) = 0.02785 0.41434
# Poissons Ratio (z) = 0.09790 0.21386
#
# Static dielectric constant tensor:
#      x y z
#    x 3.629170 0.000000 0.000000 
#    y 0.000000 4.419440 0.000000 
#    z 0.000000 0.000000 4.063070 
# 
# 
# High freq. dielectric constant tensor:
#      x y z
#    x 1.824910 0.000000 0.000000 
#    y 0.000000 1.857580 0.000000 
#    z 0.000000 0.000000 1.859740 
# 
# From -- ./inp_files/3445.got.cif
#   From: 2010.03.12/outbox.cif.g09.slc.cpg/sg72_2_cif.got.tgz:3445.got - 2010.04.16 14:54:00.
