data_PCOD8294166
_publ_section_title
;
Structure prediction by ZEFSAII (Michael W. Deem and Ramdas Pophale) SiO2 
 PCOD8294166
Probable space group: I B A M
;
_chemical_formula_sum "Si O2"
_cell_formula_units_Z 96
_cell_length_a 27.303181
_cell_length_b 20.378743
_cell_length_c 8.757789
_cell_angle_alpha 90.000000
_cell_angle_beta 90.000000
_cell_angle_gamma 90.000000
_cell_volume 4872.873286
_symmetry_space_group_name_H-M "I B A M"
_symmetry_group_IT_number 72
_symmetry_cell_setting 'orthorhombic'
loop_
_space_group_symop_operation_xyz
x,y,z
-x,-y,z
x,-y,1/2-z
-x,y,1/2-z
-x,-y,-z
x,y,-z
-x,y,1/2+z
x,-y,1/2+z
1/2+x,1/2+y,1/2+z
1/2-x,1/2-y,1/2+z
1/2+x,1/2-y,-z
1/2-x,1/2+y,-z
1/2-x,1/2-y,1/2-z
1/2+x,1/2+y,1/2-z
1/2-x,1/2+y,z
1/2+x,1/2-y,z
loop_
_atom_site_type_symbol
_atom_site_label
_atom_site_fract_x
_atom_site_fract_y
_atom_site_fract_z
Si Si1 0.100276 0.430384 0.179784
Si Si2 0.886102 0.806541 0.822824
Si Si3 0.772547 0.185821 0.678559
Si Si4 0.052240 0.932571 0.679566
Si Si5 0.551664 0.194557 0.680250
Si Si6 0.287213 0.930982 0.179084
O O1 0.085083 0.500000 0.250000
O O2 0.065922 0.376050 0.254128
O O3 0.156627 0.413725 0.219440
O O4 0.091190 0.432176 0.000000
O O5 0.829609 0.814865 0.783125
O O6 0.911063 0.874723 0.776767
O O7 0.907449 0.747658 0.723112
O O8 0.894679 0.789185 0.000000
O O9 0.762143 0.185374 0.500000
O O10 0.750000 0.250000 0.750000
O O11 0.748069 0.122794 0.751726
O O12 0.046416 0.941586 0.500000
O O13 0.000000 0.914693 0.750000
O O14 0.073136 0.000000 0.750000
O O15 0.500000 0.217325 0.750000
O O16 0.546910 0.189784 0.500000
O O17 0.271785 0.000000 0.250000
O O18 0.279076 0.934510 0.000000
#
# Coordination Sequence:
#
# PCOD8294166 Si02
#       6
#    16  16  16  16  16  16
#     4  10  21  39  62  88 119 153 192 238 287 342
#     4  10  23  41  59  83 116 152 192 241 290 337
#     4  11  23  39  59  85 118 154 194 241 291 345
#     4  10  20  36  58  83 112 146 184 228 279 334
#     4  12  25  40  61  87 116 152 193 238 289 346
#     4  10  21  38  61  88 119 155 194 239 290 345
#
# _framework density 19.700903
#
# number of rings (size 3 to 8) (size 9 to 14) (size 15 to 20)
#    0.000    1.500    0.000    5.500    0.000   11.000 
#    0.000    3.333    0.000    0.000    0.000    0.000 
#    0.000    0.000    0.000    0.000    0.000    0.000 
#
# Total GULP energy -595499.341999 kJ/mol
# GULP energy per Si atom -12406.236292 kJ/mol
# Density = 1.965606 g / cm^3
# Si number density = 19.700903 Si / 1000 Ang^3
#
#
#
# Elastic Constant Matrix: (Units=GPa)
#
#
# Indices 1 2 3 4 5 6 
#
# 1 75.8496 55.7924 37.4375 0.0000 0.0000 0.0000
# 2 55.7924 130.2638 56.6227 0.0000 0.0000 0.0000
# 3 37.4375 56.6227 102.5198 0.0000 0.0000 0.0000
# 4 0.0000 0.0000 0.0000 41.8826 0.0000 0.0000
# 5 0.0000 0.0000 0.0000 0.0000 31.5094 0.0000
# 6 0.0000 0.0000 0.0000 0.0000 0.0000 44.7235
#
#
#
# Elastic Compliance Matrix: (Units=1/GPa)
#
#
# Indices 1 2 3 4 5 6 
#
# 1 0.020112 -0.007134 -0.003404 0.000000 0.000000 0.000000
# 2 -0.007134 0.012633 -0.004372 0.000000 0.000000 0.000000
# 3 -0.003404 -0.004372 0.013412 0.000000 0.000000 0.000000
# 4 0.000000 0.000000 0.000000 0.023876 0.000000 0.000000
# 5 0.000000 0.000000 0.000000 0.000000 0.031737 0.000000
# 6 0.000000 0.000000 0.000000 0.000000 0.000000 0.022360
#
#
# Mechanical properties :
#
#
# Convention : Reuss Voigt Hill
#
# Bulk Modulus (GPa) = 61.21415 67.59314 64.40365
# Shear Modulus (GPa) = 31.36863 34.20847 32.78855
#
# Velocity S-wave (km/s) = 3.99462 4.17152 4.08403
# Velocity P-wave (km/s) = 7.23983 7.58856 7.41625
#
# Compressibility (1/GPa) = 0.01633609
#
# Stress axis : x y z
#
# Youngs Moduli (GPa) = 49.72175 79.15910 74.56064
#
# Poissons Ratio (x) = 0.56475 0.25380
# Poissons Ratio (y) = 0.35473 0.32597
# Poissons Ratio (z) = 0.16925 0.34608
#
# Static dielectric constant tensor:
#      x y z
#    x 3.637830 0.000000 0.000000 
#    y 0.000000 3.730680 0.000000 
#    z 0.000000 0.000000 3.715120 
# 
# 
# High freq. dielectric constant tensor:
#      x y z
#    x 1.770560 0.000000 0.000000 
#    y 0.000000 1.784460 0.000000 
#    z 0.000000 0.000000 1.781620 
# 
# From -- ./inp_files/8050.got.cif
#   From: 2010.03.12/outbox.cif.g09.slc.cpg/sg72_5_cif.got.tgz:8050.got - 2010.04.16 14:54:00.
