data_PCOD8294035
_publ_section_title
;
Structure prediction by ZEFSAII (Michael W. Deem and Ramdas Pophale) SiO2 
 PCOD8294035
Probable space group: I B A M
;
_chemical_formula_sum "Si O2"
_cell_formula_units_Z 116
_cell_length_a 24.983887
_cell_length_b 28.133666
_cell_length_c 8.782330
_cell_angle_alpha 90.000000
_cell_angle_beta 90.000000
_cell_angle_gamma 90.000000
_cell_volume 6172.997287
_symmetry_space_group_name_H-M "I B A M"
_symmetry_group_IT_number 72
_symmetry_cell_setting 'orthorhombic'
loop_
_space_group_symop_operation_xyz
x,y,z
-x,-y,z
x,-y,1/2-z
-x,y,1/2-z
-x,-y,-z
x,y,-z
-x,y,1/2+z
x,-y,1/2+z
1/2+x,1/2+y,1/2+z
1/2-x,1/2-y,1/2+z
1/2+x,1/2-y,-z
1/2-x,1/2+y,-z
1/2-x,1/2-y,1/2-z
1/2+x,1/2+y,1/2-z
1/2-x,1/2+y,z
1/2+x,1/2-y,z
loop_
_atom_site_type_symbol
_atom_site_label
_atom_site_fract_x
_atom_site_fract_y
_atom_site_fract_z
Si Si1 0.172844 0.623565 0.320269
Si Si2 0.372405 0.547160 0.328422
Si Si3 0.801982 0.725150 0.321667
Si Si4 0.720424 0.603314 0.676212
Si Si5 0.851876 0.191921 0.675371
Si Si6 0.943408 0.135709 0.172746
Si Si7 0.895291 0.546120 0.330334
Si Si8 0.000000 0.500000 0.750000
O O1 0.167471 0.628590 0.500000
O O2 0.178578 0.675554 0.247780
O O3 0.226211 0.594816 0.274423
O O4 0.120906 0.594385 0.259378
O O5 0.394289 0.500000 0.250000
O O6 0.352558 0.538024 0.500000
O O7 0.322821 0.565707 0.230696
O O8 0.422384 0.582226 0.326852
O O9 0.792506 0.717919 0.500000
O O10 0.750000 0.750000 0.250000
O O11 0.848781 0.762507 0.285011
O O12 0.733221 0.594484 0.500000
O O13 0.698867 0.656999 0.702757
O O14 0.854139 0.207840 0.500000
O O15 0.906377 0.166937 0.719839
O O16 0.000000 0.136840 0.250000
O O17 0.945109 0.155528 0.000000
O O18 0.868062 0.500000 0.250000
O O19 0.872546 0.551034 0.500000
O O20 0.959990 0.536184 0.340280
#
# Coordination Sequence:
#
# PCOD8294035 Si02
#       8
#    16  16  16  16  16  16  16   4
#     4  12  24  37  58  90 125 158 200 247 293 349
#     4  10  21  36  54  78 110 147 190 237 294 351
#     4  12  23  37  59  88 123 161 199 241 292 352
#     4  10  20  35  55  79 113 152 191 234 288 350
#     4  10  20  36  59  84 113 151 194 237 292 354
#     4  10  21  37  58  82 109 145 192 243 293 350
#     4  10  21  39  64  92 121 155 198 245 299 360
#     4   8  22  40  74  92 122 156 206 244 312 364
#
# _framework density 18.791520999999999
#
# number of rings (size 3 to 8) (size 9 to 14) (size 15 to 20)
#    0.414    1.103    1.379    4.759    0.000    3.586 
#    0.000    4.138    1.517    0.000    0.000    0.000 
#    0.000    0.000    0.000    0.000    0.000    0.000 
#
# Total GULP energy -718943.694794 kJ/mol
# GULP energy per Si atom -12395.580945 kJ/mol
# Density = 1.874875 g / cm^3
# Si number density = 18.791521 Si / 1000 Ang^3
#
#
#
# Elastic Constant Matrix: (Units=GPa)
#
#
# Indices 1 2 3 4 5 6 
#
# 1 84.7923 32.5767 38.2566 0.0000 0.0000 0.0000
# 2 32.5767 99.7202 54.6411 0.0000 0.0000 0.0000
# 3 38.2566 54.6411 148.6532 0.0000 0.0000 0.0000
# 4 0.0000 0.0000 0.0000 34.7732 0.0000 0.0000
# 5 0.0000 0.0000 0.0000 0.0000 29.8371 0.0000
# 6 0.0000 0.0000 0.0000 0.0000 0.0000 6.6649
#
#
#
# Elastic Compliance Matrix: (Units=1/GPa)
#
#
# Indices 1 2 3 4 5 6 
#
# 1 0.014156 -0.003291 -0.002433 0.000000 0.000000 0.000000
# 2 -0.003291 0.013322 -0.004050 0.000000 0.000000 0.000000
# 3 -0.002433 -0.004050 0.008842 0.000000 0.000000 0.000000
# 4 0.000000 0.000000 0.000000 0.028758 0.000000 0.000000
# 5 0.000000 0.000000 0.000000 0.000000 0.033515 0.000000
# 6 0.000000 0.000000 0.000000 0.000000 0.000000 0.150039
#
#
# Mechanical properties :
#
#
# Convention : Reuss Voigt Hill
#
# Bulk Modulus (GPa) = 59.62564 64.90160 62.26362
# Shear Modulus (GPa) = 18.26339 28.10113 23.18226
#
# Velocity S-wave (km/s) = 3.12091 3.87126 3.51615
# Velocity P-wave (km/s) = 6.69221 7.38883 7.04913
#
# Compressibility (1/GPa) = 0.01677131
#
# Stress axis : x y z
#
# Youngs Moduli (GPa) = 70.64234 75.06175 113.09696
#
# Poissons Ratio (x) = 0.24704 0.27520
# Poissons Ratio (y) = 0.23249 0.45804
# Poissons Ratio (z) = 0.17190 0.30400
#
# Static dielectric constant tensor:
#      x y z
#    x 3.298980 0.000000 0.000000 
#    y 0.000000 3.627340 0.000000 
#    z 0.000000 0.000000 3.750810 
# 
# 
# High freq. dielectric constant tensor:
#      x y z
#    x 1.712360 0.000000 0.000000 
#    y 0.000000 1.725410 0.000000 
#    z 0.000000 0.000000 1.747510 
# 
# From -- ./inp_files/8602.got.cif
#   From: 2010.03.12/outbox.cif.g09.slc.cpg/sg72_5_cif.got.tgz:8602.got - 2010.04.16 14:54:00.
