data_PCOD8294959
_publ_section_title
;
Structure prediction by ZEFSAII (Michael W. Deem and Ramdas Pophale) SiO2 
 PCOD8294959
Probable space group: I B A M
;
_chemical_formula_sum "Si O2"
_cell_formula_units_Z 112
_cell_length_a 13.562217
_cell_length_b 12.584591
_cell_length_c 30.728393
_cell_angle_alpha 90.000000
_cell_angle_beta 90.000000
_cell_angle_gamma 90.000000
_cell_volume 5244.567062
_symmetry_space_group_name_H-M "I B A M"
_symmetry_group_IT_number 72
_symmetry_cell_setting 'orthorhombic'
loop_
_space_group_symop_operation_xyz
x,y,z
-x,-y,z
x,-y,1/2-z
-x,y,1/2-z
-x,-y,-z
x,y,-z
-x,y,1/2+z
x,-y,1/2+z
1/2+x,1/2+y,1/2+z
1/2-x,1/2-y,1/2+z
1/2+x,1/2-y,-z
1/2-x,1/2+y,-z
1/2-x,1/2-y,1/2-z
1/2+x,1/2+y,1/2-z
1/2-x,1/2+y,z
1/2+x,1/2-y,z
loop_
_atom_site_type_symbol
_atom_site_label
_atom_site_fract_x
_atom_site_fract_y
_atom_site_fract_z
Si Si1 0.724160 0.122207 0.197950
Si Si2 0.614933 0.164242 0.411230
Si Si3 0.195299 0.078078 0.950410
Si Si4 0.606220 0.267131 0.258396
Si Si5 0.722668 0.624435 0.901311
Si Si6 0.405768 0.794570 0.949432
Si Si7 0.099630 0.433436 0.319130
O O1 0.651882 0.216437 0.214524
O O2 0.827471 0.137279 0.222865
O O3 0.732814 0.132076 0.146505
O O4 0.682344 0.003723 0.205755
O O5 0.691685 0.118864 0.446519
O O6 0.638527 0.287456 0.404066
O O7 0.501842 0.159475 0.425676
O O8 0.630090 0.092847 0.368317
O O9 0.117794 0.171444 0.938772
O O10 0.171663 0.986161 0.915321
O O11 0.179256 0.039001 0.000000
O O12 0.500000 0.319218 0.250000
O O13 0.590350 0.175591 0.293746
O O14 0.812546 0.636609 0.934851
O O15 0.422617 0.812025 0.000000
O O16 0.000000 0.500000 0.317639
#
# Coordination Sequence:
#
# PCOD8294959 Si02
#       7
#    16  16  16  16  16  16  16
#     4  11  23  39  66  98 132 169 217 274 332 390
#     4  11  23  39  65  92 128 164 221 272 328 392
#     4  10  22  40  63  90 127 173 219 271 332 395
#     4  11  24  42  67  99 131 172 220 271 330 395
#     4  11  22  41  62  92 126 174 215 273 331 397
#     4  10  23  40  60  94 131 170 222 280 333 391
#     4  12  22  40  67  99 126 170 222 268 329 399
#
# _framework density 21.355433000000001
#
# number of rings (size 3 to 8) (size 9 to 14) (size 15 to 20)
#    0.000    1.143    4.286    2.143    0.000    2.286 
#    0.000    2.857    0.000    6.857    0.000    0.000 
#    0.000    0.000    0.000    0.000    0.000    0.000 
#
# Total GULP energy -694422.395145 kJ/mol
# GULP energy per Si atom -12400.399913 kJ/mol
# Density = 2.130683 g / cm^3
# Si number density = 21.355433 Si / 1000 Ang^3
#
#
#
# Elastic Constant Matrix: (Units=GPa)
#
#
# Indices 1 2 3 4 5 6 
#
# 1 107.6109 37.6699 16.3844 0.0000 0.0000 0.0000
# 2 37.6699 74.9153 35.2297 0.0000 0.0000 0.0000
# 3 16.3844 35.2297 100.1114 0.0000 0.0000 0.0000
# 4 0.0000 0.0000 0.0000 27.3009 0.0000 0.0000
# 5 0.0000 0.0000 0.0000 0.0000 24.0150 0.0000
# 6 0.0000 0.0000 0.0000 0.0000 0.0000 23.4000
#
#
#
# Elastic Compliance Matrix: (Units=1/GPa)
#
#
# Indices 1 2 3 4 5 6 
#
# 1 0.011281 -0.005757 0.000180 0.000000 0.000000 0.000000
# 2 -0.005757 0.018933 -0.005721 0.000000 0.000000 0.000000
# 3 0.000180 -0.005721 0.011973 0.000000 0.000000 0.000000
# 4 0.000000 0.000000 0.000000 0.036629 0.000000 0.000000
# 5 0.000000 0.000000 0.000000 0.000000 0.041641 0.000000
# 6 0.000000 0.000000 0.000000 0.000000 0.000000 0.042735
#
#
# Mechanical properties :
#
#
# Convention : Reuss Voigt Hill
#
# Bulk Modulus (GPa) = 51.04366 51.24509 51.14438
# Shear Modulus (GPa) = 25.99883 27.83344 26.91613
#
# Velocity S-wave (km/s) = 3.49296 3.61410 3.55405
# Velocity P-wave (km/s) = 6.34205 6.43925 6.39083
#
# Compressibility (1/GPa) = 0.01959107
#
# Stress axis : x y z
#
# Youngs Moduli (GPa) = 88.64806 52.81725 83.52431
#
# Poissons Ratio (x) = 0.30405 -0.01500
# Poissons Ratio (y) = 0.51032 0.47780
# Poissons Ratio (z) = -0.01592 0.30214
#
# Static dielectric constant tensor:
#      x y z
#    x 3.939450 0.000000 0.000000 
#    y 0.000000 3.993000 0.000000 
#    z 0.000000 0.000000 3.881870 
# 
# 
# High freq. dielectric constant tensor:
#      x y z
#    x 1.832460 0.000000 0.000000 
#    y 0.000000 1.835630 0.000000 
#    z 0.000000 0.000000 1.846240 
# 
# From -- ./inp_files/51456.got.cif
#   From: 2010.03.12/outbox.cif.g09.slc.cpg/sg72_26_cif.got.tgz:51456.got - 2010.04.16 14:54:00.
