data_PCOD8294363
_publ_section_title
;
Structure prediction by ZEFSAII (Michael W. Deem and Ramdas Pophale) SiO2 
 PCOD8294363
Probable space group: I B A M
;
_chemical_formula_sum "Si O2"
_cell_formula_units_Z 112
_cell_length_a 28.599709
_cell_length_b 12.333857
_cell_length_c 13.724975
_cell_angle_alpha 90.000000
_cell_angle_beta 90.000000
_cell_angle_gamma 90.000000
_cell_volume 4841.412478
_symmetry_space_group_name_H-M "I B A M"
_symmetry_group_IT_number 72
_symmetry_cell_setting 'orthorhombic'
loop_
_space_group_symop_operation_xyz
x,y,z
-x,-y,z
x,-y,1/2-z
-x,y,1/2-z
-x,-y,-z
x,y,-z
-x,y,1/2+z
x,-y,1/2+z
1/2+x,1/2+y,1/2+z
1/2-x,1/2-y,1/2+z
1/2+x,1/2-y,-z
1/2-x,1/2+y,-z
1/2-x,1/2-y,1/2-z
1/2+x,1/2+y,1/2-z
1/2-x,1/2+y,z
1/2+x,1/2-y,z
loop_
_atom_site_type_symbol
_atom_site_label
_atom_site_fract_x
_atom_site_fract_y
_atom_site_fract_z
Si Si1 0.429134 0.653161 0.892682
Si Si2 0.894417 0.925158 0.384818
Si Si3 0.547216 0.040038 0.390907
Si Si4 0.293225 0.123746 0.269750
Si Si5 0.116800 0.633001 0.615004
Si Si6 0.974346 0.225383 0.154375
Si Si7 0.703071 0.306381 0.616409
O O1 0.404192 0.547264 0.844547
O O2 0.414580 0.767367 0.844164
O O3 0.485978 0.654363 0.901383
O O4 0.407628 0.652650 0.000000
O O5 0.906771 0.914628 0.500000
O O6 0.930961 0.852898 0.323198
O O7 0.842172 0.882248 0.365285
O O8 0.546039 0.992387 0.500000
O O9 0.548631 0.170252 0.397612
O O10 0.500000 0.000000 0.337039
O O11 0.592453 0.978833 0.344060
O O12 0.332771 0.159859 0.343795
O O13 0.299713 0.188263 0.167420
O O14 0.244480 0.135239 0.325910
O O15 0.301126 0.000000 0.250000
O O16 0.122217 0.628843 0.500000
O O17 0.000000 0.267264 0.250000
O O18 0.712072 0.292040 0.500000
#
# Coordination Sequence:
#
# PCOD8294363 Si02
#       7
#    16  16  16  16  16  16  16
#     4  10  21  41  64  90 129 177 226 274 333 411
#     4  10  23  42  68  94 127 175 227 280 341 413
#     4  10  20  38  62  88 127 178 227 275 334 409
#     4  11  26  46  73 107 139 179 232 302 357 426
#     4  10  22  40  67 101 137 182 231 286 354 419
#     4  12  25  37  57  95 133 175 221 282 335 408
#     4  10  25  49  72 103 140 184 234 291 364 432
#
# _framework density 23.133745999999999
#
# number of rings (size 3 to 8) (size 9 to 14) (size 15 to 20)
#    0.000    1.571    1.429    2.143    4.000    6.000 
#    0.000    1.429    0.000    0.000    0.000    0.000 
#    0.000    0.571    0.000    0.000    0.000    0.000 
#
# Total GULP energy -693769.923738 kJ/mol
# GULP energy per Si atom -12388.748638 kJ/mol
# Density = 2.308109 g / cm^3
# Si number density = 23.133746 Si / 1000 Ang^3
#
#
#
# Elastic Constant Matrix: (Units=GPa)
#
#
# Indices 1 2 3 4 5 6 
#
# 1 142.8928 51.5818 28.6551 0.0000 0.0000 0.0000
# 2 51.5818 135.5074 28.2179 0.0000 0.0000 0.0000
# 3 28.6551 28.2179 73.5876 0.0000 0.0000 0.0000
# 4 0.0000 0.0000 0.0000 21.5973 0.0000 0.0000
# 5 0.0000 0.0000 0.0000 0.0000 23.7930 0.0000
# 6 0.0000 0.0000 0.0000 0.0000 0.0000 35.9802
#
#
#
# Elastic Compliance Matrix: (Units=1/GPa)
#
#
# Indices 1 2 3 4 5 6 
#
# 1 0.008437 -0.002747 -0.002232 0.000000 0.000000 0.000000
# 2 -0.002747 0.008914 -0.002349 0.000000 0.000000 0.000000
# 3 -0.002232 -0.002349 0.015359 0.000000 0.000000 0.000000
# 4 0.000000 0.000000 0.000000 0.046302 0.000000 0.000000
# 5 0.000000 0.000000 0.000000 0.000000 0.042029 0.000000
# 6 0.000000 0.000000 0.000000 0.000000 0.000000 0.027793
#
#
# Mechanical properties :
#
#
# Convention : Reuss Voigt Hill
#
# Bulk Modulus (GPa) = 55.38530 63.21083 59.29806
# Shear Modulus (GPa) = 29.49690 32.50964 31.00327
#
# Velocity S-wave (km/s) = 3.57467 3.75279 3.66481
# Velocity P-wave (km/s) = 6.40555 6.79421 6.60274
#
# Compressibility (1/GPa) = 0.01805533
#
# Stress axis : x y z
#
# Youngs Moduli (GPa) = 118.51854 112.17811 65.10801
#
# Poissons Ratio (x) = 0.30815 0.14534
# Poissons Ratio (y) = 0.32557 0.15292
# Poissons Ratio (z) = 0.26456 0.26347
#
# Static dielectric constant tensor:
#      x y z
#    x 4.256290 0.000000 0.000000 
#    y 0.000000 4.278850 0.000000 
#    z 0.000000 0.000000 4.128460 
# 
# 
# High freq. dielectric constant tensor:
#      x y z
#    x 1.911540 0.000000 0.000000 
#    y 0.000000 1.920270 0.000000 
#    z 0.000000 0.000000 1.923500 
# 
# From -- ./inp_files/26419.got.cif
#   From: 2010.03.12/outbox.cif.g09.slc.cpg/sg72_14_cif.got.tgz:26419.got - 2010.04.16 14:54:00.
