data_PCOD8294353
_publ_section_title
;
Structure prediction by ZEFSAII (Michael W. Deem and Ramdas Pophale) SiO2 
 PCOD8294353
Probable space group: I B A M
;
_chemical_formula_sum "Si O2"
_cell_formula_units_Z 112
_cell_length_a 11.783060
_cell_length_b 20.604634
_cell_length_c 24.182825
_cell_angle_alpha 90.000000
_cell_angle_beta 90.000000
_cell_angle_gamma 90.000000
_cell_volume 5871.242613
_symmetry_space_group_name_H-M "I B A M"
_symmetry_group_IT_number 72
_symmetry_cell_setting 'orthorhombic'
loop_
_space_group_symop_operation_xyz
x,y,z
-x,-y,z
x,-y,1/2-z
-x,y,1/2-z
-x,-y,-z
x,y,-z
-x,y,1/2+z
x,-y,1/2+z
1/2+x,1/2+y,1/2+z
1/2-x,1/2-y,1/2+z
1/2+x,1/2-y,-z
1/2-x,1/2+y,-z
1/2-x,1/2-y,1/2-z
1/2+x,1/2+y,1/2-z
1/2-x,1/2+y,z
1/2+x,1/2-y,z
loop_
_atom_site_type_symbol
_atom_site_label
_atom_site_fract_x
_atom_site_fract_y
_atom_site_fract_z
Si Si1 0.204988 0.427244 0.230591
Si Si2 0.880039 0.018028 0.847045
Si Si3 0.978409 0.423997 0.643514
Si Si4 0.267309 0.108790 0.150882
Si Si5 0.866333 0.193821 0.435100
Si Si6 0.407400 0.617503 0.562696
Si Si7 0.161922 0.340682 0.936742
O O1 0.177206 0.500000 0.250000
O O2 0.314485 0.429867 0.190871
O O3 0.090623 0.404155 0.199342
O O4 0.239458 0.380494 0.282145
O O5 0.915873 0.051227 0.903897
O O6 0.798462 0.957984 0.861983
O O7 0.000000 0.000000 0.817431
O O8 0.903037 0.398444 0.593464
O O9 0.000000 0.500000 0.638408
O O10 0.099572 0.390753 0.639102
O O11 0.219345 0.163991 0.110335
O O12 0.826975 0.183924 0.500000
O O13 0.880427 0.269274 0.420510
O O14 0.988198 0.163759 0.423746
O O15 0.407874 0.594477 0.500000
O O16 0.294874 0.657516 0.577646
O O17 0.137884 0.355281 0.000000
#
# Coordination Sequence:
#
# PCOD8294353 Si02
#       7
#    16  16  16  16  16  16  16
#     4  10  21  37  59  88 122 159 196 242 305 363
#     4  11  20  36  58  90 120 154 196 244 296 350
#     4  12  21  38  64  92 122 159 200 254 306 367
#     4  11  23  35  61  91 119 158 201 247 298 364
#     4  10  23  42  61  86 119 161 205 247 300 365
#     4  10  20  38  61  83 118 157 192 240 301 355
#     4  10  23  41  63  88 119 158 201 250 302 359
#
# _framework density 19.076028999999998
#
# number of rings (size 3 to 8) (size 9 to 14) (size 15 to 20)
#    0.000    1.429    5.714    0.429    2.000    4.286 
#    0.000    0.714    0.000    0.000    0.000    0.000 
#    0.000    0.000    0.000    0.000    0.000    0.000 
#
# Total GULP energy -694011.097301 kJ/mol
# GULP energy per Si atom -12393.055309 kJ/mol
# Density = 1.903261 g / cm^3
# Si number density = 19.076029 Si / 1000 Ang^3
#
#
#
# Elastic Constant Matrix: (Units=GPa)
#
#
# Indices 1 2 3 4 5 6 
#
# 1 138.5086 26.8665 61.2107 0.0000 0.0000 0.0000
# 2 26.8665 61.1600 54.0586 0.0000 0.0000 0.0000
# 3 61.2107 54.0586 105.9282 0.0000 0.0000 0.0000
# 4 0.0000 0.0000 0.0000 13.3522 0.0000 0.0000
# 5 0.0000 0.0000 0.0000 0.0000 31.0429 0.0000
# 6 0.0000 0.0000 0.0000 0.0000 0.0000 17.4821
#
#
#
# Elastic Compliance Matrix: (Units=1/GPa)
#
#
# Indices 1 2 3 4 5 6 
#
# 1 0.009750 0.001269 -0.006282 0.000000 0.000000 0.000000
# 2 0.001269 0.029952 -0.016019 0.000000 0.000000 0.000000
# 3 -0.006282 -0.016019 0.021245 0.000000 0.000000 0.000000
# 4 0.000000 0.000000 0.000000 0.074894 0.000000 0.000000
# 5 0.000000 0.000000 0.000000 0.000000 0.032213 0.000000
# 6 0.000000 0.000000 0.000000 0.000000 0.000000 0.057201
#
#
# Mechanical properties :
#
#
# Convention : Reuss Voigt Hill
#
# Bulk Modulus (GPa) = 52.95394 65.54094 59.24744
# Shear Modulus (GPa) = 18.27402 23.27284 20.77343
#
# Velocity S-wave (km/s) = 3.09845 3.49665 3.30355
# Velocity P-wave (km/s) = 6.37340 7.12281 6.75850
#
# Compressibility (1/GPa) = 0.01888434
#
# Stress axis : x y z
#
# Youngs Moduli (GPa) = 102.56872 33.38690 47.06944
#
# Poissons Ratio (x) = -0.04238 0.29567
# Poissons Ratio (y) = -0.13021 0.75400
# Poissons Ratio (z) = 0.64430 0.53482
#
# Static dielectric constant tensor:
#      x y z
#    x 3.861760 0.000000 0.000000 
#    y 0.000000 3.221290 0.000000 
#    z 0.000000 0.000000 3.810010 
# 
# 
# High freq. dielectric constant tensor:
#      x y z
#    x 1.763230 0.000000 0.000000 
#    y 0.000000 1.708320 0.000000 
#    z 0.000000 0.000000 1.747690 
# 
# From -- ./inp_files/43505.got.cif
#   From: 2010.03.12/outbox.cif.g09.slc.cpg/sg72_22_cif.got.tgz:43505.got - 2010.04.16 14:54:00.
