data_PCOD8294409
_publ_section_title
;
Structure prediction by ZEFSAII (Michael W. Deem and Ramdas Pophale) SiO2 
 PCOD8294409
Probable space group: I B A M
;
_chemical_formula_sum "Si O2"
_cell_formula_units_Z 112
_cell_length_a 12.334520
_cell_length_b 13.906412
_cell_length_c 31.232262
_cell_angle_alpha 90.000000
_cell_angle_beta 90.000000
_cell_angle_gamma 90.000000
_cell_volume 5357.236075
_symmetry_space_group_name_H-M "I B A M"
_symmetry_group_IT_number 72
_symmetry_cell_setting 'orthorhombic'
loop_
_space_group_symop_operation_xyz
x,y,z
-x,-y,z
x,-y,1/2-z
-x,y,1/2-z
-x,-y,-z
x,y,-z
-x,y,1/2+z
x,-y,1/2+z
1/2+x,1/2+y,1/2+z
1/2-x,1/2-y,1/2+z
1/2+x,1/2-y,-z
1/2-x,1/2+y,-z
1/2-x,1/2-y,1/2-z
1/2+x,1/2+y,1/2-z
1/2-x,1/2+y,z
1/2+x,1/2-y,z
loop_
_atom_site_type_symbol
_atom_site_label
_atom_site_fract_x
_atom_site_fract_y
_atom_site_fract_z
Si Si1 0.222151 0.362403 0.407940
Si Si2 0.324015 0.113717 0.759112
Si Si3 0.420658 0.283667 0.952072
Si Si4 0.419830 0.265463 0.625263
Si Si5 0.621629 0.490963 0.548090
Si Si6 0.402203 0.701003 0.218782
Si Si7 0.049260 0.599146 0.840946
O O1 0.150718 0.311279 0.444421
O O2 0.293500 0.277710 0.386186
O O3 0.295738 0.447850 0.424597
O O4 0.146906 0.414887 0.373891
O O5 0.365378 0.185175 0.721256
O O6 0.198337 0.132791 0.768956
O O7 0.400103 0.148124 0.798684
O O8 0.340310 0.000000 0.750000
O O9 0.511765 0.300709 0.915821
O O10 0.344521 0.378515 0.950561
O O11 0.472707 0.274570 0.000000
O O12 0.440304 0.322743 0.670037
O O13 0.453531 0.156868 0.635545
O O14 0.500000 0.500000 0.566659
O O15 0.623929 0.532237 0.500000
O O16 0.500000 0.673710 0.250000
O O17 0.000000 0.500000 0.825992
#
# Coordination Sequence:
#
# PCOD8294409 Si02
#       7
#    16  16  16  16  16  16  16
#     4  11  23  40  63  93 131 168 214 270 335 377
#     4  11  24  41  65  95 124 173 221 261 323 390
#     4  10  23  40  65  96 126 167 220 270 327 393
#     4  11  22  41  65  91 128 171 214 267 331 387
#     4  10  20  39  64  90 119 165 217 267 323 393
#     4  11  23  43  65  92 132 168 211 273 324 384
#     4  11  24  41  64  94 127 170 222 265 323 391
#
# _framework density 20.906303000000001
#
# number of rings (size 3 to 8) (size 9 to 14) (size 15 to 20)
#    0.000    1.286    4.286    1.286    2.000    0.857 
#    2.571    1.429    0.000    2.143    0.000    0.000 
#    0.000    0.000    0.000    0.000    0.000    0.000 
#
# Total GULP energy -694003.619072 kJ/mol
# GULP energy per Si atom -12392.921769 kJ/mol
# Density = 2.085872 g / cm^3
# Si number density = 20.906303 Si / 1000 Ang^3
#
#
#
# Elastic Constant Matrix: (Units=GPa)
#
#
# Indices 1 2 3 4 5 6 
#
# 1 94.3224 18.7758 45.8515 0.0000 0.0000 0.0000
# 2 18.7758 68.0881 20.3893 0.0000 0.0000 0.0000
# 3 45.8515 20.3893 143.5834 0.0000 0.0000 0.0000
# 4 0.0000 0.0000 0.0000 21.7613 0.0000 0.0000
# 5 0.0000 0.0000 0.0000 0.0000 35.2876 0.0000
# 6 0.0000 0.0000 0.0000 0.0000 0.0000 30.7724
#
#
#
# Elastic Compliance Matrix: (Units=1/GPa)
#
#
# Indices 1 2 3 4 5 6 
#
# 1 0.012924 -0.002431 -0.003782 0.000000 0.000000 0.000000
# 2 -0.002431 0.015797 -0.001467 0.000000 0.000000 0.000000
# 3 -0.003782 -0.001467 0.008381 0.000000 0.000000 0.000000
# 4 0.000000 0.000000 0.000000 0.045953 0.000000 0.000000
# 5 0.000000 0.000000 0.000000 0.000000 0.028339 0.000000
# 6 0.000000 0.000000 0.000000 0.000000 0.000000 0.032497
#
#
# Mechanical properties :
#
#
# Convention : Reuss Voigt Hill
#
# Bulk Modulus (GPa) = 45.99544 52.89191 49.44367
# Shear Modulus (GPa) = 30.03051 32.29607 31.16329
#
# Velocity S-wave (km/s) = 3.79414 3.93466 3.86504
# Velocity P-wave (km/s) = 6.42204 6.78207 6.60451
#
# Compressibility (1/GPa) = 0.02174129
#
# Stress axis : x y z
#
# Youngs Moduli (GPa) = 77.37290 63.30490 119.32328
#
# Poissons Ratio (x) = 0.15392 0.45128
# Poissons Ratio (y) = 0.18813 0.17501
# Poissons Ratio (z) = 0.29262 0.09285
#
# Static dielectric constant tensor:
#      x y z
#    x 3.818000 0.000000 0.000000 
#    y 0.000000 3.613790 0.000000 
#    z 0.000000 0.000000 3.943540 
# 
# 
# High freq. dielectric constant tensor:
#      x y z
#    x 1.818360 0.000000 0.000000 
#    y 0.000000 1.805130 0.000000 
#    z 0.000000 0.000000 1.829830 
# 
# From -- ./inp_files/51482.got.cif
#   From: 2010.03.12/outbox.cif.g09.slc.cpg/sg72_26_cif.got.tgz:51482.got - 2010.04.16 14:54:00.
