data_PCOD8294055
_publ_section_title
;
Structure prediction by ZEFSAII (Michael W. Deem and Ramdas Pophale) SiO2 
 PCOD8294055
Probable space group: I B A M
;
_chemical_formula_sum "Si O2"
_cell_formula_units_Z 116
_cell_length_a 30.984073
_cell_length_b 21.796362
_cell_length_c 9.100175
_cell_angle_alpha 90.000000
_cell_angle_beta 90.000000
_cell_angle_gamma 90.000000
_cell_volume 6145.712834
_symmetry_space_group_name_H-M "I B A M"
_symmetry_group_IT_number 72
_symmetry_cell_setting 'orthorhombic'
loop_
_space_group_symop_operation_xyz
x,y,z
-x,-y,z
x,-y,1/2-z
-x,y,1/2-z
-x,-y,-z
x,y,-z
-x,y,1/2+z
x,-y,1/2+z
1/2+x,1/2+y,1/2+z
1/2-x,1/2-y,1/2+z
1/2+x,1/2-y,-z
1/2-x,1/2+y,-z
1/2-x,1/2-y,1/2-z
1/2+x,1/2+y,1/2-z
1/2-x,1/2+y,z
1/2+x,1/2-y,z
loop_
_atom_site_type_symbol
_atom_site_label
_atom_site_fract_x
_atom_site_fract_y
_atom_site_fract_z
Si Si1 0.218379 0.667248 0.672391
Si Si2 0.455764 0.562210 0.173162
Si Si3 0.897772 0.822334 0.169792
Si Si4 0.456582 0.228996 0.172399
Si Si5 0.930896 0.592876 0.337021
Si Si6 0.845699 0.438752 0.674044
Si Si7 0.800973 0.804496 0.170667
Si Si8 0.000000 0.500000 0.750000
O O1 0.224489 0.661935 0.500000
O O2 0.184296 0.616946 0.728326
O O3 0.200313 0.733444 0.720761
O O4 0.265095 0.655759 0.744631
O O5 0.439236 0.500000 0.250000
O O6 0.500000 0.583706 0.250000
O O7 0.420207 0.613361 0.203849
O O8 0.463443 0.551524 0.000000
O O9 0.916673 0.768494 0.269440
O O10 0.847711 0.831206 0.210462
O O11 0.903232 0.802726 0.000000
O O12 0.500000 0.252711 0.250000
O O13 0.448944 0.158389 0.214615
O O14 0.461848 0.239241 0.000000
O O15 0.910439 0.597961 0.500000
O O16 0.894898 0.572292 0.221823
O O17 0.969680 0.543938 0.347175
O O18 0.827517 0.500000 0.750000
O O19 0.845053 0.446926 0.500000
O O20 0.790463 0.810311 0.000000
#
# Coordination Sequence:
#
# PCOD8294055 Si02
#       8
#    16  16  16  16  16  16  16   4
#     4   9  19  36  57  82 109 140 178 222 273 327
#     4  10  20  35  56  80 109 144 184 222 264 323
#     4  10  21  37  57  84 114 146 183 227 281 336
#     4  11  23  37  54  81 114 150 191 236 281 329
#     4  11  24  39  57  82 111 150 198 238 282 331
#     4  11  23  38  58  82 111 146 186 231 279 331
#     4   9  18  35  59  83 108 140 177 220 273 329
#     4  12  22  40  60  78 114 152 196 240 278 324
#
# _framework density 18.874946000000001
#
# number of rings (size 3 to 8) (size 9 to 14) (size 15 to 20)
#    0.000    1.793    1.379    3.103    0.000    6.621 
#    0.000    3.448    0.000    3.310    0.000    0.000 
#    0.000    0.000    0.000    0.000    0.000    0.000 
#
# Total GULP energy -719376.758115 kJ/mol
# GULP energy per Si atom -12403.047554 kJ/mol
# Density = 1.883199 g / cm^3
# Si number density = 18.874946 Si / 1000 Ang^3
#
#
#
# Elastic Constant Matrix: (Units=GPa)
#
#
# Indices 1 2 3 4 5 6 
#
# 1 134.8354 71.0119 46.0088 0.0000 0.0000 0.0000
# 2 71.0119 100.4428 45.3348 0.0000 0.0000 0.0000
# 3 46.0088 45.3348 76.7653 0.0000 0.0000 0.0000
# 4 0.0000 0.0000 0.0000 26.9823 0.0000 0.0000
# 5 0.0000 0.0000 0.0000 0.0000 31.8395 0.0000
# 6 0.0000 0.0000 0.0000 0.0000 0.0000 26.8128
#
#
#
# Elastic Compliance Matrix: (Units=1/GPa)
#
#
# Indices 1 2 3 4 5 6 
#
# 1 0.012320 -0.007331 -0.003054 0.000000 0.000000 0.000000
# 2 -0.007331 0.017937 -0.006199 0.000000 0.000000 0.000000
# 3 -0.003054 -0.006199 0.018518 0.000000 0.000000 0.000000
# 4 0.000000 0.000000 0.000000 0.037061 0.000000 0.000000
# 5 0.000000 0.000000 0.000000 0.000000 0.031408 0.000000
# 6 0.000000 0.000000 0.000000 0.000000 0.000000 0.037296
#
#
# Mechanical properties :
#
#
# Convention : Reuss Voigt Hill
#
# Bulk Modulus (GPa) = 64.07821 70.75049 67.41435
# Shear Modulus (GPa) = 25.91881 27.10611 26.51246
#
# Velocity S-wave (km/s) = 3.70967 3.79369 3.75192
# Velocity P-wave (km/s) = 7.23681 7.53357 7.38668
#
# Compressibility (1/GPa) = 0.01560593
#
# Stress axis : x y z
#
# Youngs Moduli (GPa) = 81.17079 55.75058 54.00153
#
# Poissons Ratio (x) = 0.40873 0.16492
# Poissons Ratio (y) = 0.59510 0.33475
# Poissons Ratio (z) = 0.24790 0.34559
#
# Static dielectric constant tensor:
#      x y z
#    x 3.456230 0.000000 0.000000 
#    y 0.000000 3.540810 0.000000 
#    z 0.000000 0.000000 3.405170 
# 
# 
# High freq. dielectric constant tensor:
#      x y z
#    x 1.731440 0.000000 0.000000 
#    y 0.000000 1.733090 0.000000 
#    z 0.000000 0.000000 1.735380 
# 
# From -- ./inp_files/9343.got.cif
#   From: 2010.03.12/outbox.cif.g09.slc.cpg/sg72_5_cif.got.tgz:9343.got - 2010.04.16 14:54:00.
