data_PCOD8294841
_publ_section_title
;
Structure prediction by ZEFSAII (Michael W. Deem and Ramdas Pophale) SiO2 
 PCOD8294841
Probable space group: I B A M
;
_chemical_formula_sum "Si O2"
_cell_formula_units_Z 112
_cell_length_a 14.614013
_cell_length_b 23.404556
_cell_length_c 14.258961
_cell_angle_alpha 90.000000
_cell_angle_beta 90.000000
_cell_angle_gamma 90.000000
_cell_volume 4877.056391
_symmetry_space_group_name_H-M "I B A M"
_symmetry_group_IT_number 72
_symmetry_cell_setting 'orthorhombic'
loop_
_space_group_symop_operation_xyz
x,y,z
-x,-y,z
x,-y,1/2-z
-x,y,1/2-z
-x,-y,-z
x,y,-z
-x,y,1/2+z
x,-y,1/2+z
1/2+x,1/2+y,1/2+z
1/2-x,1/2-y,1/2+z
1/2+x,1/2-y,-z
1/2-x,1/2+y,-z
1/2-x,1/2-y,1/2-z
1/2+x,1/2+y,1/2-z
1/2-x,1/2+y,z
1/2+x,1/2-y,z
loop_
_atom_site_type_symbol
_atom_site_label
_atom_site_fract_x
_atom_site_fract_y
_atom_site_fract_z
Si Si1 0.118059 0.864206 0.392311
Si Si2 0.735519 0.585288 0.891741
Si Si3 0.356144 0.742275 0.230455
Si Si4 0.038876 0.558272 0.147087
Si Si5 0.586710 0.844383 0.603910
Si Si6 0.746256 0.960024 0.111932
Si Si7 0.082228 0.831731 0.891037
O O1 0.145108 0.859847 0.500000
O O2 0.147909 0.805928 0.346967
O O3 0.174210 0.917891 0.350047
O O4 0.008874 0.869588 0.378028
O O5 0.835564 0.609381 0.875104
O O6 0.731409 0.522610 0.845280
O O7 0.661879 0.628639 0.847956
O O8 0.708493 0.580544 0.000000
O O9 0.250000 0.750000 0.250000
O O10 0.407421 0.796836 0.185063
O O11 0.414211 0.724670 0.324343
O O12 0.148330 0.561027 0.148446
O O13 0.000000 0.500000 0.096292
O O14 0.000000 0.557755 0.250000
O O15 0.006115 0.618080 0.101260
O O16 0.599036 0.816266 0.500000
O O17 0.742723 0.963609 0.000000
O O18 0.095408 0.812721 0.000000
#
# Coordination Sequence:
#
# PCOD8294841 Si02
#       7
#    16  16  16  16  16  16  16
#     4  10  24  45  67  97 139 181 229 285 341 405
#     4   9  18  36  68 103 133 173 224 273 340 410
#     4  12  25  42  70  97 132 180 233 289 343 409
#     4  11  24  39  63 100 144 182 224 280 347 418
#     4  11  23  42  67  99 137 181 228 281 346 411
#     4  10  21  41  70 102 136 179 229 281 339 413
#     4  10  22  44  70 100 139 182 228 286 348 411
#
# _framework density 22.964672
#
# number of rings (size 3 to 8) (size 9 to 14) (size 15 to 20)
#    0.000    1.571    2.857    1.286    2.000    2.857 
#    0.000    2.857    0.000    1.714    0.000    0.000 
#    0.000    0.000    0.000    0.000    0.000    0.000 
#
# Total GULP energy -694170.248977 kJ/mol
# GULP energy per Si atom -12395.897303 kJ/mol
# Density = 2.291240 g / cm^3
# Si number density = 22.964672 Si / 1000 Ang^3
#
#
#
# Elastic Constant Matrix: (Units=GPa)
#
#
# Indices 1 2 3 4 5 6 
#
# 1 97.6353 41.0910 35.5776 0.0001 0.0000 0.0000
# 2 41.0910 148.1378 57.4944 -0.0001 0.0000 0.0000
# 3 35.5776 57.4944 71.7265 -0.0007 0.0001 0.0000
# 4 0.0001 -0.0001 -0.0007 29.5930 0.0000 0.0000
# 5 0.0000 0.0000 0.0001 0.0000 28.2659 0.0000
# 6 0.0000 0.0000 0.0000 0.0000 0.0000 41.8155
#
#
#
# Elastic Compliance Matrix: (Units=1/GPa)
#
#
# Indices 1 2 3 4 5 6 
#
# 1 0.012749 -0.001571 -0.005065 0.000000 0.000000 0.000000
# 2 -0.001571 0.009992 -0.007231 0.000000 0.000000 0.000000
# 3 -0.005065 -0.007231 0.022250 0.000000 0.000000 0.000000
# 4 0.000000 0.000000 0.000000 0.033792 0.000000 0.000000
# 5 0.000000 0.000000 0.000000 0.000000 0.035378 0.000000
# 6 0.000000 0.000000 0.000000 0.000000 0.000000 0.023915
#
#
# Mechanical properties :
#
#
# Convention : Reuss Voigt Hill
#
# Bulk Modulus (GPa) = 57.93982 65.09174 61.51578
# Shear Modulus (GPa) = 29.14419 32.15731 30.65075
#
# Velocity S-wave (km/s) = 3.56629 3.74611 3.65731
# Velocity P-wave (km/s) = 6.49944 6.86418 6.68430
#
# Compressibility (1/GPa) = 0.01725929
#
# Stress axis : x y z
#
# Youngs Moduli (GPa) = 78.43920 100.07539 44.94395
#
# Poissons Ratio (x) = 0.15718 0.22762
# Poissons Ratio (y) = 0.12320 0.32497
# Poissons Ratio (z) = 0.39726 0.72361
#
# Static dielectric constant tensor:
#      x y z
#    x 4.047270 0.000000 0.000000 
#    y 0.000000 4.467920 0.000000 
#    z 0.000000 0.000000 4.082840 
# 
# 
# High freq. dielectric constant tensor:
#      x y z
#    x 1.909470 0.000000 0.000000 
#    y 0.000000 1.904380 0.000000 
#    z 0.000000 0.000000 1.912690 
# 
# From -- ./inp_files/22094.got.cif
#   From: 2010.03.12/outbox.cif.g09.slc.cpg/sg72_12_cif.got.tgz:22094.got - 2010.04.16 14:54:00.
