data_PCOD8294859
_publ_section_title
;
Structure prediction by ZEFSAII (Michael W. Deem and Ramdas Pophale) SiO2 
 PCOD8294859
Probable space group: I B A M
;
_chemical_formula_sum "Si O2"
_cell_formula_units_Z 80
_cell_length_a 9.724818
_cell_length_b 16.433181
_cell_length_c 25.206494
_cell_angle_alpha 90.000000
_cell_angle_beta 90.000000
_cell_angle_gamma 90.000000
_cell_volume 4028.242103
_symmetry_space_group_name_H-M "I B A M"
_symmetry_group_IT_number 72
_symmetry_cell_setting 'orthorhombic'
loop_
_space_group_symop_operation_xyz
x,y,z
-x,-y,z
x,-y,1/2-z
-x,y,1/2-z
-x,-y,-z
x,y,-z
-x,y,1/2+z
x,-y,1/2+z
1/2+x,1/2+y,1/2+z
1/2-x,1/2-y,1/2+z
1/2+x,1/2-y,-z
1/2-x,1/2+y,-z
1/2-x,1/2-y,1/2-z
1/2+x,1/2+y,1/2-z
1/2-x,1/2+y,z
1/2+x,1/2-y,z
loop_
_atom_site_type_symbol
_atom_site_label
_atom_site_fract_x
_atom_site_fract_y
_atom_site_fract_z
Si Si1 0.466963 0.689055 0.651202
Si Si2 0.157286 0.495524 0.125777
Si Si3 0.272135 0.164091 0.827561
Si Si4 0.213520 0.918111 0.777386
Si Si5 0.895590 0.072333 0.061465
O O1 0.391892 0.774544 0.657248
O O2 0.626923 0.706685 0.660472
O O3 0.416964 0.624077 0.695043
O O4 0.440711 0.653195 0.592735
O O5 0.216108 0.585076 0.135867
O O6 0.170917 0.440513 0.178880
O O7 0.242859 0.455293 0.078158
O O8 0.000000 0.500000 0.107996
O O9 0.283953 0.141666 0.765259
O O10 0.156991 0.000000 0.750000
O O11 0.896304 0.095174 0.000000
O O12 0.000000 0.000000 0.075371
#
# Coordination Sequence:
#
# PCOD8294859 Si02
#       5
#    16  16  16  16  16
#     4  11  23  39  59  90 123 162 200 255 309 369
#     4  10  22  40  64  89 124 159 207 255 299 359
#     4  11  23  38  59  89 127 163 200 244 309 366
#     4   9  21  37  60  86 122 166 212 247 291 360
#     4  10  21  43  70  89 112 156 210 260 308 359
#
# _framework density 19.859780000000001
#
# number of rings (size 3 to 8) (size 9 to 14) (size 15 to 20)
#    0.000    1.800    2.000    1.200    5.600    6.400 
#    0.000    2.000    0.000    0.000    0.000    0.000 
#    0.000    0.000    0.000    0.000    0.000    0.000 
#
# Total GULP energy -496206.407613 kJ/mol
# GULP energy per Si atom -12405.160190 kJ/mol
# Density = 1.981458 g / cm^3
# Si number density = 19.859780 Si / 1000 Ang^3
#
#
#
# Elastic Constant Matrix: (Units=GPa)
#
#
# Indices 1 2 3 4 5 6 
#
# 1 114.9043 26.8570 20.9430 0.0000 0.0000 0.0000
# 2 26.8570 90.4821 46.1496 0.0000 0.0000 0.0000
# 3 20.9430 46.1496 104.8226 0.0000 0.0000 0.0000
# 4 0.0000 0.0000 0.0000 26.0879 0.0000 0.0000
# 5 0.0000 0.0000 0.0000 0.0000 18.7267 0.0000
# 6 0.0000 0.0000 0.0000 0.0000 0.0000 34.2964
#
#
#
# Elastic Compliance Matrix: (Units=1/GPa)
#
#
# Indices 1 2 3 4 5 6 
#
# 1 0.009409 -0.002365 -0.000839 0.000000 0.000000 0.000000
# 2 -0.002365 0.014847 -0.006064 0.000000 0.000000 0.000000
# 3 -0.000839 -0.006064 0.012377 0.000000 0.000000 0.000000
# 4 0.000000 0.000000 0.000000 0.038332 0.000000 0.000000
# 5 0.000000 0.000000 0.000000 0.000000 0.053400 0.000000
# 6 0.000000 0.000000 0.000000 0.000000 0.000000 0.029158
#
#
# Mechanical properties :
#
#
# Convention : Reuss Voigt Hill
#
# Bulk Modulus (GPa) = 55.25630 55.34537 55.30083
# Shear Modulus (GPa) = 27.45907 30.23949 28.84928
#
# Velocity S-wave (km/s) = 3.72243 3.90635 3.81550
# Velocity P-wave (km/s) = 6.80874 6.94800 6.87872
#
# Compressibility (1/GPa) = 0.01809748
#
# Stress axis : x y z
#
# Youngs Moduli (GPa) = 106.28682 67.35482 80.79353
#
# Poissons Ratio (x) = 0.15929 0.06775
# Poissons Ratio (y) = 0.25136 0.48993
# Poissons Ratio (z) = 0.08913 0.40844
#
# Static dielectric constant tensor:
#      x y z
#    x 3.490660 0.000000 0.000000 
#    y 0.000000 3.571800 0.000000 
#    z 0.000000 0.000000 3.487230 
# 
# 
# High freq. dielectric constant tensor:
#      x y z
#    x 1.774830 0.000000 0.000000 
#    y 0.000000 1.776090 0.000000 
#    z 0.000000 0.000000 1.758730 
# 
# From -- ./inp_files/47206.got.cif
#   From: 2010.03.12/outbox.cif.g09.slc.cpg/sg72_24_cif.got.tgz:47206.got - 2010.04.16 14:54:00.
