data_PCOD8294378
_publ_section_title
;
Structure prediction by ZEFSAII (Michael W. Deem and Ramdas Pophale) SiO2 
 PCOD8294378
Probable space group: I B A M
;
_chemical_formula_sum "Si O2"
_cell_formula_units_Z 112
_cell_length_a 14.120831
_cell_length_b 28.020757
_cell_length_c 13.867228
_cell_angle_alpha 90.000000
_cell_angle_beta 90.000000
_cell_angle_gamma 90.000000
_cell_volume 5486.934494
_symmetry_space_group_name_H-M "I B A M"
_symmetry_group_IT_number 72
_symmetry_cell_setting 'orthorhombic'
loop_
_space_group_symop_operation_xyz
x,y,z
-x,-y,z
x,-y,1/2-z
-x,y,1/2-z
-x,-y,-z
x,y,-z
-x,y,1/2+z
x,-y,1/2+z
1/2+x,1/2+y,1/2+z
1/2-x,1/2-y,1/2+z
1/2+x,1/2-y,-z
1/2-x,1/2+y,-z
1/2-x,1/2-y,1/2-z
1/2+x,1/2+y,1/2-z
1/2-x,1/2+y,z
1/2+x,1/2-y,z
loop_
_atom_site_type_symbol
_atom_site_label
_atom_site_fract_x
_atom_site_fract_y
_atom_site_fract_z
Si Si1 0.055273 0.201625 0.612404
Si Si2 0.352147 0.201570 0.889269
Si Si3 0.895067 0.891262 0.725094
Si Si4 0.898345 0.518905 0.609893
Si Si5 0.850989 0.170769 0.391266
Si Si6 0.730671 0.927840 0.612016
Si Si7 0.107433 0.608803 0.769859
O O1 0.076205 0.196703 0.500000
O O2 0.101326 0.250267 0.652216
O O3 0.102844 0.156934 0.663158
O O4 0.943334 0.201793 0.636845
O O5 0.238588 0.205556 0.880267
O O6 0.387809 0.157935 0.826376
O O7 0.383327 0.193150 0.000000
O O8 0.842024 0.876567 0.824575
O O9 0.834543 0.929554 0.663440
O O10 0.000000 0.911571 0.750000
O O11 0.911871 0.534941 0.500000
O O12 0.818329 0.478900 0.621757
O O13 0.856910 0.564032 0.666981
O O14 0.000000 0.500000 0.649220
O O15 0.859711 0.151084 0.500000
O O16 0.739203 0.912422 0.500000
O O17 0.667504 0.888873 0.670215
O O18 0.000000 0.597623 0.750000
#
# Coordination Sequence:
#
# PCOD8294378 Si02
#       7
#    16  16  16  16  16  16  16
#     4   9  19  36  58  84 120 162 203 251 306 366
#     4  10  21  38  58  86 121 157 205 259 305 364
#     4  10  20  38  64  88 117 160 207 255 314 370
#     4  10  21  39  63  90 125 165 203 250 309 373
#     4   9  18  35  56  82 113 153 202 247 301 365
#     4  11  23  39  61  95 129 161 207 257 310 372
#     4  12  23  37  61  90 126 164 209 250 308 373
#
# _framework density 20.412127000000002
#
# number of rings (size 3 to 8) (size 9 to 14) (size 15 to 20)
#    0.000    1.857    2.857    1.286    0.000    3.429 
#    2.571    0.000    0.000    1.714    0.000    5.000 
#    0.000    0.000    0.000    0.000    0.000    0.000 
#
# Total GULP energy -694322.022155 kJ/mol
# GULP energy per Si atom -12398.607538 kJ/mol
# Density = 2.036567 g / cm^3
# Si number density = 20.412127 Si / 1000 Ang^3
#
#
#
# Elastic Constant Matrix: (Units=GPa)
#
#
# Indices 1 2 3 4 5 6 
#
# 1 106.5701 42.7278 52.3653 0.0000 0.0000 0.0000
# 2 42.7278 78.5065 35.1443 0.0001 0.0000 0.0000
# 3 52.3653 35.1443 89.5036 -0.0002 0.0000 -0.0001
# 4 0.0000 0.0001 -0.0002 28.3852 0.0000 -0.0001
# 5 0.0000 0.0000 0.0000 0.0000 34.2127 0.0000
# 6 0.0000 0.0000 -0.0001 -0.0001 0.0000 28.5582
#
#
#
# Elastic Compliance Matrix: (Units=1/GPa)
#
#
# Indices 1 2 3 4 5 6 
#
# 1 0.014633 -0.005013 -0.006593 0.000000 0.000000 0.000000
# 2 -0.005013 0.017171 -0.003810 0.000000 0.000000 0.000000
# 3 -0.006593 -0.003810 0.016526 0.000000 0.000000 0.000000
# 4 0.000000 0.000000 0.000000 0.035230 0.000000 0.000000
# 5 0.000000 0.000000 0.000000 0.000000 0.029229 0.000000
# 6 0.000000 0.000000 0.000000 0.000000 0.000000 0.035016
#
#
# Mechanical properties :
#
#
# Convention : Reuss Voigt Hill
#
# Bulk Modulus (GPa) = 57.14423 59.45055 58.29739
# Shear Modulus (GPa) = 27.10488 27.85408 27.47948
#
# Velocity S-wave (km/s) = 3.64796 3.69804 3.67309
# Velocity P-wave (km/s) = 6.76753 6.88639 6.82722
#
# Compressibility (1/GPa) = 0.01749958
#
# Stress axis : x y z
#
# Youngs Moduli (GPa) = 68.33976 58.23615 60.51098
#
# Poissons Ratio (x) = 0.29192 0.39894
# Poissons Ratio (y) = 0.34256 0.23054
# Poissons Ratio (z) = 0.45055 0.22187
#
# Static dielectric constant tensor:
#      x y z
#    x 3.854350 0.000000 0.000000 
#    y 0.000000 3.347360 0.000000 
#    z 0.000000 0.000000 4.090900 
# 
# 
# High freq. dielectric constant tensor:
#      x y z
#    x 1.802670 0.000000 0.000000 
#    y 0.000000 1.762750 0.000000 
#    z 0.000000 0.000000 1.818830 
# 
# From -- ./inp_files/22319.got.cif
#   From: 2010.03.12/outbox.cif.g09.slc.cpg/sg72_12_cif.got.tgz:22319.got - 2010.04.16 14:54:00.
