data_PCOD8294179
_publ_section_title
;
Structure prediction by ZEFSAII (Michael W. Deem and Ramdas Pophale) SiO2 
 PCOD8294179
Probable space group: I B A M
;
_chemical_formula_sum "Si O2"
_cell_formula_units_Z 96
_cell_length_a 25.209063
_cell_length_b 23.258061
_cell_length_c 8.764935
_cell_angle_alpha 90.000000
_cell_angle_beta 90.000000
_cell_angle_gamma 90.000000
_cell_volume 5139.003442
_symmetry_space_group_name_H-M "I B A M"
_symmetry_group_IT_number 72
_symmetry_cell_setting 'orthorhombic'
loop_
_space_group_symop_operation_xyz
x,y,z
-x,-y,z
x,-y,1/2-z
-x,y,1/2-z
-x,-y,-z
x,y,-z
-x,y,1/2+z
x,-y,1/2+z
1/2+x,1/2+y,1/2+z
1/2-x,1/2-y,1/2+z
1/2+x,1/2-y,-z
1/2-x,1/2+y,-z
1/2-x,1/2-y,1/2-z
1/2+x,1/2+y,1/2-z
1/2-x,1/2+y,z
1/2+x,1/2-y,z
loop_
_atom_site_type_symbol
_atom_site_label
_atom_site_fract_x
_atom_site_fract_y
_atom_site_fract_z
Si Si1 0.055838 0.438724 0.319016
Si Si2 0.192050 0.753891 0.320775
Si Si3 0.054547 0.940058 0.176860
Si Si4 0.842215 0.870233 0.677227
Si Si5 0.651927 0.857676 0.176934
Si Si6 0.750085 0.560141 0.678520
O O1 0.072676 0.500000 0.250000
O O2 0.051229 0.445281 0.500000
O O3 0.099716 0.392136 0.271657
O O4 0.000000 0.417889 0.250000
O O5 0.199163 0.755755 0.500000
O O6 0.250000 0.750000 0.250000
O O7 0.163046 0.811186 0.267251
O O8 0.155347 0.700418 0.273779
O O9 0.098339 0.891673 0.205453
O O10 0.000000 0.917501 0.250000
O O11 0.073189 0.000000 0.250000
O O12 0.045147 0.951487 0.000000
O O13 0.829702 0.860090 0.500000
O O14 0.802954 0.918441 0.740897
O O15 0.703451 0.895169 0.212371
O O16 0.648958 0.841072 0.000000
O O17 0.767796 0.500000 0.750000
O O18 0.739486 0.552653 0.500000
#
# Coordination Sequence:
#
# PCOD8294179 Si02
#       6
#    16  16  16  16  16  16
#     4  10  20  36  59  86 118 154 193 239 288 344
#     4  12  24  39  61  85 114 154 195 237 288 346
#     4  10  21  37  60  87 117 153 191 236 287 342
#     4  11  23  39  59  85 116 151 194 240 288 342
#     4  10  22  39  58  83 115 152 195 239 287 341
#     4  11  22  35  55  83 116 151 187 234 291 346
#
# _framework density 18.680664
#
# number of rings (size 3 to 8) (size 9 to 14) (size 15 to 20)
#    0.000    1.333    1.667    5.500    0.000    6.000 
#    0.000    0.833    0.000    0.000    0.000    0.000 
#    0.000    0.000    0.000    0.000    0.000    0.000 
#
# Total GULP energy -595461.814266 kJ/mol
# GULP energy per Si atom -12405.454464 kJ/mol
# Density = 1.863815 g / cm^3
# Si number density = 18.680664 Si / 1000 Ang^3
#
#
#
# Elastic Constant Matrix: (Units=GPa)
#
#
# Indices 1 2 3 4 5 6 
#
# 1 107.1746 48.9378 58.0547 0.0000 0.0000 0.0000
# 2 48.9378 107.4310 57.0560 0.0000 0.0000 0.0000
# 3 58.0547 57.0560 125.8276 0.0000 0.0000 0.0000
# 4 0.0000 0.0000 0.0000 36.2400 0.0000 0.0000
# 5 0.0000 0.0000 0.0000 0.0000 29.8372 0.0000
# 6 0.0000 0.0000 0.0000 0.0000 0.0000 30.1303
#
#
#
# Elastic Compliance Matrix: (Units=1/GPa)
#
#
# Indices 1 2 3 4 5 6 
#
# 1 0.013492 -0.003741 -0.004529 0.000000 0.000000 0.000000
# 2 -0.003741 0.013298 -0.004304 0.000000 0.000000 0.000000
# 3 -0.004529 -0.004304 0.011988 0.000000 0.000000 0.000000
# 4 0.000000 0.000000 0.000000 0.027594 0.000000 0.000000
# 5 0.000000 0.000000 0.000000 0.000000 0.033515 0.000000
# 6 0.000000 0.000000 0.000000 0.000000 0.000000 0.033189
#
#
# Mechanical properties :
#
#
# Convention : Reuss Voigt Hill
#
# Bulk Modulus (GPa) = 73.35956 74.28114 73.82035
# Shear Modulus (GPa) = 30.71868 31.00047 30.85958
#
# Velocity S-wave (km/s) = 4.05953 4.07811 4.06883
# Velocity P-wave (km/s) = 7.83126 7.87557 7.85345
#
# Compressibility (1/GPa) = 0.01363149
#
# Stress axis : x y z
#
# Youngs Moduli (GPa) = 74.11945 75.19827 83.41333
#
# Poissons Ratio (x) = 0.28130 0.37775
# Poissons Ratio (y) = 0.27726 0.35902
# Poissons Ratio (z) = 0.33566 0.32366
#
# Static dielectric constant tensor:
#      x y z
#    x 3.509090 0.000000 0.000000 
#    y 0.000000 3.481060 0.000000 
#    z 0.000000 0.000000 3.585800 
# 
# 
# High freq. dielectric constant tensor:
#      x y z
#    x 1.727360 0.000000 0.000000 
#    y 0.000000 1.726740 0.000000 
#    z 0.000000 0.000000 1.741580 
# 
# From -- ./inp_files/5993.got.cif
#   From: 2010.03.12/outbox.cif.g09.slc.cpg/sg72_3_cif.got.tgz:5993.got - 2010.04.16 14:54:00.
