data_PCOD8294635
_publ_section_title
;
Structure prediction by ZEFSAII (Michael W. Deem and Ramdas Pophale) SiO2 
 PCOD8294635
Probable space group: I B A M
;
_chemical_formula_sum "Si O2"
_cell_formula_units_Z 52
_cell_length_a 5.168724
_cell_length_b 29.245783
_cell_length_c 14.509777
_cell_angle_alpha 90.000000
_cell_angle_beta 90.000000
_cell_angle_gamma 90.000000
_cell_volume 2193.346941
_symmetry_space_group_name_H-M "I B A M"
_symmetry_group_IT_number 72
_symmetry_cell_setting 'orthorhombic'
loop_
_space_group_symop_operation_xyz
x,y,z
-x,-y,z
x,-y,1/2-z
-x,y,1/2-z
-x,-y,-z
x,y,-z
-x,y,1/2+z
x,-y,1/2+z
1/2+x,1/2+y,1/2+z
1/2-x,1/2-y,1/2+z
1/2+x,1/2-y,-z
1/2-x,1/2+y,-z
1/2-x,1/2-y,1/2-z
1/2+x,1/2+y,1/2-z
1/2-x,1/2+y,z
1/2+x,1/2-y,z
loop_
_atom_site_type_symbol
_atom_site_label
_atom_site_fract_x
_atom_site_fract_y
_atom_site_fract_z
Si Si1 0.108275 0.569018 0.397488
Si Si2 0.134537 0.227761 0.894574
Si Si3 0.500000 0.000000 0.750000
Si Si4 0.408374 0.376172 0.646689
O O1 0.058062 0.548420 0.500000
O O2 0.174968 0.530370 0.320338
O O3 0.849689 0.594055 0.362760
O O4 0.352946 0.602283 0.408854
O O5 0.377982 0.252449 0.844982
O O6 0.156946 0.173435 0.891738
O O7 0.128247 0.244365 0.000000
O O8 0.500000 0.372003 0.750000
#
# Coordination Sequence:
#
# PCOD8294635 Si02
#       4
#    16  16   4  16
#     4  12  26  46  73 100 139 182 222 280 347 407
#     4  10  21  37  61  94 133 177 227 275 326 394
#     4  12  26  50  72 108 132 170 234 290 332 420
#     4  12  24  45  68 101 141 179 228 283 333 405
#
# _framework density 23.708061000000001
#
# number of rings (size 3 to 8) (size 9 to 14) (size 15 to 20)
#    0.000    0.615    3.077    5.077    0.000    6.154 
#    0.000    3.077    0.000    0.000    0.000    0.000 
#    0.000    0.000    0.000    0.000    0.000    0.000 
#
# Total GULP energy -322332.670320 kJ/mol
# GULP energy per Si atom -12397.410397 kJ/mol
# Density = 2.365410 g / cm^3
# Si number density = 23.708061 Si / 1000 Ang^3
#
#
#
# Elastic Constant Matrix: (Units=GPa)
#
#
# Indices 1 2 3 4 5 6 
#
# 1 182.8599 55.0985 19.7505 0.0000 0.0000 0.0000
# 2 55.0985 122.3477 32.5463 0.0000 0.0000 0.0000
# 3 19.7505 32.5463 90.8703 0.0000 -0.0002 0.0000
# 4 0.0000 0.0000 0.0000 46.1912 -0.0001 0.0000
# 5 0.0000 0.0000 -0.0002 -0.0001 13.6653 0.0000
# 6 0.0000 0.0000 0.0000 0.0000 0.0000 15.1443
#
#
#
# Elastic Compliance Matrix: (Units=1/GPa)
#
#
# Indices 1 2 3 4 5 6 
#
# 1 0.006340 -0.002751 -0.000393 0.000000 0.000000 0.000000
# 2 -0.002751 0.010228 -0.003065 0.000000 0.000000 0.000000
# 3 -0.000393 -0.003065 0.012188 0.000000 0.000000 0.000000
# 4 0.000000 0.000000 0.000000 0.021649 0.000000 0.000000
# 5 0.000000 0.000000 0.000000 0.000000 0.073178 0.000000
# 6 0.000000 0.000000 0.000000 0.000000 0.000000 0.066031
#
#
# Mechanical properties :
#
#
# Convention : Reuss Voigt Hill
#
# Bulk Modulus (GPa) = 61.20706 67.87426 64.54066
# Shear Modulus (GPa) = 24.09904 34.24569 29.17236
#
# Velocity S-wave (km/s) = 3.19170 3.80475 3.51163
# Velocity P-wave (km/s) = 6.28137 6.92768 6.61243
#
# Compressibility (1/GPa) = 0.01633798
#
# Stress axis : x y z
#
# Youngs Moduli (GPa) = 157.73114 97.77488 82.04835
#
# Poissons Ratio (x) = 0.26894 0.03223
# Poissons Ratio (y) = 0.43386 0.25150
# Poissons Ratio (z) = 0.06195 0.29971
#
# Static dielectric constant tensor:
#      x y z
#    x 4.600340 0.000000 0.000000 
#    y 0.000000 4.199720 0.000000 
#    z 0.000000 0.000000 4.394330 
# 
# 
# High freq. dielectric constant tensor:
#      x y z
#    x 1.943900 0.000000 0.000000 
#    y 0.000000 1.935170 0.000000 
#    z 0.000000 0.000000 1.955180 
# 
# From -- ./inp_files/17583.got.cif
#   From: 2010.03.12/outbox.cif.g09.slc.cpg/sg72_9_cif.got.tgz:17583.got - 2010.04.16 14:54:00.
