data_PCOD8294799
_publ_section_title
;
Structure prediction by ZEFSAII (Michael W. Deem and Ramdas Pophale) SiO2 
 PCOD8294799
Probable space group: I B A M
;
_chemical_formula_sum "Si O2"
_cell_formula_units_Z 96
_cell_length_a 16.296638
_cell_length_b 16.064438
_cell_length_c 18.732371
_cell_angle_alpha 90.000000
_cell_angle_beta 90.000000
_cell_angle_gamma 90.000000
_cell_volume 4904.065994
_symmetry_space_group_name_H-M "I B A M"
_symmetry_group_IT_number 72
_symmetry_cell_setting 'orthorhombic'
loop_
_space_group_symop_operation_xyz
x,y,z
-x,-y,z
x,-y,1/2-z
-x,y,1/2-z
-x,-y,-z
x,y,-z
-x,y,1/2+z
x,-y,1/2+z
1/2+x,1/2+y,1/2+z
1/2-x,1/2-y,1/2+z
1/2+x,1/2-y,-z
1/2-x,1/2+y,-z
1/2-x,1/2-y,1/2-z
1/2+x,1/2+y,1/2-z
1/2-x,1/2+y,z
1/2+x,1/2-y,z
loop_
_atom_site_type_symbol
_atom_site_label
_atom_site_fract_x
_atom_site_fract_y
_atom_site_fract_z
Si Si1 0.349816 0.718291 0.818986
Si Si2 0.493447 0.407179 0.333389
Si Si3 0.404147 0.015374 0.170625
Si Si4 0.333952 0.808277 0.675564
Si Si5 0.860474 0.835623 0.580214
Si Si6 0.319843 0.125538 0.582062
O O1 0.411375 0.646827 0.848348
O O2 0.375684 0.759554 0.742850
O O3 0.261737 0.673748 0.807032
O O4 0.348707 0.792041 0.876689
O O5 0.500000 0.500000 0.367679
O O6 0.500000 0.415910 0.250000
O O7 0.571346 0.361366 0.364256
O O8 0.384556 0.110625 0.154613
O O9 0.500000 0.000000 0.164861
O O10 0.370261 0.000000 0.250000
O O11 0.359920 0.956423 0.114462
O O12 0.336489 0.757548 0.601984
O O13 0.895208 0.838148 0.500000
O O14 0.777945 0.890133 0.587705
O O15 0.347179 0.135788 0.500000
#
# Coordination Sequence:
#
# PCOD8294799 Si02
#       6
#    16  16  16  16  16  16
#     4  10  21  40  64  93 121 165 213 259 311 375
#     4  11  24  38  63  99 127 160 212 266 313 372
#     4  11  24  37  62  97 128 161 208 265 315 369
#     4  10  21  40  65  91 122 164 211 257 310 376
#     4  10  23  43  64  89 127 168 206 262 323 377
#     4  10  23  43  64  91 128 170 212 259 321 385
#
# _framework density 19.575593000000001
#
# number of rings (size 3 to 8) (size 9 to 14) (size 15 to 20)
#    0.000    1.667    3.333    0.000    4.667    2.000 
#    0.000    0.000    0.000    0.000    0.000    0.000 
#    0.000    0.000    0.000    0.000    0.000    0.000 
#
# Total GULP energy -595021.485986 kJ/mol
# GULP energy per Si atom -12396.280958 kJ/mol
# Density = 1.953104 g / cm^3
# Si number density = 19.575593 Si / 1000 Ang^3
#
#
#
# Elastic Constant Matrix: (Units=GPa)
#
#
# Indices 1 2 3 4 5 6 
#
# 1 95.0462 60.3672 36.5111 0.0000 0.0000 0.0000
# 2 60.3672 116.8910 32.6684 0.0000 0.0000 0.0000
# 3 36.5111 32.6684 103.7005 0.0000 0.0000 0.0000
# 4 0.0000 0.0000 0.0000 61.6823 0.0000 0.0000
# 5 0.0000 0.0000 0.0000 0.0000 28.3899 0.0000
# 6 0.0000 0.0000 0.0000 0.0000 0.0000 34.4123
#
#
#
# Elastic Compliance Matrix: (Units=1/GPa)
#
#
# Indices 1 2 3 4 5 6 
#
# 1 0.016725 -0.007667 -0.003473 0.000000 0.000000 0.000000
# 2 -0.007667 0.012895 -0.001363 0.000000 0.000000 0.000000
# 3 -0.003473 -0.001363 0.011295 0.000000 0.000000 0.000000
# 4 0.000000 0.000000 0.000000 0.016212 0.000000 0.000000
# 5 0.000000 0.000000 0.000000 0.000000 0.035224 0.000000
# 6 0.000000 0.000000 0.000000 0.000000 0.000000 0.029059
#
#
# Mechanical properties :
#
#
# Convention : Reuss Voigt Hill
#
# Bulk Modulus (GPa) = 62.85556 63.85901 63.35729
# Shear Modulus (GPa) = 32.95545 37.30298 35.12922
#
# Velocity S-wave (km/s) = 4.10750 4.37004 4.24080
# Velocity P-wave (km/s) = 7.39420 7.62598 7.51098
#
# Compressibility (1/GPa) = 0.01590949
#
# Stress axis : x y z
#
# Youngs Moduli (GPa) = 59.79146 77.54774 88.53124
#
# Poissons Ratio (x) = 0.59453 0.30750
# Poissons Ratio (y) = 0.45840 0.12067
# Poissons Ratio (z) = 0.20767 0.10570
#
# Static dielectric constant tensor:
#      x y z
#    x 3.585530 0.000000 0.000000 
#    y 0.000000 3.710540 0.000000 
#    z 0.000000 0.000000 3.562960 
# 
# 
# High freq. dielectric constant tensor:
#      x y z
#    x 1.764140 0.000000 0.000000 
#    y 0.000000 1.761390 0.000000 
#    z 0.000000 0.000000 1.759860 
# 
# From -- ./inp_files/38063.got.cif
#   From: 2010.03.12/outbox.cif.g09.slc.cpg/sg72_20_cif.got.tgz:38063.got - 2010.04.16 14:54:00.
