data_PCOD8294021
_publ_section_title
;
Structure prediction by ZEFSAII (Michael W. Deem and Ramdas Pophale) SiO2 
 PCOD8294021
Probable space group: I B A M
;
_chemical_formula_sum "Si O2"
_cell_formula_units_Z 96
_cell_length_a 13.343874
_cell_length_b 26.195766
_cell_length_c 15.466561
_cell_angle_alpha 90.000000
_cell_angle_beta 90.000000
_cell_angle_gamma 90.000000
_cell_volume 5406.382810
_symmetry_space_group_name_H-M "I B A M"
_symmetry_group_IT_number 72
_symmetry_cell_setting 'orthorhombic'
loop_
_space_group_symop_operation_xyz
x,y,z
-x,-y,z
x,-y,1/2-z
-x,y,1/2-z
-x,-y,-z
x,y,-z
-x,y,1/2+z
x,-y,1/2+z
1/2+x,1/2+y,1/2+z
1/2-x,1/2-y,1/2+z
1/2+x,1/2-y,-z
1/2-x,1/2+y,-z
1/2-x,1/2-y,1/2-z
1/2+x,1/2+y,1/2-z
1/2-x,1/2+y,z
1/2+x,1/2-y,z
loop_
_atom_site_type_symbol
_atom_site_label
_atom_site_fract_x
_atom_site_fract_y
_atom_site_fract_z
Si Si1 0.386615 0.142377 0.598697
Si Si2 0.779034 0.691608 0.251896
Si Si3 0.721143 0.436495 0.593035
Si Si4 0.258278 0.036312 0.167618
Si Si5 0.879241 0.628987 0.601209
Si Si6 0.384116 0.608427 0.743715
O O1 0.366086 0.161463 0.500000
O O2 0.351640 0.183806 0.669128
O O3 0.325212 0.090764 0.620400
O O4 0.502303 0.130477 0.611372
O O5 0.750000 0.750000 0.250000
O O6 0.831972 0.675040 0.342072
O O7 0.675329 0.661304 0.241995
O O8 0.687040 0.417267 0.500000
O O9 0.737723 0.497445 0.589788
O O10 0.630426 0.421600 0.654559
O O11 0.347433 0.074465 0.141471
O O12 0.158791 0.070743 0.182357
O O13 0.285577 0.000000 0.250000
O O14 0.846897 0.634505 0.500000
O O15 0.500000 0.621331 0.750000
#
# Coordination Sequence:
#
# PCOD8294021 Si02
#       6
#    16  16  16  16  16  16
#     4   9  19  35  55  78 106 135 169 213 264 320
#     4  10  21  36  56  77 100 133 173 219 270 322
#     4   9  17  31  50  73  99 132 169 204 243 295
#     4   9  18  31  49  74 106 141 174 209 247 298
#     4  10  20  35  54  80 111 139 169 215 268 320
#     4   9  19  35  49  67  98 133 168 210 255 297
#
# _framework density 17.756789000000001
#
# number of rings (size 3 to 8) (size 9 to 14) (size 15 to 20)
#    0.000    2.667    0.000    2.000    0.000    5.667 
#    0.000   11.667    0.000    0.000    0.000    0.000 
#    0.000    0.000    0.000    0.000    0.000    0.000 
#
# Total GULP energy -594824.440179 kJ/mol
# GULP energy per Si atom -12392.175837 kJ/mol
# Density = 1.771637 g / cm^3
# Si number density = 17.756789 Si / 1000 Ang^3
#
#
#
# Elastic Constant Matrix: (Units=GPa)
#
#
# Indices 1 2 3 4 5 6 
#
# 1 115.3319 38.5362 50.3677 0.0000 0.0000 0.0000
# 2 38.5362 117.0381 41.2446 -0.0001 0.0000 0.0000
# 3 50.3677 41.2446 101.4521 0.0000 0.0000 0.0000
# 4 0.0000 -0.0001 0.0000 17.9813 0.0000 0.0000
# 5 0.0000 0.0000 0.0000 0.0000 22.7557 0.0000
# 6 0.0000 0.0000 0.0000 0.0000 0.0000 15.8172
#
#
#
# Elastic Compliance Matrix: (Units=1/GPa)
#
#
# Indices 1 2 3 4 5 6 
#
# 1 0.011485 -0.002068 -0.004861 0.000000 0.000000 0.000000
# 2 -0.002068 0.010346 -0.003179 0.000000 0.000000 0.000000
# 3 -0.004861 -0.003179 0.013562 0.000000 0.000000 0.000000
# 4 0.000000 0.000000 0.000000 0.055613 0.000000 0.000000
# 5 0.000000 0.000000 0.000000 0.000000 0.043945 0.000000
# 6 0.000000 0.000000 0.000000 0.000000 0.000000 0.063222
#
#
# Mechanical properties :
#
#
# Convention : Reuss Voigt Hill
#
# Bulk Modulus (GPa) = 65.89297 66.01324 65.95311
# Shear Modulus (GPa) = 22.37652 24.88909 23.63281
#
# Velocity S-wave (km/s) = 3.55373 3.74795 3.65213
# Velocity P-wave (km/s) = 7.35037 7.48241 7.41668
#
# Compressibility (1/GPa) = 0.01517613
#
# Stress axis : x y z
#
# Youngs Moduli (GPa) = 87.07329 96.65966 73.73275
#
# Poissons Ratio (x) = 0.19994 0.35840
# Poissons Ratio (y) = 0.18011 0.23440
# Poissons Ratio (z) = 0.42325 0.30728
#
# Static dielectric constant tensor:
#      x y z
#    x 3.086320 0.000000 0.000000 
#    y 0.000000 3.218340 0.000000 
#    z 0.000000 0.000000 3.654980 
# 
# 
# High freq. dielectric constant tensor:
#      x y z
#    x 1.673440 0.000000 0.000000 
#    y 0.000000 1.677120 0.000000 
#    z 0.000000 0.000000 1.699040 
# 
# From -- ./inp_files/29460.got.cif
#   From: 2010.03.12/outbox.cif.g09.slc.cpg/sg72_15_cif.got.tgz:29460.got - 2010.04.16 14:54:00.
