data_PCOD8294450
_publ_section_title
;
Structure prediction by ZEFSAII (Michael W. Deem and Ramdas Pophale) SiO2 
 PCOD8294450
Probable space group: I B A M
;
_chemical_formula_sum "Si O2"
_cell_formula_units_Z 64
_cell_length_a 21.674791
_cell_length_b 5.294564
_cell_length_c 20.357371
_cell_angle_alpha 90.000000
_cell_angle_beta 90.000000
_cell_angle_gamma 90.000000
_cell_volume 2336.182747
_symmetry_space_group_name_H-M "I B A M"
_symmetry_group_IT_number 72
_symmetry_cell_setting 'orthorhombic'
loop_
_space_group_symop_operation_xyz
x,y,z
-x,-y,z
x,-y,1/2-z
-x,y,1/2-z
-x,-y,-z
x,y,-z
-x,y,1/2+z
x,-y,1/2+z
1/2+x,1/2+y,1/2+z
1/2-x,1/2-y,1/2+z
1/2+x,1/2-y,-z
1/2-x,1/2+y,-z
1/2-x,1/2-y,1/2-z
1/2+x,1/2+y,1/2-z
1/2-x,1/2+y,z
1/2+x,1/2-y,z
loop_
_atom_site_type_symbol
_atom_site_label
_atom_site_fract_x
_atom_site_fract_y
_atom_site_fract_z
Si Si1 0.286491 0.724757 0.500000
Si Si2 0.709540 0.163234 0.359591
Si Si3 0.930594 0.755275 0.422595
Si Si4 0.567821 0.754908 0.633699
Si Si5 0.122174 0.500000 0.750000
O O1 0.269192 0.428707 0.500000
O O2 0.324157 0.786666 0.432452
O O3 0.760399 0.383997 0.355442
O O4 0.662752 0.175181 0.298974
O O5 0.938741 0.787289 0.500000
O O6 0.898038 0.491308 0.402403
O O7 0.996837 0.750478 0.386612
O O8 0.897313 0.001639 0.390954
O O9 0.578867 0.800342 0.711357
#
# Coordination Sequence:
#
# PCOD8294450 Si02
#       5
#     8  16  16  16   8
#     4   8  16  36  62  86 112 161 224 261 312 386
#     4  10  22  42  67  89 130 181 220 268 336 404
#     4  10  20  43  68  90 126 176 220 263 335 394
#     4  10  22  37  63  93 130 167 214 271 320 398
#     4  12  26  41  62 106 140 168 224 275 344 398
#
# _framework density 27.395119999999999
#
# number of rings (size 3 to 8) (size 9 to 14) (size 15 to 20)
#    0.000    2.000    0.000    4.500    0.000    7.000 
#    6.750    5.000    5.500    0.000    0.000    0.000 
#    0.000    0.000    0.000    0.000    0.000    0.000 
#
# Total GULP energy -396462.070383 kJ/mol
# GULP energy per Si atom -12389.439699 kJ/mol
# Density = 2.733277 g / cm^3
# Si number density = 27.395120 Si / 1000 Ang^3
#
#
#
# Elastic Constant Matrix: (Units=GPa)
#
#
# Indices 1 2 3 4 5 6 
#
# 1 59.1113 30.5203 75.6777 0.0000 0.0000 0.0000
# 2 30.5203 253.3277 78.3268 0.0000 0.0000 0.0000
# 3 75.6777 78.3268 266.7749 0.0000 0.0000 0.0000
# 4 0.0000 0.0000 0.0000 50.8597 0.0000 0.0000
# 5 0.0000 0.0000 0.0000 0.0000 73.9962 0.0000
# 6 0.0000 0.0000 0.0000 0.0000 0.0000 27.3751
#
#
#
# Elastic Compliance Matrix: (Units=1/GPa)
#
#
# Indices 1 2 3 4 5 6 
#
# 1 0.026778 -0.000965 -0.007313 0.000000 0.000000 0.000000
# 2 -0.000965 0.004376 -0.001011 0.000000 0.000000 0.000000
# 3 -0.007313 -0.001011 0.006120 0.000000 0.000000 0.000000
# 4 0.000000 0.000000 0.000000 0.019662 0.000000 0.000000
# 5 0.000000 0.000000 0.000000 0.000000 0.013514 0.000000
# 6 0.000000 0.000000 0.000000 0.000000 0.000000 0.036530
#
#
# Mechanical properties :
#
#
# Convention : Reuss Voigt Hill
#
# Bulk Modulus (GPa) = 53.48771 105.36261 79.42516
# Shear Modulus (GPa) = 37.93914 56.75882 47.34898
#
# Velocity S-wave (km/s) = 3.72544 4.55671 4.16188
# Velocity P-wave (km/s) = 6.17026 8.13810 7.22152
#
# Compressibility (1/GPa) = 0.01869588
#
# Stress axis : x y z
#
# Youngs Moduli (GPa) = 37.34422 228.50005 163.40245
#
# Poissons Ratio (x) = 0.22051 1.19495
# Poissons Ratio (y) = 0.03604 0.16523
# Poissons Ratio (z) = 0.27309 0.23105
#
# Static dielectric constant tensor:
#      x y z
#    x 5.909350 0.000000 0.000000 
#    y 0.000000 8.655040 0.000000 
#    z 0.000000 0.000000 5.490050 
# 
# 
# High freq. dielectric constant tensor:
#      x y z
#    x 2.120260 0.000000 0.000000 
#    y 0.000000 2.134720 0.000000 
#    z 0.000000 0.000000 2.117340 
# 
# From -- ./inp_files/45863.got.cif
#   From: 2010.03.12/outbox.cif.g09.slc.cpg/sg72_23_cif.got.tgz:45863.got - 2010.04.16 14:54:00.
