data_PCOD8294917
_publ_section_title
;
Structure prediction by ZEFSAII (Michael W. Deem and Ramdas Pophale) SiO2 
 PCOD8294917
Probable space group: I B A M
;
_chemical_formula_sum "Si O2"
_cell_formula_units_Z 64
_cell_length_a 34.878987
_cell_length_b 4.899422
_cell_length_c 17.738233
_cell_angle_alpha 90.000000
_cell_angle_beta 90.000000
_cell_angle_gamma 90.000000
_cell_volume 3031.231227
_symmetry_space_group_name_H-M "I B A M"
_symmetry_group_IT_number 72
_symmetry_cell_setting 'orthorhombic'
loop_
_space_group_symop_operation_xyz
x,y,z
-x,-y,z
x,-y,1/2-z
-x,y,1/2-z
-x,-y,-z
x,y,-z
-x,y,1/2+z
x,-y,1/2+z
1/2+x,1/2+y,1/2+z
1/2-x,1/2-y,1/2+z
1/2+x,1/2-y,-z
1/2-x,1/2+y,-z
1/2-x,1/2-y,1/2-z
1/2+x,1/2+y,1/2-z
1/2-x,1/2+y,z
1/2+x,1/2-y,z
loop_
_atom_site_type_symbol
_atom_site_label
_atom_site_fract_x
_atom_site_fract_y
_atom_site_fract_z
Si Si1 0.044397 0.568933 0.914191
Si Si2 0.923427 0.924055 0.832953
Si Si3 0.659381 0.264128 0.798946
Si Si4 0.224532 0.731572 0.586078
O O1 0.066260 0.382778 0.854744
O O2 0.000000 0.500000 0.905616
O O3 0.056128 0.877810 0.893250
O O4 0.057672 0.516661 0.000000
O O5 0.877210 0.923651 0.834343
O O6 0.939015 0.000000 0.750000
O O7 0.680521 0.500000 0.750000
O O8 0.687810 0.162305 0.863644
O O9 0.646875 0.000000 0.750000
O O10 0.210955 0.698506 0.500000
O O11 0.259819 0.531431 0.603875
#
# Coordination Sequence:
#
# PCOD8294917 Si02
#       4
#    16  16  16  16
#     4  11  24  41  62  90 122 157 201 250 301 363
#     4  11  23  41  62  89 123 158 201 250 302 363
#     4  11  23  40  61  88 121 157 202 252 303 364
#     4  10  22  39  59  87 121 157 202 252 302 362
#
# _framework density 21.113533
#
# number of rings (size 3 to 8) (size 9 to 14) (size 15 to 20)
#    0.000    1.250    0.000    6.750    0.000   10.000 
#    0.000    2.500    0.000    0.000    0.000    0.000 
#    0.000    0.000    0.000    0.000    0.000    0.000 
#
# Total GULP energy -396835.861365 kJ/mol
# GULP energy per Si atom -12401.120668 kJ/mol
# Density = 2.106548 g / cm^3
# Si number density = 21.113533 Si / 1000 Ang^3
#
#
#
# Elastic Constant Matrix: (Units=GPa)
#
#
# Indices 1 2 3 4 5 6 
#
# 1 90.5281 20.1648 58.2242 0.0000 0.0000 0.0000
# 2 20.1648 91.9139 25.6931 0.0000 0.0000 0.0000
# 3 58.2242 25.6931 109.8958 0.0000 0.0000 0.0000
# 4 0.0000 0.0000 0.0000 36.6339 0.0000 0.0000
# 5 0.0000 0.0000 0.0000 0.0000 23.4207 0.0000
# 6 0.0000 0.0000 0.0000 0.0000 0.0000 20.6405
#
#
#
# Elastic Compliance Matrix: (Units=1/GPa)
#
#
# Indices 1 2 3 4 5 6 
#
# 1 0.016897 -0.001289 -0.008651 0.000000 0.000000 0.000000
# 2 -0.001289 0.011739 -0.002062 0.000000 0.000000 0.000000
# 3 -0.008651 -0.002062 0.014165 0.000000 0.000000 0.000000
# 4 0.000000 0.000000 0.000000 0.027297 0.000000 0.000000
# 5 0.000000 0.000000 0.000000 0.000000 0.042697 0.000000
# 6 0.000000 0.000000 0.000000 0.000000 0.000000 0.048449
#
#
# Mechanical properties :
#
#
# Convention : Reuss Voigt Hill
#
# Bulk Modulus (GPa) = 53.19703 55.61134 54.40419
# Shear Modulus (GPa) = 26.10782 28.68940 27.39861
#
# Velocity S-wave (km/s) = 3.52027 3.69021 3.60624
# Velocity P-wave (km/s) = 6.46324 6.67482 6.56988
#
# Compressibility (1/GPa) = 0.01879804
#
# Stress axis : x y z
#
# Youngs Moduli (GPa) = 59.18043 85.18761 70.59639
#
# Poissons Ratio (x) = 0.10979 0.61074
# Poissons Ratio (y) = 0.07627 0.14554
# Poissons Ratio (z) = 0.51198 0.17563
#
# Static dielectric constant tensor:
#      x y z
#    x 3.550500 0.000000 0.000000 
#    y 0.000000 3.892220 0.000000 
#    z 0.000000 0.000000 3.885370 
# 
# 
# High freq. dielectric constant tensor:
#      x y z
#    x 1.816930 0.000000 0.000000 
#    y 0.000000 1.845570 0.000000 
#    z 0.000000 0.000000 1.830940 
# 
# From -- ./inp_files/34106.got.cif
#   From: 2010.03.12/outbox.cif.g09.slc.cpg/sg72_18_cif.got.tgz:34106.got - 2010.04.16 14:54:00.
