data_PCOD8294597
_publ_section_title
;
Structure prediction by ZEFSAII (Michael W. Deem and Ramdas Pophale) SiO2 
 PCOD8294597
Probable space group: I B A M
;
_chemical_formula_sum "Si O2"
_cell_formula_units_Z 56
_cell_length_a 18.365966
_cell_length_b 5.311174
_cell_length_c 24.665529
_cell_angle_alpha 90.000000
_cell_angle_beta 90.000000
_cell_angle_gamma 90.000000
_cell_volume 2405.995107
_symmetry_space_group_name_H-M "I B A M"
_symmetry_group_IT_number 72
_symmetry_cell_setting 'orthorhombic'
loop_
_space_group_symop_operation_xyz
x,y,z
-x,-y,z
x,-y,1/2-z
-x,y,1/2-z
-x,-y,-z
x,y,-z
-x,y,1/2+z
x,-y,1/2+z
1/2+x,1/2+y,1/2+z
1/2-x,1/2-y,1/2+z
1/2+x,1/2-y,-z
1/2-x,1/2+y,-z
1/2-x,1/2-y,1/2-z
1/2+x,1/2+y,1/2-z
1/2-x,1/2+y,z
1/2+x,1/2-y,z
loop_
_atom_site_type_symbol
_atom_site_label
_atom_site_fract_x
_atom_site_fract_y
_atom_site_fract_z
Si Si1 0.081997 0.591429 0.108851
Si Si2 0.082597 0.750761 0.772833
Si Si3 0.294474 0.811148 0.937204
Si Si4 0.547195 0.745745 0.000000
O O1 0.092158 0.757055 0.162500
O O2 0.136280 0.353201 0.102800
O O3 0.000000 0.500000 0.110288
O O4 0.096330 0.761853 0.054677
O O5 0.121742 0.500000 0.750000
O O6 0.000000 0.750450 0.750000
O O7 0.122288 0.000000 0.750000
O O8 0.239040 0.040032 0.923746
O O9 0.319894 0.825125 0.000000
O O10 0.500000 0.500000 0.000000
O O11 0.500000 0.000000 0.000000
#
# Coordination Sequence:
#
# PCOD8294597 Si02
#       4
#    16  16  16   8
#     4  11  22  42  68  99 131 166 224 276 323 389
#     4  10  21  37  58  91 125 166 205 265 321 378
#     4  10  23  43  63  92 135 178 211 257 334 406
#     4  10  24  34  54  96 130 152 193 274 327 360
#
# _framework density 23.275193000000002
#
# number of rings (size 3 to 8) (size 9 to 14) (size 15 to 20)
#    0.000    1.714    4.286    0.000    4.000    6.857 
#    0.000    0.000    0.000    5.143    0.000    0.000 
#    0.000    0.000    0.000    0.000    0.000    0.000 
#
# Total GULP energy -346972.659754 kJ/mol
# GULP energy per Si atom -12391.880705 kJ/mol
# Density = 2.322222 g / cm^3
# Si number density = 23.275193 Si / 1000 Ang^3
#
#
#
# Elastic Constant Matrix: (Units=GPa)
#
#
# Indices 1 2 3 4 5 6 
#
# 1 60.3907 -1.4169 2.2584 0.0000 0.0000 0.0000
# 2 -1.4169 140.6544 42.3010 0.0000 0.0000 0.0000
# 3 2.2584 42.3010 194.5833 0.0000 0.0000 0.0000
# 4 0.0000 0.0000 0.0000 27.4465 0.0000 0.0000
# 5 0.0000 0.0000 0.0000 0.0000 2.1168 0.0000
# 6 0.0000 0.0000 0.0000 0.0000 0.0000 15.0960
#
#
#
# Elastic Compliance Matrix: (Units=1/GPa)
#
#
# Indices 1 2 3 4 5 6 
#
# 1 0.016574 0.000241 -0.000245 0.000000 0.000000 0.000000
# 2 0.000241 0.007610 -0.001657 0.000000 0.000000 0.000000
# 3 -0.000245 -0.001657 0.005502 0.000000 0.000000 0.000000
# 4 0.000000 0.000000 0.000000 0.036434 0.000000 0.000000
# 5 0.000000 0.000000 0.000000 0.000000 0.472411 0.000000
# 6 0.000000 0.000000 0.000000 0.000000 0.000000 0.066243
#
#
# Mechanical properties :
#
#
# Convention : Reuss Voigt Hill
#
# Bulk Modulus (GPa) = 37.93099 53.54592 45.73846
# Shear Modulus (GPa) = 8.10523 32.43093 20.26808
#
# Velocity S-wave (km/s) = 1.86813 3.73684 2.95414
# Velocity P-wave (km/s) = 4.58098 6.45555 5.59730
#
# Compressibility (1/GPa) = 0.02636366
#
# Stress axis : x y z
#
# Youngs Moduli (GPa) = 60.33682 131.39814 181.74210
#
# Poissons Ratio (x) = -0.03161 0.04446
# Poissons Ratio (y) = -0.01451 0.30119
# Poissons Ratio (z) = 0.01476 0.21776
#
# Static dielectric constant tensor:
#      x y z
#    x 3.780980 0.000000 0.000000 
#    y 0.000000 5.169020 0.000000 
#    z 0.000000 0.000000 5.927240 
# 
# 
# High freq. dielectric constant tensor:
#      x y z
#    x 1.874120 0.000000 0.000000 
#    y 0.000000 1.931460 0.000000 
#    z 0.000000 0.000000 1.920140 
# 
# From -- ./inp_files/41303.got.cif
#   From: 2010.03.12/outbox.cif.g09.slc.cpg/sg72_21_cif.got.tgz:41303.got - 2010.04.16 14:54:00.
