data_PCOD8294821
_publ_section_title
;
Structure prediction by ZEFSAII (Michael W. Deem and Ramdas Pophale) SiO2 
 PCOD8294821
Probable space group: I B A M
;
_chemical_formula_sum "Si O2"
_cell_formula_units_Z 112
_cell_length_a 14.295111
_cell_length_b 25.243669
_cell_length_c 15.636273
_cell_angle_alpha 90.000000
_cell_angle_beta 90.000000
_cell_angle_gamma 90.000000
_cell_volume 5642.521899
_symmetry_space_group_name_H-M "I B A M"
_symmetry_group_IT_number 72
_symmetry_cell_setting 'orthorhombic'
loop_
_space_group_symop_operation_xyz
x,y,z
-x,-y,z
x,-y,1/2-z
-x,y,1/2-z
-x,-y,-z
x,y,-z
-x,y,1/2+z
x,-y,1/2+z
1/2+x,1/2+y,1/2+z
1/2-x,1/2-y,1/2+z
1/2+x,1/2-y,-z
1/2-x,1/2+y,-z
1/2-x,1/2-y,1/2-z
1/2+x,1/2+y,1/2-z
1/2-x,1/2+y,z
1/2+x,1/2-y,z
loop_
_atom_site_type_symbol
_atom_site_label
_atom_site_fract_x
_atom_site_fract_y
_atom_site_fract_z
Si Si1 0.470371 0.122481 0.599888
Si Si2 0.645356 0.524372 0.101371
Si Si3 0.328137 0.141285 0.829835
Si Si4 0.830434 0.552000 0.798651
Si Si5 0.353461 0.679747 0.097472
Si Si6 0.907493 0.721120 0.202835
Si Si7 0.959906 0.078279 0.398762
O O1 0.454247 0.115279 0.500000
O O2 0.579483 0.120563 0.622638
O O3 0.418124 0.074848 0.648350
O O4 0.430023 0.178720 0.629206
O O5 0.744831 0.538337 0.139903
O O6 0.610575 0.467135 0.136179
O O7 0.566680 0.567380 0.130495
O O8 0.656967 0.524715 0.000000
O O9 0.292415 0.094866 0.768390
O O10 0.249506 0.153934 0.899799
O O11 0.342846 0.194465 0.774548
O O12 0.866668 0.500000 0.750000
O O13 0.355852 0.730039 0.159060
O O14 0.428467 0.636532 0.131577
O O15 0.375222 0.696489 0.000000
O O16 0.000000 0.742017 0.250000
O O17 0.953852 0.074565 0.500000
#
# Coordination Sequence:
#
# PCOD8294821 Si02
#       7
#    16  16  16  16  16  16  16
#     4  10  21  41  62  80 105 146 189 229 279 336
#     4   9  17  35  57  79 110 150 185 224 278 336
#     4  10  22  38  55  79 115 149 177 225 289 334
#     4  11  22  36  56  83 111 141 183 231 276 330
#     4  11  20  34  57  85 112 146 190 230 267 332
#     4   9  20  37  58  81 111 145 181 232 287 330
#     4   8  17  32  53  80 113 144 179 226 273 318
#
# _framework density 19.84928
#
# number of rings (size 3 to 8) (size 9 to 14) (size 15 to 20)
#    0.000    2.286    0.000    4.714    0.000    2.286 
#    0.000    8.571    0.000    6.857    0.000    0.000 
#    0.000    0.000    0.000    0.000    0.000    0.000 
#
# Total GULP energy -694328.385006 kJ/mol
# GULP energy per Si atom -12398.721161 kJ/mol
# Density = 1.980410 g / cm^3
# Si number density = 19.849280 Si / 1000 Ang^3
#
#
#
# Elastic Constant Matrix: (Units=GPa)
#
#
# Indices 1 2 3 4 5 6 
#
# 1 100.4904 52.2704 36.2243 0.0000 0.0000 0.0000
# 2 52.2704 101.2315 40.7208 0.0001 0.0000 0.0000
# 3 36.2243 40.7208 73.1121 0.0001 0.0000 0.0000
# 4 0.0000 0.0001 0.0001 23.9982 0.0000 0.0000
# 5 0.0000 0.0000 0.0000 0.0000 27.3326 0.0000
# 6 0.0000 0.0000 0.0000 0.0000 0.0000 22.6224
#
#
#
# Elastic Compliance Matrix: (Units=1/GPa)
#
#
# Indices 1 2 3 4 5 6 
#
# 1 0.014403 -0.005885 -0.003859 0.000000 0.000000 0.000000
# 2 -0.005885 0.015135 -0.005514 0.000000 0.000000 0.000000
# 3 -0.003859 -0.005514 0.018660 0.000000 0.000000 0.000000
# 4 0.000000 0.000000 0.000000 0.041670 0.000000 0.000000
# 5 0.000000 0.000000 0.000000 0.000000 0.036586 0.000000
# 6 0.000000 0.000000 0.000000 0.000000 0.000000 0.044204
#
#
# Mechanical properties :
#
#
# Convention : Reuss Voigt Hill
#
# Bulk Modulus (GPa) = 56.54860 59.25165 57.90013
# Shear Modulus (GPa) = 24.14668 24.49856 24.32262
#
# Velocity S-wave (km/s) = 3.49162 3.51697 3.50432
# Velocity P-wave (km/s) = 6.69373 6.81232 6.75329
#
# Compressibility (1/GPa) = 0.01768390
#
# Stress axis : x y z
#
# Youngs Moduli (GPa) = 69.42924 66.07211 53.58932
#
# Poissons Ratio (x) = 0.38883 0.20678
# Poissons Ratio (y) = 0.40858 0.29549
# Poissons Ratio (z) = 0.26790 0.36431
#
# Static dielectric constant tensor:
#      x y z
#    x 3.566290 0.000000 0.000000 
#    y 0.000000 3.728040 0.000000 
#    z 0.000000 0.000000 3.506780 
# 
# 
# High freq. dielectric constant tensor:
#      x y z
#    x 1.775420 0.000000 0.000000 
#    y 0.000000 1.773540 0.000000 
#    z 0.000000 0.000000 1.769210 
# 
# From -- ./inp_files/22157.got.cif
#   From: 2010.03.12/outbox.cif.g09.slc.cpg/sg72_12_cif.got.tgz:22157.got - 2010.04.16 14:54:00.
