data_PCOD8294272
_publ_section_title
;
Structure prediction by ZEFSAII (Michael W. Deem and Ramdas Pophale) SiO2 
 PCOD8294272
Probable space group: I B A M
;
_chemical_formula_sum "Si O2"
_cell_formula_units_Z 96
_cell_length_a 20.277478
_cell_length_b 27.709684
_cell_length_c 8.497891
_cell_angle_alpha 90.000000
_cell_angle_beta 90.000000
_cell_angle_gamma 90.000000
_cell_volume 4774.816305
_symmetry_space_group_name_H-M "I B A M"
_symmetry_group_IT_number 72
_symmetry_cell_setting 'orthorhombic'
loop_
_space_group_symop_operation_xyz
x,y,z
-x,-y,z
x,-y,1/2-z
-x,y,1/2-z
-x,-y,-z
x,y,-z
-x,y,1/2+z
x,-y,1/2+z
1/2+x,1/2+y,1/2+z
1/2-x,1/2-y,1/2+z
1/2+x,1/2-y,-z
1/2-x,1/2+y,-z
1/2-x,1/2-y,1/2-z
1/2+x,1/2+y,1/2-z
1/2-x,1/2+y,z
1/2+x,1/2-y,z
loop_
_atom_site_type_symbol
_atom_site_label
_atom_site_fract_x
_atom_site_fract_y
_atom_site_fract_z
Si Si1 0.430096 0.052018 0.684353
Si Si2 0.572165 0.602484 0.686540
Si Si3 0.303261 0.552435 0.313770
Si Si4 0.929377 0.206840 0.813255
Si Si5 0.313275 0.776069 0.685123
Si Si6 0.313700 0.114565 0.813895
O O1 0.500000 0.070256 0.750000
O O2 0.436210 0.047506 0.500000
O O3 0.374396 0.089456 0.729556
O O4 0.410159 0.000000 0.750000
O O5 0.500000 0.589380 0.750000
O O6 0.574224 0.596977 0.500000
O O7 0.622359 0.564902 0.764526
O O8 0.592304 0.656600 0.734646
O O9 0.283789 0.500000 0.250000
O O10 0.294981 0.553491 0.500000
O O11 0.255217 0.591429 0.236199
O O12 0.878383 0.247759 0.758954
O O13 0.000000 0.223816 0.750000
O O14 0.931912 0.199369 0.000000
O O15 0.308714 0.775714 0.500000
O O16 0.250000 0.750000 0.750000
O O17 0.315092 0.830586 0.747678
O O18 0.322443 0.110680 0.000000
#
# Coordination Sequence:
#
# PCOD8294272 Si02
#       6
#    16  16  16  16  16  16
#     4  11  22  39  62  89 119 156 196 242 293 350
#     4  11  22  39  62  90 120 156 195 239 290 347
#     4  12  25  42  62  88 118 154 196 243 293 349
#     4  10  20  37  59  87 118 154 195 239 287 344
#     4  10  23  39  59  85 117 153 195 241 290 345
#     4  11  23  41  61  87 120 157 197 243 294 350
#
# _framework density 20.105485000000002
#
# number of rings (size 3 to 8) (size 9 to 14) (size 15 to 20)
#    0.000    1.167    0.000    8.500    0.000    6.333 
#    0.000    3.333    0.000    0.000    0.000    0.000 
#    0.000    0.000    0.000    0.000    0.000    0.000 
#
# Total GULP energy -595488.982132 kJ/mol
# GULP energy per Si atom -12406.020461 kJ/mol
# Density = 2.005972 g / cm^3
# Si number density = 20.105485 Si / 1000 Ang^3
#
#
#
# Elastic Constant Matrix: (Units=GPa)
#
#
# Indices 1 2 3 4 5 6 
#
# 1 108.6639 53.0508 21.4995 0.0000 0.0000 0.0000
# 2 53.0508 96.0578 25.7013 0.0000 0.0000 0.0000
# 3 21.4995 25.7013 95.5364 0.0000 0.0000 0.0000
# 4 0.0000 0.0000 0.0000 31.1159 0.0000 0.0000
# 5 0.0000 0.0000 0.0000 0.0000 40.0739 0.0000
# 6 0.0000 0.0000 0.0000 0.0000 0.0000 20.4351
#
#
#
# Elastic Compliance Matrix: (Units=1/GPa)
#
#
# Indices 1 2 3 4 5 6 
#
# 1 0.012696 -0.006732 -0.001046 0.000000 0.000000 0.000000
# 2 -0.006732 0.014787 -0.002463 0.000000 0.000000 0.000000
# 3 -0.001046 -0.002463 0.011365 0.000000 0.000000 0.000000
# 4 0.000000 0.000000 0.000000 0.032138 0.000000 0.000000
# 5 0.000000 0.000000 0.000000 0.000000 0.024954 0.000000
# 6 0.000000 0.000000 0.000000 0.000000 0.000000 0.048935
#
#
# Mechanical properties :
#
#
# Convention : Reuss Voigt Hill
#
# Bulk Modulus (GPa) = 54.44723 55.64014 55.04369
# Shear Modulus (GPa) = 29.15777 31.65876 30.40827
#
# Velocity S-wave (km/s) = 3.81233 3.97247 3.89322
# Velocity P-wave (km/s) = 6.82042 6.98390 6.90264
#
# Compressibility (1/GPa) = 0.01836641
#
# Stress axis : x y z
#
# Youngs Moduli (GPa) = 78.76308 67.62509 87.98737
#
# Poissons Ratio (x) = 0.45525 0.09205
# Poissons Ratio (y) = 0.53023 0.21673
# Poissons Ratio (z) = 0.08240 0.16657
#
# Static dielectric constant tensor:
#      x y z
#    x 3.678170 0.000000 0.000000 
#    y 0.000000 3.754580 0.000000 
#    z 0.000000 0.000000 3.962960 
# 
# 
# High freq. dielectric constant tensor:
#      x y z
#    x 1.800180 0.000000 0.000000 
#    y 0.000000 1.788810 0.000000 
#    z 0.000000 0.000000 1.799950 
# 
# From -- ./inp_files/5958.got.cif
#   From: 2010.03.12/outbox.cif.g09.slc.cpg/sg72_3_cif.got.tgz:5958.got - 2010.04.16 14:54:00.
