data_PCOD8294663
_publ_section_title
;
Structure prediction by ZEFSAII (Michael W. Deem and Ramdas Pophale) SiO2 
 PCOD8294663
Probable space group: I B A M
;
_chemical_formula_sum "Si O2"
_cell_formula_units_Z 112
_cell_length_a 14.501942
_cell_length_b 14.413777
_cell_length_c 28.358833
_cell_angle_alpha 90.000000
_cell_angle_beta 90.000000
_cell_angle_gamma 90.000000
_cell_volume 5927.783283
_symmetry_space_group_name_H-M "I B A M"
_symmetry_group_IT_number 72
_symmetry_cell_setting 'orthorhombic'
loop_
_space_group_symop_operation_xyz
x,y,z
-x,-y,z
x,-y,1/2-z
-x,y,1/2-z
-x,-y,-z
x,y,-z
-x,y,1/2+z
x,-y,1/2+z
1/2+x,1/2+y,1/2+z
1/2-x,1/2-y,1/2+z
1/2+x,1/2-y,-z
1/2-x,1/2+y,-z
1/2-x,1/2-y,1/2-z
1/2+x,1/2+y,1/2-z
1/2-x,1/2+y,z
1/2+x,1/2-y,z
loop_
_atom_site_type_symbol
_atom_site_label
_atom_site_fract_x
_atom_site_fract_y
_atom_site_fract_z
Si Si1 0.139646 0.052420 0.054135
Si Si2 0.281569 0.866487 0.822896
Si Si3 0.120035 0.255679 0.363775
Si Si4 0.957469 0.737348 0.205883
Si Si5 0.449202 0.642962 0.553604
Si Si6 0.769255 0.432886 0.139743
Si Si7 0.662863 0.401853 0.233674
O O1 0.222199 0.078728 0.088822
O O2 0.058132 0.127040 0.061023
O O3 0.103608 0.950758 0.068037
O O4 0.174581 0.054376 0.000000
O O5 0.210316 0.803321 0.851221
O O6 0.380826 0.818649 0.822374
O O7 0.246877 0.878692 0.769242
O O8 0.299568 0.962052 0.850428
O O9 0.087334 0.228666 0.415955
O O10 0.142085 0.365230 0.360823
O O11 0.036574 0.229650 0.329483
O O12 0.916097 0.825696 0.233990
O O13 0.000000 0.678037 0.250000
O O14 0.427780 0.669246 0.500000
O O15 0.699305 0.402613 0.180452
O O16 0.619673 0.500000 0.250000
#
# Coordination Sequence:
#
# PCOD8294663 Si02
#       7
#    16  16  16  16  16  16  16
#     4   9  18  36  62  91 120 151 196 258 313 359
#     4  11  23  42  57  85 126 155 204 253 294 363
#     4  12  23  38  62  88 119 165 201 251 302 366
#     4  12  23  38  61  85 122 161 200 249 299 357
#     4   9  19  36  60  92 123 151 195 253 316 369
#     4  11  22  38  61  87 119 162 203 244 300 362
#     4  10  21  38  58  87 119 155 197 252 301 353
#
# _framework density 18.894078
#
# number of rings (size 3 to 8) (size 9 to 14) (size 15 to 20)
#    0.000    1.429    4.286    3.000    0.000    1.429 
#    0.000    0.714    0.000    0.857    0.000    2.000 
#    0.000    0.000    0.000    0.000    0.000    0.000 
#
# Total GULP energy -694405.274113 kJ/mol
# GULP energy per Si atom -12400.094181 kJ/mol
# Density = 1.885107 g / cm^3
# Si number density = 18.894078 Si / 1000 Ang^3
#
#
#
# Elastic Constant Matrix: (Units=GPa)
#
#
# Indices 1 2 3 4 5 6 
#
# 1 85.4593 48.0527 40.7327 0.0000 0.0000 0.0000
# 2 48.0527 105.4414 35.9850 0.0000 0.0000 0.0000
# 3 40.7327 35.9850 111.2962 0.0000 0.0000 0.0000
# 4 0.0000 0.0000 0.0000 26.1368 0.0000 0.0000
# 5 0.0000 0.0000 0.0000 0.0000 25.7255 0.0000
# 6 0.0000 0.0000 0.0000 0.0000 0.0000 17.0393
#
#
#
# Elastic Compliance Matrix: (Units=1/GPa)
#
#
# Indices 1 2 3 4 5 6 
#
# 1 0.017367 -0.006458 -0.004268 0.000000 0.000000 0.000000
# 2 -0.006458 0.013062 -0.001860 0.000000 0.000000 0.000000
# 3 -0.004268 -0.001860 0.011148 0.000000 0.000000 0.000000
# 4 0.000000 0.000000 0.000000 0.038260 0.000000 0.000000
# 5 0.000000 0.000000 0.000000 0.000000 0.038872 0.000000
# 6 0.000000 0.000000 0.000000 0.000000 0.000000 0.058688
#
#
# Mechanical properties :
#
#
# Convention : Reuss Voigt Hill
#
# Bulk Modulus (GPa) = 60.95465 61.30422 61.12943
# Shear Modulus (GPa) = 24.03417 25.60875 24.82146
#
# Velocity S-wave (km/s) = 3.57045 3.68555 3.62845
# Velocity P-wave (km/s) = 7.02344 7.11532 7.06953
#
# Compressibility (1/GPa) = 0.01640564
#
# Stress axis : x y z
#
# Youngs Moduli (GPa) = 57.58032 76.55952 89.69955
#
# Poissons Ratio (x) = 0.49443 0.38284
# Poissons Ratio (y) = 0.37186 0.16681
# Poissons Ratio (z) = 0.24575 0.14237
#
# Static dielectric constant tensor:
#      x y z
#    x 3.273180 0.000000 0.000000 
#    y 0.000000 3.480110 0.000000 
#    z 0.000000 0.000000 3.470120 
# 
# 
# High freq. dielectric constant tensor:
#      x y z
#    x 1.722360 0.000000 0.000000 
#    y 0.000000 1.723980 0.000000 
#    z 0.000000 0.000000 1.740470 
# 
# From -- ./inp_files/48710.got.cif
#   From: 2010.03.12/outbox.cif.g09.slc.cpg/sg72_25_cif.got.tgz:48710.got - 2010.04.16 14:54:00.
