data_PCOD8294304
_publ_section_title
;
Structure prediction by ZEFSAII (Michael W. Deem and Ramdas Pophale) SiO2 
 PCOD8294304
Probable space group: I B A M
;
_chemical_formula_sum "Si O2"
_cell_formula_units_Z 68
_cell_length_a 16.005240
_cell_length_b 22.118571
_cell_length_c 8.816128
_cell_angle_alpha 90.000000
_cell_angle_beta 90.000000
_cell_angle_gamma 90.000000
_cell_volume 3121.024251
_symmetry_space_group_name_H-M "I B A M"
_symmetry_group_IT_number 72
_symmetry_cell_setting 'orthorhombic'
loop_
_space_group_symop_operation_xyz
x,y,z
-x,-y,z
x,-y,1/2-z
-x,y,1/2-z
-x,-y,-z
x,y,-z
-x,y,1/2+z
x,-y,1/2+z
1/2+x,1/2+y,1/2+z
1/2-x,1/2-y,1/2+z
1/2+x,1/2-y,-z
1/2-x,1/2+y,-z
1/2-x,1/2-y,1/2-z
1/2+x,1/2+y,1/2-z
1/2-x,1/2+y,z
1/2+x,1/2-y,z
loop_
_atom_site_type_symbol
_atom_site_label
_atom_site_fract_x
_atom_site_fract_y
_atom_site_fract_z
Si Si1 0.587355 0.709686 0.824736
Si Si2 0.591274 0.168762 0.819809
Si Si3 0.150622 0.920806 0.834401
Si Si4 0.312689 0.059645 0.823427
Si Si5 0.500000 0.500000 0.250000
O O1 0.500000 0.693528 0.750000
O O2 0.627899 0.766932 0.737615
O O3 0.643419 0.650687 0.805151
O O4 0.574148 0.727281 0.000000
O O5 0.500000 0.157868 0.750000
O O6 0.653452 0.117621 0.762944
O O7 0.586137 0.167653 0.000000
O O8 0.212277 0.944958 0.703534
O O9 0.061299 0.955112 0.841596
O O10 0.192386 0.930564 0.000000
O O11 0.355050 0.000000 0.750000
O O12 0.333616 0.063094 0.000000
#
# Coordination Sequence:
#
# PCOD8294304 Si02
#       5
#    16  16  16  16   4
#     4  10  20  37  61  93 129 168 216 265 317 376
#     4  11  23  43  69  96 127 165 212 263 321 383
#     4  11  24  40  63  96 133 174 218 263 314 376
#     4  12  26  44  66  94 129 167 211 265 322 381
#     4  12  22  40  68  98 136 176 220 256 306 376
#
# _framework density 21.78772
#
# number of rings (size 3 to 8) (size 9 to 14) (size 15 to 20)
#    0.000    0.941    2.353    6.706    0.000    4.235 
#    0.000    2.353    0.000    0.000    0.000    0.000 
#    0.000    0.000    0.000    0.000    0.000    0.000 
#
# Total GULP energy -421510.539281 kJ/mol
# GULP energy per Si atom -12397.368802 kJ/mol
# Density = 2.173813 g / cm^3
# Si number density = 21.787720 Si / 1000 Ang^3
#
#
#
# Elastic Constant Matrix: (Units=GPa)
#
#
# Indices 1 2 3 4 5 6 
#
# 1 53.8225 31.7495 24.5900 0.0000 0.0000 0.0000
# 2 31.7495 140.1148 62.5695 0.0000 0.0000 0.0000
# 3 24.5900 62.5695 183.9660 0.0000 0.0000 0.0000
# 4 0.0000 0.0000 0.0000 29.7405 0.0000 0.0000
# 5 0.0000 0.0000 0.0000 0.0000 32.7279 0.0000
# 6 0.0000 0.0000 0.0000 0.0000 0.0000 34.8560
#
#
#
# Elastic Compliance Matrix: (Units=1/GPa)
#
#
# Indices 1 2 3 4 5 6 
#
# 1 0.021771 -0.004284 -0.001453 0.000000 0.000000 0.000000
# 2 -0.004284 0.009258 -0.002576 0.000000 0.000000 0.000000
# 3 -0.001453 -0.002576 0.006506 0.000000 0.000000 0.000000
# 4 0.000000 0.000000 0.000000 0.033624 0.000000 0.000000
# 5 0.000000 0.000000 0.000000 0.000000 0.030555 0.000000
# 6 0.000000 0.000000 0.000000 0.000000 0.000000 0.028689
#
#
# Mechanical properties :
#
#
# Convention : Reuss Voigt Hill
#
# Bulk Modulus (GPa) = 47.82787 68.41347 58.12067
# Shear Modulus (GPa) = 32.46756 36.73117 34.59936
#
# Velocity S-wave (km/s) = 3.86447 4.11038 3.98932
# Velocity P-wave (km/s) = 6.47391 7.34814 6.92484
#
# Compressibility (1/GPa) = 0.02090831
#
# Stress axis : x y z
#
# Youngs Moduli (GPa) = 45.93340 108.01181 153.70003
#
# Poissons Ratio (x) = 0.46276 0.22330
# Poissons Ratio (y) = 0.19680 0.39596
# Poissons Ratio (z) = 0.06673 0.27826
#
# Static dielectric constant tensor:
#      x y z
#    x 3.590310 0.000000 0.000000 
#    y 0.000000 4.335100 0.000000 
#    z 0.000000 0.000000 3.925930 
# 
# 
# High freq. dielectric constant tensor:
#      x y z
#    x 1.830840 0.000000 0.000000 
#    y 0.000000 1.886960 0.000000 
#    z 0.000000 0.000000 1.864580 
# 
# From -- ./inp_files/4407.got.cif
#   From: 2010.03.12/outbox.cif.g09.slc.cpg/sg72_3_cif.got.tgz:4407.got - 2010.04.16 14:54:00.
