data_PCOD8294187
_publ_section_title
;
Structure prediction by ZEFSAII (Michael W. Deem and Ramdas Pophale) SiO2 
 PCOD8294187
Probable space group: I B A M
;
_chemical_formula_sum "Si O2"
_cell_formula_units_Z 52
_cell_length_a 9.605006
_cell_length_b 21.637554
_cell_length_c 13.065804
_cell_angle_alpha 90.000000
_cell_angle_beta 90.000000
_cell_angle_gamma 90.000000
_cell_volume 2715.450837
_symmetry_space_group_name_H-M "I B A M"
_symmetry_group_IT_number 72
_symmetry_cell_setting 'orthorhombic'
loop_
_space_group_symop_operation_xyz
x,y,z
-x,-y,z
x,-y,1/2-z
-x,y,1/2-z
-x,-y,-z
x,y,-z
-x,y,1/2+z
x,-y,1/2+z
1/2+x,1/2+y,1/2+z
1/2-x,1/2-y,1/2+z
1/2+x,1/2-y,-z
1/2-x,1/2+y,-z
1/2-x,1/2-y,1/2-z
1/2+x,1/2+y,1/2-z
1/2-x,1/2+y,z
1/2+x,1/2-y,z
loop_
_atom_site_type_symbol
_atom_site_label
_atom_site_fract_x
_atom_site_fract_y
_atom_site_fract_z
Si Si1 0.614527 0.104726 0.882938
Si Si2 0.644496 0.668793 0.221401
Si Si3 0.000000 0.500000 0.250000
Si Si4 0.629393 0.201238 0.620709
O O1 0.767879 0.130805 0.861470
O O2 0.499913 0.156371 0.854045
O O3 0.598078 0.042319 0.819234
O O4 0.601541 0.085930 0.000000
O O5 0.500000 0.634116 0.250000
O O6 0.596133 0.732663 0.169039
O O7 0.732097 0.675331 0.325871
O O8 0.657512 0.206469 0.500000
#
# Coordination Sequence:
#
# PCOD8294187 Si02
#       4
#    16  16   4  16
#     4  11  23  41  65  90 118 160 206 247 292 352
#     4  11  21  35  58  90 127 154 190 252 312 363
#     4  12  22  44  66  86 112 164 216 246 272 350
#     4  10  20  36  59  88 122 161 200 243 300 362
#
# _framework density 19.149674999999998
#
# number of rings (size 3 to 8) (size 9 to 14) (size 15 to 20)
#    0.000    1.231    3.077    5.077    0.000    4.923 
#    0.000    0.769    0.000    1.846    0.000    0.000 
#    0.000    0.000    0.000    0.000    0.000    0.000 
#
# Total GULP energy -322444.124173 kJ/mol
# GULP energy per Si atom -12401.697084 kJ/mol
# Density = 1.910609 g / cm^3
# Si number density = 19.149675 Si / 1000 Ang^3
#
#
#
# Elastic Constant Matrix: (Units=GPa)
#
#
# Indices 1 2 3 4 5 6 
#
# 1 143.1170 49.3624 45.3403 0.0000 0.0000 0.0000
# 2 49.3624 108.0702 49.7465 -0.0004 0.0000 -0.0002
# 3 45.3403 49.7465 127.4847 -0.0012 0.0001 -0.0001
# 4 0.0000 -0.0004 -0.0012 23.1118 0.0000 0.0003
# 5 0.0000 0.0000 0.0001 0.0000 24.1932 0.0000
# 6 0.0000 -0.0002 -0.0001 0.0003 0.0000 5.1415
#
#
#
# Elastic Compliance Matrix: (Units=1/GPa)
#
#
# Indices 1 2 3 4 5 6 
#
# 1 0.008645 -0.003088 -0.001870 0.000000 0.000000 0.000000
# 2 -0.003088 0.012382 -0.003734 0.000000 0.000000 0.000000
# 3 -0.001870 -0.003734 0.009966 0.000000 0.000000 0.000000
# 4 0.000000 0.000000 0.000000 0.043268 0.000000 -0.000002
# 5 0.000000 0.000000 0.000000 0.000000 0.041334 0.000000
# 6 0.000000 0.000000 0.000000 -0.000002 0.000000 0.194494
#
#
# Mechanical properties :
#
#
# Convention : Reuss Voigt Hill
#
# Bulk Modulus (GPa) = 73.47116 74.17447 73.82282
# Shear Modulus (GPa) = 15.05987 26.10415 20.58201
#
# Velocity S-wave (km/s) = 2.80738 3.69611 3.28197
# Velocity P-wave (km/s) = 6.99704 7.55203 7.27983
#
# Compressibility (1/GPa) = 0.01361078
#
# Stress axis : x y z
#
# Youngs Moduli (GPa) = 115.67870 80.76033 100.34260
#
# Poissons Ratio (x) = 0.24939 0.18759
# Poissons Ratio (y) = 0.35721 0.37463
# Poissons Ratio (z) = 0.21626 0.30152
#
# Static dielectric constant tensor:
#      x y z
#    x 3.517070 0.000000 0.000000 
#    y 0.000000 3.366580 0.000000 
#    z 0.000000 0.000000 3.679840 
# 
# 
# High freq. dielectric constant tensor:
#      x y z
#    x 1.743190 0.000000 0.000000 
#    y 0.000000 1.716270 0.000000 
#    z 0.000000 0.000000 1.769110 
# 
# From -- ./inp_files/18282.got.cif
#   From: 2010.03.12/outbox.cif.g09.slc.cpg/sg72_10_cif.got.tgz:18282.got - 2010.04.16 14:54:00.
