data_PCOD8294172
_publ_section_title
;
Structure prediction by ZEFSAII (Michael W. Deem and Ramdas Pophale) SiO2 
 PCOD8294172
Probable space group: I B A M
;
_chemical_formula_sum "Si O2"
_cell_formula_units_Z 112
_cell_length_a 13.463607
_cell_length_b 17.161942
_cell_length_c 23.624094
_cell_angle_alpha 90.000000
_cell_angle_beta 90.000000
_cell_angle_gamma 90.000000
_cell_volume 5458.621961
_symmetry_space_group_name_H-M "I B A M"
_symmetry_group_IT_number 72
_symmetry_cell_setting 'orthorhombic'
loop_
_space_group_symop_operation_xyz
x,y,z
-x,-y,z
x,-y,1/2-z
-x,y,1/2-z
-x,-y,-z
x,y,-z
-x,y,1/2+z
x,-y,1/2+z
1/2+x,1/2+y,1/2+z
1/2-x,1/2-y,1/2+z
1/2+x,1/2-y,-z
1/2-x,1/2+y,-z
1/2-x,1/2-y,1/2-z
1/2+x,1/2+y,1/2-z
1/2-x,1/2+y,z
1/2+x,1/2-y,z
loop_
_atom_site_type_symbol
_atom_site_label
_atom_site_fract_x
_atom_site_fract_y
_atom_site_fract_z
Si Si1 0.835003 0.332906 0.879615
Si Si2 0.623181 0.619622 0.366181
Si Si3 0.681013 0.408234 0.258139
Si Si4 0.399381 0.029242 0.064111
Si Si5 0.106695 0.590192 0.765064
Si Si6 0.187839 0.024221 0.566842
Si Si7 0.095138 0.841607 0.129261
O O1 0.716561 0.331441 0.889858
O O2 0.886734 0.376408 0.932680
O O3 0.867739 0.393355 0.830269
O O4 0.870517 0.246745 0.869158
O O5 0.629477 0.623283 0.298335
O O6 0.621674 0.533830 0.394709
O O7 0.521393 0.660465 0.384392
O O8 0.685684 0.500000 0.250000
O O9 0.794961 0.376381 0.267514
O O10 0.614535 0.382490 0.310651
O O11 0.301243 0.986277 0.088501
O O12 0.500000 0.000000 0.096018
O O13 0.408160 0.002455 0.000000
O O14 0.096140 0.500000 0.750000
O O15 0.000000 0.631120 0.750000
O O16 0.175272 0.005993 0.500000
O O17 0.152977 0.112087 0.579942
#
# Coordination Sequence:
#
# PCOD8294172 Si02
#       7
#    16  16  16  16  16  16  16
#     4  10  24  39  56  90 125 149 194 250 296 348
#     4  10  22  41  59  82 120 161 195 237 295 352
#     4  10  20  36  58  85 118 153 202 239 278 360
#     4   9  20  40  66  87 113 160 204 240 286 347
#     4   9  20  35  57  84 115 161 193 234 291 347
#     4  10  22  40  62  90 118 152 204 245 285 356
#     4  12  24  36  62  91 117 158 193 247 305 346
#
# _framework density 20.518000000000001
#
# number of rings (size 3 to 8) (size 9 to 14) (size 15 to 20)
#    0.000    2.000    1.429    0.857    4.000    8.000 
#    0.000    0.000    0.000    0.000    0.000    0.000 
#    0.000    0.000    0.000    0.000    0.000    0.000 
#
# Total GULP energy -693903.507893 kJ/mol
# GULP energy per Si atom -12391.134070 kJ/mol
# Density = 2.047130 g / cm^3
# Si number density = 20.518000 Si / 1000 Ang^3
#
#
#
# Elastic Constant Matrix: (Units=GPa)
#
#
# Indices 1 2 3 4 5 6 
#
# 1 157.8513 61.2958 31.1548 0.0000 0.0000 0.0000
# 2 61.2958 113.0053 24.3783 0.0000 0.0000 0.0000
# 3 31.1548 24.3783 57.8951 0.0000 0.0000 0.0000
# 4 0.0000 0.0000 0.0000 17.7274 0.0000 0.0000
# 5 0.0000 0.0000 0.0000 0.0000 17.3975 0.0000
# 6 0.0000 0.0000 0.0000 0.0000 0.0000 20.3211
#
#
#
# Elastic Compliance Matrix: (Units=1/GPa)
#
#
# Indices 1 2 3 4 5 6 
#
# 1 0.008439 -0.003957 -0.002875 0.000000 0.000000 0.000000
# 2 -0.003957 0.011589 -0.002750 0.000000 0.000000 0.000000
# 3 -0.002875 -0.002750 0.019978 0.000000 0.000000 0.000000
# 4 0.000000 0.000000 0.000000 0.056410 0.000000 0.000000
# 5 0.000000 0.000000 0.000000 0.000000 0.057479 0.000000
# 6 0.000000 0.000000 0.000000 0.000000 0.000000 0.049210
#
#
# Mechanical properties :
#
#
# Convention : Reuss Voigt Hill
#
# Bulk Modulus (GPa) = 47.98302 62.48994 55.23648
# Shear Modulus (GPa) = 21.81337 25.21740 23.51538
#
# Velocity S-wave (km/s) = 3.26411 3.50957 3.38906
# Velocity P-wave (km/s) = 6.13535 6.85164 6.50336
#
# Compressibility (1/GPa) = 0.02084070
#
# Stress axis : x y z
#
# Youngs Moduli (GPa) = 118.49467 86.28893 50.05549
#
# Poissons Ratio (x) = 0.34147 0.14391
# Poissons Ratio (y) = 0.46892 0.13767
# Poissons Ratio (z) = 0.34067 0.23732
#
# Static dielectric constant tensor:
#      x y z
#    x 4.333300 0.000000 0.000000 
#    y 0.000000 3.342750 0.000000 
#    z 0.000000 0.000000 3.679340 
# 
# 
# High freq. dielectric constant tensor:
#      x y z
#    x 1.826460 0.000000 0.000000 
#    y 0.000000 1.769180 0.000000 
#    z 0.000000 0.000000 1.791220 
# 
# From -- ./inp_files/48720.got.cif
#   From: 2010.03.12/outbox.cif.g09.slc.cpg/sg72_25_cif.got.tgz:48720.got - 2010.04.16 14:54:00.
