data_PCOD8294059
_publ_section_title
;
Structure prediction by ZEFSAII (Michael W. Deem and Ramdas Pophale) SiO2 
 PCOD8294059
Probable space group: I B A M
;
_chemical_formula_sum "Si O2"
_cell_formula_units_Z 116
_cell_length_a 30.489467
_cell_length_b 22.074906
_cell_length_c 8.929158
_cell_angle_alpha 90.000000
_cell_angle_beta 90.000000
_cell_angle_gamma 90.000000
_cell_volume 6009.788704
_symmetry_space_group_name_H-M "I B A M"
_symmetry_group_IT_number 72
_symmetry_cell_setting 'orthorhombic'
loop_
_space_group_symop_operation_xyz
x,y,z
-x,-y,z
x,-y,1/2-z
-x,y,1/2-z
-x,-y,-z
x,y,-z
-x,y,1/2+z
x,-y,1/2+z
1/2+x,1/2+y,1/2+z
1/2-x,1/2-y,1/2+z
1/2+x,1/2-y,-z
1/2-x,1/2+y,-z
1/2-x,1/2-y,1/2-z
1/2+x,1/2+y,1/2-z
1/2-x,1/2+y,z
1/2+x,1/2-y,z
loop_
_atom_site_type_symbol
_atom_site_label
_atom_site_fract_x
_atom_site_fract_y
_atom_site_fract_z
Si Si1 0.289118 0.830732 0.173220
Si Si2 0.500000 0.000000 0.250000
Si Si3 0.544633 0.222578 0.824479
Si Si4 0.390925 0.328343 0.325833
Si Si5 0.660277 0.060959 0.676919
Si Si6 0.428063 0.090361 0.333110
Si Si7 0.692719 0.707202 0.173021
Si Si8 0.545767 0.438112 0.176264
O O1 0.310387 0.883516 0.269633
O O2 0.308796 0.767210 0.226570
O O3 0.236925 0.831100 0.199736
O O4 0.301538 0.839725 0.000000
O O5 0.468584 0.043655 0.346475
O O6 0.500000 0.245334 0.750000
O O7 0.583391 0.267732 0.776940
O O8 0.556147 0.155004 0.769264
O O9 0.536700 0.224485 0.000000
O O10 0.378259 0.326244 0.500000
O O11 0.347317 0.334466 0.226339
O O12 0.419454 0.386614 0.287041
O O13 0.662936 0.055496 0.500000
O O14 0.609467 0.067054 0.722815
O O15 0.679783 0.000000 0.750000
O O16 0.408293 0.098214 0.500000
O O17 0.688257 0.725836 0.000000
O O18 0.563260 0.500000 0.250000
O O19 0.500000 0.418634 0.250000
O O20 0.538838 0.447188 0.000000
#
# Coordination Sequence:
#
# PCOD8294059 Si02
#       8
#    16   4  16  16  16  16  16  16
#     4  10  21  40  63  87 118 150 188 236 287 345
#     4  12  22  36  60  82 114 160 208 240 294 344
#     4  10  21  36  53  78 111 150 192 237 286 334
#     4  10  21  36  56  83 117 152 187 233 290 346
#     4  12  25  40  61  87 115 151 196 241 293 348
#     4  11  23  38  57  82 115 156 200 245 293 341
#     4  10  21  37  62  92 116 147 187 231 286 344
#     4  10  20  35  56  82 111 151 194 234 283 340
#
# _framework density 19.301843999999999
#
# number of rings (size 3 to 8) (size 9 to 14) (size 15 to 20)
#    0.000    1.517    1.379    4.345    0.000    5.517 
#    0.000    0.690    0.000    1.655    0.000    0.000 
#    0.000    0.000    0.000    0.000    0.000    0.000 
#
# Total GULP energy -719407.764260 kJ/mol
# GULP energy per Si atom -12403.582142 kJ/mol
# Density = 1.925791 g / cm^3
# Si number density = 19.301844 Si / 1000 Ang^3
#
#
#
# Elastic Constant Matrix: (Units=GPa)
#
#
# Indices 1 2 3 4 5 6 
#
# 1 115.6701 62.9229 54.0501 0.0000 0.0000 0.0000
# 2 62.9229 108.6452 46.5502 0.0000 0.0000 0.0000
# 3 54.0501 46.5502 111.5233 0.0000 0.0000 0.0000
# 4 0.0000 0.0000 0.0000 29.5912 0.0000 0.0000
# 5 0.0000 0.0000 0.0000 0.0000 30.0601 0.0000
# 6 0.0000 0.0000 0.0000 0.0000 0.0000 24.7633
#
#
#
# Elastic Compliance Matrix: (Units=1/GPa)
#
#
# Indices 1 2 3 4 5 6 
#
# 1 0.014042 -0.006353 -0.004154 0.000000 0.000000 0.000000
# 2 -0.006353 0.014083 -0.002799 0.000000 0.000000 0.000000
# 3 -0.004154 -0.002799 0.012148 0.000000 0.000000 0.000000
# 4 0.000000 0.000000 0.000000 0.033794 0.000000 0.000000
# 5 0.000000 0.000000 0.000000 0.000000 0.033267 0.000000
# 6 0.000000 0.000000 0.000000 0.000000 0.000000 0.040382
#
#
# Mechanical properties :
#
#
# Convention : Reuss Voigt Hill
#
# Bulk Modulus (GPa) = 73.19917 73.65390 73.42653
# Shear Modulus (GPa) = 27.95133 28.37062 28.16098
#
# Velocity S-wave (km/s) = 3.80954 3.83801 3.82380
# Velocity P-wave (km/s) = 7.57337 7.60804 7.59072
#
# Compressibility (1/GPa) = 0.01366136
#
# Stress axis : x y z
#
# Youngs Moduli (GPa) = 71.21409 71.00746 82.31544
#
# Poissons Ratio (x) = 0.45110 0.34193
# Poissons Ratio (y) = 0.45241 0.23043
# Poissons Ratio (z) = 0.29581 0.19878
#
# Static dielectric constant tensor:
#      x y z
#    x 3.488630 0.000000 0.000000 
#    y 0.000000 3.651330 0.000000 
#    z 0.000000 0.000000 3.484050 
# 
# 
# High freq. dielectric constant tensor:
#      x y z
#    x 1.749940 0.000000 0.000000 
#    y 0.000000 1.754060 0.000000 
#    z 0.000000 0.000000 1.755770 
# 
# From -- ./inp_files/8447.got.cif
#   From: 2010.03.12/outbox.cif.g09.slc.cpg/sg72_5_cif.got.tgz:8447.got - 2010.04.16 14:54:00.
