data_PCOD8294428
_publ_section_title
;
Structure prediction by ZEFSAII (Michael W. Deem and Ramdas Pophale) SiO2 
 PCOD8294428
Probable space group: I B A M
;
_chemical_formula_sum "Si O2"
_cell_formula_units_Z 96
_cell_length_a 19.959080
_cell_length_b 14.698678
_cell_length_c 17.306950
_cell_angle_alpha 90.000000
_cell_angle_beta 90.000000
_cell_angle_gamma 90.000000
_cell_volume 5077.376095
_symmetry_space_group_name_H-M "I B A M"
_symmetry_group_IT_number 72
_symmetry_cell_setting 'orthorhombic'
loop_
_space_group_symop_operation_xyz
x,y,z
-x,-y,z
x,-y,1/2-z
-x,y,1/2-z
-x,-y,-z
x,y,-z
-x,y,1/2+z
x,-y,1/2+z
1/2+x,1/2+y,1/2+z
1/2-x,1/2-y,1/2+z
1/2+x,1/2-y,-z
1/2-x,1/2+y,-z
1/2-x,1/2-y,1/2-z
1/2+x,1/2+y,1/2-z
1/2-x,1/2+y,z
1/2+x,1/2-y,z
loop_
_atom_site_type_symbol
_atom_site_label
_atom_site_fract_x
_atom_site_fract_y
_atom_site_fract_z
Si Si1 0.693409 0.998669 0.659603
Si Si2 0.308428 0.387481 0.588143
Si Si3 0.842004 0.315107 0.590934
Si Si4 0.515604 0.776477 0.339200
Si Si5 0.461329 0.590240 0.089725
Si Si6 0.442921 0.066675 0.909631
O O1 0.758842 0.058046 0.642755
O O2 0.629280 0.044643 0.622758
O O3 0.682779 0.000000 0.750000
O O4 0.702837 0.896905 0.625045
O O5 0.289385 0.409071 0.500000
O O6 0.302626 0.279269 0.604004
O O7 0.382983 0.422182 0.607234
O O8 0.857573 0.329610 0.500000
O O9 0.911517 0.314238 0.637561
O O10 0.500000 0.793019 0.250000
O O11 0.507886 0.670705 0.359342
O O12 0.460045 0.829989 0.388150
O O13 0.500000 0.500000 0.114459
O O14 0.472010 0.614795 0.000000
O O15 0.500000 0.000000 0.874280
O O16 0.439118 0.053284 0.000000
#
# Coordination Sequence:
#
# PCOD8294428 Si02
#       6
#    16  16  16  16  16  16
#     4  12  24  38  58  90 124 157 191 246 301 352
#     4   9  20  40  62  83 113 157 205 244 285 351
#     4  10  20  40  65  81 112 165 203 234 292 357
#     4  11  21  35  57  91 122 151 186 245 307 354
#     4   9  19  40  65  86 113 157 207 247 289 351
#     4  11  22  36  60  86 113 155 201 239 284 355
#
# _framework density 18.907404
#
# number of rings (size 3 to 8) (size 9 to 14) (size 15 to 20)
#    0.000    1.667    1.667    5.000    0.000    1.000 
#    9.000    0.000    0.000    0.000    0.000    0.000 
#    0.000    0.000    0.000    0.000    0.000    0.000 
#
# Total GULP energy -595344.578100 kJ/mol
# GULP energy per Si atom -12403.012044 kJ/mol
# Density = 1.886437 g / cm^3
# Si number density = 18.907404 Si / 1000 Ang^3
#
#
#
# Elastic Constant Matrix: (Units=GPa)
#
#
# Indices 1 2 3 4 5 6 
#
# 1 81.8146 64.8554 35.7095 0.0000 0.0000 0.0000
# 2 64.8554 127.3138 44.2026 0.0000 0.0000 0.0000
# 3 35.7095 44.2026 96.4195 0.0000 0.0000 0.0000
# 4 0.0000 0.0000 0.0000 14.9202 0.0000 0.0000
# 5 0.0000 0.0000 0.0000 0.0000 10.1652 0.0000
# 6 0.0000 0.0000 0.0000 0.0000 0.0000 55.9045
#
#
#
# Elastic Compliance Matrix: (Units=1/GPa)
#
#
# Indices 1 2 3 4 5 6 
#
# 1 0.021446 -0.009713 -0.003490 0.000000 0.000000 0.000000
# 2 -0.009713 0.013741 -0.002702 0.000000 0.000000 0.000000
# 3 -0.003490 -0.002702 0.012902 0.000000 0.000000 0.000000
# 4 0.000000 0.000000 0.000000 0.067023 0.000000 0.000000
# 5 0.000000 0.000000 0.000000 0.000000 0.098375 0.000000
# 6 0.000000 0.000000 0.000000 0.000000 0.000000 0.017888
#
#
# Mechanical properties :
#
#
# Convention : Reuss Voigt Hill
#
# Bulk Modulus (GPa) = 61.42764 66.12032 63.77398
# Shear Modulus (GPa) = 18.61432 26.91668 22.76550
#
# Velocity S-wave (km/s) = 3.14108 3.77716 3.47371
# Velocity P-wave (km/s) = 6.76124 7.35317 7.06341
#
# Compressibility (1/GPa) = 0.01627932
#
# Stress axis : x y z
#
# Youngs Moduli (GPa) = 46.62974 72.77647 77.50471
#
# Poissons Ratio (x) = 0.70688 0.27046
# Poissons Ratio (y) = 0.45292 0.20942
# Poissons Ratio (z) = 0.16272 0.19664
#
# Static dielectric constant tensor:
#      x y z
#    x 3.333680 0.000000 0.000000 
#    y 0.000000 3.689890 0.000000 
#    z 0.000000 0.000000 3.415080 
# 
# 
# High freq. dielectric constant tensor:
#      x y z
#    x 1.723290 0.000000 0.000000 
#    y 0.000000 1.746340 0.000000 
#    z 0.000000 0.000000 1.735220 
# 
# From -- ./inp_files/21858.got.cif
#   From: 2010.03.12/outbox.cif.g09.slc.cpg/sg72_11_cif.got.tgz:21858.got - 2010.04.16 14:54:00.
