data_PCOD8294442
_publ_section_title
;
Structure prediction by ZEFSAII (Michael W. Deem and Ramdas Pophale) SiO2 
 PCOD8294442
Probable space group: I B A M
;
_chemical_formula_sum "Si O2"
_cell_formula_units_Z 72
_cell_length_a 14.400349
_cell_length_b 24.723613
_cell_length_c 9.751366
_cell_angle_alpha 90.000000
_cell_angle_beta 90.000000
_cell_angle_gamma 90.000000
_cell_volume 3471.765729
_symmetry_space_group_name_H-M "I B A M"
_symmetry_group_IT_number 72
_symmetry_cell_setting 'orthorhombic'
loop_
_space_group_symop_operation_xyz
x,y,z
-x,-y,z
x,-y,1/2-z
-x,y,1/2-z
-x,-y,-z
x,y,-z
-x,y,1/2+z
x,-y,1/2+z
1/2+x,1/2+y,1/2+z
1/2-x,1/2-y,1/2+z
1/2+x,1/2-y,-z
1/2-x,1/2+y,-z
1/2-x,1/2-y,1/2-z
1/2+x,1/2+y,1/2-z
1/2-x,1/2+y,z
1/2+x,1/2-y,z
loop_
_atom_site_type_symbol
_atom_site_label
_atom_site_fract_x
_atom_site_fract_y
_atom_site_fract_z
Si Si1 0.657394 0.050581 0.847798
Si Si2 0.443756 0.676954 0.500000
Si Si3 0.309965 0.211040 0.500000
Si Si4 0.000000 0.630357 0.250000
Si Si5 0.471601 0.799925 0.500000
Si Si6 0.163237 0.831623 0.500000
Si Si7 0.702403 0.361743 0.700888
O O1 0.577443 0.093943 0.820625
O O2 0.757912 0.079230 0.836749
O O3 0.648506 0.000000 0.750000
O O4 0.644400 0.027591 0.000000
O O5 0.420979 0.741452 0.500000
O O6 0.552539 0.668581 0.500000
O O7 0.399225 0.648776 0.634824
O O8 0.418953 0.206590 0.500000
O O9 0.286166 0.274010 0.500000
O O10 0.270000 0.183837 0.362569
O O11 0.054160 0.667115 0.137628
O O12 0.198577 0.861572 0.364749
#
# Coordination Sequence:
#
# PCOD8294442 Si02
#       7
#    16   8   8   8   8   8  16
#     4  12  27  47  69  94 131 179 228 285 341 392
#     4  10  24  42  66  93 144 181 217 271 334 398
#     4  10  20  42  58  88 145 172 209 265 325 405
#     4  12  23  44  66 100 142 170 223 268 336 422
#     4  11  24  38  64  98 137 184 211 254 339 398
#     4  11  24  34  67 104 121 179 224 257 343 403
#     4  11  22  44  63  93 136 174 223 283 320 402
#
# _framework density 20.738726
#
# number of rings (size 3 to 8) (size 9 to 14) (size 15 to 20)
#    0.000    0.889    5.556    1.667    9.333    4.444 
#    0.000    0.000    0.000    4.000    0.000    0.000 
#    0.000    0.000    0.000    0.000    0.000    0.000 
#
# Total GULP energy -446390.409287 kJ/mol
# GULP energy per Si atom -12399.733591 kJ/mol
# Density = 2.069152 g / cm^3
# Si number density = 20.738726 Si / 1000 Ang^3
#
#
#
# Elastic Constant Matrix: (Units=GPa)
#
#
# Indices 1 2 3 4 5 6 
#
# 1 56.8790 9.2010 19.3286 0.0092 0.0004 0.0000
# 2 9.2010 77.6919 44.1031 0.0020 -0.0004 -0.0001
# 3 19.3286 44.1031 193.6965 -0.0518 -0.0037 0.0007
# 4 0.0092 0.0020 -0.0518 194.2868 -0.0414 0.0038
# 5 0.0004 -0.0004 -0.0037 -0.0414 26.0567 0.0002
# 6 0.0000 -0.0001 0.0007 0.0038 0.0002 18.3170
#
#
#
# Elastic Compliance Matrix: (Units=1/GPa)
#
#
# Indices 1 2 3 4 5 6 
#
# 1 0.018312 -0.001299 -0.001531 -0.000001 -0.000001 0.000000
# 2 -0.001299 0.014874 -0.003257 -0.000001 0.000000 0.000000
# 3 -0.001531 -0.003257 0.006057 0.000002 0.000001 0.000000
# 4 -0.000001 -0.000001 0.000002 0.005147 0.000008 -0.000001
# 5 -0.000001 0.000000 0.000001 0.000008 0.038378 0.000000
# 6 0.000000 0.000000 0.000000 -0.000001 0.000000 0.054594
#
#
# Mechanical properties :
#
#
# Convention : Reuss Voigt Hill
#
# Bulk Modulus (GPa) = 36.94477 52.61477 44.77977
# Shear Modulus (GPa) = 31.53375 64.77440 48.15407
#
# Velocity S-wave (km/s) = 3.90362 5.59476 4.82388
# Velocity P-wave (km/s) = 6.17825 8.19515 7.25711
#
# Compressibility (1/GPa) = 0.02706743
#
# Stress axis : x y z
#
# Youngs Moduli (GPa) = 54.60969 67.23063 165.09419
#
# Poissons Ratio (x) = 0.08735 0.25284
# Poissons Ratio (y) = 0.07095 0.53772
# Poissons Ratio (z) = 0.08363 0.21898
#
# Static dielectric constant tensor:
#      x y z
#    x 3.832180 0.000000 0.000000 
#    y 0.000000 3.783090 0.000000 
#    z 0.000000 0.000000 3.942220 
# 
# 
# High freq. dielectric constant tensor:
#      x y z
#    x 1.813960 0.000000 0.000000 
#    y 0.000000 1.790910 0.000000 
#    z 0.000000 0.000000 1.829180 
# 
# From -- ./inp_files/3734.got.cif
#   From: 2010.03.12/outbox.cif.g09.slc.cpg/sg72_2_cif.got.tgz:3734.got - 2010.04.16 14:54:00.
