data_PCOD8294264
_publ_section_title
;
Structure prediction by ZEFSAII (Michael W. Deem and Ramdas Pophale) SiO2 
 PCOD8294264
Probable space group: I B A M
;
_chemical_formula_sum "Si O2"
_cell_formula_units_Z 96
_cell_length_a 9.335694
_cell_length_b 29.022008
_cell_length_c 18.935501
_cell_angle_alpha 90.000000
_cell_angle_beta 90.000000
_cell_angle_gamma 90.000000
_cell_volume 5130.395736
_symmetry_space_group_name_H-M "I B A M"
_symmetry_group_IT_number 72
_symmetry_cell_setting 'orthorhombic'
loop_
_space_group_symop_operation_xyz
x,y,z
-x,-y,z
x,-y,1/2-z
-x,y,1/2-z
-x,-y,-z
x,y,-z
-x,y,1/2+z
x,-y,1/2+z
1/2+x,1/2+y,1/2+z
1/2-x,1/2-y,1/2+z
1/2+x,1/2-y,-z
1/2-x,1/2+y,-z
1/2-x,1/2-y,1/2-z
1/2+x,1/2+y,1/2-z
1/2-x,1/2+y,z
1/2+x,1/2-y,z
loop_
_atom_site_type_symbol
_atom_site_label
_atom_site_fract_x
_atom_site_fract_y
_atom_site_fract_z
Si Si1 0.377658 0.360401 0.174622
Si Si2 0.618198 0.255518 0.300310
Si Si3 0.119849 0.379257 0.079364
Si Si4 0.954377 0.552712 0.325928
Si Si5 0.689684 0.388678 0.173962
Si Si6 0.357005 0.183682 0.081606
O O1 0.427743 0.307613 0.180988
O O2 0.274617 0.366863 0.109008
O O3 0.517795 0.393169 0.162452
O O4 0.289192 0.373052 0.245108
O O5 0.500000 0.231954 0.250000
O O6 0.750000 0.250000 0.250000
O O7 0.643415 0.231122 0.375377
O O8 0.047547 0.422588 0.115642
O O9 0.018599 0.334868 0.085357
O O10 0.144707 0.394825 0.000000
O O11 0.783184 0.563994 0.336643
O O12 0.000000 0.500000 0.332174
O O13 0.000000 0.572428 0.250000
O O14 0.747896 0.351533 0.118308
O O15 0.310033 0.191935 0.000000
#
# Coordination Sequence:
#
# PCOD8294264 Si02
#       6
#    16  16  16  16  16  16
#     4  11  20  36  56  86 114 159 199 238 296 356
#     4  12  21  34  55  82 112 159 209 248 288 344
#     4  10  22  38  59  86 118 153 189 240 305 359
#     4  10  20  37  65  90 110 146 196 245 289 355
#     4  10  20  37  59  83 117 153 195 243 299 356
#     4  10  22  37  55  84 116 157 207 254 294 337
#
# _framework density 18.712005999999999
#
# number of rings (size 3 to 8) (size 9 to 14) (size 15 to 20)
#    0.000    1.500    5.000    1.000    0.000    1.667 
#    0.000    5.000    0.000    1.000    0.000    0.000 
#    0.000    0.000    0.000    0.000    0.000    0.000 
#
# Total GULP energy -594862.906145 kJ/mol
# GULP energy per Si atom -12392.977211 kJ/mol
# Density = 1.866942 g / cm^3
# Si number density = 18.712006 Si / 1000 Ang^3
#
#
#
# Elastic Constant Matrix: (Units=GPa)
#
#
# Indices 1 2 3 4 5 6 
#
# 1 124.0231 39.6742 64.4813 0.0000 0.0000 0.0000
# 2 39.6742 86.4042 46.5694 0.0000 0.0000 0.0000
# 3 64.4813 46.5694 158.0266 -0.0004 -0.0001 0.0000
# 4 0.0000 0.0000 -0.0004 25.7273 0.0000 0.0000
# 5 0.0000 0.0000 -0.0001 0.0000 31.8513 0.0000
# 6 0.0000 0.0000 0.0000 0.0000 0.0000 21.8537
#
#
#
# Elastic Compliance Matrix: (Units=1/GPa)
#
#
# Indices 1 2 3 4 5 6 
#
# 1 0.010889 -0.003097 -0.003531 0.000000 0.000000 0.000000
# 2 -0.003097 0.014640 -0.003050 0.000000 0.000000 0.000000
# 3 -0.003531 -0.003050 0.008668 0.000000 0.000000 0.000000
# 4 0.000000 0.000000 0.000000 0.038869 0.000000 0.000000
# 5 0.000000 0.000000 0.000000 0.000000 0.031396 0.000000
# 6 0.000000 0.000000 0.000000 0.000000 0.000000 0.045759
#
#
# Mechanical properties :
#
#
# Convention : Reuss Voigt Hill
#
# Bulk Modulus (GPa) = 67.38417 74.43376 70.90896
# Shear Modulus (GPa) = 28.64936 30.40172 29.52554
#
# Velocity S-wave (km/s) = 3.91713 4.03515 3.97658
# Velocity P-wave (km/s) = 7.51984 7.84697 7.68514
#
# Compressibility (1/GPa) = 0.01484028
#
# Stress axis : x y z
#
# Youngs Moduli (GPa) = 91.83244 68.30716 115.37183
#
# Poissons Ratio (x) = 0.21156 0.40733
# Poissons Ratio (y) = 0.28442 0.35194
# Poissons Ratio (z) = 0.32422 0.20837
#
# Static dielectric constant tensor:
#      x y z
#    x 3.563070 0.000000 0.000000 
#    y 0.000000 3.363260 0.000000 
#    z 0.000000 0.000000 3.680060 
# 
# 
# High freq. dielectric constant tensor:
#      x y z
#    x 1.735780 0.000000 0.000000 
#    y 0.000000 1.698120 0.000000 
#    z 0.000000 0.000000 1.734190 
# 
# From -- ./inp_files/36040.got.cif
#   From: 2010.03.12/outbox.cif.g09.slc.cpg/sg72_19_cif.got.tgz:36040.got - 2010.04.16 14:54:00.
