data_PCOD8294323
_publ_section_title
;
Structure prediction by ZEFSAII (Michael W. Deem and Ramdas Pophale) SiO2 
 PCOD8294323
Probable space group: I B A M
;
_chemical_formula_sum "Si O2"
_cell_formula_units_Z 96
_cell_length_a 14.547456
_cell_length_b 13.593200
_cell_length_c 21.274208
_cell_angle_alpha 90.000000
_cell_angle_beta 90.000000
_cell_angle_gamma 90.000000
_cell_volume 4206.899723
_symmetry_space_group_name_H-M "I B A M"
_symmetry_group_IT_number 72
_symmetry_cell_setting 'orthorhombic'
loop_
_space_group_symop_operation_xyz
x,y,z
-x,-y,z
x,-y,1/2-z
-x,y,1/2-z
-x,-y,-z
x,y,-z
-x,y,1/2+z
x,-y,1/2+z
1/2+x,1/2+y,1/2+z
1/2-x,1/2-y,1/2+z
1/2+x,1/2-y,-z
1/2-x,1/2+y,-z
1/2-x,1/2-y,1/2-z
1/2+x,1/2+y,1/2-z
1/2-x,1/2+y,z
1/2+x,1/2-y,z
loop_
_atom_site_type_symbol
_atom_site_label
_atom_site_fract_x
_atom_site_fract_y
_atom_site_fract_z
Si Si1 0.251887 0.157716 0.297510
Si Si2 0.513302 0.266404 0.602289
Si Si3 0.139239 0.911446 0.431673
Si Si4 0.582329 0.559303 0.823781
Si Si5 0.547925 0.895893 0.689700
Si Si6 0.213963 0.255968 0.570412
O O1 0.250000 0.250000 0.250000
O O2 0.169046 0.082525 0.278157
O O3 0.344876 0.095400 0.292552
O O4 0.238129 0.184155 0.371624
O O5 0.439671 0.327774 0.562249
O O6 0.543645 0.333974 0.660062
O O7 0.462108 0.170670 0.628480
O O8 0.603664 0.230829 0.564824
O O9 0.147241 0.961913 0.500000
O O10 0.236026 0.859766 0.413663
O O11 0.114600 0.998614 0.384845
O O12 0.500000 0.500000 0.789208
O O13 0.500000 0.845631 0.750000
O O14 0.500000 0.000000 0.676573
O O15 0.246985 0.220056 0.500000
#
# Coordination Sequence:
#
# PCOD8294323 Si02
#       6
#    16  16  16  16  16  16
#     4  11  23  45  74 101 143 187 232 297 363 427
#     4  10  20  39  64  92 137 176 231 286 350 414
#     4  10  20  37  64  99 137 177 229 284 347 420
#     4   9  21  38  65 101 133 175 227 287 348 412
#     4  11  24  42  66  97 135 186 240 288 357 439
#     4  10  21  38  66  98 135 183 229 282 351 422
#
# _framework density 22.819654
#
# number of rings (size 3 to 8) (size 9 to 14) (size 15 to 20)
#    0.000    1.833    1.667    2.500    2.333    5.667 
#    0.000    0.000    7.333    2.500    0.000    0.000 
#    0.000    0.000    0.000    0.000    0.000    0.000 
#
# Total GULP energy -594644.611938 kJ/mol
# GULP energy per Si atom -12388.429415 kJ/mol
# Density = 2.276772 g / cm^3
# Si number density = 22.819654 Si / 1000 Ang^3
#
#
#
# Elastic Constant Matrix: (Units=GPa)
#
#
# Indices 1 2 3 4 5 6 
#
# 1 190.1679 59.9002 18.8004 0.0000 0.0000 0.0000
# 2 59.9002 106.1714 27.2506 0.0000 0.0000 0.0000
# 3 18.8004 27.2506 89.0678 0.0000 0.0000 0.0000
# 4 0.0000 0.0000 0.0000 18.7791 0.0000 0.0000
# 5 0.0000 0.0000 0.0000 0.0000 14.8143 0.0000
# 6 0.0000 0.0000 0.0000 0.0000 0.0000 45.7640
#
#
#
# Elastic Compliance Matrix: (Units=1/GPa)
#
#
# Indices 1 2 3 4 5 6 
#
# 1 0.006401 -0.003543 -0.000267 0.000000 0.000000 0.000000
# 2 -0.003543 0.012182 -0.002979 0.000000 0.000000 0.000000
# 3 -0.000267 -0.002979 0.012195 0.000000 0.000000 0.000000
# 4 0.000000 0.000000 0.000000 0.053251 0.000000 0.000000
# 5 0.000000 0.000000 0.000000 0.000000 0.067502 0.000000
# 6 0.000000 0.000000 0.000000 0.000000 0.000000 0.021851
#
#
# Mechanical properties :
#
#
# Convention : Reuss Voigt Hill
#
# Bulk Modulus (GPa) = 58.14009 66.36773 62.25391
# Shear Modulus (GPa) = 25.94783 34.50188 30.22485
#
# Velocity S-wave (km/s) = 3.37572 3.89258 3.64333
# Velocity P-wave (km/s) = 6.38180 7.02493 6.71107
#
# Compressibility (1/GPa) = 0.01719984
#
# Stress axis : x y z
#
# Youngs Moduli (GPa) = 156.23019 82.08733 81.99846
#
# Poissons Ratio (x) = 0.29081 0.02191
# Poissons Ratio (y) = 0.55347 0.24431
# Poissons Ratio (z) = 0.04174 0.24457
#
# Static dielectric constant tensor:
#      x y z
#    x 4.838750 0.000000 0.000000 
#    y 0.000000 3.855900 0.000000 
#    z 0.000000 0.000000 3.970230 
# 
# 
# High freq. dielectric constant tensor:
#      x y z
#    x 1.923110 0.000000 0.000000 
#    y 0.000000 1.881040 0.000000 
#    z 0.000000 0.000000 1.899990 
# 
# From -- ./inp_files/38046.got.cif
#   From: 2010.03.12/outbox.cif.g09.slc.cpg/sg72_20_cif.got.tgz:38046.got - 2010.04.16 14:54:00.
