data_PCOD8294589
_publ_section_title
;
Structure prediction by ZEFSAII (Michael W. Deem and Ramdas Pophale) SiO2 
 PCOD8294589
Probable space group: I B A M
;
_chemical_formula_sum "Si O2"
_cell_formula_units_Z 112
_cell_length_a 12.682554
_cell_length_b 27.538649
_cell_length_c 15.580873
_cell_angle_alpha 90.000000
_cell_angle_beta 90.000000
_cell_angle_gamma 90.000000
_cell_volume 5441.781984
_symmetry_space_group_name_H-M "I B A M"
_symmetry_group_IT_number 72
_symmetry_cell_setting 'orthorhombic'
loop_
_space_group_symop_operation_xyz
x,y,z
-x,-y,z
x,-y,1/2-z
-x,y,1/2-z
-x,-y,-z
x,y,-z
-x,y,1/2+z
x,-y,1/2+z
1/2+x,1/2+y,1/2+z
1/2-x,1/2-y,1/2+z
1/2+x,1/2-y,-z
1/2-x,1/2+y,-z
1/2-x,1/2-y,1/2-z
1/2+x,1/2+y,1/2-z
1/2-x,1/2+y,z
1/2+x,1/2-y,z
loop_
_atom_site_type_symbol
_atom_site_label
_atom_site_fract_x
_atom_site_fract_y
_atom_site_fract_z
Si Si1 0.753244 0.809624 0.673797
Si Si2 0.726773 0.939593 0.096056
Si Si3 0.036007 0.947735 0.398352
Si Si4 0.117844 0.393023 0.245711
Si Si5 0.898371 0.468726 0.595148
Si Si6 0.956086 0.845863 0.402535
Si Si7 0.090241 0.764041 0.692691
O O1 0.699902 0.851646 0.727298
O O2 0.824940 0.783462 0.741992
O O3 0.658643 0.774774 0.635683
O O4 0.832958 0.829935 0.601446
O O5 0.845426 0.935110 0.130285
O O6 0.645789 0.914742 0.161358
O O7 0.702900 0.996708 0.091009
O O8 0.713319 0.916648 0.000000
O O9 0.027469 0.952330 0.500000
O O10 0.967665 0.901088 0.365141
O O11 0.000000 0.000000 0.358010
O O12 0.125633 0.430580 0.168153
O O13 0.000000 0.372182 0.250000
O O14 0.915416 0.444754 0.500000
O O15 0.000000 0.500000 0.621406
O O16 0.992805 0.846183 0.500000
O O17 0.036434 0.808096 0.358407
O O18 0.000000 0.737327 0.750000
#
# Coordination Sequence:
#
# PCOD8294589 Si02
#       7
#    16  16  16  16  16  16  16
#     4  10  22  37  61  90 116 152 201 255 309 366
#     4  10  21  37  58  82 117 164 207 250 309 369
#     4   9  19  36  58  86 121 161 201 244 304 372
#     4  12  23  35  59  88 120 155 210 255 309 371
#     4  10  21  38  56  77 116 166 208 254 305 362
#     4  10  21  38  62  90 122 159 201 254 314 373
#     4   9  19  41  64  81 115 157 195 242 314 377
#
# _framework density 20.581493999999999
#
# number of rings (size 3 to 8) (size 9 to 14) (size 15 to 20)
#    0.000    2.000    1.429    1.714    2.000    1.143 
#    0.000    0.000    0.000   10.286    0.000    0.000 
#    0.000    0.000    0.000    0.000    0.000    0.000 
#
# Total GULP energy -693777.210582 kJ/mol
# GULP energy per Si atom -12388.878760 kJ/mol
# Density = 2.053465 g / cm^3
# Si number density = 20.581494 Si / 1000 Ang^3
#
#
#
# Elastic Constant Matrix: (Units=GPa)
#
#
# Indices 1 2 3 4 5 6 
#
# 1 134.8663 60.0053 32.1905 -0.0001 0.0000 -0.0002
# 2 60.0053 93.0999 18.9015 -0.0001 0.0000 -0.0018
# 3 32.1905 18.9015 64.0508 -0.0012 0.0010 -0.0013
# 4 -0.0001 -0.0001 -0.0012 10.8615 0.0004 -0.0004
# 5 0.0000 0.0000 0.0010 0.0004 24.1253 -0.0009
# 6 -0.0002 -0.0018 -0.0013 -0.0004 -0.0009 815.6489
#
#
#
# Elastic Compliance Matrix: (Units=1/GPa)
#
#
# Indices 1 2 3 4 5 6 
#
# 1 0.011168 -0.006445 -0.003711 0.000000 0.000000 0.000000
# 2 -0.006445 0.015145 -0.001230 0.000000 0.000000 0.000000
# 3 -0.003711 -0.001230 0.017841 0.000002 -0.000001 0.000000
# 4 0.000000 0.000000 0.000002 0.092068 -0.000001 0.000000
# 5 0.000000 0.000000 -0.000001 -0.000001 0.041450 0.000000
# 6 0.000000 0.000000 0.000000 0.000000 0.000000 0.001226
#
#
# Mechanical properties :
#
#
# Convention : Reuss Voigt Hill
#
# Bulk Modulus (GPa) = 46.76920 57.13463 51.95191
# Shear Modulus (GPa) = 23.94682 182.18847 103.06765
#
# Velocity S-wave (km/s) = 3.41473 9.41874 7.08425
# Velocity P-wave (km/s) = 6.19035 12.08735 9.60272
#
# Compressibility (1/GPa) = 0.02138159
#
# Stress axis : x y z
#
# Youngs Moduli (GPa) = 89.54290 66.03009 56.05167
#
# Poissons Ratio (x) = 0.42553 0.20800
# Poissons Ratio (y) = 0.57706 0.06896
# Poissons Ratio (z) = 0.33229 0.08124
#
# Static dielectric constant tensor:
#      x y z
#    x 4.291290 0.000000 0.000000 
#    y 0.000000 4.318080 0.000000 
#    z 0.000000 0.000000 3.507580 
# 
# 
# High freq. dielectric constant tensor:
#      x y z
#    x 1.824660 0.000000 0.000000 
#    y 0.000000 1.796690 0.000000 
#    z 0.000000 0.000000 1.782760 
# 
# From -- ./inp_files/20716.got.cif
#   From: 2010.03.12/outbox.cif.g09.slc.cpg/sg72_11_cif.got.tgz:20716.got - 2010.04.16 14:54:00.
