data_PCOD8294516
_publ_section_title
;
Structure prediction by ZEFSAII (Michael W. Deem and Ramdas Pophale) SiO2 
 PCOD8294516
Probable space group: I B A M
;
_chemical_formula_sum "Si O2"
_cell_formula_units_Z 80
_cell_length_a 17.911772
_cell_length_b 13.803274
_cell_length_c 16.856273
_cell_angle_alpha 90.000000
_cell_angle_beta 90.000000
_cell_angle_gamma 90.000000
_cell_volume 4167.563423
_symmetry_space_group_name_H-M "I B A M"
_symmetry_group_IT_number 72
_symmetry_cell_setting 'orthorhombic'
loop_
_space_group_symop_operation_xyz
x,y,z
-x,-y,z
x,-y,1/2-z
-x,y,1/2-z
-x,-y,-z
x,y,-z
-x,y,1/2+z
x,-y,1/2+z
1/2+x,1/2+y,1/2+z
1/2-x,1/2-y,1/2+z
1/2+x,1/2-y,-z
1/2-x,1/2+y,-z
1/2-x,1/2-y,1/2-z
1/2+x,1/2+y,1/2-z
1/2-x,1/2+y,z
1/2+x,1/2-y,z
loop_
_atom_site_type_symbol
_atom_site_label
_atom_site_fract_x
_atom_site_fract_y
_atom_site_fract_z
Si Si1 0.173517 0.168012 0.906937
Si Si2 0.123177 0.625306 0.592469
Si Si3 0.171553 0.419174 0.405333
Si Si4 0.967466 0.298816 0.906432
Si Si5 0.980782 0.105454 0.341786
O O1 0.178110 0.283928 0.892407
O O2 0.249413 0.120552 0.874394
O O3 0.106601 0.123171 0.856316
O O4 0.159285 0.146822 0.000000
O O5 0.112063 0.606160 0.500000
O O6 0.158448 0.527520 0.629246
O O7 0.041369 0.648680 0.629210
O O8 0.171918 0.417177 0.500000
O O9 0.106138 0.350079 0.371268
O O10 0.968254 0.185454 0.885125
O O11 0.968021 0.309058 0.000000
O O12 0.000000 0.110445 0.250000
O O13 0.000000 0.000000 0.377080
#
# Coordination Sequence:
#
# PCOD8294516 Si02
#       5
#    16  16  16  16  16
#     4   9  18  31  49  76 103 126 161 207 246 283
#     4   8  14  26  44  69 103 134 159 196 241 282
#     4   9  16  27  48  78 106 130 158 198 248 293
#     4   9  17  30  51  76  98 127 168 204 240 292
#     4  10  21  36  51  67  94 133 167 200 246 295
#
# _framework density 19.195869999999999
#
# number of rings (size 3 to 8) (size 9 to 14) (size 15 to 20)
#    0.000    3.000    0.000    2.400    0.000    5.600 
#    0.000    5.000    0.000   12.000    0.000    0.000 
#    0.000    0.000    0.000    0.000    0.000    0.000 
#
# Total GULP energy -495816.920175 kJ/mol
# GULP energy per Si atom -12395.423004 kJ/mol
# Density = 1.915218 g / cm^3
# Si number density = 19.195870 Si / 1000 Ang^3
#
#
#
# Elastic Constant Matrix: (Units=GPa)
#
#
# Indices 1 2 3 4 5 6 
#
# 1 153.7808 103.4434 30.6348 0.0000 0.0000 0.0000
# 2 103.4434 184.2201 17.9511 0.0000 0.0000 0.0000
# 3 30.6348 17.9511 15.9234 0.0000 0.0000 0.0000
# 4 0.0000 0.0000 0.0000 12.2089 0.0000 0.0000
# 5 0.0000 0.0000 0.0000 0.0000 13.0046 0.0000
# 6 0.0000 0.0000 0.0000 0.0000 0.0000 32.3897
#
#
#
# Elastic Compliance Matrix: (Units=1/GPa)
#
#
# Indices 1 2 3 4 5 6 
#
# 1 0.015177 -0.006378 -0.022010 0.000000 0.000000 0.000000
# 2 -0.006378 0.008778 0.002374 0.000000 0.000000 0.000000
# 3 -0.022010 0.002374 0.102469 0.000000 0.000000 0.000000
# 4 0.000000 0.000000 0.000000 0.081908 0.000000 0.000000
# 5 0.000000 0.000000 0.000000 0.000000 0.076896 0.000000
# 6 0.000000 0.000000 0.000000 0.000000 0.000000 0.030874
#
#
# Mechanical properties :
#
#
# Convention : Reuss Voigt Hill
#
# Bulk Modulus (GPa) = 13.44134 73.10919 43.27526
# Shear Modulus (GPa) = 12.72497 24.98029 18.85263
#
# Velocity S-wave (km/s) = 2.57748 3.61132 3.13728
# Velocity P-wave (km/s) = 3.98438 7.45368 5.97632
#
# Compressibility (1/GPa) = 0.07439736
#
# Stress axis : x y z
#
# Youngs Moduli (GPa) = 65.88738 113.91882 9.75907
#
# Poissons Ratio (x) = 0.72654 0.21479
# Poissons Ratio (y) = 0.42021 -0.02317
# Poissons Ratio (z) = 1.45016 -0.27044
#
# Static dielectric constant tensor:
#      x y z
#    x 3.692030 0.000000 0.000000 
#    y 0.000000 3.893930 0.000000 
#    z 0.000000 0.000000 2.924970 
# 
# 
# High freq. dielectric constant tensor:
#      x y z
#    x 1.745110 0.000000 0.000000 
#    y 0.000000 1.762250 0.000000 
#    z 0.000000 0.000000 1.691140 
# 
# From -- ./inp_files/30428.got.cif
#   From: 2010.03.12/outbox.cif.g09.slc.cpg/sg72_16_cif.got.tgz:30428.got - 2010.04.16 14:54:00.
