data_PCOD8294665
_publ_section_title
;
Structure prediction by ZEFSAII (Michael W. Deem and Ramdas Pophale) SiO2 
 PCOD8294665
Probable space group: I B A M
;
_chemical_formula_sum "Si O2"
_cell_formula_units_Z 88
_cell_length_a 30.654638
_cell_length_b 11.038319
_cell_length_c 13.172744
_cell_angle_alpha 90.000000
_cell_angle_beta 90.000000
_cell_angle_gamma 90.000000
_cell_volume 4457.336117
_symmetry_space_group_name_H-M "I B A M"
_symmetry_group_IT_number 72
_symmetry_cell_setting 'orthorhombic'
loop_
_space_group_symop_operation_xyz
x,y,z
-x,-y,z
x,-y,1/2-z
-x,y,1/2-z
-x,-y,-z
x,y,-z
-x,y,1/2+z
x,-y,1/2+z
1/2+x,1/2+y,1/2+z
1/2-x,1/2-y,1/2+z
1/2+x,1/2-y,-z
1/2-x,1/2+y,-z
1/2-x,1/2-y,1/2-z
1/2+x,1/2+y,1/2-z
1/2-x,1/2+y,z
1/2+x,1/2-y,z
loop_
_atom_site_type_symbol
_atom_site_label
_atom_site_fract_x
_atom_site_fract_y
_atom_site_fract_z
Si Si1 0.034288 0.353863 0.383005
Si Si2 0.390004 0.743613 0.713839
Si Si3 0.805483 0.635925 0.718079
Si Si4 0.842903 0.000000 0.750000
Si Si5 0.784706 0.835736 0.880888
Si Si6 0.061545 0.382334 0.880983
O O1 0.024466 0.365865 0.500000
O O2 0.066889 0.244713 0.356398
O O3 0.060124 0.475775 0.349074
O O4 0.985492 0.334016 0.339029
O O5 0.349832 0.818467 0.664377
O O6 0.375537 0.605199 0.717312
O O7 0.401539 0.804965 0.822922
O O8 0.811884 0.500000 0.750000
O O9 0.798934 0.716804 0.819266
O O10 0.766584 0.645361 0.637491
O O11 0.811468 0.046733 0.659055
O O12 0.793702 0.817737 0.000000
O O13 0.070307 0.363007 0.000000
#
# Coordination Sequence:
#
# PCOD8294665 Si02
#       6
#    16  16  16   8  16  16
#     4   9  18  33  55  87 119 146 188 240 292 353
#     4  11  21  35  58  81 115 150 190 244 286 335
#     4  10  21  38  58  91 115 135 201 255 286 367
#     4  10  24  42  55  82 118 156 207 242 274 368
#     4  10  22  42  63  80 116 162 189 239 311 353
#     4   9  18  34  57  85 117 151 187 234 299 355
#
# _framework density 19.742733000000001
#
# number of rings (size 3 to 8) (size 9 to 14) (size 15 to 20)
#    0.000    2.182    0.909    3.273    0.000    6.545 
#    0.000    1.818    0.000    2.182    0.000    0.000 
#    0.000    0.000    0.000    0.000    0.000    0.000 
#
# Total GULP energy -545223.540874 kJ/mol
# GULP energy per Si atom -12391.444111 kJ/mol
# Density = 1.969780 g / cm^3
# Si number density = 19.742733 Si / 1000 Ang^3
#
#
#
# Elastic Constant Matrix: (Units=GPa)
#
#
# Indices 1 2 3 4 5 6 
#
# 1 124.1878 51.6419 0.0818 0.0000 0.0000 0.0000
# 2 51.6419 107.3534 14.2116 0.0000 0.0000 0.0000
# 3 0.0818 14.2116 48.0448 0.0000 0.0000 0.0000
# 4 0.0000 0.0000 0.0000 15.3798 0.0000 0.0000
# 5 0.0000 0.0000 0.0000 0.0000 22.5304 0.0000
# 6 0.0000 0.0000 0.0000 0.0000 0.0000 -33.4523
#
#
#
# Elastic Compliance Matrix: (Units=1/GPa)
#
#
# Indices 1 2 3 4 5 6 
#
# 1 0.010167 -0.005088 0.001488 0.000000 0.000000 0.000000
# 2 -0.005088 0.012241 -0.003612 0.000000 0.000000 0.000000
# 3 0.001488 -0.003612 0.021880 0.000000 0.000000 0.000000
# 4 0.000000 0.000000 0.000000 0.065020 0.000000 0.000000
# 5 0.000000 0.000000 0.000000 0.000000 0.044384 0.000000
# 6 0.000000 0.000000 0.000000 0.000000 0.000000 -0.029893
#
#
# Mechanical properties :
#
#
# Convention : Reuss Voigt Hill
#
# Bulk Modulus (GPa) = 33.48618 45.71739 39.60178
# Shear Modulus (GPa) = 33.74327 15.13497 24.43912
#
# Velocity S-wave (km/s) = 4.13867 2.77178 3.52217
# Velocity P-wave (km/s) = 6.31159 5.78364 6.05338
#
# Compressibility (1/GPa) = 0.02986306
#
# Stress axis : x y z
#
# Youngs Moduli (GPa) = 98.35736 81.69512 45.70424
#
# Poissons Ratio (x) = 0.41564 -0.06799
# Poissons Ratio (y) = 0.50042 0.16509
# Poissons Ratio (z) = -0.14632 0.29509
#
# Static dielectric constant tensor:
#      x y z
#    x 3.934860 0.000000 0.000000 
#    y 0.000000 3.422490 0.000000 
#    z 0.000000 0.000000 3.402300 
# 
# 
# High freq. dielectric constant tensor:
#      x y z
#    x 1.791980 0.000000 0.000000 
#    y 0.000000 1.747920 0.000000 
#    z 0.000000 0.000000 1.759960 
# 
# From -- ./inp_files/26279.got.cif
#   From: 2010.03.12/outbox.cif.g09.slc.cpg/sg72_14_cif.got.tgz:26279.got - 2010.04.16 14:54:00.
