data_PCOD8294089
_publ_section_title
;
Structure prediction by ZEFSAII (Michael W. Deem and Ramdas Pophale) SiO2 
 PCOD8294089
Probable space group: I B A M
;
_chemical_formula_sum "Si O2"
_cell_formula_units_Z 96
_cell_length_a 20.358125
_cell_length_b 27.495210
_cell_length_c 8.608440
_cell_angle_alpha 90.000000
_cell_angle_beta 90.000000
_cell_angle_gamma 90.000000
_cell_volume 4818.582228
_symmetry_space_group_name_H-M "I B A M"
_symmetry_group_IT_number 72
_symmetry_cell_setting 'orthorhombic'
loop_
_space_group_symop_operation_xyz
x,y,z
-x,-y,z
x,-y,1/2-z
-x,y,1/2-z
-x,-y,-z
x,y,-z
-x,y,1/2+z
x,-y,1/2+z
1/2+x,1/2+y,1/2+z
1/2-x,1/2-y,1/2+z
1/2+x,1/2-y,-z
1/2-x,1/2+y,-z
1/2-x,1/2-y,1/2-z
1/2+x,1/2+y,1/2-z
1/2-x,1/2+y,z
1/2+x,1/2-y,z
loop_
_atom_site_type_symbol
_atom_site_label
_atom_site_fract_x
_atom_site_fract_y
_atom_site_fract_z
Si Si1 0.305845 0.613669 0.317666
Si Si2 0.681140 0.947128 0.682288
Si Si3 0.570009 0.126073 0.815371
Si Si4 0.930940 0.052119 0.817642
Si Si5 0.570101 0.769231 0.816043
Si Si6 0.192201 0.782555 0.317456
O O1 0.300808 0.626223 0.500000
O O2 0.251225 0.574508 0.267638
O O3 0.376356 0.591621 0.272884
O O4 0.292484 0.661516 0.217990
O O5 0.676027 0.951371 0.500000
O O6 0.623478 0.912301 0.744838
O O7 0.671186 0.000000 0.750000
O O8 0.500000 0.109131 0.750000
O O9 0.590612 0.178383 0.749637
O O10 0.566979 0.129712 0.000000
O O11 0.000000 0.070740 0.750000
O O12 0.910593 0.000000 0.750000
O O13 0.937697 0.045940 0.000000
O O14 0.500000 0.752332 0.750000
O O15 0.623706 0.730166 0.764449
O O16 0.565843 0.771856 0.000000
O O17 0.186910 0.773539 0.500000
O O18 0.250000 0.750000 0.250000
#
# Coordination Sequence:
#
# PCOD8294089 Si02
#       6
#    16  16  16  16  16  16
#     4  10  22  40  59  83 114 150 191 239 290 343
#     4  10  22  38  58  82 112 148 189 237 288 341
#     4  10  20  36  58  85 116 152 191 236 286 342
#     4  10  20  35  58  84 115 151 189 234 284 340
#     4  11  22  39  63  90 120 156 195 240 291 349
#     4  12  25  41  62  88 118 155 196 243 294 350
#
# _framework density 19.922872000000002
#
# number of rings (size 3 to 8) (size 9 to 14) (size 15 to 20)
#    0.000    1.500    0.000    7.000    0.000    5.667 
#    0.000    3.333    0.000    0.000    0.000    0.000 
#    0.000    0.000    0.000    0.000    0.000    0.000 
#
# Total GULP energy -595450.699465 kJ/mol
# GULP energy per Si atom -12405.222906 kJ/mol
# Density = 1.987753 g / cm^3
# Si number density = 19.922872 Si / 1000 Ang^3
#
#
#
# Elastic Constant Matrix: (Units=GPa)
#
#
# Indices 1 2 3 4 5 6 
#
# 1 90.9990 23.7806 31.4535 0.0000 0.0000 0.0000
# 2 23.7806 66.0928 20.9083 0.0000 0.0000 0.0000
# 3 31.4535 20.9083 96.5289 0.0000 0.0000 0.0000
# 4 0.0000 0.0000 0.0000 36.8208 0.0000 0.0000
# 5 0.0000 0.0000 0.0000 0.0000 31.2202 0.0000
# 6 0.0000 0.0000 0.0000 0.0000 0.0000 40.2234
#
#
#
# Elastic Compliance Matrix: (Units=1/GPa)
#
#
# Indices 1 2 3 4 5 6 
#
# 1 0.013145 -0.003623 -0.003499 0.000000 0.000000 0.000000
# 2 -0.003623 0.017242 -0.002554 0.000000 0.000000 0.000000
# 3 -0.003499 -0.002554 0.012053 0.000000 0.000000 0.000000
# 4 0.000000 0.000000 0.000000 0.027159 0.000000 0.000000
# 5 0.000000 0.000000 0.000000 0.000000 0.032031 0.000000
# 6 0.000000 0.000000 0.000000 0.000000 0.000000 0.024861
#
#
# Mechanical properties :
#
#
# Convention : Reuss Voigt Hill
#
# Bulk Modulus (GPa) = 43.31145 45.10061 44.20603
# Shear Modulus (GPa) = 32.56534 33.48474 33.02504
#
# Velocity S-wave (km/s) = 4.04737 4.10410 4.07584
# Velocity P-wave (km/s) = 6.60518 6.71900 6.66233
#
# Compressibility (1/GPa) = 0.02308858
#
# Stress axis : x y z
#
# Youngs Moduli (GPa) = 76.07346 57.99863 82.96826
#
# Poissons Ratio (x) = 0.21013 0.29027
# Poissons Ratio (y) = 0.27561 0.21191
# Poissons Ratio (z) = 0.26615 0.14813
#
# Static dielectric constant tensor:
#      x y z
#    x 3.932830 0.000000 0.000000 
#    y 0.000000 6.493210 0.000000 
#    z 0.000000 0.000000 3.659800 
# 
# 
# High freq. dielectric constant tensor:
#      x y z
#    x 1.793940 0.000000 0.000000 
#    y 0.000000 1.777050 0.000000 
#    z 0.000000 0.000000 1.784200 
# 
# From -- ./inp_files/6005.got.cif
#   From: 2010.03.12/outbox.cif.g09.slc.cpg/sg72_4_cif.got.tgz:6005.got - 2010.04.16 14:54:00.
