data_PCOD8294514
_publ_section_title
;
Structure prediction by ZEFSAII (Michael W. Deem and Ramdas Pophale) SiO2 
 PCOD8294514
Probable space group: I B A M
;
_chemical_formula_sum "Si O2"
_cell_formula_units_Z 104
_cell_length_a 31.738962
_cell_length_b 20.127355
_cell_length_c 9.106359
_cell_angle_alpha 90.000000
_cell_angle_beta 90.000000
_cell_angle_gamma 90.000000
_cell_volume 5817.336600
_symmetry_space_group_name_H-M "I B A M"
_symmetry_group_IT_number 72
_symmetry_cell_setting 'orthorhombic'
loop_
_space_group_symop_operation_xyz
x,y,z
-x,-y,z
x,-y,1/2-z
-x,y,1/2-z
-x,-y,-z
x,y,-z
-x,y,1/2+z
x,-y,1/2+z
1/2+x,1/2+y,1/2+z
1/2-x,1/2-y,1/2+z
1/2+x,1/2-y,-z
1/2-x,1/2+y,-z
1/2-x,1/2-y,1/2-z
1/2+x,1/2+y,1/2-z
1/2-x,1/2+y,z
1/2+x,1/2-y,z
loop_
_atom_site_type_symbol
_atom_site_label
_atom_site_fract_x
_atom_site_fract_y
_atom_site_fract_z
Si Si1 0.393930 0.000000 0.750000
Si Si2 0.463229 0.907306 0.340263
Si Si3 0.785399 0.795329 0.828635
Si Si4 0.255689 0.933172 0.670208
Si Si5 0.134188 0.740821 0.175039
Si Si6 0.958968 0.741555 0.329109
Si Si7 0.338304 0.887705 0.835847
O O1 0.422085 0.047525 0.850681
O O2 0.365978 0.046085 0.645182
O O3 0.500000 0.943557 0.250000
O O4 0.482131 0.897010 0.500000
O O5 0.453876 0.834476 0.274162
O O6 0.750000 0.750000 0.750000
O O7 0.777772 0.873942 0.813050
O O8 0.830319 0.785692 0.750681
O O9 0.786789 0.774672 0.000000
O O10 0.264683 0.949789 0.500000
O O11 0.297382 0.906477 0.745558
O O12 0.238993 0.000000 0.750000
O O13 0.087475 0.772385 0.207439
O O14 0.136712 0.667661 0.244885
O O15 0.141755 0.735344 0.000000
O O16 0.968050 0.748476 0.500000
O O17 0.000000 0.774901 0.250000
O O18 0.326867 0.862227 0.000000
#
# Coordination Sequence:
#
# PCOD8294514 Si02
#       7
#     8  16  16  16  16  16  16
#     4  12  23  34  48  68  96 130 180 228 275 322
#     4  10  21  36  48  63  90 126 171 223 275 322
#     4  11  23  38  59  85 113 147 187 230 276 330
#     4  11  24  40  58  81 113 146 182 227 275 327
#     4  11  22  38  57  78 107 140 182 231 277 326
#     4   9  19  35  53  73  99 134 173 224 278 328
#     4  12  24  34  52  75 100 139 183 227 279 326
#
# _framework density 17.877597000000002
#
# number of rings (size 3 to 8) (size 9 to 14) (size 15 to 20)
#    0.000    1.231    3.846    2.538    0.000    6.154 
#    0.000    0.000    0.000    0.000    0.000    0.000 
#    0.000    0.615    0.000    6.769    0.000    4.923 
#
# Total GULP energy -644372.602208 kJ/mol
# GULP energy per Si atom -12391.780812 kJ/mol
# Density = 1.783691 g / cm^3
# Si number density = 17.877597 Si / 1000 Ang^3
#
#
#
# Elastic Constant Matrix: (Units=GPa)
#
#
# Indices 1 2 3 4 5 6 
#
# 1 139.9992 36.0209 64.5942 0.0000 0.0000 0.0000
# 2 36.0209 46.7902 32.9712 0.0000 0.0000 0.0000
# 3 64.5942 32.9712 127.2319 0.0000 0.0000 0.0000
# 4 0.0000 0.0000 0.0000 -6.6293 0.0000 0.0000
# 5 0.0000 0.0000 0.0000 0.0000 22.7068 0.0000
# 6 0.0000 0.0000 0.0000 0.0000 0.0000 26.2558
#
#
#
# Elastic Compliance Matrix: (Units=1/GPa)
#
#
# Indices 1 2 3 4 5 6 
#
# 1 0.010258 -0.005172 -0.003868 0.000000 0.000000 0.000000
# 2 -0.005172 0.028754 -0.004826 0.000000 0.000000 0.000000
# 3 -0.003868 -0.004826 0.011074 0.000000 0.000000 0.000000
# 4 0.000000 0.000000 0.000000 -0.150846 0.000000 0.000000
# 5 0.000000 0.000000 0.000000 0.000000 0.044040 0.000000
# 6 0.000000 0.000000 0.000000 0.000000 0.000000 0.038087
#
#
# Mechanical properties :
#
#
# Convention : Reuss Voigt Hill
#
# Bulk Modulus (GPa) = 44.73171 64.57709 54.65440
# Shear Modulus (GPa) = 302.14148 20.49567 161.31857
#
# Velocity S-wave (km/s) = 13.01432 3.38959 9.50952
# Velocity P-wave (km/s) = 15.84000 7.17770 12.29684
#
# Compressibility (1/GPa) = 0.02235551
#
# Stress axis : x y z
#
# Youngs Moduli (GPa) = 97.48450 34.77796 90.30309
#
# Poissons Ratio (x) = 0.17986 0.34927
# Poissons Ratio (y) = 0.50415 0.43578
# Poissons Ratio (z) = 0.37704 0.16783
#
# Static dielectric constant tensor:
#      x y z
#    x 3.538660 0.000000 0.000000 
#    y 0.000000 3.210840 0.000000 
#    z 0.000000 0.000000 3.395930 
# 
# 
# High freq. dielectric constant tensor:
#      x y z
#    x 1.693100 0.000000 0.000000 
#    y 0.000000 1.646640 0.000000 
#    z 0.000000 0.000000 1.705110 
# 
# From -- ./inp_files/9172.got.cif
#   From: 2010.03.12/outbox.cif.g09.slc.cpg/sg72_5_cif.got.tgz:9172.got - 2010.04.16 14:54:00.
