data_PCOD8294052
_publ_section_title
;
Structure prediction by ZEFSAII (Michael W. Deem and Ramdas Pophale) SiO2 
 PCOD8294052
Probable space group: I B A M
;
_chemical_formula_sum "Si O2"
_cell_formula_units_Z 52
_cell_length_a 10.456240
_cell_length_b 29.503059
_cell_length_c 9.026906
_cell_angle_alpha 90.000000
_cell_angle_beta 90.000000
_cell_angle_gamma 90.000000
_cell_volume 2784.719851
_symmetry_space_group_name_H-M "I B A M"
_symmetry_group_IT_number 72
_symmetry_cell_setting 'orthorhombic'
loop_
_space_group_symop_operation_xyz
x,y,z
-x,-y,z
x,-y,1/2-z
-x,y,1/2-z
-x,-y,-z
x,y,-z
-x,y,1/2+z
x,-y,1/2+z
1/2+x,1/2+y,1/2+z
1/2-x,1/2-y,1/2+z
1/2+x,1/2-y,-z
1/2-x,1/2+y,-z
1/2-x,1/2-y,1/2-z
1/2+x,1/2+y,1/2-z
1/2-x,1/2+y,z
1/2+x,1/2-y,z
loop_
_atom_site_type_symbol
_atom_site_label
_atom_site_fract_x
_atom_site_fract_y
_atom_site_fract_z
Si Si1 0.243114 0.457645 0.663987
Si Si2 0.366281 0.724175 0.326161
Si Si3 0.000000 0.500000 0.750000
Si Si4 0.369497 0.618997 0.327999
O O1 0.310715 0.500000 0.750000
O O2 0.302013 0.452730 0.500000
O O3 0.091018 0.467770 0.650373
O O4 0.258767 0.411184 0.755153
O O5 0.500000 0.738511 0.250000
O O6 0.373797 0.736121 0.500000
O O7 0.250000 0.750000 0.250000
O O8 0.338532 0.671375 0.299407
O O9 0.500000 0.604321 0.250000
O O10 0.379856 0.607811 0.500000
#
# Coordination Sequence:
#
# PCOD8294052 Si02
#       4
#    16  16   4  16
#     4  10  20  35  56  79 108 145 183 226 275 326
#     4  10  21  39  62  88 118 154 193 242 294 351
#     4   8  22  36  56  76 110 144 186 226 278 320
#     4  10  21  37  58  83 112 144 185 230 280 335
#
# _framework density 18.673331999999998
#
# number of rings (size 3 to 8) (size 9 to 14) (size 15 to 20)
#    0.923    1.231    0.000    3.231    0.000    4.308 
#    2.769    3.077    0.000    0.000    0.000    0.000 
#    0.000    0.000    0.000    0.000    0.000    0.000 
#
# Total GULP energy -322258.054320 kJ/mol
# GULP energy per Si atom -12394.540551 kJ/mol
# Density = 1.863083 g / cm^3
# Si number density = 18.673332 Si / 1000 Ang^3
#
#
#
# Elastic Constant Matrix: (Units=GPa)
#
#
# Indices 1 2 3 4 5 6 
#
# 1 113.9226 65.0739 63.5139 -0.0013 0.0003 0.0001
# 2 65.0739 91.2819 70.4715 -0.0005 0.0001 0.0001
# 3 63.5139 70.4715 166.6745 -0.0031 -0.0015 0.0005
# 4 -0.0013 -0.0005 -0.0031 29.8707 0.0008 0.0002
# 5 0.0003 0.0001 -0.0015 0.0008 31.8856 -0.0007
# 6 0.0001 0.0001 0.0005 0.0002 -0.0007 35.7945
#
#
#
# Elastic Compliance Matrix: (Units=1/GPa)
#
#
# Indices 1 2 3 4 5 6 
#
# 1 0.015160 -0.009424 -0.001793 0.000000 0.000000 0.000000
# 2 -0.009424 0.022122 -0.005762 -0.000001 0.000000 0.000000
# 3 -0.001793 -0.005762 0.009119 0.000001 0.000000 0.000000
# 4 0.000000 -0.000001 0.000001 0.033478 -0.000001 0.000000
# 5 0.000000 0.000000 0.000000 -0.000001 0.031362 0.000001
# 6 0.000000 0.000000 0.000000 0.000000 0.000001 0.027937
#
#
# Mechanical properties :
#
#
# Convention : Reuss Voigt Hill
#
# Bulk Modulus (GPa) = 80.35968 85.55529 82.95749
# Shear Modulus (GPa) = 28.20355 31.03149 29.61752
#
# Velocity S-wave (km/s) = 3.89056 4.08095 3.98689
# Velocity P-wave (km/s) = 7.95675 8.25360 8.10653
#
# Compressibility (1/GPa) = 0.01244405
#
# Stress axis : x y z
#
# Youngs Moduli (GPa) = 65.96228 45.20474 109.65929
#
# Poissons Ratio (x) = 0.42599 0.19658
# Poissons Ratio (y) = 0.62160 0.63188
# Poissons Ratio (z) = 0.11825 0.26048
#
# Static dielectric constant tensor:
#      x y z
#    x 3.214980 0.000000 0.000000 
#    y 0.000000 3.355050 0.000000 
#    z 0.000000 0.000000 3.530320 
# 
# 
# High freq. dielectric constant tensor:
#      x y z
#    x 1.708290 0.000000 0.000000 
#    y 0.000000 1.719710 0.000000 
#    z 0.000000 0.000000 1.742440 
# 
# From -- ./inp_files/2278.got.cif
#   From: 2010.03.12/outbox.cif.g09.slc.cpg/sg72_2_cif.got.tgz:2278.got - 2010.04.16 14:54:00.
