data_PCOD8294523
_publ_section_title
;
Structure prediction by ZEFSAII (Michael W. Deem and Ramdas Pophale) SiO2 
 PCOD8294523
Probable space group: I B A M
;
_chemical_formula_sum "Si O2"
_cell_formula_units_Z 64
_cell_length_a 18.551765
_cell_length_b 5.134211
_cell_length_c 31.746584
_cell_angle_alpha 90.000000
_cell_angle_beta 90.000000
_cell_angle_gamma 90.000000
_cell_volume 3023.820091
_symmetry_space_group_name_H-M "I B A M"
_symmetry_group_IT_number 72
_symmetry_cell_setting 'orthorhombic'
loop_
_space_group_symop_operation_xyz
x,y,z
-x,-y,z
x,-y,1/2-z
-x,y,1/2-z
-x,-y,-z
x,y,-z
-x,y,1/2+z
x,-y,1/2+z
1/2+x,1/2+y,1/2+z
1/2-x,1/2-y,1/2+z
1/2+x,1/2-y,-z
1/2-x,1/2+y,-z
1/2-x,1/2-y,1/2-z
1/2+x,1/2+y,1/2-z
1/2-x,1/2+y,z
1/2+x,1/2-y,z
loop_
_atom_site_type_symbol
_atom_site_label
_atom_site_fract_x
_atom_site_fract_y
_atom_site_fract_z
Si Si1 0.295685 0.493471 0.548773
Si Si2 0.918733 0.511021 0.831791
Si Si3 0.581681 0.512394 0.114312
Si Si4 0.780155 0.319288 0.796396
O O1 0.317541 0.477481 0.500000
O O2 0.260467 0.768178 0.560586
O O3 0.368310 0.454476 0.574783
O O4 0.904121 0.800420 0.848879
O O5 0.861957 0.428624 0.795223
O O6 0.000000 0.500000 0.813296
O O7 0.905190 0.303261 0.868787
O O8 0.500000 0.500000 0.097839
O O9 0.750000 0.250000 0.750000
O O10 0.730665 0.541393 0.819965
#
# Coordination Sequence:
#
# PCOD8294523 Si02
#       4
#    16  16  16  16
#     4  10  21  36  54  80 114 150 189 234 285 338
#     4  10  21  37  57  82 114 147 185 234 284 333
#     4  10  21  36  56  83 111 147 192 233 280 336
#     4  10  21  37  57  83 111 142 182 227 275 336
#
# _framework density 21.165278000000001
#
# number of rings (size 3 to 8) (size 9 to 14) (size 15 to 20)
#    0.000    2.000    0.000    3.000    0.000    6.500 
#    0.000    2.500    0.000   15.000    0.000    0.000 
#    0.000    0.000    0.000    0.000    0.000    0.000 
#
# Total GULP energy -396552.359387 kJ/mol
# GULP energy per Si atom -12392.261231 kJ/mol
# Density = 2.111710 g / cm^3
# Si number density = 21.165278 Si / 1000 Ang^3
#
#
#
# Elastic Constant Matrix: (Units=GPa)
#
#
# Indices 1 2 3 4 5 6 
#
# 1 163.6162 37.4988 64.4473 0.0000 0.0000 0.0000
# 2 37.4988 131.9420 12.8412 0.0000 0.0000 0.0000
# 3 64.4473 12.8412 54.1295 0.0000 0.0000 0.0000
# 4 0.0000 0.0000 0.0000 19.0668 0.0000 0.0000
# 5 0.0000 0.0000 0.0000 0.0000 38.1518 0.0000
# 6 0.0000 0.0000 0.0000 0.0000 0.0000 31.4366
#
#
#
# Elastic Compliance Matrix: (Units=1/GPa)
#
#
# Indices 1 2 3 4 5 6 
#
# 1 0.012040 -0.002075 -0.013843 0.000000 0.000000 0.000000
# 2 -0.002075 0.008116 0.000545 0.000000 0.000000 0.000000
# 3 -0.013843 0.000545 0.034826 0.000000 0.000000 0.000000
# 4 0.000000 0.000000 0.000000 0.052447 0.000000 0.000000
# 5 0.000000 0.000000 0.000000 0.000000 0.026211 0.000000
# 6 0.000000 0.000000 0.000000 0.000000 0.000000 0.031810
#
#
# Mechanical properties :
#
#
# Convention : Reuss Voigt Hill
#
# Bulk Modulus (GPa) = 41.25962 64.36247 52.81104
# Shear Modulus (GPa) = 24.47692 33.39108 28.93400
#
# Velocity S-wave (km/s) = 3.40437 3.97625 3.70138
# Velocity P-wave (km/s) = 5.91518 7.18027 6.57821
#
# Compressibility (1/GPa) = 0.02423677
#
# Stress axis : x y z
#
# Youngs Moduli (GPa) = 83.05732 123.21829 28.71395
#
# Poissons Ratio (x) = 0.25563 0.39748
# Poissons Ratio (y) = 0.17231 -0.01564
# Poissons Ratio (z) = 1.14974 -0.06712
#
# Static dielectric constant tensor:
#      x y z
#    x 4.051740 0.000000 0.000000 
#    y 0.000000 0.508900 0.000000 
#    z 0.000000 0.000000 2.990820 
# 
# 
# High freq. dielectric constant tensor:
#      x y z
#    x 1.838240 0.000000 0.000000 
#    y 0.000000 1.867930 0.000000 
#    z 0.000000 0.000000 1.787640 
# 
# From -- ./inp_files/46540.got.cif
#   From: 2010.03.12/outbox.cif.g09.slc.cpg/sg72_24_cif.got.tgz:46540.got - 2010.04.16 14:54:00.
