data_PCOD8294250
_publ_section_title
;
Structure prediction by ZEFSAII (Michael W. Deem and Ramdas Pophale) SiO2 
 PCOD8294250
Probable space group: I B A M
;
_chemical_formula_sum "Si O2"
_cell_formula_units_Z 96
_cell_length_a 23.668448
_cell_length_b 24.132844
_cell_length_c 8.469260
_cell_angle_alpha 90.000000
_cell_angle_beta 90.000000
_cell_angle_gamma 90.000000
_cell_volume 4837.530901
_symmetry_space_group_name_H-M "I B A M"
_symmetry_group_IT_number 72
_symmetry_cell_setting 'orthorhombic'
loop_
_space_group_symop_operation_xyz
x,y,z
-x,-y,z
x,-y,1/2-z
-x,y,1/2-z
-x,-y,-z
x,y,-z
-x,y,1/2+z
x,-y,1/2+z
1/2+x,1/2+y,1/2+z
1/2-x,1/2-y,1/2+z
1/2+x,1/2-y,-z
1/2-x,1/2+y,-z
1/2-x,1/2-y,1/2-z
1/2+x,1/2+y,1/2-z
1/2-x,1/2+y,z
1/2+x,1/2-y,z
loop_
_atom_site_type_symbol
_atom_site_label
_atom_site_fract_x
_atom_site_fract_y
_atom_site_fract_z
Si Si1 0.630904 0.769671 0.314091
Si Si2 0.654107 0.941139 0.315171
Si Si3 0.640838 0.345537 0.314579
Si Si4 0.939180 0.367940 0.815268
Si Si5 0.266908 0.158462 0.315710
Si Si6 0.938839 0.059938 0.314445
O O1 0.632868 0.758545 0.500000
O O2 0.613005 0.713742 0.223919
O O3 0.583064 0.814577 0.278704
O O4 0.691655 0.792994 0.249690
O O5 0.639755 0.942486 0.500000
O O6 0.599286 0.921196 0.220067
O O7 0.706234 0.900908 0.278207
O O8 0.673329 0.000000 0.250000
O O9 0.640427 0.357472 0.500000
O O10 0.704312 0.341621 0.241260
O O11 0.607420 0.394748 0.231369
O O12 0.000000 0.383347 0.750000
O O13 0.940329 0.354923 0.000000
O O14 0.261070 0.168562 0.500000
O O15 0.943402 0.055660 0.500000
O O16 0.000000 0.078014 0.250000
O O17 0.920130 0.000000 0.250000
#
# Coordination Sequence:
#
# PCOD8294250 Si02
#       6
#    16  16  16  16  16  16
#     4  10  20  37  57  83 116 151 187 231 279 329
#     4  10  20  37  57  82 113 149 189 234 280 330
#     4  11  21  36  59  89 117 149 188 227 271 331
#     4  11  22  38  58  82 110 147 188 234 285 336
#     4   8  18  35  56  81 116 152 186 228 278 328
#     4  11  23  42  63  85 112 146 183 229 281 333
#
# _framework density 19.844833999999999
#
# number of rings (size 3 to 8) (size 9 to 14) (size 15 to 20)
#    0.000    1.833    0.000    6.500    0.000    1.667 
#    0.000   15.833    0.000    0.000    0.000    0.000 
#    0.000    0.000    0.000    0.000    0.000    0.000 
#
# Total GULP energy -595272.470310 kJ/mol
# GULP energy per Si atom -12401.509798 kJ/mol
# Density = 1.979967 g / cm^3
# Si number density = 19.844834 Si / 1000 Ang^3
#
#
#
# Elastic Constant Matrix: (Units=GPa)
#
#
# Indices 1 2 3 4 5 6 
#
# 1 58.6927 24.4088 25.7992 0.0000 0.0000 0.0000
# 2 24.4088 119.0336 29.8230 0.0000 0.0000 0.0000
# 3 25.7992 29.8230 94.7882 0.0000 0.0000 0.0000
# 4 0.0000 0.0000 0.0000 36.2405 0.0000 0.0000
# 5 0.0000 0.0000 0.0000 0.0000 26.2726 0.0000
# 6 0.0000 0.0000 0.0000 0.0000 0.0000 13.1469
#
#
#
# Elastic Compliance Matrix: (Units=1/GPa)
#
#
# Indices 1 2 3 4 5 6 
#
# 1 0.020305 -0.003017 -0.004577 0.000000 0.000000 0.000000
# 2 -0.003017 0.009568 -0.002189 0.000000 0.000000 0.000000
# 3 -0.004577 -0.002189 0.012484 0.000000 0.000000 0.000000
# 4 0.000000 0.000000 0.000000 0.027593 0.000000 0.000000
# 5 0.000000 0.000000 0.000000 0.000000 0.038062 0.000000
# 6 0.000000 0.000000 0.000000 0.000000 0.000000 0.076063
#
#
# Mechanical properties :
#
#
# Convention : Reuss Voigt Hill
#
# Bulk Modulus (GPa) = 43.87812 48.06405 45.97108
# Shear Modulus (GPa) = 23.66978 27.96424 25.81701
#
# Velocity S-wave (km/s) = 3.45736 3.75793 3.61077
# Velocity P-wave (km/s) = 6.17223 6.56520 6.37174
#
# Compressibility (1/GPa) = 0.02279040
#
# Stress axis : x y z
#
# Youngs Moduli (GPa) = 49.25016 104.51373 80.09951
#
# Poissons Ratio (x) = 0.31530 0.36664
# Poissons Ratio (y) = 0.14858 0.17536
# Poissons Ratio (z) = 0.22543 0.22881
#
# Static dielectric constant tensor:
#      x y z
#    x 3.783690 0.000000 0.000000 
#    y 0.000000 3.699900 0.000000 
#    z 0.000000 0.000000 3.553690 
# 
# 
# High freq. dielectric constant tensor:
#      x y z
#    x 1.771580 0.000000 0.000000 
#    y 0.000000 1.780060 0.000000 
#    z 0.000000 0.000000 1.773780 
# 
# From -- ./inp_files/7096.got.cif
#   From: 2010.03.12/outbox.cif.g09.slc.cpg/sg72_4_cif.got.tgz:7096.got - 2010.04.16 14:54:00.
