data_PCOD8294855
_publ_section_title
;
Structure prediction by ZEFSAII (Michael W. Deem and Ramdas Pophale) SiO2 
 PCOD8294855
Probable space group: I B A M
;
_chemical_formula_sum "Si O2"
_cell_formula_units_Z 96
_cell_length_a 11.407514
_cell_length_b 22.644421
_cell_length_c 18.037480
_cell_angle_alpha 90.000000
_cell_angle_beta 90.000000
_cell_angle_gamma 90.000000
_cell_volume 4659.379597
_symmetry_space_group_name_H-M "I B A M"
_symmetry_group_IT_number 72
_symmetry_cell_setting 'orthorhombic'
loop_
_space_group_symop_operation_xyz
x,y,z
-x,-y,z
x,-y,1/2-z
-x,y,1/2-z
-x,-y,-z
x,y,-z
-x,y,1/2+z
x,-y,1/2+z
1/2+x,1/2+y,1/2+z
1/2-x,1/2-y,1/2+z
1/2+x,1/2-y,-z
1/2-x,1/2+y,-z
1/2-x,1/2-y,1/2-z
1/2+x,1/2+y,1/2-z
1/2-x,1/2+y,z
1/2+x,1/2-y,z
loop_
_atom_site_type_symbol
_atom_site_label
_atom_site_fract_x
_atom_site_fract_y
_atom_site_fract_z
Si Si1 0.290541 0.080828 0.316930
Si Si2 0.840804 0.730481 0.415462
Si Si3 0.925582 0.836130 0.676123
Si Si4 0.011558 0.622620 0.415789
Si Si5 0.686330 0.050817 0.347122
Si Si6 0.855752 0.138967 0.414763
O O1 0.162465 0.109795 0.309112
O O2 0.375135 0.123774 0.363240
O O3 0.345744 0.069143 0.236564
O O4 0.283884 0.017907 0.358250
O O5 0.843737 0.755693 0.500000
O O6 0.852073 0.779995 0.352425
O O7 0.945594 0.684208 0.404411
O O8 0.716960 0.698865 0.399936
O O9 0.000000 0.821665 0.750000
O O10 0.011223 0.852508 0.609188
O O11 0.054106 0.615328 0.500000
O O12 0.924907 0.568271 0.397129
O O13 0.803446 0.084646 0.369750
O O14 0.850431 0.121542 0.500000
#
# Coordination Sequence:
#
# PCOD8294855 Si02
#       6
#    16  16  16  16  16  16
#     4  11  24  39  64  94 129 165 212 263 317 381
#     4   9  22  42  64  88 126 169 205 262 324 377
#     4  12  25  41  61  95 128 169 217 260 312 380
#     4  10  22  41  66  97 129 165 210 265 325 378
#     4  10  21  43  64  91 126 170 206 260 324 379
#     4  10  22  43  65  88 125 168 214 260 321 379
#
# _framework density 20.603601999999999
#
# number of rings (size 3 to 8) (size 9 to 14) (size 15 to 20)
#    0.000    1.667    1.667    3.000    2.333    8.667 
#    0.000    0.833    0.000    0.000    0.000    0.000 
#    0.000    0.000    0.000    0.000    0.000    0.000 
#
# Total GULP energy -595363.862878 kJ/mol
# GULP energy per Si atom -12403.413810 kJ/mol
# Density = 2.055671 g / cm^3
# Si number density = 20.603602 Si / 1000 Ang^3
#
#
#
# Elastic Constant Matrix: (Units=GPa)
#
#
# Indices 1 2 3 4 5 6 
#
# 1 83.1633 15.7927 19.2289 0.0000 0.0000 0.0000
# 2 15.7927 75.3532 31.1414 0.0000 0.0000 0.0000
# 3 19.2289 31.1414 71.9083 0.0000 0.0000 0.0000
# 4 0.0000 0.0000 0.0000 27.4354 0.0000 0.0000
# 5 0.0000 0.0000 0.0000 0.0000 38.6588 0.0000
# 6 0.0000 0.0000 0.0000 0.0000 0.0000 16.7284
#
#
#
# Elastic Compliance Matrix: (Units=1/GPa)
#
#
# Indices 1 2 3 4 5 6 
#
# 1 0.012967 -0.001565 -0.002790 0.000000 0.000000 0.000000
# 2 -0.001565 0.016353 -0.006663 0.000000 0.000000 0.000000
# 3 -0.002790 -0.006663 0.017538 0.000000 0.000000 0.000000
# 4 0.000000 0.000000 0.000000 0.036449 0.000000 0.000000
# 5 0.000000 0.000000 0.000000 0.000000 0.025867 0.000000
# 6 0.000000 0.000000 0.000000 0.000000 0.000000 0.059779
#
#
# Mechanical properties :
#
#
# Convention : Reuss Voigt Hill
#
# Bulk Modulus (GPa) = 40.28703 40.30565 40.29634
# Shear Modulus (GPa) = 25.09252 27.51530 26.30391
#
# Velocity S-wave (km/s) = 3.49359 3.65836 3.57692
# Velocity P-wave (km/s) = 5.98910 6.11962 6.05471
#
# Compressibility (1/GPa) = 0.02482188
#
# Stress axis : x y z
#
# Youngs Moduli (GPa) = 77.12052 61.15251 57.01792
#
# Poissons Ratio (x) = 0.09568 0.15907
# Poissons Ratio (y) = 0.12067 0.37993
# Poissons Ratio (z) = 0.21515 0.40748
#
# Static dielectric constant tensor:
#      x y z
#    x 3.697560 0.000000 0.000000 
#    y 0.000000 3.688270 0.000000 
#    z 0.000000 0.000000 3.833360 
# 
# 
# High freq. dielectric constant tensor:
#      x y z
#    x 1.804300 0.000000 0.000000 
#    y 0.000000 1.798250 0.000000 
#    z 0.000000 0.000000 1.816260 
# 
# From -- ./inp_files/29489.got.cif
#   From: 2010.03.12/outbox.cif.g09.slc.cpg/sg72_15_cif.got.tgz:29489.got - 2010.04.16 14:54:00.
