data_PCOD8294037
_publ_section_title
;
Structure prediction by ZEFSAII (Michael W. Deem and Ramdas Pophale) SiO2 
 PCOD8294037
Probable space group: I B A M
;
_chemical_formula_sum "Si O2"
_cell_formula_units_Z 96
_cell_length_a 14.397915
_cell_length_b 20.194917
_cell_length_c 18.192070
_cell_angle_alpha 90.000000
_cell_angle_beta 90.000000
_cell_angle_gamma 90.000000
_cell_volume 5289.611747
_symmetry_space_group_name_H-M "I B A M"
_symmetry_group_IT_number 72
_symmetry_cell_setting 'orthorhombic'
loop_
_space_group_symop_operation_xyz
x,y,z
-x,-y,z
x,-y,1/2-z
-x,y,1/2-z
-x,-y,-z
x,y,-z
-x,y,1/2+z
x,-y,1/2+z
1/2+x,1/2+y,1/2+z
1/2-x,1/2-y,1/2+z
1/2+x,1/2-y,-z
1/2-x,1/2+y,-z
1/2-x,1/2-y,1/2-z
1/2+x,1/2+y,1/2-z
1/2-x,1/2+y,z
1/2+x,1/2-y,z
loop_
_atom_site_type_symbol
_atom_site_label
_atom_site_fract_x
_atom_site_fract_y
_atom_site_fract_z
Si Si1 0.937495 0.298610 0.416421
Si Si2 0.424260 0.050137 0.415558
Si Si3 0.268469 0.201088 0.316019
Si Si4 0.453075 0.435253 0.828909
Si Si5 0.737303 0.946165 0.691881
Si Si6 0.087804 0.809604 0.914261
O O1 0.903028 0.286766 0.500000
O O2 0.962107 0.375479 0.403750
O O3 0.858066 0.274415 0.360765
O O4 0.029253 0.256557 0.400048
O O5 0.409666 0.032279 0.500000
O O6 0.322655 0.040737 0.380996
O O7 0.500000 0.000000 0.380509
O O8 0.250000 0.250000 0.250000
O O9 0.283553 0.128515 0.280487
O O10 0.184512 0.198872 0.373238
O O11 0.500000 0.500000 0.865022
O O12 0.500000 0.420015 0.750000
O O13 0.345600 0.454276 0.823021
O O14 0.468300 0.372274 0.881450
O O15 0.702806 0.000000 0.750000
O O16 0.106899 0.822033 0.000000
#
# Coordination Sequence:
#
# PCOD8294037 Si02
#       6
#    16  16  16  16  16  16
#     4   9  19  36  56  80 112 145 182 231 282 329
#     4   9  19  37  58  79 107 147 187 228 279 332
#     4  10  22  35  56  81 108 149 188 230 278 340
#     4  10  20  36  59  81 112 150 180 232 284 337
#     4  10  20  35  55  80 111 142 180 229 282 325
#     4  10  22  37  57  82 112 147 187 235 282 338
#
# _framework density 18.148779999999999
#
# number of rings (size 3 to 8) (size 9 to 14) (size 15 to 20)
#    0.000    2.333    1.667    0.500    4.667    6.000 
#    0.000    3.333    0.000    5.000    0.000    0.000 
#    0.000    0.000    0.000    0.000    0.000    0.000 
#
# Total GULP energy -595133.215605 kJ/mol
# GULP energy per Si atom -12398.608658 kJ/mol
# Density = 1.810747 g / cm^3
# Si number density = 18.148780 Si / 1000 Ang^3
#
#
#
# Elastic Constant Matrix: (Units=GPa)
#
#
# Indices 1 2 3 4 5 6 
#
# 1 85.7546 45.8447 46.1609 0.0000 0.0000 0.0000
# 2 45.8447 110.4531 66.7667 0.0000 0.0000 0.0000
# 3 46.1609 66.7667 95.7116 0.0000 0.0000 0.0000
# 4 0.0000 0.0000 0.0000 34.5199 0.0000 0.0000
# 5 0.0000 0.0000 0.0000 0.0000 28.4774 0.0000
# 6 0.0000 0.0000 0.0000 0.0000 0.0000 29.8981
#
#
#
# Elastic Compliance Matrix: (Units=1/GPa)
#
#
# Indices 1 2 3 4 5 6 
#
# 1 0.016508 -0.003526 -0.005502 0.000000 0.000000 0.000000
# 2 -0.003526 0.016408 -0.009745 0.000000 0.000000 0.000000
# 3 -0.005502 -0.009745 0.019900 0.000000 0.000000 0.000000
# 4 0.000000 0.000000 0.000000 0.028969 0.000000 0.000000
# 5 0.000000 0.000000 0.000000 0.000000 0.035116 0.000000
# 6 0.000000 0.000000 0.000000 0.000000 0.000000 0.033447
#
#
# Mechanical properties :
#
#
# Convention : Reuss Voigt Hill
#
# Bulk Modulus (GPa) = 65.49187 67.71819 66.60503
# Shear Modulus (GPa) = 25.90898 27.45553 26.68226
#
# Velocity S-wave (km/s) = 3.78244 3.89370 3.83847
# Velocity P-wave (km/s) = 7.43238 7.59001 7.51161
#
# Compressibility (1/GPa) = 0.01526907
#
# Stress axis : x y z
#
# Youngs Moduli (GPa) = 60.57743 60.94588 50.25166
#
# Poissons Ratio (x) = 0.21489 0.27648
# Poissons Ratio (y) = 0.21359 0.48972
# Poissons Ratio (z) = 0.33329 0.59394
#
# Static dielectric constant tensor:
#      x y z
#    x 3.340320 0.000000 0.000000 
#    y 0.000000 3.721970 0.000000 
#    z 0.000000 0.000000 3.323980 
# 
# 
# High freq. dielectric constant tensor:
#      x y z
#    x 1.705360 0.000000 0.000000 
#    y 0.000000 1.713810 0.000000 
#    z 0.000000 0.000000 1.695010 
# 
# From -- ./inp_files/24123.got.cif
#   From: 2010.03.12/outbox.cif.g09.slc.cpg/sg72_13_cif.got.tgz:24123.got - 2010.04.16 14:54:00.
