data_PCOD8294155
_publ_section_title
;
Structure prediction by ZEFSAII (Michael W. Deem and Ramdas Pophale) SiO2 
 PCOD8294155
Probable space group: I B A M
;
_chemical_formula_sum "Si O2"
_cell_formula_units_Z 64
_cell_length_a 9.625356
_cell_length_b 20.431880
_cell_length_c 16.073294
_cell_angle_alpha 90.000000
_cell_angle_beta 90.000000
_cell_angle_gamma 90.000000
_cell_volume 3161.040200
_symmetry_space_group_name_H-M "I B A M"
_symmetry_group_IT_number 72
_symmetry_cell_setting 'orthorhombic'
loop_
_space_group_symop_operation_xyz
x,y,z
-x,-y,z
x,-y,1/2-z
-x,y,1/2-z
-x,-y,-z
x,y,-z
-x,y,1/2+z
x,-y,1/2+z
1/2+x,1/2+y,1/2+z
1/2-x,1/2-y,1/2+z
1/2+x,1/2-y,-z
1/2-x,1/2+y,-z
1/2-x,1/2-y,1/2-z
1/2+x,1/2+y,1/2-z
1/2-x,1/2+y,z
1/2+x,1/2-y,z
loop_
_atom_site_type_symbol
_atom_site_label
_atom_site_fract_x
_atom_site_fract_y
_atom_site_fract_z
Si Si1 0.562758 0.700493 0.839138
Si Si2 0.860795 0.300713 0.404549
Si Si3 0.094218 0.556736 0.403965
Si Si4 0.087674 0.059404 0.403467
O O1 0.500000 0.719599 0.750000
O O2 0.725526 0.718175 0.849589
O O3 0.474162 0.743679 0.903729
O O4 0.540781 0.624049 0.855265
O O5 0.810113 0.312265 0.500000
O O6 0.928776 0.368902 0.370069
O O7 0.052208 0.557234 0.500000
O O8 0.253912 0.538996 0.388870
O O9 0.000000 0.500000 0.359547
O O10 0.054740 0.071141 0.500000
O O11 0.000000 0.000000 0.365969
#
# Coordination Sequence:
#
# PCOD8294155 Si02
#       4
#    16  16  16  16
#     4  11  22  36  54  80 113 146 181 231 289 337
#     4  10  20  36  57  80 109 146 189 231 274 334
#     4   8  15  29  50  77 104 130 168 220 267 308
#     4   9  18  33  53  77 105 139 182 225 267 325
#
# _framework density 20.246500000000001
#
# number of rings (size 3 to 8) (size 9 to 14) (size 15 to 20)
#    0.000    2.500    0.000    4.500    0.000    2.500 
#    0.000    5.000    0.000    3.750    0.000    0.000 
#    0.000    0.000    0.000    0.000    0.000    1.000 
#
# Total GULP energy -396629.754544 kJ/mol
# GULP energy per Si atom -12394.679829 kJ/mol
# Density = 2.020042 g / cm^3
# Si number density = 20.246500 Si / 1000 Ang^3
#
#
#
# Elastic Constant Matrix: (Units=GPa)
#
#
# Indices 1 2 3 4 5 6 
#
# 1 106.1339 84.6642 17.4767 0.0000 0.0000 0.0000
# 2 84.6642 117.1704 9.1456 0.0000 0.0000 0.0000
# 3 17.4767 9.1456 41.5589 0.0000 0.0000 0.0000
# 4 0.0000 0.0000 0.0000 16.1978 0.0000 0.0000
# 5 0.0000 0.0000 0.0000 0.0000 19.8614 0.0000
# 6 0.0000 0.0000 0.0000 0.0000 0.0000 51.9889
#
#
#
# Elastic Compliance Matrix: (Units=1/GPa)
#
#
# Indices 1 2 3 4 5 6 
#
# 1 0.023772 -0.016683 -0.006325 0.000000 0.000000 0.000000
# 2 -0.016683 0.020392 0.002528 0.000000 0.000000 0.000000
# 3 -0.006325 0.002528 0.026166 0.000000 0.000000 0.000000
# 4 0.000000 0.000000 0.000000 0.061737 0.000000 0.000000
# 5 0.000000 0.000000 0.000000 0.000000 0.050349 0.000000
# 6 0.000000 0.000000 0.000000 0.000000 0.000000 0.019235
#
#
# Mechanical properties :
#
#
# Convention : Reuss Voigt Hill
#
# Bulk Modulus (GPa) = 34.04946 54.15958 44.10452
# Shear Modulus (GPa) = 19.80968 27.84807 23.82887
#
# Velocity S-wave (km/s) = 3.13137 3.71273 3.43437
# Velocity P-wave (km/s) = 5.47064 6.72215 6.12843
#
# Compressibility (1/GPa) = 0.02936904
#
# Stress axis : x y z
#
# Youngs Moduli (GPa) = 42.06587 49.03819 38.21775
#
# Poissons Ratio (x) = 0.81813 0.24174
# Poissons Ratio (y) = 0.70180 -0.09662
# Poissons Ratio (z) = 0.26609 -0.12398
#
# Static dielectric constant tensor:
#      x y z
#    x 3.615150 0.000000 0.000000 
#    y 0.000000 3.888120 0.000000 
#    z 0.000000 0.000000 3.239890 
# 
# 
# High freq. dielectric constant tensor:
#      x y z
#    x 1.785690 0.000000 0.000000 
#    y 0.000000 1.805850 0.000000 
#    z 0.000000 0.000000 1.755170 
# 
# From -- ./inp_files/18629.got.cif
#   From: 2010.03.12/outbox.cif.g09.slc.cpg/sg72_10_cif.got.tgz:18629.got - 2010.04.16 14:54:00.
