data_PCOD8294738
_publ_section_title
;
Structure prediction by ZEFSAII (Michael W. Deem and Ramdas Pophale) SiO2 
 PCOD8294738
Probable space group: I B A M
;
_chemical_formula_sum "Si O2"
_cell_formula_units_Z 60
_cell_length_a 4.937017
_cell_length_b 25.449744
_cell_length_c 23.987516
_cell_angle_alpha 90.000000
_cell_angle_beta 90.000000
_cell_angle_gamma 90.000000
_cell_volume 3013.931088
_symmetry_space_group_name_H-M "I B A M"
_symmetry_group_IT_number 72
_symmetry_cell_setting 'orthorhombic'
loop_
_space_group_symop_operation_xyz
x,y,z
-x,-y,z
x,-y,1/2-z
-x,y,1/2-z
-x,-y,-z
x,y,-z
-x,y,1/2+z
x,-y,1/2+z
1/2+x,1/2+y,1/2+z
1/2-x,1/2-y,1/2+z
1/2+x,1/2-y,-z
1/2-x,1/2+y,-z
1/2-x,1/2-y,1/2-z
1/2+x,1/2+y,1/2-z
1/2-x,1/2+y,z
1/2+x,1/2-y,z
loop_
_atom_site_type_symbol
_atom_site_label
_atom_site_fract_x
_atom_site_fract_y
_atom_site_fract_z
Si Si1 0.500000 0.500000 0.250000
Si Si2 0.168420 0.101276 0.391329
Si Si3 0.146858 0.551488 0.157370
Si Si4 0.254131 0.961835 0.000000
Si Si5 0.377475 0.285854 0.064521
O O1 0.293665 0.537225 0.215666
O O2 0.393423 0.092701 0.341513
O O3 0.282903 0.077099 0.447796
O O4 0.118714 0.163117 0.396613
O O5 0.883089 0.072657 0.381730
O O6 0.000000 0.500000 0.131408
O O7 0.500000 0.000000 0.000000
O O8 0.000000 0.000000 0.000000
O O9 0.627032 0.249897 0.080089
O O10 0.379708 0.303394 0.000000
#
# Coordination Sequence:
#
# PCOD8294738 Si02
#       5
#     4  16  16   8  16
#     4  12  26  44  66  86 126 160 210 268 318 362
#     4  12  23  39  60  93 125 172 208 245 308 368
#     4  12  24  40  63  90 126 160 208 252 307 381
#     4  12  24  34  52  84 134 172 192 230 293 369
#     4  10  21  39  61  87 125 170 217 256 292 350
#
# _framework density 19.907553
#
# number of rings (size 3 to 8) (size 9 to 14) (size 15 to 20)
#    0.000    0.533    4.000    6.000    0.000    0.000 
#    0.000    0.000    0.000    0.000    0.000   18.667 
#    0.000    0.000    0.000    0.000    0.000    0.000 
#
# Total GULP energy -371780.374858 kJ/mol
# GULP energy per Si atom -12392.679162 kJ/mol
# Density = 1.986224 g / cm^3
# Si number density = 19.907553 Si / 1000 Ang^3
#
#
#
# Elastic Constant Matrix: (Units=GPa)
#
#
# Indices 1 2 3 4 5 6 
#
# 1 190.1701 78.5001 41.7785 0.0000 0.0000 0.0000
# 2 78.5001 143.3952 61.7745 0.0000 0.0000 0.0000
# 3 41.7785 61.7745 55.7774 0.0000 0.0000 0.0000
# 4 0.0000 0.0000 0.0000 18.9938 0.0000 0.0000
# 5 0.0000 0.0000 0.0000 0.0000 37.0203 0.0000
# 6 0.0000 0.0000 0.0000 0.0000 0.0000 58.9352
#
#
#
# Elastic Compliance Matrix: (Units=1/GPa)
#
#
# Indices 1 2 3 4 5 6 
#
# 1 0.006895 -0.002964 -0.001882 0.000000 0.000000 0.000000
# 2 -0.002964 0.014611 -0.013962 0.000000 0.000000 0.000000
# 3 -0.001882 -0.013962 0.034801 0.000000 0.000000 0.000000
# 4 0.000000 0.000000 0.000000 0.052649 0.000000 0.000000
# 5 0.000000 0.000000 0.000000 0.000000 0.027012 0.000000
# 6 0.000000 0.000000 0.000000 0.000000 0.000000 0.016968
#
#
# Mechanical properties :
#
#
# Convention : Reuss Voigt Hill
#
# Bulk Modulus (GPa) = 53.49993 83.71656 68.60825
# Shear Modulus (GPa) = 25.40862 36.80916 31.10889
#
# Velocity S-wave (km/s) = 3.57645 4.30467 3.95735
# Velocity P-wave (km/s) = 6.63229 8.17624 7.44440
#
# Compressibility (1/GPa) = 0.01869161
#
# Stress axis : x y z
#
# Youngs Moduli (GPa) = 145.02312 68.44088 28.73454
#
# Poissons Ratio (x) = 0.20286 0.05408
# Poissons Ratio (y) = 0.42985 0.40119
# Poissons Ratio (z) = 0.27296 0.95557
#
# Static dielectric constant tensor:
#      x y z
#    x 4.004750 0.000000 0.000000 
#    y 0.000000 3.593520 0.000000 
#    z 0.000000 0.000000 3.440950 
# 
# 
# High freq. dielectric constant tensor:
#      x y z
#    x 1.812570 0.000000 0.000000 
#    y 0.000000 1.767580 0.000000 
#    z 0.000000 0.000000 1.742120 
# 
# From -- ./inp_files/41346.got.cif
#   From: 2010.03.12/outbox.cif.g09.slc.cpg/sg72_21_cif.got.tgz:41346.got - 2010.04.16 14:54:00.
