data_PCOD8294751
_publ_section_title
;
Structure prediction by ZEFSAII (Michael W. Deem and Ramdas Pophale) SiO2 
 PCOD8294751
Probable space group: I B A M
;
_chemical_formula_sum "Si O2"
_cell_formula_units_Z 36
_cell_length_a 6.021098
_cell_length_b 21.974464
_cell_length_c 10.778724
_cell_angle_alpha 90.000000
_cell_angle_beta 90.000000
_cell_angle_gamma 90.000000
_cell_volume 1426.137297
_symmetry_space_group_name_H-M "I B A M"
_symmetry_group_IT_number 72
_symmetry_cell_setting 'orthorhombic'
loop_
_space_group_symop_operation_xyz
x,y,z
-x,-y,z
x,-y,1/2-z
-x,y,1/2-z
-x,-y,-z
x,y,-z
-x,y,1/2+z
x,-y,1/2+z
1/2+x,1/2+y,1/2+z
1/2-x,1/2-y,1/2+z
1/2+x,1/2-y,-z
1/2-x,1/2+y,-z
1/2-x,1/2-y,1/2-z
1/2+x,1/2+y,1/2-z
1/2-x,1/2+y,z
1/2+x,1/2-y,z
loop_
_atom_site_type_symbol
_atom_site_label
_atom_site_fract_x
_atom_site_fract_y
_atom_site_fract_z
Si Si1 0.500000 0.500000 0.750000
Si Si2 0.144961 0.725066 0.139182
Si Si3 0.343606 0.915877 0.362873
O O1 0.627181 0.456204 0.845112
O O2 0.372100 0.765003 0.187360
O O3 0.215988 0.655082 0.143345
O O4 0.114463 0.749442 0.000000
O O5 0.500000 0.935769 0.250000
O O6 0.447396 0.929709 0.500000
#
# Coordination Sequence:
#
# PCOD8294751 Si02
#       3
#     4  16  16
#     4  12  24  40  68 100 130 172 222 268 322 386
#     4  10  21  39  62  92 126 167 211 264 323 383
#     4  10  24  44  65  94 132 172 217 269 325 384
#
# _framework density 25.243013000000001
#
# number of rings (size 3 to 8) (size 9 to 14) (size 15 to 20)
#    0.000    1.778    0.000    2.667    3.111    7.111 
#    0.000    0.000    0.000    0.000    0.000    0.000 
#    0.000    0.000    0.000    0.000    0.000    0.000 
#
# Total GULP energy -223159.039771 kJ/mol
# GULP energy per Si atom -12397.724432 kJ/mol
# Density = 2.518556 g / cm^3
# Si number density = 25.243013 Si / 1000 Ang^3
#
#
#
# Elastic Constant Matrix: (Units=GPa)
#
#
# Indices 1 2 3 4 5 6 
#
# 1 143.6664 72.4188 125.5001 0.0003 0.0000 0.0000
# 2 72.4188 152.1020 65.0177 0.0000 0.0000 0.0001
# 3 125.5001 65.0177 311.8844 0.0004 0.0000 0.0003
# 4 0.0003 0.0000 0.0004 -48.2198 0.0000 0.0001
# 5 0.0000 0.0000 0.0000 0.0000 57.2419 0.0001
# 6 0.0000 0.0001 0.0003 0.0001 0.0001 50.5987
#
#
#
# Elastic Compliance Matrix: (Units=1/GPa)
#
#
# Indices 1 2 3 4 5 6 
#
# 1 0.012866 -0.004296 -0.004282 0.000000 0.000000 0.000000
# 2 -0.004296 0.008652 -0.000075 0.000000 0.000000 0.000000
# 3 -0.004282 -0.000075 0.004945 0.000000 0.000000 0.000000
# 4 0.000000 0.000000 0.000000 -0.020738 0.000000 0.000000
# 5 0.000000 0.000000 0.000000 0.000000 0.017470 0.000000
# 6 0.000000 0.000000 0.000000 0.000000 0.000000 0.019763
#
#
# Mechanical properties :
#
#
# Convention : Reuss Voigt Hill
#
# Bulk Modulus (GPa) = 109.19348 125.94732 117.57040
# Shear Modulus (GPa) = 78.96975 34.90525 56.93750
#
# Velocity S-wave (km/s) = 5.59926 3.72259 4.75444
# Velocity P-wave (km/s) = 9.22784 8.27522 8.76448
#
# Compressibility (1/GPa) = 0.00915806
#
# Stress axis : x y z
#
# Youngs Moduli (GPa) = 77.72282 115.58219 202.22678
#
# Poissons Ratio (x) = 0.49649 0.86589
# Poissons Ratio (y) = 0.33386 0.01519
# Poissons Ratio (z) = 0.33279 0.00868
#
# Static dielectric constant tensor:
#      x y z
#    x 5.278620 0.000000 0.000000 
#    y 0.000000 4.344430 0.000000 
#    z 0.000000 0.000000 5.586850 
# 
# 
# High freq. dielectric constant tensor:
#      x y z
#    x 2.036370 0.000000 0.000000 
#    y 0.000000 1.999840 0.000000 
#    z 0.000000 0.000000 2.095160 
# 
# From -- ./inp_files/9672.got.cif
#   From: 2010.03.12/outbox.cif.g09.slc.cpg/sg72_5_cif.got.tgz:9672.got - 2010.04.16 14:54:00.
