data_PCOD8294648
_publ_section_title
;
Structure prediction by ZEFSAII (Michael W. Deem and Ramdas Pophale) SiO2 
 PCOD8294648
Probable space group: I B A M
;
_chemical_formula_sum "Si O2"
_cell_formula_units_Z 96
_cell_length_a 19.832903
_cell_length_b 14.725598
_cell_length_c 17.957754
_cell_angle_alpha 90.000000
_cell_angle_beta 90.000000
_cell_angle_gamma 90.000000
_cell_volume 5244.586420
_symmetry_space_group_name_H-M "I B A M"
_symmetry_group_IT_number 72
_symmetry_cell_setting 'orthorhombic'
loop_
_space_group_symop_operation_xyz
x,y,z
-x,-y,z
x,-y,1/2-z
-x,y,1/2-z
-x,-y,-z
x,y,-z
-x,y,1/2+z
x,-y,1/2+z
1/2+x,1/2+y,1/2+z
1/2-x,1/2-y,1/2+z
1/2+x,1/2-y,-z
1/2-x,1/2+y,-z
1/2-x,1/2-y,1/2-z
1/2+x,1/2+y,1/2-z
1/2-x,1/2+y,z
1/2+x,1/2-y,z
loop_
_atom_site_type_symbol
_atom_site_label
_atom_site_fract_x
_atom_site_fract_y
_atom_site_fract_z
Si Si1 0.699693 0.095541 0.914675
Si Si2 0.952129 0.759718 0.181209
Si Si3 0.956844 0.587010 0.085551
Si Si4 0.063985 0.063183 0.915332
Si Si5 0.805543 0.028502 0.665083
Si Si6 0.699421 0.264822 0.183442
O O1 0.622210 0.065781 0.905187
O O2 0.713714 0.196615 0.884480
O O3 0.743197 0.024894 0.868505
O O4 0.722472 0.094149 0.000000
O O5 0.978111 0.670653 0.137877
O O6 0.952866 0.842868 0.124483
O O7 0.876496 0.747711 0.212868
O O8 0.000000 0.781137 0.250000
O O9 0.000000 0.500000 0.111437
O O10 0.973532 0.612088 0.000000
O O11 0.125000 0.007419 0.877567
O O12 0.083625 0.085879 0.000000
O O13 0.000000 0.000000 0.910017
O O14 0.789666 0.134222 0.653514
O O15 0.815708 0.000000 0.750000
O O16 0.750000 0.250000 0.250000
#
# Coordination Sequence:
#
# PCOD8294648 Si02
#       6
#    16  16  16  16  16  16
#     4  10  21  38  60  85 115 151 193 237 284 342
#     4  10  22  35  57  84 111 148 186 233 281 337
#     4   9  19  38  59  81 112 151 189 231 281 337
#     4  10  23  39  58  83 114 151 190 232 279 338
#     4  11  22  36  61  87 115 151 189 241 284 341
#     4  10  21  38  56  81 115 151 186 231 290 338
#
# _framework density 18.304589
#
# number of rings (size 3 to 8) (size 9 to 14) (size 15 to 20)
#    0.000    2.000    1.667    1.000    4.667    6.333 
#    0.000    0.000    0.000    5.000    0.000    0.000 
#    0.000    0.000    0.000    0.000    0.000    0.000 
#
# Total GULP energy -595317.851324 kJ/mol
# GULP energy per Si atom -12402.455236 kJ/mol
# Density = 1.826293 g / cm^3
# Si number density = 18.304589 Si / 1000 Ang^3
#
#
#
# Elastic Constant Matrix: (Units=GPa)
#
#
# Indices 1 2 3 4 5 6 
#
# 1 84.0486 49.1477 67.0636 0.0000 0.0000 0.0000
# 2 49.1477 114.5848 49.1397 0.0000 0.0000 0.0000
# 3 67.0636 49.1397 134.8019 0.0000 0.0000 0.0000
# 4 0.0000 0.0000 0.0000 7.4995 0.0000 0.0000
# 5 0.0000 0.0000 0.0000 0.0000 33.4253 0.0000
# 6 0.0000 0.0000 0.0000 0.0000 0.0000 30.8125
#
#
#
# Elastic Compliance Matrix: (Units=1/GPa)
#
#
# Indices 1 2 3 4 5 6 
#
# 1 0.022536 -0.005758 -0.009113 0.000000 0.000000 0.000000
# 2 -0.005758 0.011816 -0.001442 0.000000 0.000000 0.000000
# 3 -0.009113 -0.001442 0.012478 0.000000 0.000000 0.000000
# 4 0.000000 0.000000 0.000000 0.133341 0.000000 0.000000
# 5 0.000000 0.000000 0.000000 0.000000 0.029917 0.000000
# 6 0.000000 0.000000 0.000000 0.000000 0.000000 0.032454
#
#
# Mechanical properties :
#
#
# Convention : Reuss Voigt Hill
#
# Bulk Modulus (GPa) = 70.40906 73.79302 72.10104
# Shear Modulus (GPa) = 17.86332 25.55309 21.70820
#
# Velocity S-wave (km/s) = 3.12732 3.74035 3.44749
# Velocity P-wave (km/s) = 7.18254 7.68473 7.43788
#
# Compressibility (1/GPa) = 0.01420272
#
# Stress axis : x y z
#
# Youngs Moduli (GPa) = 44.37324 84.63395 80.14366
#
# Poissons Ratio (x) = 0.48734 0.73032
# Poissons Ratio (y) = 0.25551 0.11560
# Poissons Ratio (z) = 0.40435 0.12208
#
# Static dielectric constant tensor:
#      x y z
#    x 3.483720 0.000000 0.000000 
#    y 0.000000 3.468940 0.000000 
#    z 0.000000 0.000000 3.481400 
# 
# 
# High freq. dielectric constant tensor:
#      x y z
#    x 1.713950 0.000000 0.000000 
#    y 0.000000 1.717130 0.000000 
#    z 0.000000 0.000000 1.715230 
# 
# From -- ./inp_files/21783.got.cif
#   From: 2010.03.12/outbox.cif.g09.slc.cpg/sg72_11_cif.got.tgz:21783.got - 2010.04.16 14:54:00.
