data_PCOD8294909
_publ_section_title
;
Structure prediction by ZEFSAII (Michael W. Deem and Ramdas Pophale) SiO2 
 PCOD8294909
Probable space group: I B A M
;
_chemical_formula_sum "Si O2"
_cell_formula_units_Z 112
_cell_length_a 12.238836
_cell_length_b 13.655899
_cell_length_c 32.181919
_cell_angle_alpha 90.000000
_cell_angle_beta 90.000000
_cell_angle_gamma 90.000000
_cell_volume 5378.638408
_symmetry_space_group_name_H-M "I B A M"
_symmetry_group_IT_number 72
_symmetry_cell_setting 'orthorhombic'
loop_
_space_group_symop_operation_xyz
x,y,z
-x,-y,z
x,-y,1/2-z
-x,y,1/2-z
-x,-y,-z
x,y,-z
-x,y,1/2+z
x,-y,1/2+z
1/2+x,1/2+y,1/2+z
1/2-x,1/2-y,1/2+z
1/2+x,1/2-y,-z
1/2-x,1/2+y,-z
1/2-x,1/2-y,1/2-z
1/2+x,1/2+y,1/2-z
1/2-x,1/2+y,z
1/2+x,1/2-y,z
loop_
_atom_site_type_symbol
_atom_site_label
_atom_site_fract_x
_atom_site_fract_y
_atom_site_fract_z
Si Si1 0.586657 0.422776 0.363280
Si Si2 0.243779 0.278613 0.896626
Si Si3 0.299382 0.554229 0.206683
Si Si4 0.612809 0.901344 0.547760
Si Si5 0.607433 0.903212 0.088468
Si Si6 0.556210 0.094730 0.682259
Si Si7 0.423387 0.274789 0.675544
O O1 0.500000 0.500000 0.384241
O O2 0.673750 0.371355 0.393305
O O3 0.653169 0.480147 0.327547
O O4 0.518972 0.329741 0.348399
O O5 0.168382 0.302561 0.935853
O O6 0.299592 0.177726 0.909824
O O7 0.173180 0.263256 0.854791
O O8 0.299103 0.500000 0.250000
O O9 0.181386 0.596651 0.195453
O O10 0.374403 0.651027 0.209787
O O11 0.641780 0.919615 0.500000
O O12 0.483070 0.884102 0.553004
O O13 0.658136 0.991466 0.576199
O O14 0.545721 0.906393 0.132475
O O15 0.483475 0.185342 0.699012
O O16 0.500000 0.000000 0.702033
#
# Coordination Sequence:
#
# PCOD8294909 Si02
#       7
#    16  16  16  16  16  16  16
#     4  10  22  38  63  93 127 166 226 272 321 396
#     4  12  21  40  68  99 124 176 224 276 325 397
#     4  11  25  43  64  97 137 172 211 273 345 395
#     4  11  24  39  62 100 138 173 216 275 341 396
#     4  11  20  39  68  90 127 171 226 274 316 395
#     4  12  21  40  68  95 124 171 230 276 316 397
#     4  11  21  40  67  97 123 167 231 270 318 398
#
# _framework density 20.823114
#
# number of rings (size 3 to 8) (size 9 to 14) (size 15 to 20)
#    0.000    0.857    5.714    2.571    2.000    4.000 
#    0.000    9.286    0.000    0.429    0.000    0.000 
#    0.000    0.000    0.000    0.000    0.000    0.000 
#
# Total GULP energy -694094.613929 kJ/mol
# GULP energy per Si atom -12394.546677 kJ/mol
# Density = 2.077572 g / cm^3
# Si number density = 20.823114 Si / 1000 Ang^3
#
#
#
# Elastic Constant Matrix: (Units=GPa)
#
#
# Indices 1 2 3 4 5 6 
#
# 1 100.9563 61.4640 17.5905 0.0000 0.0000 0.0000
# 2 61.4640 125.8084 22.2792 0.0000 0.0000 0.0000
# 3 17.5905 22.2792 65.9025 0.0000 0.0000 0.0000
# 4 0.0000 0.0000 0.0000 -27.4481 0.0000 0.0000
# 5 0.0000 0.0000 0.0000 0.0000 18.1896 0.0000
# 6 0.0000 0.0000 0.0000 0.0000 0.0000 59.5213
#
#
#
# Elastic Compliance Matrix: (Units=1/GPa)
#
#
# Indices 1 2 3 4 5 6 
#
# 1 0.014245 -0.006686 -0.001542 0.000000 0.000000 0.000000
# 2 -0.006686 0.011593 -0.002135 0.000000 0.000000 0.000000
# 3 -0.001542 -0.002135 0.016307 0.000000 0.000000 0.000000
# 4 0.000000 0.000000 0.000000 -0.036432 0.000000 0.000000
# 5 0.000000 0.000000 0.000000 0.000000 0.054977 0.000000
# 6 0.000000 0.000000 0.000000 0.000000 0.000000 0.016801
#
#
# Mechanical properties :
#
#
# Convention : Reuss Voigt Hill
#
# Bulk Modulus (GPa) = 46.68587 55.03719 50.86153
# Shear Modulus (GPa) = 47.45876 22.80812 35.13344
#
# Velocity S-wave (km/s) = 4.77921 3.31316 4.11205
# Velocity P-wave (km/s) = 7.27485 6.41282 6.85739
#
# Compressibility (1/GPa) = 0.02141976
#
# Stress axis : x y z
#
# Youngs Moduli (GPa) = 70.20211 86.25781 61.32312
#
# Poissons Ratio (x) = 0.57674 0.09455
# Poissons Ratio (y) = 0.46938 0.13090
# Poissons Ratio (z) = 0.10824 0.18412
#
# Static dielectric constant tensor:
#      x y z
#    x 3.997870 0.000000 0.000000 
#    y 0.000000 4.156630 0.000000 
#    z 0.000000 0.000000 3.345510 
# 
# 
# High freq. dielectric constant tensor:
#      x y z
#    x 1.832480 0.000000 0.000000 
#    y 0.000000 1.837120 0.000000 
#    z 0.000000 0.000000 1.769470 
# 
# From -- ./inp_files/51479.got.cif
#   From: 2010.03.12/outbox.cif.g09.slc.cpg/sg72_26_cif.got.tgz:51479.got - 2010.04.16 14:54:00.
