data_PCOD8294601
_publ_section_title
;
Structure prediction by ZEFSAII (Michael W. Deem and Ramdas Pophale) SiO2 
 PCOD8294601
Probable space group: I B A M
;
_chemical_formula_sum "Si O2"
_cell_formula_units_Z 96
_cell_length_a 17.773245
_cell_length_b 14.498617
_cell_length_c 19.100957
_cell_angle_alpha 90.000000
_cell_angle_beta 90.000000
_cell_angle_gamma 90.000000
_cell_volume 4922.077324
_symmetry_space_group_name_H-M "I B A M"
_symmetry_group_IT_number 72
_symmetry_cell_setting 'orthorhombic'
loop_
_space_group_symop_operation_xyz
x,y,z
-x,-y,z
x,-y,1/2-z
-x,y,1/2-z
-x,-y,-z
x,y,-z
-x,y,1/2+z
x,-y,1/2+z
1/2+x,1/2+y,1/2+z
1/2-x,1/2-y,1/2+z
1/2+x,1/2-y,-z
1/2-x,1/2+y,-z
1/2-x,1/2-y,1/2-z
1/2+x,1/2+y,1/2-z
1/2-x,1/2+y,z
1/2+x,1/2-y,z
loop_
_atom_site_type_symbol
_atom_site_label
_atom_site_fract_x
_atom_site_fract_y
_atom_site_fract_z
Si Si1 0.804374 0.984640 0.175508
Si Si2 0.787654 0.308320 0.169427
Si Si3 0.451562 0.089448 0.420247
Si Si4 0.079753 0.266342 0.421622
Si Si5 0.569520 0.440079 0.416977
Si Si6 0.189907 0.359374 0.823617
O O1 0.854424 0.014955 0.110884
O O2 0.727483 0.041468 0.182175
O O3 0.847746 0.000000 0.250000
O O4 0.780117 0.880221 0.161234
O O5 0.857654 0.325531 0.118731
O O6 0.824684 0.313132 0.247197
O O7 0.750928 0.211385 0.143814
O O8 0.422025 0.070576 0.500000
O O9 0.502717 0.179036 0.419508
O O10 0.384409 0.119689 0.368688
O O11 0.500000 0.000000 0.394414
O O12 0.109950 0.254716 0.500000
O O13 0.063889 0.164996 0.389102
O O14 0.500000 0.500000 0.387720
O O15 0.571615 0.444261 0.500000
#
# Coordination Sequence:
#
# PCOD8294601 Si02
#       6
#    16  16  16  16  16  16
#     4  10  21  38  59  85 115 147 190 236 284 345
#     4  10  21  37  59  85 117 153 190 240 289 346
#     4  10  22  39  61  88 119 154 196 246 294 347
#     4  10  21  39  59  85 118 150 192 240 286 344
#     4  10  22  39  57  81 115 151 189 236 287 341
#     4  10  21  38  57  87 120 150 193 239 293 351
#
# _framework density 19.503961
#
# number of rings (size 3 to 8) (size 9 to 14) (size 15 to 20)
#    0.000    2.000    1.667    1.000    2.333    3.000 
#    0.000    2.500    0.000    0.000    0.000    0.000 
#    0.000    0.000    0.000    0.000    0.000    0.000 
#
# Total GULP energy -594897.857901 kJ/mol
# GULP energy per Si atom -12393.705373 kJ/mol
# Density = 1.945957 g / cm^3
# Si number density = 19.503961 Si / 1000 Ang^3
#
#
#
# Elastic Constant Matrix: (Units=GPa)
#
#
# Indices 1 2 3 4 5 6 
#
# 1 88.1892 28.8492 52.1979 0.0000 0.0000 0.0000
# 2 28.8492 89.7127 32.5665 0.0000 0.0000 0.0000
# 3 52.1979 32.5665 57.3332 0.0000 0.0000 0.0000
# 4 0.0000 0.0000 0.0000 24.3440 0.0000 0.0000
# 5 0.0000 0.0000 0.0000 0.0000 37.8259 0.0000
# 6 0.0000 0.0000 0.0000 0.0000 0.0000 26.8663
#
#
#
# Elastic Compliance Matrix: (Units=1/GPa)
#
#
# Indices 1 2 3 4 5 6 
#
# 1 0.024596 0.000276 -0.022550 0.000000 0.000000 0.000000
# 2 0.000276 0.014045 -0.008230 0.000000 0.000000 0.000000
# 3 -0.022550 -0.008230 0.042646 0.000000 0.000000 0.000000
# 4 0.000000 0.000000 0.000000 0.041078 0.000000 0.000000
# 5 0.000000 0.000000 0.000000 0.000000 0.026437 0.000000
# 6 0.000000 0.000000 0.000000 0.000000 0.000000 0.037221
#
#
# Mechanical properties :
#
#
# Convention : Reuss Voigt Hill
#
# Bulk Modulus (GPa) = 49.30597 51.38472 50.34535
# Shear Modulus (GPa) = 19.70135 25.91534 22.80834
#
# Velocity S-wave (km/s) = 3.18169 3.64912 3.42339
# Velocity P-wave (km/s) = 6.23156 6.64513 6.44167
#
# Compressibility (1/GPa) = 0.02028152
#
# Stress axis : x y z
#
# Youngs Moduli (GPa) = 40.65764 71.19846 23.44864
#
# Poissons Ratio (x) = -0.01968 0.52876
# Poissons Ratio (y) = -0.01124 0.19297
# Poissons Ratio (z) = 0.91681 0.58594
#
# Static dielectric constant tensor:
#      x y z
#    x 3.316370 0.000000 0.000000 
#    y 0.000000 3.797520 0.000000 
#    z 0.000000 0.000000 3.640130 
# 
# 
# High freq. dielectric constant tensor:
#      x y z
#    x 1.746060 0.000000 0.000000 
#    y 0.000000 1.779890 0.000000 
#    z 0.000000 0.000000 1.751650 
# 
# From -- ./inp_files/38025.got.cif
#   From: 2010.03.12/outbox.cif.g09.slc.cpg/sg72_20_cif.got.tgz:38025.got - 2010.04.16 14:54:00.
