data_PCOD8294195
_publ_section_title
;
Structure prediction by ZEFSAII (Michael W. Deem and Ramdas Pophale) SiO2 
 PCOD8294195
Probable space group: I B A M
;
_chemical_formula_sum "Si O2"
_cell_formula_units_Z 96
_cell_length_a 21.810811
_cell_length_b 12.906772
_cell_length_c 18.201694
_cell_angle_alpha 90.000000
_cell_angle_beta 90.000000
_cell_angle_gamma 90.000000
_cell_volume 5123.907271
_symmetry_space_group_name_H-M "I B A M"
_symmetry_group_IT_number 72
_symmetry_cell_setting 'orthorhombic'
loop_
_space_group_symop_operation_xyz
x,y,z
-x,-y,z
x,-y,1/2-z
-x,y,1/2-z
-x,-y,-z
x,y,-z
-x,y,1/2+z
x,-y,1/2+z
1/2+x,1/2+y,1/2+z
1/2-x,1/2-y,1/2+z
1/2+x,1/2-y,-z
1/2-x,1/2+y,-z
1/2-x,1/2-y,1/2-z
1/2+x,1/2+y,1/2-z
1/2-x,1/2+y,z
1/2+x,1/2-y,z
loop_
_atom_site_type_symbol
_atom_site_label
_atom_site_fract_x
_atom_site_fract_y
_atom_site_fract_z
Si Si1 0.447684 0.792834 0.805554
Si Si2 0.728862 0.691242 0.821681
Si Si3 0.339477 0.948855 0.827020
Si Si4 0.156814 0.348281 0.582706
Si Si5 0.397648 0.606430 0.711445
Si Si6 0.039327 0.210130 0.415411
O O1 0.500000 0.832756 0.750000
O O2 0.402806 0.887516 0.820276
O O3 0.411639 0.699597 0.766989
O O4 0.475733 0.754684 0.883208
O O5 0.750000 0.750000 0.750000
O O6 0.785622 0.627130 0.854469
O O7 0.707713 0.778907 0.878007
O O8 0.674328 0.609795 0.806472
O O9 0.320550 0.000000 0.750000
O O10 0.347756 0.036712 0.886912
O O11 0.179207 0.355489 0.500000
O O12 0.089619 0.300068 0.590390
O O13 0.416140 0.500000 0.750000
O O14 0.437488 0.615432 0.636243
O O15 0.030191 0.173364 0.500000
#
# Coordination Sequence:
#
# PCOD8294195 Si02
#       6
#    16  16  16  16  16  16
#     4  10  21  35  54  85 117 146 192 239 280 324
#     4  11  20  37  61  84 113 150 190 237 281 342
#     4  12  21  34  61  87 116 148 195 236 284 338
#     4  10  23  40  57  84 117 152 188 232 290 344
#     4  10  20  36  60  85 112 147 191 238 284 333
#     4   9  20  40  59  79 115 155 189 230 286 343
#
# _framework density 18.735702
#
# number of rings (size 3 to 8) (size 9 to 14) (size 15 to 20)
#    0.000    1.667    3.333    2.500    0.000    6.667 
#    0.000    3.333    0.000    0.000    0.000    0.000 
#    0.000    0.000    0.000    0.000    0.000    0.000 
#
# Total GULP energy -595287.580945 kJ/mol
# GULP energy per Si atom -12401.824603 kJ/mol
# Density = 1.869306 g / cm^3
# Si number density = 18.735702 Si / 1000 Ang^3
#
#
#
# Elastic Constant Matrix: (Units=GPa)
#
#
# Indices 1 2 3 4 5 6 
#
# 1 104.9272 46.1804 37.2820 0.0000 0.0000 0.0000
# 2 46.1804 119.7816 58.5535 0.0000 0.0000 0.0000
# 3 37.2820 58.5535 139.4017 0.0000 0.0000 0.0000
# 4 0.0000 0.0000 0.0000 30.0614 0.0000 0.0000
# 5 0.0000 0.0000 0.0000 0.0000 23.6569 0.0000
# 6 0.0000 0.0000 0.0000 0.0000 0.0000 19.4329
#
#
#
# Elastic Compliance Matrix: (Units=1/GPa)
#
#
# Indices 1 2 3 4 5 6 
#
# 1 0.011741 -0.003765 -0.001559 0.000000 0.000000 0.000000
# 2 -0.003765 0.011713 -0.003913 0.000000 0.000000 0.000000
# 3 -0.001559 -0.003913 0.009234 0.000000 0.000000 0.000000
# 4 0.000000 0.000000 0.000000 0.033265 0.000000 0.000000
# 5 0.000000 0.000000 0.000000 0.000000 0.042271 0.000000
# 6 0.000000 0.000000 0.000000 0.000000 0.000000 0.051459
#
#
# Mechanical properties :
#
#
# Convention : Reuss Voigt Hill
#
# Bulk Modulus (GPa) = 70.34777 72.01580 71.18179
# Shear Modulus (GPa) = 27.33817 29.43654 28.38736
#
# Velocity S-wave (km/s) = 3.82402 3.96807 3.89671
# Velocity P-wave (km/s) = 7.55821 7.71462 7.63681
#
# Compressibility (1/GPa) = 0.01421509
#
# Stress axis : x y z
#
# Youngs Moduli (GPa) = 85.17025 85.37723 108.29588
#
# Poissons Ratio (x) = 0.32142 0.16881
# Poissons Ratio (y) = 0.32064 0.42375
# Poissons Ratio (z) = 0.13276 0.33407
#
# Static dielectric constant tensor:
#      x y z
#    x 3.773880 0.000000 0.000000 
#    y 0.000000 3.289550 0.000000 
#    z 0.000000 0.000000 4.075770 
# 
# 
# High freq. dielectric constant tensor:
#      x y z
#    x 1.735900 0.000000 0.000000 
#    y 0.000000 1.723690 0.000000 
#    z 0.000000 0.000000 1.720990 
# 
# From -- ./inp_files/33257.got.cif
#   From: 2010.03.12/outbox.cif.g09.slc.cpg/sg72_17_cif.got.tgz:33257.got - 2010.04.16 14:54:00.
