data_PCOD8294705
_publ_section_title
;
Structure prediction by ZEFSAII (Michael W. Deem and Ramdas Pophale) SiO2 
 PCOD8294705
Probable space group: I B A M
;
_chemical_formula_sum "Si O2"
_cell_formula_units_Z 64
_cell_length_a 5.209740
_cell_length_b 24.447702
_cell_length_c 24.506105
_cell_angle_alpha 90.000000
_cell_angle_beta 90.000000
_cell_angle_gamma 90.000000
_cell_volume 3121.248760
_symmetry_space_group_name_H-M "I B A M"
_symmetry_group_IT_number 72
_symmetry_cell_setting 'orthorhombic'
loop_
_space_group_symop_operation_xyz
x,y,z
-x,-y,z
x,-y,1/2-z
-x,y,1/2-z
-x,-y,-z
x,y,-z
-x,y,1/2+z
x,-y,1/2+z
1/2+x,1/2+y,1/2+z
1/2-x,1/2-y,1/2+z
1/2+x,1/2-y,-z
1/2-x,1/2+y,-z
1/2-x,1/2-y,1/2-z
1/2+x,1/2+y,1/2-z
1/2-x,1/2+y,z
1/2+x,1/2-y,z
loop_
_atom_site_type_symbol
_atom_site_label
_atom_site_fract_x
_atom_site_fract_y
_atom_site_fract_z
Si Si1 0.251394 0.062302 0.773763
Si Si2 0.115916 0.944231 0.937900
Si Si3 0.363291 0.101151 0.892349
Si Si4 0.891386 0.715047 0.437137
O O1 0.500000 0.093056 0.750000
O O2 0.255358 0.072227 0.838064
O O3 0.000000 0.092013 0.750000
O O4 0.252087 0.000000 0.750000
O O5 0.375447 0.930457 0.906100
O O6 0.878957 0.901890 0.933921
O O7 0.202515 0.950838 0.000000
O O8 0.000000 0.000000 0.913334
O O9 0.428805 0.165503 0.893935
O O10 0.912437 0.694083 0.500000
O O11 0.618552 0.742514 0.425485
#
# Coordination Sequence:
#
# PCOD8294705 Si02
#       4
#    16  16  16  16
#     4  10  23  39  60  88 117 158 217 266 308 368
#     4  11  24  37  56  92 132 167 204 244 310 405
#     4  12  23  39  66  87 127 174 207 260 327 372
#     4  10  21  38  62  92 124 161 212 262 309 380
#
# _framework density 20.504612999999999
#
# number of rings (size 3 to 8) (size 9 to 14) (size 15 to 20)
#    0.000    1.250    0.000    6.000   10.500    4.000 
#    0.000    0.000    0.000    4.500    0.000    0.000 
#    0.000    0.000    0.000    0.000    0.000    0.000 
#
# Total GULP energy -396462.470540 kJ/mol
# GULP energy per Si atom -12389.452204 kJ/mol
# Density = 2.045794 g / cm^3
# Si number density = 20.504613 Si / 1000 Ang^3
#
#
#
# Elastic Constant Matrix: (Units=GPa)
#
#
# Indices 1 2 3 4 5 6 
#
# 1 189.5709 27.8547 46.6424 0.0000 0.0000 0.0000
# 2 27.8547 91.5252 61.2685 0.0000 0.0000 0.0000
# 3 46.6424 61.2685 85.7974 0.0000 0.0000 0.0000
# 4 0.0000 0.0000 0.0000 25.6788 0.0000 0.0000
# 5 0.0000 0.0000 0.0000 0.0000 110.3088 0.0000
# 6 0.0000 0.0000 0.0000 0.0000 0.0000 28.4417
#
#
#
# Elastic Compliance Matrix: (Units=1/GPa)
#
#
# Indices 1 2 3 4 5 6 
#
# 1 0.006113 0.000698 -0.003821 0.000000 0.000000 0.000000
# 2 0.000698 0.021012 -0.015384 0.000000 0.000000 0.000000
# 3 -0.003821 -0.015384 0.024719 0.000000 0.000000 0.000000
# 4 0.000000 0.000000 0.000000 0.038943 0.000000 0.000000
# 5 0.000000 0.000000 0.000000 0.000000 0.009065 0.000000
# 6 0.000000 0.000000 0.000000 0.000000 0.000000 0.035160
#
#
# Mechanical properties :
#
#
# Convention : Reuss Voigt Hill
#
# Bulk Modulus (GPa) = 67.44018 70.93606 69.18812
# Shear Modulus (GPa) = 28.25350 48.29439 38.27395
#
# Velocity S-wave (km/s) = 3.71605 4.85840 4.32511
# Velocity P-wave (km/s) = 7.16754 8.13280 7.66538
#
# Compressibility (1/GPa) = 0.01482796
#
# Stress axis : x y z
#
# Youngs Moduli (GPa) = 163.59207 47.59192 40.45529
#
# Poissons Ratio (x) = -0.03321 0.15459
# Poissons Ratio (y) = -0.11414 0.62237
# Poissons Ratio (z) = 0.62514 0.73216
#
# Static dielectric constant tensor:
#      x y z
#    x 5.187810 0.000000 0.000000 
#    y 0.000000 3.493130 0.000000 
#    z 0.000000 0.000000 3.504830 
# 
# 
# High freq. dielectric constant tensor:
#      x y z
#    x 1.845490 0.000000 0.000000 
#    y 0.000000 1.769060 0.000000 
#    z 0.000000 0.000000 1.778190 
# 
# From -- ./inp_files/40027.got.cif
#   From: 2010.03.12/outbox.cif.g09.slc.cpg/sg72_21_cif.got.tgz:40027.got - 2010.04.16 14:54:00.
