data_PCOD8294894
_publ_section_title
;
Structure prediction by ZEFSAII (Michael W. Deem and Ramdas Pophale) SiO2 
 PCOD8294894
Probable space group: I B A M
;
_chemical_formula_sum "Si O2"
_cell_formula_units_Z 96
_cell_length_a 13.617718
_cell_length_b 13.608254
_cell_length_c 27.641162
_cell_angle_alpha 90.000000
_cell_angle_beta 90.000000
_cell_angle_gamma 90.000000
_cell_volume 5122.276755
_symmetry_space_group_name_H-M "I B A M"
_symmetry_group_IT_number 72
_symmetry_cell_setting 'orthorhombic'
loop_
_space_group_symop_operation_xyz
x,y,z
-x,-y,z
x,-y,1/2-z
-x,y,1/2-z
-x,-y,-z
x,y,-z
-x,y,1/2+z
x,-y,1/2+z
1/2+x,1/2+y,1/2+z
1/2-x,1/2-y,1/2+z
1/2+x,1/2-y,-z
1/2-x,1/2+y,-z
1/2-x,1/2-y,1/2-z
1/2+x,1/2+y,1/2-z
1/2-x,1/2+y,z
1/2+x,1/2-y,z
loop_
_atom_site_type_symbol
_atom_site_label
_atom_site_fract_x
_atom_site_fract_y
_atom_site_fract_z
Si Si1 0.913597 0.749490 0.895554
Si Si2 0.989703 0.838320 0.196761
Si Si3 0.769317 0.888366 0.054543
Si Si4 0.161424 0.987823 0.803205
Si Si5 0.889286 0.229451 0.054588
Si Si6 0.749582 0.914672 0.604256
O O1 0.967329 0.755730 0.843259
O O2 0.849959 0.846502 0.907900
O O3 0.847431 0.652072 0.897714
O O4 0.998142 0.744146 0.935457
O O5 0.000000 0.789143 0.250000
O O6 0.091955 0.893778 0.190112
O O7 0.900556 0.913797 0.190586
O O8 0.668916 0.830008 0.061118
O O9 0.743049 0.001204 0.064118
O O10 0.810351 0.877275 0.000000
O O11 0.244149 0.969940 0.843737
O O12 0.210712 0.000000 0.750000
O O13 0.846902 0.148482 0.091851
O O14 0.878961 0.188558 0.000000
#
# Coordination Sequence:
#
# PCOD8294894 Si02
#       6
#    16  16  16  16  16  16
#     4  11  21  36  58  84 114 151 190 236 289 339
#     4   9  17  33  57  82 109 138 182 232 280 334
#     4  10  22  38  56  82 114 150 194 237 282 341
#     4   9  17  33  57  82 109 138 182 232 280 334
#     4  10  22  38  56  82 114 150 194 237 282 341
#     4  11  21  36  58  84 114 151 190 236 289 339
#
# _framework density 18.741665999999999
#
# number of rings (size 3 to 8) (size 9 to 14) (size 15 to 20)
#    0.000    2.000    3.333    2.000    0.000    3.333 
#    0.000    8.333    0.000    0.000    0.000    0.000 
#    0.000    0.000    0.000    0.000    0.000    0.000 
#
# Total GULP energy -594901.987991 kJ/mol
# GULP energy per Si atom -12393.791416 kJ/mol
# Density = 1.869901 g / cm^3
# Si number density = 18.741666 Si / 1000 Ang^3
#
#
#
# Elastic Constant Matrix: (Units=GPa)
#
#
# Indices 1 2 3 4 5 6 
#
# 1 82.9572 34.7141 41.8900 0.0000 0.0000 0.0000
# 2 34.7141 75.9857 41.2918 0.0000 0.0000 0.0000
# 3 41.8900 41.2918 110.5040 0.0000 0.0000 0.0000
# 4 0.0000 0.0000 0.0000 29.8740 0.0000 0.0000
# 5 0.0000 0.0000 0.0000 0.0000 29.6456 0.0000
# 6 0.0000 0.0000 0.0000 0.0000 0.0000 18.8626
#
#
#
# Elastic Compliance Matrix: (Units=1/GPa)
#
#
# Indices 1 2 3 4 5 6 
#
# 1 0.016373 -0.005154 -0.004281 0.000000 0.000000 0.000000
# 2 -0.005154 0.018136 -0.004823 0.000000 0.000000 0.000000
# 3 -0.004281 -0.004823 0.012474 0.000000 0.000000 0.000000
# 4 0.000000 0.000000 0.000000 0.033474 0.000000 0.000000
# 5 0.000000 0.000000 0.000000 0.000000 0.033732 0.000000
# 6 0.000000 0.000000 0.000000 0.000000 0.000000 0.053015
#
#
# Mechanical properties :
#
#
# Convention : Reuss Voigt Hill
#
# Bulk Modulus (GPa) = 54.14833 56.13762 55.14297
# Shear Modulus (GPa) = 24.76787 25.77985 25.27386
#
# Velocity S-wave (km/s) = 3.63924 3.71285 3.67623
# Velocity P-wave (km/s) = 6.82741 6.95692 6.89247
#
# Compressibility (1/GPa) = 0.01846779
#
# Stress axis : x y z
#
# Youngs Moduli (GPa) = 61.07770 55.13973 80.16374
#
# Poissons Ratio (x) = 0.28417 0.34317
# Poissons Ratio (y) = 0.31477 0.38664
# Poissons Ratio (z) = 0.26146 0.26595
#
# Static dielectric constant tensor:
#      x y z
#    x 3.187260 0.000000 0.000000 
#    y 0.000000 3.178620 0.000000 
#    z 0.000000 0.000000 3.647100 
# 
# 
# High freq. dielectric constant tensor:
#      x y z
#    x 1.705810 0.000000 0.000000 
#    y 0.000000 1.705590 0.000000 
#    z 0.000000 0.000000 1.745420 
# 
# From -- ./inp_files/51833.got.cif
#   From: 2010.03.12/outbox.cif.g09.slc.cpg/sg72_26_cif.got.tgz:51833.got - 2010.04.16 14:54:00.
