data_PCOD8294993
_publ_section_title
;
Structure prediction by ZEFSAII (Michael W. Deem and Ramdas Pophale) SiO2 
 PCOD8294993
Probable space group: I B A M
;
_chemical_formula_sum "Si O2"
_cell_formula_units_Z 96
_cell_length_a 9.350947
_cell_length_b 24.398024
_cell_length_c 20.463932
_cell_angle_alpha 90.000000
_cell_angle_beta 90.000000
_cell_angle_gamma 90.000000
_cell_volume 4668.736181
_symmetry_space_group_name_H-M "I B A M"
_symmetry_group_IT_number 72
_symmetry_cell_setting 'orthorhombic'
loop_
_space_group_symop_operation_xyz
x,y,z
-x,-y,z
x,-y,1/2-z
-x,y,1/2-z
-x,-y,-z
x,y,-z
-x,y,1/2+z
x,-y,1/2+z
1/2+x,1/2+y,1/2+z
1/2-x,1/2-y,1/2+z
1/2+x,1/2-y,-z
1/2-x,1/2+y,-z
1/2-x,1/2-y,1/2-z
1/2+x,1/2+y,1/2-z
1/2-x,1/2+y,z
1/2+x,1/2-y,z
loop_
_atom_site_type_symbol
_atom_site_label
_atom_site_fract_x
_atom_site_fract_y
_atom_site_fract_z
Si Si1 0.519452 0.559603 0.073635
Si Si2 0.224910 0.871147 0.625127
Si Si3 0.757813 0.867167 0.356315
Si Si4 0.334319 0.060185 0.239795
Si Si5 0.999244 0.213219 0.324952
Si Si6 0.001130 0.687198 0.576263
O O1 0.500000 0.500000 0.106987
O O2 0.377382 0.596788 0.075316
O O3 0.649993 0.587605 0.108577
O O4 0.567677 0.550996 0.000000
O O5 0.300103 0.917819 0.668049
O O6 0.129245 0.830367 0.669167
O O7 0.343558 0.837793 0.585049
O O8 0.717943 0.892479 0.287395
O O9 0.621330 0.856140 0.402230
O O10 0.847172 0.812156 0.342826
O O11 0.500000 0.052516 0.250000
O O12 0.261562 0.000000 0.250000
O O13 0.000000 0.235385 0.250000
O O14 0.974598 0.261256 0.376630
O O15 0.021218 0.703705 0.500000
#
# Coordination Sequence:
#
# PCOD8294993 Si02
#       6
#    16  16  16  16  16  16
#     4  10  22  41  64  91 127 170 212 263 324 385
#     4  11  23  42  66  94 129 167 216 265 323 377
#     4  11  23  42  66  94 129 167 216 265 323 377
#     4  11  22  39  66 100 129 162 211 269 327 380
#     4  11  25  41  67  96 128 170 218 266 320 379
#     4  12  27  43  64  94 133 175 219 266 317 382
#
# _framework density 20.56231
#
# number of rings (size 3 to 8) (size 9 to 14) (size 15 to 20)
#    0.000    1.000    3.333    3.000    2.333    6.667 
#    0.000    2.500    0.000    4.000    0.000    0.000 
#    0.000    0.000    0.000    0.000    0.000    0.000 
#
# Total GULP energy -595224.265780 kJ/mol
# GULP energy per Si atom -12400.505537 kJ/mol
# Density = 2.051551 g / cm^3
# Si number density = 20.562310 Si / 1000 Ang^3
#
#
#
# Elastic Constant Matrix: (Units=GPa)
#
#
# Indices 1 2 3 4 5 6 
#
# 1 94.6777 21.6839 14.5748 0.0000 0.0000 0.0000
# 2 21.6839 103.0679 32.4632 0.0000 0.0000 0.0000
# 3 14.5748 32.4632 110.6016 -0.0001 0.0000 0.0000
# 4 0.0000 0.0000 -0.0001 35.0523 0.0000 0.0000
# 5 0.0000 0.0000 0.0000 0.0000 26.3506 0.0000
# 6 0.0000 0.0000 0.0000 0.0000 0.0000 17.6902
#
#
#
# Elastic Compliance Matrix: (Units=1/GPa)
#
#
# Indices 1 2 3 4 5 6 
#
# 1 0.011171 -0.002079 -0.000862 0.000000 0.000000 0.000000
# 2 -0.002079 0.011077 -0.002977 0.000000 0.000000 0.000000
# 3 -0.000862 -0.002977 0.010029 0.000000 0.000000 0.000000
# 4 0.000000 0.000000 0.000000 0.028529 0.000000 0.000000
# 5 0.000000 0.000000 0.000000 0.000000 0.037950 0.000000
# 6 0.000000 0.000000 0.000000 0.000000 0.000000 0.056528
#
#
# Mechanical properties :
#
#
# Convention : Reuss Voigt Hill
#
# Bulk Modulus (GPa) = 48.92100 49.53235 49.22667
# Shear Modulus (GPa) = 28.74648 31.79365 30.27006
#
# Velocity S-wave (km/s) = 3.74306 3.93645 3.84098
# Velocity P-wave (km/s) = 6.52104 6.69344 6.60780
#
# Compressibility (1/GPa) = 0.02044112
#
# Stress axis : x y z
#
# Youngs Moduli (GPa) = 89.51816 90.27315 99.71105
#
# Poissons Ratio (x) = 0.18765 0.08594
# Poissons Ratio (y) = 0.18608 0.29689
# Poissons Ratio (z) = 0.07716 0.26879
#
# Static dielectric constant tensor:
#      x y z
#    x 3.814320 0.000000 0.000000 
#    y 0.000000 3.902060 0.000000 
#    z 0.000000 0.000000 3.539130 
# 
# 
# High freq. dielectric constant tensor:
#      x y z
#    x 1.814470 0.000000 0.000000 
#    y 0.000000 1.814370 0.000000 
#    z 0.000000 0.000000 1.802800 
# 
# From -- ./inp_files/42404.got.cif
#   From: 2010.03.12/outbox.cif.g09.slc.cpg/sg72_22_cif.got.tgz:42404.got - 2010.04.16 14:54:00.
