data_PCOD8294608
_publ_section_title
;
Structure prediction by ZEFSAII (Michael W. Deem and Ramdas Pophale) SiO2 
 PCOD8294608
Probable space group: I B A M
;
_chemical_formula_sum "Si O2"
_cell_formula_units_Z 112
_cell_length_a 12.373802
_cell_length_b 30.832463
_cell_length_c 14.314993
_cell_angle_alpha 90.000000
_cell_angle_beta 90.000000
_cell_angle_gamma 90.000000
_cell_volume 5461.381582
_symmetry_space_group_name_H-M "I B A M"
_symmetry_group_IT_number 72
_symmetry_cell_setting 'orthorhombic'
loop_
_space_group_symop_operation_xyz
x,y,z
-x,-y,z
x,-y,1/2-z
-x,y,1/2-z
-x,-y,-z
x,y,-z
-x,y,1/2+z
x,-y,1/2+z
1/2+x,1/2+y,1/2+z
1/2-x,1/2-y,1/2+z
1/2+x,1/2-y,-z
1/2-x,1/2+y,-z
1/2-x,1/2-y,1/2-z
1/2+x,1/2+y,1/2-z
1/2-x,1/2+y,z
1/2+x,1/2-y,z
loop_
_atom_site_type_symbol
_atom_site_label
_atom_site_fract_x
_atom_site_fract_y
_atom_site_fract_z
Si Si1 0.217337 0.917736 0.391232
Si Si2 0.382359 0.508794 0.391813
Si Si3 0.871109 0.625958 0.257705
Si Si4 0.146325 0.724077 0.226630
Si Si5 0.022235 0.141066 0.890999
Si Si6 0.981330 0.759514 0.107402
Si Si7 0.700009 0.399550 0.388714
O O1 0.235578 0.907697 0.500000
O O2 0.326694 0.906698 0.336333
O O3 0.117319 0.889219 0.349883
O O4 0.194710 0.968197 0.373599
O O5 0.500000 0.500000 0.345322
O O6 0.402833 0.518159 0.500000
O O7 0.323874 0.551583 0.351919
O O8 0.839259 0.673609 0.294614
O O9 0.810189 0.617063 0.159515
O O10 0.000000 0.619508 0.250000
O O11 0.250000 0.750000 0.250000
O O12 0.105261 0.748886 0.132710
O O13 0.076128 0.726786 0.321440
O O14 0.047922 0.190970 0.867343
O O15 0.903194 0.128736 0.853182
O O16 0.018479 0.132219 0.000000
O O17 0.954657 0.748755 0.000000
O O18 0.717969 0.396330 0.500000
#
# Coordination Sequence:
#
# PCOD8294608 Si02
#       7
#    16  16  16  16  16  16  16
#     4  10  21  38  64  93 126 160 195 250 312 370
#     4   9  16  35  65  98 131 153 186 250 320 377
#     4  12  26  43  56  85 121 168 223 247 292 365
#     4  11  23  42  62  83 117 160 208 264 316 354
#     4   9  17  34  61  98 126 148 190 250 319 378
#     4  10  21  37  59  89 119 151 200 254 309 366
#     4  10  21  38  64  93 126 160 195 250 312 370
#
# _framework density 20.507631
#
# number of rings (size 3 to 8) (size 9 to 14) (size 15 to 20)
#    0.000    1.857    2.857    1.714    0.000    4.571 
#    0.000    2.143    0.000    2.571    0.000    0.000 
#    0.000    0.000    0.000    0.000    0.000    0.000 
#
# Total GULP energy -694082.472456 kJ/mol
# GULP energy per Si atom -12394.329865 kJ/mol
# Density = 2.046096 g / cm^3
# Si number density = 20.507631 Si / 1000 Ang^3
#
#
#
# Elastic Constant Matrix: (Units=GPa)
#
#
# Indices 1 2 3 4 5 6 
#
# 1 111.6142 18.9442 12.5058 0.0000 -0.0012 0.0000
# 2 18.9442 88.8156 8.7763 0.0003 -0.0002 0.0000
# 3 12.5058 8.7763 68.3254 -0.0026 0.0069 0.0004
# 4 0.0000 0.0003 -0.0026 20.8794 0.0019 0.0001
# 5 -0.0012 -0.0002 0.0069 0.0019 17.6793 -0.0001
# 6 0.0000 0.0000 0.0004 0.0001 -0.0001 31.9733
#
#
#
# Elastic Compliance Matrix: (Units=1/GPa)
#
#
# Indices 1 2 3 4 5 6 
#
# 1 0.009443 -0.001867 -0.001489 0.000000 0.000001 0.000000
# 2 -0.001867 0.011773 -0.001171 0.000000 0.000000 0.000000
# 3 -0.001489 -0.001171 0.015059 0.000002 -0.000006 0.000000
# 4 0.000000 0.000000 0.000002 0.047894 -0.000005 0.000000
# 5 0.000001 0.000000 -0.000006 -0.000005 0.056563 0.000000
# 6 0.000000 0.000000 0.000000 0.000000 0.000000 0.031276
#
#
# Mechanical properties :
#
#
# Convention : Reuss Voigt Hill
#
# Bulk Modulus (GPa) = 36.73418 38.80086 37.76752
# Shear Modulus (GPa) = 26.29710 29.34167 27.81938
#
# Velocity S-wave (km/s) = 3.58482 3.78665 3.68712
# Velocity P-wave (km/s) = 5.92333 6.17087 6.04837
#
# Compressibility (1/GPa) = 0.02722260
#
# Stress axis : x y z
#
# Youngs Moduli (GPa) = 105.89716 84.93870 66.40701
#
# Poissons Ratio (x) = 0.15859 0.09885
# Poissons Ratio (y) = 0.19772 0.07773
# Poissons Ratio (z) = 0.15764 0.09942
#
# Static dielectric constant tensor:
#      x y z
#    x 3.762430 0.000000 0.000000 
#    y 0.000000 3.709610 0.000000 
#    z 0.000000 0.000000 3.599800 
# 
# 
# High freq. dielectric constant tensor:
#      x y z
#    x 1.785340 0.000000 0.000000 
#    y 0.000000 1.810000 0.000000 
#    z 0.000000 0.000000 1.800540 
# 
# From -- ./inp_files/20692.got.cif
#   From: 2010.03.12/outbox.cif.g09.slc.cpg/sg72_11_cif.got.tgz:20692.got - 2010.04.16 14:54:00.
