data_PCOD8294610
_publ_section_title
;
Structure prediction by ZEFSAII (Michael W. Deem and Ramdas Pophale) SiO2 
 PCOD8294610
Probable space group: I B A M
;
_chemical_formula_sum "Si O2"
_cell_formula_units_Z 72
_cell_length_a 9.041376
_cell_length_b 19.947502
_cell_length_c 18.779930
_cell_angle_alpha 90.000000
_cell_angle_beta 90.000000
_cell_angle_gamma 90.000000
_cell_volume 3387.014196
_symmetry_space_group_name_H-M "I B A M"
_symmetry_group_IT_number 72
_symmetry_cell_setting 'orthorhombic'
loop_
_space_group_symop_operation_xyz
x,y,z
-x,-y,z
x,-y,1/2-z
-x,y,1/2-z
-x,-y,-z
x,y,-z
-x,y,1/2+z
x,-y,1/2+z
1/2+x,1/2+y,1/2+z
1/2-x,1/2-y,1/2+z
1/2+x,1/2-y,-z
1/2-x,1/2+y,-z
1/2-x,1/2-y,1/2-z
1/2+x,1/2+y,1/2-z
1/2-x,1/2+y,z
1/2+x,1/2-y,z
loop_
_atom_site_type_symbol
_atom_site_label
_atom_site_fract_x
_atom_site_fract_y
_atom_site_fract_z
Si Si1 0.500000 0.000000 0.129774
Si Si2 0.338978 0.188047 0.280889
Si Si3 0.311549 0.877112 0.920546
Si Si4 0.482227 0.421928 0.422194
Si Si5 0.727957 0.562035 0.294091
O O1 0.591919 0.054409 0.084336
O O2 0.388070 0.040719 0.178757
O O3 0.500000 0.192023 0.250000
O O4 0.250000 0.250000 0.250000
O O5 0.357339 0.182966 0.366748
O O6 0.250949 0.120851 0.261839
O O7 0.140415 0.891233 0.904312
O O8 0.333846 0.848908 0.000000
O O9 0.500000 0.500000 0.428549
O O10 0.424188 0.395339 0.500000
O O11 0.368923 0.407142 0.358288
O O12 0.653265 0.500000 0.250000
#
# Coordination Sequence:
#
# PCOD8294610 Si02
#       5
#     8  16  16  16  16
#     4  12  20  40  68 100 132 172 218 290 336 390
#     4  12  27  47  68  97 135 177 226 274 333 409
#     4  11  24  43  68  98 135 175 222 279 341 402
#     4  10  21  37  59  98 137 167 209 267 336 398
#     4  12  22  41  68  97 133 169 227 278 330 395
#
# _framework density 21.257662
#
# number of rings (size 3 to 8) (size 9 to 14) (size 15 to 20)
#    0.000    0.667    6.667    0.667    3.111    3.111 
#    0.000    2.222    0.000    0.000    0.000    0.000 
#    0.000    0.000    0.000    0.000    0.000    0.000 
#
# Total GULP energy -446214.902801 kJ/mol
# GULP energy per Si atom -12394.858411 kJ/mol
# Density = 2.120928 g / cm^3
# Si number density = 21.257662 Si / 1000 Ang^3
#
#
#
# Elastic Constant Matrix: (Units=GPa)
#
#
# Indices 1 2 3 4 5 6 
#
# 1 96.8074 23.5159 74.2737 0.0000 0.0000 0.0000
# 2 23.5159 97.9433 50.8015 0.0000 0.0000 0.0000
# 3 74.2737 50.8015 181.8218 0.0000 0.0000 0.0000
# 4 0.0000 0.0000 0.0000 15.4752 0.0000 0.0000
# 5 0.0000 0.0000 0.0000 0.0000 35.3726 0.0000
# 6 0.0000 0.0000 0.0000 0.0000 0.0000 12.4737
#
#
#
# Elastic Compliance Matrix: (Units=1/GPa)
#
#
# Indices 1 2 3 4 5 6 
#
# 1 0.015066 -0.000497 -0.006015 0.000000 0.000000 0.000000
# 2 -0.000497 0.011957 -0.003138 0.000000 0.000000 0.000000
# 3 -0.006015 -0.003138 0.008834 0.000000 0.000000 0.000000
# 4 0.000000 0.000000 0.000000 0.064619 0.000000 0.000000
# 5 0.000000 0.000000 0.000000 0.000000 0.028270 0.000000
# 6 0.000000 0.000000 0.000000 0.000000 0.000000 0.080169
#
#
# Mechanical properties :
#
#
# Convention : Reuss Voigt Hill
#
# Bulk Modulus (GPa) = 60.40132 74.86164 67.63148
# Shear Modulus (GPa) = 21.39180 27.86306 24.62743
#
# Velocity S-wave (km/s) = 3.17568 3.62433 3.40740
# Velocity P-wave (km/s) = 6.47473 7.26685 6.88220
#
# Compressibility (1/GPa) = 0.01655593
#
# Stress axis : x y z
#
# Youngs Moduli (GPa) = 66.37563 83.63429 113.20098
#
# Poissons Ratio (x) = 0.04158 0.68095
# Poissons Ratio (y) = 0.03300 0.35519
# Poissons Ratio (z) = 0.39928 0.26242
#
# Static dielectric constant tensor:
#      x y z
#    x 3.654500 0.000000 0.000000 
#    y 0.000000 3.578140 0.000000 
#    z 0.000000 0.000000 4.098790 
# 
# 
# High freq. dielectric constant tensor:
#      x y z
#    x 1.841490 0.000000 0.000000 
#    y 0.000000 1.791960 0.000000 
#    z 0.000000 0.000000 1.857720 
# 
# From -- ./inp_files/35637.got.cif
#   From: 2010.03.12/outbox.cif.g09.slc.cpg/sg72_18_cif.got.tgz:35637.got - 2010.04.16 14:54:00.
