data_PCOD8294133
_publ_section_title
;
Structure prediction by ZEFSAII (Michael W. Deem and Ramdas Pophale) SiO2 
 PCOD8294133
Probable space group: I B A M
;
_chemical_formula_sum "Si O2"
_cell_formula_units_Z 80
_cell_length_a 26.914041
_cell_length_b 18.563711
_cell_length_c 8.642899
_cell_angle_alpha 90.000000
_cell_angle_beta 90.000000
_cell_angle_gamma 90.000000
_cell_volume 4318.203910
_symmetry_space_group_name_H-M "I B A M"
_symmetry_group_IT_number 72
_symmetry_cell_setting 'orthorhombic'
loop_
_space_group_symop_operation_xyz
x,y,z
-x,-y,z
x,-y,1/2-z
-x,y,1/2-z
-x,-y,-z
x,y,-z
-x,y,1/2+z
x,-y,1/2+z
1/2+x,1/2+y,1/2+z
1/2-x,1/2-y,1/2+z
1/2+x,1/2-y,-z
1/2-x,1/2+y,-z
1/2-x,1/2-y,1/2-z
1/2+x,1/2+y,1/2-z
1/2-x,1/2+y,z
1/2+x,1/2-y,z
loop_
_atom_site_type_symbol
_atom_site_label
_atom_site_fract_x
_atom_site_fract_y
_atom_site_fract_z
Si Si1 0.798088 0.215806 0.323591
Si Si2 0.946404 0.424312 0.182983
Si Si3 0.552873 0.648400 0.183872
Si Si4 0.852359 0.924026 0.184767
Si Si5 0.098903 0.711696 0.320482
O O1 0.784779 0.204723 0.500000
O O2 0.750000 0.250000 0.250000
O O3 0.813657 0.137316 0.256256
O O4 0.843496 0.270100 0.298944
O O5 0.927352 0.500000 0.250000
O O6 0.907762 0.363990 0.235437
O O7 0.000000 0.403960 0.250000
O O8 0.949662 0.429461 0.000000
O O9 0.500000 0.623364 0.250000
O O10 0.593333 0.592393 0.247611
O O11 0.564141 0.728938 0.241470
O O12 0.552457 0.646438 0.000000
O O13 0.833095 0.000000 0.250000
O O14 0.856030 0.924249 0.000000
O O15 0.083873 0.706845 0.500000
#
# Coordination Sequence:
#
# PCOD8294133 Si02
#       5
#    16  16  16  16  16
#     4   9  20  37  59  82 107 136 174 220 267 316
#     4  11  21  34  52  76 106 143 180 220 267 320
#     4  11  21  34  53  79 109 145 182 220 261 311
#     4  10  21  38  57  82 111 142 177 219 265 316
#     4  10  20  36  54  77 107 140 178 223 267 317
#
# _framework density 18.526221
#
# number of rings (size 3 to 8) (size 9 to 14) (size 15 to 20)
#    0.000    1.800    0.000    7.200    0.000    5.200 
#    0.000    3.000    0.000    2.400    0.000    0.000 
#    0.000    0.000    0.000    0.000    0.000    0.000 
#
# Total GULP energy -496078.187186 kJ/mol
# GULP energy per Si atom -12401.954680 kJ/mol
# Density = 1.848405 g / cm^3
# Si number density = 18.526221 Si / 1000 Ang^3
#
#
#
# Elastic Constant Matrix: (Units=GPa)
#
#
# Indices 1 2 3 4 5 6 
#
# 1 98.5005 52.0486 45.6450 0.0000 0.0000 0.0000
# 2 52.0486 138.5514 53.0864 0.0000 0.0000 0.0000
# 3 45.6450 53.0864 140.2165 0.0000 0.0000 0.0000
# 4 0.0000 0.0000 0.0000 36.0633 0.0000 0.0000
# 5 0.0000 0.0000 0.0000 0.0000 31.3035 0.0000
# 6 0.0000 0.0000 0.0000 0.0000 0.0000 16.8334
#
#
#
# Elastic Compliance Matrix: (Units=1/GPa)
#
#
# Indices 1 2 3 4 5 6 
#
# 1 0.013617 -0.003997 -0.002920 0.000000 0.000000 0.000000
# 2 -0.003997 0.009615 -0.002339 0.000000 0.000000 0.000000
# 3 -0.002920 -0.002339 0.008968 0.000000 0.000000 0.000000
# 4 0.000000 0.000000 0.000000 0.027729 0.000000 0.000000
# 5 0.000000 0.000000 0.000000 0.000000 0.031945 0.000000
# 6 0.000000 0.000000 0.000000 0.000000 0.000000 0.059406
#
#
# Mechanical properties :
#
#
# Convention : Reuss Voigt Hill
#
# Bulk Modulus (GPa) = 73.05172 75.42540 74.23856
# Shear Modulus (GPa) = 28.67715 31.93927 30.30821
#
# Velocity S-wave (km/s) = 3.93863 4.15662 4.04909
# Velocity P-wave (km/s) = 7.75892 7.98985 7.87524
#
# Compressibility (1/GPa) = 0.01368893
#
# Stress axis : x y z
#
# Youngs Moduli (GPa) = 73.43699 104.00105 111.50846
#
# Poissons Ratio (x) = 0.41567 0.32556
# Poissons Ratio (y) = 0.29351 0.26085
# Poissons Ratio (z) = 0.21441 0.24329
#
# Static dielectric constant tensor:
#      x y z
#    x 3.205970 0.000000 0.000000 
#    y 0.000000 3.382980 0.000000 
#    z 0.000000 0.000000 3.523480 
# 
# 
# High freq. dielectric constant tensor:
#      x y z
#    x 1.701460 0.000000 0.000000 
#    y 0.000000 1.725780 0.000000 
#    z 0.000000 0.000000 1.734270 
# 
# From -- ./inp_files/4740.got.cif
#   From: 2010.03.12/outbox.cif.g09.slc.cpg/sg72_3_cif.got.tgz:4740.got - 2010.04.16 14:54:00.
