data_PCOD8294081
_publ_section_title
;
Structure prediction by ZEFSAII (Michael W. Deem and Ramdas Pophale) SiO2 
 PCOD8294081
Probable space group: I B A M
;
_chemical_formula_sum "Si O2"
_cell_formula_units_Z 88
_cell_length_a 18.146290
_cell_length_b 24.909987
_cell_length_c 9.114511
_cell_angle_alpha 90.000000
_cell_angle_beta 90.000000
_cell_angle_gamma 90.000000
_cell_volume 4119.976335
_symmetry_space_group_name_H-M "I B A M"
_symmetry_group_IT_number 72
_symmetry_cell_setting 'orthorhombic'
loop_
_space_group_symop_operation_xyz
x,y,z
-x,-y,z
x,-y,1/2-z
-x,y,1/2-z
-x,-y,-z
x,y,-z
-x,y,1/2+z
x,-y,1/2+z
1/2+x,1/2+y,1/2+z
1/2-x,1/2-y,1/2+z
1/2+x,1/2-y,-z
1/2-x,1/2+y,-z
1/2-x,1/2-y,1/2-z
1/2+x,1/2+y,1/2-z
1/2-x,1/2+y,z
1/2+x,1/2-y,z
loop_
_atom_site_type_symbol
_atom_site_label
_atom_site_fract_x
_atom_site_fract_y
_atom_site_fract_z
Si Si1 0.282186 0.099537 0.667364
Si Si2 0.931977 0.926772 0.158140
Si Si3 0.834392 0.169359 0.324565
Si Si4 0.425421 0.879819 0.330167
Si Si5 0.074957 0.253657 0.329995
Si Si6 0.810164 0.000000 0.250000
O O1 0.294854 0.118190 0.500000
O O2 0.240679 0.146834 0.755080
O O3 0.359281 0.089477 0.749238
O O4 0.239293 0.042972 0.664186
O O5 0.900216 0.871071 0.221215
O O6 0.000000 0.949431 0.250000
O O7 0.864776 0.968707 0.140216
O O8 0.966116 0.916108 0.000000
O O9 0.824305 0.174568 0.500000
O O10 0.855525 0.225936 0.250803
O O11 0.500000 0.897789 0.250000
O O12 0.428872 0.897176 0.500000
O O13 0.412407 0.816610 0.313336
O O14 0.070908 0.236234 0.500000
O O15 0.000000 0.235691 0.250000
#
# Coordination Sequence:
#
# PCOD8294081 Si02
#       6
#    16  16  16  16  16   8
#     4  11  23  40  63  87 114 150 192 240 293 348
#     4  10  21  35  53  80 114 152 193 234 275 323
#     4  10  21  36  55  83 121 160 197 239 283 332
#     4  10  22  41  64  89 117 148 186 235 291 352
#     4  10  20  35  57  85 118 157 197 237 284 339
#     4  10  23  40  59  82 112 148 192 238 289 342
#
# _framework density 21.359347
#
# number of rings (size 3 to 8) (size 9 to 14) (size 15 to 20)
#    0.000    1.818    0.000    3.545    0.000   11.636 
#    0.000    0.455    0.000    2.182    0.000    0.000 
#    0.000    0.000    0.000    0.000    0.000    0.000 
#
# Total GULP energy -545569.448846 kJ/mol
# GULP energy per Si atom -12399.305656 kJ/mol
# Density = 2.131073 g / cm^3
# Si number density = 21.359347 Si / 1000 Ang^3
#
#
#
# Elastic Constant Matrix: (Units=GPa)
#
#
# Indices 1 2 3 4 5 6 
#
# 1 141.4594 23.3882 66.5095 0.0000 0.0000 0.0000
# 2 23.3882 32.2786 17.4247 0.0000 0.0000 0.0000
# 3 66.5095 17.4247 152.4282 0.0000 0.0000 0.0000
# 4 0.0000 0.0000 0.0000 17.7516 0.0000 0.0000
# 5 0.0000 0.0000 0.0000 0.0000 38.1643 0.0000
# 6 0.0000 0.0000 0.0000 0.0000 0.0000 22.0225
#
#
#
# Elastic Compliance Matrix: (Units=1/GPa)
#
#
# Indices 1 2 3 4 5 6 
#
# 1 0.009596 -0.005001 -0.003615 0.000000 0.000000 0.000000
# 2 -0.005001 0.035624 -0.001890 0.000000 0.000000 0.000000
# 3 -0.003615 -0.001890 0.008354 0.000000 0.000000 0.000000
# 4 0.000000 0.000000 0.000000 0.056333 0.000000 0.000000
# 5 0.000000 0.000000 0.000000 0.000000 0.026203 0.000000
# 6 0.000000 0.000000 0.000000 0.000000 0.000000 0.045408
#
#
# Mechanical properties :
#
#
# Convention : Reuss Voigt Hill
#
# Bulk Modulus (GPa) = 30.71173 60.09010 45.40091
# Shear Modulus (GPa) = 23.43185 30.17726 26.80455
#
# Velocity S-wave (km/s) = 3.31574 3.76285 3.54635
# Velocity P-wave (km/s) = 5.39153 6.86096 6.17014
#
# Compressibility (1/GPa) = 0.03256085
#
# Stress axis : x y z
#
# Youngs Moduli (GPa) = 104.21189 28.07064 119.70316
#
# Poissons Ratio (x) = 0.14039 0.43276
# Poissons Ratio (y) = 0.52119 0.22626
# Poissons Ratio (z) = 0.37675 0.05306
#
# Static dielectric constant tensor:
#      x y z
#    x 3.808820 0.000000 0.000000 
#    y 0.000000 3.664880 0.000000 
#    z 0.000000 0.000000 3.801220 
# 
# 
# High freq. dielectric constant tensor:
#      x y z
#    x 1.837920 0.000000 0.000000 
#    y 0.000000 1.823610 0.000000 
#    z 0.000000 0.000000 1.844230 
# 
# From -- ./inp_files/5135.got.cif
#   From: 2010.03.12/outbox.cif.g09.slc.cpg/sg72_3_cif.got.tgz:5135.got - 2010.04.16 14:54:00.
