data_PCOD8294140
_publ_section_title
;
Structure prediction by ZEFSAII (Michael W. Deem and Ramdas Pophale) SiO2 
 PCOD8294140
Probable space group: I B A M
;
_chemical_formula_sum "Si O2"
_cell_formula_units_Z 116
_cell_length_a 31.006547
_cell_length_b 21.891574
_cell_length_c 8.924338
_cell_angle_alpha 90.000000
_cell_angle_beta 90.000000
_cell_angle_gamma 90.000000
_cell_volume 6057.681051
_symmetry_space_group_name_H-M "I B A M"
_symmetry_group_IT_number 72
_symmetry_cell_setting 'orthorhombic'
loop_
_space_group_symop_operation_xyz
x,y,z
-x,-y,z
x,-y,1/2-z
-x,y,1/2-z
-x,-y,-z
x,y,-z
-x,y,1/2+z
x,-y,1/2+z
1/2+x,1/2+y,1/2+z
1/2-x,1/2-y,1/2+z
1/2+x,1/2-y,-z
1/2-x,1/2+y,-z
1/2-x,1/2-y,1/2-z
1/2+x,1/2+y,1/2-z
1/2-x,1/2+y,z
1/2+x,1/2-y,z
loop_
_atom_site_type_symbol
_atom_site_label
_atom_site_fract_x
_atom_site_fract_y
_atom_site_fract_z
Si Si1 0.104748 0.176666 0.675116
Si Si2 0.341636 0.938871 0.823277
Si Si3 0.500000 0.000000 0.750000
Si Si4 0.566716 0.902962 0.333620
Si Si5 0.221326 0.669159 0.326486
Si Si6 0.544872 0.563124 0.176152
Si Si7 0.543600 0.228740 0.177985
Si Si8 0.192672 0.804343 0.673957
O O1 0.103030 0.192652 0.500000
O O2 0.080586 0.113707 0.710744
O O3 0.083878 0.231639 0.768590
O O4 0.153624 0.168817 0.729260
O O5 0.389567 0.926458 0.754157
O O6 0.310961 0.883704 0.776109
O O7 0.322800 0.000000 0.750000
O O8 0.343340 0.948254 0.000000
O O9 0.469429 0.044301 0.654045
O O10 0.580439 0.883703 0.500000
O O11 0.549467 0.840595 0.258342
O O12 0.234639 0.664328 0.500000
O O13 0.196872 0.732350 0.294187
O O14 0.263913 0.662016 0.226641
O O15 0.560851 0.500000 0.250000
O O16 0.500000 0.584418 0.250000
O O17 0.537741 0.553499 0.000000
O O18 0.500000 0.255729 0.250000
O O19 0.539430 0.231999 0.000000
O O20 0.184660 0.818325 0.500000
#
# Coordination Sequence:
#
# PCOD8294140 Si02
#       8
#    16  16   4  16  16  16  16  16
#     4  11  23  38  57  86 118 149 184 228 281 336
#     4  10  20  36  55  78 108 145 185 230 279 328
#     4  12  18  36  56  74 112 156 200 244 286 328
#     4  10  21  35  53  77 111 152 196 241 287 332
#     4   9  19  37  59  81 111 144 178 226 283 337
#     4  10  21  37  59  84 113 148 187 225 268 326
#     4  11  22  37  55  80 113 152 195 240 287 334
#     4  10  20  36  61  87 110 141 180 226 279 336
#
# _framework density 19.149241
#
# number of rings (size 3 to 8) (size 9 to 14) (size 15 to 20)
#    0.000    1.793    1.379    3.517    0.000    6.621 
#    0.000    3.448    0.000    0.000    0.000    0.000 
#    0.000    0.000    0.000    0.000    0.000    0.000 
#
# Total GULP energy -719279.904820 kJ/mol
# GULP energy per Si atom -12401.377669 kJ/mol
# Density = 1.910566 g / cm^3
# Si number density = 19.149241 Si / 1000 Ang^3
#
#
#
# Elastic Constant Matrix: (Units=GPa)
#
#
# Indices 1 2 3 4 5 6 
#
# 1 132.7093 70.6253 46.9701 0.0000 0.0000 0.0000
# 2 70.6253 110.0955 43.8222 0.0000 0.0000 0.0000
# 3 46.9701 43.8222 81.5146 0.0000 0.0000 0.0000
# 4 0.0000 0.0000 0.0000 27.8155 0.0000 0.0000
# 5 0.0000 0.0000 0.0000 0.0000 31.9795 0.0000
# 6 0.0000 0.0000 0.0000 0.0000 0.0000 25.9843
#
#
#
# Elastic Compliance Matrix: (Units=1/GPa)
#
#
# Indices 1 2 3 4 5 6 
#
# 1 0.012217 -0.006406 -0.003596 0.000000 0.000000 0.000000
# 2 -0.006406 0.014915 -0.004327 0.000000 0.000000 0.000000
# 3 -0.003596 -0.004327 0.016666 0.000000 0.000000 0.000000
# 4 0.000000 0.000000 0.000000 0.035951 0.000000 0.000000
# 5 0.000000 0.000000 0.000000 0.000000 0.031270 0.000000
# 6 0.000000 0.000000 0.000000 0.000000 0.000000 0.038485
#
#
# Mechanical properties :
#
#
# Convention : Reuss Voigt Hill
#
# Bulk Modulus (GPa) = 66.04916 71.90607 68.97762
# Shear Modulus (GPa) = 27.29147 28.01599 27.65373
#
# Velocity S-wave (km/s) = 3.77928 3.82911 3.80428
# Velocity P-wave (km/s) = 7.32192 7.56183 7.44285
#
# Compressibility (1/GPa) = 0.01514024
#
# Stress axis : x y z
#
# Youngs Moduli (GPa) = 81.85308 67.04853 60.00272
#
# Poissons Ratio (x) = 0.42950 0.21576
# Poissons Ratio (y) = 0.52433 0.25963
# Poissons Ratio (z) = 0.29434 0.29011
#
# Static dielectric constant tensor:
#      x y z
#    x 3.501800 0.000000 0.000000 
#    y 0.000000 3.504570 0.000000 
#    z 0.000000 0.000000 3.366430 
# 
# 
# High freq. dielectric constant tensor:
#      x y z
#    x 1.748010 0.000000 0.000000 
#    y 0.000000 1.743680 0.000000 
#    z 0.000000 0.000000 1.738550 
# 
# From -- ./inp_files/9357.got.cif
#   From: 2010.03.12/outbox.cif.g09.slc.cpg/sg72_5_cif.got.tgz:9357.got - 2010.04.16 14:54:00.
