data_PCOD8294696
_publ_section_title
;
Structure prediction by ZEFSAII (Michael W. Deem and Ramdas Pophale) SiO2 
 PCOD8294696
Probable space group: I B A M
;
_chemical_formula_sum "Si O2"
_cell_formula_units_Z 80
_cell_length_a 8.369326
_cell_length_b 28.907051
_cell_length_c 15.881270
_cell_angle_alpha 90.000000
_cell_angle_beta 90.000000
_cell_angle_gamma 90.000000
_cell_volume 3842.195887
_symmetry_space_group_name_H-M "I B A M"
_symmetry_group_IT_number 72
_symmetry_cell_setting 'orthorhombic'
loop_
_space_group_symop_operation_xyz
x,y,z
-x,-y,z
x,-y,1/2-z
-x,y,1/2-z
-x,-y,-z
x,y,-z
-x,y,1/2+z
x,-y,1/2+z
1/2+x,1/2+y,1/2+z
1/2-x,1/2-y,1/2+z
1/2+x,1/2-y,-z
1/2-x,1/2+y,-z
1/2-x,1/2-y,1/2-z
1/2+x,1/2+y,1/2-z
1/2-x,1/2+y,z
1/2+x,1/2-y,z
loop_
_atom_site_type_symbol
_atom_site_label
_atom_site_fract_x
_atom_site_fract_y
_atom_site_fract_z
Si Si1 0.223075 0.613619 0.595666
Si Si2 0.766546 0.787006 0.905048
Si Si3 0.091975 0.201896 0.338666
Si Si4 0.685442 0.446493 0.260025
Si Si5 0.900283 0.625798 0.669073
O O1 0.284306 0.611692 0.500000
O O2 0.306005 0.655858 0.645234
O O3 0.270161 0.567012 0.644475
O O4 0.029990 0.616281 0.595955
O O5 0.713787 0.744692 0.845591
O O6 0.713590 0.833987 0.861235
O O7 0.958339 0.789454 0.909761
O O8 0.700113 0.781711 0.000000
O O9 0.000000 0.199078 0.250000
O O10 0.726066 0.500000 0.250000
O O11 0.500000 0.435247 0.250000
O O12 0.791353 0.418627 0.191637
O O13 0.000000 0.642348 0.750000
#
# Coordination Sequence:
#
# PCOD8294696 Si02
#       5
#    16  16  16  16  16
#     4  11  22  39  62  93 125 159 204 259 308 358
#     4  12  23  37  57  87 122 160 203 254 303 354
#     4  12  24  40  61  86 122 168 210 249 302 368
#     4  10  22  43  67  89 119 160 204 250 309 376
#     4  10  21  38  61  88 121 162 202 245 302 369
#
# _framework density 20.821425000000001
#
# number of rings (size 3 to 8) (size 9 to 14) (size 15 to 20)
#    0.000    1.000    0.000    9.000    0.000    3.600 
#    0.000    6.000    0.000    0.000    0.000    0.000 
#    0.000    0.000    0.000    0.000    0.000    0.000 
#
# Total GULP energy -495996.899940 kJ/mol
# GULP energy per Si atom -12399.922498 kJ/mol
# Density = 2.077403 g / cm^3
# Si number density = 20.821425 Si / 1000 Ang^3
#
#
#
# Elastic Constant Matrix: (Units=GPa)
#
#
# Indices 1 2 3 4 5 6 
#
# 1 120.7863 61.4788 22.3154 -0.0001 0.0000 0.0000
# 2 61.4788 146.5448 57.8251 -0.0001 0.0000 0.0000
# 3 22.3154 57.8251 111.0509 -0.0003 0.0000 0.0002
# 4 -0.0001 -0.0001 -0.0003 15.4508 0.0000 0.0001
# 5 0.0000 0.0000 0.0000 0.0000 30.5262 0.0000
# 6 0.0000 0.0000 0.0002 0.0001 0.0000 31.5952
#
#
#
# Elastic Compliance Matrix: (Units=1/GPa)
#
#
# Indices 1 2 3 4 5 6 
#
# 1 0.010532 -0.004510 0.000232 0.000000 0.000000 0.000000
# 2 -0.004510 0.010520 -0.004571 0.000000 0.000000 0.000000
# 3 0.000232 -0.004571 0.011339 0.000000 0.000000 0.000000
# 4 0.000000 0.000000 0.000000 0.064721 0.000000 0.000000
# 5 0.000000 0.000000 0.000000 0.000000 0.032759 0.000000
# 6 0.000000 0.000000 0.000000 0.000000 0.000000 0.031650
#
#
# Mechanical properties :
#
#
# Convention : Reuss Voigt Hill
#
# Bulk Modulus (GPa) = 68.06681 73.51339 70.79010
# Shear Modulus (GPa) = 27.15677 31.29863 29.22770
#
# Velocity S-wave (km/s) = 3.61539 3.88131 3.75071
# Velocity P-wave (km/s) = 7.08447 7.44777 7.26839
#
# Compressibility (1/GPa) = 0.01469145
#
# Stress axis : x y z
#
# Youngs Moduli (GPa) = 94.95178 95.06011 88.19394
#
# Poissons Ratio (x) = 0.42870 -0.02046
# Poissons Ratio (y) = 0.42821 0.40317
# Poissons Ratio (z) = -0.02203 0.43456
#
# Static dielectric constant tensor:
#      x y z
#    x 4.162940 0.000000 0.000000 
#    y 0.000000 3.613490 0.000000 
#    z 0.000000 0.000000 4.801780 
# 
# 
# High freq. dielectric constant tensor:
#      x y z
#    x 1.838540 0.000000 0.000000 
#    y 0.000000 1.806580 0.000000 
#    z 0.000000 0.000000 1.813360 
# 
# From -- ./inp_files/28183.got.cif
#   From: 2010.03.12/outbox.cif.g09.slc.cpg/sg72_15_cif.got.tgz:28183.got - 2010.04.16 14:54:00.
