data_PCOD8294345
_publ_section_title
;
Structure prediction by ZEFSAII (Michael W. Deem and Ramdas Pophale) SiO2 
 PCOD8294345
Probable space group: I B A M
;
_chemical_formula_sum "Si O2"
_cell_formula_units_Z 64
_cell_length_a 18.111271
_cell_length_b 10.090322
_cell_length_c 16.896919
_cell_angle_alpha 90.000000
_cell_angle_beta 90.000000
_cell_angle_gamma 90.000000
_cell_volume 3087.887552
_symmetry_space_group_name_H-M "I B A M"
_symmetry_group_IT_number 72
_symmetry_cell_setting 'orthorhombic'
loop_
_space_group_symop_operation_xyz
x,y,z
-x,-y,z
x,-y,1/2-z
-x,y,1/2-z
-x,-y,-z
x,y,-z
-x,y,1/2+z
x,-y,1/2+z
1/2+x,1/2+y,1/2+z
1/2-x,1/2-y,1/2+z
1/2+x,1/2-y,-z
1/2-x,1/2+y,-z
1/2-x,1/2-y,1/2-z
1/2+x,1/2+y,1/2-z
1/2-x,1/2+y,z
1/2+x,1/2-y,z
loop_
_atom_site_type_symbol
_atom_site_label
_atom_site_fract_x
_atom_site_fract_y
_atom_site_fract_z
Si Si1 0.944344 0.892898 0.591740
Si Si2 0.218755 0.834454 0.092156
Si Si3 0.293174 0.936803 0.668838
Si Si4 0.963028 0.373067 0.166184
O O1 0.941805 0.924444 0.500000
O O2 0.859934 0.894027 0.623814
O O3 0.977619 0.748298 0.607751
O O4 0.000000 0.000000 0.632550
O O5 0.243497 0.703158 0.141752
O O6 0.279131 0.950117 0.102768
O O7 0.212907 0.793681 0.000000
O O8 0.378336 0.906616 0.679824
O O9 0.259924 0.000000 0.750000
O O10 0.000000 0.500000 0.125065
O O11 0.000000 0.341072 0.250000
#
# Coordination Sequence:
#
# PCOD8294345 Si02
#       4
#    16  16  16  16
#     4   9  20  39  59  84 117 155 198 246 297 353
#     4  10  22  39  60  89 123 158 203 250 301 362
#     4  11  21  39  62  87 121 161 197 250 302 356
#     4  10  20  38  60  84 120 152 197 247 292 352
#
# _framework density 20.726141999999999
#
# number of rings (size 3 to 8) (size 9 to 14) (size 15 to 20)
#    0.000    2.000    2.500    1.500    0.000    4.000 
#    9.000    2.500    0.000    0.000    0.000    0.000 
#    0.000    0.000    0.000    0.000    0.000    0.000 
#
# Total GULP energy -396559.551244 kJ/mol
# GULP energy per Si atom -12392.485976 kJ/mol
# Density = 2.067897 g / cm^3
# Si number density = 20.726142 Si / 1000 Ang^3
#
#
#
# Elastic Constant Matrix: (Units=GPa)
#
#
# Indices 1 2 3 4 5 6 
#
# 1 59.6863 47.2928 30.0339 0.0000 0.0000 0.0000
# 2 47.2928 152.0412 33.7008 0.0000 0.0000 0.0000
# 3 30.0339 33.7008 43.9225 0.0000 0.0000 0.0000
# 4 0.0000 0.0000 0.0000 35.1211 0.0000 0.0000
# 5 0.0000 0.0000 0.0000 0.0000 23.7932 0.0000
# 6 0.0000 0.0000 0.0000 0.0000 0.0000 38.7281
#
#
#
# Elastic Compliance Matrix: (Units=1/GPa)
#
#
# Indices 1 2 3 4 5 6 
#
# 1 0.028994 -0.005572 -0.015551 0.000000 0.000000 0.000000
# 2 -0.005572 0.008996 -0.003092 0.000000 0.000000 0.000000
# 3 -0.015551 -0.003092 0.035774 0.000000 0.000000 0.000000
# 4 0.000000 0.000000 0.000000 0.028473 0.000000 0.000000
# 5 0.000000 0.000000 0.000000 0.000000 0.042029 0.000000
# 6 0.000000 0.000000 0.000000 0.000000 0.000000 0.025821
#
#
# Mechanical properties :
#
#
# Convention : Reuss Voigt Hill
#
# Bulk Modulus (GPa) = 39.47327 53.07833 46.27580
# Shear Modulus (GPa) = 22.03022 29.16997 25.60010
#
# Velocity S-wave (km/s) = 3.26378 3.75560 3.51830
# Velocity P-wave (km/s) = 5.76971 6.66866 6.23541
#
# Compressibility (1/GPa) = 0.02533360
#
# Stress axis : x y z
#
# Youngs Moduli (GPa) = 34.48955 111.16414 27.95355
#
# Poissons Ratio (x) = 0.61938 0.43470
# Poissons Ratio (y) = 0.19217 0.08644
# Poissons Ratio (z) = 0.53635 0.34375
#
# Static dielectric constant tensor:
#      x y z
#    x 3.750140 0.000000 0.000000 
#    y 0.000000 4.242070 0.000000 
#    z 0.000000 0.000000 3.581380 
# 
# 
# High freq. dielectric constant tensor:
#      x y z
#    x 1.801560 0.000000 0.000000 
#    y 0.000000 1.826860 0.000000 
#    z 0.000000 0.000000 1.792570 
# 
# From -- ./inp_files/27671.got.cif
#   From: 2010.03.12/outbox.cif.g09.slc.cpg/sg72_14_cif.got.tgz:27671.got - 2010.04.16 14:54:00.
