data_PCOD8294134
_publ_section_title
;
Structure prediction by ZEFSAII (Michael W. Deem and Ramdas Pophale) SiO2 
 PCOD8294134
Probable space group: I B A M
;
_chemical_formula_sum "Si O2"
_cell_formula_units_Z 112
_cell_length_a 12.382170
_cell_length_b 16.645702
_cell_length_c 28.644709
_cell_angle_alpha 90.000000
_cell_angle_beta 90.000000
_cell_angle_gamma 90.000000
_cell_volume 5903.958449
_symmetry_space_group_name_H-M "I B A M"
_symmetry_group_IT_number 72
_symmetry_cell_setting 'orthorhombic'
loop_
_space_group_symop_operation_xyz
x,y,z
-x,-y,z
x,-y,1/2-z
-x,y,1/2-z
-x,-y,-z
x,y,-z
-x,y,1/2+z
x,-y,1/2+z
1/2+x,1/2+y,1/2+z
1/2-x,1/2-y,1/2+z
1/2+x,1/2-y,-z
1/2-x,1/2+y,-z
1/2-x,1/2-y,1/2-z
1/2+x,1/2+y,1/2-z
1/2-x,1/2+y,z
1/2+x,1/2-y,z
loop_
_atom_site_type_symbol
_atom_site_label
_atom_site_fract_x
_atom_site_fract_y
_atom_site_fract_z
Si Si1 0.892933 0.043555 0.946165
Si Si2 0.880137 0.961412 0.796359
Si Si3 0.796126 0.209587 0.054521
Si Si4 0.216557 0.790147 0.701465
Si Si5 0.281679 0.001428 0.622927
Si Si6 0.625960 0.831569 0.372393
Si Si7 0.121350 0.663614 0.875579
O O1 0.888744 0.140551 0.938108
O O2 0.782337 0.009721 0.925365
O O3 0.888760 0.021092 0.000000
O O4 0.000000 0.000000 0.924306
O O5 0.869877 0.863726 0.792037
O O6 0.811786 0.988273 0.839914
O O7 0.828157 0.000000 0.750000
O O8 0.000000 0.000000 0.802169
O O9 0.682622 0.184551 0.077820
O O10 0.828575 0.290445 0.080528
O O11 0.776434 0.226526 0.000000
O O12 0.250000 0.750000 0.750000
O O13 0.166206 0.721540 0.670025
O O14 0.324502 0.818365 0.674563
O O15 0.365837 0.930392 0.615489
O O16 0.352216 0.076170 0.639983
O O17 0.501584 0.811540 0.375621
#
# Coordination Sequence:
#
# PCOD8294134 Si02
#       7
#    16  16  16  16  16  16  16
#     4   9  18  33  55  80 106 141 182 226 279 333
#     4  10  21  35  56  84 112 145 186 231 284 338
#     4   9  20  37  55  80 112 143 183 234 284 340
#     4  10  22  39  58  83 114 147 187 234 285 340
#     4  10  20  36  54  77 111 144 183 230 275 330
#     4  10  21  37  58  79 108 146 186 230 277 335
#     4  10  22  36  55  82 108 144 185 225 281 339
#
# _framework density 18.970321999999999
#
# number of rings (size 3 to 8) (size 9 to 14) (size 15 to 20)
#    0.000    2.286    0.000    1.714    0.000   10.857 
#    0.000    1.429    0.000    6.857    0.000    0.000 
#    0.000    0.000    0.000    0.000    0.000    0.000 
#
# Total GULP energy -693993.909523 kJ/mol
# GULP energy per Si atom -12392.748384 kJ/mol
# Density = 1.892714 g / cm^3
# Si number density = 18.970322 Si / 1000 Ang^3
#
#
#
# Elastic Constant Matrix: (Units=GPa)
#
#
# Indices 1 2 3 4 5 6 
#
# 1 92.0740 38.8824 27.4420 0.0000 0.0000 0.0000
# 2 38.8824 131.4662 52.3998 0.0000 0.0000 0.0000
# 3 27.4420 52.3998 104.0438 0.0000 0.0000 0.0000
# 4 0.0000 0.0000 0.0000 21.5668 0.0000 0.0000
# 5 0.0000 0.0000 0.0000 0.0000 10.2344 0.0000
# 6 0.0000 0.0000 0.0000 0.0000 0.0000 24.7576
#
#
#
# Elastic Compliance Matrix: (Units=1/GPa)
#
#
# Indices 1 2 3 4 5 6 
#
# 1 0.012681 -0.003025 -0.001821 0.000000 0.000000 0.000000
# 2 -0.003025 0.010238 -0.004359 0.000000 0.000000 0.000000
# 3 -0.001821 -0.004359 0.012287 0.000000 0.000000 0.000000
# 4 0.000000 0.000000 0.000000 0.046368 0.000000 0.000000
# 5 0.000000 0.000000 0.000000 0.000000 0.097710 0.000000
# 6 0.000000 0.000000 0.000000 0.000000 0.000000 0.040392
#
#
# Mechanical properties :
#
#
# Convention : Reuss Voigt Hill
#
# Bulk Modulus (GPa) = 59.53432 62.78137 61.15784
# Shear Modulus (GPa) = 20.51842 25.23574 22.87708
#
# Velocity S-wave (km/s) = 3.29235 3.65125 3.47643
# Velocity P-wave (km/s) = 6.77523 7.13736 6.95865
#
# Compressibility (1/GPa) = 0.01679703
#
# Stress axis : x y z
#
# Youngs Moduli (GPa) = 78.85861 97.67235 81.38764
#
# Poissons Ratio (x) = 0.29541 0.14824
# Poissons Ratio (y) = 0.23851 0.35474
# Poissons Ratio (z) = 0.14363 0.42572
#
# Static dielectric constant tensor:
#      x y z
#    x 3.378410 0.000000 0.000000 
#    y 0.000000 3.726320 0.000000 
#    z 0.000000 0.000000 3.555880 
# 
# 
# High freq. dielectric constant tensor:
#      x y z
#    x 1.725830 0.000000 0.000000 
#    y 0.000000 1.750990 0.000000 
#    z 0.000000 0.000000 1.743320 
# 
# From -- ./inp_files/51473.got.cif
#   From: 2010.03.12/outbox.cif.g09.slc.cpg/sg72_26_cif.got.tgz:51473.got - 2010.04.16 14:54:00.
