data_PCOD8294767
_publ_section_title
;
Structure prediction by ZEFSAII (Michael W. Deem and Ramdas Pophale) SiO2 
 PCOD8294767
Probable space group: I B A M
;
_chemical_formula_sum "Si O2"
_cell_formula_units_Z 96
_cell_length_a 24.879299
_cell_length_b 10.178182
_cell_length_c 18.364261
_cell_angle_alpha 90.000000
_cell_angle_beta 90.000000
_cell_angle_gamma 90.000000
_cell_volume 4650.308967
_symmetry_space_group_name_H-M "I B A M"
_symmetry_group_IT_number 72
_symmetry_cell_setting 'orthorhombic'
loop_
_space_group_symop_operation_xyz
x,y,z
-x,-y,z
x,-y,1/2-z
-x,y,1/2-z
-x,-y,-z
x,y,-z
-x,y,1/2+z
x,-y,1/2+z
1/2+x,1/2+y,1/2+z
1/2-x,1/2-y,1/2+z
1/2+x,1/2-y,-z
1/2-x,1/2+y,-z
1/2-x,1/2-y,1/2-z
1/2+x,1/2+y,1/2-z
1/2-x,1/2+y,z
1/2+x,1/2-y,z
loop_
_atom_site_type_symbol
_atom_site_label
_atom_site_fract_x
_atom_site_fract_y
_atom_site_fract_z
Si Si1 0.320226 0.611320 0.170475
Si Si2 0.656002 0.861928 0.414609
Si Si3 0.962723 0.611902 0.915111
Si Si4 0.969585 0.134462 0.915813
Si Si5 0.637269 0.660620 0.175052
Si Si6 0.801261 0.424898 0.179817
O O1 0.327484 0.714726 0.106350
O O2 0.331984 0.465020 0.140209
O O3 0.360626 0.645554 0.237129
O O4 0.259120 0.619505 0.198866
O O5 0.656750 0.868766 0.500000
O O6 0.597018 0.894110 0.381644
O O7 0.697752 0.970150 0.385576
O O8 0.000000 0.500000 0.878064
O O9 0.986729 0.754425 0.900836
O O10 0.957844 0.581063 0.000000
O O11 0.922167 0.158693 0.858379
O O12 0.948739 0.138390 0.000000
O O13 0.000000 0.000000 0.898589
O O14 0.664917 0.798233 0.154749
O O15 0.826063 0.500000 0.250000
#
# Coordination Sequence:
#
# PCOD8294767 Si02
#       6
#    16  16  16  16  16  16
#     4  11  23  41  64  91 128 176 213 266 333 390
#     4  11  24  41  65  96 129 167 215 273 334 396
#     4   9  18  36  59  84 120 164 203 252 323 382
#     4  10  21  39  64  94 131 170 210 264 323 381
#     4  11  22  38  67  96 121 172 227 260 313 403
#     4  12  22  42  69  90 127 175 221 267 333 399
#
# _framework density 20.643789999999999
#
# number of rings (size 3 to 8) (size 9 to 14) (size 15 to 20)
#    0.000    1.333    3.333    3.500    0.000    4.667 
#    0.000    7.500    0.000    0.000    0.000    0.000 
#    0.000    0.000    0.000    0.000    0.000    0.000 
#
# Total GULP energy -595127.589713 kJ/mol
# GULP energy per Si atom -12398.491452 kJ/mol
# Density = 2.059680 g / cm^3
# Si number density = 20.643790 Si / 1000 Ang^3
#
#
#
# Elastic Constant Matrix: (Units=GPa)
#
#
# Indices 1 2 3 4 5 6 
#
# 1 88.9662 15.0304 42.8017 0.0000 0.0000 0.0000
# 2 15.0304 133.4387 36.5010 0.0000 0.0000 0.0000
# 3 42.8017 36.5010 82.4958 0.0000 0.0000 0.0000
# 4 0.0000 0.0000 0.0000 -3.6667 0.0000 0.0000
# 5 0.0000 0.0000 0.0000 0.0000 20.3376 0.0000
# 6 0.0000 0.0000 0.0000 0.0000 0.0000 28.2790
#
#
#
# Elastic Compliance Matrix: (Units=1/GPa)
#
#
# Indices 1 2 3 4 5 6 
#
# 1 0.015008 0.000500 -0.008008 0.000000 0.000000 0.000000
# 2 0.000500 0.008543 -0.004039 0.000000 0.000000 0.000000
# 3 -0.008008 -0.004039 0.018064 0.000000 0.000000 0.000000
# 4 0.000000 0.000000 0.000000 -0.272722 0.000000 0.000000
# 5 0.000000 0.000000 0.000000 0.000000 0.049170 0.000000
# 6 0.000000 0.000000 0.000000 0.000000 0.000000 0.035362
#
#
# Mechanical properties :
#
#
# Convention : Reuss Voigt Hill
#
# Bulk Modulus (GPa) = 53.99459 54.84076 54.41767
# Shear Modulus (GPa) = -42.62316 23.02782 -9.79767
#
# Velocity S-wave (km/s) = -4.54882 3.34351 -2.18091
# Velocity P-wave (km/s) = 1.17341 6.44425 4.48059
#
# Compressibility (1/GPa) = 0.01852037
#
# Stress axis : x y z
#
# Youngs Moduli (GPa) = 66.62893 117.05983 55.35893
#
# Poissons Ratio (x) = -0.05853 0.44332
# Poissons Ratio (y) = -0.03332 0.22361
# Poissons Ratio (z) = 0.53358 0.47283
#
# Static dielectric constant tensor:
#      x y z
#    x 3.808600 0.000000 0.000000 
#    y 0.000000 4.112730 0.000000 
#    z 0.000000 0.000000 3.409290 
# 
# 
# High freq. dielectric constant tensor:
#      x y z
#    x 1.804830 0.000000 0.000000 
#    y 0.000000 1.835560 0.000000 
#    z 0.000000 0.000000 1.777290 
# 
# From -- ./inp_files/40686.got.cif
#   From: 2010.03.12/outbox.cif.g09.slc.cpg/sg72_21_cif.got.tgz:40686.got - 2010.04.16 14:54:00.
