data_PCOD8294930
_publ_section_title
;
Structure prediction by ZEFSAII (Michael W. Deem and Ramdas Pophale) SiO2 
 PCOD8294930
Probable space group: I B A M
;
_chemical_formula_sum "Si O2"
_cell_formula_units_Z 56
_cell_length_a 11.025334
_cell_length_b 25.643551
_cell_length_c 9.325949
_cell_angle_alpha 90.000000
_cell_angle_beta 90.000000
_cell_angle_gamma 90.000000
_cell_volume 2636.713574
_symmetry_space_group_name_H-M "I B A M"
_symmetry_group_IT_number 72
_symmetry_cell_setting 'orthorhombic'
loop_
_space_group_symop_operation_xyz
x,y,z
-x,-y,z
x,-y,1/2-z
-x,y,1/2-z
-x,-y,-z
x,y,-z
-x,y,1/2+z
x,-y,1/2+z
1/2+x,1/2+y,1/2+z
1/2-x,1/2-y,1/2+z
1/2+x,1/2-y,-z
1/2-x,1/2+y,-z
1/2-x,1/2-y,1/2-z
1/2+x,1/2+y,1/2-z
1/2-x,1/2+y,z
1/2+x,1/2-y,z
loop_
_atom_site_type_symbol
_atom_site_label
_atom_site_fract_x
_atom_site_fract_y
_atom_site_fract_z
Si Si1 0.349883 0.453786 0.845805
Si Si2 0.263428 0.696304 0.833006
Si Si3 0.378443 0.891191 0.171219
Si Si4 0.000000 0.138103 0.750000
O O1 0.403650 0.500000 0.750000
O O2 0.215397 0.437665 0.796893
O O3 0.431556 0.401473 0.857228
O O4 0.345371 0.480018 0.000000
O O5 0.250000 0.750000 0.750000
O O6 0.168125 0.660259 0.750884
O O7 0.401314 0.674572 0.827873
O O8 0.226552 0.702517 0.000000
O O9 0.500000 0.909166 0.250000
O O10 0.394398 0.881224 0.000000
#
# Coordination Sequence:
#
# PCOD8294930 Si02
#       4
#    16  16  16   8
#     4  10  22  39  62  92 124 161 205 254 310 371
#     4  11  24  41  64  91 123 163 209 258 312 371
#     4  10  22  41  62  88 125 165 210 258 309 370
#     4  10  23  42  64  90 124 164 207 254 310 368
#
# _framework density 21.238561000000001
#
# number of rings (size 3 to 8) (size 9 to 14) (size 15 to 20)
#    0.000    1.714    0.000    3.000    2.000   12.000 
#    0.000    2.857    0.000    0.000    0.000    0.000 
#    0.000    0.000    0.000    0.000    0.000    0.000 
#
# Total GULP energy -346986.136679 kJ/mol
# GULP energy per Si atom -12392.362024 kJ/mol
# Density = 2.119022 g / cm^3
# Si number density = 21.238561 Si / 1000 Ang^3
#
#
#
# Elastic Constant Matrix: (Units=GPa)
#
#
# Indices 1 2 3 4 5 6 
#
# 1 136.9020 40.5583 44.7244 0.0003 -0.0002 0.0002
# 2 40.5583 122.5605 63.2565 -0.0002 -0.0003 0.0002
# 3 44.7244 63.2565 143.4724 -0.0002 -0.0009 0.0008
# 4 0.0003 -0.0002 -0.0002 28.9216 -0.0005 0.0003
# 5 -0.0002 -0.0003 -0.0009 -0.0005 15.9361 -0.0001
# 6 0.0002 0.0002 0.0008 0.0003 -0.0001 10.4313
#
#
#
# Elastic Compliance Matrix: (Units=1/GPa)
#
#
# Indices 1 2 3 4 5 6 
#
# 1 0.008448 -0.001860 -0.001814 0.000000 0.000000 0.000000
# 2 -0.001860 0.010972 -0.004258 0.000000 0.000000 0.000000
# 3 -0.001814 -0.004258 0.009413 0.000000 0.000000 -0.000001
# 4 0.000000 0.000000 0.000000 0.034576 0.000001 -0.000001
# 5 0.000000 0.000000 0.000000 0.000001 0.062751 0.000000
# 6 0.000000 0.000000 -0.000001 -0.000001 0.000000 0.095865
#
#
# Mechanical properties :
#
#
# Convention : Reuss Voigt Hill
#
# Bulk Modulus (GPa) = 77.09752 77.77926 77.43839
# Shear Modulus (GPa) = 20.64322 28.01753 24.33037
#
# Velocity S-wave (km/s) = 3.12102 3.63599 3.38831
# Velocity P-wave (km/s) = 7.02618 7.37079 7.20055
#
# Compressibility (1/GPa) = 0.01297059
#
# Stress axis : x y z
#
# Youngs Moduli (GPa) = 118.37289 91.13900 106.24024
#
# Poissons Ratio (x) = 0.16948 0.19267
# Poissons Ratio (y) = 0.22012 0.45237
# Poissons Ratio (z) = 0.21468 0.38806
#
# Static dielectric constant tensor:
#      x y z
#    x 4.104790 0.000000 0.000000 
#    y 0.000000 3.800760 0.000000 
#    z 0.000000 0.000000 4.106160 
# 
# 
# High freq. dielectric constant tensor:
#      x y z
#    x 1.847000 0.000000 0.000000 
#    y 0.000000 1.829210 0.000000 
#    z 0.000000 0.000000 1.837610 
# 
# From -- ./inp_files/2386.got.cif
#   From: 2010.03.12/outbox.cif.g09.slc.cpg/sg72_2_cif.got.tgz:2386.got - 2010.04.16 14:54:00.
