data_PCOD8294984
_publ_section_title
;
Structure prediction by ZEFSAII (Michael W. Deem and Ramdas Pophale) SiO2 
 PCOD8294984
Probable space group: I B A M
;
_chemical_formula_sum "Si O2"
_cell_formula_units_Z 60
_cell_length_a 5.077307
_cell_length_b 25.996953
_cell_length_c 19.857588
_cell_angle_alpha 90.000000
_cell_angle_beta 90.000000
_cell_angle_gamma 90.000000
_cell_volume 2621.092627
_symmetry_space_group_name_H-M "I B A M"
_symmetry_group_IT_number 72
_symmetry_cell_setting 'orthorhombic'
loop_
_space_group_symop_operation_xyz
x,y,z
-x,-y,z
x,-y,1/2-z
-x,y,1/2-z
-x,-y,-z
x,y,-z
-x,y,1/2+z
x,-y,1/2+z
1/2+x,1/2+y,1/2+z
1/2-x,1/2-y,1/2+z
1/2+x,1/2-y,-z
1/2-x,1/2+y,-z
1/2-x,1/2-y,1/2-z
1/2+x,1/2+y,1/2-z
1/2-x,1/2+y,z
1/2+x,1/2-y,z
loop_
_atom_site_type_symbol
_atom_site_label
_atom_site_fract_x
_atom_site_fract_y
_atom_site_fract_z
Si Si1 0.250585 0.584028 0.160247
Si Si2 0.765382 0.104810 0.923916
Si Si3 0.500000 0.332683 0.750000
Si Si4 0.331791 0.716540 0.619218
Si Si5 0.000000 0.500000 0.250000
O O1 0.517015 0.573091 0.118243
O O2 0.289363 0.632394 0.210016
O O3 0.190544 0.534010 0.203934
O O4 0.017477 0.596991 0.109271
O O5 0.842568 0.164802 0.924606
O O6 0.757742 0.083877 0.000000
O O7 0.663868 0.297416 0.698558
O O8 0.575964 0.751810 0.599567
#
# Coordination Sequence:
#
# PCOD8294984 Si02
#       5
#    16  16   8  16   4
#     4  11  25  42  70  97 126 170 204 267 333 379
#     4  11  25  46  64  90 134 178 217 253 312 384
#     4  10  22  41  61  96 134 164 209 265 334 384
#     4  11  22  35  60  92 125 170 217 268 311 359
#     4  12  24  46  72 106 128 146 214 272 324 402
#
# _framework density 22.891214999999999
#
# number of rings (size 3 to 8) (size 9 to 14) (size 15 to 20)
#    0.000    1.067    0.000    8.000    0.000   10.133 
#    0.000    4.000    0.000    0.000    0.000    0.000 
#    0.000    0.000    0.000    0.000    0.000    0.000 
#
# Total GULP energy -372168.498526 kJ/mol
# GULP energy per Si atom -12405.616618 kJ/mol
# Density = 2.283911 g / cm^3
# Si number density = 22.891215 Si / 1000 Ang^3
#
#
#
# Elastic Constant Matrix: (Units=GPa)
#
#
# Indices 1 2 3 4 5 6 
#
# 1 146.1494 25.7737 30.0794 0.0000 0.0000 0.0000
# 2 25.7737 79.6056 18.6042 0.0000 0.0000 0.0000
# 3 30.0794 18.6042 117.1107 0.0000 0.0000 0.0000
# 4 0.0000 0.0000 0.0000 15.2415 0.0000 0.0000
# 5 0.0000 0.0000 0.0000 0.0000 33.8071 0.0000
# 6 0.0000 0.0000 0.0000 0.0000 0.0000 26.8879
#
#
#
# Elastic Compliance Matrix: (Units=1/GPa)
#
#
# Indices 1 2 3 4 5 6 
#
# 1 0.007537 -0.002065 -0.001608 0.000000 0.000000 0.000000
# 2 -0.002065 0.013612 -0.001632 0.000000 0.000000 0.000000
# 3 -0.001608 -0.001632 0.009211 0.000000 0.000000 0.000000
# 4 0.000000 0.000000 0.000000 0.065610 0.000000 0.000000
# 5 0.000000 0.000000 0.000000 0.000000 0.029580 0.000000
# 6 0.000000 0.000000 0.000000 0.000000 0.000000 0.037191
#
#
# Mechanical properties :
#
#
# Convention : Reuss Voigt Hill
#
# Bulk Modulus (GPa) = 50.63007 54.64225 52.63616
# Shear Modulus (GPa) = 27.78785 33.08118 30.43452
#
# Velocity S-wave (km/s) = 3.48790 3.80563 3.65023
# Velocity P-wave (km/s) = 6.19567 6.57516 6.38823
#
# Compressibility (1/GPa) = 0.01975111
#
# Stress axis : x y z
#
# Youngs Moduli (GPa) = 132.67282 73.46574 108.56345
#
# Poissons Ratio (x) = 0.15167 0.17457
# Poissons Ratio (y) = 0.27391 0.17719
# Poissons Ratio (z) = 0.21333 0.11990
#
# Static dielectric constant tensor:
#      x y z
#    x 4.227630 0.000000 0.000000 
#    y 0.000000 4.095980 0.000000 
#    z 0.000000 0.000000 3.995780 
# 
# 
# High freq. dielectric constant tensor:
#      x y z
#    x 1.916230 0.000000 0.000000 
#    y 0.000000 1.897580 0.000000 
#    z 0.000000 0.000000 1.903000 
# 
# From -- ./inp_files/34716.got.cif
#   From: 2010.03.12/outbox.cif.g09.slc.cpg/sg72_18_cif.got.tgz:34716.got - 2010.04.16 14:54:00.
