data_PCOD8294606
_publ_section_title
;
Structure prediction by ZEFSAII (Michael W. Deem and Ramdas Pophale) SiO2 
 PCOD8294606
Probable space group: I B A M
;
_chemical_formula_sum "Si O2"
_cell_formula_units_Z 64
_cell_length_a 13.261765
_cell_length_b 13.270540
_cell_length_c 16.749365
_cell_angle_alpha 90.000000
_cell_angle_beta 90.000000
_cell_angle_gamma 90.000000
_cell_volume 2947.733859
_symmetry_space_group_name_H-M "I B A M"
_symmetry_group_IT_number 72
_symmetry_cell_setting 'orthorhombic'
loop_
_space_group_symop_operation_xyz
x,y,z
-x,-y,z
x,-y,1/2-z
-x,y,1/2-z
-x,-y,-z
x,y,-z
-x,y,1/2+z
x,-y,1/2+z
1/2+x,1/2+y,1/2+z
1/2-x,1/2-y,1/2+z
1/2+x,1/2-y,-z
1/2-x,1/2+y,-z
1/2-x,1/2-y,1/2-z
1/2+x,1/2+y,1/2-z
1/2-x,1/2+y,z
1/2+x,1/2-y,z
loop_
_atom_site_type_symbol
_atom_site_label
_atom_site_fract_x
_atom_site_fract_y
_atom_site_fract_z
Si Si1 0.743621 0.073288 0.090256
Si Si2 0.624353 0.281910 0.674856
Si Si3 0.074864 0.727585 0.590004
Si Si4 0.706830 0.371698 0.174024
O O1 0.830273 0.158003 0.099132
O O2 0.634662 0.123657 0.108883
O O3 0.765926 0.986439 0.154364
O O4 0.746049 0.031400 0.000000
O O5 0.513148 0.242466 0.654573
O O6 0.630325 0.358078 0.750805
O O7 0.688551 0.182743 0.695708
O O8 0.031990 0.725591 0.500000
O O9 0.152623 0.820797 0.597745
#
# Coordination Sequence:
#
# PCOD8294606 Si02
#       4
#    16  16  16  16
#     4  10  21  37  59  88 121 158 202 253 307 363
#     4  10  21  38  59  85 120 160 203 251 303 364
#     4  10  21  37  59  88 121 158 202 253 307 363
#     4  10  21  38  59  85 120 160 203 251 303 364
#
# _framework density 21.711594000000002
#
# number of rings (size 3 to 8) (size 9 to 14) (size 15 to 20)
#    0.000    2.000    0.000    3.000    0.000    5.000 
#    0.000    7.500    0.000    9.000    0.000    0.000 
#    0.000    0.000    0.000    0.000    0.000    0.000 
#
# Total GULP energy -396636.284752 kJ/mol
# GULP energy per Si atom -12394.883899 kJ/mol
# Density = 2.166218 g / cm^3
# Si number density = 21.711594 Si / 1000 Ang^3
#
#
#
# Elastic Constant Matrix: (Units=GPa)
#
#
# Indices 1 2 3 4 5 6 
#
# 1 36.3180 -13.0323 12.6192 0.0000 0.0000 0.0000
# 2 -13.0323 55.0881 16.0745 0.0000 0.0000 0.0000
# 3 12.6192 16.0745 98.8403 0.0000 0.0000 0.0000
# 4 0.0000 0.0000 0.0000 36.1271 0.0000 0.0000
# 5 0.0000 0.0000 0.0000 0.0000 38.6316 0.0000
# 6 0.0000 0.0000 0.0000 0.0000 0.0000 24.4411
#
#
#
# Elastic Compliance Matrix: (Units=1/GPa)
#
#
# Indices 1 2 3 4 5 6 
#
# 1 0.032927 0.009465 -0.005743 0.000000 0.000000 0.000000
# 2 0.009465 0.021778 -0.004750 0.000000 0.000000 0.000000
# 3 -0.005743 -0.004750 0.011623 0.000000 0.000000 0.000000
# 4 0.000000 0.000000 0.000000 0.027680 0.000000 0.000000
# 5 0.000000 0.000000 0.000000 0.000000 0.025886 0.000000
# 6 0.000000 0.000000 0.000000 0.000000 0.000000 0.040915
#
#
# Mechanical properties :
#
#
# Convention : Reuss Voigt Hill
#
# Bulk Modulus (GPa) = 15.55896 24.61880 20.08888
# Shear Modulus (GPa) = 27.13142 31.47896 29.30519
#
# Velocity S-wave (km/s) = 3.53884 3.81184 3.67788
# Velocity P-wave (km/s) = 4.88668 5.54411 5.22574
#
# Compressibility (1/GPa) = 0.06427163
#
# Stress axis : x y z
#
# Youngs Moduli (GPa) = 30.37058 45.91772 86.03547
#
# Poissons Ratio (x) = -0.43463 0.49412
# Poissons Ratio (y) = -0.28747 0.40869
# Poissons Ratio (z) = 0.17442 0.21812
#
# Static dielectric constant tensor:
#      x y z
#    x 3.747840 0.000000 0.000000 
#    y 0.000000 3.701560 0.000000 
#    z 0.000000 0.000000 3.889710 
# 
# 
# High freq. dielectric constant tensor:
#      x y z
#    x 1.841540 0.000000 0.000000 
#    y 0.000000 1.838650 0.000000 
#    z 0.000000 0.000000 1.864130 
# 
# From -- ./inp_files/28768.got.cif
#   From: 2010.03.12/outbox.cif.g09.slc.cpg/sg72_15_cif.got.tgz:28768.got - 2010.04.16 14:54:00.
