data_PCOD8294149
_publ_section_title
;
Structure prediction by ZEFSAII (Michael W. Deem and Ramdas Pophale) SiO2 
 PCOD8294149
Probable space group: I B A M
;
_chemical_formula_sum "Si O2"
_cell_formula_units_Z 80
_cell_length_a 18.117936
_cell_length_b 25.797802
_cell_length_c 8.644338
_cell_angle_alpha 90.000000
_cell_angle_beta 90.000000
_cell_angle_gamma 90.000000
_cell_volume 4040.388871
_symmetry_space_group_name_H-M "I B A M"
_symmetry_group_IT_number 72
_symmetry_cell_setting 'orthorhombic'
loop_
_space_group_symop_operation_xyz
x,y,z
-x,-y,z
x,-y,1/2-z
-x,y,1/2-z
-x,-y,-z
x,y,-z
-x,y,1/2+z
x,-y,1/2+z
1/2+x,1/2+y,1/2+z
1/2-x,1/2-y,1/2+z
1/2+x,1/2-y,-z
1/2-x,1/2+y,-z
1/2-x,1/2-y,1/2-z
1/2+x,1/2+y,1/2-z
1/2-x,1/2+y,z
1/2+x,1/2-y,z
loop_
_atom_site_type_symbol
_atom_site_label
_atom_site_fract_x
_atom_site_fract_y
_atom_site_fract_z
Si Si1 0.855483 0.551602 0.672853
Si Si2 0.813636 0.163773 0.684477
Si Si3 0.819576 0.050388 0.669373
Si Si4 0.076900 0.246431 0.682822
Si Si5 0.654285 0.841689 0.318109
O O1 0.890142 0.500000 0.750000
O O2 0.887704 0.558281 0.500000
O O3 0.768019 0.545240 0.664666
O O4 0.876482 0.601464 0.775231
O O5 0.823340 0.169906 0.500000
O O6 0.839187 0.106364 0.743853
O O7 0.860302 0.205240 0.777277
O O8 0.728110 0.172232 0.724176
O O9 0.853932 0.049756 0.500000
O O10 0.855128 0.000000 0.750000
O O11 0.072632 0.254484 0.500000
O O12 0.092804 0.300649 0.767461
O O13 0.000000 0.225048 0.750000
O O14 0.669969 0.838496 0.500000
#
# Coordination Sequence:
#
# PCOD8294149 Si02
#       5
#    16  16  16  16  16
#     4   9  16  28  47  76 110 143 177 219 267 317
#     4  10  20  36  56  82 112 144 181 224 269 320
#     4   8  15  26  45  73 107 139 171 211 259 309
#     4  12  25  41  58  78 105 141 181 226 276 329
#     4  11  21  35  56  83 112 145 182 224 269 319
#
# _framework density 19.800075
#
# number of rings (size 3 to 8) (size 9 to 14) (size 15 to 20)
#    0.000    2.000    0.000    6.600    0.000    5.600 
#    0.000    0.000    0.000    1.200    0.000    8.400 
#    0.000    0.000    0.000    0.000    0.000    0.000 
#
# Total GULP energy -495888.934248 kJ/mol
# GULP energy per Si atom -12397.223356 kJ/mol
# Density = 1.975501 g / cm^3
# Si number density = 19.800075 Si / 1000 Ang^3
#
#
#
# Elastic Constant Matrix: (Units=GPa)
#
#
# Indices 1 2 3 4 5 6 
#
# 1 26.1198 11.6342 8.5412 0.0000 0.0000 0.0000
# 2 11.6342 119.8434 44.1400 0.0000 0.0000 0.0000
# 3 8.5412 44.1400 102.9861 0.0000 0.0000 0.0000
# 4 0.0000 0.0000 0.0000 40.1571 0.0000 0.0000
# 5 0.0000 0.0000 0.0000 0.0000 22.4585 0.0000
# 6 0.0000 0.0000 0.0000 0.0000 0.0000 -0.0512
#
#
#
# Elastic Compliance Matrix: (Units=1/GPa)
#
#
# Indices 1 2 3 4 5 6 
#
# 1 0.040353 -0.003188 -0.001980 0.000000 0.000000 0.000001
# 2 -0.003188 0.010160 -0.004090 0.000000 0.000000 0.000000
# 3 -0.001980 -0.004090 0.011627 0.000000 0.000000 0.000001
# 4 0.000000 0.000000 0.000000 0.024902 0.000000 0.000000
# 5 0.000000 0.000000 0.000000 0.000000 0.044527 0.000001
# 6 0.000001 0.000000 0.000001 0.000000 0.000001-19.549793
#
#
# Mechanical properties :
#
#
# Convention : Reuss Voigt Hill
#
# Bulk Modulus (GPa) = 22.92363 41.95333 32.43848
# Shear Modulus (GPa) = -0.25793 24.82181 12.28194
#
# Velocity S-wave (km/s) = -0.36132 3.54449 2.49328
# Velocity P-wave (km/s) = 3.38062 6.16326 4.97063
#
# Compressibility (1/GPa) = 0.04362311
#
# Stress axis : x y z
#
# Youngs Moduli (GPa) = 24.78153 98.42309 86.00389
#
# Poissons Ratio (x) = 0.31377 0.17031
# Poissons Ratio (y) = 0.07900 0.35178
# Poissons Ratio (z) = 0.04907 0.40258
#
# Static dielectric constant tensor:
#      x y z
#    x 3.059780 0.000000 0.000000 
#    y 0.000000 3.998900 0.000000 
#    z 0.000000 0.000000 3.757000 
# 
# 
# High freq. dielectric constant tensor:
#      x y z
#    x 1.712920 0.000000 0.000000 
#    y 0.000000 1.794170 0.000000 
#    z 0.000000 0.000000 1.781980 
# 
# From -- ./inp_files/4782.got.cif
#   From: 2010.03.12/outbox.cif.g09.slc.cpg/sg72_3_cif.got.tgz:4782.got - 2010.04.16 14:54:00.
