data_PCOD8294654
_publ_section_title
;
Structure prediction by ZEFSAII (Michael W. Deem and Ramdas Pophale) SiO2 
 PCOD8294654
Probable space group: I B A M
;
_chemical_formula_sum "Si O2"
_cell_formula_units_Z 104
_cell_length_a 25.298235
_cell_length_b 23.218141
_cell_length_c 9.153734
_cell_angle_alpha 90.000000
_cell_angle_beta 90.000000
_cell_angle_gamma 90.000000
_cell_volume 5376.701853
_symmetry_space_group_name_H-M "I B A M"
_symmetry_group_IT_number 72
_symmetry_cell_setting 'orthorhombic'
loop_
_space_group_symop_operation_xyz
x,y,z
-x,-y,z
x,-y,1/2-z
-x,y,1/2-z
-x,-y,-z
x,y,-z
-x,y,1/2+z
x,-y,1/2+z
1/2+x,1/2+y,1/2+z
1/2-x,1/2-y,1/2+z
1/2+x,1/2-y,-z
1/2-x,1/2+y,-z
1/2-x,1/2-y,1/2-z
1/2+x,1/2+y,1/2-z
1/2-x,1/2+y,z
1/2+x,1/2-y,z
loop_
_atom_site_type_symbol
_atom_site_label
_atom_site_fract_x
_atom_site_fract_y
_atom_site_fract_z
Si Si1 0.088993 0.772717 0.663836
Si Si2 0.378754 0.831038 0.669745
Si Si3 0.553775 0.057552 0.670963
Si Si4 0.228707 0.693862 0.669906
Si Si5 0.417838 0.555339 0.660004
Si Si6 0.162733 0.854621 0.168396
Si Si7 0.500000 0.355096 0.750000
O O1 0.103384 0.754360 0.500000
O O2 0.080352 0.715175 0.760090
O O3 0.140011 0.803493 0.732629
O O4 0.037718 0.813560 0.656409
O O5 0.370408 0.816056 0.500000
O O6 0.402236 0.894086 0.691883
O O7 0.323230 0.829965 0.753079
O O8 0.500000 0.077543 0.750000
O O9 0.542688 0.045924 0.500000
O O10 0.575128 0.000000 0.750000
O O11 0.217628 0.707551 0.500000
O O12 0.250000 0.750000 0.750000
O O13 0.273978 0.644349 0.684599
O O14 0.435420 0.500000 0.750000
O O15 0.407912 0.530847 0.500000
O O16 0.363719 0.584882 0.720241
O O17 0.463770 0.603553 0.651416
O O18 0.145731 0.843232 0.000000
#
# Coordination Sequence:
#
# PCOD8294654 Si02
#       7
#    16  16  16  16  16  16   8
#     4  11  22  35  56  84 113 152 196 238 289 346
#     4  11  24  39  57  88 124 155 190 237 290 347
#     4  10  22  41  65  89 117 154 193 239 292 349
#     4  11  21  36  60  87 117 156 196 237 291 350
#     4  10  21  38  58  80 111 151 194 241 288 338
#     4   9  20  38  57  79 114 151 186 239 296 342
#     4  10  23  38  54  82 117 152 196 242 294 340
#
# _framework density 19.342714000000001
#
# number of rings (size 3 to 8) (size 9 to 14) (size 15 to 20)
#    0.000    1.692    1.538    3.000    1.077    8.615 
#    0.000    0.769    0.000    3.692    0.000    0.000 
#    0.000    0.000    0.000    0.000    0.000    0.000 
#
# Total GULP energy -644612.694183 kJ/mol
# GULP energy per Si atom -12396.397965 kJ/mol
# Density = 1.929869 g / cm^3
# Si number density = 19.342714 Si / 1000 Ang^3
#
#
#
# Elastic Constant Matrix: (Units=GPa)
#
#
# Indices 1 2 3 4 5 6 
#
# 1 114.4511 64.4034 50.4967 0.0000 0.0000 0.0000
# 2 64.4034 107.8453 60.9422 0.0000 0.0000 0.0000
# 3 50.4967 60.9422 142.7052 0.0000 0.0000 0.0000
# 4 0.0000 0.0000 0.0000 25.2663 0.0000 0.0000
# 5 0.0000 0.0000 0.0000 0.0000 24.3129 0.0000
# 6 0.0000 0.0000 0.0000 0.0000 0.0000 26.8054
#
#
#
# Elastic Compliance Matrix: (Units=1/GPa)
#
#
# Indices 1 2 3 4 5 6 
#
# 1 0.013486 -0.007061 -0.001757 0.000000 0.000000 0.000000
# 2 -0.007061 0.015919 -0.004300 0.000000 0.000000 0.000000
# 3 -0.001757 -0.004300 0.009465 0.000000 0.000000 0.000000
# 4 0.000000 0.000000 0.000000 0.039578 0.000000 0.000000
# 5 0.000000 0.000000 0.000000 0.000000 0.041130 0.000000
# 6 0.000000 0.000000 0.000000 0.000000 0.000000 0.037306
#
#
# Mechanical properties :
#
#
# Convention : Reuss Voigt Hill
#
# Bulk Modulus (GPa) = 79.14174 79.63180 79.38677
# Shear Modulus (GPa) = 26.69086 27.88755 27.28921
#
# Velocity S-wave (km/s) = 3.71872 3.80117 3.76017
# Velocity P-wave (km/s) = 7.70992 7.77968 7.74488
#
# Compressibility (1/GPa) = 0.01263556
#
# Stress axis : x y z
#
# Youngs Moduli (GPa) = 74.15343 62.81904 105.65009
#
# Poissons Ratio (x) = 0.44355 0.18559
# Poissons Ratio (y) = 0.52357 0.45426
# Poissons Ratio (z) = 0.13026 0.27010
#
# Static dielectric constant tensor:
#      x y z
#    x 3.653750 0.000000 0.000000 
#    y 0.000000 3.507260 0.000000 
#    z 0.000000 0.000000 3.585470 
# 
# 
# High freq. dielectric constant tensor:
#      x y z
#    x 1.751720 0.000000 0.000000 
#    y 0.000000 1.742360 0.000000 
#    z 0.000000 0.000000 1.762620 
# 
# From -- ./inp_files/8190.got.cif
#   From: 2010.03.12/outbox.cif.g09.slc.cpg/sg72_5_cif.got.tgz:8190.got - 2010.04.16 14:54:00.
