data_PCOD8294260
_publ_section_title
;
Structure prediction by ZEFSAII (Michael W. Deem and Ramdas Pophale) SiO2 
 PCOD8294260
Probable space group: I B A M
;
_chemical_formula_sum "Si O2"
_cell_formula_units_Z 64
_cell_length_a 11.216365
_cell_length_b 8.633583
_cell_length_c 32.052791
_cell_angle_alpha 90.000000
_cell_angle_beta 90.000000
_cell_angle_gamma 90.000000
_cell_volume 3103.909526
_symmetry_space_group_name_H-M "I B A M"
_symmetry_group_IT_number 72
_symmetry_cell_setting 'orthorhombic'
loop_
_space_group_symop_operation_xyz
x,y,z
-x,-y,z
x,-y,1/2-z
-x,y,1/2-z
-x,-y,-z
x,y,-z
-x,y,1/2+z
x,-y,1/2+z
1/2+x,1/2+y,1/2+z
1/2-x,1/2-y,1/2+z
1/2+x,1/2-y,-z
1/2-x,1/2+y,-z
1/2-x,1/2-y,1/2-z
1/2+x,1/2+y,1/2-z
1/2-x,1/2+y,z
1/2+x,1/2-y,z
loop_
_atom_site_type_symbol
_atom_site_label
_atom_site_fract_x
_atom_site_fract_y
_atom_site_fract_z
Si Si1 0.880049 0.418726 0.548072
Si Si2 0.622312 0.415693 0.360144
Si Si3 0.251282 0.336137 0.406392
Si Si4 0.872510 0.828026 0.734107
O O1 0.881082 0.368034 0.500000
O O2 0.780959 0.551092 0.555324
O O3 0.860819 0.268324 0.577034
O O4 0.000000 0.500000 0.562909
O O5 0.500000 0.500000 0.369494
O O6 0.716955 0.556074 0.366329
O O7 0.643889 0.278235 0.393301
O O8 0.629681 0.333732 0.315597
O O9 0.750000 0.750000 0.750000
O O10 0.000000 0.751053 0.750000
O O11 0.870544 0.000000 0.750000
#
# Coordination Sequence:
#
# PCOD8294260 Si02
#       4
#    16  16  16  16
#     4  10  20  37  58  85 120 156 195 241 291 354
#     4  11  21  38  60  84 118 155 197 253 293 362
#     4  10  22  36  58  89 117 154 201 240 305 342
#     4  11  23  42  63  89 121 159 200 251 307 363
#
# _framework density 20.619157999999999
#
# number of rings (size 3 to 8) (size 9 to 14) (size 15 to 20)
#    0.000    1.500    2.500    3.750    0.000    0.500 
#    0.000    0.000    0.000   12.000    0.000    0.000 
#    0.000    0.000    0.000    0.000    0.000    0.000 
#
# Total GULP energy -396433.950782 kJ/mol
# GULP energy per Si atom -12388.560962 kJ/mol
# Density = 2.057223 g / cm^3
# Si number density = 20.619158 Si / 1000 Ang^3
#
#
#
# Elastic Constant Matrix: (Units=GPa)
#
#
# Indices 1 2 3 4 5 6 
#
# 1 122.3197 33.7599 22.3617 0.0000 0.0000 -0.0001
# 2 33.7599 85.2440 27.0998 0.0000 0.0000 -0.0005
# 3 22.3617 27.0998 84.7892 0.0000 0.0000 -0.0003
# 4 0.0000 0.0000 0.0000 4.1380 0.0000 -0.0003
# 5 0.0000 0.0000 0.0000 0.0000 37.6149 0.0001
# 6 -0.0001 -0.0005 -0.0003 -0.0003 0.0001 354.8269
#
#
#
# Elastic Compliance Matrix: (Units=1/GPa)
#
#
# Indices 1 2 3 4 5 6 
#
# 1 0.009331 -0.003242 -0.001424 0.000000 0.000000 0.000000
# 2 -0.003242 0.014185 -0.003678 0.000000 0.000000 0.000000
# 3 -0.001424 -0.003678 0.013345 0.000000 0.000000 0.000000
# 4 0.000000 0.000000 0.000000 0.241664 0.000000 0.000000
# 5 0.000000 0.000000 0.000000 0.000000 0.026585 0.000000
# 6 0.000000 0.000000 0.000000 0.000000 0.000000 0.002818
#
#
# Mechanical properties :
#
#
# Convention : Reuss Voigt Hill
#
# Bulk Modulus (GPa) = 49.57907 50.97732 50.27820
# Shear Modulus (GPa) = 15.09016 93.25805 54.17410
#
# Velocity S-wave (km/s) = 2.70821 6.73253 5.13135
# Velocity P-wave (km/s) = 5.82036 9.23109 7.71653
#
# Compressibility (1/GPa) = 0.02016980
#
# Stress axis : x y z
#
# Youngs Moduli (GPa) = 107.17410 70.49914 74.93263
#
# Poissons Ratio (x) = 0.22859 0.10674
# Poissons Ratio (y) = 0.34751 0.27564
# Poissons Ratio (z) = 0.15267 0.25933
#
# Static dielectric constant tensor:
#      x y z
#    x 4.923000 0.000000 0.000000 
#    y 0.000000 3.851920 0.000000 
#    z 0.000000 0.000000 3.750000 
# 
# 
# High freq. dielectric constant tensor:
#      x y z
#    x 1.806930 0.000000 0.000000 
#    y 0.000000 1.813210 0.000000 
#    z 0.000000 0.000000 1.801880 
# 
# From -- ./inp_files/50574.got.cif
#   From: 2010.03.12/outbox.cif.g09.slc.cpg/sg72_26_cif.got.tgz:50574.got - 2010.04.16 14:54:00.
