data_PCOD8294720
_publ_section_title
;
Structure prediction by ZEFSAII (Michael W. Deem and Ramdas Pophale) SiO2 
 PCOD8294720
Probable space group: I B A M
;
_chemical_formula_sum "Si O2"
_cell_formula_units_Z 80
_cell_length_a 8.780633
_cell_length_b 26.206508
_cell_length_c 15.674588
_cell_angle_alpha 90.000000
_cell_angle_beta 90.000000
_cell_angle_gamma 90.000000
_cell_volume 3606.875196
_symmetry_space_group_name_H-M "I B A M"
_symmetry_group_IT_number 72
_symmetry_cell_setting 'orthorhombic'
loop_
_space_group_symop_operation_xyz
x,y,z
-x,-y,z
x,-y,1/2-z
-x,y,1/2-z
-x,-y,-z
x,y,-z
-x,y,1/2+z
x,-y,1/2+z
1/2+x,1/2+y,1/2+z
1/2-x,1/2-y,1/2+z
1/2+x,1/2-y,-z
1/2-x,1/2+y,-z
1/2-x,1/2-y,1/2-z
1/2+x,1/2+y,1/2-z
1/2-x,1/2+y,z
1/2+x,1/2-y,z
loop_
_atom_site_type_symbol
_atom_site_label
_atom_site_fract_x
_atom_site_fract_y
_atom_site_fract_z
Si Si1 0.771348 0.733376 0.347295
Si Si2 0.896109 0.865231 0.172073
Si Si3 0.924433 0.317187 0.596201
Si Si4 0.152585 0.586906 0.712601
Si Si5 0.404211 0.451486 0.902087
O O1 0.750000 0.750000 0.250000
O O2 0.664454 0.685395 0.374111
O O3 0.726628 0.781929 0.405040
O O4 0.944181 0.718385 0.365218
O O5 0.751730 0.896650 0.206222
O O6 0.000000 0.847100 0.250000
O O7 0.995920 0.900273 0.108985
O O8 0.960170 0.335788 0.500000
O O9 0.899103 0.365059 0.656584
O O10 0.250302 0.548649 0.653897
O O11 0.000000 0.560090 0.750000
O O12 0.500000 0.500000 0.870611
O O13 0.355701 0.456850 0.000000
#
# Coordination Sequence:
#
# PCOD8294720 Si02
#       5
#    16  16  16  16  16
#     4  12  22  41  62  89 132 181 228 275 331 399
#     4  10  21  38  67  93 125 176 227 267 330 403
#     4  12  25  38  59  95 134 176 224 280 336 393
#     4  11  21  43  68  97 130 174 225 275 331 397
#     4  10  24  46  71 101 137 172 215 280 349 408
#
# _framework density 22.179863000000001
#
# number of rings (size 3 to 8) (size 9 to 14) (size 15 to 20)
#    0.000    1.000    4.000    3.000    2.800    5.200 
#    0.000    2.000    0.000    2.400    0.000    0.000 
#    0.000    0.000    0.000    0.000    0.000    0.000 
#
# Total GULP energy -496052.257589 kJ/mol
# GULP energy per Si atom -12401.306440 kJ/mol
# Density = 2.212938 g / cm^3
# Si number density = 22.179863 Si / 1000 Ang^3
#
#
#
# Elastic Constant Matrix: (Units=GPa)
#
#
# Indices 1 2 3 4 5 6 
#
# 1 136.7263 35.0134 40.9998 0.0000 0.0000 0.0000
# 2 35.0134 83.7047 21.1938 0.0000 0.0000 0.0000
# 3 40.9998 21.1938 85.9449 -0.0002 0.0000 0.0001
# 4 0.0000 0.0000 -0.0002 24.3770 0.0000 0.0000
# 5 0.0000 0.0000 0.0000 0.0000 27.3568 0.0000
# 6 0.0000 0.0000 0.0001 0.0000 0.0000 36.6103
#
#
#
# Elastic Compliance Matrix: (Units=1/GPa)
#
#
# Indices 1 2 3 4 5 6 
#
# 1 0.009152 -0.002904 -0.003650 0.000000 0.000000 0.000000
# 2 -0.002904 0.013664 -0.001984 0.000000 0.000000 0.000000
# 3 -0.003650 -0.001984 0.013866 0.000000 0.000000 0.000000
# 4 0.000000 0.000000 0.000000 0.041022 0.000000 0.000000
# 5 0.000000 0.000000 0.000000 0.000000 0.036554 0.000000
# 6 0.000000 0.000000 0.000000 0.000000 0.000000 0.027315
#
#
# Mechanical properties :
#
#
# Convention : Reuss Voigt Hill
#
# Bulk Modulus (GPa) = 51.00564 55.64332 53.32448
# Shear Modulus (GPa) = 30.26928 31.61342 30.94135
#
# Velocity S-wave (km/s) = 3.69822 3.77944 3.73905
# Velocity P-wave (km/s) = 6.42511 6.64735 6.53718
#
# Compressibility (1/GPa) = 0.01960568
#
# Stress axis : x y z
#
# Youngs Moduli (GPa) = 109.26516 73.18542 72.12009
#
# Poissons Ratio (x) = 0.21254 0.26322
# Poissons Ratio (y) = 0.31732 0.14309
# Poissons Ratio (z) = 0.39880 0.14520
#
# Static dielectric constant tensor:
#      x y z
#    x 4.366740 0.000000 0.000000 
#    y 0.000000 3.911480 0.000000 
#    z 0.000000 0.000000 3.848220 
# 
# 
# High freq. dielectric constant tensor:
#      x y z
#    x 1.886970 0.000000 0.000000 
#    y 0.000000 1.862160 0.000000 
#    z 0.000000 0.000000 1.859610 
# 
# From -- ./inp_files/28116.got.cif
#   From: 2010.03.12/outbox.cif.g09.slc.cpg/sg72_15_cif.got.tgz:28116.got - 2010.04.16 14:54:00.
