data_PCOD8294069
_publ_section_title
;
Structure prediction by ZEFSAII (Michael W. Deem and Ramdas Pophale) SiO2 
 PCOD8294069
Probable space group: I B A M
;
_chemical_formula_sum "Si O2"
_cell_formula_units_Z 120
_cell_length_a 13.893854
_cell_length_b 18.537332
_cell_length_c 23.680955
_cell_angle_alpha 90.000000
_cell_angle_beta 90.000000
_cell_angle_gamma 90.000000
_cell_volume 6099.147995
_symmetry_space_group_name_H-M "I B A M"
_symmetry_group_IT_number 72
_symmetry_cell_setting 'orthorhombic'
loop_
_space_group_symop_operation_xyz
x,y,z
-x,-y,z
x,-y,1/2-z
-x,y,1/2-z
-x,-y,-z
x,y,-z
-x,y,1/2+z
x,-y,1/2+z
1/2+x,1/2+y,1/2+z
1/2-x,1/2-y,1/2+z
1/2+x,1/2-y,-z
1/2-x,1/2+y,-z
1/2-x,1/2-y,1/2-z
1/2+x,1/2+y,1/2-z
1/2-x,1/2+y,z
1/2+x,1/2-y,z
loop_
_atom_site_type_symbol
_atom_site_label
_atom_site_fract_x
_atom_site_fract_y
_atom_site_fract_z
Si Si1 0.261023 0.113823 0.350281
Si Si2 0.000000 0.000000 0.617299
Si Si3 0.036036 0.574735 0.687182
Si Si4 0.036501 0.713965 0.875696
Si Si5 0.054121 0.138169 0.310017
Si Si6 0.349506 0.780330 0.062228
Si Si7 0.214304 0.656316 0.937102
Si Si8 0.700010 0.491510 0.065789
O O1 0.348030 0.081662 0.313203
O O2 0.171517 0.131791 0.308184
O O3 0.294719 0.182928 0.385581
O O4 0.234115 0.058535 0.398675
O O5 0.016440 0.069886 0.655738
O O6 0.912417 0.020156 0.576666
O O7 0.000000 0.500000 0.657193
O O8 0.000000 0.572614 0.750000
O O9 0.987930 0.643219 0.659171
O O10 0.028044 0.785935 0.838579
O O11 0.143259 0.702974 0.898678
O O12 0.963648 0.719862 0.927993
O O13 0.000000 0.136720 0.250000
O O14 0.315485 0.697862 0.061345
O O15 0.329519 0.815664 0.000000
O O16 0.237494 0.577018 0.913276
O O17 0.170346 0.649979 0.000000
O O18 0.717559 0.506250 0.000000
#
# Coordination Sequence:
#
# PCOD8294069 Si02
#       8
#    16   8  16  16  16  16  16  16
#     4  10  21  40  61  85 120 161 198 260 306 366
#     4  10  22  40  60  88 128 164 206 262 310 372
#     4  10  22  42  60  87 116 156 207 254 309 365
#     4  11  21  38  61  87 122 160 203 259 305 371
#     4  11  23  42  60  89 123 166 218 259 315 369
#     4  10  20  36  58  87 119 155 198 243 309 374
#     4  10  20  35  56  88 122 157 197 245 305 370
#     4  10  20  36  61  92 123 158 199 245 308 377
#
# _framework density 19.674880000000002
#
# number of rings (size 3 to 8) (size 9 to 14) (size 15 to 20)
#    0.000    1.733    1.333    3.200    0.000    0.000 
#   14.400    3.333    0.000    6.400    0.000    0.000 
#    0.000    0.000    0.000    0.000    0.000    0.000 
#
# Total GULP energy -743667.646909 kJ/mol
# GULP energy per Si atom -12394.460782 kJ/mol
# Density = 1.963010 g / cm^3
# Si number density = 19.674880 Si / 1000 Ang^3
#
#
#
# Elastic Constant Matrix: (Units=GPa)
#
#
# Indices 1 2 3 4 5 6 
#
# 1 121.7811 40.0941 49.5016 0.0000 0.0000 0.0000
# 2 40.0941 118.4955 33.5598 0.0000 0.0000 0.0000
# 3 49.5016 33.5598 88.0294 0.0000 0.0000 0.0000
# 4 0.0000 0.0000 0.0000 29.9580 0.0000 0.0000
# 5 0.0000 0.0000 0.0000 0.0000 30.7828 0.0000
# 6 0.0000 0.0000 0.0000 0.0000 0.0000 27.3833
#
#
#
# Elastic Compliance Matrix: (Units=1/GPa)
#
#
# Indices 1 2 3 4 5 6 
#
# 1 0.011150 -0.002239 -0.005417 0.000000 0.000000 0.000000
# 2 -0.002239 0.009910 -0.002519 0.000000 0.000000 0.000000
# 3 -0.005417 -0.002519 0.015366 0.000000 0.000000 0.000000
# 4 0.000000 0.000000 0.000000 0.033380 0.000000 0.000000
# 5 0.000000 0.000000 0.000000 0.000000 0.032486 0.000000
# 6 0.000000 0.000000 0.000000 0.000000 0.000000 0.036519
#
#
# Mechanical properties :
#
#
# Convention : Reuss Voigt Hill
#
# Bulk Modulus (GPa) = 62.19885 63.84632 63.02258
# Shear Modulus (GPa) = 30.39158 31.30151 30.84654
#
# Velocity S-wave (km/s) = 3.93452 3.99298 3.96386
# Velocity P-wave (km/s) = 7.23343 7.33346 7.28362
#
# Compressibility (1/GPa) = 0.01607747
#
# Stress axis : x y z
#
# Youngs Moduli (GPa) = 89.68388 100.90711 65.07789
#
# Poissons Ratio (x) = 0.22590 0.35251
# Poissons Ratio (y) = 0.20078 0.16394
# Poissons Ratio (z) = 0.48579 0.25420
#
# Static dielectric constant tensor:
#      x y z
#    x 3.757670 0.000000 0.000000 
#    y 0.000000 4.202410 0.000000 
#    z 0.000000 0.000000 3.462590 
# 
# 
# High freq. dielectric constant tensor:
#      x y z
#    x 1.775320 0.000000 0.000000 
#    y 0.000000 1.783510 0.000000 
#    z 0.000000 0.000000 1.755250 
# 
# From -- ./inp_files/38457.got.cif
#   From: 2010.03.12/outbox.cif.g09.slc.cpg/sg72_20_cif.got.tgz:38457.got - 2010.04.16 14:54:00.
