data_PCOD8294952
_publ_section_title
;
Structure prediction by ZEFSAII (Michael W. Deem and Ramdas Pophale) SiO2 
 PCOD8294952
Probable space group: I B A M
;
_chemical_formula_sum "Si O2"
_cell_formula_units_Z 68
_cell_length_a 22.060604
_cell_length_b 9.175671
_cell_length_c 13.961636
_cell_angle_alpha 90.000000
_cell_angle_beta 90.000000
_cell_angle_gamma 90.000000
_cell_volume 2826.126148
_symmetry_space_group_name_H-M "I B A M"
_symmetry_group_IT_number 72
_symmetry_cell_setting 'orthorhombic'
loop_
_space_group_symop_operation_xyz
x,y,z
-x,-y,z
x,-y,1/2-z
-x,y,1/2-z
-x,-y,-z
x,y,-z
-x,y,1/2+z
x,-y,1/2+z
1/2+x,1/2+y,1/2+z
1/2-x,1/2-y,1/2+z
1/2+x,1/2-y,-z
1/2-x,1/2+y,-z
1/2-x,1/2-y,1/2-z
1/2+x,1/2+y,1/2-z
1/2-x,1/2+y,z
1/2+x,1/2-y,z
loop_
_atom_site_type_symbol
_atom_site_label
_atom_site_fract_x
_atom_site_fract_y
_atom_site_fract_z
Si Si1 0.433517 0.013863 0.890685
Si Si2 0.319425 0.152643 0.384786
Si Si3 0.794148 0.025465 0.387573
Si Si4 0.589032 0.654312 0.109465
Si Si5 0.000000 0.000000 0.250000
O O1 0.384905 0.901483 0.844166
O O2 0.500000 0.000000 0.840675
O O3 0.404503 0.172853 0.882292
O O4 0.441963 0.965660 0.000000
O O5 0.319694 0.151182 0.500000
O O6 0.306934 0.314501 0.344013
O O7 0.267619 0.043077 0.345895
O O8 0.788189 0.041211 0.500000
O O9 0.848018 0.917314 0.358579
O O10 0.537659 0.603930 0.181317
O O11 0.572471 0.609485 0.000000
#
# Coordination Sequence:
#
# PCOD8294952 Si02
#       5
#    16  16  16  16   4
#     4   9  18  32  55  87 123 161 204 250 301 362
#     4   9  16  28  52  89 124 158 203 251 300 361
#     4   9  17  30  55  87 120 159 205 251 302 360
#     4  10  22  40  62  88 122 162 204 252 306 361
#     4  12  26  40  62  90 124 160 206 256 300 374
#
# _framework density 24.061204
#
# number of rings (size 3 to 8) (size 9 to 14) (size 15 to 20)
#    0.000    2.588    0.000    1.765    3.294    5.647 
#    0.000    0.588    0.000    5.647    0.000    0.000 
#    0.000    0.000    0.000    0.000    0.000    0.000 
#
# Total GULP energy -421510.422077 kJ/mol
# GULP energy per Si atom -12397.365355 kJ/mol
# Density = 2.400644 g / cm^3
# Si number density = 24.061204 Si / 1000 Ang^3
#
#
#
# Elastic Constant Matrix: (Units=GPa)
#
#
# Indices 1 2 3 4 5 6 
#
# 1 233.1831 116.0427 15.6197 0.0000 0.0000 0.0000
# 2 116.0427 171.6005 4.3111 0.0000 0.0000 0.0000
# 3 15.6197 4.3111 58.7350 0.0000 0.0000 0.0000
# 4 0.0000 0.0000 0.0000 -0.4496 0.0000 0.0000
# 5 0.0000 0.0000 0.0000 0.0000 -50.1593 0.0000
# 6 0.0000 0.0000 0.0000 0.0000 0.0000 51.5240
#
#
#
# Elastic Compliance Matrix: (Units=1/GPa)
#
#
# Indices 1 2 3 4 5 6 
#
# 1 0.006581 -0.004414 -0.001426 0.000000 0.000000 0.000000
# 2 -0.004414 0.008799 0.000528 0.000000 0.000000 0.000000
# 3 -0.001426 0.000528 0.017366 0.000000 0.000000 0.000000
# 4 0.000000 0.000000 0.000000 -2.224207 0.000000 0.000000
# 5 0.000000 0.000000 0.000000 0.000000 -0.019937 0.000000
# 6 0.000000 0.000000 0.000000 0.000000 0.000000 0.019408
#
#
# Mechanical properties :
#
#
# Convention : Reuss Voigt Hill
#
# Bulk Modulus (GPa) = 45.20474 81.71841 63.46157
# Shear Modulus (GPa) = -2.29992 22.01937 9.85972
#
# Velocity S-wave (km/s) = -0.97874 3.02841 2.02649
# Velocity P-wave (km/s) = 4.18938 6.80182 5.64871
#
# Compressibility (1/GPa) = 0.02212158
#
# Stress axis : x y z
#
# Youngs Moduli (GPa) = 151.95758 113.64448 57.58348
#
# Poissons Ratio (x) = 0.50167 0.08212
# Poissons Ratio (y) = 0.67079 -0.03041
# Poissons Ratio (z) = 0.21670 -0.06001
#
# Static dielectric constant tensor:
#      x y z
#    x 4.595760 0.000000 0.000000 
#    y 0.000000 4.364380 0.000000 
#    z 0.000000 0.000000 3.932800 
# 
# 
# High freq. dielectric constant tensor:
#      x y z
#    x 1.962770 0.000000 0.000000 
#    y 0.000000 1.957200 0.000000 
#    z 0.000000 0.000000 1.934830 
# 
# From -- ./inp_files/32308.got.cif
#   From: 2010.03.12/outbox.cif.g09.slc.cpg/sg72_17_cif.got.tgz:32308.got - 2010.04.16 14:54:00.
