data_PCOD8294408
_publ_section_title
;
Structure prediction by ZEFSAII (Michael W. Deem and Ramdas Pophale) SiO2 
 PCOD8294408
Probable space group: I B A M
;
_chemical_formula_sum "Si O2"
_cell_formula_units_Z 96
_cell_length_a 9.830328
_cell_length_b 22.420726
_cell_length_c 21.363094
_cell_angle_alpha 90.000000
_cell_angle_beta 90.000000
_cell_angle_gamma 90.000000
_cell_volume 4708.491942
_symmetry_space_group_name_H-M "I B A M"
_symmetry_group_IT_number 72
_symmetry_cell_setting 'orthorhombic'
loop_
_space_group_symop_operation_xyz
x,y,z
-x,-y,z
x,-y,1/2-z
-x,y,1/2-z
-x,-y,-z
x,y,-z
-x,y,1/2+z
x,-y,1/2+z
1/2+x,1/2+y,1/2+z
1/2-x,1/2-y,1/2+z
1/2+x,1/2-y,-z
1/2-x,1/2+y,-z
1/2-x,1/2-y,1/2-z
1/2+x,1/2+y,1/2-z
1/2-x,1/2+y,z
1/2+x,1/2-y,z
loop_
_atom_site_type_symbol
_atom_site_label
_atom_site_fract_x
_atom_site_fract_y
_atom_site_fract_z
Si Si1 0.213636 0.373316 0.868649
Si Si2 0.072166 0.671322 0.887140
Si Si3 0.553455 0.698249 0.925763
Si Si4 0.181257 0.115764 0.931198
Si Si5 0.657866 0.808169 0.755912
Si Si6 0.840976 0.011665 0.927467
O O1 0.297278 0.323350 0.906430
O O2 0.208524 0.356823 0.794896
O O3 0.280730 0.437571 0.881855
O O4 0.058059 0.371779 0.892619
O O5 0.021310 0.738920 0.893335
O O6 0.181788 0.654514 0.939643
O O7 0.163571 0.661517 0.824183
O O8 0.441216 0.652124 0.897870
O O9 0.542183 0.705650 0.000000
O O10 0.221815 0.051173 0.902839
O O11 0.122104 0.101391 0.000000
O O12 0.500000 0.788803 0.750000
O O13 0.750000 0.750000 0.750000
O O14 0.805649 0.028142 0.000000
O O15 0.000000 0.000000 0.918183
#
# Coordination Sequence:
#
# PCOD8294408 Si02
#       6
#    16  16  16  16  16  16
#     4  11  22  38  61  87 119 163 210 254 313 371
#     4  11  23  37  57  91 126 160 203 255 316 378
#     4  11  21  35  59  89 124 163 202 255 316 384
#     4  10  22  38  59  90 125 161 202 258 316 373
#     4  10  22  39  60  87 119 160 203 250 310 365
#     4  10  20  39  64  87 119 163 210 256 313 381
#
# _framework density 20.388694000000001
#
# number of rings (size 3 to 8) (size 9 to 14) (size 15 to 20)
#    0.000    1.500    3.333    2.000    2.333    4.667 
#    0.000    2.500    0.000    4.000    0.000    0.000 
#    0.000    0.000    0.000    0.000    0.000    0.000 
#
# Total GULP energy -594793.212126 kJ/mol
# GULP energy per Si atom -12391.525253 kJ/mol
# Density = 2.034229 g / cm^3
# Si number density = 20.388694 Si / 1000 Ang^3
#
#
#
# Elastic Constant Matrix: (Units=GPa)
#
#
# Indices 1 2 3 4 5 6 
#
# 1 118.2866 56.8004 34.8623 0.0000 0.0000 0.0000
# 2 56.8004 145.7986 45.7069 0.0000 0.0000 0.0000
# 3 34.8623 45.7069 80.6859 0.0000 0.0000 0.0000
# 4 0.0000 0.0000 0.0000 29.9197 0.0000 0.0000
# 5 0.0000 0.0000 0.0000 0.0000 26.2265 0.0000
# 6 0.0000 0.0000 0.0000 0.0000 0.0000 37.4524
#
#
#
# Elastic Compliance Matrix: (Units=1/GPa)
#
#
# Indices 1 2 3 4 5 6 
#
# 1 0.010896 -0.003367 -0.002801 0.000000 0.000000 0.000000
# 2 -0.003367 0.009380 -0.003859 0.000000 0.000000 0.000000
# 3 -0.002801 -0.003859 0.015790 0.000000 0.000000 0.000000
# 4 0.000000 0.000000 0.000000 0.033423 0.000000 0.000000
# 5 0.000000 0.000000 0.000000 0.000000 0.038129 0.000000
# 6 0.000000 0.000000 0.000000 0.000000 0.000000 0.026701
#
#
# Mechanical properties :
#
#
# Convention : Reuss Voigt Hill
#
# Bulk Modulus (GPa) = 62.44853 68.83448 65.64151
# Shear Modulus (GPa) = 31.30673 32.54647 31.92660
#
# Velocity S-wave (km/s) = 3.92279 3.99971 3.96143
# Velocity P-wave (km/s) = 7.15634 7.42729 7.29307
#
# Compressibility (1/GPa) = 0.01601319
#
# Stress axis : x y z
#
# Youngs Moduli (GPa) = 91.77439 106.60702 63.33194
#
# Poissons Ratio (x) = 0.35895 0.17737
# Poissons Ratio (y) = 0.30900 0.24439
# Poissons Ratio (z) = 0.25703 0.41139
#
# Static dielectric constant tensor:
#      x y z
#    x 3.709270 0.000000 0.000000 
#    y 0.000000 3.834940 0.000000 
#    z 0.000000 0.000000 3.857370 
# 
# 
# High freq. dielectric constant tensor:
#      x y z
#    x 1.806860 0.000000 0.000000 
#    y 0.000000 1.793960 0.000000 
#    z 0.000000 0.000000 1.779790 
# 
# From -- ./inp_files/42399.got.cif
#   From: 2010.03.12/outbox.cif.g09.slc.cpg/sg72_22_cif.got.tgz:42399.got - 2010.04.16 14:54:00.
