data_PCOD8294800
_publ_section_title
;
Structure prediction by ZEFSAII (Michael W. Deem and Ramdas Pophale) SiO2 
 PCOD8294800
Probable space group: I B A M
;
_chemical_formula_sum "Si O2"
_cell_formula_units_Z 96
_cell_length_a 11.904690
_cell_length_b 18.293265
_cell_length_c 21.625787
_cell_angle_alpha 90.000000
_cell_angle_beta 90.000000
_cell_angle_gamma 90.000000
_cell_volume 4709.569797
_symmetry_space_group_name_H-M "I B A M"
_symmetry_group_IT_number 72
_symmetry_cell_setting 'orthorhombic'
loop_
_space_group_symop_operation_xyz
x,y,z
-x,-y,z
x,-y,1/2-z
-x,y,1/2-z
-x,-y,-z
x,y,-z
-x,y,1/2+z
x,-y,1/2+z
1/2+x,1/2+y,1/2+z
1/2-x,1/2-y,1/2+z
1/2+x,1/2-y,-z
1/2-x,1/2+y,-z
1/2-x,1/2-y,1/2-z
1/2+x,1/2+y,1/2-z
1/2-x,1/2+y,z
1/2+x,1/2-y,z
loop_
_atom_site_type_symbol
_atom_site_label
_atom_site_fract_x
_atom_site_fract_y
_atom_site_fract_z
Si Si1 0.842035 0.825100 0.630730
Si Si2 0.623701 0.851706 0.432050
Si Si3 0.428002 0.687972 0.931763
Si Si4 0.866866 0.916436 0.744013
Si Si5 0.269286 0.835252 0.345768
Si Si6 0.989308 0.414825 0.179662
O O1 0.757064 0.837337 0.573940
O O2 0.821272 0.890102 0.678533
O O3 0.819942 0.746217 0.662982
O O4 0.969066 0.838265 0.609509
O O5 0.603139 0.889991 0.500000
O O6 0.559898 0.775082 0.432986
O O7 0.583749 0.893460 0.370511
O O8 0.307322 0.661194 0.906939
O O9 0.439102 0.654501 0.000000
O O10 0.811983 0.859613 0.791075
O O11 0.000000 0.910657 0.750000
O O12 0.824819 0.000000 0.750000
O O13 0.371122 0.892241 0.350499
O O14 0.000000 0.500000 0.187862
O O15 0.000000 0.380120 0.250000
#
# Coordination Sequence:
#
# PCOD8294800 Si02
#       6
#    16  16  16  16  16  16
#     4  11  21  40  65  96 126 164 216 268 322 389
#     4  10  22  40  63  92 127 170 212 261 324 389
#     4  10  21  40  64  93 125 163 214 273 321 376
#     4  11  24  40  64  92 130 169 212 270 333 391
#     4  11  23  40  65  95 126 169 216 265 322 394
#     4  11  25  42  64  95 133 172 212 267 331 391
#
# _framework density 20.384028000000001
#
# number of rings (size 3 to 8) (size 9 to 14) (size 15 to 20)
#    0.000    1.333    3.333    2.000    4.667    3.667 
#    0.000    0.000    0.000    1.000    0.000    0.000 
#    0.000    0.000    0.000    0.000    0.000    0.000 
#
# Total GULP energy -594863.156478 kJ/mol
# GULP energy per Si atom -12392.982427 kJ/mol
# Density = 2.033763 g / cm^3
# Si number density = 20.384028 Si / 1000 Ang^3
#
#
#
# Elastic Constant Matrix: (Units=GPa)
#
#
# Indices 1 2 3 4 5 6 
#
# 1 105.7210 40.1712 36.3847 0.0000 0.0000 0.0000
# 2 40.1712 81.0517 56.9830 0.0000 0.0000 0.0000
# 3 36.3847 56.9830 142.0220 0.0000 0.0000 0.0000
# 4 0.0000 0.0000 0.0000 -14.4357 0.0000 0.0000
# 5 0.0000 0.0000 0.0000 0.0000 21.5776 0.0000
# 6 0.0000 0.0000 0.0000 0.0000 0.0000 22.8440
#
#
#
# Elastic Compliance Matrix: (Units=1/GPa)
#
#
# Indices 1 2 3 4 5 6 
#
# 1 0.011742 -0.005161 -0.000938 0.000000 0.000000 0.000000
# 2 -0.005161 0.019453 -0.006483 0.000000 0.000000 0.000000
# 3 -0.000938 -0.006483 0.009883 0.000000 0.000000 0.000000
# 4 0.000000 0.000000 0.000000 -0.069273 0.000000 0.000000
# 5 0.000000 0.000000 0.000000 0.000000 0.046344 0.000000
# 6 0.000000 0.000000 0.000000 0.000000 0.000000 0.043775
#
#
# Mechanical properties :
#
#
# Convention : Reuss Voigt Hill
#
# Bulk Modulus (GPa) = 62.83147 66.20805 64.51976
# Shear Modulus (GPa) = 54.11638 19.01425 36.56531
#
# Velocity S-wave (km/s) = 5.15811 3.05749 4.23995
# Velocity P-wave (km/s) = 8.14650 6.70934 7.46260
#
# Compressibility (1/GPa) = 0.01591559
#
# Stress axis : x y z
#
# Youngs Moduli (GPa) = 85.16091 51.40468 101.18773
#
# Poissons Ratio (x) = 0.26528 0.09489
# Poissons Ratio (y) = 0.43948 0.65602
# Poissons Ratio (z) = 0.07986 0.33326
#
# Static dielectric constant tensor:
#      x y z
#    x 3.800940 0.000000 0.000000 
#    y 0.000000 3.515590 0.000000 
#    z 0.000000 0.000000 3.942240 
# 
# 
# High freq. dielectric constant tensor:
#      x y z
#    x 1.812470 0.000000 0.000000 
#    y 0.000000 1.771260 0.000000 
#    z 0.000000 0.000000 1.801860 
# 
# From -- ./inp_files/43354.got.cif
#   From: 2010.03.12/outbox.cif.g09.slc.cpg/sg72_22_cif.got.tgz:43354.got - 2010.04.16 14:54:00.
