data_PCOD8294193
_publ_section_title
;
Structure prediction by ZEFSAII (Michael W. Deem and Ramdas Pophale) SiO2 
 PCOD8294193
Probable space group: I B A M
;
_chemical_formula_sum "Si O2"
_cell_formula_units_Z 88
_cell_length_a 11.605450
_cell_length_b 25.891583
_cell_length_c 14.603479
_cell_angle_alpha 90.000000
_cell_angle_beta 90.000000
_cell_angle_gamma 90.000000
_cell_volume 4388.104072
_symmetry_space_group_name_H-M "I B A M"
_symmetry_group_IT_number 72
_symmetry_cell_setting 'orthorhombic'
loop_
_space_group_symop_operation_xyz
x,y,z
-x,-y,z
x,-y,1/2-z
-x,y,1/2-z
-x,-y,-z
x,y,-z
-x,y,1/2+z
x,-y,1/2+z
1/2+x,1/2+y,1/2+z
1/2-x,1/2-y,1/2+z
1/2+x,1/2-y,-z
1/2-x,1/2+y,-z
1/2-x,1/2-y,1/2-z
1/2+x,1/2+y,1/2-z
1/2-x,1/2+y,z
1/2+x,1/2-y,z
loop_
_atom_site_type_symbol
_atom_site_label
_atom_site_fract_x
_atom_site_fract_y
_atom_site_fract_z
Si Si1 0.563692 0.865179 0.000000
Si Si2 0.525452 0.941472 0.354641
Si Si3 0.308303 0.690916 0.000000
Si Si4 0.241270 0.885466 0.852574
Si Si5 0.172263 0.688903 0.500000
Si Si6 0.892826 0.147250 0.310016
Si Si7 0.507972 0.557570 0.104187
O O1 0.552992 0.901947 0.911621
O O2 0.686224 0.837571 0.000000
O O3 0.465437 0.821009 0.000000
O O4 0.500000 0.933068 0.250000
O O5 0.659459 0.927993 0.364902
O O6 0.500000 0.000000 0.387297
O O7 0.375997 0.677846 0.905502
O O8 0.293898 0.751722 0.000000
O O9 0.221588 0.859399 0.752297
O O10 0.131584 0.915915 0.889052
O O11 0.269197 0.835447 0.911567
O O12 0.000000 0.171431 0.250000
O O13 0.918938 0.088167 0.333772
O O14 0.500000 0.500000 0.143043
O O15 0.464727 0.558868 0.000000
#
# Coordination Sequence:
#
# PCOD8294193 Si02
#       7
#     8  16   8  16   8  16  16
#     4  10  23  40  60  90 120 154 203 253 293 360
#     4  10  21  38  59  87 122 161 202 242 294 364
#     4  12  24  43  66  91 120 159 208 264 308 346
#     4  10  21  40  61  84 124 166 198 249 314 360
#     4  10  24  43  64  85 120 165 203 251 315 366
#     4  10  23  39  63  94 126 156 203 255 302 369
#     4  10  20  36  59  91 125 160 200 241 301 374
#
# _framework density 20.054219
#
# number of rings (size 3 to 8) (size 9 to 14) (size 15 to 20)
#    0.000    1.818    1.818    1.364    0.000   11.273 
#    0.000    3.636    0.000    0.000    0.000    0.000 
#    0.000    0.000    0.000    0.000    0.000    0.000 
#
# Total GULP energy -545341.844858 kJ/mol
# GULP energy per Si atom -12394.132838 kJ/mol
# Density = 2.000857 g / cm^3
# Si number density = 20.054219 Si / 1000 Ang^3
#
#
#
# Elastic Constant Matrix: (Units=GPa)
#
#
# Indices 1 2 3 4 5 6 
#
# 1 96.5522 63.0656 49.4755 0.0000 0.0000 0.0000
# 2 63.0656 144.9406 60.3620 -0.0002 0.0000 0.0000
# 3 49.4755 60.3620 132.9244 -0.0003 0.0000 0.0000
# 4 0.0000 -0.0002 -0.0003 35.3293 0.0000 0.0000
# 5 0.0000 0.0000 0.0000 0.0000 32.9073 0.0000
# 6 0.0000 0.0000 0.0000 0.0000 0.0000 21.4811
#
#
#
# Elastic Compliance Matrix: (Units=1/GPa)
#
#
# Indices 1 2 3 4 5 6 
#
# 1 0.015597 -0.005388 -0.003359 0.000000 0.000000 0.000000
# 2 -0.005388 0.010370 -0.002704 0.000000 0.000000 0.000000
# 3 -0.003359 -0.002704 0.010001 0.000000 0.000000 0.000000
# 4 0.000000 0.000000 0.000000 0.028305 0.000000 0.000000
# 5 0.000000 0.000000 0.000000 0.000000 0.030388 0.000000
# 6 0.000000 0.000000 0.000000 0.000000 0.000000 0.046553
#
#
# Mechanical properties :
#
#
# Convention : Reuss Voigt Hill
#
# Bulk Modulus (GPa) = 76.52508 80.02481 78.27495
# Shear Modulus (GPa) = 29.67883 31.37782 30.52832
#
# Velocity S-wave (km/s) = 3.85116 3.95986 3.90589
# Velocity P-wave (km/s) = 7.61690 7.80373 7.71088
#
# Compressibility (1/GPa) = 0.01306761
#
# Stress axis : x y z
#
# Youngs Moduli (GPa) = 64.11307 96.43568 99.99046
#
# Poissons Ratio (x) = 0.51958 0.33585
# Poissons Ratio (y) = 0.34543 0.27033
# Poissons Ratio (z) = 0.21535 0.26072
#
# Static dielectric constant tensor:
#      x y z
#    x 3.836240 0.000000 0.000000 
#    y 0.000000 3.520420 0.000000 
#    z 0.000000 0.000000 3.911720 
# 
# 
# High freq. dielectric constant tensor:
#      x y z
#    x 1.778340 0.000000 0.000000 
#    y 0.000000 1.771340 0.000000 
#    z 0.000000 0.000000 1.808420 
# 
# From -- ./inp_files/20345.got.cif
#   From: 2010.03.12/outbox.cif.g09.slc.cpg/sg72_11_cif.got.tgz:20345.got - 2010.04.16 14:54:00.
