data_PCOD8294308
_publ_section_title
;
Structure prediction by ZEFSAII (Michael W. Deem and Ramdas Pophale) SiO2 
 PCOD8294308
Probable space group: I B A M
;
_chemical_formula_sum "Si O2"
_cell_formula_units_Z 64
_cell_length_a 8.805349
_cell_length_b 20.601683
_cell_length_c 16.090574
_cell_angle_alpha 90.000000
_cell_angle_beta 90.000000
_cell_angle_gamma 90.000000
_cell_volume 2918.910718
_symmetry_space_group_name_H-M "I B A M"
_symmetry_group_IT_number 72
_symmetry_cell_setting 'orthorhombic'
loop_
_space_group_symop_operation_xyz
x,y,z
-x,-y,z
x,-y,1/2-z
-x,y,1/2-z
-x,-y,-z
x,y,-z
-x,y,1/2+z
x,-y,1/2+z
1/2+x,1/2+y,1/2+z
1/2-x,1/2-y,1/2+z
1/2+x,1/2-y,-z
1/2-x,1/2+y,-z
1/2-x,1/2-y,1/2-z
1/2+x,1/2+y,1/2-z
1/2-x,1/2+y,z
1/2+x,1/2-y,z
loop_
_atom_site_type_symbol
_atom_site_label
_atom_site_fract_x
_atom_site_fract_y
_atom_site_fract_z
Si Si1 0.614837 0.688408 0.905102
Si Si2 0.080400 0.566135 0.901617
Si Si3 0.059291 0.696233 0.340098
Si Si4 0.075952 0.065352 0.901148
O O1 0.758990 0.699239 0.845956
O O2 0.511209 0.752594 0.904849
O O3 0.518409 0.627606 0.869899
O O4 0.667608 0.675244 0.000000
O O5 0.252277 0.568527 0.867698
O O6 0.000000 0.500000 0.873090
O O7 0.988832 0.623591 0.859850
O O8 0.074049 0.574075 0.000000
O O9 0.000000 0.717219 0.250000
O O10 0.077887 0.063891 0.000000
O O11 0.000000 0.000000 0.865462
#
# Coordination Sequence:
#
# PCOD8294308 Si02
#       4
#    16  16  16  16
#     4  11  22  39  63  88 118 159 208 254 304 373
#     4  10  20  37  62  89 119 159 208 256 304 365
#     4  12  25  40  59  87 124 160 198 254 319 375
#     4   9  18  34  59  90 117 146 194 254 305 353
#
# _framework density 21.925986999999999
#
# number of rings (size 3 to 8) (size 9 to 14) (size 15 to 20)
#    0.000    1.500    0.000    6.000    0.000    6.500 
#    0.000    0.000    0.000    5.250    0.000    0.000 
#    0.000    0.000    0.000    0.000    0.000    0.000 
#
# Total GULP energy -396978.097127 kJ/mol
# GULP energy per Si atom -12405.565535 kJ/mol
# Density = 2.187608 g / cm^3
# Si number density = 21.925987 Si / 1000 Ang^3
#
#
#
# Elastic Constant Matrix: (Units=GPa)
#
#
# Indices 1 2 3 4 5 6 
#
# 1 186.1095 68.2405 23.9550 0.0000 0.0000 0.0000
# 2 68.2405 153.6708 15.9909 0.0000 0.0000 0.0000
# 3 23.9550 15.9909 41.5265 0.0000 0.0000 0.0000
# 4 0.0000 0.0000 0.0000 10.6668 0.0000 0.0000
# 5 0.0000 0.0000 0.0000 0.0000 23.9055 0.0000
# 6 0.0000 0.0000 0.0000 0.0000 0.0000 49.0953
#
#
#
# Elastic Compliance Matrix: (Units=1/GPa)
#
#
# Indices 1 2 3 4 5 6 
#
# 1 0.006726 -0.002691 -0.002844 0.000000 0.000000 0.000000
# 2 -0.002691 0.007856 -0.001473 0.000000 0.000000 0.000000
# 3 -0.002844 -0.001473 0.026289 0.000000 0.000000 0.000000
# 4 0.000000 0.000000 0.000000 0.093748 0.000000 0.000000
# 5 0.000000 0.000000 0.000000 0.000000 0.041831 0.000000
# 6 0.000000 0.000000 0.000000 0.000000 0.000000 0.020369
#
#
# Mechanical properties :
#
#
# Convention : Reuss Voigt Hill
#
# Bulk Modulus (GPa) = 37.23646 66.40883 51.82265
# Shear Modulus (GPa) = 22.74954 34.94158 28.84556
#
# Velocity S-wave (km/s) = 3.22461 3.99634 3.63104
# Velocity P-wave (km/s) = 5.55732 7.18664 6.42385
#
# Compressibility (1/GPa) = 0.02685540
#
# Stress axis : x y z
#
# Youngs Moduli (GPa) = 148.68018 127.29792 38.03937
#
# Poissons Ratio (x) = 0.34254 0.10817
# Poissons Ratio (y) = 0.40007 0.05602
# Poissons Ratio (z) = 0.42280 0.18748
#
# Static dielectric constant tensor:
#      x y z
#    x 4.126780 0.000000 0.000000 
#    y 0.000000 4.067020 0.000000 
#    z 0.000000 0.000000 3.530500 
# 
# 
# High freq. dielectric constant tensor:
#      x y z
#    x 1.876870 0.000000 0.000000 
#    y 0.000000 1.879610 0.000000 
#    z 0.000000 0.000000 1.827390 
# 
# From -- ./inp_files/18685.got.cif
#   From: 2010.03.12/outbox.cif.g09.slc.cpg/sg72_10_cif.got.tgz:18685.got - 2010.04.16 14:54:00.
