data_PCOD8294956
_publ_section_title
;
Structure prediction by ZEFSAII (Michael W. Deem and Ramdas Pophale) SiO2 
 PCOD8294956
Probable space group: I B A M
;
_chemical_formula_sum "Si O2"
_cell_formula_units_Z 96
_cell_length_a 23.288944
_cell_length_b 24.103957
_cell_length_c 8.412743
_cell_angle_alpha 90.000000
_cell_angle_beta 90.000000
_cell_angle_gamma 90.000000
_cell_volume 4722.541276
_symmetry_space_group_name_H-M "I B A M"
_symmetry_group_IT_number 72
_symmetry_cell_setting 'orthorhombic'
loop_
_space_group_symop_operation_xyz
x,y,z
-x,-y,z
x,-y,1/2-z
-x,y,1/2-z
-x,-y,-z
x,y,-z
-x,y,1/2+z
x,-y,1/2+z
1/2+x,1/2+y,1/2+z
1/2-x,1/2-y,1/2+z
1/2+x,1/2-y,-z
1/2-x,1/2+y,-z
1/2-x,1/2-y,1/2-z
1/2+x,1/2+y,1/2-z
1/2-x,1/2+y,z
1/2+x,1/2-y,z
loop_
_atom_site_type_symbol
_atom_site_label
_atom_site_fract_x
_atom_site_fract_y
_atom_site_fract_z
Si Si1 0.937062 0.121425 0.188241
Si Si2 0.730137 0.662656 0.183761
Si Si3 0.372416 0.726382 0.186246
Si Si4 0.166827 0.940337 0.312590
Si Si5 0.355710 0.159776 0.814339
Si Si6 0.563170 0.940186 0.812192
O O1 0.915947 0.181093 0.246462
O O2 0.898231 0.073172 0.263458
O O3 0.000000 0.109666 0.250000
O O4 0.933795 0.118178 0.000000
O O5 0.693752 0.708356 0.281823
O O6 0.710052 0.601438 0.228288
O O7 0.797153 0.665314 0.217565
O O8 0.718104 0.674636 0.000000
O O9 0.389311 0.783442 0.275026
O O10 0.382072 0.733518 0.000000
O O11 0.174494 0.935743 0.500000
O O12 0.184767 0.000000 0.250000
O O13 0.392697 0.107210 0.753545
O O14 0.342564 0.154127 0.000000
O O15 0.500000 0.925510 0.750000
O O16 0.584468 0.000000 0.750000
O O17 0.560494 0.942161 0.000000
#
# Coordination Sequence:
#
# PCOD8294956 Si02
#       6
#    16  16  16  16  16  16
#     4  11  22  39  60  85 116 153 194 240 290 343
#     4  11  22  38  59  85 117 154 191 237 289 342
#     4  11  22  38  59  85 117 154 191 237 289 342
#     4  11  22  39  60  85 116 153 194 240 290 343
#     4  11  23  39  59  87 117 152 193 235 281 342
#     4  10  22  40  63  85 114 148 184 230 282 335
#
# _framework density 20.328037999999999
#
# number of rings (size 3 to 8) (size 9 to 14) (size 15 to 20)
#    0.000    1.167    0.000   10.000    0.000    4.333 
#    0.000    5.000    0.000    0.000    0.000    0.000 
#    0.000    0.000    0.000    0.000    0.000    0.000 
#
# Total GULP energy -595418.490816 kJ/mol
# GULP energy per Si atom -12404.551892 kJ/mol
# Density = 2.028177 g / cm^3
# Si number density = 20.328038 Si / 1000 Ang^3
#
#
#
# Elastic Constant Matrix: (Units=GPa)
#
#
# Indices 1 2 3 4 5 6 
#
# 1 34.6865 12.7420 13.1904 0.0000 0.0000 0.0000
# 2 12.7420 128.0650 25.3045 0.0000 0.0000 0.0000
# 3 13.1904 25.3045 112.2866 0.0000 0.0000 0.0000
# 4 0.0000 0.0000 0.0000 32.0364 0.0000 0.0000
# 5 0.0000 0.0000 0.0000 0.0000 34.1155 0.0000
# 6 0.0000 0.0000 0.0000 0.0000 0.0000 17.7746
#
#
#
# Elastic Compliance Matrix: (Units=1/GPa)
#
#
# Indices 1 2 3 4 5 6 
#
# 1 0.030905 -0.002467 -0.003074 0.000000 0.000000 0.000000
# 2 -0.002467 0.008369 -0.001596 0.000000 0.000000 0.000000
# 3 -0.003074 -0.001596 0.009627 0.000000 0.000000 0.000000
# 4 0.000000 0.000000 0.000000 0.031214 0.000000 0.000000
# 5 0.000000 0.000000 0.000000 0.000000 0.029312 0.000000
# 6 0.000000 0.000000 0.000000 0.000000 0.000000 0.056260
#
#
# Mechanical properties :
#
#
# Convention : Reuss Voigt Hill
#
# Bulk Modulus (GPa) = 28.88082 41.94579 35.41331
# Shear Modulus (GPa) = 26.10883 31.70537 28.90710
#
# Velocity S-wave (km/s) = 3.58771 3.95357 3.77507
# Velocity P-wave (km/s) = 5.60361 6.44362 6.03824
#
# Compressibility (1/GPa) = 0.03462505
#
# Stress axis : x y z
#
# Youngs Moduli (GPa) = 32.35697 119.48222 103.87815
#
# Poissons Ratio (x) = 0.29482 0.31936
# Poissons Ratio (y) = 0.07984 0.16582
# Poissons Ratio (z) = 0.09948 0.19072
#
# Static dielectric constant tensor:
#      x y z
#    x 3.650300 0.000000 0.000000 
#    y 0.000000 3.947450 0.000000 
#    z 0.000000 0.000000 3.785130 
# 
# 
# High freq. dielectric constant tensor:
#      x y z
#    x 1.785990 0.000000 0.000000 
#    y 0.000000 1.806190 0.000000 
#    z 0.000000 0.000000 1.812660 
# 
# From -- ./inp_files/6949.got.cif
#   From: 2010.03.12/outbox.cif.g09.slc.cpg/sg72_4_cif.got.tgz:6949.got - 2010.04.16 14:54:00.
