data_PCOD8294298
_publ_section_title
;
Structure prediction by ZEFSAII (Michael W. Deem and Ramdas Pophale) SiO2 
 PCOD8294298
Probable space group: I B A M
;
_chemical_formula_sum "Si O2"
_cell_formula_units_Z 112
_cell_length_a 24.600449
_cell_length_b 12.656850
_cell_length_c 16.856513
_cell_angle_alpha 90.000000
_cell_angle_beta 90.000000
_cell_angle_gamma 90.000000
_cell_volume 5248.514566
_symmetry_space_group_name_H-M "I B A M"
_symmetry_group_IT_number 72
_symmetry_cell_setting 'orthorhombic'
loop_
_space_group_symop_operation_xyz
x,y,z
-x,-y,z
x,-y,1/2-z
-x,y,1/2-z
-x,-y,-z
x,y,-z
-x,y,1/2+z
x,-y,1/2+z
1/2+x,1/2+y,1/2+z
1/2-x,1/2-y,1/2+z
1/2+x,1/2-y,-z
1/2-x,1/2+y,-z
1/2-x,1/2-y,1/2-z
1/2+x,1/2+y,1/2-z
1/2-x,1/2+y,z
1/2+x,1/2-y,z
loop_
_atom_site_type_symbol
_atom_site_label
_atom_site_fract_x
_atom_site_fract_y
_atom_site_fract_z
Si Si1 0.606271 0.121308 0.844520
Si Si2 0.279601 0.259877 0.163871
Si Si3 0.992603 0.688302 0.658167
Si Si4 0.659316 0.450985 0.405880
Si Si5 0.536391 0.398655 0.590396
Si Si6 0.619450 0.106595 0.339735
Si Si7 0.824812 0.809159 0.909967
O O1 0.546090 0.136353 0.882455
O O2 0.603421 0.106512 0.751317
O O3 0.641246 0.225129 0.859992
O O4 0.632729 0.010651 0.875345
O O5 0.250000 0.250000 0.250000
O O6 0.299211 0.379344 0.145917
O O7 0.330035 0.182924 0.148067
O O8 0.237705 0.223881 0.096756
O O9 0.992300 0.813503 0.645930
O O10 0.936620 0.645295 0.618629
O O11 0.000000 0.663112 0.750000
O O12 0.670979 0.438560 0.500000
O O13 0.598241 0.419096 0.383337
O O14 0.667446 0.571942 0.377698
O O15 0.500000 0.500000 0.602475
O O16 0.534983 0.359338 0.500000
O O17 0.844817 0.802787 0.000000
#
# Coordination Sequence:
#
# PCOD8294298 Si02
#       7
#    16  16  16  16  16  16  16
#     4  10  21  39  64  93 127 162 205 261 316 378
#     4  12  24  42  66  94 126 169 215 267 316 379
#     4  10  20  37  61  91 124 163 206 257 317 376
#     4  10  23  43  65  91 130 170 212 267 325 384
#     4  10  20  37  62  89 125 169 208 256 320 387
#     4  10  21  40  62  92 125 162 210 260 319 374
#     4  11  25  43  64  93 128 169 215 265 318 381
#
# _framework density 21.339371
#
# number of rings (size 3 to 8) (size 9 to 14) (size 15 to 20)
#    0.000    1.571    2.857    1.714    2.000    4.286 
#    0.000    2.857    0.000    1.714    0.000    0.000 
#    0.000    0.000    0.000    0.000    0.000    0.000 
#
# Total GULP energy -694011.026507 kJ/mol
# GULP energy per Si atom -12393.054045 kJ/mol
# Density = 2.129080 g / cm^3
# Si number density = 21.339371 Si / 1000 Ang^3
#
#
#
# Elastic Constant Matrix: (Units=GPa)
#
#
# Indices 1 2 3 4 5 6 
#
# 1 142.8665 76.7019 18.4391 0.0000 0.0000 0.0000
# 2 76.7019 188.2884 34.4528 0.0000 0.0000 0.0000
# 3 18.4391 34.4528 33.3516 0.0000 0.0000 0.0000
# 4 0.0000 0.0000 0.0000 27.2619 0.0000 0.0000
# 5 0.0000 0.0000 0.0000 0.0000 10.8822 0.0000
# 6 0.0000 0.0000 0.0000 0.0000 0.0000 41.7786
#
#
#
# Elastic Compliance Matrix: (Units=1/GPa)
#
#
# Indices 1 2 3 4 5 6 
#
# 1 0.009017 -0.003404 -0.001468 0.000000 0.000000 0.000000
# 2 -0.003404 0.007834 -0.006211 0.000000 0.000000 0.000000
# 3 -0.001468 -0.006211 0.037211 0.000000 0.000000 0.000000
# 4 0.000000 0.000000 0.000000 0.036681 0.000000 0.000000
# 5 0.000000 0.000000 0.000000 0.000000 0.091893 0.000000
# 6 0.000000 0.000000 0.000000 0.000000 0.000000 0.023936
#
#
# Mechanical properties :
#
#
# Convention : Reuss Voigt Hill
#
# Bulk Modulus (GPa) = 31.35256 69.29933 50.32594
# Shear Modulus (GPa) = 20.88809 31.64539 26.26674
#
# Velocity S-wave (km/s) = 3.13206 3.85510 3.51223
# Velocity P-wave (km/s) = 5.27294 7.23609 6.33107
#
# Compressibility (1/GPa) = 0.03189532
#
# Stress axis : x y z
#
# Youngs Moduli (GPa) = 110.90374 127.64396 26.87369
#
# Poissons Ratio (x) = 0.43456 0.03946
# Poissons Ratio (y) = 0.37757 0.16691
# Poissons Ratio (z) = 0.16284 0.79276
#
# Static dielectric constant tensor:
#      x y z
#    x 4.144150 0.000000 0.000000 
#    y 0.000000 4.227900 0.000000 
#    z 0.000000 0.000000 3.534660 
# 
# 
# High freq. dielectric constant tensor:
#      x y z
#    x 1.853130 0.000000 0.000000 
#    y 0.000000 1.853820 0.000000 
#    z 0.000000 0.000000 1.800980 
# 
# From -- ./inp_files/40357.got.cif
#   From: 2010.03.12/outbox.cif.g09.slc.cpg/sg72_21_cif.got.tgz:40357.got - 2010.04.16 14:54:00.
