data_PCOD8294588
_publ_section_title
;
Structure prediction by ZEFSAII (Michael W. Deem and Ramdas Pophale) SiO2 
 PCOD8294588
Probable space group: I B A M
;
_chemical_formula_sum "Si O2"
_cell_formula_units_Z 60
_cell_length_a 4.808226
_cell_length_b 29.936129
_cell_length_c 20.069289
_cell_angle_alpha 90.000000
_cell_angle_beta 90.000000
_cell_angle_gamma 90.000000
_cell_volume 2888.766912
_symmetry_space_group_name_H-M "I B A M"
_symmetry_group_IT_number 72
_symmetry_cell_setting 'orthorhombic'
loop_
_space_group_symop_operation_xyz
x,y,z
-x,-y,z
x,-y,1/2-z
-x,y,1/2-z
-x,-y,-z
x,y,-z
-x,y,1/2+z
x,-y,1/2+z
1/2+x,1/2+y,1/2+z
1/2-x,1/2-y,1/2+z
1/2+x,1/2-y,-z
1/2-x,1/2+y,-z
1/2-x,1/2-y,1/2-z
1/2+x,1/2+y,1/2-z
1/2-x,1/2+y,z
1/2+x,1/2-y,z
loop_
_atom_site_type_symbol
_atom_site_label
_atom_site_fract_x
_atom_site_fract_y
_atom_site_fract_z
Si Si1 0.028482 0.219782 0.674679
Si Si2 0.000000 0.500000 0.837491
Si Si3 0.500000 0.500000 0.250000
Si Si4 0.152058 0.856986 0.575429
Si Si5 0.357182 0.917128 0.924919
O O1 0.842093 0.263933 0.662676
O O2 0.951209 0.181480 0.623610
O O3 0.000000 0.201240 0.750000
O O4 0.262841 0.523495 0.797208
O O5 0.131206 0.460558 0.879755
O O6 0.163732 0.837634 0.500000
O O7 0.449927 0.875813 0.599066
O O8 0.955569 0.900054 0.578899
O O9 0.443626 0.930642 0.000000
#
# Coordination Sequence:
#
# PCOD8294588 Si02
#       5
#    16   8   4  16  16
#     4  10  21  38  58  81 114 152 196 234 286 356
#     4  11  21  42  60  82 121 159 196 236 286 341
#     4  10  24  38  54  82 120 150 188 252 272 338
#     4  10  21  37  57  90 119 145 195 248 292 341
#     4  10  21  38  62  86 115 152 197 245 286 342
#
# _framework density 20.770106999999999
#
# number of rings (size 3 to 8) (size 9 to 14) (size 15 to 20)
#    0.000    1.867    0.000    3.600    0.000    1.067 
#   14.400    5.333    0.000    0.000    0.000    0.000 
#    0.000    0.000    0.000    0.000    0.000    0.000 
#
# Total GULP energy -371647.280330 kJ/mol
# GULP energy per Si atom -12388.242678 kJ/mol
# Density = 2.072283 g / cm^3
# Si number density = 20.770107 Si / 1000 Ang^3
#
#
#
# Elastic Constant Matrix: (Units=GPa)
#
#
# Indices 1 2 3 4 5 6 
#
# 1 84.3760 -5.5399 14.3098 0.0000 0.0000 0.0000
# 2 -5.5399 67.3955 50.4108 0.0000 0.0000 0.0000
# 3 14.3098 50.4108 95.1998 0.0000 0.0000 0.0000
# 4 0.0000 0.0000 0.0000 3.7510 0.0000 0.0000
# 5 0.0000 0.0000 0.0000 0.0000 19.6837 0.0000
# 6 0.0000 0.0000 0.0000 0.0000 0.0000 20.5453
#
#
#
# Elastic Compliance Matrix: (Units=1/GPa)
#
#
# Indices 1 2 3 4 5 6 
#
# 1 0.012821 0.004132 -0.004115 0.000000 0.000000 0.000000
# 2 0.004132 0.025901 -0.014336 0.000000 0.000000 0.000000
# 3 -0.004115 -0.014336 0.018714 0.000000 0.000000 0.000000
# 4 0.000000 0.000000 0.000000 0.266596 0.000000 0.000000
# 5 0.000000 0.000000 0.000000 0.000000 0.050804 0.000000
# 6 0.000000 0.000000 0.000000 0.000000 0.000000 0.048673
#
#
# Mechanical properties :
#
#
# Convention : Reuss Voigt Hill
#
# Bulk Modulus (GPa) = 34.72582 40.59251 37.65917
# Shear Modulus (GPa) = 10.82846 21.31536 16.07191
#
# Velocity S-wave (km/s) = 2.28578 3.20699 2.78474
# Velocity P-wave (km/s) = 4.87051 5.77055 5.33952
#
# Compressibility (1/GPa) = 0.02879701
#
# Stress axis : x y z
#
# Youngs Moduli (GPa) = 77.99759 38.60904 53.43544
#
# Poissons Ratio (x) = -0.15953 0.21989
# Poissons Ratio (y) = -0.32228 0.76606
# Poissons Ratio (z) = 0.32097 0.55351
#
# Static dielectric constant tensor:
#      x y z
#    x 4.154220 0.000000 0.000000 
#    y 0.000000 3.191110 0.000000 
#    z 0.000000 0.000000 3.960910 
# 
# 
# High freq. dielectric constant tensor:
#      x y z
#    x 1.841640 0.000000 0.000000 
#    y 0.000000 1.775920 0.000000 
#    z 0.000000 0.000000 1.820280 
# 
# From -- ./inp_files/34905.got.cif
#   From: 2010.03.12/outbox.cif.g09.slc.cpg/sg72_18_cif.got.tgz:34905.got - 2010.04.16 14:54:00.
