data_PCOD8294414
_publ_section_title
;
Structure prediction by ZEFSAII (Michael W. Deem and Ramdas Pophale) SiO2 
 PCOD8294414
Probable space group: I B A M
;
_chemical_formula_sum "Si O2"
_cell_formula_units_Z 48
_cell_length_a 9.714135
_cell_length_b 14.628117
_cell_length_c 15.594872
_cell_angle_alpha 90.000000
_cell_angle_beta 90.000000
_cell_angle_gamma 90.000000
_cell_volume 2216.023566
_symmetry_space_group_name_H-M "I B A M"
_symmetry_group_IT_number 72
_symmetry_cell_setting 'orthorhombic'
loop_
_space_group_symop_operation_xyz
x,y,z
-x,-y,z
x,-y,1/2-z
-x,y,1/2-z
-x,-y,-z
x,y,-z
-x,y,1/2+z
x,-y,1/2+z
1/2+x,1/2+y,1/2+z
1/2-x,1/2-y,1/2+z
1/2+x,1/2-y,-z
1/2-x,1/2+y,-z
1/2-x,1/2-y,1/2-z
1/2+x,1/2+y,1/2-z
1/2-x,1/2+y,z
1/2+x,1/2-y,z
loop_
_atom_site_type_symbol
_atom_site_label
_atom_site_fract_x
_atom_site_fract_y
_atom_site_fract_z
Si Si1 0.366333 0.804349 0.303455
Si Si2 0.712563 0.542314 0.595939
Si Si3 0.055407 0.878496 0.847346
O O1 0.500000 0.834172 0.250000
O O2 0.250000 0.750000 0.250000
O O3 0.315276 0.896078 0.348470
O O4 0.410603 0.726249 0.371848
O O5 0.772206 0.530171 0.500000
O O6 0.564082 0.590459 0.588703
O O7 0.690689 0.442922 0.640768
O O8 0.000000 0.887029 0.750000
#
# Coordination Sequence:
#
# PCOD8294414 Si02
#       3
#    16  16  16
#     4  11  22  41  66  92 126 171 222 262 317 391
#     4  11  22  37  65  99 127 167 215 271 327 380
#     4  10  20  39  68  93 127 175 224 255 318 401
#
# _framework density 21.660419000000001
#
# number of rings (size 3 to 8) (size 9 to 14) (size 15 to 20)
#    0.000    1.333    6.667    4.000    0.000    2.667 
#    0.000    3.333    0.000    2.000    0.000    0.000 
#    0.000    0.000    0.000    0.000    0.000    0.000 
#
# Total GULP energy -297353.533862 kJ/mol
# GULP energy per Si atom -12389.730578 kJ/mol
# Density = 2.161112 g / cm^3
# Si number density = 21.660419 Si / 1000 Ang^3
#
#
#
# Elastic Constant Matrix: (Units=GPa)
#
#
# Indices 1 2 3 4 5 6 
#
# 1 103.5889 52.3468 36.2963 0.0000 0.0000 0.0000
# 2 52.3468 157.7404 42.2073 0.0000 0.0000 0.0000
# 3 36.2963 42.2073 100.9743 0.0000 0.0000 0.0000
# 4 0.0000 0.0000 0.0000 8.1422 0.0000 0.0000
# 5 0.0000 0.0000 0.0000 0.0000 25.2494 0.0000
# 6 0.0000 0.0000 0.0000 0.0000 0.0000 52.3353
#
#
#
# Elastic Compliance Matrix: (Units=1/GPa)
#
#
# Indices 1 2 3 4 5 6 
#
# 1 0.012395 -0.003289 -0.003081 0.000000 0.000000 0.000000
# 2 -0.003289 0.008011 -0.002166 0.000000 0.000000 0.000000
# 3 -0.003081 -0.002166 0.011916 0.000000 0.000000 0.000000
# 4 0.000000 0.000000 0.000000 0.122817 0.000000 0.000000
# 5 0.000000 0.000000 0.000000 0.000000 0.039605 0.000000
# 6 0.000000 0.000000 0.000000 0.000000 0.000000 0.019108
#
#
# Mechanical properties :
#
#
# Convention : Reuss Voigt Hill
#
# Bulk Modulus (GPa) = 65.57290 69.33383 67.45337
# Shear Modulus (GPa) = 21.18582 32.57559 26.88070
#
# Velocity S-wave (km/s) = 3.13083 3.88225 3.52661
# Velocity P-wave (km/s) = 6.58850 7.22321 6.91314
#
# Compressibility (1/GPa) = 0.01525020
#
# Stress axis : x y z
#
# Youngs Moduli (GPa) = 80.67744 124.83432 83.91825
#
# Poissons Ratio (x) = 0.41058 0.25853
# Poissons Ratio (y) = 0.26535 0.18178
# Poissons Ratio (z) = 0.24854 0.27041
#
# Static dielectric constant tensor:
#      x y z
#    x 4.117000 0.000000 0.000000 
#    y 0.000000 4.535550 0.000000 
#    z 0.000000 0.000000 3.532470 
# 
# 
# High freq. dielectric constant tensor:
#      x y z
#    x 1.836790 0.000000 0.000000 
#    y 0.000000 1.865210 0.000000 
#    z 0.000000 0.000000 1.821660 
# 
# From -- ./inp_files/18100.got.cif
#   From: 2010.03.12/outbox.cif.g09.slc.cpg/sg72_10_cif.got.tgz:18100.got - 2010.04.16 14:54:00.
