data_PCOD8294392
_publ_section_title
;
Structure prediction by ZEFSAII (Michael W. Deem and Ramdas Pophale) SiO2 
 PCOD8294392
Probable space group: I B A M
;
_chemical_formula_sum "Si O2"
_cell_formula_units_Z 64
_cell_length_a 11.957306
_cell_length_b 10.901374
_cell_length_c 23.153322
_cell_angle_alpha 90.000000
_cell_angle_beta 90.000000
_cell_angle_gamma 90.000000
_cell_volume 3018.060175
_symmetry_space_group_name_H-M "I B A M"
_symmetry_group_IT_number 72
_symmetry_cell_setting 'orthorhombic'
loop_
_space_group_symop_operation_xyz
x,y,z
-x,-y,z
x,-y,1/2-z
-x,y,1/2-z
-x,-y,-z
x,y,-z
-x,y,1/2+z
x,-y,1/2+z
1/2+x,1/2+y,1/2+z
1/2-x,1/2-y,1/2+z
1/2+x,1/2-y,-z
1/2-x,1/2+y,-z
1/2-x,1/2-y,1/2-z
1/2+x,1/2+y,1/2-z
1/2-x,1/2+y,z
1/2+x,1/2-y,z
loop_
_atom_site_type_symbol
_atom_site_label
_atom_site_fract_x
_atom_site_fract_y
_atom_site_fract_z
Si Si1 0.653070 0.700028 0.000000
Si Si2 0.090197 0.103816 0.615150
Si Si3 0.478287 0.822880 0.683028
Si Si4 0.181869 0.525915 0.000000
Si Si5 0.344273 0.026976 0.624361
O O1 0.582729 0.693950 0.940730
O O2 0.721439 0.829539 0.000000
O O3 0.718766 0.571805 0.000000
O O4 0.057507 0.183610 0.670901
O O5 0.211549 0.045221 0.626065
O O6 0.000000 0.000000 0.605460
O O7 0.500000 0.840425 0.750000
O O8 0.591487 0.852882 0.647322
O O9 0.377466 0.913253 0.664990
O O10 0.113315 0.500680 0.058782
#
# Coordination Sequence:
#
# PCOD8294392 Si02
#       5
#     8  16  16   8  16
#     4  10  21  41  68 102 142 175 222 284 358 420
#     4  11  25  42  69 102 135 173 227 284 349 412
#     4  11  25  46  67  94 134 184 232 281 340 406
#     4  10  20  38  71 103 132 182 222 286 356 425
#     4  10  23  43  69  96 133 176 225 280 347 415
#
# _framework density 21.205674999999999
#
# number of rings (size 3 to 8) (size 9 to 14) (size 15 to 20)
#    0.000    1.500    2.500    1.875    3.500    6.500 
#    4.500    0.000    0.000    0.000    0.000    0.000 
#    0.000    0.000    0.000    0.000    0.000    0.000 
#
# Total GULP energy -396579.042455 kJ/mol
# GULP energy per Si atom -12393.095077 kJ/mol
# Density = 2.115741 g / cm^3
# Si number density = 21.205675 Si / 1000 Ang^3
#
#
#
# Elastic Constant Matrix: (Units=GPa)
#
#
# Indices 1 2 3 4 5 6 
#
# 1 130.0723 45.4376 46.0177 0.0000 0.0000 0.0000
# 2 45.4376 126.7392 57.6341 0.0000 0.0000 0.0000
# 3 46.0177 57.6341 185.1292 0.0000 0.0000 0.0000
# 4 0.0000 0.0000 0.0000 35.1954 0.0000 0.0000
# 5 0.0000 0.0000 0.0000 0.0000 17.4170 0.0000
# 6 0.0000 0.0000 0.0000 0.0000 0.0000 26.1869
#
#
#
# Elastic Compliance Matrix: (Units=1/GPa)
#
#
# Indices 1 2 3 4 5 6 
#
# 1 0.009113 -0.002606 -0.001454 0.000000 0.000000 0.000000
# 2 -0.002606 0.009937 -0.002446 0.000000 0.000000 0.000000
# 3 -0.001454 -0.002446 0.006524 0.000000 0.000000 0.000000
# 4 0.000000 0.000000 0.000000 0.028413 0.000000 0.000000
# 5 0.000000 0.000000 0.000000 0.000000 0.057415 0.000000
# 6 0.000000 0.000000 0.000000 0.000000 0.000000 0.038187
#
#
# Mechanical properties :
#
#
# Convention : Reuss Voigt Hill
#
# Bulk Modulus (GPa) = 79.60007 82.23551 80.91779
# Shear Modulus (GPa) = 29.97830 35.28327 32.63078
#
# Velocity S-wave (km/s) = 3.76399 4.08347 3.92698
# Velocity P-wave (km/s) = 7.51723 7.81646 7.66831
#
# Compressibility (1/GPa) = 0.01256280
#
# Stress axis : x y z
#
# Youngs Moduli (GPa) = 109.73697 100.63777 153.27023
#
# Poissons Ratio (x) = 0.26225 0.22284
# Poissons Ratio (y) = 0.28596 0.37485
# Poissons Ratio (z) = 0.15955 0.24613
#
# Static dielectric constant tensor:
#      x y z
#    x 3.593050 0.000000 0.000000 
#    y 0.000000 3.836820 0.000000 
#    z 0.000000 0.000000 4.337770 
# 
# 
# High freq. dielectric constant tensor:
#      x y z
#    x 1.810240 0.000000 0.000000 
#    y 0.000000 1.839180 0.000000 
#    z 0.000000 0.000000 1.846080 
# 
# From -- ./inp_files/42958.got.cif
#   From: 2010.03.12/outbox.cif.g09.slc.cpg/sg72_22_cif.got.tgz:42958.got - 2010.04.16 14:54:00.
