data_PCOD8294350
_publ_section_title
;
Structure prediction by ZEFSAII (Michael W. Deem and Ramdas Pophale) SiO2 
 PCOD8294350
Probable space group: I B A M
;
_chemical_formula_sum "Si O2"
_cell_formula_units_Z 80
_cell_length_a 23.651632
_cell_length_b 11.871704
_cell_length_c 13.845790
_cell_angle_alpha 90.000000
_cell_angle_beta 90.000000
_cell_angle_gamma 90.000000
_cell_volume 3887.692557
_symmetry_space_group_name_H-M "I B A M"
_symmetry_group_IT_number 72
_symmetry_cell_setting 'orthorhombic'
loop_
_space_group_symop_operation_xyz
x,y,z
-x,-y,z
x,-y,1/2-z
-x,y,1/2-z
-x,-y,-z
x,y,-z
-x,y,1/2+z
x,-y,1/2+z
1/2+x,1/2+y,1/2+z
1/2-x,1/2-y,1/2+z
1/2+x,1/2-y,-z
1/2-x,1/2+y,-z
1/2-x,1/2-y,1/2-z
1/2+x,1/2+y,1/2-z
1/2-x,1/2+y,z
1/2+x,1/2-y,z
loop_
_atom_site_type_symbol
_atom_site_label
_atom_site_fract_x
_atom_site_fract_y
_atom_site_fract_z
Si Si1 0.164658 0.499045 0.386208
Si Si2 0.095743 0.122300 0.241735
Si Si3 0.191025 0.310034 0.239933
Si Si4 0.455840 0.085342 0.385561
Si Si5 0.499506 0.326483 0.885999
O O1 0.170846 0.483250 0.500000
O O2 0.176933 0.378565 0.337993
O O3 0.203250 0.601426 0.347359
O O4 0.104607 0.545381 0.348335
O O5 0.142072 0.217882 0.216767
O O6 0.062073 0.157347 0.339106
O O7 0.049102 0.094766 0.157086
O O8 0.126592 0.000000 0.250000
O O9 0.250000 0.250000 0.250000
O O10 0.455965 0.079889 0.500000
O O11 0.474652 0.207556 0.351628
O O12 0.500000 0.000000 0.339290
O O13 0.493297 0.342911 0.000000
#
# Coordination Sequence:
#
# PCOD8294350 Si02
#       5
#    16  16  16  16  16
#     4  10  22  43  67  96 127 161 212 268 320 379
#     4  11  24  39  60  92 129 171 214 254 314 386
#     4  11  25  43  67  92 127 171 216 269 319 374
#     4   9  16  30  58  90 121 153 190 246 312 371
#     4  10  20  38  60  90 129 164 205 258 314 382
#
# _framework density 20.577757999999999
#
# number of rings (size 3 to 8) (size 9 to 14) (size 15 to 20)
#    0.000    1.800    2.000    2.400    2.800    4.800 
#    0.000    0.000    0.000    0.000    0.000    0.000 
#    0.000    0.000    0.000    0.000    0.000    0.000 
#
# Total GULP energy -495641.450398 kJ/mol
# GULP energy per Si atom -12391.036260 kJ/mol
# Density = 2.053092 g / cm^3
# Si number density = 20.577758 Si / 1000 Ang^3
#
#
#
# Elastic Constant Matrix: (Units=GPa)
#
#
# Indices 1 2 3 4 5 6 
#
# 1 87.8976 33.4657 19.5300 0.0000 0.0000 0.0000
# 2 33.4657 113.6773 21.8051 0.0000 0.0000 0.0000
# 3 19.5300 21.8051 118.9809 0.0000 0.0000 0.0000
# 4 0.0000 0.0000 0.0000 19.8051 0.0000 0.0000
# 5 0.0000 0.0000 0.0000 0.0000 17.9257 0.0000
# 6 0.0000 0.0000 0.0000 0.0000 0.0000 38.6760
#
#
#
# Elastic Compliance Matrix: (Units=1/GPa)
#
#
# Indices 1 2 3 4 5 6 
#
# 1 0.013064 -0.003560 -0.001492 0.000000 0.000000 0.000000
# 2 -0.003560 0.010087 -0.001264 0.000000 0.000000 0.000000
# 3 -0.001492 -0.001264 0.008881 0.000000 0.000000 0.000000
# 4 0.000000 0.000000 0.000000 0.050492 0.000000 0.000000
# 5 0.000000 0.000000 0.000000 0.000000 0.055786 0.000000
# 6 0.000000 0.000000 0.000000 0.000000 0.000000 0.025856
#
#
# Mechanical properties :
#
#
# Convention : Reuss Voigt Hill
#
# Bulk Modulus (GPa) = 51.54550 52.23968 51.89259
# Shear Modulus (GPa) = 27.28294 31.66502 29.47398
#
# Velocity S-wave (km/s) = 3.64517 3.92701 3.78871
# Velocity P-wave (km/s) = 6.54369 6.78258 6.66421
#
# Compressibility (1/GPa) = 0.01940034
#
# Stress axis : x y z
#
# Youngs Moduli (GPa) = 76.54821 99.13470 112.59586
#
# Poissons Ratio (x) = 0.35289 0.16799
# Poissons Ratio (y) = 0.27249 0.14236
# Poissons Ratio (z) = 0.11421 0.12534
#
# Static dielectric constant tensor:
#      x y z
#    x 3.604900 0.000000 0.000000 
#    y 0.000000 4.016400 0.000000 
#    z 0.000000 0.000000 3.532500 
# 
# 
# High freq. dielectric constant tensor:
#      x y z
#    x 1.785370 0.000000 0.000000 
#    y 0.000000 1.826190 0.000000 
#    z 0.000000 0.000000 1.803850 
# 
# From -- ./inp_files/24906.got.cif
#   From: 2010.03.12/outbox.cif.g09.slc.cpg/sg72_13_cif.got.tgz:24906.got - 2010.04.16 14:54:00.
