data_PCOD8294439
_publ_section_title
;
Structure prediction by ZEFSAII (Michael W. Deem and Ramdas Pophale) SiO2 
 PCOD8294439
Probable space group: I B A M
;
_chemical_formula_sum "Si O2"
_cell_formula_units_Z 88
_cell_length_a 12.759651
_cell_length_b 12.226090
_cell_length_c 26.568961
_cell_angle_alpha 90.000000
_cell_angle_beta 90.000000
_cell_angle_gamma 90.000000
_cell_volume 4144.774960
_symmetry_space_group_name_H-M "I B A M"
_symmetry_group_IT_number 72
_symmetry_cell_setting 'orthorhombic'
loop_
_space_group_symop_operation_xyz
x,y,z
-x,-y,z
x,-y,1/2-z
-x,y,1/2-z
-x,-y,-z
x,y,-z
-x,y,1/2+z
x,-y,1/2+z
1/2+x,1/2+y,1/2+z
1/2-x,1/2-y,1/2+z
1/2+x,1/2-y,-z
1/2-x,1/2+y,-z
1/2-x,1/2-y,1/2-z
1/2+x,1/2+y,1/2-z
1/2-x,1/2+y,z
1/2+x,1/2-y,z
loop_
_atom_site_type_symbol
_atom_site_label
_atom_site_fract_x
_atom_site_fract_y
_atom_site_fract_z
Si Si1 0.667548 0.308442 0.915714
Si Si2 0.048794 0.880637 0.897918
Si Si3 0.242096 0.427619 0.500000
Si Si4 0.124151 0.374551 0.756061
Si Si5 0.216209 0.221355 0.671220
Si Si6 0.632740 0.847320 0.500000
Si Si7 0.087553 0.231335 0.500000
O O1 0.552566 0.302925 0.890938
O O2 0.753923 0.306342 0.872460
O O3 0.684191 0.200526 0.949619
O O4 0.684860 0.419934 0.949617
O O5 0.130617 0.863087 0.851959
O O6 0.096702 0.850291 0.952446
O O7 0.000000 0.000000 0.895136
O O8 0.157495 0.523951 0.500000
O O9 0.183975 0.311964 0.500000
O O10 0.157745 0.500000 0.750000
O O11 0.168699 0.295104 0.714215
O O12 0.178510 0.340336 0.809094
O O13 0.000000 0.361329 0.750000
O O14 0.512241 0.811082 0.500000
#
# Coordination Sequence:
#
# PCOD8294439 Si02
#       7
#    16  16   8  16  16   8   8
#     4  10  23  38  59  94 129 167 223 267 322 395
#     4  11  24  39  65  98 136 179 221 271 330 391
#     4  11  20  36  63  87 132 180 223 271 328 382
#     4  10  24  46  71  96 125 166 211 274 348 400
#     4  11  23  43  69  94 133 164 216 278 324 410
#     4   9  22  36  56  89 132 170 226 273 328 377
#     4  10  20  42  56  95 133 182 221 283 310 401
#
# _framework density 21.231551
#
# number of rings (size 3 to 8) (size 9 to 14) (size 15 to 20)
#    0.000    1.636    1.818    2.182    5.091    0.000 
#    0.000    1.818    0.000    0.000    0.000    0.000 
#    0.000    0.000    0.000    0.000    0.000    0.000 
#
# Total GULP energy -545110.846942 kJ/mol
# GULP energy per Si atom -12388.882885 kJ/mol
# Density = 2.118323 g / cm^3
# Si number density = 21.231551 Si / 1000 Ang^3
#
#
#
# Elastic Constant Matrix: (Units=GPa)
#
#
# Indices 1 2 3 4 5 6 
#
# 1 117.2270 40.3010 54.0666 0.0000 0.0000 0.0000
# 2 40.3010 107.0632 44.4378 0.0000 0.0000 0.0000
# 3 54.0666 44.4378 112.1220 0.0000 0.0000 0.0000
# 4 0.0000 0.0000 0.0000 3.8424 0.0000 0.0000
# 5 0.0000 0.0000 0.0000 0.0000 22.1959 0.0000
# 6 0.0000 0.0000 0.0000 0.0000 0.0000 15.9026
#
#
#
# Elastic Compliance Matrix: (Units=1/GPa)
#
#
# Indices 1 2 3 4 5 6 
#
# 1 0.011471 -0.002420 -0.004572 0.000000 0.000000 0.000000
# 2 -0.002420 0.011690 -0.003466 0.000000 0.000000 0.000000
# 3 -0.004572 -0.003466 0.012497 0.000000 0.000000 0.000000
# 4 0.000000 0.000000 0.000000 0.260254 0.000000 0.000000
# 5 0.000000 0.000000 0.000000 0.000000 0.045053 0.000000
# 6 0.000000 0.000000 0.000000 0.000000 0.000000 0.062883
#
#
# Mechanical properties :
#
#
# Convention : Reuss Voigt Hill
#
# Bulk Modulus (GPa) = 67.83647 68.22477 68.03062
# Shear Modulus (GPa) = 11.63657 21.56196 16.59926
#
# Velocity S-wave (km/s) = 2.34365 3.19025 2.79914
# Velocity P-wave (km/s) = 6.27246 6.76562 6.52370
#
# Compressibility (1/GPa) = 0.01474133
#
# Stress axis : x y z
#
# Youngs Moduli (GPa) = 87.17374 85.54365 80.01643
#
# Poissons Ratio (x) = 0.20704 0.36587
# Poissons Ratio (y) = 0.21098 0.27734
# Poissons Ratio (z) = 0.39859 0.29650
#
# Static dielectric constant tensor:
#      x y z
#    x 4.298120 0.000000 0.000000 
#    y 0.000000 3.619880 0.000000 
#    z 0.000000 0.000000 3.968440 
# 
# 
# High freq. dielectric constant tensor:
#      x y z
#    x 1.857440 0.000000 0.000000 
#    y 0.000000 1.821070 0.000000 
#    z 0.000000 0.000000 1.827280 
# 
# From -- ./inp_files/44182.got.cif
#   From: 2010.03.12/outbox.cif.g09.slc.cpg/sg72_23_cif.got.tgz:44182.got - 2010.04.16 14:54:00.
