data_PCOD8294006
_publ_section_title
;
Structure prediction by ZEFSAII (Michael W. Deem and Ramdas Pophale) SiO2 
 PCOD8294006
Probable space group: I B A M
;
_chemical_formula_sum "Si O2"
_cell_formula_units_Z 96
_cell_length_a 24.427594
_cell_length_b 24.007087
_cell_length_c 8.555662
_cell_angle_alpha 90.000000
_cell_angle_beta 90.000000
_cell_angle_gamma 90.000000
_cell_volume 5017.342848
_symmetry_space_group_name_H-M "I B A M"
_symmetry_group_IT_number 72
_symmetry_cell_setting 'orthorhombic'
loop_
_space_group_symop_operation_xyz
x,y,z
-x,-y,z
x,-y,1/2-z
-x,y,1/2-z
-x,-y,-z
x,y,-z
-x,y,1/2+z
x,-y,1/2+z
1/2+x,1/2+y,1/2+z
1/2-x,1/2-y,1/2+z
1/2+x,1/2-y,-z
1/2-x,1/2+y,-z
1/2-x,1/2-y,1/2-z
1/2+x,1/2+y,1/2-z
1/2-x,1/2+y,z
1/2+x,1/2-y,z
loop_
_atom_site_type_symbol
_atom_site_label
_atom_site_fract_x
_atom_site_fract_y
_atom_site_fract_z
Si Si1 0.644294 0.941579 0.314888
Si Si2 0.860904 0.139086 0.181081
Si Si3 0.768025 0.059537 0.184998
Si Si4 0.445893 0.561229 0.186812
Si Si5 0.057594 0.647106 0.685013
Si Si6 0.058323 0.772860 0.316238
O O1 0.642507 0.943488 0.500000
O O2 0.706080 0.930852 0.255099
O O3 0.605787 0.892290 0.249631
O O4 0.621865 0.000000 0.250000
O O5 0.801367 0.115665 0.238045
O O6 0.896018 0.085317 0.218177
O O7 0.887834 0.191484 0.269994
O O8 0.860004 0.154905 0.000000
O O9 0.790436 0.000000 0.250000
O O10 0.772036 0.054598 0.000000
O O11 0.450369 0.500000 0.250000
O O12 0.500000 0.593365 0.250000
O O13 0.439612 0.566228 0.000000
O O14 0.055465 0.645062 0.500000
O O15 0.068853 0.710041 0.743875
O O16 0.000000 0.624927 0.750000
O O17 0.052883 0.776193 0.500000
O O18 0.000000 0.795032 0.250000
#
# Coordination Sequence:
#
# PCOD8294006 Si02
#       6
#    16  16  16  16  16  16
#     4   9  18  35  56  80 107 137 168 204 249 302
#     4  11  21  33  49  71  97 131 172 214 255 302
#     4   9  19  34  53  74 101 135 172 211 255 301
#     4  11  21  33  47  66  93 125 162 210 262 311
#     4   9  19  35  56  79 107 137 168 205 251 303
#     4  10  20  35  53  74 100 135 173 214 258 304
#
# _framework density 19.133634000000001
#
# number of rings (size 3 to 8) (size 9 to 14) (size 15 to 20)
#    0.000    2.167    0.000    4.000    0.000    4.333 
#    0.000    2.500    0.000    0.000    0.000    0.000 
#    0.000    0.000    0.000    0.000    0.000    0.000 
#
# Total GULP energy -594709.619904 kJ/mol
# GULP energy per Si atom -12389.783748 kJ/mol
# Density = 1.909008 g / cm^3
# Si number density = 19.133634 Si / 1000 Ang^3
#
#
#
# Elastic Constant Matrix: (Units=GPa)
#
#
# Indices 1 2 3 4 5 6 
#
# 1 113.8666 74.4990 17.5004 0.0000 0.0000 0.0000
# 2 74.4990 120.9497 18.4088 0.0000 0.0000 0.0000
# 3 17.5004 18.4088 21.4624 0.0000 0.0000 0.0000
# 4 0.0000 0.0000 0.0000 26.1031 0.0000 0.0000
# 5 0.0000 0.0000 0.0000 0.0000 24.4730 0.0000
# 6 0.0000 0.0000 0.0000 0.0000 0.0000 38.0270
#
#
#
# Elastic Compliance Matrix: (Units=1/GPa)
#
#
# Indices 1 2 3 4 5 6 
#
# 1 0.015164 -0.008578 -0.005007 0.000000 0.000000 0.000000
# 2 -0.008578 0.014362 -0.005324 0.000000 0.000000 0.000000
# 3 -0.005007 -0.005324 0.055242 0.000000 0.000000 0.000000
# 4 0.000000 0.000000 0.000000 0.038310 0.000000 0.000000
# 5 0.000000 0.000000 0.000000 0.000000 0.040861 0.000000
# 6 0.000000 0.000000 0.000000 0.000000 0.000000 0.026297
#
#
# Mechanical properties :
#
#
# Convention : Reuss Voigt Hill
#
# Bulk Modulus (GPa) = 21.29922 53.01055 37.15489
# Shear Modulus (GPa) = 20.51657 27.44532 23.98095
#
# Velocity S-wave (km/s) = 3.27812 3.79146 3.54409
# Velocity P-wave (km/s) = 5.04817 6.85073 6.01733
#
# Compressibility (1/GPa) = 0.04695007
#
# Stress axis : x y z
#
# Youngs Moduli (GPa) = 65.94447 69.62793 18.10205
#
# Poissons Ratio (x) = 0.59729 0.09064
# Poissons Ratio (y) = 0.56570 0.09637
# Poissons Ratio (z) = 0.33019 0.37069
#
# Static dielectric constant tensor:
#      x y z
#    x 4.093110 0.000000 0.000000 
#    y 0.000000 3.642470 0.000000 
#    z 0.000000 0.000000 3.521400 
# 
# 
# High freq. dielectric constant tensor:
#      x y z
#    x 1.742350 0.000000 0.000000 
#    y 0.000000 1.739320 0.000000 
#    z 0.000000 0.000000 1.738770 
# 
# From -- ./inp_files/7107.got.cif
#   From: 2010.03.12/outbox.cif.g09.slc.cpg/sg72_4_cif.got.tgz:7107.got - 2010.04.16 14:54:00.
