data_PCOD8294957
_publ_section_title
;
Structure prediction by ZEFSAII (Michael W. Deem and Ramdas Pophale) SiO2 
 PCOD8294957
Probable space group: I B A M
;
_chemical_formula_sum "Si O2"
_cell_formula_units_Z 64
_cell_length_a 26.843303
_cell_length_b 5.420629
_cell_length_c 17.830397
_cell_angle_alpha 90.000000
_cell_angle_beta 90.000000
_cell_angle_gamma 90.000000
_cell_volume 2594.458037
_symmetry_space_group_name_H-M "I B A M"
_symmetry_group_IT_number 72
_symmetry_cell_setting 'orthorhombic'
loop_
_space_group_symop_operation_xyz
x,y,z
-x,-y,z
x,-y,1/2-z
-x,y,1/2-z
-x,-y,-z
x,y,-z
-x,y,1/2+z
x,-y,1/2+z
1/2+x,1/2+y,1/2+z
1/2-x,1/2-y,1/2+z
1/2+x,1/2-y,-z
1/2-x,1/2+y,-z
1/2-x,1/2-y,1/2-z
1/2+x,1/2+y,1/2-z
1/2-x,1/2+y,z
1/2+x,1/2-y,z
loop_
_atom_site_type_symbol
_atom_site_label
_atom_site_fract_x
_atom_site_fract_y
_atom_site_fract_z
Si Si1 0.524660 0.248920 0.332106
Si Si2 0.386245 0.550042 0.585390
Si Si3 0.604111 0.751300 0.717201
Si Si4 0.728210 0.357246 0.414253
O O1 0.500000 0.500000 0.361265
O O2 0.579590 0.250324 0.370979
O O3 0.543253 0.244975 0.241424
O O4 0.500000 0.000000 0.362247
O O5 0.403270 0.509656 0.500000
O O6 0.391265 0.280821 0.627581
O O7 0.330951 0.655019 0.590702
O O8 0.629125 0.500000 0.750000
O O9 0.629428 0.000000 0.750000
O O10 0.747218 0.361226 0.500000
O O11 0.750957 0.109617 0.375386
#
# Coordination Sequence:
#
# PCOD8294957 Si02
#       4
#    16  16  16  16
#     4  11  24  42  65  90 126 181 227 258 319 408
#     4  10  23  42  68 103 136 168 223 291 334 376
#     4  10  22  40  63  86 122 174 223 257 315 400
#     4   9  19  37  62  92 129 173 215 262 333 408
#
# _framework density 24.667964999999999
#
# number of rings (size 3 to 8) (size 9 to 14) (size 15 to 20)
#    0.000    2.000    0.000    3.000    0.000   18.000 
#    0.000   17.500    0.000   24.750    0.000    0.000 
#    0.000    0.000    0.000    0.000    0.000    0.000 
#
# Total GULP energy -396488.014851 kJ/mol
# GULP energy per Si atom -12390.250464 kJ/mol
# Density = 2.461182 g / cm^3
# Si number density = 24.667965 Si / 1000 Ang^3
#
#
#
# Elastic Constant Matrix: (Units=GPa)
#
#
# Indices 1 2 3 4 5 6 
#
# 1 104.8530 60.9681 24.8596 0.0000 0.0000 0.0000
# 2 60.9681 245.9392 37.9705 0.0000 0.0000 0.0000
# 3 24.8596 37.9705 71.3991 0.0000 0.0000 0.0000
# 4 0.0000 0.0000 0.0000 12.1449 0.0000 0.0000
# 5 0.0000 0.0000 0.0000 0.0000 18.8801 0.0000
# 6 0.0000 0.0000 0.0000 0.0000 0.0000 34.5242
#
#
#
# Elastic Compliance Matrix: (Units=1/GPa)
#
#
# Indices 1 2 3 4 5 6 
#
# 1 0.011615 -0.002457 -0.002738 0.000000 0.000000 0.000000
# 2 -0.002457 0.004949 -0.001777 0.000000 0.000000 0.000000
# 3 -0.002738 -0.001777 0.015904 0.000000 0.000000 0.000000
# 4 0.000000 0.000000 0.000000 0.082339 0.000000 0.000000
# 5 0.000000 0.000000 0.000000 0.000000 0.052966 0.000000
# 6 0.000000 0.000000 0.000000 0.000000 0.000000 0.028965
#
#
# Mechanical properties :
#
#
# Convention : Reuss Voigt Hill
#
# Bulk Modulus (GPa) = 53.97814 74.42086 64.19950
# Shear Modulus (GPa) = 23.05690 33.00272 28.02981
#
# Velocity S-wave (km/s) = 3.06059 3.66167 3.37454
# Velocity P-wave (km/s) = 5.86677 6.93625 6.42381
#
# Compressibility (1/GPa) = 0.01852602
#
# Stress axis : x y z
#
# Youngs Moduli (GPa) = 86.09831 202.04677 62.87794
#
# Poissons Ratio (x) = 0.49635 0.17213
# Poissons Ratio (y) = 0.21151 0.11172
# Poissons Ratio (z) = 0.23570 0.35899
#
# Static dielectric constant tensor:
#      x y z
#    x 4.396160 0.000000 0.000000 
#    y 0.000000 4.802360 0.000000 
#    z 0.000000 0.000000 4.563430 
# 
# 
# High freq. dielectric constant tensor:
#      x y z
#    x 1.974820 0.000000 0.000000 
#    y 0.000000 2.004000 0.000000 
#    z 0.000000 0.000000 1.942290 
# 
# From -- ./inp_files/40025.got.cif
#   From: 2010.03.12/outbox.cif.g09.slc.cpg/sg72_21_cif.got.tgz:40025.got - 2010.04.16 14:54:00.
