data_PCOD8294887
_publ_section_title
;
Structure prediction by ZEFSAII (Michael W. Deem and Ramdas Pophale) SiO2 
 PCOD8294887
Probable space group: I B A M
;
_chemical_formula_sum "Si O2"
_cell_formula_units_Z 88
_cell_length_a 13.632341
_cell_length_b 22.607025
_cell_length_c 14.652266
_cell_angle_alpha 90.000000
_cell_angle_beta 90.000000
_cell_angle_gamma 90.000000
_cell_volume 4515.633122
_symmetry_space_group_name_H-M "I B A M"
_symmetry_group_IT_number 72
_symmetry_cell_setting 'orthorhombic'
loop_
_space_group_symop_operation_xyz
x,y,z
-x,-y,z
x,-y,1/2-z
-x,y,1/2-z
-x,-y,-z
x,y,-z
-x,y,1/2+z
x,-y,1/2+z
1/2+x,1/2+y,1/2+z
1/2-x,1/2-y,1/2+z
1/2+x,1/2-y,-z
1/2-x,1/2+y,-z
1/2-x,1/2-y,1/2-z
1/2+x,1/2+y,1/2-z
1/2-x,1/2+y,z
1/2+x,1/2-y,z
loop_
_atom_site_type_symbol
_atom_site_label
_atom_site_fract_x
_atom_site_fract_y
_atom_site_fract_z
Si Si1 0.728163 0.444766 0.818042
Si Si2 0.448675 0.061120 0.500000
Si Si3 0.606558 0.773472 0.785031
Si Si4 0.883535 0.013567 0.500000
Si Si5 0.739916 0.596101 0.000000
Si Si6 0.773265 0.835523 0.685090
Si Si7 0.064485 0.605654 0.840173
O O1 0.712538 0.500000 0.750000
O O2 0.701521 0.384263 0.763477
O O3 0.843987 0.440481 0.845420
O O4 0.658467 0.452924 0.908320
O O5 0.332704 0.052322 0.500000
O O6 0.481800 0.097195 0.413537
O O7 0.500000 0.000000 0.500000
O O8 0.500000 0.759665 0.750000
O O9 0.676651 0.796649 0.704093
O O10 0.639353 0.711247 0.826855
O O11 0.605533 0.827925 0.856514
O O12 0.852571 0.945761 0.500000
O O13 0.000000 0.000000 0.500000
O O14 0.742717 0.635580 0.911460
O O15 0.000000 0.598766 0.750000
#
# Coordination Sequence:
#
# PCOD8294887 Si02
#       7
#    16   8  16   8   8  16  16
#     4  11  22  42  64  90 129 162 205 271 315 380
#     4  12  24  33  60  95 133 167 198 255 335 403
#     4   9  19  40  61  88 120 163 213 258 315 379
#     4  12  28  44  60  88 126 173 228 258 309 377
#     4  12  22  41  58  93 125 164 219 263 318 391
#     4  10  22  38  65  89 122 166 208 263 327 375
#     4  10  22  37  63  97 129 163 201 255 326 402
#
# _framework density 19.487855
#
# number of rings (size 3 to 8) (size 9 to 14) (size 15 to 20)
#    0.000    1.455    1.818    4.909    2.545    2.545 
#    0.000    6.364    0.000    0.000    0.000    0.000 
#    0.000    0.000    0.000    0.000    0.000    0.000 
#
# Total GULP energy -545083.091489 kJ/mol
# GULP energy per Si atom -12388.252079 kJ/mol
# Density = 1.944350 g / cm^3
# Si number density = 19.487855 Si / 1000 Ang^3
#
#
#
# Elastic Constant Matrix: (Units=GPa)
#
#
# Indices 1 2 3 4 5 6 
#
# 1 135.0483 52.0499 37.6753 0.0000 0.0000 0.0000
# 2 52.0499 107.8537 38.8527 -0.0014 0.0002 0.0000
# 3 37.6753 38.8527 113.8016 -0.0019 0.0003 0.0000
# 4 0.0000 -0.0014 -0.0019 12.7964 0.0003 0.0000
# 5 0.0000 0.0002 0.0003 0.0003 29.5587 0.0000
# 6 0.0000 0.0000 0.0000 0.0000 0.0000 37.5389
#
#
#
# Elastic Compliance Matrix: (Units=1/GPa)
#
#
# Indices 1 2 3 4 5 6 
#
# 1 0.009404 -0.003896 -0.001783 -0.000001 0.000000 0.000000
# 2 -0.003896 0.012186 -0.002871 0.000001 0.000000 0.000000
# 3 -0.001783 -0.002871 0.010358 0.000001 0.000000 0.000000
# 4 -0.000001 0.000001 0.000001 0.078147 -0.000001 0.000000
# 5 0.000000 0.000000 0.000000 -0.000001 0.033831 0.000000
# 6 0.000000 0.000000 0.000000 0.000000 0.000000 0.026639
#
#
# Mechanical properties :
#
#
# Convention : Reuss Voigt Hill
#
# Bulk Modulus (GPa) = 67.34859 68.20660 67.77760
# Shear Modulus (GPa) = 25.95880 31.18719 28.57300
#
# Velocity S-wave (km/s) = 3.65369 4.00476 3.83325
# Velocity P-wave (km/s) = 7.24110 7.51397 7.37879
#
# Compressibility (1/GPa) = 0.01484812
#
# Stress axis : x y z
#
# Youngs Moduli (GPa) = 106.34066 82.06102 96.54740
#
# Poissons Ratio (x) = 0.31970 0.17216
# Poissons Ratio (y) = 0.41429 0.27715
# Poissons Ratio (z) = 0.18962 0.23557
#
# Static dielectric constant tensor:
#      x y z
#    x 4.147790 0.000000 0.000000 
#    y 0.000000 3.908120 0.000000 
#    z 0.000000 0.000000 3.282770 
# 
# 
# High freq. dielectric constant tensor:
#      x y z
#    x 1.764460 0.000000 0.000000 
#    y 0.000000 1.770830 0.000000 
#    z 0.000000 0.000000 1.751620 
# 
# From -- ./inp_files/20349.got.cif
#   From: 2010.03.12/outbox.cif.g09.slc.cpg/sg72_11_cif.got.tgz:20349.got - 2010.04.16 14:54:00.
