data_PCOD8294798
_publ_section_title
;
Structure prediction by ZEFSAII (Michael W. Deem and Ramdas Pophale) SiO2 
 PCOD8294798
Probable space group: I B A M
;
_chemical_formula_sum "Si O2"
_cell_formula_units_Z 64
_cell_length_a 12.333704
_cell_length_b 10.659802
_cell_length_c 22.679805
_cell_angle_alpha 90.000000
_cell_angle_beta 90.000000
_cell_angle_gamma 90.000000
_cell_volume 2981.823792
_symmetry_space_group_name_H-M "I B A M"
_symmetry_group_IT_number 72
_symmetry_cell_setting 'orthorhombic'
loop_
_space_group_symop_operation_xyz
x,y,z
-x,-y,z
x,-y,1/2-z
-x,y,1/2-z
-x,-y,-z
x,y,-z
-x,y,1/2+z
x,-y,1/2+z
1/2+x,1/2+y,1/2+z
1/2-x,1/2-y,1/2+z
1/2+x,1/2-y,-z
1/2-x,1/2+y,-z
1/2-x,1/2-y,1/2-z
1/2+x,1/2+y,1/2-z
1/2-x,1/2+y,z
1/2+x,1/2-y,z
loop_
_atom_site_type_symbol
_atom_site_label
_atom_site_fract_x
_atom_site_fract_y
_atom_site_fract_z
Si Si1 0.963638 0.645743 0.500000
Si Si2 0.096279 0.597888 0.875207
Si Si3 0.094876 0.900089 0.500000
Si Si4 0.481597 0.668406 0.682749
Si Si5 0.335280 0.544907 0.874398
O O1 0.057593 0.753251 0.500000
O O2 0.000000 0.500000 0.500000
O O3 0.894867 0.666168 0.560370
O O4 0.067176 0.694123 0.823309
O O5 0.209868 0.536787 0.855329
O O6 0.000000 0.500000 0.878006
O O7 0.167739 0.935479 0.444257
O O8 0.000000 0.000000 0.500000
O O9 0.500000 0.629316 0.750000
O O10 0.398245 0.576600 0.649216
O O11 0.600204 0.664258 0.652217
#
# Coordination Sequence:
#
# PCOD8294798 Si02
#       5
#     8  16   8  16  16
#     4  10  21  40  63  97 144 166 211 287 345 406
#     4  11  25  43  67 102 136 176 227 282 346 412
#     4  12  19  40  72 102 132 182 225 278 351 424
#     4  11  25  47  67  95 137 181 232 285 335 401
#     4  11  23  42  72  97 134 176 226 278 348 407
#
# _framework density 21.463374999999999
#
# number of rings (size 3 to 8) (size 9 to 14) (size 15 to 20)
#    0.000    1.000    5.000    2.250    3.500    1.500 
#    4.500    2.500    0.000    0.000    0.000    0.000 
#    0.000    0.000    0.000    0.000    0.000    0.000 
#
# Total GULP energy -396535.850551 kJ/mol
# GULP energy per Si atom -12391.745330 kJ/mol
# Density = 2.141452 g / cm^3
# Si number density = 21.463375 Si / 1000 Ang^3
#
#
#
# Elastic Constant Matrix: (Units=GPa)
#
#
# Indices 1 2 3 4 5 6 
#
# 1 181.6931 45.1884 42.6268 0.0000 0.0000 0.0000
# 2 45.1884 108.4933 36.6989 0.0000 0.0000 0.0000
# 3 42.6268 36.6989 134.0652 0.0000 0.0000 0.0000
# 4 0.0000 0.0000 0.0000 15.8689 0.0000 0.0000
# 5 0.0000 0.0000 0.0000 0.0000 8.1904 0.0000
# 6 0.0000 0.0000 0.0000 0.0000 0.0000 12.9414
#
#
#
# Elastic Compliance Matrix: (Units=1/GPa)
#
#
# Indices 1 2 3 4 5 6 
#
# 1 0.006381 -0.002172 -0.001434 0.000000 0.000000 0.000000
# 2 -0.002172 0.010897 -0.002292 0.000000 0.000000 0.000000
# 3 -0.001434 -0.002292 0.008543 0.000000 0.000000 0.000000
# 4 0.000000 0.000000 0.000000 0.063016 0.000000 0.000000
# 5 0.000000 0.000000 0.000000 0.000000 0.122093 0.000000
# 6 0.000000 0.000000 0.000000 0.000000 0.000000 0.077271
#
#
# Mechanical properties :
#
#
# Convention : Reuss Voigt Hill
#
# Bulk Modulus (GPa) = 71.31223 74.80885 73.06054
# Shear Modulus (GPa) = 16.41101 27.38265 21.89683
#
# Velocity S-wave (km/s) = 2.76815 3.57569 3.19751
# Velocity P-wave (km/s) = 6.59652 7.20952 6.90982
#
# Compressibility (1/GPa) = 0.01402284
#
# Stress axis : x y z
#
# Youngs Moduli (GPa) = 156.72668 91.76495 117.06158
#
# Poissons Ratio (x) = 0.19936 0.16787
# Poissons Ratio (y) = 0.34048 0.26834
# Poissons Ratio (z) = 0.22475 0.21035
#
# Static dielectric constant tensor:
#      x y z
#    x 3.923750 0.000000 0.000000 
#    y 0.000000 3.866330 0.000000 
#    z 0.000000 0.000000 4.691780 
# 
# 
# High freq. dielectric constant tensor:
#      x y z
#    x 1.831830 0.000000 0.000000 
#    y 0.000000 1.837340 0.000000 
#    z 0.000000 0.000000 1.851030 
# 
# From -- ./inp_files/47890.got.cif
#   From: 2010.03.12/outbox.cif.g09.slc.cpg/sg72_24_cif.got.tgz:47890.got - 2010.04.16 14:54:00.
