data_PCOD8294826
_publ_section_title
;
Structure prediction by ZEFSAII (Michael W. Deem and Ramdas Pophale) SiO2 
 PCOD8294826
Probable space group: I B A M
;
_chemical_formula_sum "Si O2"
_cell_formula_units_Z 80
_cell_length_a 8.602921
_cell_length_b 16.424422
_cell_length_c 26.483077
_cell_angle_alpha 90.000000
_cell_angle_beta 90.000000
_cell_angle_gamma 90.000000
_cell_volume 3742.005945
_symmetry_space_group_name_H-M "I B A M"
_symmetry_group_IT_number 72
_symmetry_cell_setting 'orthorhombic'
loop_
_space_group_symop_operation_xyz
x,y,z
-x,-y,z
x,-y,1/2-z
-x,y,1/2-z
-x,-y,-z
x,y,-z
-x,y,1/2+z
x,-y,1/2+z
1/2+x,1/2+y,1/2+z
1/2-x,1/2-y,1/2+z
1/2+x,1/2-y,-z
1/2-x,1/2+y,-z
1/2-x,1/2-y,1/2-z
1/2+x,1/2+y,1/2-z
1/2-x,1/2+y,z
1/2+x,1/2-y,z
loop_
_atom_site_type_symbol
_atom_site_label
_atom_site_fract_x
_atom_site_fract_y
_atom_site_fract_z
Si Si1 0.741396 0.350592 0.839055
Si Si2 0.328299 0.026733 0.354119
Si Si3 0.317721 0.409512 0.238434
Si Si4 0.788386 0.642992 0.057755
Si Si5 0.018978 0.239191 0.394921
O O1 0.724694 0.445005 0.856165
O O2 0.764490 0.347609 0.777898
O O3 0.886109 0.307468 0.864838
O O4 0.580332 0.308215 0.853256
O O5 0.245925 0.098870 0.319256
O O6 0.337506 0.064449 0.409836
O O7 0.500000 0.000000 0.335189
O O8 0.258033 0.500000 0.250000
O O9 0.500000 0.401377 0.250000
O O10 0.620018 0.675158 0.074093
O O11 0.911035 0.715824 0.064514
O O12 0.784528 0.614881 0.000000
#
# Coordination Sequence:
#
# PCOD8294826 Si02
#       5
#    16  16  16  16  16
#     4  10  21  41  65  91 128 166 206 258 319 380
#     4  11  22  41  65  96 127 166 218 266 311 377
#     4   9  19  36  62  88 121 164 201 252 314 375
#     4  11  23  42  65  92 126 167 214 267 324 376
#     4  10  22  42  64  93 128 167 208 263 321 387
#
# _framework density 21.378907000000002
#
# number of rings (size 3 to 8) (size 9 to 14) (size 15 to 20)
#    0.000    1.800    2.000    1.800    0.000    6.400 
#    0.000   14.000    0.000    0.000    0.000    0.000 
#    0.000    0.000    0.000    0.000    0.000    0.000 
#
# Total GULP energy -495847.815844 kJ/mol
# GULP energy per Si atom -12396.195396 kJ/mol
# Density = 2.133025 g / cm^3
# Si number density = 21.378907 Si / 1000 Ang^3
#
#
#
# Elastic Constant Matrix: (Units=GPa)
#
#
# Indices 1 2 3 4 5 6 
#
# 1 102.5619 29.1848 54.1430 0.0000 0.0000 0.0000
# 2 29.1848 62.8287 44.9493 0.0000 0.0000 0.0000
# 3 54.1430 44.9493 167.6770 0.0000 0.0000 0.0000
# 4 0.0000 0.0000 0.0000 35.1137 0.0000 0.0000
# 5 0.0000 0.0000 0.0000 0.0000 18.2202 0.0000
# 6 0.0000 0.0000 0.0000 0.0000 0.0000 22.6198
#
#
#
# Elastic Compliance Matrix: (Units=1/GPa)
#
#
# Indices 1 2 3 4 5 6 
#
# 1 0.012370 -0.003574 -0.003036 0.000000 0.000000 0.000000
# 2 -0.003574 0.020726 -0.004402 0.000000 0.000000 0.000000
# 3 -0.003036 -0.004402 0.008124 0.000000 0.000000 0.000000
# 4 0.000000 0.000000 0.000000 0.028479 0.000000 0.000000
# 5 0.000000 0.000000 0.000000 0.000000 0.054884 0.000000
# 6 0.000000 0.000000 0.000000 0.000000 0.000000 0.044209
#
#
# Mechanical properties :
#
#
# Convention : Reuss Voigt Hill
#
# Bulk Modulus (GPa) = 52.09442 65.51351 58.80397
# Shear Modulus (GPa) = 25.35307 28.84344 27.09826
#
# Velocity S-wave (km/s) = 3.44741 3.67707 3.56409
# Velocity P-wave (km/s) = 6.34558 6.98128 6.67101
#
# Compressibility (1/GPa) = 0.01919591
#
# Stress axis : x y z
#
# Youngs Moduli (GPa) = 80.84064 48.24939 123.08775
#
# Poissons Ratio (x) = 0.17244 0.37372
# Poissons Ratio (y) = 0.28891 0.54183
# Poissons Ratio (z) = 0.24545 0.21239
#
# Static dielectric constant tensor:
#      x y z
#    x 3.897420 0.000000 0.000000 
#    y 0.000000 3.808480 0.000000 
#    z 0.000000 0.000000 3.886730 
# 
# 
# High freq. dielectric constant tensor:
#      x y z
#    x 1.845660 0.000000 0.000000 
#    y 0.000000 1.831880 0.000000 
#    z 0.000000 0.000000 1.830350 
# 
# From -- ./inp_files/47176.got.cif
#   From: 2010.03.12/outbox.cif.g09.slc.cpg/sg72_24_cif.got.tgz:47176.got - 2010.04.16 14:54:00.
