data_PCOD8294391
_publ_section_title
;
Structure prediction by ZEFSAII (Michael W. Deem and Ramdas Pophale) SiO2 
 PCOD8294391
Probable space group: I B A M
;
_chemical_formula_sum "Si O2"
_cell_formula_units_Z 56
_cell_length_a 32.802181
_cell_length_b 4.983280
_cell_length_c 17.045932
_cell_angle_alpha 90.000000
_cell_angle_beta 90.000000
_cell_angle_gamma 90.000000
_cell_volume 2786.369850
_symmetry_space_group_name_H-M "I B A M"
_symmetry_group_IT_number 72
_symmetry_cell_setting 'orthorhombic'
loop_
_space_group_symop_operation_xyz
x,y,z
-x,-y,z
x,-y,1/2-z
-x,y,1/2-z
-x,-y,-z
x,y,-z
-x,y,1/2+z
x,-y,1/2+z
1/2+x,1/2+y,1/2+z
1/2-x,1/2-y,1/2+z
1/2+x,1/2-y,-z
1/2-x,1/2+y,-z
1/2-x,1/2-y,1/2-z
1/2+x,1/2+y,1/2-z
1/2-x,1/2+y,z
1/2+x,1/2-y,z
loop_
_atom_site_type_symbol
_atom_site_label
_atom_site_fract_x
_atom_site_fract_y
_atom_site_fract_z
Si Si1 0.895679 0.898001 0.585769
Si Si2 0.139397 0.604581 0.662878
Si Si3 0.723287 0.150885 0.090344
Si Si4 0.529111 0.744407 0.000000
O O1 0.881279 0.004925 0.500000
O O2 0.867388 0.648557 0.607104
O O3 0.942109 0.781157 0.577967
O O4 0.891569 0.147166 0.646035
O O5 0.132126 0.500000 0.750000
O O6 0.185084 0.708830 0.647163
O O7 0.741051 0.859783 0.109692
O O8 0.709292 0.178465 0.000000
O O9 0.500000 0.500000 0.000000
O O10 0.500000 0.000000 0.000000
#
# Coordination Sequence:
#
# PCOD8294391 Si02
#       4
#    16  16  16   8
#     4  10  22  38  64  90 120 160 202 257 297 378
#     4  12  23  38  59  90 129 164 205 256 316 373
#     4  10  21  36  56  81 115 162 215 266 308 355
#     4  10  20  38  68  98 116 146 206 258 294 360
#
# _framework density 20.097833999999999
#
# number of rings (size 3 to 8) (size 9 to 14) (size 15 to 20)
#    0.857    0.571    0.000    6.857    0.000    3.429 
#    0.000    0.000    0.000   12.857    0.000    0.000 
#    0.000    0.000    0.000    0.000    0.000    0.000 
#
# Total GULP energy -347068.183094 kJ/mol
# GULP energy per Si atom -12395.292253 kJ/mol
# Density = 2.005209 g / cm^3
# Si number density = 20.097834 Si / 1000 Ang^3
#
#
#
# Elastic Constant Matrix: (Units=GPa)
#
#
# Indices 1 2 3 4 5 6 
#
# 1 109.8734 46.9313 50.2350 0.0000 0.0000 0.0000
# 2 46.9313 131.5277 36.5005 0.0000 0.0000 0.0000
# 3 50.2350 36.5005 74.2333 0.0000 0.0000 0.0000
# 4 0.0000 0.0000 0.0000 20.8968 0.0000 0.0000
# 5 0.0000 0.0000 0.0000 0.0000 12.4495 0.0000
# 6 0.0000 0.0000 0.0000 0.0000 0.0000 40.5388
#
#
#
# Elastic Compliance Matrix: (Units=1/GPa)
#
#
# Indices 1 2 3 4 5 6 
#
# 1 0.013981 -0.002736 -0.008115 0.000000 0.000000 0.000000
# 2 -0.002736 0.009340 -0.002741 0.000000 0.000000 0.000000
# 3 -0.008115 -0.002741 0.020311 0.000000 0.000000 0.000000
# 4 0.000000 0.000000 0.000000 0.047854 0.000000 0.000000
# 5 0.000000 0.000000 0.000000 0.000000 0.080325 0.000000
# 6 0.000000 0.000000 0.000000 0.000000 0.000000 0.024668
#
#
# Mechanical properties :
#
#
# Convention : Reuss Voigt Hill
#
# Bulk Modulus (GPa) = 60.80501 64.77422 62.78961
# Shear Modulus (GPa) = 21.82025 26.90818 24.36422
#
# Velocity S-wave (km/s) = 3.29857 3.66301 3.48556
# Velocity P-wave (km/s) = 6.69534 7.08446 6.89265
#
# Compressibility (1/GPa) = 0.01644601
#
# Stress axis : x y z
#
# Youngs Moduli (GPa) = 71.52733 107.06726 49.23557
#
# Poissons Ratio (x) = 0.29298 0.39957
# Poissons Ratio (y) = 0.19573 0.13494
# Poissons Ratio (z) = 0.58048 0.29344
#
# Static dielectric constant tensor:
#      x y z
#    x 3.552460 0.000000 0.000000 
#    y 0.000000 3.662090 0.000000 
#    z 0.000000 0.000000 3.429620 
# 
# 
# High freq. dielectric constant tensor:
#      x y z
#    x 1.776710 0.000000 0.000000 
#    y 0.000000 1.805050 0.000000 
#    z 0.000000 0.000000 1.756800 
# 
# From -- ./inp_files/26135.got.cif
#   From: 2010.03.12/outbox.cif.g09.slc.cpg/sg72_14_cif.got.tgz:26135.got - 2010.04.16 14:54:00.
