data_PCOD8294566
_publ_section_title
;
Structure prediction by ZEFSAII (Michael W. Deem and Ramdas Pophale) SiO2 
 PCOD8294566
Probable space group: I B A M
;
_chemical_formula_sum "Si O2"
_cell_formula_units_Z 60
_cell_length_a 24.811923
_cell_length_b 5.026395
_cell_length_c 25.673608
_cell_angle_alpha 90.000000
_cell_angle_beta 90.000000
_cell_angle_gamma 90.000000
_cell_volume 3201.871845
_symmetry_space_group_name_H-M "I B A M"
_symmetry_group_IT_number 72
_symmetry_cell_setting 'orthorhombic'
loop_
_space_group_symop_operation_xyz
x,y,z
-x,-y,z
x,-y,1/2-z
-x,y,1/2-z
-x,-y,-z
x,y,-z
-x,y,1/2+z
x,-y,1/2+z
1/2+x,1/2+y,1/2+z
1/2-x,1/2-y,1/2+z
1/2+x,1/2-y,-z
1/2-x,1/2+y,-z
1/2-x,1/2-y,1/2-z
1/2+x,1/2+y,1/2-z
1/2-x,1/2+y,z
1/2+x,1/2-y,z
loop_
_atom_site_type_symbol
_atom_site_label
_atom_site_fract_x
_atom_site_fract_y
_atom_site_fract_z
Si Si1 0.714988 0.387214 0.939791
Si Si2 0.398590 0.343108 0.603382
Si Si3 0.446881 0.868771 0.650899
Si Si4 0.538229 0.250157 0.000000
Si Si5 0.500000 0.000000 0.250000
O O1 0.760345 0.601942 0.926291
O O2 0.662916 0.434329 0.903898
O O3 0.697611 0.410664 0.000000
O O4 0.432933 0.587144 0.626132
O O5 0.422353 0.244777 0.549067
O O6 0.400139 0.090493 0.642865
O O7 0.461073 0.823533 0.712312
O O8 0.500000 0.000000 0.622847
O O9 0.500000 0.500000 0.000000
O O10 0.500000 0.000000 0.000000
#
# Coordination Sequence:
#
# PCOD8294566 Si02
#       5
#    16  16  16   8   4
#     4  10  21  37  56  79 115 156 200 237 274 331
#     4  12  21  37  57  87 114 162 192 231 286 347
#     4  10  22  37  60  83 118 146 200 231 287 356
#     4  12  24  34  50  82 128 160 182 218 277 352
#     4   8  24  42  60  84 116 154 192 250 296 340
#
# _framework density 18.739037
#
# number of rings (size 3 to 8) (size 9 to 14) (size 15 to 20)
#    0.800    0.533    1.333    6.400    0.000    2.133 
#    0.000    0.000    0.000    0.000    0.000   18.667 
#    0.000    0.000    0.000    0.000    0.000    0.000 
#
# Total GULP energy -371889.359440 kJ/mol
# GULP energy per Si atom -12396.311981 kJ/mol
# Density = 1.869639 g / cm^3
# Si number density = 18.739037 Si / 1000 Ang^3
#
#
#
# Elastic Constant Matrix: (Units=GPa)
#
#
# Indices 1 2 3 4 5 6 
#
# 1 84.5850 17.6494 45.7806 0.0000 0.0000 0.0000
# 2 17.6494 113.2785 41.3215 0.0000 0.0000 0.0000
# 3 45.7806 41.3215 103.6525 0.0000 0.0000 0.0000
# 4 0.0000 0.0000 0.0000 14.3865 0.0000 0.0000
# 5 0.0000 0.0000 0.0000 0.0000 20.9881 0.0000
# 6 0.0000 0.0000 0.0000 0.0000 0.0000 20.9068
#
#
#
# Elastic Compliance Matrix: (Units=1/GPa)
#
#
# Indices 1 2 3 4 5 6 
#
# 1 0.015537 0.000096 -0.006901 0.000000 0.000000 0.000000
# 2 0.000096 0.010331 -0.004161 0.000000 0.000000 0.000000
# 3 -0.006901 -0.004161 0.014354 0.000000 0.000000 0.000000
# 4 0.000000 0.000000 0.000000 0.069510 0.000000 0.000000
# 5 0.000000 0.000000 0.000000 0.000000 0.047646 0.000000
# 6 0.000000 0.000000 0.000000 0.000000 0.000000 0.047831
#
#
# Mechanical properties :
#
#
# Convention : Reuss Voigt Hill
#
# Bulk Modulus (GPa) = 54.67004 56.77988 55.72496
# Shear Modulus (GPa) = 21.43740 24.37390 22.90565
#
# Velocity S-wave (km/s) = 3.38597 3.61044 3.50000
# Velocity P-wave (km/s) = 6.67264 6.90988 6.79230
#
# Compressibility (1/GPa) = 0.01829155
#
# Stress axis : x y z
#
# Youngs Moduli (GPa) = 64.36116 96.79983 69.66533
#
# Poissons Ratio (x) = -0.00934 0.48075
# Poissons Ratio (y) = -0.00621 0.28987
# Poissons Ratio (z) = 0.44415 0.40278
#
# Static dielectric constant tensor:
#      x y z
#    x 3.352680 0.000000 0.000000 
#    y 0.000000 3.415430 0.000000 
#    z 0.000000 0.000000 3.344370 
# 
# 
# High freq. dielectric constant tensor:
#      x y z
#    x 1.717250 0.000000 0.000000 
#    y 0.000000 1.739690 0.000000 
#    z 0.000000 0.000000 1.701270 
# 
# From -- ./inp_files/45145.got.cif
#   From: 2010.03.12/outbox.cif.g09.slc.cpg/sg72_23_cif.got.tgz:45145.got - 2010.04.16 14:54:00.
