data_PCOD8294075
_publ_section_title
;
Structure prediction by ZEFSAII (Michael W. Deem and Ramdas Pophale) SiO2 
 PCOD8294075
Probable space group: I B A M
;
_chemical_formula_sum "Si O2"
_cell_formula_units_Z 116
_cell_length_a 25.599856
_cell_length_b 25.303069
_cell_length_c 9.054460
_cell_angle_alpha 90.000000
_cell_angle_beta 90.000000
_cell_angle_gamma 90.000000
_cell_volume 5865.071038
_symmetry_space_group_name_H-M "I B A M"
_symmetry_group_IT_number 72
_symmetry_cell_setting 'orthorhombic'
loop_
_space_group_symop_operation_xyz
x,y,z
-x,-y,z
x,-y,1/2-z
-x,y,1/2-z
-x,-y,-z
x,y,-z
-x,y,1/2+z
x,-y,1/2+z
1/2+x,1/2+y,1/2+z
1/2-x,1/2-y,1/2+z
1/2+x,1/2-y,-z
1/2-x,1/2+y,-z
1/2-x,1/2-y,1/2-z
1/2+x,1/2+y,1/2-z
1/2-x,1/2+y,z
1/2+x,1/2-y,z
loop_
_atom_site_type_symbol
_atom_site_label
_atom_site_fract_x
_atom_site_fract_y
_atom_site_fract_z
Si Si1 0.000000 0.000000 0.750000
Si Si2 0.842670 0.551937 0.176447
Si Si3 0.854696 0.737224 0.825329
Si Si4 0.397912 0.548930 0.336333
Si Si5 0.549572 0.069363 0.664877
Si Si6 0.658173 0.346618 0.675507
Si Si7 0.049253 0.692859 0.164541
Si Si8 0.723967 0.849713 0.325739
O O1 0.038648 0.039872 0.660119
O O2 0.816651 0.500000 0.250000
O O3 0.901391 0.556047 0.233658
O O4 0.810142 0.602035 0.237293
O O5 0.841803 0.548131 0.000000
O O6 0.862015 0.793634 0.750071
O O7 0.900662 0.700727 0.766360
O O8 0.801018 0.706958 0.779196
O O9 0.858950 0.743667 0.000000
O O10 0.371262 0.500000 0.250000
O O11 0.375264 0.546515 0.500000
O O12 0.379342 0.605194 0.269377
O O13 0.500000 0.044598 0.750000
O O14 0.556017 0.044615 0.500000
O O15 0.540765 0.131203 0.646467
O O16 0.655612 0.339666 0.500000
O O17 0.717140 0.355399 0.733903
O O18 0.000000 0.718732 0.250000
O O19 0.055014 0.718388 0.000000
O O20 0.723982 0.853937 0.500000
#
# Coordination Sequence:
#
# PCOD8294075 Si02
#       8
#     4  16  16  16  16  16  16  16
#     4   8  18  36  62  92 114 156 194 228 282 344
#     4  11  22  38  57  82 113 149 193 244 296 353
#     4  11  21  37  59  87 116 155 198 244 297 355
#     4   9  19  35  60  86 117 152 191 233 288 348
#     4  10  20  35  57  83 110 145 187 234 287 345
#     4  10  21  39  59  87 118 154 196 245 298 351
#     4  10  20  35  57  84 114 152 192 236 286 347
#     4   9  20  38  60  80 113 155 197 245 300 353
#
# _framework density 19.778106000000001
#
# number of rings (size 3 to 8) (size 9 to 14) (size 15 to 20)
#    0.414    1.655    1.379    2.276    0.000    2.483 
#    1.241    3.448    0.000    0.000    0.000    0.000 
#    0.000    0.000    0.000    0.000    0.000    0.000 
#
# Total GULP energy -718790.509647 kJ/mol
# GULP energy per Si atom -12392.939822 kJ/mol
# Density = 1.973309 g / cm^3
# Si number density = 19.778106 Si / 1000 Ang^3
#
#
#
# Elastic Constant Matrix: (Units=GPa)
#
#
# Indices 1 2 3 4 5 6 
#
# 1 92.3400 31.0911 22.3182 0.0000 0.0000 0.0000
# 2 31.0911 110.6464 38.9334 0.0000 0.0000 0.0000
# 3 22.3182 38.9334 85.3273 0.0000 0.0000 0.0000
# 4 0.0000 0.0000 0.0000 30.1235 0.0000 0.0000
# 5 0.0000 0.0000 0.0000 0.0000 24.2437 0.0000
# 6 0.0000 0.0000 0.0000 0.0000 0.0000 8.5689
#
#
#
# Elastic Compliance Matrix: (Units=1/GPa)
#
#
# Indices 1 2 3 4 5 6 
#
# 1 0.012226 -0.002752 -0.001942 0.000000 0.000000 0.000000
# 2 -0.002752 0.011386 -0.004475 0.000000 0.000000 0.000000
# 3 -0.001942 -0.004475 0.014270 0.000000 0.000000 0.000000
# 4 0.000000 0.000000 0.000000 0.033197 0.000000 0.000000
# 5 0.000000 0.000000 0.000000 0.000000 0.041248 0.000000
# 6 0.000000 0.000000 0.000000 0.000000 0.000000 0.116701
#
#
# Mechanical properties :
#
#
# Convention : Reuss Voigt Hill
#
# Bulk Modulus (GPa) = 51.17127 52.55545 51.86336
# Shear Modulus (GPa) = 19.69439 25.65196 22.67318
#
# Velocity S-wave (km/s) = 3.15900 3.60528 3.38949
# Velocity P-wave (km/s) = 6.26375 6.63030 6.44963
#
# Compressibility (1/GPa) = 0.01954221
#
# Stress axis : x y z
#
# Youngs Moduli (GPa) = 81.79617 87.82844 70.07924
#
# Poissons Ratio (x) = 0.24170 0.13610
# Poissons Ratio (y) = 0.22510 0.31363
# Poissons Ratio (z) = 0.15885 0.39306
#
# Static dielectric constant tensor:
#      x y z
#    x 3.662490 0.000000 0.000000 
#    y 0.000000 3.731280 0.000000 
#    z 0.000000 0.000000 3.575280 
# 
# 
# High freq. dielectric constant tensor:
#      x y z
#    x 1.764080 0.000000 0.000000 
#    y 0.000000 1.770410 0.000000 
#    z 0.000000 0.000000 1.763190 
# 
# From -- ./inp_files/8389.got.cif
#   From: 2010.03.12/outbox.cif.g09.slc.cpg/sg72_5_cif.got.tgz:8389.got - 2010.04.16 14:54:00.
