data_PCOD8294431
_publ_section_title
;
Structure prediction by ZEFSAII (Michael W. Deem and Ramdas Pophale) SiO2 
 PCOD8294431
Probable space group: I B A M
;
_chemical_formula_sum "Si O2"
_cell_formula_units_Z 112
_cell_length_a 31.360978
_cell_length_b 11.459435
_cell_length_c 15.186840
_cell_angle_alpha 90.000000
_cell_angle_beta 90.000000
_cell_angle_gamma 90.000000
_cell_volume 5457.832723
_symmetry_space_group_name_H-M "I B A M"
_symmetry_group_IT_number 72
_symmetry_cell_setting 'orthorhombic'
loop_
_space_group_symop_operation_xyz
x,y,z
-x,-y,z
x,-y,1/2-z
-x,y,1/2-z
-x,-y,-z
x,y,-z
-x,y,1/2+z
x,-y,1/2+z
1/2+x,1/2+y,1/2+z
1/2-x,1/2-y,1/2+z
1/2+x,1/2-y,-z
1/2-x,1/2+y,-z
1/2-x,1/2-y,1/2-z
1/2+x,1/2+y,1/2-z
1/2-x,1/2+y,z
1/2+x,1/2-y,z
loop_
_atom_site_type_symbol
_atom_site_label
_atom_site_fract_x
_atom_site_fract_y
_atom_site_fract_z
Si Si1 0.110320 0.743798 0.898614
Si Si2 0.786479 0.125554 0.605018
Si Si3 0.190910 0.600307 0.894708
Si Si4 0.550235 0.866952 0.244867
Si Si5 0.631596 0.498021 0.851211
Si Si6 0.414134 0.735619 0.904851
Si Si7 0.172211 0.647340 0.402510
O O1 0.155131 0.691365 0.861126
O O2 0.070798 0.694577 0.841236
O O3 0.115026 0.882913 0.894386
O O4 0.101998 0.706811 0.000000
O O5 0.788145 0.126100 0.500000
O O6 0.738447 0.122576 0.641193
O O7 0.805113 0.245051 0.646846
O O8 0.817132 0.019063 0.635883
O O9 0.179461 0.474421 0.853407
O O10 0.190213 0.602198 0.000000
O O11 0.500000 0.876420 0.250000
O O12 0.556815 0.778287 0.325992
O O13 0.568749 0.000000 0.250000
O O14 0.619708 0.500000 0.750000
O O15 0.605659 0.392810 0.894976
O O16 0.377679 0.832587 0.907844
O O17 0.438246 0.737832 0.000000
O O18 0.192593 0.637505 0.500000
#
# Coordination Sequence:
#
# PCOD8294431 Si02
#       7
#    16  16  16  16  16  16  16
#     4  11  23  41  65  95 130 173 218 267 326 388
#     4   9  18  31  52  83 118 163 216 261 309 372
#     4   9  18  31  53  84 120 164 210 261 315 369
#     4  11  25  44  68 100 132 162 205 266 326 388
#     4  11  21  39  62  90 127 169 218 271 325 378
#     4  10  20  40  66  90 121 169 212 252 318 393
#     4   8  15  29  50  77 110 153 205 248 294 360
#
# _framework density 20.520965
#
# number of rings (size 3 to 8) (size 9 to 14) (size 15 to 20)
#    0.000    2.143    1.429    3.000    2.000    2.286 
#    0.000    5.714    0.000    1.714    0.000    0.000 
#    0.000    0.000    0.000    0.000    0.000    0.000 
#
# Total GULP energy -693801.892164 kJ/mol
# GULP energy per Si atom -12389.319503 kJ/mol
# Density = 2.047426 g / cm^3
# Si number density = 20.520965 Si / 1000 Ang^3
#
#
#
# Elastic Constant Matrix: (Units=GPa)
#
#
# Indices 1 2 3 4 5 6 
#
# 1 85.2244 41.8894 27.6440 0.0000 0.0000 0.0000
# 2 41.8894 119.9696 22.0341 0.0000 0.0000 0.0000
# 3 27.6440 22.0341 88.7456 0.0000 0.0000 0.0000
# 4 0.0000 0.0000 0.0000 22.7356 0.0000 0.0000
# 5 0.0000 0.0000 0.0000 0.0000 25.2599 0.0000
# 6 0.0000 0.0000 0.0000 0.0000 0.0000 24.8927
#
#
#
# Elastic Compliance Matrix: (Units=1/GPa)
#
#
# Indices 1 2 3 4 5 6 
#
# 1 0.015175 -0.004642 -0.003574 0.000000 0.000000 0.000000
# 2 -0.004642 0.010154 -0.001075 0.000000 0.000000 0.000000
# 3 -0.003574 -0.001075 0.012648 0.000000 0.000000 0.000000
# 4 0.000000 0.000000 0.000000 0.043984 0.000000 0.000000
# 5 0.000000 0.000000 0.000000 0.000000 0.039588 0.000000
# 6 0.000000 0.000000 0.000000 0.000000 0.000000 0.040172
#
#
# Mechanical properties :
#
#
# Convention : Reuss Voigt Hill
#
# Bulk Modulus (GPa) = 51.56198 53.00830 52.28514
# Shear Modulus (GPa) = 26.77097 28.06910 27.42004
#
# Velocity S-wave (km/s) = 3.61580 3.70242 3.65937
# Velocity P-wave (km/s) = 6.52787 6.64565 6.58702
#
# Compressibility (1/GPa) = 0.01939414
#
# Stress axis : x y z
#
# Youngs Moduli (GPa) = 65.89872 98.48587 79.06089
#
# Poissons Ratio (x) = 0.45718 0.28259
# Poissons Ratio (y) = 0.30591 0.08499
# Poissons Ratio (z) = 0.23555 0.10587
#
# Static dielectric constant tensor:
#      x y z
#    x 3.564960 0.000000 0.000000 
#    y 0.000000 3.979960 0.000000 
#    z 0.000000 0.000000 3.633770 
# 
# 
# High freq. dielectric constant tensor:
#      x y z
#    x 1.778060 0.000000 0.000000 
#    y 0.000000 1.816130 0.000000 
#    z 0.000000 0.000000 1.789820 
# 
# From -- ./inp_files/26336.got.cif
#   From: 2010.03.12/outbox.cif.g09.slc.cpg/sg72_14_cif.got.tgz:26336.got - 2010.04.16 14:54:00.
