data_PCOD8294937
_publ_section_title
;
Structure prediction by ZEFSAII (Michael W. Deem and Ramdas Pophale) SiO2 
 PCOD8294937
Probable space group: I B A M
;
_chemical_formula_sum "Si O2"
_cell_formula_units_Z 80
_cell_length_a 14.171826
_cell_length_b 12.660622
_cell_length_c 20.487672
_cell_angle_alpha 90.000000
_cell_angle_beta 90.000000
_cell_angle_gamma 90.000000
_cell_volume 3675.982766
_symmetry_space_group_name_H-M "I B A M"
_symmetry_group_IT_number 72
_symmetry_cell_setting 'orthorhombic'
loop_
_space_group_symop_operation_xyz
x,y,z
-x,-y,z
x,-y,1/2-z
-x,y,1/2-z
-x,-y,-z
x,y,-z
-x,y,1/2+z
x,-y,1/2+z
1/2+x,1/2+y,1/2+z
1/2-x,1/2-y,1/2+z
1/2+x,1/2-y,-z
1/2-x,1/2+y,-z
1/2-x,1/2-y,1/2-z
1/2+x,1/2+y,1/2-z
1/2-x,1/2+y,z
1/2+x,1/2-y,z
loop_
_atom_site_type_symbol
_atom_site_label
_atom_site_fract_x
_atom_site_fract_y
_atom_site_fract_z
Si Si1 0.747385 0.114674 0.073055
Si Si2 0.223230 0.044532 0.821965
Si Si3 0.452542 0.886623 0.132545
Si Si4 0.399410 0.720869 0.768881
Si Si5 0.855275 0.707372 0.367004
O O1 0.633646 0.112890 0.081582
O O2 0.791249 0.232412 0.079967
O O3 0.805867 0.045792 0.126317
O O4 0.768019 0.073897 0.000000
O O5 0.147700 0.139306 0.819314
O O6 0.318877 0.088298 0.854658
O O7 0.240669 0.000000 0.750000
O O8 0.410359 0.837820 0.199612
O O9 0.535757 0.804872 0.109855
O O10 0.500000 0.000000 0.144295
O O11 0.500000 0.671366 0.750000
O O12 0.339990 0.733076 0.702546
#
# Coordination Sequence:
#
# PCOD8294937 Si02
#       5
#    16  16  16  16  16
#     4  12  27  46  67  98 141 192 234 282 351 419
#     4  12  22  41  72  97 137 179 234 287 344 410
#     4  11  23  43  68 105 137 175 227 290 348 417
#     4  10  22  39  67 103 138 175 225 281 355 404
#     4  11  23  42  67 101 138 176 225 290 348 411
#
# _framework density 21.762888
#
# number of rings (size 3 to 8) (size 9 to 14) (size 15 to 20)
#    0.000    0.800    6.000    1.800    0.000    5.200 
#    0.000    0.000    0.000    4.800    0.000    0.000 
#    0.000    0.000    0.000    0.000    0.000    0.000 
#
# Total GULP energy -495736.271977 kJ/mol
# GULP energy per Si atom -12393.406799 kJ/mol
# Density = 2.171335 g / cm^3
# Si number density = 21.762888 Si / 1000 Ang^3
#
#
#
# Elastic Constant Matrix: (Units=GPa)
#
#
# Indices 1 2 3 4 5 6 
#
# 1 73.9594 39.8716 30.2583 0.0000 0.0000 0.0000
# 2 39.8716 102.4842 50.4158 0.0000 0.0000 0.0000
# 3 30.2583 50.4158 124.9090 0.0000 0.0000 0.0000
# 4 0.0000 0.0000 0.0000 15.4330 0.0000 0.0000
# 5 0.0000 0.0000 0.0000 0.0000 21.4011 0.0000
# 6 0.0000 0.0000 0.0000 0.0000 0.0000 41.1194
#
#
#
# Elastic Compliance Matrix: (Units=1/GPa)
#
#
# Indices 1 2 3 4 5 6 
#
# 1 0.017447 -0.005875 -0.001855 0.000000 0.000000 0.000000
# 2 -0.005875 0.014153 -0.004289 0.000000 0.000000 0.000000
# 3 -0.001855 -0.004289 0.010186 0.000000 0.000000 0.000000
# 4 0.000000 0.000000 0.000000 0.064796 0.000000 0.000000
# 5 0.000000 0.000000 0.000000 0.000000 0.046727 0.000000
# 6 0.000000 0.000000 0.000000 0.000000 0.000000 0.024319
#
#
# Mechanical properties :
#
#
# Convention : Reuss Voigt Hill
#
# Bulk Modulus (GPa) = 56.34528 60.27157 58.30842
# Shear Modulus (GPa) = 24.08651 27.64448 25.86549
#
# Velocity S-wave (km/s) = 3.33042 3.56793 3.45122
# Velocity P-wave (km/s) = 6.38245 6.68792 6.53697
#
# Compressibility (1/GPa) = 0.01774771
#
# Stress axis : x y z
#
# Youngs Moduli (GPa) = 57.31558 70.65392 98.16926
#
# Poissons Ratio (x) = 0.41511 0.18211
# Poissons Ratio (y) = 0.33675 0.42109
# Poissons Ratio (z) = 0.10633 0.30306
#
# Static dielectric constant tensor:
#      x y z
#    x 4.089260 0.000000 0.000000 
#    y 0.000000 3.921210 0.000000 
#    z 0.000000 0.000000 3.538100 
# 
# 
# High freq. dielectric constant tensor:
#      x y z
#    x 1.861450 0.000000 0.000000 
#    y 0.000000 1.860900 0.000000 
#    z 0.000000 0.000000 1.819200 
# 
# From -- ./inp_files/44050.got.cif
#   From: 2010.03.12/outbox.cif.g09.slc.cpg/sg72_23_cif.got.tgz:44050.got - 2010.04.16 14:54:00.
