data_PCOD8294067
_publ_section_title
;
Structure prediction by ZEFSAII (Michael W. Deem and Ramdas Pophale) SiO2 
 PCOD8294067
Probable space group: I B A M
;
_chemical_formula_sum "Si O2"
_cell_formula_units_Z 112
_cell_length_a 16.397979
_cell_length_b 21.938555
_cell_length_c 15.181541
_cell_angle_alpha 90.000000
_cell_angle_beta 90.000000
_cell_angle_gamma 90.000000
_cell_volume 5461.528468
_symmetry_space_group_name_H-M "I B A M"
_symmetry_group_IT_number 72
_symmetry_cell_setting 'orthorhombic'
loop_
_space_group_symop_operation_xyz
x,y,z
-x,-y,z
x,-y,1/2-z
-x,y,1/2-z
-x,-y,-z
x,y,-z
-x,y,1/2+z
x,-y,1/2+z
1/2+x,1/2+y,1/2+z
1/2-x,1/2-y,1/2+z
1/2+x,1/2-y,-z
1/2-x,1/2+y,-z
1/2-x,1/2-y,1/2-z
1/2+x,1/2+y,1/2-z
1/2-x,1/2+y,z
1/2+x,1/2-y,z
loop_
_atom_site_type_symbol
_atom_site_label
_atom_site_fract_x
_atom_site_fract_y
_atom_site_fract_z
Si Si1 0.145123 0.472081 0.601203
Si Si2 0.353776 0.895054 0.100106
Si Si3 0.211982 0.114370 0.896335
Si Si4 0.659207 0.787126 0.102120
Si Si5 0.816594 0.148429 0.104586
Si Si6 0.596066 0.428469 0.251244
Si Si7 0.476773 0.125814 0.153545
O O1 0.162250 0.483425 0.500000
O O2 0.137156 0.538423 0.647769
O O3 0.222616 0.435365 0.638151
O O4 0.062685 0.433297 0.608755
O O5 0.276508 0.859205 0.139461
O O6 0.437779 0.857095 0.106455
O O7 0.331102 0.905563 0.000000
O O8 0.253594 0.180532 0.879343
O O9 0.132936 0.105692 0.834882
O O10 0.188428 0.106989 0.000000
O O11 0.660833 0.717179 0.130266
O O12 0.584627 0.817323 0.155093
O O13 0.637796 0.796369 0.000000
O O14 0.871771 0.100785 0.157802
O O15 0.828465 0.137023 0.000000
O O16 0.618116 0.500000 0.250000
O O17 0.500000 0.417960 0.250000
O O18 0.500000 0.105788 0.250000
#
# Coordination Sequence:
#
# PCOD8294067 Si02
#       7
#    16  16  16  16  16  16  16
#     4   9  18  34  57  83 118 160 198 240 294 358
#     4  10  20  35  56  84 118 157 198 244 299 360
#     4   9  19  39  65  89 116 161 207 248 304 366
#     4   9  20  42  64  84 119 162 207 250 295 355
#     4  10  23  43  65  91 122 159 203 255 307 359
#     4  11  25  42  62  91 123 157 202 258 312 363
#     4  11  22  33  52  89 123 159 196 238 295 357
#
# _framework density 20.507079000000001
#
# number of rings (size 3 to 8) (size 9 to 14) (size 15 to 20)
#    0.000    2.143    0.000    3.429    4.000    5.714 
#    2.571    1.429    0.000    0.000    0.000    0.000 
#    0.000    0.000    0.000    0.000    0.000    0.000 
#
# Total GULP energy -694126.490562 kJ/mol
# GULP energy per Si atom -12395.115903 kJ/mol
# Density = 2.046040 g / cm^3
# Si number density = 20.507079 Si / 1000 Ang^3
#
#
#
# Elastic Constant Matrix: (Units=GPa)
#
#
# Indices 1 2 3 4 5 6 
#
# 1 135.0582 57.1288 37.2552 0.0000 0.0000 0.0000
# 2 57.1288 126.9623 34.5174 0.0000 0.0000 0.0000
# 3 37.2552 34.5174 62.4663 0.0002 0.0000 0.0000
# 4 0.0000 0.0000 0.0002 63.0402 0.0000 0.0000
# 5 0.0000 0.0000 0.0000 0.0000 34.7256 0.0000
# 6 0.0000 0.0000 0.0000 0.0000 0.0000 13.0191
#
#
#
# Elastic Compliance Matrix: (Units=1/GPa)
#
#
# Indices 1 2 3 4 5 6 
#
# 1 0.009954 -0.003371 -0.004074 0.000000 0.000000 0.000000
# 2 -0.003371 0.010411 -0.003742 0.000000 0.000000 0.000000
# 3 -0.004074 -0.003742 0.020506 0.000000 0.000000 0.000000
# 4 0.000000 0.000000 0.000000 0.015863 0.000000 0.000000
# 5 0.000000 0.000000 0.000000 0.000000 0.028797 0.000000
# 6 0.000000 0.000000 0.000000 0.000000 0.000000 0.076810
#
#
# Mechanical properties :
#
#
# Convention : Reuss Voigt Hill
#
# Bulk Modulus (GPa) = 54.06423 64.69882 59.38153
# Shear Modulus (GPa) = 26.19441 35.19600 30.69521
#
# Velocity S-wave (km/s) = 3.57786 4.14730 3.87306
# Velocity P-wave (km/s) = 6.59462 7.38590 7.00145
#
# Compressibility (1/GPa) = 0.01849652
#
# Stress axis : x y z
#
# Youngs Moduli (GPa) = 100.46183 96.05471 48.76644
#
# Poissons Ratio (x) = 0.32385 0.19866
# Poissons Ratio (y) = 0.33870 0.18248
# Poissons Ratio (z) = 0.40925 0.35943
#
# Static dielectric constant tensor:
#      x y z
#    x 3.874510 0.000000 0.000000 
#    y 0.000000 3.879700 0.000000 
#    z 0.000000 0.000000 3.835470 
# 
# 
# High freq. dielectric constant tensor:
#      x y z
#    x 1.799250 0.000000 0.000000 
#    y 0.000000 1.795900 0.000000 
#    z 0.000000 0.000000 1.795340 
# 
# From -- ./inp_files/22140.got.cif
#   From: 2010.03.12/outbox.cif.g09.slc.cpg/sg72_12_cif.got.tgz:22140.got - 2010.04.16 14:54:00.
