data_PCOD8294355
_publ_section_title
;
Structure prediction by ZEFSAII (Michael W. Deem and Ramdas Pophale) SiO2 
 PCOD8294355
Probable space group: I B A M
;
_chemical_formula_sum "Si O2"
_cell_formula_units_Z 112
_cell_length_a 10.925151
_cell_length_b 30.660086
_cell_length_c 16.498899
_cell_angle_alpha 90.000000
_cell_angle_beta 90.000000
_cell_angle_gamma 90.000000
_cell_volume 5526.571345
_symmetry_space_group_name_H-M "I B A M"
_symmetry_group_IT_number 72
_symmetry_cell_setting 'orthorhombic'
loop_
_space_group_symop_operation_xyz
x,y,z
-x,-y,z
x,-y,1/2-z
-x,y,1/2-z
-x,-y,-z
x,y,-z
-x,y,1/2+z
x,-y,1/2+z
1/2+x,1/2+y,1/2+z
1/2-x,1/2-y,1/2+z
1/2+x,1/2-y,-z
1/2-x,1/2+y,-z
1/2-x,1/2-y,1/2-z
1/2+x,1/2+y,1/2-z
1/2-x,1/2+y,z
1/2+x,1/2-y,z
loop_
_atom_site_type_symbol
_atom_site_label
_atom_site_fract_x
_atom_site_fract_y
_atom_site_fract_z
Si Si1 0.955066 0.067441 0.341055
Si Si2 0.162720 0.011668 0.591648
Si Si3 0.287139 0.359557 0.402616
Si Si4 0.929709 0.458081 0.406613
Si Si5 0.530911 0.127984 0.659218
Si Si6 0.750334 0.263726 0.841912
Si Si7 0.987662 0.719480 0.908425
O O1 0.906525 0.112636 0.378673
O O2 0.000000 0.075264 0.250000
O O3 0.064916 0.050037 0.396466
O O4 0.853254 0.028914 0.346230
O O5 0.154280 0.993250 0.500000
O O6 0.288917 0.034489 0.607951
O O7 0.273922 0.355568 0.500000
O O8 0.171715 0.383581 0.360996
O O9 0.295727 0.312443 0.360828
O O10 0.966736 0.450328 0.500000
O O11 0.000000 0.500000 0.371676
O O12 0.955453 0.415399 0.355366
O O13 0.500000 0.143742 0.750000
O O14 0.491686 0.167411 0.601175
O O15 0.750000 0.250000 0.750000
O O16 0.893298 0.257684 0.867120
O O17 0.648401 0.233372 0.882644
O O18 0.004237 0.732991 0.000000
#
# Coordination Sequence:
#
# PCOD8294355 Si02
#       7
#    16  16  16  16  16  16  16
#     4  11  23  38  61  88 126 166 214 267 320 369
#     4  10  20  38  61  85 123 170 216 263 322 390
#     4  11  23  43  67  92 125 173 219 255 319 407
#     4  10  21  38  60  87 120 160 208 258 313 379
#     4  11  23  39  62  92 127 160 205 262 321 376
#     4  11  23  42  67  95 131 167 216 270 332 387
#     4  11  22  42  67  94 128 172 215 261 321 395
#
# _framework density 20.265730999999999
#
# number of rings (size 3 to 8) (size 9 to 14) (size 15 to 20)
#    0.000    1.286    0.000    9.000    2.000    2.571 
#    5.143    0.000    0.000    0.000    0.000    0.000 
#    0.000    0.000    0.000    0.000    0.000    0.000 
#
# Total GULP energy -694148.561945 kJ/mol
# GULP energy per Si atom -12395.510035 kJ/mol
# Density = 2.021960 g / cm^3
# Si number density = 20.265731 Si / 1000 Ang^3
#
#
#
# Elastic Constant Matrix: (Units=GPa)
#
#
# Indices 1 2 3 4 5 6 
#
# 1 85.4752 52.6773 33.5379 -0.0001 0.0000 0.0000
# 2 52.6773 94.7194 38.5676 -0.0001 0.0000 0.0001
# 3 33.5379 38.5676 129.3849 -0.0007 0.0003 0.0001
# 4 -0.0001 -0.0001 -0.0007 36.0581 0.0001 0.0001
# 5 0.0000 0.0000 0.0003 0.0001 32.3947 -0.0001
# 6 0.0000 0.0001 0.0001 0.0001 -0.0001 16.8375
#
#
#
# Elastic Compliance Matrix: (Units=1/GPa)
#
#
# Indices 1 2 3 4 5 6 
#
# 1 0.018217 -0.009342 -0.001937 0.000000 0.000000 0.000000
# 2 -0.009342 0.016807 -0.002588 0.000000 0.000000 0.000000
# 3 -0.001937 -0.002588 0.009003 0.000000 0.000000 0.000000
# 4 0.000000 0.000000 0.000000 0.027733 0.000000 0.000000
# 5 0.000000 0.000000 0.000000 0.000000 0.030869 0.000000
# 6 0.000000 0.000000 0.000000 0.000000 0.000000 0.059391
#
#
# Mechanical properties :
#
#
# Convention : Reuss Voigt Hill
#
# Bulk Modulus (GPa) = 61.38424 62.12724 61.75574
# Shear Modulus (GPa) = 25.61651 29.37782 27.49717
#
# Velocity S-wave (km/s) = 3.55918 3.81153 3.68751
# Velocity P-wave (km/s) = 6.87356 7.07766 6.97635
#
# Compressibility (1/GPa) = 0.01629083
#
# Stress axis : x y z
#
# Youngs Moduli (GPa) = 54.89358 59.49860 111.07975
#
# Poissons Ratio (x) = 0.55586 0.21519
# Poissons Ratio (y) = 0.51284 0.28750
# Poissons Ratio (z) = 0.10634 0.15400
#
# Static dielectric constant tensor:
#      x y z
#    x 3.979490 0.000000 0.000000 
#    y 0.000000 3.634980 0.000000 
#    z 0.000000 0.000000 3.803410 
# 
# 
# High freq. dielectric constant tensor:
#      x y z
#    x 1.803550 0.000000 0.000000 
#    y 0.000000 1.788540 0.000000 
#    z 0.000000 0.000000 1.797470 
# 
# From -- ./inp_files/20698.got.cif
#   From: 2010.03.12/outbox.cif.g09.slc.cpg/sg72_11_cif.got.tgz:20698.got - 2010.04.16 14:54:00.
