data_PCOD8294489
_publ_section_title
;
Structure prediction by ZEFSAII (Michael W. Deem and Ramdas Pophale) SiO2 
 PCOD8294489
Probable space group: I B A M
;
_chemical_formula_sum "Si O2"
_cell_formula_units_Z 96
_cell_length_a 12.714651
_cell_length_b 19.328683
_cell_length_c 20.507145
_cell_angle_alpha 90.000000
_cell_angle_beta 90.000000
_cell_angle_gamma 90.000000
_cell_volume 5039.783839
_symmetry_space_group_name_H-M "I B A M"
_symmetry_group_IT_number 72
_symmetry_cell_setting 'orthorhombic'
loop_
_space_group_symop_operation_xyz
x,y,z
-x,-y,z
x,-y,1/2-z
-x,y,1/2-z
-x,-y,-z
x,y,-z
-x,y,1/2+z
x,-y,1/2+z
1/2+x,1/2+y,1/2+z
1/2-x,1/2-y,1/2+z
1/2+x,1/2-y,-z
1/2-x,1/2+y,-z
1/2-x,1/2-y,1/2-z
1/2+x,1/2+y,1/2-z
1/2-x,1/2+y,z
1/2+x,1/2-y,z
loop_
_atom_site_type_symbol
_atom_site_label
_atom_site_fract_x
_atom_site_fract_y
_atom_site_fract_z
Si Si1 0.213719 0.076617 0.255830
Si Si2 0.282909 0.179063 0.856816
Si Si3 0.439772 0.928607 0.191184
Si Si4 0.576216 0.694349 0.189645
Si Si5 0.429862 0.293135 0.572192
Si Si6 0.516863 0.142468 0.429927
O O1 0.239553 0.118616 0.189938
O O2 0.318963 0.060325 0.294987
O O3 0.136619 0.123444 0.297949
O O4 0.160816 0.000000 0.250000
O O5 0.341563 0.241970 0.818738
O O6 0.187596 0.208836 0.899239
O O7 0.363367 0.142841 0.905818
O O8 0.500000 0.886377 0.250000
O O9 0.441942 0.892422 0.122184
O O10 0.500000 0.000000 0.184660
O O11 0.500000 0.714129 0.250000
O O12 0.509536 0.674629 0.125185
O O13 0.432541 0.330157 0.500000
O O14 0.469163 0.216897 0.560492
O O15 0.513934 0.103717 0.500000
#
# Coordination Sequence:
#
# PCOD8294489 Si02
#       6
#    16  16  16  16  16  16
#     4  12  23  38  61  92 123 158 207 255 307 362
#     4  11  21  37  63  86 121 160 203 251 302 365
#     4  11  20  37  57  86 117 159 197 247 307 358
#     4  11  24  38  62  96 121 160 206 254 310 364
#     4  10  22  40  58  86 122 156 201 251 308 363
#     4  10  21  34  57  86 117 153 192 251 308 362
#
# _framework density 19.048437
#
# number of rings (size 3 to 8) (size 9 to 14) (size 15 to 20)
#    0.000    1.167    5.000    2.000    4.667    1.333 
#    0.000    0.833    0.000    3.000    0.000    0.000 
#    0.000    0.000    0.000    0.000    0.000    0.000 
#
# Total GULP energy -594770.590080 kJ/mol
# GULP energy per Si atom -12391.053960 kJ/mol
# Density = 1.900508 g / cm^3
# Si number density = 19.048437 Si / 1000 Ang^3
#
#
#
# Elastic Constant Matrix: (Units=GPa)
#
#
# Indices 1 2 3 4 5 6 
#
# 1 77.7655 18.3968 44.1994 0.0000 0.0000 0.0000
# 2 18.3968 66.7132 36.7263 0.0000 0.0000 0.0000
# 3 44.1994 36.7263 155.7825 0.0000 0.0000 0.0000
# 4 0.0000 0.0000 0.0000 136.9898 0.0000 0.0000
# 5 0.0000 0.0000 0.0000 0.0000 52.2392 0.0000
# 6 0.0000 0.0000 0.0000 0.0000 0.0000 26.0849
#
#
#
# Elastic Compliance Matrix: (Units=1/GPa)
#
#
# Indices 1 2 3 4 5 6 
#
# 1 0.015594 -0.002143 -0.003919 0.000000 0.000000 0.000000
# 2 -0.002143 0.017519 -0.003522 0.000000 0.000000 0.000000
# 3 -0.003919 -0.003522 0.008362 0.000000 0.000000 0.000000
# 4 0.000000 0.000000 0.000000 0.007300 0.000000 0.000000
# 5 0.000000 0.000000 0.000000 0.000000 0.019143 0.000000
# 6 0.000000 0.000000 0.000000 0.000000 0.000000 0.038336
#
#
# Mechanical properties :
#
#
# Convention : Reuss Voigt Hill
#
# Bulk Modulus (GPa) = 44.83011 55.43402 50.13206
# Shear Modulus (GPa) = 37.63438 56.45867 47.04653
#
# Velocity S-wave (km/s) = 4.44973 5.45013 4.97514
# Velocity P-wave (km/s) = 7.07008 8.29276 7.70571
#
# Compressibility (1/GPa) = 0.02230644
#
# Stress axis : x y z
#
# Youngs Moduli (GPa) = 64.12903 57.07937 119.59446
#
# Poissons Ratio (x) = 0.12229 0.46871
# Poissons Ratio (y) = 0.13740 0.42126
# Poissons Ratio (z) = 0.25133 0.20106
#
# Static dielectric constant tensor:
#      x y z
#    x 3.813720 0.000000 0.000000 
#    y 0.000000 3.371300 0.000000 
#    z 0.000000 0.000000 7.988060 
# 
# 
# High freq. dielectric constant tensor:
#      x y z
#    x 1.750440 0.000000 0.000000 
#    y 0.000000 1.717760 0.000000 
#    z 0.000000 0.000000 1.751700 
# 
# From -- ./inp_files/37109.got.cif
#   From: 2010.03.12/outbox.cif.g09.slc.cpg/sg72_19_cif.got.tgz:37109.got - 2010.04.16 14:54:00.
