data_PCOD8294680
_publ_section_title
;
Structure prediction by ZEFSAII (Michael W. Deem and Ramdas Pophale) SiO2 
 PCOD8294680
Probable space group: I B A M
;
_chemical_formula_sum "Si O2"
_cell_formula_units_Z 80
_cell_length_a 15.438221
_cell_length_b 18.696622
_cell_length_c 14.641754
_cell_angle_alpha 90.000000
_cell_angle_beta 90.000000
_cell_angle_gamma 90.000000
_cell_volume 4226.233685
_symmetry_space_group_name_H-M "I B A M"
_symmetry_group_IT_number 72
_symmetry_cell_setting 'orthorhombic'
loop_
_space_group_symop_operation_xyz
x,y,z
-x,-y,z
x,-y,1/2-z
-x,y,1/2-z
-x,-y,-z
x,y,-z
-x,y,1/2+z
x,-y,1/2+z
1/2+x,1/2+y,1/2+z
1/2-x,1/2-y,1/2+z
1/2+x,1/2-y,-z
1/2-x,1/2+y,-z
1/2-x,1/2-y,1/2-z
1/2+x,1/2+y,1/2-z
1/2-x,1/2+y,z
1/2+x,1/2-y,z
loop_
_atom_site_type_symbol
_atom_site_label
_atom_site_fract_x
_atom_site_fract_y
_atom_site_fract_z
Si Si1 0.234122 0.998962 0.000000
Si Si2 0.278670 0.748712 0.147090
Si Si3 0.454620 0.683584 0.154986
Si Si4 0.991487 0.723001 0.500000
Si Si5 0.690664 0.846373 0.000000
Si Si6 0.180360 0.351470 0.000000
Si Si7 0.406639 0.474766 0.645984
O O1 0.292747 0.069401 0.000000
O O2 0.172289 0.992539 0.911600
O O3 0.306468 0.936400 0.000000
O O4 0.250000 0.750000 0.250000
O O5 0.380425 0.741384 0.158632
O O6 0.233119 0.685006 0.091770
O O7 0.268273 0.821807 0.089423
O O8 0.500000 0.669032 0.250000
O O9 0.520087 0.720470 0.083627
O O10 0.408471 0.609832 0.126933
O O11 0.080031 0.675636 0.500000
O O12 0.912281 0.667673 0.500000
O O13 0.500000 0.500000 0.609870
O O14 0.392078 0.500000 0.750000
#
# Coordination Sequence:
#
# PCOD8294680 Si02
#       7
#     8  16  16   8   8   8  16
#     4  12  24  39  61  86 125 159 197 252 299 349
#     4  10  21  38  60  86 118 154 204 247 293 354
#     4  11  20  38  60  85 120 155 192 247 296 358
#     4  10  23  41  60  84 117 157 213 249 294 342
#     4  11  22  39  62  88 114 165 203 248 302 341
#     4   9  24  39  58  90 118 157 205 248 298 355
#     4  11  23  38  56  88 125 156 191 232 308 375
#
# _framework density 18.929383999999999
#
# number of rings (size 3 to 8) (size 9 to 14) (size 15 to 20)
#    0.000    1.400    4.000    2.700    2.800    3.600 
#    0.000    0.000    0.000    0.000    0.000    5.600 
#    0.000    0.000    0.000    0.000    0.000    0.000 
#
# Total GULP energy -495588.651822 kJ/mol
# GULP energy per Si atom -12389.716296 kJ/mol
# Density = 1.888630 g / cm^3
# Si number density = 18.929384 Si / 1000 Ang^3
#
#
#
# Elastic Constant Matrix: (Units=GPa)
#
#
# Indices 1 2 3 4 5 6 
#
# 1 76.4496 30.2211 37.4358 0.0000 0.0000 0.0000
# 2 30.2211 116.3801 40.1836 0.0000 0.0000 0.0000
# 3 37.4358 40.1836 126.3180 0.0000 0.0000 0.0000
# 4 0.0000 0.0000 0.0000 20.1949 0.0000 0.0000
# 5 0.0000 0.0000 0.0000 0.0000 14.5816 0.0000
# 6 0.0000 0.0000 0.0000 0.0000 0.0000 33.6784
#
#
#
# Elastic Compliance Matrix: (Units=1/GPa)
#
#
# Indices 1 2 3 4 5 6 
#
# 1 0.016098 -0.002846 -0.003866 0.000000 0.000000 0.000000
# 2 -0.002846 0.010156 -0.002387 0.000000 0.000000 0.000000
# 3 -0.003866 -0.002387 0.009822 0.000000 0.000000 0.000000
# 4 0.000000 0.000000 0.000000 0.049518 0.000000 0.000000
# 5 0.000000 0.000000 0.000000 0.000000 0.068579 0.000000
# 6 0.000000 0.000000 0.000000 0.000000 0.000000 0.029693
#
#
# Mechanical properties :
#
#
# Convention : Reuss Voigt Hill
#
# Bulk Modulus (GPa) = 55.93343 59.42543 57.67943
# Shear Modulus (GPa) = 24.03589 27.77812 25.90701
#
# Velocity S-wave (km/s) = 3.56724 3.83490 3.70349
# Velocity P-wave (km/s) = 6.82492 7.14633 6.98747
#
# Compressibility (1/GPa) = 0.01787840
#
# Stress axis : x y z
#
# Youngs Moduli (GPa) = 62.11813 98.46610 101.81603
#
# Poissons Ratio (x) = 0.28020 0.39359
# Poissons Ratio (y) = 0.17676 0.24307
# Poissons Ratio (z) = 0.24013 0.23508
#
# Static dielectric constant tensor:
#      x y z
#    x 3.312340 0.000000 0.000000 
#    y 0.000000 3.331700 0.000000 
#    z 0.000000 0.000000 3.228290 
# 
# 
# High freq. dielectric constant tensor:
#      x y z
#    x 1.732320 0.000000 0.000000 
#    y 0.000000 1.727810 0.000000 
#    z 0.000000 0.000000 1.747620 
# 
# From -- ./inp_files/23165.got.cif
#   From: 2010.03.12/outbox.cif.g09.slc.cpg/sg72_12_cif.got.tgz:23165.got - 2010.04.16 14:54:00.
