data_PCOD8294317
_publ_section_title
;
Structure prediction by ZEFSAII (Michael W. Deem and Ramdas Pophale) SiO2 
 PCOD8294317
Probable space group: I B A M
;
_chemical_formula_sum "Si O2"
_cell_formula_units_Z 88
_cell_length_a 23.825973
_cell_length_b 11.150447
_cell_length_c 14.655757
_cell_angle_alpha 90.000000
_cell_angle_beta 90.000000
_cell_angle_gamma 90.000000
_cell_volume 3893.598614
_symmetry_space_group_name_H-M "I B A M"
_symmetry_group_IT_number 72
_symmetry_cell_setting 'orthorhombic'
loop_
_space_group_symop_operation_xyz
x,y,z
-x,-y,z
x,-y,1/2-z
-x,y,1/2-z
-x,-y,-z
x,y,-z
-x,y,1/2+z
x,-y,1/2+z
1/2+x,1/2+y,1/2+z
1/2-x,1/2-y,1/2+z
1/2+x,1/2-y,-z
1/2-x,1/2+y,-z
1/2-x,1/2-y,1/2-z
1/2+x,1/2+y,1/2-z
1/2-x,1/2+y,z
1/2+x,1/2-y,z
loop_
_atom_site_type_symbol
_atom_site_label
_atom_site_fract_x
_atom_site_fract_y
_atom_site_fract_z
Si Si1 0.326964 0.376350 0.103494
Si Si2 0.786344 0.687638 0.827293
Si Si3 0.412923 0.816342 0.390286
Si Si4 0.627057 0.000000 0.250000
Si Si5 0.131333 0.121441 0.105462
Si Si6 0.009594 0.134962 0.107664
O O1 0.259618 0.376948 0.109314
O O2 0.356598 0.255845 0.141612
O O3 0.351834 0.494798 0.153153
O O4 0.346272 0.382218 0.000000
O O5 0.750000 0.750000 0.750000
O O6 0.832620 0.594402 0.797399
O O7 0.817672 0.788814 0.883712
O O8 0.414397 0.846654 0.500000
O O9 0.465370 0.734315 0.357351
O O10 0.411526 0.938003 0.329201
O O11 0.071923 0.172610 0.142913
O O12 0.121868 0.095622 0.000000
O O13 0.003168 0.133570 0.000000
O O14 0.000000 0.000000 0.145702
#
# Coordination Sequence:
#
# PCOD8294317 Si02
#       6
#    16  16  16   8  16  16
#     4  10  20  37  63  94 126 167 224 284 343 405
#     4  12  24  41  58  85 131 180 226 281 339 397
#     4  10  21  40  67  99 136 180 227 282 345 410
#     4  12  26  44  63  92 138 193 228 276 342 422
#     4  10  21  38  66  98 125 163 219 280 342 408
#     4   9  16  35  67 101 131 161 213 286 352 406
#
# _framework density 22.601199999999999
#
# number of rings (size 3 to 8) (size 9 to 14) (size 15 to 20)
#    0.000    1.636    3.636    1.636    0.000    1.455 
#    0.000    2.727    0.000    4.364    0.000    0.000 
#    0.000    0.727    0.000    0.000    0.000    0.000 
#
# Total GULP energy -545196.541789 kJ/mol
# GULP energy per Si atom -12390.830495 kJ/mol
# Density = 2.254976 g / cm^3
# Si number density = 22.601200 Si / 1000 Ang^3
#
#
#
# Elastic Constant Matrix: (Units=GPa)
#
#
# Indices 1 2 3 4 5 6 
#
# 1 163.2004 65.5934 37.5645 0.0000 0.0000 0.0000
# 2 65.5934 136.8138 48.2829 0.0000 0.0000 0.0000
# 3 37.5645 48.2829 51.4379 0.0000 0.0000 0.0000
# 4 0.0000 0.0000 0.0000 13.9570 0.0000 0.0000
# 5 0.0000 0.0000 0.0000 0.0000 18.6560 0.0000
# 6 0.0000 0.0000 0.0000 0.0000 0.0000 54.5262
#
#
#
# Elastic Compliance Matrix: (Units=1/GPa)
#
#
# Indices 1 2 3 4 5 6 
#
# 1 0.007955 -0.002637 -0.003334 0.000000 0.000000 0.000000
# 2 -0.002637 0.011804 -0.009154 0.000000 0.000000 0.000000
# 3 -0.003334 -0.009154 0.030468 0.000000 0.000000 0.000000
# 4 0.000000 0.000000 0.000000 0.071649 0.000000 0.000000
# 5 0.000000 0.000000 0.000000 0.000000 0.053602 0.000000
# 6 0.000000 0.000000 0.000000 0.000000 0.000000 0.018340
#
#
# Mechanical properties :
#
#
# Convention : Reuss Voigt Hill
#
# Bulk Modulus (GPa) = 50.05827 72.70376 61.38102
# Shear Modulus (GPa) = 21.67065 30.76195 26.21630
#
# Velocity S-wave (km/s) = 3.09985 3.69328 3.40950
# Velocity P-wave (km/s) = 5.91682 7.10106 6.53581
#
# Compressibility (1/GPa) = 0.01997672
#
# Stress axis : x y z
#
# Youngs Moduli (GPa) = 125.71105 84.71554 32.82112
#
# Poissons Ratio (x) = 0.22342 0.10942
# Poissons Ratio (y) = 0.33154 0.30045
# Poissons Ratio (z) = 0.41909 0.77550
#
# Static dielectric constant tensor:
#      x y z
#    x 4.153080 0.000000 0.000000 
#    y 0.000000 8.320630 0.000000 
#    z 0.000000 0.000000 3.764830 
# 
# 
# High freq. dielectric constant tensor:
#      x y z
#    x 1.904200 0.000000 0.000000 
#    y 0.000000 1.884830 0.000000 
#    z 0.000000 0.000000 1.876300 
# 
# From -- ./inp_files/32468.got.cif
#   From: 2010.03.12/outbox.cif.g09.slc.cpg/sg72_17_cif.got.tgz:32468.got - 2010.04.16 14:54:00.
