data_PCOD8294481
_publ_section_title
;
Structure prediction by ZEFSAII (Michael W. Deem and Ramdas Pophale) SiO2 
 PCOD8294481
Probable space group: I B A M
;
_chemical_formula_sum "Si O2"
_cell_formula_units_Z 96
_cell_length_a 23.594661
_cell_length_b 11.969744
_cell_length_c 17.425012
_cell_angle_alpha 90.000000
_cell_angle_beta 90.000000
_cell_angle_gamma 90.000000
_cell_volume 4921.207644
_symmetry_space_group_name_H-M "I B A M"
_symmetry_group_IT_number 72
_symmetry_cell_setting 'orthorhombic'
loop_
_space_group_symop_operation_xyz
x,y,z
-x,-y,z
x,-y,1/2-z
-x,y,1/2-z
-x,-y,-z
x,y,-z
-x,y,1/2+z
x,-y,1/2+z
1/2+x,1/2+y,1/2+z
1/2-x,1/2-y,1/2+z
1/2+x,1/2-y,-z
1/2-x,1/2+y,-z
1/2-x,1/2-y,1/2-z
1/2+x,1/2+y,1/2-z
1/2-x,1/2+y,z
1/2+x,1/2-y,z
loop_
_atom_site_type_symbol
_atom_site_label
_atom_site_fract_x
_atom_site_fract_y
_atom_site_fract_z
Si Si1 0.569909 0.209919 0.155507
Si Si2 0.054750 0.709769 0.835648
Si Si3 0.838560 0.116193 0.343629
Si Si4 0.153607 0.863145 0.835960
Si Si5 0.631975 0.010504 0.659284
Si Si6 0.779287 0.664432 0.410085
O O1 0.555316 0.194874 0.244451
O O2 0.506154 0.215306 0.121247
O O3 0.603101 0.322257 0.132770
O O4 0.608965 0.107039 0.126019
O O5 0.089484 0.822867 0.852768
O O6 0.086401 0.601558 0.868514
O O7 0.829784 0.136073 0.253414
O O8 0.786666 0.168431 0.389663
O O9 0.842850 0.987572 0.368672
O O10 0.196335 0.779693 0.877302
O O11 0.692198 0.051911 0.625319
O O12 0.640458 0.000000 0.750000
O O13 0.788820 0.661894 0.500000
#
# Coordination Sequence:
#
# PCOD8294481 Si02
#       6
#    16  16  16  16  16  16
#     4   9  16  29  53  85 115 141 188 237 279 340
#     4   8  15  30  53  84 115 145 180 235 292 328
#     4  10  21  34  56  84 109 151 191 230 285 340
#     4   9  20  37  56  79 112 147 190 234 286 341
#     4   9  18  32  56  85 112 152 188 235 284 335
#     4  11  24  38  56  80 114 156 194 240 288 336
#
# _framework density 19.507407000000001
#
# number of rings (size 3 to 8) (size 9 to 14) (size 15 to 20)
#    0.000    2.667    0.000    2.000    4.667    3.333 
#    0.000    3.333    0.000   12.000    0.000    5.833 
#    0.000    0.000    0.000    0.000    0.000    0.000 
#
# Total GULP energy -594867.669814 kJ/mol
# GULP energy per Si atom -12393.076454 kJ/mol
# Density = 1.946301 g / cm^3
# Si number density = 19.507407 Si / 1000 Ang^3
#
#
#
# Elastic Constant Matrix: (Units=GPa)
#
#
# Indices 1 2 3 4 5 6 
#
# 1 107.6519 48.5736 23.4366 0.0000 0.0000 0.0000
# 2 48.5736 134.5505 31.7266 0.0000 0.0000 0.0000
# 3 23.4366 31.7266 44.0543 0.0000 0.0000 0.0000
# 4 0.0000 0.0000 0.0000 9.8713 0.0000 0.0000
# 5 0.0000 0.0000 0.0000 0.0000 -0.9612 0.0000
# 6 0.0000 0.0000 0.0000 0.0000 0.0000 29.4507
#
#
#
# Elastic Compliance Matrix: (Units=1/GPa)
#
#
# Indices 1 2 3 4 5 6 
#
# 1 0.011602 -0.003292 -0.003801 0.000000 0.000000 0.000000
# 2 -0.003292 0.009887 -0.005369 0.000000 0.000000 0.000000
# 3 -0.003801 -0.005369 0.028588 0.000000 0.000000 0.000000
# 4 0.000000 0.000000 0.000000 0.101304 0.000000 0.000000
# 5 0.000000 0.000000 0.000000 0.000000 -1.040407 0.000000
# 6 0.000000 0.000000 0.000000 0.000000 0.000000 0.033955
#
#
# Mechanical properties :
#
#
# Convention : Reuss Voigt Hill
#
# Bulk Modulus (GPa) = 39.75765 54.85892 47.30828
# Shear Modulus (GPa) = -6.08448 19.84015 6.87783
#
# Velocity S-wave (km/s) = -1.76800 3.19259 1.87974
# Velocity P-wave (km/s) = 4.03203 6.46323 5.38659
#
# Compressibility (1/GPa) = 0.02515239
#
# Stress axis : x y z
#
# Youngs Moduli (GPa) = 86.19023 101.14772 34.97980
#
# Poissons Ratio (x) = 0.33299 0.13297
# Poissons Ratio (y) = 0.28375 0.18779
# Poissons Ratio (z) = 0.32765 0.54302
#
# Static dielectric constant tensor:
#      x y z
#    x 3.806880 0.000000 0.000000 
#    y 0.000000 3.733450 0.000000 
#    z 0.000000 0.000000 3.031930 
# 
# 
# High freq. dielectric constant tensor:
#      x y z
#    x 1.769840 0.000000 0.000000 
#    y 0.000000 1.766740 0.000000 
#    z 0.000000 0.000000 1.704340 
# 
# From -- ./inp_files/33300.got.cif
#   From: 2010.03.12/outbox.cif.g09.slc.cpg/sg72_17_cif.got.tgz:33300.got - 2010.04.16 14:54:00.
