data_PCOD8294943
_publ_section_title
;
Structure prediction by ZEFSAII (Michael W. Deem and Ramdas Pophale) SiO2 
 PCOD8294943
Probable space group: I B A M
;
_chemical_formula_sum "Si O2"
_cell_formula_units_Z 80
_cell_length_a 28.792862
_cell_length_b 9.103835
_cell_length_c 16.587617
_cell_angle_alpha 90.000000
_cell_angle_beta 90.000000
_cell_angle_gamma 90.000000
_cell_volume 4348.036816
_symmetry_space_group_name_H-M "I B A M"
_symmetry_group_IT_number 72
_symmetry_cell_setting 'orthorhombic'
loop_
_space_group_symop_operation_xyz
x,y,z
-x,-y,z
x,-y,1/2-z
-x,y,1/2-z
-x,-y,-z
x,y,-z
-x,y,1/2+z
x,-y,1/2+z
1/2+x,1/2+y,1/2+z
1/2-x,1/2-y,1/2+z
1/2+x,1/2-y,-z
1/2-x,1/2+y,-z
1/2-x,1/2-y,1/2-z
1/2+x,1/2+y,1/2-z
1/2-x,1/2+y,z
1/2+x,1/2-y,z
loop_
_atom_site_type_symbol
_atom_site_label
_atom_site_fract_x
_atom_site_fract_y
_atom_site_fract_z
Si Si1 0.207928 0.138832 0.907859
Si Si2 0.704158 0.297638 0.408818
Si Si3 0.600913 0.314077 0.594129
Si Si4 0.883971 0.898420 0.174740
Si Si5 0.945705 0.667887 0.262409
O O1 0.253514 0.211383 0.865954
O O2 0.161982 0.182968 0.858193
O O3 0.216310 0.967117 0.903879
O O4 0.201158 0.193484 0.000000
O O5 0.702425 0.240923 0.500000
O O6 0.652646 0.268712 0.373653
O O7 0.593147 0.280142 0.500000
O O8 0.594397 0.490197 0.607768
O O9 0.565202 0.218217 0.646189
O O10 0.920556 0.772739 0.197734
O O11 0.870200 0.000000 0.250000
O O12 0.929693 0.500000 0.250000
O O13 0.000000 0.686023 0.250000
#
# Coordination Sequence:
#
# PCOD8294943 Si02
#       5
#    16  16  16  16  16
#     4   9  16  29  47  72 103 135 169 208 250 301
#     4   8  15  27  46  71 103 136 169 209 252 294
#     4   9  18  36  58  80 104 138 181 219 251 304
#     4   9  18  33  53  75 102 137 175 216 260 306
#     4  10  22  40  56  75 107 139 167 215 279 324
#
# _framework density 18.399107999999998
#
# number of rings (size 3 to 8) (size 9 to 14) (size 15 to 20)
#    0.000    3.000    0.000    1.800    0.000    5.200 
#    0.000   19.000    0.000    0.000    0.000    0.000 
#    0.000    0.000    0.000    0.000    0.000    0.000 
#
# Total GULP energy -495716.860362 kJ/mol
# GULP energy per Si atom -12392.921509 kJ/mol
# Density = 1.835723 g / cm^3
# Si number density = 18.399108 Si / 1000 Ang^3
#
#
#
# Elastic Constant Matrix: (Units=GPa)
#
#
# Indices 1 2 3 4 5 6 
#
# 1 119.5030 67.9422 50.6142 0.0000 0.0000 0.0000
# 2 67.9422 82.8487 39.3771 0.0000 0.0000 0.0000
# 3 50.6142 39.3771 73.0295 0.0000 0.0000 0.0000
# 4 0.0000 0.0000 0.0000 18.3661 0.0000 0.0000
# 5 0.0000 0.0000 0.0000 0.0000 30.0843 0.0000
# 6 0.0000 0.0000 0.0000 0.0000 0.0000 37.3486
#
#
#
# Elastic Compliance Matrix: (Units=1/GPa)
#
#
# Indices 1 2 3 4 5 6 
#
# 1 0.017360 -0.011453 -0.005856 0.000000 0.000000 0.000000
# 2 -0.011453 0.023785 -0.004887 0.000000 0.000000 0.000000
# 3 -0.005856 -0.004887 0.020387 0.000000 0.000000 0.000000
# 4 0.000000 0.000000 0.000000 0.054448 0.000000 0.000000
# 5 0.000000 0.000000 0.000000 0.000000 0.033240 0.000000
# 6 0.000000 0.000000 0.000000 0.000000 0.000000 0.026775
#
#
# Mechanical properties :
#
#
# Convention : Reuss Voigt Hill
#
# Bulk Modulus (GPa) = 58.34509 65.69425 62.01967
# Shear Modulus (GPa) = 22.11404 24.98964 23.55184
#
# Velocity S-wave (km/s) = 3.47062 3.68937 3.58166
# Velocity P-wave (km/s) = 6.91664 7.34379 7.13341
#
# Compressibility (1/GPa) = 0.01713940
#
# Stress axis : x y z
#
# Youngs Moduli (GPa) = 57.60465 42.04265 49.05107
#
# Poissons Ratio (x) = 0.48151 0.28724
# Poissons Ratio (y) = 0.65974 0.23973
# Poissons Ratio (z) = 0.33733 0.20548
#
# Static dielectric constant tensor:
#      x y z
#    x 3.441130 0.000000 0.000000 
#    y 0.000000 3.416260 0.000000 
#    z 0.000000 0.000000 3.387010 
# 
# 
# High freq. dielectric constant tensor:
#      x y z
#    x 1.712590 0.000000 0.000000 
#    y 0.000000 1.700580 0.000000 
#    z 0.000000 0.000000 1.700060 
# 
# From -- ./inp_files/28106.got.cif
#   From: 2010.03.12/outbox.cif.g09.slc.cpg/sg72_15_cif.got.tgz:28106.got - 2010.04.16 14:54:00.
