data_PCOD8294741
_publ_section_title
;
Structure prediction by ZEFSAII (Michael W. Deem and Ramdas Pophale) SiO2 
 PCOD8294741
Probable space group: I B A M
;
_chemical_formula_sum "Si O2"
_cell_formula_units_Z 68
_cell_length_a 19.279603
_cell_length_b 10.849484
_cell_length_c 13.326786
_cell_angle_alpha 90.000000
_cell_angle_beta 90.000000
_cell_angle_gamma 90.000000
_cell_volume 2787.613727
_symmetry_space_group_name_H-M "I B A M"
_symmetry_group_IT_number 72
_symmetry_cell_setting 'orthorhombic'
loop_
_space_group_symop_operation_xyz
x,y,z
-x,-y,z
x,-y,1/2-z
-x,y,1/2-z
-x,-y,-z
x,y,-z
-x,y,1/2+z
x,-y,1/2+z
1/2+x,1/2+y,1/2+z
1/2-x,1/2-y,1/2+z
1/2+x,1/2-y,-z
1/2-x,1/2+y,-z
1/2-x,1/2-y,1/2-z
1/2+x,1/2+y,1/2-z
1/2-x,1/2+y,z
1/2+x,1/2-y,z
loop_
_atom_site_type_symbol
_atom_site_label
_atom_site_fract_x
_atom_site_fract_y
_atom_site_fract_z
Si Si1 0.296100 0.071831 0.879677
Si Si2 0.500000 0.500000 0.750000
Si Si3 0.295713 0.797176 0.881786
Si Si4 0.550026 0.898272 0.116511
Si Si5 0.942773 0.194442 0.385608
O O1 0.248423 0.182759 0.835050
O O2 0.372963 0.102121 0.837930
O O3 0.274772 0.933931 0.839275
O O4 0.292232 0.070897 0.000000
O O5 0.445918 0.574658 0.817673
O O6 0.376951 0.778454 0.857885
O O7 0.282043 0.797800 0.000000
O O8 0.514452 0.766687 0.134492
O O9 0.500000 0.000000 0.167161
O O10 0.557657 0.931147 0.000000
O O11 0.936797 0.150423 0.500000
#
# Coordination Sequence:
#
# PCOD8294741 Si02
#       5
#    16   4  16  16  16
#     4   9  16  27  51  89 124 157 201 251 299 361
#     4  12  26  40  58  90 124 156 204 258 304 366
#     4   9  17  30  52  84 120 158 200 247 302 362
#     4   9  15  29  57  87 114 152 205 250 294 353
#     4  10  21  39  62  86 119 161 200 248 306 363
#
# _framework density 24.393622000000001
#
# number of rings (size 3 to 8) (size 9 to 14) (size 15 to 20)
#    0.000    2.588    2.353    0.353    0.000    1.882 
#    0.000    7.647    0.000    5.647    0.000    0.000 
#    0.000    0.000    0.000    0.000    0.000    0.000 
#
# Total GULP energy -421508.329043 kJ/mol
# GULP energy per Si atom -12397.303795 kJ/mol
# Density = 2.433810 g / cm^3
# Si number density = 24.393622 Si / 1000 Ang^3
#
#
#
# Elastic Constant Matrix: (Units=GPa)
#
#
# Indices 1 2 3 4 5 6 
#
# 1 141.1692 84.1866 13.9198 0.0000 0.0000 0.0000
# 2 84.1866 205.8464 58.0988 0.0000 0.0000 0.0000
# 3 13.9198 58.0988 41.0973 0.0000 0.0000 0.0000
# 4 0.0000 0.0000 0.0000 39.3654 0.0000 0.0000
# 5 0.0000 0.0000 0.0000 0.0000 -7.0766 0.0000
# 6 0.0000 0.0000 0.0000 0.0000 0.0000 34.7427
#
#
#
# Elastic Compliance Matrix: (Units=1/GPa)
#
#
# Indices 1 2 3 4 5 6 
#
# 1 0.009726 -0.005071 0.003875 0.000000 0.000000 0.000000
# 2 -0.005071 0.010728 -0.013448 0.000000 0.000000 0.000000
# 3 0.003875 -0.013448 0.042031 0.000000 0.000000 0.000000
# 4 0.000000 0.000000 0.000000 0.025403 0.000000 0.000000
# 5 0.000000 0.000000 0.000000 0.000000 -0.141311 0.000000
# 6 0.000000 0.000000 0.000000 0.000000 0.000000 0.028783
#
#
# Mechanical properties :
#
#
# Convention : Reuss Voigt Hill
#
# Bulk Modulus (GPa) = 30.12369 77.83591 53.97980
# Shear Modulus (GPa) = 318.20375 28.86681 173.53528
#
# Velocity S-wave (km/s) = 11.43366 3.44375 8.44358
# Velocity P-wave (km/s) = 13.66311 6.91304 10.82753
#
# Compressibility (1/GPa) = 0.03319647
#
# Stress axis : x y z
#
# Youngs Moduli (GPa) = 102.81756 93.21690 23.79198
#
# Poissons Ratio (x) = 0.47275 -0.09220
# Poissons Ratio (y) = 0.52144 0.31995
# Poissons Ratio (z) = -0.39844 1.25357
#
# Static dielectric constant tensor:
#      x y z
#    x 4.321320 0.000000 0.000000 
#    y 0.000000 4.526370 0.000000 
#    z 0.000000 0.000000 4.213570 
# 
# 
# High freq. dielectric constant tensor:
#      x y z
#    x 1.952300 0.000000 0.000000 
#    y 0.000000 1.971640 0.000000 
#    z 0.000000 0.000000 1.981380 
# 
# From -- ./inp_files/27810.got.cif
#   From: 2010.03.12/outbox.cif.g09.slc.cpg/sg72_14_cif.got.tgz:27810.got - 2010.04.16 14:54:00.
