data_PCOD8294279
_publ_section_title
;
Structure prediction by ZEFSAII (Michael W. Deem and Ramdas Pophale) SiO2 
 PCOD8294279
Probable space group: I B A M
;
_chemical_formula_sum "Si O2"
_cell_formula_units_Z 96
_cell_length_a 27.121309
_cell_length_b 20.436597
_cell_length_c 8.790184
_cell_angle_alpha 90.000000
_cell_angle_beta 90.000000
_cell_angle_gamma 90.000000
_cell_volume 4872.111219
_symmetry_space_group_name_H-M "I B A M"
_symmetry_group_IT_number 72
_symmetry_cell_setting 'orthorhombic'
loop_
_space_group_symop_operation_xyz
x,y,z
-x,-y,z
x,-y,1/2-z
-x,y,1/2-z
-x,-y,-z
x,y,-z
-x,y,1/2+z
x,-y,1/2+z
1/2+x,1/2+y,1/2+z
1/2-x,1/2-y,1/2+z
1/2+x,1/2-y,-z
1/2-x,1/2+y,-z
1/2-x,1/2-y,1/2-z
1/2+x,1/2+y,1/2-z
1/2-x,1/2+y,z
1/2+x,1/2-y,z
loop_
_atom_site_type_symbol
_atom_site_label
_atom_site_fract_x
_atom_site_fract_y
_atom_site_fract_z
Si Si1 0.552418 0.931008 0.180248
Si Si2 0.447150 0.683207 0.819798
Si Si3 0.877875 0.067423 0.320637
Si Si4 0.894400 0.685790 0.175529
Si Si5 0.734584 0.432352 0.179536
Si Si6 0.219594 0.692008 0.324213
O O1 0.500000 0.909590 0.250000
O O2 0.592896 0.876862 0.222212
O O3 0.569702 0.000000 0.250000
O O4 0.547578 0.937745 0.000000
O O5 0.500000 0.669892 0.750000
O O6 0.410664 0.626977 0.758153
O O7 0.427106 0.753508 0.766528
O O8 0.450388 0.680333 0.000000
O O9 0.881785 0.061208 0.500000
O O10 0.821702 0.080881 0.269845
O O11 0.897778 0.000000 0.250000
O O12 0.837964 0.706633 0.197525
O O13 0.905569 0.668860 0.000000
O O14 0.753876 0.500000 0.250000
O O15 0.768883 0.375752 0.242891
O O16 0.740076 0.435624 0.000000
O O17 0.234203 0.687247 0.500000
O O18 0.250000 0.750000 0.250000
#
# Coordination Sequence:
#
# PCOD8294279 Si02
#       6
#    16  16  16  16  16  16
#     4  11  22  38  61  87 116 150 188 231 280 337
#     4  10  21  37  56  79 109 144 182 226 276 327
#     4   9  19  36  57  81 111 147 184 225 273 325
#     4  10  22  40  59  81 112 149 189 235 284 334
#     4  10  20  37  60  85 114 149 189 232 281 338
#     4  11  23  39  60  85 115 151 191 238 289 342
#
# _framework density 19.703984999999999
#
# number of rings (size 3 to 8) (size 9 to 14) (size 15 to 20)
#    0.000    1.833    0.000    4.500    0.000    8.333 
#    0.000    3.333    0.000    0.000    0.000    0.000 
#    0.000    0.000    0.000    0.000    0.000    0.000 
#
# Total GULP energy -595447.786210 kJ/mol
# GULP energy per Si atom -12405.162213 kJ/mol
# Density = 1.965914 g / cm^3
# Si number density = 19.703985 Si / 1000 Ang^3
#
#
#
# Elastic Constant Matrix: (Units=GPa)
#
#
# Indices 1 2 3 4 5 6 
#
# 1 49.9349 20.7856 23.3216 0.0000 0.0000 0.0000
# 2 20.7856 107.9797 36.6101 0.0000 0.0000 0.0000
# 3 23.3216 36.6101 86.3632 0.0000 0.0000 0.0000
# 4 0.0000 0.0000 0.0000 37.8384 0.0000 0.0000
# 5 0.0000 0.0000 0.0000 0.0000 31.1275 0.0000
# 6 0.0000 0.0000 0.0000 0.0000 0.0000 34.6737
#
#
#
# Elastic Compliance Matrix: (Units=1/GPa)
#
#
# Indices 1 2 3 4 5 6 
#
# 1 0.023611 -0.002783 -0.005196 0.000000 0.000000 0.000000
# 2 -0.002783 0.011144 -0.003972 0.000000 0.000000 0.000000
# 3 -0.005196 -0.003972 0.014666 0.000000 0.000000 0.000000
# 4 0.000000 0.000000 0.000000 0.026428 0.000000 0.000000
# 5 0.000000 0.000000 0.000000 0.000000 0.032126 0.000000
# 6 0.000000 0.000000 0.000000 0.000000 0.000000 0.028840
#
#
# Mechanical properties :
#
#
# Convention : Reuss Voigt Hill
#
# Bulk Modulus (GPa) = 39.18873 45.07917 42.13395
# Shear Modulus (GPa) = 29.54650 31.63197 30.58923
#
# Velocity S-wave (km/s) = 3.87656 4.01104 3.94437
# Velocity P-wave (km/s) = 6.32210 6.66177 6.49415
#
# Compressibility (1/GPa) = 0.02551754
#
# Stress axis : x y z
#
# Youngs Moduli (GPa) = 42.35230 89.73797 68.18470
#
# Poissons Ratio (x) = 0.24977 0.35430
# Poissons Ratio (y) = 0.11788 0.27085
# Poissons Ratio (z) = 0.22007 0.35646
#
# Static dielectric constant tensor:
#      x y z
#    x 3.619610 0.000000 0.000000 
#    y 0.000000 3.766790 0.000000 
#    z 0.000000 0.000000 3.560420 
# 
# 
# High freq. dielectric constant tensor:
#      x y z
#    x 1.765920 0.000000 0.000000 
#    y 0.000000 1.782620 0.000000 
#    z 0.000000 0.000000 1.767770 
# 
# From -- ./inp_files/5957.got.cif
#   From: 2010.03.12/outbox.cif.g09.slc.cpg/sg72_3_cif.got.tgz:5957.got - 2010.04.16 14:54:00.
