data_PCOD8294494
_publ_section_title
;
Structure prediction by ZEFSAII (Michael W. Deem and Ramdas Pophale) SiO2 
 PCOD8294494
Probable space group: I B A M
;
_chemical_formula_sum "Si O2"
_cell_formula_units_Z 80
_cell_length_a 8.983745
_cell_length_b 28.283810
_cell_length_c 16.329577
_cell_angle_alpha 90.000000
_cell_angle_beta 90.000000
_cell_angle_gamma 90.000000
_cell_volume 4149.256302
_symmetry_space_group_name_H-M "I B A M"
_symmetry_group_IT_number 72
_symmetry_cell_setting 'orthorhombic'
loop_
_space_group_symop_operation_xyz
x,y,z
-x,-y,z
x,-y,1/2-z
-x,y,1/2-z
-x,-y,-z
x,y,-z
-x,y,1/2+z
x,-y,1/2+z
1/2+x,1/2+y,1/2+z
1/2-x,1/2-y,1/2+z
1/2+x,1/2-y,-z
1/2-x,1/2+y,-z
1/2-x,1/2-y,1/2-z
1/2+x,1/2+y,1/2-z
1/2-x,1/2+y,z
1/2+x,1/2-y,z
loop_
_atom_site_type_symbol
_atom_site_label
_atom_site_fract_x
_atom_site_fract_y
_atom_site_fract_z
Si Si1 0.624812 0.213538 0.591476
Si Si2 0.330214 0.444513 0.261262
Si Si3 0.822912 0.721755 0.173583
Si Si4 0.385306 0.882371 0.824069
Si Si5 0.671912 0.891632 0.092171
O O1 0.555798 0.211165 0.500000
O O2 0.748022 0.254481 0.594092
O O3 0.501709 0.225462 0.661514
O O4 0.705681 0.163550 0.612385
O O5 0.313415 0.500000 0.250000
O O6 0.500000 0.428333 0.250000
O O7 0.234607 0.423384 0.187016
O O8 0.265058 0.425801 0.347759
O O9 0.750000 0.750000 0.250000
O O10 0.788962 0.665890 0.171429
O O11 0.500000 0.878071 0.750000
O O12 0.490553 0.895708 0.901037
O O13 0.718572 0.905452 0.000000
#
# Coordination Sequence:
#
# PCOD8294494 Si02
#       5
#    16  16  16  16  16
#     4  10  21  35  51  76 111 145 177 220 271 313
#     4  10  21  38  57  81 111 141 172 221 282 334
#     4  11  19  31  51  77 104 137 181 220 256 314
#     4   9  19  35  54  77 105 141 184 227 266 313
#     4   9  19  38  60  80 106 143 186 227 267 319
#
# _framework density 19.280563999999998
#
# number of rings (size 3 to 8) (size 9 to 14) (size 15 to 20)
#    0.000    2.200    0.000    4.800    0.000    7.600 
#    0.000    6.000    0.000    0.000    0.000    0.000 
#    0.000    0.000    0.000    0.000    0.000    0.000 
#
# Total GULP energy -495532.956103 kJ/mol
# GULP energy per Si atom -12388.323903 kJ/mol
# Density = 1.923668 g / cm^3
# Si number density = 19.280564 Si / 1000 Ang^3
#
#
#
# Elastic Constant Matrix: (Units=GPa)
#
#
# Indices 1 2 3 4 5 6 
#
# 1 93.4939 72.8234 39.1366 0.0000 0.0000 0.0000
# 2 72.8234 105.3315 44.7878 -0.0001 0.0000 0.0000
# 3 39.1366 44.7878 82.5198 -0.0005 -0.0002 0.0000
# 4 0.0000 -0.0001 -0.0005 24.3851 -0.0001 0.0000
# 5 0.0000 0.0000 -0.0002 -0.0001 19.1537 -0.0001
# 6 0.0000 0.0000 0.0000 0.0000 -0.0001 39.5018
#
#
#
# Elastic Compliance Matrix: (Units=1/GPa)
#
#
# Indices 1 2 3 4 5 6 
#
# 1 0.023756 -0.015124 -0.003058 0.000000 0.000000 0.000000
# 2 -0.015124 0.021971 -0.004752 0.000000 0.000000 0.000000
# 3 -0.003058 -0.004752 0.016148 0.000000 0.000000 0.000000
# 4 0.000000 0.000000 0.000000 0.041009 0.000000 0.000000
# 5 0.000000 0.000000 0.000000 0.000000 0.052209 0.000000
# 6 0.000000 0.000000 0.000000 0.000000 0.000000 0.025315
#
#
# Mechanical properties :
#
#
# Convention : Reuss Voigt Hill
#
# Bulk Modulus (GPa) = 62.47427 66.09342 64.28384
# Shear Modulus (GPa) = 21.58781 24.91462 23.25121
#
# Velocity S-wave (km/s) = 3.34977 3.59864 3.47643
# Velocity P-wave (km/s) = 6.88726 7.18479 7.03760
#
# Compressibility (1/GPa) = 0.01600659
#
# Stress axis : x y z
#
# Youngs Moduli (GPa) = 42.09379 45.51497 61.92807
#
# Poissons Ratio (x) = 0.68838 0.18939
# Poissons Ratio (y) = 0.63663 0.29427
# Poissons Ratio (z) = 0.12873 0.21628
#
# Static dielectric constant tensor:
#      x y z
#    x 3.653350 0.000000 0.000000 
#    y 0.000000 3.502390 0.000000 
#    z 0.000000 0.000000 3.729200 
# 
# 
# High freq. dielectric constant tensor:
#      x y z
#    x 1.740140 0.000000 0.000000 
#    y 0.000000 1.745890 0.000000 
#    z 0.000000 0.000000 1.748280 
# 
# From -- ./inp_files/28105.got.cif
#   From: 2010.03.12/outbox.cif.g09.slc.cpg/sg72_15_cif.got.tgz:28105.got - 2010.04.16 14:54:00.
