data_PCOD8294546
_publ_section_title
;
Structure prediction by ZEFSAII (Michael W. Deem and Ramdas Pophale) SiO2 
 PCOD8294546
Probable space group: I B A M
;
_chemical_formula_sum "Si O2"
_cell_formula_units_Z 96
_cell_length_a 22.514582
_cell_length_b 14.499395
_cell_length_c 14.440437
_cell_angle_alpha 90.000000
_cell_angle_beta 90.000000
_cell_angle_gamma 90.000000
_cell_volume 4714.049145
_symmetry_space_group_name_H-M "I B A M"
_symmetry_group_IT_number 72
_symmetry_cell_setting 'orthorhombic'
loop_
_space_group_symop_operation_xyz
x,y,z
-x,-y,z
x,-y,1/2-z
-x,y,1/2-z
-x,-y,-z
x,y,-z
-x,y,1/2+z
x,-y,1/2+z
1/2+x,1/2+y,1/2+z
1/2-x,1/2-y,1/2+z
1/2+x,1/2-y,-z
1/2-x,1/2+y,-z
1/2-x,1/2-y,1/2-z
1/2+x,1/2+y,1/2-z
1/2-x,1/2+y,z
1/2+x,1/2-y,z
loop_
_atom_site_type_symbol
_atom_site_label
_atom_site_fract_x
_atom_site_fract_y
_atom_site_fract_z
Si Si1 0.408447 0.000612 0.894050
Si Si2 0.499032 0.149770 0.649352
Si Si3 0.271243 0.001341 0.111152
Si Si4 0.502307 0.345836 0.898344
Si Si5 0.775237 0.852452 0.251057
Si Si6 0.405282 0.395103 0.751866
O O1 0.440283 0.097515 0.875231
O O2 0.340725 0.005749 0.862563
O O3 0.442888 0.918620 0.842961
O O4 0.414377 0.974055 0.000000
O O5 0.500000 0.197243 0.750000
O O6 0.492470 0.236067 0.581826
O O7 0.241981 0.091699 0.157555
O O8 0.245268 0.908132 0.156851
O O9 0.260377 0.001420 0.000000
O O10 0.442989 0.372688 0.843271
O O11 0.559374 0.379846 0.842904
O O12 0.500875 0.392834 0.000000
O O13 0.750000 0.750000 0.250000
O O14 0.845779 0.835072 0.253689
O O15 0.384095 0.500000 0.750000
#
# Coordination Sequence:
#
# PCOD8294546 Si02
#       6
#    16  16  16  16  16  16
#     4  10  21  36  59  92 131 165 205 249 310 389
#     4  11  21  35  59  95 131 167 205 252 315 377
#     4  10  24  44  68  98 129 172 220 265 325 393
#     4  11  24  40  67  94 125 164 208 267 320 370
#     4  11  26  45  70  94 135 173 218 275 323 383
#     4  11  24  47  63  94 125 158 218 264 317 389
#
# _framework density 20.364659
#
# number of rings (size 3 to 8) (size 9 to 14) (size 15 to 20)
#    0.000    1.333    3.333    4.000    9.333    3.333 
#    0.000    0.000    0.000    0.000    0.000    0.000 
#    0.000    0.000    0.000    0.000    0.000    0.000 
#
# Total GULP energy -595097.294977 kJ/mol
# GULP energy per Si atom -12397.860312 kJ/mol
# Density = 2.031831 g / cm^3
# Si number density = 20.364659 Si / 1000 Ang^3
#
#
#
# Elastic Constant Matrix: (Units=GPa)
#
#
# Indices 1 2 3 4 5 6 
#
# 1 162.4115 32.8730 51.3339 0.0000 0.0000 0.0000
# 2 32.8730 120.3016 29.9645 0.0000 0.0000 0.0000
# 3 51.3339 29.9645 148.0862 0.0000 0.0000 0.0000
# 4 0.0000 0.0000 0.0000 20.6268 0.0000 0.0000
# 5 0.0000 0.0000 0.0000 0.0000 31.1277 0.0000
# 6 0.0000 0.0000 0.0000 0.0000 0.0000 24.3178
#
#
#
# Elastic Compliance Matrix: (Units=1/GPa)
#
#
# Indices 1 2 3 4 5 6 
#
# 1 0.007133 -0.001404 -0.002189 0.000000 0.000000 0.000000
# 2 -0.001404 0.009030 -0.001340 0.000000 0.000000 0.000000
# 3 -0.002189 -0.001340 0.007783 0.000000 0.000000 0.000000
# 4 0.000000 0.000000 0.000000 0.048481 0.000000 0.000000
# 5 0.000000 0.000000 0.000000 0.000000 0.032126 0.000000
# 6 0.000000 0.000000 0.000000 0.000000 0.000000 0.041122
#
#
# Mechanical properties :
#
#
# Convention : Reuss Voigt Hill
#
# Bulk Modulus (GPa) = 71.02440 73.23801 72.13120
# Shear Modulus (GPa) = 31.20442 36.32299 33.76370
#
# Velocity S-wave (km/s) = 3.91869 4.22788 4.07622
# Velocity P-wave (km/s) = 7.44492 7.73787 7.59281
#
# Compressibility (1/GPa) = 0.01407967
#
# Stress axis : x y z
#
# Youngs Moduli (GPa) = 140.19067 110.74225 128.48957
#
# Poissons Ratio (x) = 0.15549 0.28121
# Poissons Ratio (y) = 0.19683 0.17224
# Poissons Ratio (z) = 0.30682 0.14845
#
# Static dielectric constant tensor:
#      x y z
#    x 4.218150 0.000000 0.000000 
#    y 0.000000 3.653790 0.000000 
#    z 0.000000 0.000000 3.690410 
# 
# 
# High freq. dielectric constant tensor:
#      x y z
#    x 1.798520 0.000000 0.000000 
#    y 0.000000 1.798340 0.000000 
#    z 0.000000 0.000000 1.807200 
# 
# From -- ./inp_files/24150.got.cif
#   From: 2010.03.12/outbox.cif.g09.slc.cpg/sg72_13_cif.got.tgz:24150.got - 2010.04.16 14:54:00.
