data_PCOD8294572
_publ_section_title
;
Structure prediction by ZEFSAII (Michael W. Deem and Ramdas Pophale) SiO2 
 PCOD8294572
Probable space group: I B A M
;
_chemical_formula_sum "Si O2"
_cell_formula_units_Z 112
_cell_length_a 26.484278
_cell_length_b 11.673519
_cell_length_c 19.068099
_cell_angle_alpha 90.000000
_cell_angle_beta 90.000000
_cell_angle_gamma 90.000000
_cell_volume 5895.183535
_symmetry_space_group_name_H-M "I B A M"
_symmetry_group_IT_number 72
_symmetry_cell_setting 'orthorhombic'
loop_
_space_group_symop_operation_xyz
x,y,z
-x,-y,z
x,-y,1/2-z
-x,y,1/2-z
-x,-y,-z
x,y,-z
-x,y,1/2+z
x,-y,1/2+z
1/2+x,1/2+y,1/2+z
1/2-x,1/2-y,1/2+z
1/2+x,1/2-y,-z
1/2-x,1/2+y,-z
1/2-x,1/2-y,1/2-z
1/2+x,1/2+y,1/2-z
1/2-x,1/2+y,z
1/2+x,1/2-y,z
loop_
_atom_site_type_symbol
_atom_site_label
_atom_site_fract_x
_atom_site_fract_y
_atom_site_fract_z
Si Si1 0.526560 0.315922 0.080882
Si Si2 0.282278 0.889694 0.702680
Si Si3 0.353197 0.906954 0.579301
Si Si4 0.589581 0.675911 0.081330
Si Si5 0.887017 0.350190 0.579093
Si Si6 0.676089 0.721974 0.310240
Si Si7 0.592254 0.468456 0.175551
O O1 0.468522 0.297679 0.099986
O O2 0.558109 0.201038 0.098903
O O3 0.548290 0.417597 0.127647
O O4 0.533046 0.352136 0.000000
O O5 0.306796 0.930567 0.630489
O O6 0.321366 0.803720 0.741784
O O7 0.231964 0.825515 0.678328
O O8 0.269214 0.000000 0.750000
O O9 0.332234 0.901617 0.500000
O O10 0.381420 0.791425 0.599572
O O11 0.391802 0.013206 0.588160
O O12 0.612646 0.578003 0.131786
O O13 0.596384 0.640320 0.000000
O O14 0.872760 0.316015 0.500000
O O15 0.841536 0.299176 0.624816
O O16 0.637856 0.616077 0.303938
O O17 0.567319 0.500000 0.250000
#
# Coordination Sequence:
#
# PCOD8294572 Si02
#       7
#    16  16  16  16  16  16  16
#     4   9  19  35  57  81 110 150 190 225 274 335
#     4  11  21  38  61  82 111 146 188 230 281 340
#     4  10  21  37  57  82 114 146 185 237 283 324
#     4  10  21  37  56  82 114 152 190 227 275 335
#     4   9  18  36  58  84 114 145 184 232 279 327
#     4  10  22  37  59  84 108 148 189 226 278 341
#     4  11  21  35  55  81 115 144 185 234 280 326
#
# _framework density 18.998560999999999
#
# number of rings (size 3 to 8) (size 9 to 14) (size 15 to 20)
#    0.000    2.000    1.429    2.143    0.000    5.143 
#    0.000    2.857    0.000    0.000    0.000    0.000 
#    0.000    0.000    0.000    0.000    0.000    0.000 
#
# Total GULP energy -694286.045889 kJ/mol
# GULP energy per Si atom -12397.965105 kJ/mol
# Density = 1.895532 g / cm^3
# Si number density = 18.998561 Si / 1000 Ang^3
#
#
#
# Elastic Constant Matrix: (Units=GPa)
#
#
# Indices 1 2 3 4 5 6 
#
# 1 49.2653 9.6297 22.6659 0.0000 0.0000 0.0000
# 2 9.6297 100.0860 34.0148 0.0000 0.0000 0.0000
# 3 22.6659 34.0148 80.2852 0.0000 0.0000 0.0000
# 4 0.0000 0.0000 0.0000 31.6731 0.0000 0.0000
# 5 0.0000 0.0000 0.0000 0.0000 21.4857 0.0000
# 6 0.0000 0.0000 0.0000 0.0000 0.0000 19.0826
#
#
#
# Elastic Compliance Matrix: (Units=1/GPa)
#
#
# Indices 1 2 3 4 5 6 
#
# 1 0.023328 -0.000007 -0.006583 0.000000 0.000000 0.000000
# 2 -0.000007 0.011672 -0.004943 0.000000 0.000000 0.000000
# 3 -0.006583 -0.004943 0.016408 0.000000 0.000000 0.000000
# 4 0.000000 0.000000 0.000000 0.031573 0.000000 0.000000
# 5 0.000000 0.000000 0.000000 0.000000 0.046543 0.000000
# 6 0.000000 0.000000 0.000000 0.000000 0.000000 0.052404
#
#
# Mechanical properties :
#
#
# Convention : Reuss Voigt Hill
#
# Bulk Modulus (GPa) = 35.28314 40.25082 37.76698
# Shear Modulus (GPa) = 23.31637 25.33667 24.32652
#
# Velocity S-wave (km/s) = 3.50704 3.65582 3.58221
# Velocity P-wave (km/s) = 5.91700 6.24918 6.08536
#
# Compressibility (1/GPa) = 0.02834215
#
# Stress axis : x y z
#
# Youngs Moduli (GPa) = 42.86626 85.67474 60.94462
#
# Poissons Ratio (x) = 0.00062 0.40119
# Poissons Ratio (y) = 0.00031 0.30126
# Poissons Ratio (z) = 0.28219 0.42350
#
# Static dielectric constant tensor:
#      x y z
#    x 3.252710 0.000000 0.000000 
#    y 0.000000 3.735060 0.000000 
#    z 0.000000 0.000000 3.584290 
# 
# 
# High freq. dielectric constant tensor:
#      x y z
#    x 1.720200 0.000000 0.000000 
#    y 0.000000 1.753290 0.000000 
#    z 0.000000 0.000000 1.744970 
# 
# From -- ./inp_files/26407.got.cif
#   From: 2010.03.12/outbox.cif.g09.slc.cpg/sg72_14_cif.got.tgz:26407.got - 2010.04.16 14:54:00.
