data_PCOD8294931
_publ_section_title
;
Structure prediction by ZEFSAII (Michael W. Deem and Ramdas Pophale) SiO2 
 PCOD8294931
Probable space group: I B A M
;
_chemical_formula_sum "Si O2"
_cell_formula_units_Z 64
_cell_length_a 24.125607
_cell_length_b 12.562168
_cell_length_c 10.722764
_cell_angle_alpha 90.000000
_cell_angle_beta 90.000000
_cell_angle_gamma 90.000000
_cell_volume 3249.747316
_symmetry_space_group_name_H-M "I B A M"
_symmetry_group_IT_number 72
_symmetry_cell_setting 'orthorhombic'
loop_
_space_group_symop_operation_xyz
x,y,z
-x,-y,z
x,-y,1/2-z
-x,y,1/2-z
-x,-y,-z
x,y,-z
-x,y,1/2+z
x,-y,1/2+z
1/2+x,1/2+y,1/2+z
1/2-x,1/2-y,1/2+z
1/2+x,1/2-y,-z
1/2-x,1/2+y,-z
1/2-x,1/2-y,1/2-z
1/2+x,1/2+y,1/2-z
1/2-x,1/2+y,z
1/2+x,1/2-y,z
loop_
_atom_site_type_symbol
_atom_site_label
_atom_site_fract_x
_atom_site_fract_y
_atom_site_fract_z
Si Si1 0.594639 0.430726 0.135818
Si Si2 0.811059 0.989697 0.500000
Si Si3 0.816886 0.542770 0.500000
Si Si4 0.934549 0.724998 0.741961
Si Si5 0.120427 0.500000 0.750000
Si Si6 0.632658 0.267827 0.500000
O O1 0.568229 0.500000 0.250000
O O2 0.660453 0.457920 0.123435
O O3 0.588850 0.304050 0.152769
O O4 0.567328 0.462071 0.000000
O O5 0.824638 0.864566 0.500000
O O6 0.746737 0.011855 0.500000
O O7 0.843078 0.495330 0.625500
O O8 0.825884 0.668516 0.500000
O O9 0.918184 0.602938 0.760029
O O10 0.909426 0.770168 0.614736
O O11 0.000000 0.732796 0.750000
#
# Coordination Sequence:
#
# PCOD8294931 Si02
#       6
#    16   8   8  16   8   8
#     4  10  22  39  63  94 126 156 212 251 307 383
#     4  10  22  41  64  89 128 159 198 264 317 362
#     4  10  24  39  66  87 121 169 203 257 321 360
#     4  11  23  41  64  89 126 170 204 262 315 359
#     4  10  25  42  60  94 124 158 225 256 296 386
#     4  10  22  42  58  94 126 157 214 256 303 388
#
# _framework density 19.693839000000001
#
# number of rings (size 3 to 8) (size 9 to 14) (size 15 to 20)
#    0.750    1.000    2.500    0.375    5.250    2.500 
#    0.000   11.250    0.000    0.000    0.000    0.000 
#    0.000    0.000    0.000    0.000    0.000    0.000 
#
# Total GULP energy -396439.395625 kJ/mol
# GULP energy per Si atom -12388.731113 kJ/mol
# Density = 1.964901 g / cm^3
# Si number density = 19.693839 Si / 1000 Ang^3
#
#
#
# Elastic Constant Matrix: (Units=GPa)
#
#
# Indices 1 2 3 4 5 6 
#
# 1 127.6307 58.6743 53.7244 0.0000 0.0000 0.0000
# 2 58.6743 112.8844 62.0701 0.0000 0.0000 0.0000
# 3 53.7244 62.0701 155.8793 0.0000 0.0000 0.0000
# 4 0.0000 0.0000 0.0000 58.4390 0.0000 0.0000
# 5 0.0000 0.0000 0.0000 0.0000 17.2610 0.0000
# 6 0.0000 0.0000 0.0000 0.0000 0.0000 21.0068
#
#
#
# Elastic Compliance Matrix: (Units=1/GPa)
#
#
# Indices 1 2 3 4 5 6 
#
# 1 0.010712 -0.004530 -0.001888 0.000000 0.000000 0.000000
# 2 -0.004530 0.013257 -0.003718 0.000000 0.000000 0.000000
# 3 -0.001888 -0.003718 0.008546 0.000000 0.000000 0.000000
# 4 0.000000 0.000000 0.000000 0.017112 0.000000 0.000000
# 5 0.000000 0.000000 0.000000 0.000000 0.057934 0.000000
# 6 0.000000 0.000000 0.000000 0.000000 0.000000 0.047604
#
#
# Mechanical properties :
#
#
# Convention : Reuss Voigt Hill
#
# Bulk Modulus (GPa) = 81.66984 82.81469 82.24226
# Shear Modulus (GPa) = 27.85225 34.13641 30.99433
#
# Velocity S-wave (km/s) = 3.76475 4.16787 3.97143
# Velocity P-wave (km/s) = 7.77544 8.08108 7.92974
#
# Compressibility (1/GPa) = 0.01224442
#
# Stress axis : x y z
#
# Youngs Moduli (GPa) = 93.34995 75.43036 117.00766
#
# Poissons Ratio (x) = 0.34168 0.22095
# Poissons Ratio (y) = 0.42284 0.43501
# Poissons Ratio (z) = 0.17628 0.28043
#
# Static dielectric constant tensor:
#      x y z
#    x 3.213070 0.000000 0.000000 
#    y 0.000000 3.752240 0.000000 
#    z 0.000000 0.000000 3.936210 
# 
# 
# High freq. dielectric constant tensor:
#      x y z
#    x 1.746070 0.000000 0.000000 
#    y 0.000000 1.784300 0.000000 
#    z 0.000000 0.000000 1.781270 
# 
# From -- ./inp_files/11407.got.cif
#   From: 2010.03.12/outbox.cif.g09.slc.cpg/sg72_6_cif.got.tgz:11407.got - 2010.04.16 14:54:00.
