data_PCOD8294701
_publ_section_title
;
Structure prediction by ZEFSAII (Michael W. Deem and Ramdas Pophale) SiO2 
 PCOD8294701
Probable space group: I B A M
;
_chemical_formula_sum "Si O2"
_cell_formula_units_Z 96
_cell_length_a 14.583324
_cell_length_b 21.541503
_cell_length_c 14.381146
_cell_angle_alpha 90.000000
_cell_angle_beta 90.000000
_cell_angle_gamma 90.000000
_cell_volume 4517.789813
_symmetry_space_group_name_H-M "I B A M"
_symmetry_group_IT_number 72
_symmetry_cell_setting 'orthorhombic'
loop_
_space_group_symop_operation_xyz
x,y,z
-x,-y,z
x,-y,1/2-z
-x,y,1/2-z
-x,-y,-z
x,y,-z
-x,y,1/2+z
x,-y,1/2+z
1/2+x,1/2+y,1/2+z
1/2-x,1/2-y,1/2+z
1/2+x,1/2-y,-z
1/2-x,1/2+y,-z
1/2-x,1/2-y,1/2-z
1/2+x,1/2+y,1/2-z
1/2-x,1/2+y,z
1/2+x,1/2-y,z
loop_
_atom_site_type_symbol
_atom_site_label
_atom_site_fract_x
_atom_site_fract_y
_atom_site_fract_z
Si Si1 0.500642 0.308283 0.395819
Si Si2 0.951158 0.942291 0.151543
Si Si3 0.192961 0.841387 0.892399
Si Si4 0.286090 0.482312 0.892309
Si Si5 0.500000 0.104098 0.750000
Si Si6 0.395326 0.189913 0.611581
Si Si7 0.864437 0.500000 0.250000
O O1 0.519634 0.287200 0.500000
O O2 0.454966 0.376316 0.398388
O O3 0.602160 0.308611 0.346129
O O4 0.429206 0.258332 0.354922
O O5 0.000000 0.935591 0.250000
O O6 0.845381 0.963833 0.158470
O O7 0.000000 0.000000 0.095625
O O8 0.169964 0.914176 0.880204
O O9 0.290850 0.819801 0.849768
O O10 0.197833 0.823897 0.000000
O O11 0.189755 0.479482 0.841306
O O12 0.271608 0.499102 0.000000
O O13 0.465003 0.143470 0.662071
O O14 0.579594 0.059166 0.713178
O O15 0.399318 0.179011 0.500000
#
# Coordination Sequence:
#
# PCOD8294701 Si02
#       7
#    16  16  16  16   8  16   8
#     4  10  21  38  62  89 122 166 212 258 314 383
#     4  11  22  35  58  94 131 163 201 260 315 378
#     4   9  18  37  64  87 117 165 209 258 321 375
#     4  11  22  39  64  92 129 169 207 260 325 382
#     4  11  24  42  66  90 123 166 212 274 329 374
#     4  10  22  42  64  90 126 167 216 263 318 392
#     4  11  24  42  63  94 124 160 221 268 320 389
#
# _framework density 21.249327999999998
#
# number of rings (size 3 to 8) (size 9 to 14) (size 15 to 20)
#    0.000    1.667    3.333    1.500    1.167    1.333 
#    3.000    2.500    0.000    0.000    0.000    0.000 
#    0.000    0.000    0.000    0.000    0.000    0.000 
#
# Total GULP energy -594678.917936 kJ/mol
# GULP energy per Si atom -12389.144124 kJ/mol
# Density = 2.120096 g / cm^3
# Si number density = 21.249328 Si / 1000 Ang^3
#
#
#
# Elastic Constant Matrix: (Units=GPa)
#
#
# Indices 1 2 3 4 5 6 
#
# 1 141.2393 66.7389 20.8997 0.0001 0.0000 0.0000
# 2 66.7389 135.2754 16.6143 0.0005 0.0000 -0.0002
# 3 20.8997 16.6143 52.8683 0.0010 0.0000 -0.0004
# 4 0.0001 0.0005 0.0010 19.6335 0.0000 -0.0002
# 5 0.0000 0.0000 0.0000 0.0000 19.7286 0.0000
# 6 0.0000 -0.0002 -0.0004 -0.0002 0.0000 37.6642
#
#
#
# Elastic Compliance Matrix: (Units=1/GPa)
#
#
# Indices 1 2 3 4 5 6 
#
# 1 0.009511 -0.004400 -0.002377 0.000000 0.000000 0.000000
# 2 -0.004400 0.009725 -0.001317 0.000000 0.000000 0.000000
# 3 -0.002377 -0.001317 0.020268 -0.000001 0.000000 0.000000
# 4 0.000000 0.000000 -0.000001 0.050933 0.000000 0.000000
# 5 0.000000 0.000000 0.000000 0.000000 0.050688 0.000000
# 6 0.000000 0.000000 0.000000 0.000000 0.000000 0.026550
#
#
# Mechanical properties :
#
#
# Convention : Reuss Voigt Hill
#
# Bulk Modulus (GPa) = 42.88831 59.76543 51.32687
# Shear Modulus (GPa) = 26.09104 30.41393 28.25249
#
# Velocity S-wave (km/s) = 3.50787 3.78734 3.65028
# Velocity P-wave (km/s) = 6.05261 6.87838 6.47867
#
# Compressibility (1/GPa) = 0.02331638
#
# Stress axis : x y z
#
# Youngs Moduli (GPa) = 105.13857 102.82740 49.33799
#
# Poissons Ratio (x) = 0.45249 0.11728
# Poissons Ratio (y) = 0.46266 0.06496
# Poissons Ratio (z) = 0.24992 0.13538
#
# Static dielectric constant tensor:
#      x y z
#    x 4.215750 0.000000 0.000000 
#    y 0.000000 4.074550 0.000000 
#    z 0.000000 0.000000 3.529440 
# 
# 
# High freq. dielectric constant tensor:
#      x y z
#    x 1.842820 0.000000 0.000000 
#    y 0.000000 1.830950 0.000000 
#    z 0.000000 0.000000 1.810020 
# 
# From -- ./inp_files/21906.got.cif
#   From: 2010.03.12/outbox.cif.g09.slc.cpg/sg72_11_cif.got.tgz:21906.got - 2010.04.16 14:54:00.
