data_PCOD8294041
_publ_section_title
;
Structure prediction by ZEFSAII (Michael W. Deem and Ramdas Pophale) SiO2 
 PCOD8294041
Probable space group: I B A M
;
_chemical_formula_sum "Si O2"
_cell_formula_units_Z 116
_cell_length_a 8.359670
_cell_length_b 29.007073
_cell_length_c 24.010330
_cell_angle_alpha 90.000000
_cell_angle_beta 90.000000
_cell_angle_gamma 90.000000
_cell_volume 5822.254308
_symmetry_space_group_name_H-M "I B A M"
_symmetry_group_IT_number 72
_symmetry_cell_setting 'orthorhombic'
loop_
_space_group_symop_operation_xyz
x,y,z
-x,-y,z
x,-y,1/2-z
-x,y,1/2-z
-x,-y,-z
x,y,-z
-x,y,1/2+z
x,-y,1/2+z
1/2+x,1/2+y,1/2+z
1/2-x,1/2-y,1/2+z
1/2+x,1/2-y,-z
1/2-x,1/2+y,-z
1/2-x,1/2-y,1/2-z
1/2+x,1/2+y,1/2-z
1/2-x,1/2+y,z
1/2+x,1/2-y,z
loop_
_atom_site_type_symbol
_atom_site_label
_atom_site_fract_x
_atom_site_fract_y
_atom_site_fract_z
Si Si1 0.020246 0.692936 0.314489
Si Si2 0.483597 0.089015 0.185639
Si Si3 0.000000 0.000000 0.750000
Si Si4 0.553776 0.303847 0.437660
Si Si5 0.849933 0.526666 0.901072
Si Si6 0.157485 0.052372 0.150911
Si Si7 0.090767 0.908493 0.937838
Si Si8 0.232484 0.761558 0.623956
O O1 0.055669 0.639351 0.326741
O O2 0.860076 0.706388 0.346380
O O3 0.000000 0.702280 0.250000
O O4 0.170250 0.723079 0.333301
O O5 0.500000 0.076442 0.250000
O O6 0.585360 0.050254 0.154811
O O7 0.300330 0.088020 0.163962
O O8 0.900615 0.965598 0.789253
O O9 0.489704 0.297830 0.500000
O O10 0.625759 0.354608 0.428116
O O11 0.691520 0.266104 0.427676
O O12 0.406997 0.295362 0.396050
O O13 0.713966 0.490605 0.885436
O O14 0.762166 0.565069 0.938565
O O15 0.000000 0.500000 0.931112
O O16 0.021976 0.075922 0.112951
O O17 0.014185 0.916051 0.000000
#
# Coordination Sequence:
#
# PCOD8294041 Si02
#       8
#    16  16   4  16  16  16  16  16
#     4  10  20  35  55  81 115 152 188 228 283 345
#     4  10  21  36  57  84 117 151 192 240 291 343
#     4  12  20  36  60  84 112 144 190 238 284 332
#     4  10  21  37  60  84 111 146 188 238 289 338
#     4  10  21  38  57  82 111 151 192 236 287 340
#     4  11  22  37  59  86 114 151 194 236 290 342
#     4  11  23  40  59  84 118 153 195 242 285 343
#     4  10  20  36  58  82 113 146 186 237 283 345
#
# _framework density 19.923555
#
# number of rings (size 3 to 8) (size 9 to 14) (size 15 to 20)
#    0.000    1.655    1.379    3.310    0.000    3.310 
#    0.000    2.069    3.034   11.586    0.000    0.000 
#    0.000    0.000    0.000    0.000    0.000    0.000 
#
# Total GULP energy -719084.201782 kJ/mol
# GULP energy per Si atom -12398.003479 kJ/mol
# Density = 1.987821 g / cm^3
# Si number density = 19.923555 Si / 1000 Ang^3
#
#
#
# Elastic Constant Matrix: (Units=GPa)
#
#
# Indices 1 2 3 4 5 6 
#
# 1 60.2858 19.6453 17.1783 0.0000 0.0000 0.0000
# 2 19.6453 88.2205 32.4040 0.0000 0.0000 0.0000
# 3 17.1783 32.4040 84.0074 0.0000 0.0000 0.0000
# 4 0.0000 0.0000 0.0000 25.6263 0.0000 0.0000
# 5 0.0000 0.0000 0.0000 0.0000 15.5182 0.0000
# 6 0.0000 0.0000 0.0000 0.0000 0.0000 20.8556
#
#
#
# Elastic Compliance Matrix: (Units=1/GPa)
#
#
# Indices 1 2 3 4 5 6 
#
# 1 0.018337 -0.003153 -0.002534 0.000000 0.000000 0.000000
# 2 -0.003153 0.013748 -0.004658 0.000000 0.000000 0.000000
# 3 -0.002534 -0.004658 0.014219 0.000000 0.000000 0.000000
# 4 0.000000 0.000000 0.000000 0.039022 0.000000 0.000000
# 5 0.000000 0.000000 0.000000 0.000000 0.064441 0.000000
# 6 0.000000 0.000000 0.000000 0.000000 0.000000 0.047949
#
#
# Mechanical properties :
#
#
# Convention : Reuss Voigt Hill
#
# Bulk Modulus (GPa) = 39.04033 41.21877 40.12955
# Shear Modulus (GPa) = 22.03192 23.28576 22.65884
#
# Velocity S-wave (km/s) = 3.32900 3.42241 3.37603
# Velocity P-wave (km/s) = 5.86634 6.02915 5.94830
#
# Compressibility (1/GPa) = 0.02561454
#
# Stress axis : x y z
#
# Youngs Moduli (GPa) = 54.53462 72.73585 70.33004
#
# Poissons Ratio (x) = 0.22932 0.17818
# Poissons Ratio (y) = 0.17193 0.32763
# Poissons Ratio (z) = 0.13817 0.33884
#
# Static dielectric constant tensor:
#      x y z
#    x 3.572970 0.000000 0.000000 
#    y 0.000000 3.727800 0.000000 
#    z 0.000000 0.000000 3.584730 
# 
# 
# High freq. dielectric constant tensor:
#      x y z
#    x 1.775570 0.000000 0.000000 
#    y 0.000000 1.790120 0.000000 
#    z 0.000000 0.000000 1.774590 
# 
# From -- ./inp_files/42709.got.cif
#   From: 2010.03.12/outbox.cif.g09.slc.cpg/sg72_22_cif.got.tgz:42709.got - 2010.04.16 14:54:00.
