data_PCOD8294340
_publ_section_title
;
Structure prediction by ZEFSAII (Michael W. Deem and Ramdas Pophale) SiO2 
 PCOD8294340
Probable space group: I B A M
;
_chemical_formula_sum "Si O2"
_cell_formula_units_Z 112
_cell_length_a 28.346153
_cell_length_b 10.945366
_cell_length_c 17.420342
_cell_angle_alpha 90.000000
_cell_angle_beta 90.000000
_cell_angle_gamma 90.000000
_cell_volume 5404.818224
_symmetry_space_group_name_H-M "I B A M"
_symmetry_group_IT_number 72
_symmetry_cell_setting 'orthorhombic'
loop_
_space_group_symop_operation_xyz
x,y,z
-x,-y,z
x,-y,1/2-z
-x,y,1/2-z
-x,-y,-z
x,y,-z
-x,y,1/2+z
x,-y,1/2+z
1/2+x,1/2+y,1/2+z
1/2-x,1/2-y,1/2+z
1/2+x,1/2-y,-z
1/2-x,1/2+y,-z
1/2-x,1/2-y,1/2-z
1/2+x,1/2+y,1/2-z
1/2-x,1/2+y,z
1/2+x,1/2-y,z
loop_
_atom_site_type_symbol
_atom_site_label
_atom_site_fract_x
_atom_site_fract_y
_atom_site_fract_z
Si Si1 0.426583 0.666491 0.914403
Si Si2 0.886680 0.917865 0.411152
Si Si3 0.542384 0.091404 0.415479
Si Si4 0.300012 0.122871 0.297418
Si Si5 0.119786 0.596180 0.590378
Si Si6 0.981078 0.172255 0.164997
Si Si7 0.691472 0.371164 0.706877
O O1 0.385456 0.564887 0.911108
O O2 0.408349 0.788621 0.872278
O O3 0.476086 0.615882 0.883407
O O4 0.438051 0.706851 0.000000
O O5 0.889573 0.869774 0.500000
O O6 0.931862 0.887896 0.358545
O O7 0.840515 0.864077 0.369734
O O8 0.550998 0.152514 0.500000
O O9 0.526779 0.184993 0.350449
O O10 0.500000 0.000000 0.425298
O O11 0.590672 0.025674 0.388521
O O12 0.328167 0.097778 0.375209
O O13 0.318095 0.248763 0.257155
O O14 0.245415 0.133815 0.320318
O O15 0.308945 0.000000 0.250000
O O16 0.125982 0.610565 0.500000
O O17 0.000000 0.148388 0.250000
O O18 0.680404 0.500000 0.750000
#
# Coordination Sequence:
#
# PCOD8294340 Si02
#       7
#    16  16  16  16  16  16  16
#     4  10  21  41  61  85 123 166 206 250 309 375
#     4  11  25  41  65  93 124 165 212 264 314 376
#     4  10  20  38  59  81 119 164 205 253 311 369
#     4  10  23  42  65  96 128 164 210 272 331 383
#     4  10  21  37  64  92 121 165 211 258 316 384
#     4  12  26  37  57  90 125 164 207 257 306 377
#     4  10  23  44  68  90 128 172 209 263 333 391
#
# _framework density 20.722251
#
# number of rings (size 3 to 8) (size 9 to 14) (size 15 to 20)
#    0.000    1.571    1.429    2.571    6.000    2.571 
#    0.000    0.000    0.000    5.143    0.000    0.000 
#    0.000    0.000    0.000    0.000    0.000    0.000 
#
# Total GULP energy -693868.914622 kJ/mol
# GULP energy per Si atom -12390.516333 kJ/mol
# Density = 2.067509 g / cm^3
# Si number density = 20.722251 Si / 1000 Ang^3
#
#
#
# Elastic Constant Matrix: (Units=GPa)
#
#
# Indices 1 2 3 4 5 6 
#
# 1 119.7464 28.2111 66.9728 0.0000 0.0000 0.0000
# 2 28.2111 96.9591 35.3629 0.0000 0.0000 0.0000
# 3 66.9728 35.3629 100.6172 0.0000 0.0000 0.0000
# 4 0.0000 0.0000 0.0000 10.4458 0.0000 0.0000
# 5 0.0000 0.0000 0.0000 0.0000 -97.7048 0.0000
# 6 0.0000 0.0000 0.0000 0.0000 0.0000 27.2089
#
#
#
# Elastic Compliance Matrix: (Units=1/GPa)
#
#
# Indices 1 2 3 4 5 6 
#
# 1 0.013349 -0.000738 -0.008626 0.000000 0.000000 0.000000
# 2 -0.000738 0.011871 -0.003681 0.000000 0.000000 0.000000
# 3 -0.008626 -0.003681 0.016974 0.000000 0.000000 0.000000
# 4 0.000000 0.000000 0.000000 0.095732 0.000000 0.000000
# 5 0.000000 0.000000 0.000000 0.000000 -0.010235 0.000000
# 6 0.000000 0.000000 0.000000 0.000000 0.000000 0.036753
#
#
# Mechanical properties :
#
#
# Convention : Reuss Voigt Hill
#
# Bulk Modulus (GPa) = 62.09589 64.26847 63.18218
# Shear Modulus (GPa) = 25.52288 0.44172 12.98230
#
# Velocity S-wave (km/s) = 3.51332 0.46220 2.50570
# Velocity P-wave (km/s) = 6.81826 5.60057 6.23919
#
# Compressibility (1/GPa) = 0.01610413
#
# Stress axis : x y z
#
# Youngs Moduli (GPa) = 74.90975 84.23999 58.91308
#
# Poissons Ratio (x) = 0.06217 0.50820
# Poissons Ratio (y) = 0.05528 0.21685
# Poissons Ratio (z) = 0.64619 0.31008
#
# Static dielectric constant tensor:
#      x y z
#    x 3.872430 0.000000 0.000000 
#    y 0.000000 4.190200 0.000000 
#    z 0.000000 0.000000 3.622770 
# 
# 
# High freq. dielectric constant tensor:
#      x y z
#    x 1.810270 0.000000 0.000000 
#    y 0.000000 1.827620 0.000000 
#    z 0.000000 0.000000 1.794030 
# 
# From -- ./inp_files/26418.got.cif
#   From: 2010.03.12/outbox.cif.g09.slc.cpg/sg72_14_cif.got.tgz:26418.got - 2010.04.16 14:54:00.
