data_PCOD8294749
_publ_section_title
;
Structure prediction by ZEFSAII (Michael W. Deem and Ramdas Pophale) SiO2 
 PCOD8294749
Probable space group: I B A M
;
_chemical_formula_sum "Si O2"
_cell_formula_units_Z 112
_cell_length_a 15.049005
_cell_length_b 22.574399
_cell_length_c 14.095580
_cell_angle_alpha 90.000000
_cell_angle_beta 90.000000
_cell_angle_gamma 90.000000
_cell_volume 4788.582060
_symmetry_space_group_name_H-M "I B A M"
_symmetry_group_IT_number 72
_symmetry_cell_setting 'orthorhombic'
loop_
_space_group_symop_operation_xyz
x,y,z
-x,-y,z
x,-y,1/2-z
-x,y,1/2-z
-x,-y,-z
x,y,-z
-x,y,1/2+z
x,-y,1/2+z
1/2+x,1/2+y,1/2+z
1/2-x,1/2-y,1/2+z
1/2+x,1/2-y,-z
1/2-x,1/2+y,-z
1/2-x,1/2-y,1/2-z
1/2+x,1/2+y,1/2-z
1/2-x,1/2+y,z
1/2+x,1/2-y,z
loop_
_atom_site_type_symbol
_atom_site_label
_atom_site_fract_x
_atom_site_fract_y
_atom_site_fract_z
Si Si1 0.056800 0.447137 0.605817
Si Si2 0.855999 0.134483 0.752107
Si Si3 0.250730 0.535645 0.841615
Si Si4 0.797708 0.767264 0.390970
Si Si5 0.047548 0.317413 0.388158
Si Si6 0.584004 0.460439 0.605303
Si Si7 0.598692 0.275001 0.891577
O O1 0.017534 0.441841 0.500000
O O2 0.161844 0.460036 0.596696
O O3 0.042246 0.383325 0.657780
O O4 0.000000 0.500000 0.657043
O O5 0.784823 0.100836 0.686358
O O6 0.802781 0.175005 0.826155
O O7 0.914226 0.089203 0.813844
O O8 0.921054 0.170944 0.680703
O O9 0.220815 0.500000 0.750000
O O10 0.327623 0.500529 0.896537
O O11 0.818084 0.785086 0.500000
O O12 0.867667 0.719321 0.350700
O O13 0.701446 0.739567 0.380655
O O14 0.058598 0.324580 0.500000
O O15 0.958664 0.281806 0.360347
O O16 0.500000 0.500000 0.631944
O O17 0.573185 0.432555 0.500000
O O18 0.574928 0.293494 0.000000
#
# Coordination Sequence:
#
# PCOD8294749 Si02
#       7
#    16  16  16  16  16  16  16
#     4  10  21  40  66  90 118 164 215 260 312 374
#     4  11  23  40  64  93 124 165 215 259 314 385
#     4  10  23  39  59  91 130 164 205 261 318 381
#     4  10  21  39  62  90 127 165 205 259 318 378
#     4   9  20  38  59  89 123 155 202 258 308 367
#     4  10  23  43  66  94 129 167 211 268 326 382
#     4  10  22  39  61  91 127 166 206 256 320 383
#
# _framework density 23.38897
#
# number of rings (size 3 to 8) (size 9 to 14) (size 15 to 20)
#    0.000    2.000    0.000    2.143    0.000   10.286 
#    0.000    8.571    0.000    0.429    0.000    0.000 
#    0.000    0.000    0.000    0.000    0.000    0.000 
#
# Total GULP energy -694348.872401 kJ/mol
# GULP energy per Si atom -12399.087007 kJ/mol
# Density = 2.333574 g / cm^3
# Si number density = 23.388970 Si / 1000 Ang^3
#
#
#
# Elastic Constant Matrix: (Units=GPa)
#
#
# Indices 1 2 3 4 5 6 
#
# 1 130.6265 62.1781 29.0239 0.0000 0.0000 0.0000
# 2 62.1781 161.0389 43.2140 0.0000 0.0000 0.0000
# 3 29.0239 43.2140 78.2738 0.0001 0.0000 0.0000
# 4 0.0000 0.0000 0.0001 25.9538 0.0000 0.0000
# 5 0.0000 0.0000 0.0000 0.0000 21.9936 0.0000
# 6 0.0000 0.0000 0.0000 0.0000 0.0000 30.5832
#
#
#
# Elastic Compliance Matrix: (Units=1/GPa)
#
#
# Indices 1 2 3 4 5 6 
#
# 1 0.009584 -0.003225 -0.001774 0.000000 0.000000 0.000000
# 2 -0.003225 0.008375 -0.003428 0.000000 0.000000 0.000000
# 3 -0.001774 -0.003428 0.015326 0.000000 0.000000 0.000000
# 4 0.000000 0.000000 0.000000 0.038530 0.000000 0.000000
# 5 0.000000 0.000000 0.000000 0.000000 0.045468 0.000000
# 6 0.000000 0.000000 0.000000 0.000000 0.000000 0.032698
#
#
# Mechanical properties :
#
#
# Convention : Reuss Voigt Hill
#
# Bulk Modulus (GPa) = 60.85451 70.97457 65.91454
# Shear Modulus (GPa) = 29.01747 31.40766 30.21257
#
# Velocity S-wave (km/s) = 3.52610 3.66845 3.59798
# Velocity P-wave (km/s) = 6.53091 6.95375 6.74564
#
# Compressibility (1/GPa) = 0.01643263
#
# Stress axis : x y z
#
# Youngs Moduli (GPa) = 104.33587 119.40901 65.24963
#
# Poissons Ratio (x) = 0.38505 0.11573
# Poissons Ratio (y) = 0.33645 0.22366
# Poissons Ratio (z) = 0.18505 0.40931
#
# Static dielectric constant tensor:
#      x y z
#    x 3.988860 0.000000 0.000000 
#    y 0.000000 4.467200 0.000000 
#    z 0.000000 0.000000 4.228740 
# 
# 
# High freq. dielectric constant tensor:
#      x y z
#    x 1.923390 0.000000 0.000000 
#    y 0.000000 1.928590 0.000000 
#    z 0.000000 0.000000 1.927270 
# 
# From -- ./inp_files/22159.got.cif
#   From: 2010.03.12/outbox.cif.g09.slc.cpg/sg72_12_cif.got.tgz:22159.got - 2010.04.16 14:54:00.
