data_PCOD8294901
_publ_section_title
;
Structure prediction by ZEFSAII (Michael W. Deem and Ramdas Pophale) SiO2 
 PCOD8294901
Probable space group: I B A M
;
_chemical_formula_sum "Si O2"
_cell_formula_units_Z 112
_cell_length_a 23.765602
_cell_length_b 15.042067
_cell_length_c 14.214193
_cell_angle_alpha 90.000000
_cell_angle_beta 90.000000
_cell_angle_gamma 90.000000
_cell_volume 5081.343409
_symmetry_space_group_name_H-M "I B A M"
_symmetry_group_IT_number 72
_symmetry_cell_setting 'orthorhombic'
loop_
_space_group_symop_operation_xyz
x,y,z
-x,-y,z
x,-y,1/2-z
-x,y,1/2-z
-x,-y,-z
x,y,-z
-x,y,1/2+z
x,-y,1/2+z
1/2+x,1/2+y,1/2+z
1/2-x,1/2-y,1/2+z
1/2+x,1/2-y,-z
1/2-x,1/2+y,-z
1/2-x,1/2-y,1/2-z
1/2+x,1/2+y,1/2-z
1/2-x,1/2+y,z
1/2+x,1/2-y,z
loop_
_atom_site_type_symbol
_atom_site_label
_atom_site_fract_x
_atom_site_fract_y
_atom_site_fract_z
Si Si1 0.575455 0.659502 0.602029
Si Si2 0.050462 0.795314 0.893735
Si Si3 0.108891 0.977461 0.850721
Si Si4 0.230627 0.974347 0.390543
Si Si5 0.182438 0.379701 0.106759
Si Si6 0.769585 0.719818 0.392645
Si Si7 0.371511 0.225922 0.247134
O O1 0.587166 0.705623 0.500000
O O2 0.512593 0.680842 0.636679
O O3 0.584271 0.554845 0.582978
O O4 0.619460 0.691291 0.681209
O O5 0.090244 0.881820 0.887690
O O6 0.074648 0.719722 0.822849
O O7 0.052372 0.758502 0.000000
O O8 0.176569 0.982118 0.841996
O O9 0.081955 0.000000 0.750000
O O10 0.218794 0.983140 0.500000
O O11 0.285586 0.031115 0.362308
O O12 0.241283 0.872803 0.361277
O O13 0.223123 0.295219 0.113525
O O14 0.133899 0.361471 0.185460
O O15 0.158379 0.388921 0.000000
O O16 0.793506 0.713344 0.500000
O O17 0.817837 0.743632 0.318467
#
# Coordination Sequence:
#
# PCOD8294901 Si02
#       7
#    16  16  16  16  16  16  16
#     4  11  24  41  60  86 121 161 207 259 314 373
#     4  11  24  41  60  86 121 161 207 259 314 373
#     4  12  23  35  60  88 124 165 209 247 302 372
#     4  10  22  39  59  90 130 170 209 247 302 373
#     4  10  22  38  58  87 124 164 208 255 304 364
#     4  10  22  38  58  87 124 164 208 255 304 364
#     4  12  22  36  59  82 114 154 202 249 304 355
#
# _framework density 22.041416000000002
#
# number of rings (size 3 to 8) (size 9 to 14) (size 15 to 20)
#    0.000    1.143    1.429    5.143    2.000    4.000 
#    0.000    0.000    0.000    0.000    0.000    8.000 
#    0.000   22.857    0.000    0.000    0.000    0.000 
#
# Total GULP energy -694146.763086 kJ/mol
# GULP energy per Si atom -12395.477912 kJ/mol
# Density = 2.199125 g / cm^3
# Si number density = 22.041416 Si / 1000 Ang^3
#
#
#
# Elastic Constant Matrix: (Units=GPa)
#
#
# Indices 1 2 3 4 5 6 
#
# 1 89.6142 21.1913 45.1941 0.0000 0.0000 0.0000
# 2 21.1913 63.1373 15.3888 0.0000 0.0000 0.0000
# 3 45.1941 15.3888 126.2685 0.0000 0.0000 0.0000
# 4 0.0000 0.0000 0.0000 25.6681 0.0000 0.0000
# 5 0.0000 0.0000 0.0000 0.0000 39.4261 0.0000
# 6 0.0000 0.0000 0.0000 0.0000 0.0000 33.0692
#
#
#
# Elastic Compliance Matrix: (Units=1/GPa)
#
#
# Indices 1 2 3 4 5 6 
#
# 1 0.014404 -0.003688 -0.004706 0.000000 0.000000 0.000000
# 2 -0.003688 0.017267 -0.000785 0.000000 0.000000 0.000000
# 3 -0.004706 -0.000785 0.009700 0.000000 0.000000 0.000000
# 4 0.000000 0.000000 0.000000 0.038959 0.000000 0.000000
# 5 0.000000 0.000000 0.000000 0.000000 0.025364 0.000000
# 6 0.000000 0.000000 0.000000 0.000000 0.000000 0.030240
#
#
# Mechanical properties :
#
#
# Convention : Reuss Voigt Hill
#
# Bulk Modulus (GPa) = 43.45039 49.17427 46.31233
# Shear Modulus (GPa) = 30.87140 32.78241 31.82690
#
# Velocity S-wave (km/s) = 3.74653 3.86075 3.80407
# Velocity P-wave (km/s) = 6.20251 6.49863 6.35230
#
# Compressibility (1/GPa) = 0.02301476
#
# Stress axis : x y z
#
# Youngs Moduli (GPa) = 69.42330 57.91254 103.09594
#
# Poissons Ratio (x) = 0.21356 0.48519
# Poissons Ratio (y) = 0.25600 0.08089
# Poissons Ratio (z) = 0.32672 0.04544
#
# Static dielectric constant tensor:
#      x y z
#    x 3.864100 0.000000 0.000000 
#    y 0.000000 3.874610 0.000000 
#    z 0.000000 0.000000 4.635230 
# 
# 
# High freq. dielectric constant tensor:
#      x y z
#    x 1.842870 0.000000 0.000000 
#    y 0.000000 1.827120 0.000000 
#    z 0.000000 0.000000 1.902590 
# 
# From -- ./inp_files/22119.got.cif
#   From: 2010.03.12/outbox.cif.g09.slc.cpg/sg72_12_cif.got.tgz:22119.got - 2010.04.16 14:54:00.
