data_PCOD8294548
_publ_section_title
;
Structure prediction by ZEFSAII (Michael W. Deem and Ramdas Pophale) SiO2 
 PCOD8294548
Probable space group: I B A M
;
_chemical_formula_sum "Si O2"
_cell_formula_units_Z 88
_cell_length_a 21.592950
_cell_length_b 8.398164
_cell_length_c 22.916697
_cell_angle_alpha 90.000000
_cell_angle_beta 90.000000
_cell_angle_gamma 90.000000
_cell_volume 4155.739852
_symmetry_space_group_name_H-M "I B A M"
_symmetry_group_IT_number 72
_symmetry_cell_setting 'orthorhombic'
loop_
_space_group_symop_operation_xyz
x,y,z
-x,-y,z
x,-y,1/2-z
-x,y,1/2-z
-x,-y,-z
x,y,-z
-x,y,1/2+z
x,-y,1/2+z
1/2+x,1/2+y,1/2+z
1/2-x,1/2-y,1/2+z
1/2+x,1/2-y,-z
1/2-x,1/2+y,-z
1/2-x,1/2-y,1/2-z
1/2+x,1/2+y,1/2-z
1/2-x,1/2+y,z
1/2+x,1/2-y,z
loop_
_atom_site_type_symbol
_atom_site_label
_atom_site_fract_x
_atom_site_fract_y
_atom_site_fract_z
Si Si1 0.218050 0.000000 0.750000
Si Si2 0.513991 0.832819 0.316625
Si Si3 0.058530 0.909837 0.107543
Si Si4 0.826095 0.742596 0.566544
Si Si5 0.775576 0.428384 0.626954
Si Si6 0.137571 0.181307 0.833863
O O1 0.260197 0.945310 0.804268
O O2 0.173313 0.860745 0.726040
O O3 0.500000 0.845958 0.250000
O O4 0.474294 0.689369 0.341920
O O5 0.586911 0.811928 0.320309
O O6 0.500000 0.000000 0.349045
O O7 0.100652 0.792302 0.068146
O O8 0.107032 0.028772 0.136660
O O9 0.000000 0.000000 0.074619
O O10 0.808177 0.707307 0.500000
O O11 0.811974 0.583744 0.603956
O O12 0.786710 0.893616 0.590399
O O13 0.816163 0.267464 0.620408
#
# Coordination Sequence:
#
# PCOD8294548 Si02
#       6
#     8  16  16  16  16  16
#     4  12  22  38  65 100 137 174 206 278 340 418
#     4  10  21  36  59  94 133 177 214 266 331 407
#     4  10  22  42  65  94 129 172 223 272 333 399
#     4  12  25  45  67  91 131 178 230 282 330 399
#     4  12  25  41  65 100 131 173 222 274 346 401
#     4  11  22  38  62  94 138 168 212 267 332 409
#
# _framework density 21.175530999999999
#
# number of rings (size 3 to 8) (size 9 to 14) (size 15 to 20)
#    0.000    0.909    3.636    3.273    0.000    4.364 
#    0.000    0.909    0.000   11.455    0.000    0.000 
#    0.000    0.000    0.000    0.000    0.000    0.000 
#
# Total GULP energy -545251.365956 kJ/mol
# GULP energy per Si atom -12392.076499 kJ/mol
# Density = 2.112733 g / cm^3
# Si number density = 21.175531 Si / 1000 Ang^3
#
#
#
# Elastic Constant Matrix: (Units=GPa)
#
#
# Indices 1 2 3 4 5 6 
#
# 1 137.1987 64.5138 39.1530 0.0000 0.0000 0.0000
# 2 64.5138 122.4904 29.6257 0.0000 0.0000 0.0000
# 3 39.1530 29.6257 93.0399 0.0000 0.0000 0.0000
# 4 0.0000 0.0000 0.0000 23.1251 0.0000 0.0000
# 5 0.0000 0.0000 0.0000 0.0000 19.7963 0.0000
# 6 0.0000 0.0000 0.0000 0.0000 0.0000 45.8916
#
#
#
# Elastic Compliance Matrix: (Units=1/GPa)
#
#
# Indices 1 2 3 4 5 6 
#
# 1 0.010335 -0.004758 -0.002834 0.000000 0.000000 0.000000
# 2 -0.004758 0.011035 -0.001512 0.000000 0.000000 0.000000
# 3 -0.002834 -0.001512 0.012422 0.000000 0.000000 0.000000
# 4 0.000000 0.000000 0.000000 0.043243 0.000000 0.000000
# 5 0.000000 0.000000 0.000000 0.000000 0.050515 0.000000
# 6 0.000000 0.000000 0.000000 0.000000 0.000000 0.021791
#
#
# Mechanical properties :
#
#
# Convention : Reuss Voigt Hill
#
# Bulk Modulus (GPa) = 64.16393 68.81266 66.48830
# Shear Modulus (GPa) = 28.94489 32.39169 30.66829
#
# Velocity S-wave (km/s) = 3.70118 3.91535 3.80977
# Velocity P-wave (km/s) = 6.97364 7.28058 7.12876
#
# Compressibility (1/GPa) = 0.01558508
#
# Stress axis : x y z
#
# Youngs Moduli (GPa) = 96.76223 90.61821 80.50182
#
# Poissons Ratio (x) = 0.43113 0.22815
# Poissons Ratio (y) = 0.46036 0.12170
# Poissons Ratio (z) = 0.27423 0.13699
#
# Static dielectric constant tensor:
#      x y z
#    x 4.149170 0.000000 0.000000 
#    y 0.000000 4.651950 0.000000 
#    z 0.000000 0.000000 3.394650 
# 
# 
# High freq. dielectric constant tensor:
#      x y z
#    x 1.854060 0.000000 0.000000 
#    y 0.000000 1.848090 0.000000 
#    z 0.000000 0.000000 1.790470 
# 
# From -- ./inp_files/45261.got.cif
#   From: 2010.03.12/outbox.cif.g09.slc.cpg/sg72_23_cif.got.tgz:45261.got - 2010.04.16 14:54:00.
