data_PCOD8294126
_publ_section_title
;
Structure prediction by ZEFSAII (Michael W. Deem and Ramdas Pophale) SiO2 
 PCOD8294126
Probable space group: I B A M
;
_chemical_formula_sum "Si O2"
_cell_formula_units_Z 60
_cell_length_a 9.549522
_cell_length_b 15.478288
_cell_length_c 18.583693
_cell_angle_alpha 90.000000
_cell_angle_beta 90.000000
_cell_angle_gamma 90.000000
_cell_volume 2746.860341
_symmetry_space_group_name_H-M "I B A M"
_symmetry_group_IT_number 72
_symmetry_cell_setting 'orthorhombic'
loop_
_space_group_symop_operation_xyz
x,y,z
-x,-y,z
x,-y,1/2-z
-x,y,1/2-z
-x,-y,-z
x,y,-z
-x,y,1/2+z
x,-y,1/2+z
1/2+x,1/2+y,1/2+z
1/2-x,1/2-y,1/2+z
1/2+x,1/2-y,-z
1/2-x,1/2+y,-z
1/2-x,1/2-y,1/2-z
1/2+x,1/2+y,1/2-z
1/2-x,1/2+y,z
1/2+x,1/2-y,z
loop_
_atom_site_type_symbol
_atom_site_label
_atom_site_fract_x
_atom_site_fract_y
_atom_site_fract_z
Si Si1 0.347502 0.433416 0.500000
Si Si2 0.000000 0.000000 0.250000
Si Si3 0.897140 0.857142 0.846958
Si Si4 0.853111 0.244940 0.119492
Si Si5 0.241194 0.882408 0.000000
Si Si6 0.048426 0.366550 0.500000
O O1 0.408141 0.384393 0.430849
O O2 0.373187 0.537965 0.500000
O O3 0.179026 0.430908 0.500000
O O4 0.105394 0.942559 0.298071
O O5 0.759010 0.799377 0.833566
O O6 0.038641 0.803879 0.827367
O O7 0.773686 0.174753 0.071054
O O8 0.946214 0.307498 0.070781
O O9 0.401323 0.917527 0.000000
#
# Coordination Sequence:
#
# PCOD8294126 Si02
#       6
#     8   4  16  16   8   8
#     4  10  21  35  62  93 131 152 199 248 316 340
#     4  12  28  42  64  86 124 156 220 250 312 350
#     4  11  23  43  62  95 120 165 198 259 297 375
#     4  10  20  35  63  85 126 158 207 238 311 355
#     4  11  17  30  57  97 127 161 190 253 295 368
#     4   9  17  31  53  98 124 156 188 253 296 368
#
# _framework density 21.843119999999999
#
# number of rings (size 3 to 8) (size 9 to 14) (size 15 to 20)
#    0.000    1.600    2.667    4.400    0.000    2.667 
#    0.000    0.000    0.000    1.600    0.000    0.000 
#    0.000    0.000    0.000    0.000    0.000    0.000 
#
# Total GULP energy -372018.462717 kJ/mol
# GULP energy per Si atom -12400.615424 kJ/mol
# Density = 2.179340 g / cm^3
# Si number density = 21.843120 Si / 1000 Ang^3
#
#
#
# Elastic Constant Matrix: (Units=GPa)
#
#
# Indices 1 2 3 4 5 6 
#
# 1 120.9626 50.5178 30.1912 0.0000 0.0000 0.0000
# 2 50.5178 122.1641 35.2612 0.0000 0.0000 0.0000
# 3 30.1912 35.2612 59.3306 0.0000 0.0000 0.0000
# 4 0.0000 0.0000 0.0000 33.6398 0.0000 0.0000
# 5 0.0000 0.0000 0.0000 0.0000 74.2454 0.0000
# 6 0.0000 0.0000 0.0000 0.0000 0.0000 49.8848
#
#
#
# Elastic Compliance Matrix: (Units=1/GPa)
#
#
# Indices 1 2 3 4 5 6 
#
# 1 0.010514 -0.003384 -0.003339 0.000000 0.000000 0.000000
# 2 -0.003384 0.010970 -0.004798 0.000000 0.000000 0.000000
# 3 -0.003339 -0.004798 0.021405 0.000000 0.000000 0.000000
# 4 0.000000 0.000000 0.000000 0.029727 0.000000 0.000000
# 5 0.000000 0.000000 0.000000 0.000000 0.013469 0.000000
# 6 0.000000 0.000000 0.000000 0.000000 0.000000 0.020046
#
#
# Mechanical properties :
#
#
# Convention : Reuss Voigt Hill
#
# Bulk Modulus (GPa) = 50.38369 59.37751 54.88060
# Shear Modulus (GPa) = 36.82243 43.98648 40.40445
#
# Velocity S-wave (km/s) = 4.11026 4.49235 4.30555
# Velocity P-wave (km/s) = 6.75588 7.35873 7.06374
#
# Compressibility (1/GPa) = 0.01984769
#
# Stress axis : x y z
#
# Youngs Moduli (GPa) = 95.11500 91.15941 46.71795
#
# Poissons Ratio (x) = 0.30847 0.15599
# Poissons Ratio (y) = 0.32186 0.22413
# Poissons Ratio (z) = 0.31758 0.43735
#
# Static dielectric constant tensor:
#      x y z
#    x 3.941400 0.000000 0.000000 
#    y 0.000000 4.050630 0.000000 
#    z 0.000000 0.000000 3.456040 
# 
# 
# High freq. dielectric constant tensor:
#      x y z
#    x 1.869970 0.000000 0.000000 
#    y 0.000000 1.868720 0.000000 
#    z 0.000000 0.000000 1.821510 
# 
# From -- ./inp_files/27556.got.cif
#   From: 2010.03.12/outbox.cif.g09.slc.cpg/sg72_14_cif.got.tgz:27556.got - 2010.04.16 14:54:00.
