data_PCOD8294315
_publ_section_title
;
Structure prediction by ZEFSAII (Michael W. Deem and Ramdas Pophale) SiO2 
 PCOD8294315
Probable space group: I B A M
;
_chemical_formula_sum "Si O2"
_cell_formula_units_Z 80
_cell_length_a 24.402807
_cell_length_b 10.257763
_cell_length_c 16.221186
_cell_angle_alpha 90.000000
_cell_angle_beta 90.000000
_cell_angle_gamma 90.000000
_cell_volume 4060.458256
_symmetry_space_group_name_H-M "I B A M"
_symmetry_group_IT_number 72
_symmetry_cell_setting 'orthorhombic'
loop_
_space_group_symop_operation_xyz
x,y,z
-x,-y,z
x,-y,1/2-z
-x,y,1/2-z
-x,-y,-z
x,y,-z
-x,y,1/2+z
x,-y,1/2+z
1/2+x,1/2+y,1/2+z
1/2-x,1/2-y,1/2+z
1/2+x,1/2-y,-z
1/2-x,1/2+y,-z
1/2-x,1/2-y,1/2-z
1/2+x,1/2+y,1/2-z
1/2-x,1/2+y,z
1/2+x,1/2-y,z
loop_
_atom_site_type_symbol
_atom_site_label
_atom_site_fract_x
_atom_site_fract_y
_atom_site_fract_z
Si Si1 0.344760 0.476746 0.402639
Si Si2 0.142784 0.275522 0.597634
Si Si3 0.257990 0.876917 0.694970
Si Si4 0.975843 0.634906 0.598292
Si Si5 0.037782 0.114482 0.097926
O O1 0.335053 0.467815 0.500000
O O2 0.349743 0.626244 0.373349
O O3 0.296234 0.402604 0.357483
O O4 0.399759 0.403338 0.374280
O O5 0.144611 0.283253 0.500000
O O6 0.191752 0.361343 0.632770
O O7 0.085454 0.334930 0.630569
O O8 0.250000 0.750000 0.750000
O O9 0.272691 0.000000 0.750000
O O10 0.975380 0.631451 0.500000
O O11 0.000000 0.500000 0.634232
O O12 0.016124 0.747649 0.631311
O O13 0.033460 0.108602 0.000000
O O14 0.000000 0.000000 0.135446
#
# Coordination Sequence:
#
# PCOD8294315 Si02
#       5
#    16  16  16  16  16
#     4  10  20  37  63  91 117 151 202 249 289 351
#     4  10  20  38  63  89 119 154 197 249 295 346
#     4  12  25  42  60  83 119 162 201 246 300 353
#     4   9  17  30  53  89 123 147 181 238 301 351
#     4   9  15  28  55  87 115 146 184 236 296 349
#
# _framework density 19.702210000000001
#
# number of rings (size 3 to 8) (size 9 to 14) (size 15 to 20)
#    0.000    2.000    4.000    0.600    0.000    1.600 
#    0.000    2.000    0.000    7.200    0.000    0.000 
#    0.000    0.000    0.000    0.000    0.000    0.000 
#
# Total GULP energy -496015.661460 kJ/mol
# GULP energy per Si atom -12400.391536 kJ/mol
# Density = 1.965737 g / cm^3
# Si number density = 19.702210 Si / 1000 Ang^3
#
#
#
# Elastic Constant Matrix: (Units=GPa)
#
#
# Indices 1 2 3 4 5 6 
#
# 1 205.7553 103.1558 39.5608 0.0000 0.0000 0.0000
# 2 103.1558 176.2622 32.4450 0.0000 0.0000 0.0000
# 3 39.5608 32.4450 23.4298 0.0000 0.0000 0.0000
# 4 0.0000 0.0000 0.0000 25.3859 0.0000 0.0000
# 5 0.0000 0.0000 0.0000 0.0000 -0.9826 0.0000
# 6 0.0000 0.0000 0.0000 0.0000 0.0000 44.4923
#
#
#
# Elastic Compliance Matrix: (Units=1/GPa)
#
#
# Indices 1 2 3 4 5 6 
#
# 1 0.008255 -0.003040 -0.009728 0.000000 0.000000 0.000000
# 2 -0.003040 0.008734 -0.006961 0.000000 0.000000 0.000000
# 3 -0.009728 -0.006961 0.068745 0.000000 0.000000 0.000000
# 4 0.000000 0.000000 0.000000 0.039392 0.000000 0.000000
# 5 0.000000 0.000000 0.000000 0.000000 -1.017699 0.000000
# 6 0.000000 0.000000 0.000000 0.000000 0.000000 0.022476
#
#
# Mechanical properties :
#
#
# Convention : Reuss Voigt Hill
#
# Bulk Modulus (GPa) = 21.60964 83.97448 52.79206
# Shear Modulus (GPa) = -6.13336 29.13150 11.49907
#
# Velocity S-wave (km/s) = -1.76629 3.84942 2.41849
# Velocity P-wave (km/s) = 2.61385 7.90391 5.88659
#
# Compressibility (1/GPa) = 0.04627564
#
# Stress axis : x y z
#
# Youngs Moduli (GPa) = 121.14074 114.49396 14.54648
#
# Poissons Ratio (x) = 0.34811 0.14151
# Poissons Ratio (y) = 0.36832 0.10126
# Poissons Ratio (z) = 1.17844 0.79699
#
# Static dielectric constant tensor:
#      x y z
#    x 3.808840 0.000000 0.000000 
#    y 0.000000 3.825550 0.000000 
#    z 0.000000 0.000000 3.178750 
# 
# 
# High freq. dielectric constant tensor:
#      x y z
#    x 1.783120 0.000000 0.000000 
#    y 0.000000 1.775460 0.000000 
#    z 0.000000 0.000000 1.733950 
# 
# From -- ./inp_files/33749.got.cif
#   From: 2010.03.12/outbox.cif.g09.slc.cpg/sg72_17_cif.got.tgz:33749.got - 2010.04.16 14:54:00.
