data_PCOD8294206
_publ_section_title
;
Structure prediction by ZEFSAII (Michael W. Deem and Ramdas Pophale) SiO2 
 PCOD8294206
Probable space group: I B A M
;
_chemical_formula_sum "Si O2"
_cell_formula_units_Z 116
_cell_length_a 20.986310
_cell_length_b 26.848089
_cell_length_c 9.398057
_cell_angle_alpha 90.000000
_cell_angle_beta 90.000000
_cell_angle_gamma 90.000000
_cell_volume 5295.263027
_symmetry_space_group_name_H-M "I B A M"
_symmetry_group_IT_number 72
_symmetry_cell_setting 'orthorhombic'
loop_
_space_group_symop_operation_xyz
x,y,z
-x,-y,z
x,-y,1/2-z
-x,y,1/2-z
-x,-y,-z
x,y,-z
-x,y,1/2+z
x,-y,1/2+z
1/2+x,1/2+y,1/2+z
1/2-x,1/2-y,1/2+z
1/2+x,1/2-y,-z
1/2-x,1/2+y,-z
1/2-x,1/2-y,1/2-z
1/2+x,1/2+y,1/2-z
1/2-x,1/2+y,z
1/2+x,1/2-y,z
loop_
_atom_site_type_symbol
_atom_site_label
_atom_site_fract_x
_atom_site_fract_y
_atom_site_fract_z
Si Si1 0.000000 0.500000 0.750000
Si Si2 0.742724 0.326295 0.337994
Si Si3 0.096082 0.417410 0.340028
Si Si4 0.620420 0.729386 0.838972
Si Si5 0.937068 0.877024 0.335811
Si Si6 0.262803 0.081043 0.157298
Si Si7 0.391586 0.179648 0.336600
Si Si8 0.132409 0.954647 0.661799
O O1 0.045928 0.462937 0.662868
O O2 0.723516 0.337868 0.500000
O O3 0.692561 0.284248 0.283629
O O4 0.733144 0.376978 0.255452
O O5 0.816111 0.311824 0.321643
O O6 0.095069 0.396367 0.500000
O O7 0.166631 0.438020 0.296362
O O8 0.081120 0.371068 0.234767
O O9 0.575865 0.681443 0.829572
O O10 0.584064 0.771155 0.744285
O O11 0.624560 0.749908 0.000000
O O12 0.941499 0.895148 0.500000
O O13 0.881599 0.904710 0.249659
O O14 0.000000 0.890811 0.250000
O O15 0.209614 0.037725 0.157191
O O16 0.269400 0.104355 0.000000
O O17 0.414222 0.178653 0.500000
O O18 0.105411 0.952798 0.500000
O O19 0.101412 0.000000 0.750000
#
# Coordination Sequence:
#
# PCOD8294206 Si02
#       8
#     4  16  16  16  16  16  16  16
#     4  12  26  44  76  98 122 172 226 274 320 388
#     4   9  17  32  56  89 127 165 205 252 313 381
#     4  10  23  44  66  92 127 166 211 263 322 381
#     4  10  20  36  60  89 126 170 207 254 317 378
#     4  11  24  43  65  90 124 167 215 264 316 380
#     4   9  19  36  60  91 126 163 206 261 319 379
#     4  10  21  36  60  95 129 164 209 260 312 377
#     4  11  23  39  63  94 127 164 208 260 318 375
#
# _framework density 21.906372999999999
#
# number of rings (size 3 to 8) (size 9 to 14) (size 15 to 20)
#    0.000    1.931    1.379    1.862    0.966    4.138 
#    1.241    1.379    0.000    0.000    0.000    0.000 
#    0.000    0.000    0.000    0.000    0.000    0.000 
#
# Total GULP energy -718604.464658 kJ/mol
# GULP energy per Si atom -12389.732149 kJ/mol
# Density = 2.185651 g / cm^3
# Si number density = 21.906373 Si / 1000 Ang^3
#
#
#
# Elastic Constant Matrix: (Units=GPa)
#
#
# Indices 1 2 3 4 5 6 
#
# 1 76.1063 29.9343 31.9743 0.0000 0.0000 0.0000
# 2 29.9343 106.6844 65.7942 0.0000 0.0000 0.0000
# 3 31.9743 65.7942 143.2109 0.0000 0.0000 0.0000
# 4 0.0000 0.0000 0.0000 36.2914 0.0000 0.0000
# 5 0.0000 0.0000 0.0000 0.0000 19.9827 0.0000
# 6 0.0000 0.0000 0.0000 0.0000 0.0000 30.1257
#
#
#
# Elastic Compliance Matrix: (Units=1/GPa)
#
#
# Indices 1 2 3 4 5 6 
#
# 1 0.015168 -0.003024 -0.001997 0.000000 0.000000 0.000000
# 2 -0.003024 0.013682 -0.005611 0.000000 0.000000 0.000000
# 3 -0.001997 -0.005611 0.010006 0.000000 0.000000 0.000000
# 4 0.000000 0.000000 0.000000 0.027555 0.000000 0.000000
# 5 0.000000 0.000000 0.000000 0.000000 0.050043 0.000000
# 6 0.000000 0.000000 0.000000 0.000000 0.000000 0.033194
#
#
# Mechanical properties :
#
#
# Convention : Reuss Voigt Hill
#
# Bulk Modulus (GPa) = 56.84279 64.60078 60.72179
# Shear Modulus (GPa) = 28.28417 30.49987 29.39202
#
# Velocity S-wave (km/s) = 3.59714 3.73538 3.66691
# Velocity P-wave (km/s) = 6.57700 6.93957 6.76072
#
# Compressibility (1/GPa) = 0.01759238
#
# Stress axis : x y z
#
# Youngs Moduli (GPa) = 65.92791 73.08743 99.93734
#
# Poissons Ratio (x) = 0.22104 0.19958
# Poissons Ratio (y) = 0.19939 0.56072
# Poissons Ratio (z) = 0.13166 0.41007
#
# Static dielectric constant tensor:
#      x y z
#    x 3.895630 0.000000 0.000000 
#    y 0.000000 3.598710 0.000000 
#    z 0.000000 0.000000 4.007580 
# 
# 
# High freq. dielectric constant tensor:
#      x y z
#    x 1.859800 0.000000 0.000000 
#    y 0.000000 1.843940 0.000000 
#    z 0.000000 0.000000 1.863690 
# 
# From -- ./inp_files/7262.got.cif
#   From: 2010.03.12/outbox.cif.g09.slc.cpg/sg72_4_cif.got.tgz:7262.got - 2010.04.16 14:54:00.
