data_PCOD8294518
_publ_section_title
;
Structure prediction by ZEFSAII (Michael W. Deem and Ramdas Pophale) SiO2 
 PCOD8294518
Probable space group: I B A M
;
_chemical_formula_sum "Si O2"
_cell_formula_units_Z 112
_cell_length_a 15.753170
_cell_length_b 25.717061
_cell_length_c 15.030873
_cell_angle_alpha 90.000000
_cell_angle_beta 90.000000
_cell_angle_gamma 90.000000
_cell_volume 6089.385939
_symmetry_space_group_name_H-M "I B A M"
_symmetry_group_IT_number 72
_symmetry_cell_setting 'orthorhombic'
loop_
_space_group_symop_operation_xyz
x,y,z
-x,-y,z
x,-y,1/2-z
-x,y,1/2-z
-x,-y,-z
x,y,-z
-x,y,1/2+z
x,-y,1/2+z
1/2+x,1/2+y,1/2+z
1/2-x,1/2-y,1/2+z
1/2+x,1/2-y,-z
1/2-x,1/2+y,-z
1/2-x,1/2-y,1/2-z
1/2+x,1/2+y,1/2-z
1/2-x,1/2+y,z
1/2+x,1/2-y,z
loop_
_atom_site_type_symbol
_atom_site_label
_atom_site_fract_x
_atom_site_fract_y
_atom_site_fract_z
Si Si1 1.000000 0.941207 0.394660
Si Si2 0.662440 0.059535 0.399177
Si Si3 0.738689 0.689020 0.750000
Si Si4 0.593006 0.873141 0.750000
Si Si5 0.666828 0.619336 0.397614
Si Si6 0.837560 0.559535 0.100823
Si Si7 0.666828 0.380664 0.397614
O O1 0.000000 0.945710 0.500000
O O2 0.082149 0.909089 0.362444
O O3 0.917851 0.909089 0.362445
O O4 0.000000 0.000000 0.354525
O O5 0.632138 0.068030 0.500000
O O6 0.599387 0.091540 0.337502
O O7 0.759171 0.077335 0.386276
O O8 0.658021 0.000000 0.370511
O O9 0.750000 0.750000 0.750000
O O10 0.835388 0.670177 0.750000
O O11 0.687777 0.669642 0.662653
O O12 0.687777 0.669642 0.837347
O O13 0.500000 0.846636 0.750000
O O14 0.599387 0.908460 0.662498
O O15 0.657607 0.638027 0.500000
O O16 0.740829 0.577335 0.113723
O O17 0.867863 0.568030 0.000000
O O18 0.657607 0.361973 0.500000
#
# Coordination Sequence:
#
# PCOD8294518 Si02
#       7
#    16  16  16  16  16  16  16
#     4   9  16  29  53  85 120 149 169 202 259 325
#     4   9  17  30  50  75 105 140 169 195 239 301
#     4  10  22  40  56  73  93 133 181 224 270 307
#     4  10  21  36  51  71  99 128 165 215 259 298
#     4   9  18  33  53  78 109 139 172 211 253 310
#     4   9  17  30  50  75 105 140 169 195 239 301
#     4   9  18  33  53  78 109 139 172 211 253 310
#
# _framework density 18.392658000000001
#
# number of rings (size 3 to 8) (size 9 to 14) (size 15 to 20)
#    0.000    2.714    0.000    1.286    0.000    6.286 
#    2.571    4.286    0.000    0.000    0.000    0.000 
#    0.000    0.000    0.000    0.000    0.000    0.000 
#
# Total GULP energy -694314.872745 kJ/mol
# GULP energy per Si atom -12398.479870 kJ/mol
# Density = 1.835080 g / cm^3
# Si number density = 18.392658 Si / 1000 Ang^3
#
#
#
# Elastic Constant Matrix: (Units=GPa)
#
#
# Indices 1 2 3 4 5 6 
#
# 1 123.7911 52.6453 40.4070 0.0000 0.0000 0.0000
# 2 52.6453 144.1700 56.7143 -0.0002 0.0000 0.0000
# 3 40.4070 56.7143 92.2954 -0.0002 0.0000 0.0000
# 4 0.0000 -0.0002 -0.0002 21.7756 0.0000 0.0000
# 5 0.0000 0.0000 0.0000 0.0000 17.8928 0.0000
# 6 0.0000 0.0000 0.0000 0.0000 0.0000 17.4995
#
#
#
# Elastic Compliance Matrix: (Units=1/GPa)
#
#
# Indices 1 2 3 4 5 6 
#
# 1 0.010099 -0.002570 -0.002842 0.000000 0.000000 0.000000
# 2 -0.002570 0.009801 -0.004898 0.000000 0.000000 0.000000
# 3 -0.002842 -0.004898 0.015089 0.000000 0.000000 0.000000
# 4 0.000000 0.000000 0.000000 0.045923 0.000000 0.000000
# 5 0.000000 0.000000 0.000000 0.000000 0.055888 0.000000
# 6 0.000000 0.000000 0.000000 0.000000 0.000000 0.057144
#
#
# Mechanical properties :
#
#
# Convention : Reuss Voigt Hill
#
# Bulk Modulus (GPa) = 69.59193 73.30995 71.45094
# Shear Modulus (GPa) = 22.79428 25.46626 24.13027
#
# Velocity S-wave (km/s) = 3.52421 3.72504 3.62602
# Velocity P-wave (km/s) = 7.38099 7.64500 7.51415
#
# Compressibility (1/GPa) = 0.01436948
#
# Stress axis : x y z
#
# Youngs Moduli (GPa) = 99.02332 102.02757 66.27455
#
# Poissons Ratio (x) = 0.26216 0.18837
# Poissons Ratio (y) = 0.25444 0.32460
# Poissons Ratio (z) = 0.28145 0.49971
#
# Static dielectric constant tensor:
#      x y z
#    x 3.387900 0.000000 0.000000 
#    y 0.000000 3.068940 0.000000 
#    z 0.000000 0.000000 3.898410 
# 
# 
# High freq. dielectric constant tensor:
#      x y z
#    x 1.715510 0.000000 0.000000 
#    y 0.000000 1.682640 0.000000 
#    z 0.000000 0.000000 1.721600 
# 
# From -- ./inp_files/22276.got.cif
#   From: 2010.03.12/outbox.cif.g09.slc.cpg/sg72_12_cif.got.tgz:22276.got - 2010.04.16 14:54:00.
