data_PCOD8294674
_publ_section_title
;
Structure prediction by ZEFSAII (Michael W. Deem and Ramdas Pophale) SiO2 
 PCOD8294674
Probable space group: I B A M
;
_chemical_formula_sum "Si O2"
_cell_formula_units_Z 64
_cell_length_a 8.252012
_cell_length_b 14.634100
_cell_length_c 25.293045
_cell_angle_alpha 90.000000
_cell_angle_beta 90.000000
_cell_angle_gamma 90.000000
_cell_volume 3054.407560
_symmetry_space_group_name_H-M "I B A M"
_symmetry_group_IT_number 72
_symmetry_cell_setting 'orthorhombic'
loop_
_space_group_symop_operation_xyz
x,y,z
-x,-y,z
x,-y,1/2-z
-x,y,1/2-z
-x,-y,-z
x,y,-z
-x,y,1/2+z
x,-y,1/2+z
1/2+x,1/2+y,1/2+z
1/2-x,1/2-y,1/2+z
1/2+x,1/2-y,-z
1/2-x,1/2+y,-z
1/2-x,1/2-y,1/2-z
1/2+x,1/2+y,1/2-z
1/2-x,1/2+y,z
1/2+x,1/2-y,z
loop_
_atom_site_type_symbol
_atom_site_label
_atom_site_fract_x
_atom_site_fract_y
_atom_site_fract_z
Si Si1 0.090768 0.093945 0.057976
Si Si2 0.315806 0.027454 0.144824
Si Si3 0.699421 0.695699 0.697932
Si Si4 0.377876 0.343318 0.146801
O O1 0.254695 0.076604 0.091150
O O2 0.969671 0.160092 0.090541
O O3 0.131312 0.136335 0.000000
O O4 0.000000 0.000000 0.049237
O O5 0.298850 0.100418 0.192803
O O6 0.500000 0.000000 0.136764
O O7 0.204875 0.940591 0.158158
O O8 0.750000 0.750000 0.750000
O O9 0.508391 0.674050 0.694036
O O10 0.746076 0.762661 0.648712
#
# Coordination Sequence:
#
# PCOD8294674 Si02
#       4
#    16  16  16  16
#     4   8  16  34  59  85 116 154 193 239 298 360
#     4  10  21  38  60  88 122 157 200 255 307 364
#     4  11  22  38  59  84 118 160 203 251 305 363
#     4  10  21  38  59  87 120 156 200 251 303 362
#
# _framework density 20.953327999999999
#
# number of rings (size 3 to 8) (size 9 to 14) (size 15 to 20)
#    0.000    2.250    0.000    4.500    0.000    1.500 
#    0.000   13.750    0.000    6.000    0.000    0.000 
#    0.000    0.000    0.000    0.000    0.000    0.000 
#
# Total GULP energy -396585.598029 kJ/mol
# GULP energy per Si atom -12393.299938 kJ/mol
# Density = 2.090564 g / cm^3
# Si number density = 20.953328 Si / 1000 Ang^3
#
#
#
# Elastic Constant Matrix: (Units=GPa)
#
#
# Indices 1 2 3 4 5 6 
#
# 1 132.5798 56.7707 61.9291 0.0000 0.0000 0.0000
# 2 56.7707 126.7392 48.1055 0.0000 0.0000 0.0000
# 3 61.9291 48.1055 107.3833 0.0000 0.0000 0.0000
# 4 0.0000 0.0000 0.0000 25.7473 0.0000 0.0000
# 5 0.0000 0.0000 0.0000 0.0000 17.3175 0.0000
# 6 0.0000 0.0000 0.0000 0.0000 0.0000 45.2356
#
#
#
# Elastic Compliance Matrix: (Units=1/GPa)
#
#
# Indices 1 2 3 4 5 6 
#
# 1 0.011254 -0.003106 -0.005099 0.000000 0.000000 0.000000
# 2 -0.003106 0.010364 -0.002852 0.000000 0.000000 0.000000
# 3 -0.005099 -0.002852 0.013531 0.000000 0.000000 0.000000
# 4 0.000000 0.000000 0.000000 0.038839 0.000000 0.000000
# 5 0.000000 0.000000 0.000000 0.000000 0.057745 0.000000
# 6 0.000000 0.000000 0.000000 0.000000 0.000000 0.022106
#
#
# Mechanical properties :
#
#
# Convention : Reuss Voigt Hill
#
# Bulk Modulus (GPa) = 76.71276 77.81254 77.26265
# Shear Modulus (GPa) = 27.73187 30.98654 29.35920
#
# Velocity S-wave (km/s) = 3.64195 3.84974 3.74728
# Velocity P-wave (km/s) = 7.37399 7.54834 7.46167
#
# Compressibility (1/GPa) = 0.01303564
#
# Stress axis : x y z
#
# Youngs Moduli (GPa) = 88.85419 96.49006 73.90606
#
# Poissons Ratio (x) = 0.29967 0.37686
# Poissons Ratio (y) = 0.27596 0.21075
# Poissons Ratio (z) = 0.45309 0.27516
#
# Static dielectric constant tensor:
#      x y z
#    x 3.909350 0.000000 0.000000 
#    y 0.000000 3.992820 0.000000 
#    z 0.000000 0.000000 4.008150 
# 
# 
# High freq. dielectric constant tensor:
#      x y z
#    x 1.823120 0.000000 0.000000 
#    y 0.000000 1.821630 0.000000 
#    z 0.000000 0.000000 1.805650 
# 
# From -- ./inp_files/43914.got.cif
#   From: 2010.03.12/outbox.cif.g09.slc.cpg/sg72_22_cif.got.tgz:43914.got - 2010.04.16 14:54:00.
