data_PCOD8294920
_publ_section_title
;
Structure prediction by ZEFSAII (Michael W. Deem and Ramdas Pophale) SiO2 
 PCOD8294920
Probable space group: I B A M
;
_chemical_formula_sum "Si O2"
_cell_formula_units_Z 112
_cell_length_a 12.690531
_cell_length_b 13.385522
_cell_length_c 30.474402
_cell_angle_alpha 90.000000
_cell_angle_beta 90.000000
_cell_angle_gamma 90.000000
_cell_volume 5176.667831
_symmetry_space_group_name_H-M "I B A M"
_symmetry_group_IT_number 72
_symmetry_cell_setting 'orthorhombic'
loop_
_space_group_symop_operation_xyz
x,y,z
-x,-y,z
x,-y,1/2-z
-x,y,1/2-z
-x,-y,-z
x,y,-z
-x,y,1/2+z
x,-y,1/2+z
1/2+x,1/2+y,1/2+z
1/2-x,1/2-y,1/2+z
1/2+x,1/2-y,-z
1/2-x,1/2+y,-z
1/2-x,1/2-y,1/2-z
1/2+x,1/2+y,1/2-z
1/2-x,1/2+y,z
1/2+x,1/2-y,z
loop_
_atom_site_type_symbol
_atom_site_label
_atom_site_fract_x
_atom_site_fract_y
_atom_site_fract_z
Si Si1 0.602493 0.254218 0.776724
Si Si2 0.136926 0.791064 0.108537
Si Si3 0.704773 0.905942 0.549365
Si Si4 0.709480 0.368041 0.300308
Si Si5 0.442513 0.734505 0.950844
Si Si6 0.262614 0.393481 0.415889
Si Si7 0.609260 0.554675 0.667860
O O1 0.500000 0.214651 0.750000
O O2 0.671728 0.318224 0.743873
O O3 0.664949 0.161133 0.799868
O O4 0.579359 0.335393 0.814584
O O5 0.207219 0.867261 0.081890
O O6 0.143670 0.820785 0.159349
O O7 0.175827 0.678128 0.105077
O O8 0.020035 0.798117 0.088187
O O9 0.743206 0.886010 0.500000
O O10 0.593776 0.849336 0.557387
O O11 0.694746 0.023948 0.558051
O O12 0.685689 0.487383 0.300196
O O13 0.338525 0.665404 0.949272
O O14 0.492130 0.723657 0.000000
O O15 0.331855 0.442013 0.378000
O O16 0.500000 0.500000 0.660067
#
# Coordination Sequence:
#
# PCOD8294920 Si02
#       7
#    16  16  16  16  16  16  16
#     4  11  24  41  66  97 127 168 209 266 321 385
#     4  11  22  41  61  89 128 171 207 266 328 388
#     4  10  22  39  60  90 124 166 218 270 323 380
#     4  11  23  39  64  96 129 161 214 265 321 382
#     4  10  23  40  62  91 127 172 221 270 329 393
#     4  11  23  39  64  92 127 162 215 272 326 383
#     4  12  22  40  67  98 125 170 218 263 319 395
#
# _framework density 21.635539000000001
#
# number of rings (size 3 to 8) (size 9 to 14) (size 15 to 20)
#    0.000    1.143    4.286    2.143    0.000    2.286 
#    0.000    2.857    0.000    6.857    0.000    0.000 
#    0.000    0.000    0.000    0.000    0.000    0.000 
#
# Total GULP energy -694092.500451 kJ/mol
# GULP energy per Si atom -12394.508937 kJ/mol
# Density = 2.158630 g / cm^3
# Si number density = 21.635539 Si / 1000 Ang^3
#
#
#
# Elastic Constant Matrix: (Units=GPa)
#
#
# Indices 1 2 3 4 5 6 
#
# 1 44.2747 20.0701 4.2044 0.0000 0.0000 0.0000
# 2 20.0701 66.3127 -0.9172 0.0000 0.0000 0.0000
# 3 4.2044 -0.9172 69.7852 0.0000 0.0000 0.0000
# 4 0.0000 0.0000 0.0000 19.4650 0.0000 0.0000
# 5 0.0000 0.0000 0.0000 0.0000 58.0006 0.0000
# 6 0.0000 0.0000 0.0000 0.0000 0.0000 18.0235
#
#
#
# Elastic Compliance Matrix: (Units=1/GPa)
#
#
# Indices 1 2 3 4 5 6 
#
# 1 0.026377 -0.008007 -0.001694 0.000000 0.000000 0.000000
# 2 -0.008007 0.017513 0.000713 0.000000 0.000000 0.000000
# 3 -0.001694 0.000713 0.014441 0.000000 0.000000 0.000000
# 4 0.000000 0.000000 0.000000 0.051374 0.000000 0.000000
# 5 0.000000 0.000000 0.000000 0.000000 0.017241 0.000000
# 6 0.000000 0.000000 0.000000 0.000000 0.000000 0.055483
#
#
# Mechanical properties :
#
#
# Convention : Reuss Voigt Hill
#
# Bulk Modulus (GPa) = 24.78055 25.23191 25.00623
# Shear Modulus (GPa) = 23.38008 29.56553 26.47280
#
# Velocity S-wave (km/s) = 3.29086 3.70067 3.50176
# Velocity P-wave (km/s) = 5.09099 5.47243 5.28515
#
# Compressibility (1/GPa) = 0.04035422
#
# Stress axis : x y z
#
# Youngs Moduli (GPa) = 37.91241 57.09992 69.24666
#
# Poissons Ratio (x) = 0.45717 0.11733
# Poissons Ratio (y) = 0.30355 -0.04934
# Poissons Ratio (z) = 0.06424 -0.04069
#
# Static dielectric constant tensor:
#      x y z
#    x 3.915920 0.000000 0.000000 
#    y 0.000000 4.265260 0.000000 
#    z 0.000000 0.000000 3.950930 
# 
# 
# High freq. dielectric constant tensor:
#      x y z
#    x 1.834350 0.000000 0.000000 
#    y 0.000000 1.848020 0.000000 
#    z 0.000000 0.000000 1.861020 
# 
# From -- ./inp_files/51758.got.cif
#   From: 2010.03.12/outbox.cif.g09.slc.cpg/sg72_26_cif.got.tgz:51758.got - 2010.04.16 14:54:00.
