data_PCOD8294451
_publ_section_title
;
Structure prediction by ZEFSAII (Michael W. Deem and Ramdas Pophale) SiO2 
 PCOD8294451
Probable space group: I B A M
;
_chemical_formula_sum "Si O2"
_cell_formula_units_Z 80
_cell_length_a 26.665996
_cell_length_b 10.447957
_cell_length_c 15.831992
_cell_angle_alpha 90.000000
_cell_angle_beta 90.000000
_cell_angle_gamma 90.000000
_cell_volume 4410.874974
_symmetry_space_group_name_H-M "I B A M"
_symmetry_group_IT_number 72
_symmetry_cell_setting 'orthorhombic'
loop_
_space_group_symop_operation_xyz
x,y,z
-x,-y,z
x,-y,1/2-z
-x,y,1/2-z
-x,-y,-z
x,y,-z
-x,y,1/2+z
x,-y,1/2+z
1/2+x,1/2+y,1/2+z
1/2-x,1/2-y,1/2+z
1/2+x,1/2-y,-z
1/2-x,1/2+y,-z
1/2-x,1/2-y,1/2-z
1/2+x,1/2+y,1/2-z
1/2-x,1/2+y,z
1/2+x,1/2-y,z
loop_
_atom_site_type_symbol
_atom_site_label
_atom_site_fract_x
_atom_site_fract_y
_atom_site_fract_z
Si Si1 0.207708 0.498649 0.500000
Si Si2 0.204331 0.205241 0.000000
Si Si3 0.865299 0.494921 0.155446
Si Si4 0.985044 0.863958 0.153573
Si Si5 0.388920 0.263338 0.593773
Si Si6 0.463005 0.110520 0.097035
O O1 0.225309 0.647864 0.500000
O O2 0.254146 0.402637 0.500000
O O3 0.176928 0.467716 0.414954
O O4 0.168780 0.186593 0.916530
O O5 0.841731 0.500000 0.250000
O O6 0.891457 0.630042 0.141210
O O7 0.910339 0.391284 0.148565
O O8 0.924495 0.859289 0.145011
O O9 0.000000 0.856206 0.250000
O O10 0.011609 0.748946 0.104511
O O11 0.000000 0.000000 0.113325
O O12 0.411771 0.241150 0.500000
O O13 0.500000 0.000000 0.132312
O O14 0.449809 0.082587 0.000000
#
# Coordination Sequence:
#
# PCOD8294451 Si02
#       6
#     8   8  16  16  16  16
#     4  10  20  44  58  91 108 155 196 256 301 366
#     4   8  20  38  70  72 120 145 198 253 297 352
#     4  11  20  35  62  88 119 151 196 255 303 349
#     4  11  23  36  53  83 128 162 199 236 291 365
#     4   9  18  38  59  80 112 166 191 233 309 355
#     4  11  21  33  56  87 114 152 203 240 277 364
#
# _framework density 18.136990000000001
#
# number of rings (size 3 to 8) (size 9 to 14) (size 15 to 20)
#    0.600    1.200    4.000    1.800    0.000    1.600 
#    3.600    4.000    4.400    0.000    0.000    0.000 
#    0.000    0.000    0.000    0.000    0.000    0.000 
#
# Total GULP energy -495658.269693 kJ/mol
# GULP energy per Si atom -12391.456742 kJ/mol
# Density = 1.809571 g / cm^3
# Si number density = 18.136990 Si / 1000 Ang^3
#
#
#
# Elastic Constant Matrix: (Units=GPa)
#
#
# Indices 1 2 3 4 5 6 
#
# 1 124.5776 72.2697 39.1812 0.0000 0.0000 0.0000
# 2 72.2697 123.8282 22.1713 0.0000 0.0000 0.0000
# 3 39.1812 22.1713 101.3342 0.0000 0.0000 0.0000
# 4 0.0000 0.0000 0.0000 13.8807 0.0000 0.0000
# 5 0.0000 0.0000 0.0000 0.0000 18.2786 0.0000
# 6 0.0000 0.0000 0.0000 0.0000 0.0000 35.2923
#
#
#
# Elastic Compliance Matrix: (Units=1/GPa)
#
#
# Indices 1 2 3 4 5 6 
#
# 1 0.013276 -0.007107 -0.003578 0.000000 0.000000 0.000000
# 2 -0.007107 0.012210 0.000077 0.000000 0.000000 0.000000
# 3 -0.003578 0.000077 0.011235 0.000000 0.000000 0.000000
# 4 0.000000 0.000000 0.000000 0.072042 0.000000 0.000000
# 5 0.000000 0.000000 0.000000 0.000000 0.054709 0.000000
# 6 0.000000 0.000000 0.000000 0.000000 0.000000 0.028335
#
#
# Mechanical properties :
#
#
# Convention : Reuss Voigt Hill
#
# Bulk Modulus (GPa) = 64.50311 68.55381 66.52846
# Shear Modulus (GPa) = 22.91562 27.89818 25.40690
#
# Velocity S-wave (km/s) = 3.55839 3.92623 3.74683
# Velocity P-wave (km/s) = 7.24738 7.64419 7.44843
#
# Compressibility (1/GPa) = 0.01550313
#
# Stress axis : x y z
#
# Youngs Moduli (GPa) = 75.32635 81.89966 89.00740
#
# Poissons Ratio (x) = 0.58209 0.31847
# Poissons Ratio (y) = 0.53537 -0.00682
# Poissons Ratio (z) = 0.26952 -0.00627
#
# Static dielectric constant tensor:
#      x y z
#    x 3.214390 0.000000 0.000000 
#    y 0.000000 3.390630 0.000000 
#    z 0.000000 0.000000 3.318040 
# 
# 
# High freq. dielectric constant tensor:
#      x y z
#    x 1.688860 0.000000 0.000000 
#    y 0.000000 1.691120 0.000000 
#    z 0.000000 0.000000 1.698620 
# 
# From -- ./inp_files/25804.got.cif
#   From: 2010.03.12/outbox.cif.g09.slc.cpg/sg72_13_cif.got.tgz:25804.got - 2010.04.16 14:54:00.
