data_PCOD8294907
_publ_section_title
;
Structure prediction by ZEFSAII (Michael W. Deem and Ramdas Pophale) SiO2 
 PCOD8294907
Probable space group: I B A M
;
_chemical_formula_sum "Si O2"
_cell_formula_units_Z 92
_cell_length_a 8.118489
_cell_length_b 20.528363
_cell_length_c 27.260856
_cell_angle_alpha 90.000000
_cell_angle_beta 90.000000
_cell_angle_gamma 90.000000
_cell_volume 4543.274884
_symmetry_space_group_name_H-M "I B A M"
_symmetry_group_IT_number 72
_symmetry_cell_setting 'orthorhombic'
loop_
_space_group_symop_operation_xyz
x,y,z
-x,-y,z
x,-y,1/2-z
-x,y,1/2-z
-x,-y,-z
x,y,-z
-x,y,1/2+z
x,-y,1/2+z
1/2+x,1/2+y,1/2+z
1/2-x,1/2-y,1/2+z
1/2+x,1/2-y,-z
1/2-x,1/2+y,-z
1/2-x,1/2-y,1/2-z
1/2+x,1/2+y,1/2-z
1/2-x,1/2+y,z
1/2+x,1/2-y,z
loop_
_atom_site_type_symbol
_atom_site_label
_atom_site_fract_x
_atom_site_fract_y
_atom_site_fract_z
Si Si1 0.893151 0.687891 0.856291
Si Si2 0.221966 0.096660 0.197610
Si Si3 0.486919 0.676420 0.632159
Si Si4 0.425113 0.430001 0.556658
Si Si5 0.500000 0.500000 0.750000
Si Si6 0.085383 0.432804 0.394429
Si Si7 0.000000 0.341185 0.750000
O O1 0.698634 0.681725 0.848179
O O2 0.945382 0.753221 0.885393
O O3 0.959577 0.628245 0.889976
O O4 0.978167 0.696115 0.802036
O O5 0.337182 0.060471 0.158931
O O6 0.331867 0.118021 0.244019
O O7 0.113695 0.154988 0.174903
O O8 0.101674 0.041593 0.213069
O O9 0.483909 0.626121 0.587213
O O10 0.500000 0.500000 0.572987
O O11 0.463526 0.417457 0.500000
O O12 0.229168 0.423008 0.565552
O O13 0.000000 0.500000 0.409378
#
# Coordination Sequence:
#
# PCOD8294907 Si02
#       7
#    16  16  16  16   4  16   8
#     4  11  23  40  64  87 127 169 206 253 306 365
#     4  10  24  34  56  84 122 163 211 260 300 356
#     4  11  23  42  62  88 123 163 207 254 318 369
#     4  10  22  42  68  93 120 155 202 256 313 381
#     4  12  24  32  52  88 116 170 210 256 304 348
#     4  10  22  38  62  91 122 161 198 255 312 365
#     4  10  22  40  56  88 120 170 216 254 292 363
#
# _framework density 20.249708999999999
#
# number of rings (size 3 to 8) (size 9 to 14) (size 15 to 20)
#    0.000    1.565    0.000    5.217   12.174    3.826 
#    0.000    4.348    0.000    0.000    0.000    0.000 
#    0.000    0.000    0.000    0.000    0.000    0.000 
#
# Total GULP energy -570168.365688 kJ/mol
# GULP energy per Si atom -12394.964471 kJ/mol
# Density = 2.020362 g / cm^3
# Si number density = 20.249709 Si / 1000 Ang^3
#
#
#
# Elastic Constant Matrix: (Units=GPa)
#
#
# Indices 1 2 3 4 5 6 
#
# 1 128.8458 48.2191 21.0862 0.0000 0.0000 0.0000
# 2 48.2191 146.5729 41.5672 0.0000 0.0000 0.0000
# 3 21.0862 41.5672 64.9805 0.0000 0.0000 0.0000
# 4 0.0000 0.0000 0.0000 21.7078 0.0000 0.0000
# 5 0.0000 0.0000 0.0000 0.0000 23.2329 0.0000
# 6 0.0000 0.0000 0.0000 0.0000 0.0000 42.4799
#
#
#
# Elastic Compliance Matrix: (Units=1/GPa)
#
#
# Indices 1 2 3 4 5 6 
#
# 1 0.008933 -0.002586 -0.001245 0.000000 0.000000 0.000000
# 2 -0.002586 0.009083 -0.004971 0.000000 0.000000 0.000000
# 3 -0.001245 -0.004971 0.018973 0.000000 0.000000 0.000000
# 4 0.000000 0.000000 0.000000 0.046066 0.000000 0.000000
# 5 0.000000 0.000000 0.000000 0.000000 0.043042 0.000000
# 6 0.000000 0.000000 0.000000 0.000000 0.000000 0.023541
#
#
# Mechanical properties :
#
#
# Convention : Reuss Voigt Hill
#
# Bulk Modulus (GPa) = 51.58440 62.46047 57.02244
# Shear Modulus (GPa) = 28.78480 32.78591 30.78535
#
# Velocity S-wave (km/s) = 3.77436 4.02815 3.90331
# Velocity P-wave (km/s) = 6.67262 7.24891 6.96672
#
# Compressibility (1/GPa) = 0.01938571
#
# Stress axis : x y z
#
# Youngs Moduli (GPa) = 111.95017 110.09615 52.70613
#
# Poissons Ratio (x) = 0.28467 0.06560
# Poissons Ratio (y) = 0.28946 0.26201
# Poissons Ratio (z) = 0.13933 0.54731
#
# Static dielectric constant tensor:
#      x y z
#    x 3.776510 0.000000 0.000000 
#    y 0.000000 3.750030 0.000000 
#    z 0.000000 0.000000 3.396150 
# 
# 
# High freq. dielectric constant tensor:
#      x y z
#    x 1.813660 0.000000 0.000000 
#    y 0.000000 1.795510 0.000000 
#    z 0.000000 0.000000 1.763020 
# 
# From -- ./inp_files/47363.got.cif
#   From: 2010.03.12/outbox.cif.g09.slc.cpg/sg72_24_cif.got.tgz:47363.got - 2010.04.16 14:54:00.
