data_PCOD8294632
_publ_section_title
;
Structure prediction by ZEFSAII (Michael W. Deem and Ramdas Pophale) SiO2 
 PCOD8294632
Probable space group: I B A M
;
_chemical_formula_sum "Si O2"
_cell_formula_units_Z 72
_cell_length_a 14.629531
_cell_length_b 10.198746
_cell_length_c 23.951029
_cell_angle_alpha 90.000000
_cell_angle_beta 90.000000
_cell_angle_gamma 90.000000
_cell_volume 3573.562285
_symmetry_space_group_name_H-M "I B A M"
_symmetry_group_IT_number 72
_symmetry_cell_setting 'orthorhombic'
loop_
_space_group_symop_operation_xyz
x,y,z
-x,-y,z
x,-y,1/2-z
-x,y,1/2-z
-x,-y,-z
x,y,-z
-x,y,1/2+z
x,-y,1/2+z
1/2+x,1/2+y,1/2+z
1/2-x,1/2-y,1/2+z
1/2+x,1/2-y,-z
1/2-x,1/2+y,-z
1/2-x,1/2-y,1/2-z
1/2+x,1/2+y,1/2-z
1/2-x,1/2+y,z
1/2+x,1/2-y,z
loop_
_atom_site_type_symbol
_atom_site_label
_atom_site_fract_x
_atom_site_fract_y
_atom_site_fract_z
Si Si1 0.947700 0.246666 0.677586
Si Si2 0.500000 0.000000 0.881169
Si Si3 0.618736 0.635490 0.215999
Si Si4 0.687691 0.028425 0.435362
Si Si5 0.259032 0.778962 0.873953
O O1 0.903150 0.250988 0.739492
O O2 0.862219 0.225678 0.635835
O O3 0.999230 0.378962 0.661169
O O4 0.027244 0.132776 0.676039
O O5 0.583021 0.002669 0.924006
O O6 0.633054 0.500000 0.250000
O O7 0.710015 0.675214 0.183219
O O8 0.708534 0.050410 0.500000
O O9 0.746413 0.905277 0.413983
O O10 0.707378 0.160645 0.402359
#
# Coordination Sequence:
#
# PCOD8294632 Si02
#       5
#    16   8  16  16  16
#     4  10  21  37  61  91 125 166 201 253 310 387
#     4  10  21  41  62  90 124 162 216 266 318 370
#     4  11  22  39  60  91 132 170 201 250 318 389
#     4  11  23  42  66  91 123 168 218 272 320 367
#     4  11  23  41  65  94 129 165 216 263 317 378
#
# _framework density 20.147962
#
# number of rings (size 3 to 8) (size 9 to 14) (size 15 to 20)
#    0.000    1.333    2.222    4.333    0.000    1.778 
#    4.000    0.000    0.000    1.333    0.000    0.000 
#    0.000    0.000    0.000    0.000    0.000    0.000 
#
# Total GULP energy -446063.779583 kJ/mol
# GULP energy per Si atom -12390.660544 kJ/mol
# Density = 2.010210 g / cm^3
# Si number density = 20.147962 Si / 1000 Ang^3
#
#
#
# Elastic Constant Matrix: (Units=GPa)
#
#
# Indices 1 2 3 4 5 6 
#
# 1 63.4577 13.9847 4.1742 0.0000 0.0000 0.0000
# 2 13.9847 88.2851 19.5189 0.0000 0.0000 0.0000
# 3 4.1742 19.5189 64.3425 0.0000 0.0000 0.0000
# 4 0.0000 0.0000 0.0000 25.1666 0.0000 0.0000
# 5 0.0000 0.0000 0.0000 0.0000 23.5020 0.0000
# 6 0.0000 0.0000 0.0000 0.0000 0.0000 30.3041
#
#
#
# Elastic Compliance Matrix: (Units=1/GPa)
#
#
# Indices 1 2 3 4 5 6 
#
# 1 0.016334 -0.002522 -0.000295 0.000000 0.000000 0.000000
# 2 -0.002522 0.012531 -0.003638 0.000000 0.000000 0.000000
# 3 -0.000295 -0.003638 0.016664 0.000000 0.000000 0.000000
# 4 0.000000 0.000000 0.000000 0.039735 0.000000 0.000000
# 5 0.000000 0.000000 0.000000 0.000000 0.042550 0.000000
# 6 0.000000 0.000000 0.000000 0.000000 0.000000 0.032999
#
#
# Mechanical properties :
#
#
# Convention : Reuss Voigt Hill
#
# Bulk Modulus (GPa) = 30.65594 32.38233 31.51913
# Shear Modulus (GPa) = 27.08635 27.68836 27.38736
#
# Velocity S-wave (km/s) = 3.67055 3.71111 3.69088
# Velocity P-wave (km/s) = 5.76301 5.87114 5.81733
#
# Compressibility (1/GPa) = 0.03262010
#
# Stress axis : x y z
#
# Youngs Moduli (GPa) = 61.22294 79.80383 60.00792
#
# Poissons Ratio (x) = 0.20128 0.01767
# Poissons Ratio (y) = 0.15442 0.21829
# Poissons Ratio (z) = 0.01803 0.29030
#
# Static dielectric constant tensor:
#      x y z
#    x 3.878310 0.000000 0.000000 
#    y 0.000000 3.688550 0.000000 
#    z 0.000000 0.000000 3.560570 
# 
# 
# High freq. dielectric constant tensor:
#      x y z
#    x 1.802340 0.000000 0.000000 
#    y 0.000000 1.787230 0.000000 
#    z 0.000000 0.000000 1.767980 
# 
# From -- ./inp_files/47901.got.cif
#   From: 2010.03.12/outbox.cif.g09.slc.cpg/sg72_24_cif.got.tgz:47901.got - 2010.04.16 14:54:00.
