data_PCOD8294221
_publ_section_title
;
Structure prediction by ZEFSAII (Michael W. Deem and Ramdas Pophale) SiO2 
 PCOD8294221
Probable space group: I B A M
;
_chemical_formula_sum "Si O2"
_cell_formula_units_Z 128
_cell_length_a 21.368562
_cell_length_b 10.874605
_cell_length_c 27.449247
_cell_angle_alpha 90.000000
_cell_angle_beta 90.000000
_cell_angle_gamma 90.000000
_cell_volume 6378.509745
_symmetry_space_group_name_H-M "I B A M"
_symmetry_group_IT_number 72
_symmetry_cell_setting 'orthorhombic'
loop_
_space_group_symop_operation_xyz
x,y,z
-x,-y,z
x,-y,1/2-z
-x,y,1/2-z
-x,-y,-z
x,y,-z
-x,y,1/2+z
x,-y,1/2+z
1/2+x,1/2+y,1/2+z
1/2-x,1/2-y,1/2+z
1/2+x,1/2-y,-z
1/2-x,1/2+y,-z
1/2-x,1/2-y,1/2-z
1/2+x,1/2+y,1/2-z
1/2-x,1/2+y,z
1/2+x,1/2-y,z
loop_
_atom_site_type_symbol
_atom_site_label
_atom_site_fract_x
_atom_site_fract_y
_atom_site_fract_z
Si Si1 0.893892 0.547063 0.445040
Si Si2 0.332656 0.646831 0.866592
Si Si3 0.701813 0.149579 0.207247
Si Si4 0.407867 0.224435 0.554178
Si Si5 0.456796 0.699396 0.443710
Si Si6 0.798938 0.566874 0.363658
Si Si7 0.931762 0.051323 0.151538
Si Si8 0.663544 0.725210 0.201410
O O1 0.871009 0.564971 0.500000
O O2 0.930018 0.417359 0.438043
O O3 0.936713 0.662023 0.429969
O O4 0.832299 0.533806 0.413331
O O5 0.309892 0.729103 0.822875
O O6 0.351703 0.733384 0.911389
O O7 0.274193 0.558153 0.878390
O O8 0.390441 0.569184 0.848068
O O9 0.659517 0.170123 0.255958
O O10 0.777127 0.139136 0.217102
O O11 0.681182 0.027104 0.179263
O O12 0.381317 0.241363 0.500000
O O13 0.468532 0.309098 0.562148
O O14 0.437612 0.664633 0.500000
O O15 0.429538 0.606295 0.403505
O O16 0.820408 0.703623 0.348509
O O17 0.900615 0.147324 0.190982
O O18 0.000000 0.000000 0.167853
#
# Coordination Sequence:
#
# PCOD8294221 Si02
#       8
#    16  16  16  16  16  16  16  16
#     4  10  20  36  61  90 118 153 201 256 312 362
#     4  11  23  36  58  89 120 161 203 247 309 366
#     4  10  21  40  63  86 119 154 207 263 305 367
#     4  10  20  37  60  86 118 160 205 248 303 372
#     4  10  21  38  62  89 117 158 207 253 299 372
#     4  11  20  37  65  87 121 155 206 259 309 368
#     4  12  23  39  61  89 127 163 202 252 312 381
#     4  10  22  39  62  91 115 158 207 256 314 366
#
# _framework density 20.067383
#
# number of rings (size 3 to 8) (size 9 to 14) (size 15 to 20)
#    0.000    1.500    5.000    0.750    0.000    3.250 
#    0.000    1.250    0.000    0.000    0.000    3.500 
#    0.000    0.000    0.000    0.000    0.000    0.000 
#
# Total GULP energy -793074.105465 kJ/mol
# GULP energy per Si atom -12391.782898 kJ/mol
# Density = 2.002171 g / cm^3
# Si number density = 20.067383 Si / 1000 Ang^3
#
#
#
# Elastic Constant Matrix: (Units=GPa)
#
#
# Indices 1 2 3 4 5 6 
#
# 1 107.5188 34.6440 41.9733 0.0000 0.0000 0.0000
# 2 34.6440 75.5726 24.7633 0.0000 0.0000 0.0000
# 3 41.9733 24.7633 80.0725 0.0000 0.0000 0.0000
# 4 0.0000 0.0000 0.0000 22.3432 0.0000 0.0000
# 5 0.0000 0.0000 0.0000 0.0000 28.3030 0.0000
# 6 0.0000 0.0000 0.0000 0.0000 0.0000 35.8841
#
#
#
# Elastic Compliance Matrix: (Units=1/GPa)
#
#
# Indices 1 2 3 4 5 6 
#
# 1 0.012722 -0.004058 -0.005414 0.000000 0.000000 0.000000
# 2 -0.004058 0.016019 -0.002827 0.000000 0.000000 0.000000
# 3 -0.005414 -0.002827 0.016201 0.000000 0.000000 0.000000
# 4 0.000000 0.000000 0.000000 0.044756 0.000000 0.000000
# 5 0.000000 0.000000 0.000000 0.000000 0.035332 0.000000
# 6 0.000000 0.000000 0.000000 0.000000 0.000000 0.027867
#
#
# Mechanical properties :
#
#
# Convention : Reuss Voigt Hill
#
# Bulk Modulus (GPa) = 49.15373 51.76945 50.46159
# Shear Modulus (GPa) = 27.13335 28.09162 27.61248
#
# Velocity S-wave (km/s) = 3.68110 3.74554 3.71346
# Velocity P-wave (km/s) = 6.52800 6.67527 6.60205
#
# Compressibility (1/GPa) = 0.02034434
#
# Stress axis : x y z
#
# Youngs Moduli (GPa) = 78.60659 62.42645 61.72583
#
# Poissons Ratio (x) = 0.25332 0.33416
# Poissons Ratio (y) = 0.31898 0.17449
# Poissons Ratio (z) = 0.42554 0.17647
#
# Static dielectric constant tensor:
#      x y z
#    x 3.619680 0.000000 0.000000 
#    y 0.000000 3.722120 0.000000 
#    z 0.000000 0.000000 3.733750 
# 
# 
# High freq. dielectric constant tensor:
#      x y z
#    x 1.761800 0.000000 0.000000 
#    y 0.000000 1.792630 0.000000 
#    z 0.000000 0.000000 1.780550 
# 
# From -- ./inp_files/45785.got.cif
#   From: 2010.03.12/outbox.cif.g09.slc.cpg/sg72_23_cif.got.tgz:45785.got - 2010.04.16 14:54:00.
