data_PCOD8294653
_publ_section_title
;
Structure prediction by ZEFSAII (Michael W. Deem and Ramdas Pophale) SiO2 
 PCOD8294653
Probable space group: I B A M
;
_chemical_formula_sum "Si O2"
_cell_formula_units_Z 80
_cell_length_a 27.433435
_cell_length_b 17.927353
_cell_length_c 8.834272
_cell_angle_alpha 90.000000
_cell_angle_beta 90.000000
_cell_angle_gamma 90.000000
_cell_volume 4344.773358
_symmetry_space_group_name_H-M "I B A M"
_symmetry_group_IT_number 72
_symmetry_cell_setting 'orthorhombic'
loop_
_space_group_symop_operation_xyz
x,y,z
-x,-y,z
x,-y,1/2-z
-x,y,1/2-z
-x,-y,-z
x,y,-z
-x,y,1/2+z
x,-y,1/2+z
1/2+x,1/2+y,1/2+z
1/2-x,1/2-y,1/2+z
1/2+x,1/2-y,-z
1/2-x,1/2+y,-z
1/2-x,1/2-y,1/2-z
1/2+x,1/2+y,1/2-z
1/2-x,1/2+y,z
1/2+x,1/2-y,z
loop_
_atom_site_type_symbol
_atom_site_label
_atom_site_fract_x
_atom_site_fract_y
_atom_site_fract_z
Si Si1 0.350849 0.705028 0.826502
Si Si2 0.312121 0.864827 0.177432
Si Si3 0.406759 0.076674 0.179293
Si Si4 0.293033 0.421078 0.177316
Si Si5 0.951027 0.720363 0.822713
O O1 0.318314 0.777318 0.787025
O O2 0.334945 0.636895 0.721990
O O3 0.407398 0.721812 0.791780
O O4 0.343185 0.681761 0.000000
O O5 0.350653 0.912316 0.272461
O O6 0.259042 0.890066 0.233263
O O7 0.321460 0.880121 0.000000
O O8 0.440456 0.142001 0.243037
O O9 0.426463 0.000000 0.250000
O O10 0.410760 0.074149 0.000000
O O11 0.305031 0.500000 0.250000
O O12 0.293088 0.431533 0.000000
O O13 0.000000 0.754734 0.750000
O O14 0.957503 0.705975 0.000000
#
# Coordination Sequence:
#
# PCOD8294653 Si02
#       5
#    16  16  16  16  16
#     4   9  19  36  56  78 107 137 171 216 261 308
#     4   9  19  35  53  77 108 143 180 217 256 305
#     4  11  21  33  51  76 108 145 181 218 259 306
#     4  11  22  34  52  78 109 143 179 216 260 310
#     4  10  21  38  58  80 104 133 172 218 266 317
#
# _framework density 18.412928000000001
#
# number of rings (size 3 to 8) (size 9 to 14) (size 15 to 20)
#    0.000    2.000    0.000    5.400    0.000    7.600 
#    0.000    2.000    0.000    0.600    0.000    4.200 
#    0.000    0.000    0.000    0.000    0.000    0.000 
#
# Total GULP energy -496170.709464 kJ/mol
# GULP energy per Si atom -12404.267737 kJ/mol
# Density = 1.837102 g / cm^3
# Si number density = 18.412928 Si / 1000 Ang^3
#
#
#
# Elastic Constant Matrix: (Units=GPa)
#
#
# Indices 1 2 3 4 5 6 
#
# 1 93.6424 37.8158 41.2289 0.0000 0.0000 0.0000
# 2 37.8158 85.3089 36.7692 0.0000 0.0000 0.0000
# 3 41.2289 36.7692 94.7476 0.0000 0.0000 0.0000
# 4 0.0000 0.0000 0.0000 31.0892 0.0000 0.0000
# 5 0.0000 0.0000 0.0000 0.0000 32.8673 0.0000
# 6 0.0000 0.0000 0.0000 0.0000 0.0000 15.0303
#
#
#
# Elastic Compliance Matrix: (Units=1/GPa)
#
#
# Indices 1 2 3 4 5 6 
#
# 1 0.014492 -0.004450 -0.004579 0.000000 0.000000 0.000000
# 2 -0.004450 0.015443 -0.004057 0.000000 0.000000 0.000000
# 3 -0.004579 -0.004057 0.014121 0.000000 0.000000 0.000000
# 4 0.000000 0.000000 0.000000 0.032166 0.000000 0.000000
# 5 0.000000 0.000000 0.000000 0.000000 0.030425 0.000000
# 6 0.000000 0.000000 0.000000 0.000000 0.000000 0.066532
#
#
# Mechanical properties :
#
#
# Convention : Reuss Voigt Hill
#
# Bulk Modulus (GPa) = 55.91445 56.14740 56.03092
# Shear Modulus (GPa) = 24.35296 26.32302 25.33799
#
# Velocity S-wave (km/s) = 3.64070 3.78510 3.71360
# Velocity P-wave (km/s) = 6.93584 7.04715 6.99171
#
# Compressibility (1/GPa) = 0.01788447
#
# Stress axis : x y z
#
# Youngs Moduli (GPa) = 69.00234 64.75280 70.81556
#
# Poissons Ratio (x) = 0.28818 0.32427
# Poissons Ratio (y) = 0.30709 0.28727
# Poissons Ratio (z) = 0.31597 0.26268
#
# Static dielectric constant tensor:
#      x y z
#    x 3.429980 0.000000 0.000000 
#    y 0.000000 3.234190 0.000000 
#    z 0.000000 0.000000 3.363840 
# 
# 
# High freq. dielectric constant tensor:
#      x y z
#    x 1.709350 0.000000 0.000000 
#    y 0.000000 1.700190 0.000000 
#    z 0.000000 0.000000 1.721500 
# 
# From -- ./inp_files/4748.got.cif
#   From: 2010.03.12/outbox.cif.g09.slc.cpg/sg72_3_cif.got.tgz:4748.got - 2010.04.16 14:54:00.
