data_PCOD8294220
_publ_section_title
;
Structure prediction by ZEFSAII (Michael W. Deem and Ramdas Pophale) SiO2 
 PCOD8294220
Probable space group: I B A M
;
_chemical_formula_sum "Si O2"
_cell_formula_units_Z 112
_cell_length_a 13.430644
_cell_length_b 14.761070
_cell_length_c 28.982769
_cell_angle_alpha 90.000000
_cell_angle_beta 90.000000
_cell_angle_gamma 90.000000
_cell_volume 5745.853553
_symmetry_space_group_name_H-M "I B A M"
_symmetry_group_IT_number 72
_symmetry_cell_setting 'orthorhombic'
loop_
_space_group_symop_operation_xyz
x,y,z
-x,-y,z
x,-y,1/2-z
-x,y,1/2-z
-x,-y,-z
x,y,-z
-x,y,1/2+z
x,-y,1/2+z
1/2+x,1/2+y,1/2+z
1/2-x,1/2-y,1/2+z
1/2+x,1/2-y,-z
1/2-x,1/2+y,-z
1/2-x,1/2-y,1/2-z
1/2+x,1/2+y,1/2-z
1/2-x,1/2+y,z
1/2+x,1/2-y,z
loop_
_atom_site_type_symbol
_atom_site_label
_atom_site_fract_x
_atom_site_fract_y
_atom_site_fract_z
Si Si1 0.449563 0.726377 0.447660
Si Si2 0.250318 0.598686 0.271323
Si Si3 0.102492 0.237065 0.775111
Si Si4 0.046187 0.140982 0.862331
Si Si5 0.458619 0.908292 0.946396
Si Si6 0.651835 0.463618 0.359971
Si Si7 0.235752 0.885823 0.052840
O O1 0.484708 0.705397 0.500000
O O2 0.525813 0.672239 0.414816
O O3 0.459607 0.832165 0.435764
O O4 0.331792 0.705042 0.441331
O O5 0.226634 0.500000 0.250000
O O6 0.159655 0.668679 0.267886
O O7 0.342627 0.648054 0.245698
O O8 0.267255 0.577259 0.325229
O O9 0.076965 0.223851 0.829279
O O10 0.000000 0.250578 0.750000
O O11 0.946459 0.091418 0.845906
O O12 0.136782 0.070933 0.856550
O O13 0.349525 0.873384 0.930031
O O14 0.500000 0.000000 0.921880
O O15 0.447873 0.928438 0.000000
O O16 0.684182 0.456581 0.413229
O O17 0.229646 0.920920 0.000000
#
# Coordination Sequence:
#
# PCOD8294220 Si02
#       7
#    16  16  16  16  16  16  16
#     4   9  19  36  57  87 124 157 197 251 298 351
#     4  11  23  40  63  90 120 155 199 252 304 362
#     4  11  23  40  63  89 118 158 199 249 307 362
#     4  10  20  36  62  89 116 156 200 243 298 360
#     4   9  18  36  58  80 113 161 208 246 295 357
#     4  10  20  36  61  90 117 156 200 244 296 359
#     4   9  19  36  56  85 124 159 197 245 293 351
#
# _framework density 19.492317
#
# number of rings (size 3 to 8) (size 9 to 14) (size 15 to 20)
#    0.000    2.143    2.857    0.000    2.000    1.143 
#    2.571    4.286    0.000    0.000    0.000    0.000 
#    0.000    0.000    0.000    0.000    0.000    0.000 
#
# Total GULP energy -693751.751061 kJ/mol
# GULP energy per Si atom -12388.424126 kJ/mol
# Density = 1.944795 g / cm^3
# Si number density = 19.492317 Si / 1000 Ang^3
#
#
#
# Elastic Constant Matrix: (Units=GPa)
#
#
# Indices 1 2 3 4 5 6 
#
# 1 119.3648 67.5426 44.4579 0.0000 0.0000 0.0000
# 2 67.5426 138.3481 52.5146 0.0000 0.0000 0.0000
# 3 44.4579 52.5146 100.6495 0.0000 0.0000 0.0000
# 4 0.0000 0.0000 0.0000 19.6594 0.0000 0.0000
# 5 0.0000 0.0000 0.0000 0.0000 23.1397 0.0000
# 6 0.0000 0.0000 0.0000 0.0000 0.0000 24.8165
#
#
#
# Elastic Compliance Matrix: (Units=1/GPa)
#
#
# Indices 1 2 3 4 5 6 
#
# 1 0.012195 -0.004874 -0.002843 0.000000 0.000000 0.000000
# 2 -0.004874 0.010961 -0.003566 0.000000 0.000000 0.000000
# 3 -0.002843 -0.003566 0.013052 0.000000 0.000000 0.000000
# 4 0.000000 0.000000 0.000000 0.050866 0.000000 0.000000
# 5 0.000000 0.000000 0.000000 0.000000 0.043216 0.000000
# 6 0.000000 0.000000 0.000000 0.000000 0.000000 0.040296
#
#
# Mechanical properties :
#
#
# Convention : Reuss Voigt Hill
#
# Bulk Modulus (GPa) = 73.31026 76.37694 74.84360
# Shear Modulus (GPa) = 25.29074 26.44629 25.86852
#
# Velocity S-wave (km/s) = 3.60595 3.68741 3.64691
# Velocity P-wave (km/s) = 7.41813 7.57611 7.49754
#
# Compressibility (1/GPa) = 0.01364065
#
# Stress axis : x y z
#
# Youngs Moduli (GPa) = 82.00199 91.22851 76.61601
#
# Poissons Ratio (x) = 0.44468 0.21785
# Poissons Ratio (y) = 0.39970 0.27323
# Poissons Ratio (z) = 0.23316 0.32534
#
# Static dielectric constant tensor:
#      x y z
#    x 3.597900 0.000000 0.000000 
#    y 0.000000 3.510020 0.000000 
#    z 0.000000 0.000000 3.589940 
# 
# 
# High freq. dielectric constant tensor:
#      x y z
#    x 1.750290 0.000000 0.000000 
#    y 0.000000 1.750020 0.000000 
#    z 0.000000 0.000000 1.756960 
# 
# From -- ./inp_files/48708.got.cif
#   From: 2010.03.12/outbox.cif.g09.slc.cpg/sg72_25_cif.got.tgz:48708.got - 2010.04.16 14:54:00.
