data_PCOD8294753
_publ_section_title
;
Structure prediction by ZEFSAII (Michael W. Deem and Ramdas Pophale) SiO2 
 PCOD8294753
Probable space group: I B A M
;
_chemical_formula_sum "Si O2"
_cell_formula_units_Z 80
_cell_length_a 23.645944
_cell_length_b 18.085321
_cell_length_c 9.413811
_cell_angle_alpha 90.000000
_cell_angle_beta 90.000000
_cell_angle_gamma 90.000000
_cell_volume 4025.764381
_symmetry_space_group_name_H-M "I B A M"
_symmetry_group_IT_number 72
_symmetry_cell_setting 'orthorhombic'
loop_
_space_group_symop_operation_xyz
x,y,z
-x,-y,z
x,-y,1/2-z
-x,y,1/2-z
-x,-y,-z
x,y,-z
-x,y,1/2+z
x,-y,1/2+z
1/2+x,1/2+y,1/2+z
1/2-x,1/2-y,1/2+z
1/2+x,1/2-y,-z
1/2-x,1/2+y,-z
1/2-x,1/2-y,1/2-z
1/2+x,1/2+y,1/2-z
1/2-x,1/2+y,z
1/2+x,1/2-y,z
loop_
_atom_site_type_symbol
_atom_site_label
_atom_site_fract_x
_atom_site_fract_y
_atom_site_fract_z
Si Si1 0.869238 0.177670 0.659067
Si Si2 0.255167 0.178323 0.158665
Si Si3 0.445371 0.894419 0.500000
Si Si4 0.872345 0.652318 0.755103
Si Si5 0.426734 0.931667 0.000000
Si Si6 0.559520 0.570763 0.827868
O O1 0.893693 0.161713 0.500000
O O2 0.806550 0.140295 0.668509
O O3 0.869873 0.265686 0.680487
O O4 0.904822 0.142738 0.787117
O O5 0.250000 0.250000 0.250000
O O6 0.308673 0.128646 0.207067
O O7 0.268022 0.204772 0.000000
O O8 0.419223 0.851515 0.367209
O O9 0.513336 0.888351 0.500000
O O10 0.431173 0.980708 0.500000
O O11 0.890496 0.590736 0.865365
O O12 0.588605 0.500000 0.750000
O O13 0.500000 0.580581 0.750000
O O14 0.554687 0.562308 0.000000
#
# Coordination Sequence:
#
# PCOD8294753 Si02
#       6
#    16  16   8  16   8  16
#     4  10  21  39  62  93 125 157 203 256 305 361
#     4   9  19  35  61  89 120 155 194 246 307 365
#     4  11  24  40  63  82 125 165 221 260 313 376
#     4  11  21  40  63  90 121 161 209 257 306 367
#     4  11  24  42  57  88 121 175 207 262 323 360
#     4  11  23  41  64  89 124 165 199 240 303 365
#
# _framework density 19.872001999999998
#
# number of rings (size 3 to 8) (size 9 to 14) (size 15 to 20)
#    0.000    1.600    2.000    3.600    2.800    4.000 
#    0.000    2.000    0.000    0.000    0.000    0.000 
#    0.000    0.000    0.000    0.000    0.000    0.000 
#
# Total GULP energy -495585.307885 kJ/mol
# GULP energy per Si atom -12389.632697 kJ/mol
# Density = 1.982677 g / cm^3
# Si number density = 19.872002 Si / 1000 Ang^3
#
#
#
# Elastic Constant Matrix: (Units=GPa)
#
#
# Indices 1 2 3 4 5 6 
#
# 1 106.3073 31.8788 55.1904 0.0000 0.0000 0.0000
# 2 31.8788 51.7977 24.6591 0.0000 0.0000 0.0000
# 3 55.1904 24.6591 166.2059 0.0000 0.0000 0.0000
# 4 0.0000 0.0000 0.0000 30.7248 0.0000 0.0000
# 5 0.0000 0.0000 0.0000 0.0000 35.9358 0.0000
# 6 0.0000 0.0000 0.0000 0.0000 0.0000 21.0344
#
#
#
# Elastic Compliance Matrix: (Units=1/GPa)
#
#
# Indices 1 2 3 4 5 6 
#
# 1 0.013102 -0.006448 -0.003394 0.000000 0.000000 0.000000
# 2 -0.006448 0.023946 -0.001412 0.000000 0.000000 0.000000
# 3 -0.003394 -0.001412 0.007353 0.000000 0.000000 0.000000
# 4 0.000000 0.000000 0.000000 0.032547 0.000000 0.000000
# 5 0.000000 0.000000 0.000000 0.000000 0.027827 0.000000
# 6 0.000000 0.000000 0.000000 0.000000 0.000000 0.047541
#
#
# Mechanical properties :
#
#
# Convention : Reuss Voigt Hill
#
# Bulk Modulus (GPa) = 45.67410 60.86305 53.26858
# Shear Modulus (GPa) = 27.45395 31.71116 29.58255
#
# Velocity S-wave (km/s) = 3.72094 3.99904 3.86249
# Velocity P-wave (km/s) = 6.44163 7.21229 6.83783
#
# Compressibility (1/GPa) = 0.02189424
#
# Stress axis : x y z
#
# Youngs Moduli (GPa) = 76.32202 41.76006 135.99648
#
# Poissons Ratio (x) = 0.26927 0.46159
# Poissons Ratio (y) = 0.49212 0.19198
# Poissons Ratio (z) = 0.25905 0.05895
#
# Static dielectric constant tensor:
#      x y z
#    x 4.311020 0.000000 0.000000 
#    y 0.000000 3.392120 0.000000 
#    z 0.000000 0.000000 3.689130 
# 
# 
# High freq. dielectric constant tensor:
#      x y z
#    x 1.786720 0.000000 0.000000 
#    y 0.000000 1.745740 0.000000 
#    z 0.000000 0.000000 1.796050 
# 
# From -- ./inp_files/6802.got.cif
#   From: 2010.03.12/outbox.cif.g09.slc.cpg/sg72_4_cif.got.tgz:6802.got - 2010.04.16 14:54:00.
