data_PCOD8294165
_publ_section_title
;
Structure prediction by ZEFSAII (Michael W. Deem and Ramdas Pophale) SiO2 
 PCOD8294165
Probable space group: I B A M
;
_chemical_formula_sum "Si O2"
_cell_formula_units_Z 96
_cell_length_a 27.500575
_cell_length_b 20.402049
_cell_length_c 8.764548
_cell_angle_alpha 90.000000
_cell_angle_beta 90.000000
_cell_angle_gamma 90.000000
_cell_volume 4917.508107
_symmetry_space_group_name_H-M "I B A M"
_symmetry_group_IT_number 72
_symmetry_cell_setting 'orthorhombic'
loop_
_space_group_symop_operation_xyz
x,y,z
-x,-y,z
x,-y,1/2-z
-x,y,1/2-z
-x,-y,-z
x,y,-z
-x,y,1/2+z
x,-y,1/2+z
1/2+x,1/2+y,1/2+z
1/2-x,1/2-y,1/2+z
1/2+x,1/2-y,-z
1/2-x,1/2+y,-z
1/2-x,1/2-y,1/2-z
1/2+x,1/2+y,1/2-z
1/2-x,1/2+y,z
1/2+x,1/2-y,z
loop_
_atom_site_type_symbol
_atom_site_label
_atom_site_fract_x
_atom_site_fract_y
_atom_site_fract_z
Si Si1 0.100515 0.431309 0.180484
Si Si2 0.886177 0.819207 0.678069
Si Si3 0.774687 0.187471 0.820224
Si Si4 0.051702 0.068892 0.819595
Si Si5 0.550911 0.193327 0.678928
Si Si6 0.288637 0.932536 0.179725
O O1 0.082375 0.500000 0.250000
O O2 0.067128 0.374276 0.245689
O O3 0.156103 0.417765 0.231247
O O4 0.094824 0.434054 0.000000
O O5 0.891947 0.836745 0.500000
O O6 0.830486 0.815681 0.730183
O O7 0.909739 0.875755 0.778896
O O8 0.910126 0.749508 0.716563
O O9 0.750000 0.250000 0.750000
O O10 0.746331 0.124113 0.756691
O O11 0.769595 0.192176 0.000000
O O12 0.000000 0.089587 0.750000
O O13 0.069519 0.000000 0.750000
O O14 0.046584 0.061827 0.000000
O O15 0.500000 0.216099 0.750000
O O16 0.544847 0.182451 0.500000
O O17 0.269541 0.000000 0.250000
O O18 0.285142 0.938711 0.000000
#
# Coordination Sequence:
#
# PCOD8294165 Si02
#       6
#    16  16  16  16  16  16
#     4  10  20  36  58  83 112 145 183 226 273 329
#     4  10  22  39  58  83 116 151 190 236 282 332
#     4  10  21  37  57  83 115 149 188 233 279 330
#     4  11  22  38  61  86 115 150 189 233 283 340
#     4  11  23  38  57  81 110 145 184 229 279 330
#     4   9  19  35  56  82 112 146 183 224 270 322
#
# _framework density 19.522084
#
# number of rings (size 3 to 8) (size 9 to 14) (size 15 to 20)
#    0.000    1.833    0.000    4.500    0.000    5.667 
#    0.000    3.333    0.000    0.000    0.000    0.000 
#    0.000    0.000    0.000    0.000    0.000    0.000 
#
# Total GULP energy -595447.974212 kJ/mol
# GULP energy per Si atom -12405.166129 kJ/mol
# Density = 1.947765 g / cm^3
# Si number density = 19.522084 Si / 1000 Ang^3
#
#
#
# Elastic Constant Matrix: (Units=GPa)
#
#
# Indices 1 2 3 4 5 6 
#
# 1 96.8147 55.3702 39.5960 0.0000 0.0000 0.0000
# 2 55.3702 126.2766 46.3453 0.0000 0.0000 0.0000
# 3 39.5960 46.3453 83.9215 0.0000 0.0000 0.0000
# 4 0.0000 0.0000 0.0000 35.7298 0.0000 0.0000
# 5 0.0000 0.0000 0.0000 0.0000 28.0156 0.0000
# 6 0.0000 0.0000 0.0000 0.0000 0.0000 43.5736
#
#
#
# Elastic Compliance Matrix: (Units=1/GPa)
#
#
# Indices 1 2 3 4 5 6 
#
# 1 0.014929 -0.004968 -0.004300 0.000000 0.000000 0.000000
# 2 -0.004968 0.011585 -0.004054 0.000000 0.000000 0.000000
# 3 -0.004300 -0.004054 0.016184 0.000000 0.000000 0.000000
# 4 0.000000 0.000000 0.000000 0.027988 0.000000 0.000000
# 5 0.000000 0.000000 0.000000 0.000000 0.035694 0.000000
# 6 0.000000 0.000000 0.000000 0.000000 0.000000 0.022950
#
#
# Mechanical properties :
#
#
# Convention : Reuss Voigt Hill
#
# Bulk Modulus (GPa) = 62.29126 65.51510 63.90318
# Shear Modulus (GPa) = 30.99324 32.51057 31.75190
#
# Velocity S-wave (km/s) = 3.98879 4.08526 4.03732
# Velocity P-wave (km/s) = 7.29324 7.47562 7.38499
#
# Compressibility (1/GPa) = 0.01605362
#
# Stress axis : x y z
#
# Youngs Moduli (GPa) = 66.98373 86.31622 61.79050
#
# Poissons Ratio (x) = 0.42880 0.26572
# Poissons Ratio (y) = 0.33276 0.25050
# Poissons Ratio (z) = 0.28805 0.34993
#
# Static dielectric constant tensor:
#      x y z
#    x 3.574890 0.000000 0.000000 
#    y 0.000000 3.632270 0.000000 
#    z 0.000000 0.000000 3.526710 
# 
# 
# High freq. dielectric constant tensor:
#      x y z
#    x 1.763380 0.000000 0.000000 
#    y 0.000000 1.773790 0.000000 
#    z 0.000000 0.000000 1.761510 
# 
# From -- ./inp_files/6003.got.cif
#   From: 2010.03.12/outbox.cif.g09.slc.cpg/sg72_4_cif.got.tgz:6003.got - 2010.04.16 14:54:00.
