data_PCOD8294020
_publ_section_title
;
Structure prediction by ZEFSAII (Michael W. Deem and Ramdas Pophale) SiO2 
 PCOD8294020
Probable space group: I B A M
;
_chemical_formula_sum "Si O2"
_cell_formula_units_Z 96
_cell_length_a 19.778885
_cell_length_b 30.667916
_cell_length_c 8.635893
_cell_angle_alpha 90.000000
_cell_angle_beta 90.000000
_cell_angle_gamma 90.000000
_cell_volume 5238.335655
_symmetry_space_group_name_H-M "I B A M"
_symmetry_group_IT_number 72
_symmetry_cell_setting 'orthorhombic'
loop_
_space_group_symop_operation_xyz
x,y,z
-x,-y,z
x,-y,1/2-z
-x,y,1/2-z
-x,-y,-z
x,y,-z
-x,y,1/2+z
x,-y,1/2+z
1/2+x,1/2+y,1/2+z
1/2-x,1/2-y,1/2+z
1/2+x,1/2-y,-z
1/2-x,1/2+y,-z
1/2-x,1/2-y,1/2-z
1/2+x,1/2+y,1/2-z
1/2-x,1/2+y,z
1/2+x,1/2-y,z
loop_
_atom_site_type_symbol
_atom_site_label
_atom_site_fract_x
_atom_site_fract_y
_atom_site_fract_z
Si Si1 0.171186 0.295106 0.829165
Si Si2 0.823635 0.615777 0.317669
Si Si3 0.073451 0.546399 0.684457
Si Si4 0.331506 0.290288 0.828862
Si Si5 0.324357 0.613870 0.315493
Si Si6 0.070874 0.047018 0.817297
O O1 0.151738 0.334739 0.715620
O O2 0.250948 0.288820 0.834445
O O3 0.138686 0.249159 0.773783
O O4 0.142946 0.305747 0.000000
O O5 0.819257 0.608053 0.500000
O O6 0.875887 0.583161 0.240772
O O7 0.751789 0.606553 0.239726
O O8 0.098469 0.500000 0.750000
O O9 0.070882 0.544457 0.500000
O O10 0.000000 0.558081 0.750000
O O11 0.351718 0.338135 0.765169
O O12 0.361340 0.283696 0.000000
O O13 0.327133 0.608224 0.500000
O O14 0.370185 0.579318 0.229652
O O15 0.000000 0.064316 0.750000
O O16 0.089186 0.000000 0.750000
O O17 0.064871 0.043581 0.000000
#
# Coordination Sequence:
#
# PCOD8294020 Si02
#       6
#    16  16  16  16  16  16
#     4   9  16  27  45  71 103 138 174 213 257 306
#     4  11  21  34  53  80 110 141 177 218 264 309
#     4  11  22  39  59  80 105 137 176 215 260 314
#     4   8  15  27  45  70 102 137 171 210 257 308
#     4  10  20  35  54  80 110 139 175 220 266 310
#     4  11  22  38  58  79 104 138 177 216 261 315
#
# _framework density 18.326429999999998
#
# number of rings (size 3 to 8) (size 9 to 14) (size 15 to 20)
#    0.000    2.000    0.000    7.500    0.000    5.333 
#    0.000    3.333    0.000    1.000    0.000    2.333 
#    0.000    0.000    0.000    0.000    0.000    0.000 
#
# Total GULP energy -595090.638827 kJ/mol
# GULP energy per Si atom -12397.721642 kJ/mol
# Density = 1.828472 g / cm^3
# Si number density = 18.326430 Si / 1000 Ang^3
#
#
#
# Elastic Constant Matrix: (Units=GPa)
#
#
# Indices 1 2 3 4 5 6 
#
# 1 50.3327 56.8656 23.8430 0.0000 0.0001 0.0000
# 2 56.8656 127.8243 49.1899 0.0000 0.0001 0.0000
# 3 23.8430 49.1899 129.3871 0.0008 0.0011 0.0003
# 4 0.0000 0.0000 0.0008 33.9045 0.0001 0.0002
# 5 0.0001 0.0001 0.0011 0.0001 25.8239 0.0002
# 6 0.0000 0.0000 0.0003 0.0002 0.0002 -4.6422
#
#
#
# Elastic Compliance Matrix: (Units=1/GPa)
#
#
# Indices 1 2 3 4 5 6 
#
# 1 0.040000 -0.017522 -0.000710 0.000000 0.000000 0.000000
# 2 -0.017522 0.016839 -0.003173 0.000000 0.000000 0.000000
# 3 -0.000710 -0.003173 0.009066 0.000000 0.000000 0.000001
# 4 0.000000 0.000000 0.000000 0.029495 0.000000 0.000001
# 5 0.000000 0.000000 0.000000 0.000000 0.038724 0.000002
# 6 0.000000 0.000000 0.000001 0.000001 0.000002 -0.215414
#
#
# Mechanical properties :
#
#
# Convention : Reuss Voigt Hill
#
# Bulk Modulus (GPa) = 43.29737 63.03790 53.16764
# Shear Modulus (GPa) = -162.42863 22.86028 -69.78417
#
# Velocity S-wave (km/s) = -9.42461 3.53568 -6.17747
# Velocity P-wave (km/s) = 9.73417 7.15122 4.66980
#
# Compressibility (1/GPa) = 0.02309609
#
# Stress axis : x y z
#
# Youngs Moduli (GPa) = 24.99991 59.38472 110.30422
#
# Poissons Ratio (x) = 1.04053 0.07828
# Poissons Ratio (y) = 0.43805 0.35000
# Poissons Ratio (z) = 0.01774 0.18843
#
# Static dielectric constant tensor:
#      x y z
#    x 3.026600 0.000000 0.000000 
#    y 0.000000 3.707140 0.000000 
#    z 0.000000 0.000000 3.649500 
# 
# 
# High freq. dielectric constant tensor:
#      x y z
#    x 1.666110 0.000000 0.000000 
#    y 0.000000 1.727100 0.000000 
#    z 0.000000 0.000000 1.729180 
# 
# From -- ./inp_files/5984.got.cif
#   From: 2010.03.12/outbox.cif.g09.slc.cpg/sg72_3_cif.got.tgz:5984.got - 2010.04.16 14:54:00.
