data_PCOD8294023
_publ_section_title
;
Structure prediction by ZEFSAII (Michael W. Deem and Ramdas Pophale) SiO2 
 PCOD8294023
Probable space group: I B A M
;
_chemical_formula_sum "Si O2"
_cell_formula_units_Z 112
_cell_length_a 10.408360
_cell_length_b 30.428685
_cell_length_c 17.159825
_cell_angle_alpha 90.000000
_cell_angle_beta 90.000000
_cell_angle_gamma 90.000000
_cell_volume 5434.734641
_symmetry_space_group_name_H-M "I B A M"
_symmetry_group_IT_number 72
_symmetry_cell_setting 'orthorhombic'
loop_
_space_group_symop_operation_xyz
x,y,z
-x,-y,z
x,-y,1/2-z
-x,y,1/2-z
-x,-y,-z
x,y,-z
-x,y,1/2+z
x,-y,1/2+z
1/2+x,1/2+y,1/2+z
1/2-x,1/2-y,1/2+z
1/2+x,1/2-y,-z
1/2-x,1/2+y,-z
1/2-x,1/2-y,1/2-z
1/2+x,1/2+y,1/2-z
1/2-x,1/2+y,z
1/2+x,1/2-y,z
loop_
_atom_site_type_symbol
_atom_site_label
_atom_site_fract_x
_atom_site_fract_y
_atom_site_fract_z
Si Si1 0.033735 0.883731 0.338749
Si Si2 0.715344 0.353227 0.587131
Si Si3 0.804048 0.961728 0.191827
Si Si4 0.634339 0.980045 0.583702
Si Si5 0.626561 0.096487 0.202697
Si Si6 0.127323 0.231602 0.347560
Si Si7 0.351043 0.293223 0.672015
O O1 0.084131 0.933651 0.349641
O O2 0.130713 0.843200 0.359968
O O3 0.000000 0.874627 0.250000
O O4 0.908909 0.883058 0.393422
O O5 0.764615 0.364989 0.500000
O O6 0.821735 0.361717 0.654415
O O7 0.676501 0.302253 0.587423
O O8 0.722064 0.983924 0.124878
O O9 0.727342 0.923673 0.236936
O O10 0.855512 0.000000 0.250000
O O11 0.697366 0.966149 0.500000
O O12 0.500000 0.000000 0.563318
O O13 0.600194 0.939786 0.638287
O O14 0.500000 0.110662 0.250000
O O15 0.212527 0.275707 0.359050
O O16 0.154748 0.208033 0.265252
O O17 0.972189 0.237772 0.356218
#
# Coordination Sequence:
#
# PCOD8294023 Si02
#       7
#    16  16  16  16  16  16  16
#     4  11  19  39  59  87 122 164 210 259 304 375
#     4  11  23  40  61  88 127 163 198 257 330 381
#     4  10  21  35  60  86 121 158 215 263 301 365
#     4  10  20  35  54  80 118 155 195 253 320 374
#     4  11  20  37  58  86 113 159 206 252 302 378
#     4   9  17  34  55  90 116 159 199 255 309 374
#     4   9  16  33  60  84 121 153 209 257 304 368
#
# _framework density 20.608181999999999
#
# number of rings (size 3 to 8) (size 9 to 14) (size 15 to 20)
#    0.000    1.857    5.714    0.429    0.000    0.857 
#    7.714    2.857    0.000    2.571    0.000    0.000 
#    0.000    0.000    0.000    0.000    0.000    0.000 
#
# Total GULP energy -693784.101199 kJ/mol
# GULP energy per Si atom -12389.001807 kJ/mol
# Density = 2.056128 g / cm^3
# Si number density = 20.608182 Si / 1000 Ang^3
#
#
#
# Elastic Constant Matrix: (Units=GPa)
#
#
# Indices 1 2 3 4 5 6 
#
# 1 88.0779 50.2725 31.2207 0.0002 -0.0001 0.0000
# 2 50.2725 78.3604 18.5861 0.0001 -0.0001 0.0000
# 3 31.2207 18.5861 102.2086 0.0015 -0.0003 -0.0004
# 4 0.0002 0.0001 0.0015 20.9395 -0.0002 -0.0001
# 5 -0.0001 -0.0001 -0.0003 -0.0002 21.1916 0.0002
# 6 0.0000 0.0000 -0.0004 -0.0001 0.0002 35.5825
#
#
#
# Elastic Compliance Matrix: (Units=1/GPa)
#
#
# Indices 1 2 3 4 5 6 
#
# 1 0.019224 -0.011434 -0.003793 0.000000 0.000000 0.000000
# 2 -0.011434 0.020137 -0.000169 0.000000 0.000000 0.000000
# 3 -0.003793 -0.000169 0.010973 -0.000001 0.000000 0.000000
# 4 0.000000 0.000000 -0.000001 0.047757 0.000000 0.000000
# 5 0.000000 0.000000 0.000000 0.000000 0.047188 0.000000
# 6 0.000000 0.000000 0.000000 0.000000 0.000000 0.028104
#
#
# Mechanical properties :
#
#
# Convention : Reuss Voigt Hill
#
# Bulk Modulus (GPa) = 51.17060 52.08948 51.63004
# Shear Modulus (GPa) = 23.73160 26.78055 25.25607
#
# Velocity S-wave (km/s) = 3.39715 3.60878 3.50456
# Velocity P-wave (km/s) = 6.34599 6.53417 6.44077
#
# Compressibility (1/GPa) = 0.01954247
#
# Stress axis : x y z
#
# Youngs Moduli (GPa) = 52.01792 49.65972 91.13004
#
# Poissons Ratio (x) = 0.56779 0.34566
# Poissons Ratio (y) = 0.59476 0.01543
# Poissons Ratio (z) = 0.19731 0.00841
#
# Static dielectric constant tensor:
#      x y z
#    x 3.756300 0.000000 0.000000 
#    y 0.000000 3.585050 0.000000 
#    z 0.000000 0.000000 3.622020 
# 
# 
# High freq. dielectric constant tensor:
#      x y z
#    x 1.797320 0.000000 0.000000 
#    y 0.000000 1.797660 0.000000 
#    z 0.000000 0.000000 1.783400 
# 
# From -- ./inp_files/20665.got.cif
#   From: 2010.03.12/outbox.cif.g09.slc.cpg/sg72_11_cif.got.tgz:20665.got - 2010.04.16 14:54:00.
