data_PCOD8294058
_publ_section_title
;
Structure prediction by ZEFSAII (Michael W. Deem and Ramdas Pophale) SiO2 
 PCOD8294058
Probable space group: I B A M
;
_chemical_formula_sum "Si O2"
_cell_formula_units_Z 112
_cell_length_a 20.486845
_cell_length_b 11.304613
_cell_length_c 22.627775
_cell_angle_alpha 90.000000
_cell_angle_beta 90.000000
_cell_angle_gamma 90.000000
_cell_volume 5240.498882
_symmetry_space_group_name_H-M "I B A M"
_symmetry_group_IT_number 72
_symmetry_cell_setting 'orthorhombic'
loop_
_space_group_symop_operation_xyz
x,y,z
-x,-y,z
x,-y,1/2-z
-x,y,1/2-z
-x,-y,-z
x,y,-z
-x,y,1/2+z
x,-y,1/2+z
1/2+x,1/2+y,1/2+z
1/2-x,1/2-y,1/2+z
1/2+x,1/2-y,-z
1/2-x,1/2+y,-z
1/2-x,1/2-y,1/2-z
1/2+x,1/2+y,1/2-z
1/2-x,1/2+y,z
1/2+x,1/2-y,z
loop_
_atom_site_type_symbol
_atom_site_label
_atom_site_fract_x
_atom_site_fract_y
_atom_site_fract_z
Si Si1 0.749798 0.842761 0.861847
Si Si2 0.535490 0.879964 0.832633
Si Si3 0.126552 0.575581 0.933183
Si Si4 0.646950 0.486103 0.683658
Si Si5 0.923671 0.200515 0.334722
Si Si6 0.849058 0.264415 0.222237
Si Si7 0.347303 0.799665 0.932978
O O1 0.687433 0.865283 0.901975
O O2 0.797546 0.957268 0.859210
O O3 0.723948 0.808805 0.795286
O O4 0.783772 0.732387 0.894615
O O5 0.558715 0.889483 0.900773
O O6 0.490552 0.765007 0.817569
O O7 0.599197 0.867732 0.792076
O O8 0.500000 0.000000 0.813195
O O9 0.137969 0.436756 0.930690
O O10 0.120610 0.621646 0.000000
O O11 0.673077 0.500000 0.750000
O O12 0.577742 0.557086 0.672184
O O13 0.635222 0.345841 0.676817
O O14 0.860570 0.235898 0.291866
O O15 0.908858 0.235997 0.402013
O O16 0.340070 0.753343 0.000000
#
# Coordination Sequence:
#
# PCOD8294058 Si02
#       7
#    16  16  16  16  16  16  16
#     4  10  20  35  58  87 117 151 191 244 295 358
#     4  11  22  39  56  84 114 151 198 247 295 346
#     4  10  21  36  56  83 114 154 199 249 299 345
#     4   9  20  37  56  84 116 153 188 227 286 358
#     4  10  21  37  57  83 115 151 196 238 293 350
#     4  10  22  37  58  86 118 153 189 240 297 352
#     4  10  20  35  56  81 114 152 195 240 288 348
#
# _framework density 21.37201
#
# number of rings (size 3 to 8) (size 9 to 14) (size 15 to 20)
#    0.000    2.000    1.429    1.714    0.000    8.857 
#    0.000    2.143    0.000    7.714    0.000    8.000 
#    0.000    0.000    0.000    0.000    0.000    0.000 
#
# Total GULP energy -693804.110117 kJ/mol
# GULP energy per Si atom -12389.359109 kJ/mol
# Density = 2.132337 g / cm^3
# Si number density = 21.372010 Si / 1000 Ang^3
#
#
#
# Elastic Constant Matrix: (Units=GPa)
#
#
# Indices 1 2 3 4 5 6 
#
# 1 66.6526 21.5789 12.4821 0.0000 0.0000 0.0000
# 2 21.5789 82.5520 8.5737 0.0000 0.0000 0.0000
# 3 12.4821 8.5737 99.2505 0.0000 0.0000 0.0000
# 4 0.0000 0.0000 0.0000 25.8245 0.0000 0.0000
# 5 0.0000 0.0000 0.0000 0.0000 22.1795 0.0000
# 6 0.0000 0.0000 0.0000 0.0000 0.0000 32.8498
#
#
#
# Elastic Compliance Matrix: (Units=1/GPa)
#
#
# Indices 1 2 3 4 5 6 
#
# 1 0.016682 -0.004180 -0.001737 0.000000 0.000000 0.000000
# 2 -0.004180 0.013271 -0.000621 0.000000 0.000000 0.000000
# 3 -0.001737 -0.000621 0.010348 0.000000 0.000000 0.000000
# 4 0.000000 0.000000 0.000000 0.038723 0.000000 0.000000
# 5 0.000000 0.000000 0.000000 0.000000 0.045087 0.000000
# 6 0.000000 0.000000 0.000000 0.000000 0.000000 0.030442
#
#
# Mechanical properties :
#
#
# Convention : Reuss Voigt Hill
#
# Bulk Modulus (GPa) = 36.73141 37.08048 36.90595
# Shear Modulus (GPa) = 28.29630 29.89212 29.09421
#
# Velocity S-wave (km/s) = 3.64261 3.74392 3.69361
# Velocity P-wave (km/s) = 5.90893 6.00641 5.95787
#
# Compressibility (1/GPa) = 0.02722465
#
# Stress axis : x y z
#
# Youngs Moduli (GPa) = 59.94565 75.35380 96.64114
#
# Poissons Ratio (x) = 0.31499 0.16785
# Poissons Ratio (y) = 0.25058 0.05998
# Poissons Ratio (z) = 0.10412 0.04677
#
# Static dielectric constant tensor:
#      x y z
#    x 3.810360 0.000000 0.000000 
#    y 0.000000 4.091380 0.000000 
#    z 0.000000 0.000000 4.010710 
# 
# 
# High freq. dielectric constant tensor:
#      x y z
#    x 1.834220 0.000000 0.000000 
#    y 0.000000 1.834040 0.000000 
#    z 0.000000 0.000000 1.827880 
# 
# From -- ./inp_files/43507.got.cif
#   From: 2010.03.12/outbox.cif.g09.slc.cpg/sg72_22_cif.got.tgz:43507.got - 2010.04.16 14:54:00.
