data_PCOD8294119
_publ_section_title
;
Structure prediction by ZEFSAII (Michael W. Deem and Ramdas Pophale) SiO2 
 PCOD8294119
Probable space group: I B A M
;
_chemical_formula_sum "Si O2"
_cell_formula_units_Z 68
_cell_length_a 15.238192
_cell_length_b 6.467286
_cell_length_c 27.934113
_cell_angle_alpha 90.000000
_cell_angle_beta 90.000000
_cell_angle_gamma 90.000000
_cell_volume 2752.899735
_symmetry_space_group_name_H-M "I B A M"
_symmetry_group_IT_number 72
_symmetry_cell_setting 'orthorhombic'
loop_
_space_group_symop_operation_xyz
x,y,z
-x,-y,z
x,-y,1/2-z
-x,y,1/2-z
-x,-y,-z
x,y,-z
-x,y,1/2+z
x,-y,1/2+z
1/2+x,1/2+y,1/2+z
1/2-x,1/2-y,1/2+z
1/2+x,1/2-y,-z
1/2-x,1/2+y,-z
1/2-x,1/2-y,1/2-z
1/2+x,1/2+y,1/2-z
1/2-x,1/2+y,z
1/2+x,1/2-y,z
loop_
_atom_site_type_symbol
_atom_site_label
_atom_site_fract_x
_atom_site_fract_y
_atom_site_fract_z
Si Si1 0.000000 0.000000 0.750000
Si Si2 0.179202 0.622885 0.900300
Si Si3 0.873808 0.833730 0.101602
Si Si4 0.529572 0.761427 0.835111
Si Si5 0.431859 0.701306 0.000000
Si Si6 0.124036 0.324033 0.500000
O O1 0.945401 0.843025 0.715847
O O2 0.126710 0.412905 0.902003
O O3 0.277930 0.585050 0.881069
O O4 0.183659 0.724395 0.953305
O O5 0.117705 0.770896 0.867529
O O6 0.949553 0.872990 0.141062
O O7 0.895696 0.912954 0.047928
O O8 0.500000 0.000000 0.827773
O O9 0.537855 0.678331 0.000000
O O10 0.406462 0.940241 0.000000
#
# Coordination Sequence:
#
# PCOD8294119 Si02
#       6
#     4  16  16  16   8   8
#     4  12  26  44  76  88 120 154 218 284 320 372
#     4  10  20  35  61  90 128 165 207 250 305 377
#     4  10  20  35  61  90 128 165 207 250 305 377
#     4  10  23  44  67  92 122 167 205 260 329 377
#     4   9  15  30  55  88 125 174 206 237 300 372
#     4   9  15  30  55  88 125 174 206 237 300 372
#
# _framework density 24.701228
#
# number of rings (size 3 to 8) (size 9 to 14) (size 15 to 20)
#    0.000    2.118    2.353    1.059    3.294    0.000 
#    0.000    1.176    0.000    2.824    0.000    0.000 
#    0.000    0.000    0.000    0.000    0.000    0.000 
#
# Total GULP energy -421432.218738 kJ/mol
# GULP energy per Si atom -12395.065257 kJ/mol
# Density = 2.464501 g / cm^3
# Si number density = 24.701228 Si / 1000 Ang^3
#
#
#
# Elastic Constant Matrix: (Units=GPa)
#
#
# Indices 1 2 3 4 5 6 
#
# 1 172.2069 35.5096 69.6090 0.0000 0.0000 0.0000
# 2 35.5096 56.9853 33.2172 0.0000 0.0000 0.0000
# 3 69.6090 33.2172 184.7698 0.0000 0.0000 0.0000
# 4 0.0000 0.0000 0.0000 22.9460 0.0000 0.0000
# 5 0.0000 0.0000 0.0000 0.0000 15.5827 0.0000
# 6 0.0000 0.0000 0.0000 0.0000 0.0000 44.9370
#
#
#
# Elastic Compliance Matrix: (Units=1/GPa)
#
#
# Indices 1 2 3 4 5 6 
#
# 1 0.007374 -0.003324 -0.002180 0.000000 0.000000 0.000000
# 2 -0.003324 0.021101 -0.002541 0.000000 0.000000 0.000000
# 3 -0.002180 -0.002541 0.006690 0.000000 0.000000 0.000000
# 4 0.000000 0.000000 0.000000 0.043581 0.000000 0.000000
# 5 0.000000 0.000000 0.000000 0.000000 0.064174 0.000000
# 6 0.000000 0.000000 0.000000 0.000000 0.000000 0.022253
#
#
# Mechanical properties :
#
#
# Convention : Reuss Voigt Hill
#
# Bulk Modulus (GPa) = 52.42715 76.73707 64.58211
# Shear Modulus (GPa) = 26.64936 35.06821 30.85879
#
# Velocity S-wave (km/s) = 3.28818 3.77197 3.53835
# Velocity P-wave (km/s) = 5.97384 7.07841 6.54945
#
# Compressibility (1/GPa) = 0.01907409
#
# Stress axis : x y z
#
# Youngs Moduli (GPa) = 135.61699 47.39135 149.46763
#
# Poissons Ratio (x) = 0.15752 0.32590
# Poissons Ratio (y) = 0.45077 0.37983
# Poissons Ratio (z) = 0.29570 0.12043
#
# Static dielectric constant tensor:
#      x y z
#    x 4.205010 0.000000 0.000000 
#    y 0.000000 4.822330 0.000000 
#    z 0.000000 0.000000 4.372460 
# 
# 
# High freq. dielectric constant tensor:
#      x y z
#    x 1.968370 0.000000 0.000000 
#    y 0.000000 2.047540 0.000000 
#    z 0.000000 0.000000 1.945660 
# 
# From -- ./inp_files/44724.got.cif
#   From: 2010.03.12/outbox.cif.g09.slc.cpg/sg72_23_cif.got.tgz:44724.got - 2010.04.16 14:54:00.
