data_PCOD8294357
_publ_section_title
;
Structure prediction by ZEFSAII (Michael W. Deem and Ramdas Pophale) SiO2 
 PCOD8294357
Probable space group: I B A M
;
_chemical_formula_sum "Si O2"
_cell_formula_units_Z 96
_cell_length_a 24.426955
_cell_length_b 23.641008
_cell_length_c 8.485161
_cell_angle_alpha 90.000000
_cell_angle_beta 90.000000
_cell_angle_gamma 90.000000
_cell_volume 4899.992434
_symmetry_space_group_name_H-M "I B A M"
_symmetry_group_IT_number 72
_symmetry_cell_setting 'orthorhombic'
loop_
_space_group_symop_operation_xyz
x,y,z
-x,-y,z
x,-y,1/2-z
-x,y,1/2-z
-x,-y,-z
x,y,-z
-x,y,1/2+z
x,-y,1/2+z
1/2+x,1/2+y,1/2+z
1/2-x,1/2-y,1/2+z
1/2+x,1/2-y,-z
1/2-x,1/2+y,-z
1/2-x,1/2-y,1/2-z
1/2+x,1/2+y,1/2-z
1/2-x,1/2+y,z
1/2+x,1/2-y,z
loop_
_atom_site_type_symbol
_atom_site_label
_atom_site_fract_x
_atom_site_fract_y
_atom_site_fract_z
Si Si1 0.558769 0.143708 0.814153
Si Si2 0.646236 0.940867 0.814959
Si Si3 0.558876 0.726406 0.314991
Si Si4 0.765627 0.938992 0.315548
Si Si5 0.643833 0.635105 0.682554
Si Si6 0.053966 0.061960 0.687436
O O1 0.500000 0.124151 0.750000
O O2 0.604389 0.108504 0.724560
O O3 0.569788 0.208797 0.768920
O O4 0.561859 0.133087 0.000000
O O5 0.703665 0.927064 0.733901
O O6 0.622341 0.000000 0.750000
O O7 0.655537 0.945602 0.000000
O O8 0.500000 0.706340 0.250000
O O9 0.556456 0.717130 0.500000
O O10 0.610415 0.689604 0.246659
O O11 0.770381 0.943998 0.500000
O O12 0.798900 0.882679 0.262214
O O13 0.786478 0.000000 0.250000
O O14 0.655790 0.644547 0.500000
O O15 0.606128 0.581912 0.716883
O O16 0.061497 0.067071 0.500000
O O17 0.000000 0.095994 0.750000
O O18 0.045868 0.000000 0.750000
#
# Coordination Sequence:
#
# PCOD8294357 Si02
#       6
#    16  16  16  16  16  16
#     4  10  20  38  61  89 119 150 184 224 272 329
#     4  11  22  39  62  89 117 149 182 223 274 331
#     4   9  20  36  57  81 112 149 188 232 281 330
#     4  11  22  38  58  82 111 148 188 234 283 334
#     4  11  21  35  53  77 106 143 188 233 276 329
#     4  11  21  33  47  68  97 133 175 228 286 338
#
# _framework density 19.591867000000001
#
# number of rings (size 3 to 8) (size 9 to 14) (size 15 to 20)
#    0.000    1.500    0.000    8.000    0.000    3.667 
#    0.000    2.500    0.000    0.000    0.000    0.000 
#    0.000    0.000    0.000    0.000    0.000    0.000 
#
# Total GULP energy -594914.862915 kJ/mol
# GULP energy per Si atom -12394.059644 kJ/mol
# Density = 1.954728 g / cm^3
# Si number density = 19.591867 Si / 1000 Ang^3
#
#
#
# Elastic Constant Matrix: (Units=GPa)
#
#
# Indices 1 2 3 4 5 6 
#
# 1 103.5691 61.9734 25.9949 0.0000 0.0000 0.0000
# 2 61.9734 100.1060 30.6433 0.0000 0.0000 0.0000
# 3 25.9949 30.6433 92.8035 0.0000 0.0000 0.0000
# 4 0.0000 0.0000 0.0000 25.0254 0.0000 0.0000
# 5 0.0000 0.0000 0.0000 0.0000 34.6504 0.0000
# 6 0.0000 0.0000 0.0000 0.0000 0.0000 25.9927
#
#
#
# Elastic Compliance Matrix: (Units=1/GPa)
#
#
# Indices 1 2 3 4 5 6 
#
# 1 0.015477 -0.009183 -0.001303 0.000000 0.000000 0.000000
# 2 -0.009183 0.016561 -0.002896 0.000000 0.000000 0.000000
# 3 -0.001303 -0.002896 0.012097 0.000000 0.000000 0.000000
# 4 0.000000 0.000000 0.000000 0.039959 0.000000 0.000000
# 5 0.000000 0.000000 0.000000 0.000000 0.028860 0.000000
# 6 0.000000 0.000000 0.000000 0.000000 0.000000 0.038472
#
#
# Mechanical properties :
#
#
# Convention : Reuss Voigt Hill
#
# Bulk Modulus (GPa) = 57.56824 59.30018 58.43421
# Shear Modulus (GPa) = 27.17684 28.99152 28.08418
#
# Velocity S-wave (km/s) = 3.72849 3.85096 3.79022
# Velocity P-wave (km/s) = 6.92698 7.07860 7.00320
#
# Compressibility (1/GPa) = 0.01737069
#
# Stress axis : x y z
#
# Youngs Moduli (GPa) = 64.61138 60.38388 82.66661
#
# Poissons Ratio (x) = 0.55448 0.10773
# Poissons Ratio (y) = 0.59330 0.23942
# Poissons Ratio (z) = 0.08420 0.17488
#
# Static dielectric constant tensor:
#      x y z
#    x 3.752860 0.000000 0.000000 
#    y 0.000000 3.641840 0.000000 
#    z 0.000000 0.000000 3.728360 
# 
# 
# High freq. dielectric constant tensor:
#      x y z
#    x 1.764830 0.000000 0.000000 
#    y 0.000000 1.755550 0.000000 
#    z 0.000000 0.000000 1.772060 
# 
# From -- ./inp_files/6995.got.cif
#   From: 2010.03.12/outbox.cif.g09.slc.cpg/sg72_4_cif.got.tgz:6995.got - 2010.04.16 14:54:00.
