data_PCOD8294820
_publ_section_title
;
Structure prediction by ZEFSAII (Michael W. Deem and Ramdas Pophale) SiO2 
 PCOD8294820
Probable space group: I B A M
;
_chemical_formula_sum "Si O2"
_cell_formula_units_Z 72
_cell_length_a 25.306589
_cell_length_b 11.774128
_cell_length_c 10.899523
_cell_angle_alpha 90.000000
_cell_angle_beta 90.000000
_cell_angle_gamma 90.000000
_cell_volume 3247.654769
_symmetry_space_group_name_H-M "I B A M"
_symmetry_group_IT_number 72
_symmetry_cell_setting 'orthorhombic'
loop_
_space_group_symop_operation_xyz
x,y,z
-x,-y,z
x,-y,1/2-z
-x,y,1/2-z
-x,-y,-z
x,y,-z
-x,y,1/2+z
x,-y,1/2+z
1/2+x,1/2+y,1/2+z
1/2-x,1/2-y,1/2+z
1/2+x,1/2-y,-z
1/2-x,1/2+y,-z
1/2-x,1/2-y,1/2-z
1/2+x,1/2+y,1/2-z
1/2-x,1/2+y,z
1/2+x,1/2-y,z
loop_
_atom_site_type_symbol
_atom_site_label
_atom_site_fract_x
_atom_site_fract_y
_atom_site_fract_z
Si Si1 0.189484 0.810288 0.368556
Si Si2 0.958517 0.169890 0.141160
Si Si3 0.378728 0.500000 0.750000
Si Si4 0.084476 0.579532 0.134030
Si Si5 0.800822 0.386815 0.810343
O O1 0.167502 0.774328 0.500000
O O2 0.176644 0.703647 0.285550
O O3 0.252537 0.831622 0.383462
O O4 0.159214 0.922334 0.329869
O O5 0.936514 0.295463 0.163208
O O6 0.000000 0.144308 0.250000
O O7 0.912785 0.076725 0.157060
O O8 0.980761 0.157950 0.000000
O O9 0.067834 0.500000 0.250000
O O10 0.147682 0.580728 0.111750
O O11 0.061889 0.537496 0.000000
O O12 0.777109 0.500000 0.750000
#
# Coordination Sequence:
#
# PCOD8294820 Si02
#       5
#    16  16   8  16  16
#     4  11  23  38  63  95 132 179 223 267 324 396
#     4  11  26  47  71  97 131 172 222 282 339 394
#     4  12  23  46  64  98 136 170 223 272 334 392
#     4  10  22  42  67  98 136 174 216 271 332 392
#     4  10  21  41  60  94 134 176 222 267 322 389
#
# _framework density 22.169844000000001
#
# number of rings (size 3 to 8) (size 9 to 14) (size 15 to 20)
#    0.000    1.333    3.333    1.667    0.000    8.444 
#    0.000    2.222    0.000    0.000    0.000    0.000 
#    0.000    0.000    0.000    0.000    0.000    0.000 
#
# Total GULP energy -446057.013200 kJ/mol
# GULP energy per Si atom -12390.472589 kJ/mol
# Density = 2.211938 g / cm^3
# Si number density = 22.169844 Si / 1000 Ang^3
#
#
#
# Elastic Constant Matrix: (Units=GPa)
#
#
# Indices 1 2 3 4 5 6 
#
# 1 66.4555 20.0991 33.5115 0.0000 0.0000 0.0000
# 2 20.0991 133.7862 65.9160 0.0000 0.0000 0.0000
# 3 33.5115 65.9160 181.2656 0.0000 0.0000 0.0000
# 4 0.0000 0.0000 0.0000 16.4219 0.0000 0.0000
# 5 0.0000 0.0000 0.0000 0.0000 -22.7537 0.0000
# 6 0.0000 0.0000 0.0000 0.0000 0.0000 35.4269
#
#
#
# Elastic Compliance Matrix: (Units=1/GPa)
#
#
# Indices 1 2 3 4 5 6 
#
# 1 0.016753 -0.001207 -0.002658 0.000000 0.000000 0.000000
# 2 -0.001207 0.009193 -0.003120 0.000000 0.000000 0.000000
# 3 -0.002658 -0.003120 0.007143 0.000000 0.000000 0.000000
# 4 0.000000 0.000000 0.000000 0.060894 0.000000 0.000000
# 5 0.000000 0.000000 0.000000 0.000000 -0.043949 0.000000
# 6 0.000000 0.000000 0.000000 0.000000 0.000000 0.028227
#
#
# Mechanical properties :
#
#
# Convention : Reuss Voigt Hill
#
# Bulk Modulus (GPa) = 52.30534 68.95120 60.62827
# Shear Modulus (GPa) = 50.70732 23.28439 36.99586
#
# Velocity S-wave (km/s) = 4.78768 3.24431 4.08946
# Velocity P-wave (km/s) = 7.36252 6.72331 7.05016
#
# Compressibility (1/GPa) = 0.01911851
#
# Stress axis : x y z
#
# Youngs Moduli (GPa) = 59.68993 108.77725 140.00259
#
# Poissons Ratio (x) = 0.13131 0.37217
# Poissons Ratio (y) = 0.07206 0.43679
# Poissons Ratio (z) = 0.15867 0.33937
#
# Static dielectric constant tensor:
#      x y z
#    x 3.856510 0.000000 0.000000 
#    y 0.000000 4.040790 0.000000 
#    z 0.000000 0.000000 4.006900 
# 
# 
# High freq. dielectric constant tensor:
#      x y z
#    x 1.864240 0.000000 0.000000 
#    y 0.000000 1.882820 0.000000 
#    z 0.000000 0.000000 1.877250 
# 
# From -- ./inp_files/16076.got.cif
#   From: 2010.03.12/outbox.cif.g09.slc.cpg/sg72_9_cif.got.tgz:16076.got - 2010.04.16 14:54:00.
