data_PCOD8294924
_publ_section_title
;
Structure prediction by ZEFSAII (Michael W. Deem and Ramdas Pophale) SiO2 
 PCOD8294924
Probable space group: I B A M
;
_chemical_formula_sum "Si O2"
_cell_formula_units_Z 72
_cell_length_a 26.958466
_cell_length_b 9.485106
_cell_length_c 14.125206
_cell_angle_alpha 90.000000
_cell_angle_beta 90.000000
_cell_angle_gamma 90.000000
_cell_volume 3611.870370
_symmetry_space_group_name_H-M "I B A M"
_symmetry_group_IT_number 72
_symmetry_cell_setting 'orthorhombic'
loop_
_space_group_symop_operation_xyz
x,y,z
-x,-y,z
x,-y,1/2-z
-x,y,1/2-z
-x,-y,-z
x,y,-z
-x,y,1/2+z
x,-y,1/2+z
1/2+x,1/2+y,1/2+z
1/2-x,1/2-y,1/2+z
1/2+x,1/2-y,-z
1/2-x,1/2+y,-z
1/2-x,1/2-y,1/2-z
1/2+x,1/2+y,1/2-z
1/2-x,1/2+y,z
1/2+x,1/2-y,z
loop_
_atom_site_type_symbol
_atom_site_label
_atom_site_fract_x
_atom_site_fract_y
_atom_site_fract_z
Si Si1 0.451981 0.410395 0.888321
Si Si2 0.455981 0.906779 0.611014
Si Si3 0.807859 0.723425 0.246632
Si Si4 0.653881 0.987646 0.889210
Si Si5 0.629524 0.500000 0.250000
O O1 0.500000 0.500000 0.859015
O O2 0.457255 0.251596 0.847274
O O3 0.404043 0.481779 0.842687
O O4 0.443217 0.411535 0.000000
O O5 0.464917 0.892282 0.500000
O O6 0.404789 0.987054 0.633010
O O7 0.500000 0.000000 0.656980
O O8 0.750000 0.750000 0.250000
O O9 0.823359 0.655422 0.346726
O O10 0.821389 0.622143 0.159338
O O11 0.835682 0.868332 0.230057
O O12 0.665467 0.991156 0.000000
#
# Coordination Sequence:
#
# PCOD8294924 Si02
#       5
#    16  16  16  16   8
#     4  10  22  39  60  92 131 165 203 253 308 374
#     4   9  18  36  63  91 122 161 205 253 301 364
#     4  11  25  44  64  92 127 161 209 272 315 363
#     4  10  22  44  68  92 123 165 212 253 311 378
#     4  12  23  40  64  92 128 166 205 254 326 376
#
# _framework density 19.934269
#
# number of rings (size 3 to 8) (size 9 to 14) (size 15 to 20)
#    0.000    1.778    2.222    1.667    3.111    1.778 
#    0.000    4.444    0.000    0.000    0.000    0.000 
#    0.000    0.000    0.000    0.000    0.000    0.000 
#
# Total GULP energy -446509.130317 kJ/mol
# GULP energy per Si atom -12403.031398 kJ/mol
# Density = 1.988890 g / cm^3
# Si number density = 19.934269 Si / 1000 Ang^3
#
#
#
# Elastic Constant Matrix: (Units=GPa)
#
#
# Indices 1 2 3 4 5 6 
#
# 1 180.9375 89.7641 54.6612 0.0000 0.0000 0.0000
# 2 89.7641 170.5629 53.0561 0.0000 0.0000 0.0000
# 3 54.6612 53.0561 93.7629 0.0000 0.0000 0.0000
# 4 0.0000 0.0000 0.0000 28.5194 0.0000 0.0000
# 5 0.0000 0.0000 0.0000 0.0000 25.6612 0.0000
# 6 0.0000 0.0000 0.0000 0.0000 0.0000 75.9121
#
#
#
# Elastic Compliance Matrix: (Units=1/GPa)
#
#
# Indices 1 2 3 4 5 6 
#
# 1 0.008036 -0.003364 -0.002781 0.000000 0.000000 0.000000
# 2 -0.003364 0.008524 -0.002862 0.000000 0.000000 0.000000
# 3 -0.002781 -0.002862 0.013906 0.000000 0.000000 0.000000
# 4 0.000000 0.000000 0.000000 0.035064 0.000000 0.000000
# 5 0.000000 0.000000 0.000000 0.000000 0.038969 0.000000
# 6 0.000000 0.000000 0.000000 0.000000 0.000000 0.013173
#
#
# Mechanical properties :
#
#
# Convention : Reuss Voigt Hill
#
# Bulk Modulus (GPa) = 80.31371 93.35845 86.83608
# Shear Modulus (GPa) = 35.75604 42.53733 39.14669
#
# Velocity S-wave (km/s) = 4.23980 4.62441 4.43627
# Velocity P-wave (km/s) = 8.02151 8.68610 8.36041
#
# Compressibility (1/GPa) = 0.01245117
#
# Stress axis : x y z
#
# Youngs Moduli (GPa) = 124.44227 117.32111 71.91140
#
# Poissons Ratio (x) = 0.39467 0.20000
# Poissons Ratio (y) = 0.41862 0.20581
# Poissons Ratio (z) = 0.34609 0.33577
#
# Static dielectric constant tensor:
#      x y z
#    x 3.663100 0.000000 0.000000 
#    y 0.000000 3.919270 0.000000 
#    z 0.000000 0.000000 3.479160 
# 
# 
# High freq. dielectric constant tensor:
#      x y z
#    x 1.784310 0.000000 0.000000 
#    y 0.000000 1.790650 0.000000 
#    z 0.000000 0.000000 1.774420 
# 
# From -- ./inp_files/18882.got.cif
#   From: 2010.03.12/outbox.cif.g09.slc.cpg/sg72_10_cif.got.tgz:18882.got - 2010.04.16 14:54:00.
