data_PCOD8294066
_publ_section_title
;
Structure prediction by ZEFSAII (Michael W. Deem and Ramdas Pophale) SiO2 
 PCOD8294066
Probable space group: I B A M
;
_chemical_formula_sum "Si O2"
_cell_formula_units_Z 112
_cell_length_a 20.852266
_cell_length_b 18.559085
_cell_length_c 14.871110
_cell_angle_alpha 90.000000
_cell_angle_beta 90.000000
_cell_angle_gamma 90.000000
_cell_volume 5755.104359
_symmetry_space_group_name_H-M "I B A M"
_symmetry_group_IT_number 72
_symmetry_cell_setting 'orthorhombic'
loop_
_space_group_symop_operation_xyz
x,y,z
-x,-y,z
x,-y,1/2-z
-x,y,1/2-z
-x,-y,-z
x,y,-z
-x,y,1/2+z
x,-y,1/2+z
1/2+x,1/2+y,1/2+z
1/2-x,1/2-y,1/2+z
1/2+x,1/2-y,-z
1/2-x,1/2+y,-z
1/2-x,1/2-y,1/2-z
1/2+x,1/2+y,1/2-z
1/2-x,1/2+y,z
1/2+x,1/2-y,z
loop_
_atom_site_type_symbol
_atom_site_label
_atom_site_fract_x
_atom_site_fract_y
_atom_site_fract_z
Si Si1 0.617672 0.825143 0.894537
Si Si2 0.759497 0.581891 0.102851
Si Si3 0.882368 0.674857 0.105484
Si Si4 0.844381 0.917905 0.749993
Si Si5 0.923688 0.217732 0.250009
Si Si6 0.259475 0.918102 0.602853
Si Si7 0.000020 0.579231 0.393681
O O1 0.608574 0.752143 0.838712
O O2 0.684883 0.862439 0.870865
O O3 0.562874 0.879429 0.860960
O O4 0.611860 0.806807 0.000000
O O5 0.815163 0.637530 0.129115
O O6 0.697774 0.598676 0.162199
O O7 0.784152 0.499993 0.119314
O O8 0.738819 0.592875 0.000000
O O9 0.891405 0.747907 0.161245
O O10 0.937203 0.620688 0.139300
O O11 0.888242 0.693101 0.000000
O O12 0.906225 0.866671 0.749972
O O13 0.802258 0.901329 0.837816
O O14 0.869292 0.000000 0.750000
O O15 0.000000 0.226651 0.250000
O O16 0.238802 0.907124 0.500000
O O17 0.000229 0.572848 0.500000
O O18 0.000000 0.500000 0.349914
#
# Coordination Sequence:
#
# PCOD8294066 Si02
#       7
#    16  16  16  16  16  16  16
#     4  10  20  35  56  84 118 153 184 221 271 328
#     4   9  18  35  60  88 117 148 183 224 273 332
#     4  10  20  35  56  84 118 153 184 221 271 328
#     4  10  23  42  61  80 105 139 187 247 295 335
#     4  12  25  40  57  79 110 148 192 237 284 335
#     4   9  18  35  60  88 117 148 183 224 273 332
#     4   9  16  29  51  79 114 156 190 212 246 307
#
# _framework density 19.460985999999998
#
# number of rings (size 3 to 8) (size 9 to 14) (size 15 to 20)
#    0.000    2.143    1.429    1.714    0.000    7.143 
#    0.000    5.714    0.000    0.000    0.000    6.000 
#    0.000    0.000    0.000    0.000    0.000    0.000 
#
# Total GULP energy -694450.669258 kJ/mol
# GULP energy per Si atom -12400.904808 kJ/mol
# Density = 1.941669 g / cm^3
# Si number density = 19.460986 Si / 1000 Ang^3
#
#
#
# Elastic Constant Matrix: (Units=GPa)
#
#
# Indices 1 2 3 4 5 6 
#
# 1 54.8883 46.0537 31.0294 0.0000 0.0000 0.0000
# 2 46.0537 120.1354 42.9289 0.0000 0.0000 0.0000
# 3 31.0294 42.9289 87.8797 0.0000 0.0000 0.0000
# 4 0.0000 0.0000 0.0000 24.6037 0.0000 0.0000
# 5 0.0000 0.0000 0.0000 0.0000 16.7952 0.0000
# 6 0.0000 0.0000 0.0000 0.0000 0.0000 37.3926
#
#
#
# Elastic Compliance Matrix: (Units=1/GPa)
#
#
# Indices 1 2 3 4 5 6 
#
# 1 0.029149 -0.009082 -0.005856 0.000000 0.000000 0.000000
# 2 -0.009082 0.012914 -0.003102 0.000000 0.000000 0.000000
# 3 -0.005856 -0.003102 0.014962 0.000000 0.000000 0.000000
# 4 0.000000 0.000000 0.000000 0.040644 0.000000 0.000000
# 5 0.000000 0.000000 0.000000 0.000000 0.059541 0.000000
# 6 0.000000 0.000000 0.000000 0.000000 0.000000 0.026743
#
#
# Mechanical properties :
#
#
# Convention : Reuss Voigt Hill
#
# Bulk Modulus (GPa) = 47.74089 55.88079 51.81084
# Shear Modulus (GPa) = 22.02505 25.28438 23.65472
#
# Velocity S-wave (km/s) = 3.36781 3.60840 3.49018
# Velocity P-wave (km/s) = 6.30140 6.79245 6.55153
#
# Compressibility (1/GPa) = 0.02094640
#
# Stress axis : x y z
#
# Youngs Moduli (GPa) = 34.30617 77.43674 66.83606
#
# Poissons Ratio (x) = 0.70326 0.39138
# Poissons Ratio (y) = 0.31156 0.20730
# Poissons Ratio (z) = 0.20089 0.24018
#
# Static dielectric constant tensor:
#      x y z
#    x 3.306380 0.000000 0.000000 
#    y 0.000000 3.487380 0.000000 
#    z 0.000000 0.000000 3.603270 
# 
# 
# High freq. dielectric constant tensor:
#      x y z
#    x 1.739750 0.000000 0.000000 
#    y 0.000000 1.748350 0.000000 
#    z 0.000000 0.000000 1.766260 
# 
# From -- ./inp_files/25195.got.cif
#   From: 2010.03.12/outbox.cif.g09.slc.cpg/sg72_13_cif.got.tgz:25195.got - 2010.04.16 14:54:00.
