data_PCOD8294862
_publ_section_title
;
Structure prediction by ZEFSAII (Michael W. Deem and Ramdas Pophale) SiO2 
 PCOD8294862
Probable space group: I B A M
;
_chemical_formula_sum "Si O2"
_cell_formula_units_Z 112
_cell_length_a 15.735914
_cell_length_b 24.809188
_cell_length_c 14.542331
_cell_angle_alpha 90.000000
_cell_angle_beta 90.000000
_cell_angle_gamma 90.000000
_cell_volume 5677.256929
_symmetry_space_group_name_H-M "I B A M"
_symmetry_group_IT_number 72
_symmetry_cell_setting 'orthorhombic'
loop_
_space_group_symop_operation_xyz
x,y,z
-x,-y,z
x,-y,1/2-z
-x,y,1/2-z
-x,-y,-z
x,y,-z
-x,y,1/2+z
x,-y,1/2+z
1/2+x,1/2+y,1/2+z
1/2-x,1/2-y,1/2+z
1/2+x,1/2-y,-z
1/2-x,1/2+y,-z
1/2-x,1/2-y,1/2-z
1/2+x,1/2+y,1/2-z
1/2-x,1/2+y,z
1/2+x,1/2-y,z
loop_
_atom_site_type_symbol
_atom_site_label
_atom_site_fract_x
_atom_site_fract_y
_atom_site_fract_z
Si Si1 0.605953 0.444583 0.394742
Si Si2 0.414212 0.433885 0.605276
Si Si3 0.696600 0.377391 0.752407
Si Si4 0.409525 0.722107 0.253985
Si Si5 0.364034 0.060930 0.754470
Si Si6 0.995353 0.718388 0.895072
Si Si7 0.493759 0.090777 0.605744
O O1 0.616170 0.427736 0.500000
O O2 0.626880 0.507345 0.380378
O O3 0.510866 0.433410 0.359721
O O4 0.671986 0.409743 0.338405
O O5 0.411011 0.416395 0.500000
O O6 0.360083 0.391253 0.660208
O O7 0.676106 0.313684 0.738611
O O8 0.793683 0.392616 0.771931
O O9 0.500000 0.687714 0.250000
O O10 0.418200 0.759129 0.346182
O O11 0.412125 0.760322 0.162247
O O12 0.408100 0.072610 0.656801
O O13 0.427753 0.063883 0.840684
O O14 0.326129 0.000000 0.750000
O O15 0.000025 0.654620 0.889872
O O16 0.989779 0.738902 0.000000
O O17 0.492685 0.070473 0.500000
#
# Coordination Sequence:
#
# PCOD8294862 Si02
#       7
#    16  16  16  16  16  16  16
#     4   9  18  31  47  68 101 152 204 236 261 309
#     4   9  18  31  47  68 101 152 204 236 261 309
#     4  12  21  33  49  81 121 155 182 220 280 331
#     4   8  18  31  54  87 116 153 188 221 266 326
#     4  11  24  38  59  90 118 146 185 236 286 345
#     4   8  17  37  63  85 107 143 191 239 281 329
#     4  10  21  44  70  83 102 141 189 245 307 353
#
# _framework density 19.727836
#
# number of rings (size 3 to 8) (size 9 to 14) (size 15 to 20)
#    0.857    1.429    0.000    6.000    0.000    4.571 
#    0.000    2.857    0.000    3.429    0.000    0.000 
#    0.000    0.000    0.000    0.000    0.000    0.000 
#
# Total GULP energy -693842.424705 kJ/mol
# GULP energy per Si atom -12390.043298 kJ/mol
# Density = 1.968294 g / cm^3
# Si number density = 19.727836 Si / 1000 Ang^3
#
#
#
# Elastic Constant Matrix: (Units=GPa)
#
#
# Indices 1 2 3 4 5 6 
#
# 1 49.9203 8.9495 8.1192 0.0001 0.0000 0.0000
# 2 8.9495 70.6499 19.7545 0.0002 0.0000 0.0000
# 3 8.1192 19.7545 116.9387 0.0001 -0.0001 0.0001
# 4 0.0001 0.0002 0.0001 38.3405 0.0000 0.0000
# 5 0.0000 0.0000 -0.0001 0.0000 20.7660 0.0000
# 6 0.0000 0.0000 0.0001 0.0000 0.0000 20.3920
#
#
#
# Elastic Compliance Matrix: (Units=1/GPa)
#
#
# Indices 1 2 3 4 5 6 
#
# 1 0.020617 -0.002321 -0.001039 0.000000 0.000000 0.000000
# 2 -0.002321 0.015117 -0.002393 0.000000 0.000000 0.000000
# 3 -0.001039 -0.002393 0.009028 0.000000 0.000000 0.000000
# 4 0.000000 0.000000 0.000000 0.026082 0.000000 0.000000
# 5 0.000000 0.000000 0.000000 0.000000 0.048156 0.000000
# 6 0.000000 0.000000 0.000000 0.000000 0.000000 0.049039
#
#
# Mechanical properties :
#
#
# Convention : Reuss Voigt Hill
#
# Bulk Modulus (GPa) = 30.06959 34.57281 32.32120
# Shear Modulus (GPa) = 26.22878 29.27875 27.75376
#
# Velocity S-wave (km/s) = 3.65023 3.85662 3.75485
# Velocity P-wave (km/s) = 5.74812 6.11509 5.93444
#
# Compressibility (1/GPa) = 0.03325619
#
# Stress axis : x y z
#
# Youngs Moduli (GPa) = 48.50353 66.14928 110.76845
#
# Poissons Ratio (x) = 0.15353 0.11513
# Poissons Ratio (y) = 0.11258 0.26503
# Poissons Ratio (z) = 0.05041 0.15827
#
# Static dielectric constant tensor:
#      x y z
#    x 3.253690 0.000000 0.000000 
#    y 0.000000 3.455000 0.000000 
#    z 0.000000 0.000000 3.731580 
# 
# 
# High freq. dielectric constant tensor:
#      x y z
#    x 1.731270 0.000000 0.000000 
#    y 0.000000 1.764300 0.000000 
#    z 0.000000 0.000000 1.778890 
# 
# From -- ./inp_files/22149.got.cif
#   From: 2010.03.12/outbox.cif.g09.slc.cpg/sg72_12_cif.got.tgz:22149.got - 2010.04.16 14:54:00.
