data_PCOD8294327
_publ_section_title
;
Structure prediction by ZEFSAII (Michael W. Deem and Ramdas Pophale) SiO2 
 PCOD8294327
Probable space group: I B A M
;
_chemical_formula_sum "Si O2"
_cell_formula_units_Z 96
_cell_length_a 16.365127
_cell_length_b 18.908243
_cell_length_c 15.055898
_cell_angle_alpha 90.000000
_cell_angle_beta 90.000000
_cell_angle_gamma 90.000000
_cell_volume 4658.833813
_symmetry_space_group_name_H-M "I B A M"
_symmetry_group_IT_number 72
_symmetry_cell_setting 'orthorhombic'
loop_
_space_group_symop_operation_xyz
x,y,z
-x,-y,z
x,-y,1/2-z
-x,y,1/2-z
-x,-y,-z
x,y,-z
-x,y,1/2+z
x,-y,1/2+z
1/2+x,1/2+y,1/2+z
1/2-x,1/2-y,1/2+z
1/2+x,1/2-y,-z
1/2-x,1/2+y,-z
1/2-x,1/2-y,1/2-z
1/2+x,1/2+y,1/2-z
1/2-x,1/2+y,z
1/2+x,1/2-y,z
loop_
_atom_site_type_symbol
_atom_site_label
_atom_site_fract_x
_atom_site_fract_y
_atom_site_fract_z
Si Si1 0.131892 0.529988 0.500000
Si Si2 0.313597 0.308490 0.226910
Si Si3 0.466706 0.885870 0.500000
Si Si4 0.535206 0.222092 0.344048
Si Si5 0.416640 0.479867 0.402857
Si Si6 0.247704 0.041927 0.334061
Si Si7 0.104815 0.177668 0.093856
O O1 0.092018 0.453060 0.500000
O O2 0.188108 0.537701 0.586419
O O3 0.061868 0.590410 0.500000
O O4 0.250000 0.250000 0.250000
O O5 0.387509 0.274231 0.170474
O O6 0.272297 0.375006 0.178150
O O7 0.336056 0.333028 0.324612
O O8 0.444284 0.842389 0.410335
O O9 0.500000 0.192705 0.250000
O O10 0.465405 0.266019 0.391180
O O11 0.500000 0.500000 0.350816
O O12 0.410901 0.517326 0.500000
O O13 0.336302 0.500002 0.349303
O O14 0.433107 0.398228 0.418423
O O15 0.287241 0.000000 0.250000
O O16 0.149492 0.198842 0.000000
#
# Coordination Sequence:
#
# PCOD8294327 Si02
#       7
#     8  16   8  16  16  16  16
#     4  11  30  47  72 101 133 184 257 291 355 412
#     4  11  26  42  63 104 135 179 226 283 355 424
#     4  11  26  51  73  99 130 190 244 307 350 403
#     4  10  23  42  72 101 139 175 233 286 349 418
#     4  10  20  37  65  98 137 180 222 263 335 423
#     4  12  25  45  70 101 150 184 226 295 357 418
#     4  10  20  40  64  94 132 177 223 271 336 409
#
# _framework density 20.606014999999999
#
# number of rings (size 3 to 8) (size 9 to 14) (size 15 to 20)
#    0.000    1.333    3.333    1.000    7.000    1.000 
#    1.500    1.667    0.000    0.000    0.000    0.000 
#    0.000    0.000    0.000    0.000    0.000    0.000 
#
# Total GULP energy -594666.542679 kJ/mol
# GULP energy per Si atom -12388.886306 kJ/mol
# Density = 2.055911 g / cm^3
# Si number density = 20.606015 Si / 1000 Ang^3
#
#
#
# Elastic Constant Matrix: (Units=GPa)
#
#
# Indices 1 2 3 4 5 6 
#
# 1 89.0896 35.7721 56.6139 0.0000 0.0000 0.0000
# 2 35.7721 119.4138 60.2936 0.0000 0.0000 0.0000
# 3 56.6139 60.2936 160.8541 0.0000 0.0000 0.0000
# 4 0.0000 0.0000 0.0000 30.5322 0.0000 0.0000
# 5 0.0000 0.0000 0.0000 0.0000 -4.9665 0.0000
# 6 0.0000 0.0000 0.0000 0.0000 0.0000 30.0776
#
#
#
# Elastic Compliance Matrix: (Units=1/GPa)
#
#
# Indices 1 2 3 4 5 6 
#
# 1 0.014931 -0.002244 -0.004414 0.000000 0.000000 0.000000
# 2 -0.002244 0.010666 -0.003208 0.000000 0.000000 0.000000
# 3 -0.004414 -0.003208 0.008973 0.000000 0.000000 0.000000
# 4 0.000000 0.000000 0.000000 0.032752 0.000000 0.000000
# 5 0.000000 0.000000 0.000000 0.000000 -0.201350 0.000000
# 6 0.000000 0.000000 0.000000 0.000000 0.000000 0.033247
#
#
# Mechanical properties :
#
#
# Convention : Reuss Voigt Hill
#
# Bulk Modulus (GPa) = 67.39684 74.96849 71.18267
# Shear Modulus (GPa) = -65.70056 25.57387 -20.06335
#
# Velocity S-wave (km/s) = -5.65273 3.52673 -3.12375
# Velocity P-wave (km/s) = 3.13467 7.28317 4.64857
#
# Compressibility (1/GPa) = 0.01483749
#
# Stress axis : x y z
#
# Youngs Moduli (GPa) = 66.97681 93.75236 111.44727
#
# Poissons Ratio (x) = 0.21039 0.49190
# Poissons Ratio (y) = 0.15030 0.35756
# Poissons Ratio (z) = 0.29562 0.30079
#
# Static dielectric constant tensor:
#      x y z
#    x 3.596030 0.000000 0.000000 
#    y 0.000000 3.725680 0.000000 
#    z 0.000000 0.000000 5.711120 
# 
# 
# High freq. dielectric constant tensor:
#      x y z
#    x 1.796900 0.000000 0.000000 
#    y 0.000000 1.814190 0.000000 
#    z 0.000000 0.000000 1.826260 
# 
# From -- ./inp_files/21888.got.cif
#   From: 2010.03.12/outbox.cif.g09.slc.cpg/sg72_11_cif.got.tgz:21888.got - 2010.04.16 14:54:00.
