data_PCOD8294807
_publ_section_title
;
Structure prediction by ZEFSAII (Michael W. Deem and Ramdas Pophale) SiO2 
 PCOD8294807
Probable space group: I B A M
;
_chemical_formula_sum "Si O2"
_cell_formula_units_Z 80
_cell_length_a 9.023280
_cell_length_b 24.319169
_cell_length_c 17.520669
_cell_angle_alpha 90.000000
_cell_angle_beta 90.000000
_cell_angle_gamma 90.000000
_cell_volume 3844.712325
_symmetry_space_group_name_H-M "I B A M"
_symmetry_group_IT_number 72
_symmetry_cell_setting 'orthorhombic'
loop_
_space_group_symop_operation_xyz
x,y,z
-x,-y,z
x,-y,1/2-z
-x,y,1/2-z
-x,-y,-z
x,y,-z
-x,y,1/2+z
x,-y,1/2+z
1/2+x,1/2+y,1/2+z
1/2-x,1/2-y,1/2+z
1/2+x,1/2-y,-z
1/2-x,1/2+y,-z
1/2-x,1/2-y,1/2-z
1/2+x,1/2+y,1/2-z
1/2-x,1/2+y,z
1/2+x,1/2-y,z
loop_
_atom_site_type_symbol
_atom_site_label
_atom_site_fract_x
_atom_site_fract_y
_atom_site_fract_z
Si Si1 0.937643 0.723959 0.334912
Si Si2 0.827262 0.393673 0.170936
Si Si3 0.836146 0.982522 0.089831
Si Si4 0.267425 0.192084 0.587681
Si Si5 0.336995 0.919038 0.844278
O O1 0.824851 0.672250 0.338492
O O2 0.851581 0.778557 0.358142
O O3 0.000000 0.730278 0.250000
O O4 0.069748 0.714488 0.394015
O O5 0.700605 0.420599 0.117681
O O6 0.790540 0.408681 0.257559
O O7 0.986651 0.417025 0.146018
O O8 0.717084 0.021605 0.129999
O O9 0.817854 0.986179 0.000000
O O10 0.000000 0.000000 0.115876
O O11 0.229424 0.204252 0.500000
O O12 0.258886 0.126987 0.603212
#
# Coordination Sequence:
#
# PCOD8294807 Si02
#       5
#    16  16  16  16  16
#     4  11  22  42  64  94 128 171 213 265 319 384
#     4  10  21  40  66  91 115 164 215 261 308 389
#     4  11  25  41  58  88 129 163 204 263 326 383
#     4  11  23  39  64  94 130 166 212 266 319 380
#     4  10  21  41  63  90 122 159 214 258 317 378
#
# _framework density 20.807798999999999
#
# number of rings (size 3 to 8) (size 9 to 14) (size 15 to 20)
#    0.000    1.400    4.000    3.000    0.000   10.400 
#    0.000    2.000    0.000    0.000    0.000    0.000 
#    0.000    0.000    0.000    0.000    0.000    0.000 
#
# Total GULP energy -496191.867417 kJ/mol
# GULP energy per Si atom -12404.796685 kJ/mol
# Density = 2.076044 g / cm^3
# Si number density = 20.807799 Si / 1000 Ang^3
#
#
#
# Elastic Constant Matrix: (Units=GPa)
#
#
# Indices 1 2 3 4 5 6 
#
# 1 56.0339 32.5772 37.3657 0.0000 0.0000 0.0000
# 2 32.5772 86.9005 46.4101 0.0000 0.0000 0.0000
# 3 37.3657 46.4101 92.0414 -0.0005 0.0000 0.0001
# 4 0.0000 0.0000 -0.0005 28.3121 0.0000 0.0000
# 5 0.0000 0.0000 0.0000 0.0000 33.8216 0.0000
# 6 0.0000 0.0000 0.0001 0.0000 0.0000 40.4614
#
#
#
# Elastic Compliance Matrix: (Units=1/GPa)
#
#
# Indices 1 2 3 4 5 6 
#
# 1 0.026390 -0.005709 -0.007835 0.000000 0.000000 0.000000
# 2 -0.005709 0.016983 -0.006246 0.000000 0.000000 0.000000
# 3 -0.007835 -0.006246 0.017195 0.000000 0.000000 0.000000
# 4 0.000000 0.000000 0.000000 0.035321 0.000000 0.000000
# 5 0.000000 0.000000 0.000000 0.000000 0.029567 0.000000
# 6 0.000000 0.000000 0.000000 0.000000 0.000000 0.024715
#
#
# Mechanical properties :
#
#
# Convention : Reuss Voigt Hill
#
# Bulk Modulus (GPa) = 47.64439 51.96462 49.80451
# Shear Modulus (GPa) = 25.41354 28.42720 26.92037
#
# Velocity S-wave (km/s) = 3.49857 3.70020 3.60079
# Velocity P-wave (km/s) = 6.26634 6.57899 6.42457
#
# Compressibility (1/GPa) = 0.02098883
#
# Stress axis : x y z
#
# Youngs Moduli (GPa) = 37.89325 58.88187 58.15729
#
# Poissons Ratio (x) = 0.33614 0.45566
# Poissons Ratio (y) = 0.21632 0.36324
# Poissons Ratio (z) = 0.29689 0.36777
#
# Static dielectric constant tensor:
#      x y z
#    x 3.673450 0.000000 0.000000 
#    y 0.000000 3.840350 0.000000 
#    z 0.000000 0.000000 3.698260 
# 
# 
# High freq. dielectric constant tensor:
#      x y z
#    x 1.803440 0.000000 0.000000 
#    y 0.000000 1.821180 0.000000 
#    z 0.000000 0.000000 1.820130 
# 
# From -- ./inp_files/28185.got.cif
#   From: 2010.03.12/outbox.cif.g09.slc.cpg/sg72_15_cif.got.tgz:28185.got - 2010.04.16 14:54:00.
