data_PCOD8294811
_publ_section_title
;
Structure prediction by ZEFSAII (Michael W. Deem and Ramdas Pophale) SiO2 
 PCOD8294811
Probable space group: I B A M
;
_chemical_formula_sum "Si O2"
_cell_formula_units_Z 80
_cell_length_a 14.404553
_cell_length_b 14.623834
_cell_length_c 18.425950
_cell_angle_alpha 90.000000
_cell_angle_beta 90.000000
_cell_angle_gamma 90.000000
_cell_volume 3881.422533
_symmetry_space_group_name_H-M "I B A M"
_symmetry_group_IT_number 72
_symmetry_cell_setting 'orthorhombic'
loop_
_space_group_symop_operation_xyz
x,y,z
-x,-y,z
x,-y,1/2-z
-x,y,1/2-z
-x,-y,-z
x,y,-z
-x,y,1/2+z
x,-y,1/2+z
1/2+x,1/2+y,1/2+z
1/2-x,1/2-y,1/2+z
1/2+x,1/2-y,-z
1/2-x,1/2+y,-z
1/2-x,1/2-y,1/2-z
1/2+x,1/2+y,1/2-z
1/2-x,1/2+y,z
1/2+x,1/2-y,z
loop_
_atom_site_type_symbol
_atom_site_label
_atom_site_fract_x
_atom_site_fract_y
_atom_site_fract_z
Si Si1 0.622087 0.799650 0.583527
Si Si2 0.248352 0.653784 0.838841
Si Si3 0.874119 0.089083 0.210854
Si Si4 0.545318 0.771034 0.179821
Si Si5 0.249530 0.967537 0.083754
O O1 0.623728 0.771812 0.500000
O O2 0.680124 0.724177 0.626250
O O3 0.515398 0.796969 0.609932
O O4 0.662075 0.901300 0.595789
O O5 0.288773 0.624321 0.761062
O O6 0.151469 0.703126 0.828099
O O7 0.225129 0.569530 0.891570
O O8 0.955264 0.162061 0.196110
O O9 0.836623 0.066328 0.130935
O O10 0.917559 0.000000 0.250000
O O11 0.500000 0.820679 0.250000
O O12 0.218492 0.967021 0.000000
#
# Coordination Sequence:
#
# PCOD8294811 Si02
#       5
#    16  16  16  16  16
#     4  11  24  41  63  96 131 169 217 265 323 397
#     4  11  22  43  67  90 129 172 216 265 324 379
#     4  10  21  40  67  94 125 169 216 264 321 388
#     4  12  23  39  67  95 128 167 216 266 321 382
#     4  10  22  41  65  94 129 171 215 265 323 387
#
# _framework density 20.611000000000001
#
# number of rings (size 3 to 8) (size 9 to 14) (size 15 to 20)
#    0.000    1.200    4.000    2.400    0.000    3.600 
#    0.000    3.000    0.000    3.600    0.000    0.000 
#    0.000    0.000    0.000    0.000    0.000    0.000 
#
# Total GULP energy -496006.560828 kJ/mol
# GULP energy per Si atom -12400.164021 kJ/mol
# Density = 2.056409 g / cm^3
# Si number density = 20.611000 Si / 1000 Ang^3
#
#
#
# Elastic Constant Matrix: (Units=GPa)
#
#
# Indices 1 2 3 4 5 6 
#
# 1 56.8902 3.5139 12.8488 0.0000 0.0000 0.0000
# 2 3.5139 89.7391 26.3148 0.0000 0.0000 0.0000
# 3 12.8488 26.3148 118.0870 0.0000 0.0000 0.0000
# 4 0.0000 0.0000 0.0000 30.4632 0.0000 0.0000
# 5 0.0000 0.0000 0.0000 0.0000 27.8712 0.0000
# 6 0.0000 0.0000 0.0000 0.0000 0.0000 13.8543
#
#
#
# Elastic Compliance Matrix: (Units=1/GPa)
#
#
# Indices 1 2 3 4 5 6 
#
# 1 0.018022 -0.000140 -0.001930 0.000000 0.000000 0.000000
# 2 -0.000140 0.011924 -0.002642 0.000000 0.000000 0.000000
# 3 -0.001930 -0.002642 0.009267 0.000000 0.000000 0.000000
# 4 0.000000 0.000000 0.000000 0.032826 0.000000 0.000000
# 5 0.000000 0.000000 0.000000 0.000000 0.035879 0.000000
# 6 0.000000 0.000000 0.000000 0.000000 0.000000 0.072180
#
#
# Mechanical properties :
#
#
# Convention : Reuss Voigt Hill
#
# Bulk Modulus (GPa) = 33.56845 38.89682 36.23263
# Shear Modulus (GPa) = 25.06875 29.24032 27.15453
#
# Velocity S-wave (km/s) = 3.49130 3.77062 3.63365
# Velocity P-wave (km/s) = 5.70739 6.15383 5.93481
#
# Compressibility (1/GPa) = 0.02978988
#
# Stress axis : x y z
#
# Youngs Moduli (GPa) = 55.48705 83.86742 107.90944
#
# Poissons Ratio (x) = 0.01172 0.20824
# Poissons Ratio (y) = 0.00776 0.28508
# Poissons Ratio (z) = 0.10708 0.22157
#
# Static dielectric constant tensor:
#      x y z
#    x 3.522730 0.000000 0.000000 
#    y 0.000000 4.081010 0.000000 
#    z 0.000000 0.000000 3.915450 
# 
# 
# High freq. dielectric constant tensor:
#      x y z
#    x 1.799740 0.000000 0.000000 
#    y 0.000000 1.816900 0.000000 
#    z 0.000000 0.000000 1.817300 
# 
# From -- ./inp_files/31357.got.cif
#   From: 2010.03.12/outbox.cif.g09.slc.cpg/sg72_16_cif.got.tgz:31357.got - 2010.04.16 14:54:00.
