data_PCOD8294022
_publ_section_title
;
Structure prediction by ZEFSAII (Michael W. Deem and Ramdas Pophale) SiO2 
 PCOD8294022
Probable space group: I B A M
;
_chemical_formula_sum "Si O2"
_cell_formula_units_Z 112
_cell_length_a 13.927141
_cell_length_b 28.717153
_cell_length_c 14.456808
_cell_angle_alpha 90.000000
_cell_angle_beta 90.000000
_cell_angle_gamma 90.000000
_cell_volume 5781.969118
_symmetry_space_group_name_H-M "I B A M"
_symmetry_group_IT_number 72
_symmetry_cell_setting 'orthorhombic'
loop_
_space_group_symop_operation_xyz
x,y,z
-x,-y,z
x,-y,1/2-z
-x,y,1/2-z
-x,-y,-z
x,y,-z
-x,y,1/2+z
x,-y,1/2+z
1/2+x,1/2+y,1/2+z
1/2-x,1/2-y,1/2+z
1/2+x,1/2-y,-z
1/2-x,1/2+y,-z
1/2-x,1/2-y,1/2-z
1/2+x,1/2+y,1/2-z
1/2-x,1/2+y,z
1/2+x,1/2-y,z
loop_
_atom_site_type_symbol
_atom_site_label
_atom_site_fract_x
_atom_site_fract_y
_atom_site_fract_z
Si Si1 0.930240 0.306380 0.893562
Si Si2 0.841262 0.106587 0.753432
Si Si3 0.000692 0.406723 0.892337
Si Si4 0.732709 0.701825 0.700669
Si Si5 0.145688 0.445027 0.748544
Si Si6 0.999410 0.116516 0.892120
Si Si7 0.459376 0.719852 0.895444
O O1 0.829220 0.316486 0.845941
O O2 0.998937 0.350922 0.881458
O O3 0.983885 0.262123 0.844652
O O4 0.906200 0.296919 0.000000
O O5 0.802055 0.159394 0.765927
O O6 0.756224 0.069689 0.748399
O O7 0.902449 0.101155 0.658532
O O8 0.907366 0.093646 0.842070
O O9 0.095379 0.424718 0.840449
O O10 0.905704 0.427824 0.845013
O O11 0.003473 0.421723 0.000000
O O12 0.750000 0.750000 0.750000
O O13 0.651384 0.713680 0.627153
O O14 0.138499 0.500000 0.750000
O O15 0.984485 0.171865 0.877924
O O16 0.004390 0.102112 0.000000
O O17 0.461298 0.735583 0.000000
#
# Coordination Sequence:
#
# PCOD8294022 Si02
#       7
#    16  16  16  16  16  16  16
#     4  10  20  35  54  80 114 152 195 242 283 333
#     4  10  21  38  57  88 115 147 198 236 293 353
#     4  10  22  40  62  86 117 156 198 244 294 351
#     4  11  21  31  53  81 112 153 190 237 281 340
#     4  11  24  41  62  87 118 152 191 248 303 355
#     4   9  19  38  61  83 117 156 192 236 284 346
#     4   9  19  34  51  76 111 152 193 229 277 335
#
# _framework density 19.370563000000001
#
# number of rings (size 3 to 8) (size 9 to 14) (size 15 to 20)
#    0.000    2.000    1.429    2.143    2.000    4.571 
#    0.000    2.143    0.000    0.857    0.000    0.000 
#    0.000    0.000    0.000    0.000    0.000    0.000 
#
# Total GULP energy -694222.632276 kJ/mol
# GULP energy per Si atom -12396.832719 kJ/mol
# Density = 1.932648 g / cm^3
# Si number density = 19.370563 Si / 1000 Ang^3
#
#
#
# Elastic Constant Matrix: (Units=GPa)
#
#
# Indices 1 2 3 4 5 6 
#
# 1 124.0952 28.4755 53.4692 0.0000 0.0001 0.0000
# 2 28.4755 42.8232 28.7342 0.0003 0.0003 -0.0002
# 3 53.4692 28.7342 122.4383 0.0035 0.0011 -0.0006
# 4 0.0000 0.0003 0.0035 17.4312 -0.0002 -0.0003
# 5 0.0001 0.0003 0.0011 -0.0002 15.8160 0.0000
# 6 0.0000 -0.0002 -0.0006 -0.0003 0.0000 25.8956
#
#
#
# Elastic Compliance Matrix: (Units=1/GPa)
#
#
# Indices 1 2 3 4 5 6 
#
# 1 0.010671 -0.004711 -0.003554 0.000001 0.000000 0.000000
# 2 -0.004711 0.029796 -0.004935 0.000000 0.000000 0.000000
# 3 -0.003554 -0.004935 0.010878 -0.000002 -0.000001 0.000000
# 4 0.000001 0.000000 -0.000002 0.057368 0.000001 0.000001
# 5 0.000000 0.000000 -0.000001 0.000001 0.063227 0.000000
# 6 0.000000 0.000000 0.000000 0.000001 0.000000 0.038617
#
#
# Mechanical properties :
#
#
# Convention : Reuss Voigt Hill
#
# Bulk Modulus (GPa) = 40.09060 56.74604 48.41832
# Shear Modulus (GPa) = 20.38553 23.74042 22.06297
#
# Velocity S-wave (km/s) = 3.24759 3.50464 3.37856
# Velocity P-wave (km/s) = 5.89949 6.76279 6.34584
#
# Compressibility (1/GPa) = 0.02494350
#
# Stress axis : x y z
#
# Youngs Moduli (GPa) = 93.71409 33.56181 91.92953
#
# Poissons Ratio (x) = 0.15809 0.32676
# Poissons Ratio (y) = 0.44144 0.45371
# Poissons Ratio (z) = 0.33310 0.16564
#
# Static dielectric constant tensor:
#      x y z
#    x 2.892070 0.000000 0.000000 
#    y 0.000000 3.430590 0.000000 
#    z 0.000000 0.000000 3.626260 
# 
# 
# High freq. dielectric constant tensor:
#      x y z
#    x 1.760710 0.000000 0.000000 
#    y 0.000000 1.740550 0.000000 
#    z 0.000000 0.000000 1.750270 
# 
# From -- ./inp_files/20661.got.cif
#   From: 2010.03.12/outbox.cif.g09.slc.cpg/sg72_11_cif.got.tgz:20661.got - 2010.04.16 14:54:00.
