data_PCOD8294325
_publ_section_title
;
Structure prediction by ZEFSAII (Michael W. Deem and Ramdas Pophale) SiO2 
 PCOD8294325
Probable space group: I B A M
;
_chemical_formula_sum "Si O2"
_cell_formula_units_Z 64
_cell_length_a 5.133718
_cell_length_b 33.558782
_cell_length_c 19.668591
_cell_angle_alpha 90.000000
_cell_angle_beta 90.000000
_cell_angle_gamma 90.000000
_cell_volume 3388.530883
_symmetry_space_group_name_H-M "I B A M"
_symmetry_group_IT_number 72
_symmetry_cell_setting 'orthorhombic'
loop_
_space_group_symop_operation_xyz
x,y,z
-x,-y,z
x,-y,1/2-z
-x,y,1/2-z
-x,-y,-z
x,y,-z
-x,y,1/2+z
x,-y,1/2+z
1/2+x,1/2+y,1/2+z
1/2-x,1/2-y,1/2+z
1/2+x,1/2-y,-z
1/2-x,1/2+y,-z
1/2-x,1/2-y,1/2-z
1/2+x,1/2+y,1/2-z
1/2-x,1/2+y,z
1/2+x,1/2-y,z
loop_
_atom_site_type_symbol
_atom_site_label
_atom_site_fract_x
_atom_site_fract_y
_atom_site_fract_z
Si Si1 0.500000 0.647530 0.750000
Si Si2 0.223405 0.276131 0.000000
Si Si3 0.712739 0.340417 0.613406
Si Si4 0.744760 0.525379 0.421392
Si Si5 0.733237 0.112390 0.368715
O O1 0.345798 0.673294 0.692221
O O2 0.287146 0.619869 0.788448
O O3 0.259650 0.301514 0.068083
O O4 0.432467 0.240884 0.000000
O O5 0.469126 0.367360 0.587945
O O6 0.966742 0.367634 0.607017
O O7 0.500000 0.500000 0.394625
O O8 0.707807 0.536726 0.500000
O O9 0.773267 0.565487 0.378980
O O10 0.000000 0.500000 0.408413
#
# Coordination Sequence:
#
# PCOD8294325 Si02
#       5
#     8   8  16  16  16
#     4   8  22  38  67  88 120 156 224 248 288 364
#     4  12  26  44  64 100 130 150 192 252 314 372
#     4  10  22  39  66  89 121 160 201 251 298 368
#     4  10  21  35  54  87 127 161 202 258 312 351
#     4  10  20  37  65  86 116 164 215 251 288 364
#
# _framework density 18.887239999999998
#
# number of rings (size 3 to 8) (size 9 to 14) (size 15 to 20)
#    1.500    0.500    0.000    3.750    3.500    0.000 
#    0.000    1.875    0.000    0.000    0.000    0.000 
#    0.000    0.000    0.000    0.000    0.000    0.000 
#
# Total GULP energy -396542.345094 kJ/mol
# GULP energy per Si atom -12391.948284 kJ/mol
# Density = 1.884425 g / cm^3
# Si number density = 18.887240 Si / 1000 Ang^3
#
#
#
# Elastic Constant Matrix: (Units=GPa)
#
#
# Indices 1 2 3 4 5 6 
#
# 1 134.7714 34.2510 23.5481 0.0000 0.0000 0.0000
# 2 34.2510 98.0895 56.4814 0.0000 0.0000 0.0000
# 3 23.5481 56.4814 101.7967 0.0000 0.0000 0.0000
# 4 0.0000 0.0000 0.0000 14.1145 0.0000 0.0000
# 5 0.0000 0.0000 0.0000 0.0000 14.0416 0.0000
# 6 0.0000 0.0000 0.0000 0.0000 0.0000 35.0172
#
#
#
# Elastic Compliance Matrix: (Units=1/GPa)
#
#
# Indices 1 2 3 4 5 6 
#
# 1 0.008157 -0.002589 -0.000450 0.000000 0.000000 0.000000
# 2 -0.002589 0.015803 -0.008169 0.000000 0.000000 0.000000
# 3 -0.000450 -0.008169 0.014460 0.000000 0.000000 0.000000
# 4 0.000000 0.000000 0.000000 0.070849 0.000000 0.000000
# 5 0.000000 0.000000 0.000000 0.000000 0.071217 0.000000
# 6 0.000000 0.000000 0.000000 0.000000 0.000000 0.028557
#
#
# Mechanical properties :
#
#
# Convention : Reuss Voigt Hill
#
# Bulk Modulus (GPa) = 62.48911 62.57985 62.53448
# Shear Modulus (GPa) = 21.11540 27.32648 24.22094
#
# Velocity S-wave (km/s) = 3.34724 3.80784 3.58494
# Velocity P-wave (km/s) = 6.93512 7.24832 7.09345
#
# Compressibility (1/GPa) = 0.01600279
#
# Stress axis : x y z
#
# Youngs Moduli (GPa) = 122.60031 63.28055 69.15466
#
# Poissons Ratio (x) = 0.16382 0.03115
# Poissons Ratio (y) = 0.31738 0.56494
# Poissons Ratio (z) = 0.05523 0.51695
#
# Static dielectric constant tensor:
#      x y z
#    x 3.659340 0.000000 0.000000 
#    y 0.000000 3.161450 0.000000 
#    z 0.000000 0.000000 3.356110 
# 
# 
# High freq. dielectric constant tensor:
#      x y z
#    x 1.756860 0.000000 0.000000 
#    y 0.000000 1.712480 0.000000 
#    z 0.000000 0.000000 1.722770 
# 
# From -- ./inp_files/34786.got.cif
#   From: 2010.03.12/outbox.cif.g09.slc.cpg/sg72_18_cif.got.tgz:34786.got - 2010.04.16 14:54:00.
