data_PCOD8294756
_publ_section_title
;
Structure prediction by ZEFSAII (Michael W. Deem and Ramdas Pophale) SiO2 
 PCOD8294756
Probable space group: I B A M
;
_chemical_formula_sum "Si O2"
_cell_formula_units_Z 112
_cell_length_a 33.374084
_cell_length_b 10.357963
_cell_length_c 15.013489
_cell_angle_alpha 90.000000
_cell_angle_beta 90.000000
_cell_angle_gamma 90.000000
_cell_volume 5189.975888
_symmetry_space_group_name_H-M "I B A M"
_symmetry_group_IT_number 72
_symmetry_cell_setting 'orthorhombic'
loop_
_space_group_symop_operation_xyz
x,y,z
-x,-y,z
x,-y,1/2-z
-x,y,1/2-z
-x,-y,-z
x,y,-z
-x,y,1/2+z
x,-y,1/2+z
1/2+x,1/2+y,1/2+z
1/2-x,1/2-y,1/2+z
1/2+x,1/2-y,-z
1/2-x,1/2+y,-z
1/2-x,1/2-y,1/2-z
1/2+x,1/2+y,1/2-z
1/2-x,1/2+y,z
1/2+x,1/2-y,z
loop_
_atom_site_type_symbol
_atom_site_label
_atom_site_fract_x
_atom_site_fract_y
_atom_site_fract_z
Si Si1 0.428850 0.231345 0.097824
Si Si2 0.290527 0.085795 0.893611
Si Si3 0.146197 0.768111 0.599982
Si Si4 0.083490 0.859983 0.725214
Si Si5 0.512610 0.352944 0.101094
Si Si6 0.733363 0.192548 0.894654
Si Si7 0.122085 0.511020 0.852118
O O1 0.405487 0.290072 0.182234
O O2 0.475964 0.253365 0.114394
O O3 0.414262 0.082936 0.096553
O O4 0.418114 0.292486 0.000000
O O5 0.268634 0.215220 0.855756
O O6 0.335963 0.088956 0.858881
O O7 0.267191 0.955798 0.858800
O O8 0.291064 0.084248 0.000000
O O9 0.143446 0.822984 0.500000
O O10 0.123442 0.864895 0.665800
O O11 0.191806 0.760110 0.632317
O O12 0.125823 0.627613 0.602596
O O13 0.046978 0.800393 0.667440
O O14 0.068767 0.000000 0.750000
O O15 0.500000 0.500000 0.123982
O O16 0.529007 0.347526 0.000000
O O17 0.737659 0.187622 0.000000
O O18 0.109442 0.500000 0.750000
#
# Coordination Sequence:
#
# PCOD8294756 Si02
#       7
#    16  16  16  16  16  16  16
#     4  11  23  39  62  91 120 157 209 258 308 375
#     4   9  17  34  59  85 120 162 209 256 309 374
#     4  10  21  40  64  87 125 170 209 253 312 375
#     4  12  23  38  62  93 125 163 203 256 308 374
#     4  10  21  39  63  90 122 160 200 249 315 377
#     4   8  16  33  57  86 117 162 207 251 308 368
#     4  11  21  40  62  89 119 166 210 261 317 371
#
# _framework density 21.580062000000002
#
# number of rings (size 3 to 8) (size 9 to 14) (size 15 to 20)
#    0.000    1.857    2.857    3.000    0.000    0.571 
#    2.571    4.286    0.000    2.571    0.000    0.000 
#    0.000    0.000    0.000    0.000    0.000    0.000 
#
# Total GULP energy -694010.936423 kJ/mol
# GULP energy per Si atom -12393.052436 kJ/mol
# Density = 2.153094 g / cm^3
# Si number density = 21.580062 Si / 1000 Ang^3
#
#
#
# Elastic Constant Matrix: (Units=GPa)
#
#
# Indices 1 2 3 4 5 6 
#
# 1 84.4072 44.5488 22.8667 0.0000 0.0000 0.0000
# 2 44.5488 67.8957 13.6180 0.0000 0.0000 0.0000
# 3 22.8667 13.6180 99.3370 0.0000 0.0000 0.0000
# 4 0.0000 0.0000 0.0000 25.2137 0.0000 0.0000
# 5 0.0000 0.0000 0.0000 0.0000 27.2062 0.0000
# 6 0.0000 0.0000 0.0000 0.0000 0.0000 40.2287
#
#
#
# Elastic Compliance Matrix: (Units=1/GPa)
#
#
# Indices 1 2 3 4 5 6 
#
# 1 0.018808 -0.011797 -0.002712 0.000000 0.000000 0.000000
# 2 -0.011797 0.022544 -0.000375 0.000000 0.000000 0.000000
# 3 -0.002712 -0.000375 0.010743 0.000000 0.000000 0.000000
# 4 0.000000 0.000000 0.000000 0.039661 0.000000 0.000000
# 5 0.000000 0.000000 0.000000 0.000000 0.036756 0.000000
# 6 0.000000 0.000000 0.000000 0.000000 0.000000 0.024858
#
#
# Mechanical properties :
#
#
# Convention : Reuss Voigt Hill
#
# Bulk Modulus (GPa) = 44.78969 45.96745 45.37857
# Shear Modulus (GPa) = 26.23563 29.90346 28.06955
#
# Velocity S-wave (km/s) = 3.49052 3.72654 3.61046
# Velocity P-wave (km/s) = 6.08647 6.31373 6.20114
#
# Compressibility (1/GPa) = 0.02232657
#
# Stress axis : x y z
#
# Youngs Moduli (GPa) = 53.16801 44.35772 93.08813
#
# Poissons Ratio (x) = 0.52328 0.25249
# Poissons Ratio (y) = 0.62721 0.03491
# Poissons Ratio (z) = 0.14421 0.01663
#
# Static dielectric constant tensor:
#      x y z
#    x 3.875780 0.000000 0.000000 
#    y 0.000000 4.084140 0.000000 
#    z 0.000000 0.000000 4.264900 
# 
# 
# High freq. dielectric constant tensor:
#      x y z
#    x 1.834560 0.000000 0.000000 
#    y 0.000000 1.822640 0.000000 
#    z 0.000000 0.000000 1.857890 
# 
# From -- ./inp_files/26339.got.cif
#   From: 2010.03.12/outbox.cif.g09.slc.cpg/sg72_14_cif.got.tgz:26339.got - 2010.04.16 14:54:00.
