data_PCOD8294278
_publ_section_title
;
Structure prediction by ZEFSAII (Michael W. Deem and Ramdas Pophale) SiO2 
 PCOD8294278
Probable space group: I B A M
;
_chemical_formula_sum "Si O2"
_cell_formula_units_Z 80
_cell_length_a 25.629175
_cell_length_b 18.152918
_cell_length_c 8.937930
_cell_angle_alpha 90.000000
_cell_angle_beta 90.000000
_cell_angle_gamma 90.000000
_cell_volume 4158.321095
_symmetry_space_group_name_H-M "I B A M"
_symmetry_group_IT_number 72
_symmetry_cell_setting 'orthorhombic'
loop_
_space_group_symop_operation_xyz
x,y,z
-x,-y,z
x,-y,1/2-z
-x,y,1/2-z
-x,-y,-z
x,y,-z
-x,y,1/2+z
x,-y,1/2+z
1/2+x,1/2+y,1/2+z
1/2-x,1/2-y,1/2+z
1/2+x,1/2-y,-z
1/2-x,1/2+y,-z
1/2-x,1/2-y,1/2-z
1/2+x,1/2+y,1/2-z
1/2-x,1/2+y,z
1/2+x,1/2-y,z
loop_
_atom_site_type_symbol
_atom_site_label
_atom_site_fract_x
_atom_site_fract_y
_atom_site_fract_z
Si Si1 0.149852 0.423428 0.176008
Si Si2 0.946744 0.825323 0.675189
Si Si3 0.250247 0.671605 0.325776
Si Si4 0.554048 0.843538 0.823022
Si Si5 0.651183 0.579407 0.822467
O O1 0.166107 0.500000 0.250000
O O2 0.196042 0.367209 0.211733
O O3 0.097843 0.394432 0.252547
O O4 0.140861 0.433597 0.000000
O O5 0.954616 0.832981 0.500000
O O6 0.934274 0.741157 0.719786
O O7 0.899301 0.875321 0.732674
O O8 0.000000 0.853411 0.750000
O O9 0.258487 0.684503 0.500000
O O10 0.250000 0.750000 0.250000
O O11 0.297682 0.622061 0.263607
O O12 0.500000 0.869103 0.750000
O O13 0.551848 0.855657 0.000000
O O14 0.649488 0.500000 0.750000
O O15 0.652177 0.570774 0.000000
#
# Coordination Sequence:
#
# PCOD8294278 Si02
#       5
#    16  16  16  16  16
#     4  11  23  38  57  84 115 148 185 228 278 335
#     4   9  19  35  56  80 109 144 184 227 273 324
#     4  10  22  39  60  84 111 143 185 231 277 331
#     4  10  20  37  60  84 112 147 186 232 279 329
#     4  10  21  37  55  80 112 146 182 224 273 325
#
# _framework density 19.238534000000001
#
# number of rings (size 3 to 8) (size 9 to 14) (size 15 to 20)
#    0.000    2.000    0.000    3.000    0.000    6.400 
#    0.000    4.000    0.000    0.000    0.000    0.000 
#    0.000    0.000    0.000    0.000    0.000    0.000 
#
# Total GULP energy -496177.875335 kJ/mol
# GULP energy per Si atom -12404.446883 kJ/mol
# Density = 1.919475 g / cm^3
# Si number density = 19.238534 Si / 1000 Ang^3
#
#
#
# Elastic Constant Matrix: (Units=GPa)
#
#
# Indices 1 2 3 4 5 6 
#
# 1 121.9572 53.0976 54.8718 0.0000 0.0000 0.0000
# 2 53.0976 116.0981 53.8978 0.0000 0.0000 0.0000
# 3 54.8718 53.8978 66.8365 0.0000 0.0000 0.0000
# 4 0.0000 0.0000 0.0000 37.7164 0.0000 0.0000
# 5 0.0000 0.0000 0.0000 0.0000 31.7161 0.0000
# 6 0.0000 0.0000 0.0000 0.0000 0.0000 24.0006
#
#
#
# Elastic Compliance Matrix: (Units=1/GPa)
#
#
# Indices 1 2 3 4 5 6 
#
# 1 0.013187 -0.001606 -0.009531 0.000000 0.000000 0.000000
# 2 -0.001606 0.013963 -0.009941 0.000000 0.000000 0.000000
# 3 -0.009531 -0.009941 0.030804 0.000000 0.000000 0.000000
# 4 0.000000 0.000000 0.000000 0.026514 0.000000 0.000000
# 5 0.000000 0.000000 0.000000 0.000000 0.031530 0.000000
# 6 0.000000 0.000000 0.000000 0.000000 0.000000 0.041666
#
#
# Mechanical properties :
#
#
# Convention : Reuss Voigt Hill
#
# Bulk Modulus (GPa) = 63.30541 69.84734 66.57638
# Shear Modulus (GPa) = 24.37994 28.22160 26.30077
#
# Velocity S-wave (km/s) = 3.56370 3.83421 3.70143
# Velocity P-wave (km/s) = 7.06472 7.48240 7.27656
#
# Compressibility (1/GPa) = 0.01579644
#
# Stress axis : x y z
#
# Youngs Moduli (GPa) = 75.83030 71.61626 32.46372
#
# Poissons Ratio (x) = 0.11505 0.30942
# Poissons Ratio (y) = 0.12182 0.32273
# Poissons Ratio (z) = 0.72275 0.71196
#
# Static dielectric constant tensor:
#      x y z
#    x 3.729570 0.000000 0.000000 
#    y 0.000000 3.501770 0.000000 
#    z 0.000000 0.000000 3.315650 
# 
# 
# High freq. dielectric constant tensor:
#      x y z
#    x 1.765910 0.000000 0.000000 
#    y 0.000000 1.754050 0.000000 
#    z 0.000000 0.000000 1.746470 
# 
# From -- ./inp_files/4817.got.cif
#   From: 2010.03.12/outbox.cif.g09.slc.cpg/sg72_3_cif.got.tgz:4817.got - 2010.04.16 14:54:00.
