data_PCOD8294736
_publ_section_title
;
Structure prediction by ZEFSAII (Michael W. Deem and Ramdas Pophale) SiO2 
 PCOD8294736
Probable space group: I B A M
;
_chemical_formula_sum "Si O2"
_cell_formula_units_Z 80
_cell_length_a 8.948745
_cell_length_b 26.065658
_cell_length_c 16.705352
_cell_angle_alpha 90.000000
_cell_angle_beta 90.000000
_cell_angle_gamma 90.000000
_cell_volume 3896.605656
_symmetry_space_group_name_H-M "I B A M"
_symmetry_group_IT_number 72
_symmetry_cell_setting 'orthorhombic'
loop_
_space_group_symop_operation_xyz
x,y,z
-x,-y,z
x,-y,1/2-z
-x,y,1/2-z
-x,-y,-z
x,y,-z
-x,y,1/2+z
x,-y,1/2+z
1/2+x,1/2+y,1/2+z
1/2-x,1/2-y,1/2+z
1/2+x,1/2-y,-z
1/2-x,1/2+y,-z
1/2-x,1/2-y,1/2-z
1/2+x,1/2+y,1/2-z
1/2-x,1/2+y,z
1/2+x,1/2-y,z
loop_
_atom_site_type_symbol
_atom_site_label
_atom_site_fract_x
_atom_site_fract_y
_atom_site_fract_z
Si Si1 0.435955 0.943008 0.330567
Si Si2 0.165322 0.616748 0.410708
Si Si3 0.485232 0.779093 0.908773
Si Si4 0.782721 0.791577 0.183698
Si Si5 0.167947 0.096963 0.749169
O O1 0.500000 0.916302 0.250000
O O2 0.500202 0.909911 0.404285
O O3 0.257601 0.938592 0.314537
O O4 0.500000 0.000000 0.339330
O O5 0.228669 0.604892 0.500000
O O6 0.143514 0.677693 0.400370
O O7 0.272782 0.593176 0.342638
O O8 0.635045 0.799732 0.868346
O O9 0.423068 0.727185 0.869161
O O10 0.523857 0.766611 0.000000
O O11 0.750000 0.750000 0.250000
O O12 0.829252 0.844599 0.222930
O O13 0.000000 0.075688 0.750000
#
# Coordination Sequence:
#
# PCOD8294736 Si02
#       5
#    16  16  16  16  16
#     4   9  19  39  66  89 115 159 210 255 312 378
#     4  10  21  39  61  86 122 160 203 261 313 367
#     4  11  23  38  55  84 124 162 208 257 305 363
#     4  12  22  36  58  86 118 168 207 250 301 364
#     4  11  22  39  61  94 127 160 208 261 314 374
#
# _framework density 20.530688999999999
#
# number of rings (size 3 to 8) (size 9 to 14) (size 15 to 20)
#    0.000    1.400    4.000    2.400    0.000    0.400 
#    0.000   10.000    0.000    1.200    0.000    0.000 
#    0.000    0.000    0.000    0.000    0.000    0.000 
#
# Total GULP energy -495817.509844 kJ/mol
# GULP energy per Si atom -12395.437746 kJ/mol
# Density = 2.048396 g / cm^3
# Si number density = 20.530689 Si / 1000 Ang^3
#
#
#
# Elastic Constant Matrix: (Units=GPa)
#
#
# Indices 1 2 3 4 5 6 
#
# 1 124.2141 21.7414 35.6054 0.0000 0.0000 0.0000
# 2 21.7414 82.2259 23.7868 0.0000 0.0000 0.0000
# 3 35.6054 23.7868 109.6306 0.0001 -0.0001 0.0000
# 4 0.0000 0.0000 0.0001 16.9520 0.0000 0.0000
# 5 0.0000 0.0000 -0.0001 0.0000 28.7942 0.0000
# 6 0.0000 0.0000 0.0000 0.0000 0.0000 26.6398
#
#
#
# Elastic Compliance Matrix: (Units=1/GPa)
#
#
# Indices 1 2 3 4 5 6 
#
# 1 0.009083 -0.001652 -0.002591 0.000000 0.000000 0.000000
# 2 -0.001652 0.013277 -0.002344 0.000000 0.000000 0.000000
# 3 -0.002591 -0.002344 0.010472 0.000000 0.000000 0.000000
# 4 0.000000 0.000000 0.000000 0.058990 0.000000 0.000000
# 5 0.000000 0.000000 0.000000 0.000000 0.034729 0.000000
# 6 0.000000 0.000000 0.000000 0.000000 0.000000 0.037538
#
#
# Mechanical properties :
#
#
# Convention : Reuss Voigt Hill
#
# Bulk Modulus (GPa) = 50.87495 53.14863 52.01179
# Shear Modulus (GPa) = 27.20126 30.13965 28.67046
#
# Velocity S-wave (km/s) = 3.64388 3.83564 3.74099
# Velocity P-wave (km/s) = 6.52208 6.74980 6.63692
#
# Compressibility (1/GPa) = 0.01965604
#
# Stress axis : x y z
#
# Youngs Moduli (GPa) = 110.10115 75.32097 95.49475
#
# Poissons Ratio (x) = 0.12442 0.24746
# Poissons Ratio (y) = 0.18187 0.22385
# Poissons Ratio (z) = 0.28531 0.17656
#
# Static dielectric constant tensor:
#      x y z
#    x 3.731900 0.000000 0.000000 
#    y 0.000000 3.564820 0.000000 
#    z 0.000000 0.000000 4.410250 
# 
# 
# High freq. dielectric constant tensor:
#      x y z
#    x 1.792160 0.000000 0.000000 
#    y 0.000000 1.791270 0.000000 
#    z 0.000000 0.000000 1.798980 
# 
# From -- ./inp_files/28096.got.cif
#   From: 2010.03.12/outbox.cif.g09.slc.cpg/sg72_15_cif.got.tgz:28096.got - 2010.04.16 14:54:00.
