data_PCOD8294847
_publ_section_title
;
Structure prediction by ZEFSAII (Michael W. Deem and Ramdas Pophale) SiO2 
 PCOD8294847
Probable space group: I B A M
;
_chemical_formula_sum "Si O2"
_cell_formula_units_Z 96
_cell_length_a 19.056325
_cell_length_b 11.177717
_cell_length_c 20.916204
_cell_angle_alpha 90.000000
_cell_angle_beta 90.000000
_cell_angle_gamma 90.000000
_cell_volume 4455.281298
_symmetry_space_group_name_H-M "I B A M"
_symmetry_group_IT_number 72
_symmetry_cell_setting 'orthorhombic'
loop_
_space_group_symop_operation_xyz
x,y,z
-x,-y,z
x,-y,1/2-z
-x,y,1/2-z
-x,-y,-z
x,y,-z
-x,y,1/2+z
x,-y,1/2+z
1/2+x,1/2+y,1/2+z
1/2-x,1/2-y,1/2+z
1/2+x,1/2-y,-z
1/2-x,1/2+y,-z
1/2-x,1/2-y,1/2-z
1/2+x,1/2+y,1/2-z
1/2-x,1/2+y,z
1/2+x,1/2-y,z
loop_
_atom_site_type_symbol
_atom_site_label
_atom_site_fract_x
_atom_site_fract_y
_atom_site_fract_z
Si Si1 0.446621 0.608934 0.500000
Si Si2 0.190547 0.634709 0.573647
Si Si3 0.339028 0.794380 0.290387
Si Si4 0.080337 0.465114 0.628151
Si Si5 0.953157 0.623074 0.500000
Si Si6 0.688674 0.332864 0.168668
Si Si7 0.339851 0.575586 0.385844
O O1 0.500000 0.500000 0.500000
O O2 0.485841 0.740784 0.500000
O O3 0.399614 0.596230 0.437433
O O4 0.166668 0.638767 0.500000
O O5 0.129320 0.579303 0.617393
O O6 0.200101 0.768434 0.600423
O O7 0.263674 0.563706 0.580478
O O8 0.397592 0.891344 0.309241
O O9 0.354516 0.751552 0.218020
O O10 0.263443 0.859207 0.297222
O O11 0.341755 0.681208 0.335887
O O12 0.092501 0.383119 0.564591
O O13 0.000000 0.500000 0.637467
O O14 0.000000 0.500000 0.500000
O O15 0.646783 0.454391 0.154419
#
# Coordination Sequence:
#
# PCOD8294847 Si02
#       7
#     8  16  16  16   8  16  16
#     4  12  26  41  68 102 137 178 231 288 359 424
#     4  11  23  38  63  99 132 167 227 284 341 408
#     4  10  21  42  66  93 133 175 231 274 340 413
#     4  11  22  40  69  95 134 176 227 280 342 405
#     4  10  22  41  66  96 134 182 222 275 351 419
#     4  10  23  39  66  98 132 176 223 285 341 410
#     4  11  22  41  66  96 128 179 222 286 346 410
#
# _framework density 21.547460999999998
#
# number of rings (size 3 to 8) (size 9 to 14) (size 15 to 20)
#    0.000    1.333    5.000    0.500    1.167    3.333 
#    0.000    1.667    0.000    1.000    0.000    0.000 
#    0.000    0.000    0.000    0.000    0.000    0.000 
#
# Total GULP energy -595022.581223 kJ/mol
# GULP energy per Si atom -12396.303775 kJ/mol
# Density = 2.149842 g / cm^3
# Si number density = 21.547461 Si / 1000 Ang^3
#
#
#
# Elastic Constant Matrix: (Units=GPa)
#
#
# Indices 1 2 3 4 5 6 
#
# 1 99.9149 40.3529 29.8039 0.0000 0.0000 0.0000
# 2 40.3529 114.3022 44.0174 0.0000 0.0000 0.0000
# 3 29.8039 44.0174 112.3556 0.0000 0.0000 0.0000
# 4 0.0000 0.0000 0.0000 33.6522 0.0000 0.0000
# 5 0.0000 0.0000 0.0000 0.0000 23.4374 0.0000
# 6 0.0000 0.0000 0.0000 0.0000 0.0000 29.1262
#
#
#
# Elastic Compliance Matrix: (Units=1/GPa)
#
#
# Indices 1 2 3 4 5 6 
#
# 1 0.011971 -0.003537 -0.001790 0.000000 0.000000 0.000000
# 2 -0.003537 0.011348 -0.003508 0.000000 0.000000 0.000000
# 3 -0.001790 -0.003508 0.010749 0.000000 0.000000 0.000000
# 4 0.000000 0.000000 0.000000 0.029716 0.000000 0.000000
# 5 0.000000 0.000000 0.000000 0.000000 0.042667 0.000000
# 6 0.000000 0.000000 0.000000 0.000000 0.000000 0.034333
#
#
# Mechanical properties :
#
#
# Convention : Reuss Voigt Hill
#
# Bulk Modulus (GPa) = 60.97707 61.65792 61.31749
# Shear Modulus (GPa) = 30.50277 31.40305 30.95291
#
# Velocity S-wave (km/s) = 3.76654 3.82172 3.79423
# Velocity P-wave (km/s) = 6.87577 6.93910 6.90751
#
# Compressibility (1/GPa) = 0.01639961
#
# Stress axis : x y z
#
# Youngs Moduli (GPa) = 83.53620 88.11981 93.02962
#
# Poissons Ratio (x) = 0.31167 0.16650
# Poissons Ratio (y) = 0.29546 0.32632
# Poissons Ratio (z) = 0.14951 0.30909
#
# Static dielectric constant tensor:
#      x y z
#    x 3.768110 0.000000 0.000000 
#    y 0.000000 3.916120 0.000000 
#    z 0.000000 0.000000 4.248660 
# 
# 
# High freq. dielectric constant tensor:
#      x y z
#    x 1.812680 0.000000 0.000000 
#    y 0.000000 1.853760 0.000000 
#    z 0.000000 0.000000 1.859160 
# 
# From -- ./inp_files/39750.got.cif
#   From: 2010.03.12/outbox.cif.g09.slc.cpg/sg72_20_cif.got.tgz:39750.got - 2010.04.16 14:54:00.
