data_PCOD8294243
_publ_section_title
;
Structure prediction by ZEFSAII (Michael W. Deem and Ramdas Pophale) SiO2 
 PCOD8294243
Probable space group: I B A M
;
_chemical_formula_sum "Si O2"
_cell_formula_units_Z 116
_cell_length_a 22.417500
_cell_length_b 28.073549
_cell_length_c 9.447780
_cell_angle_alpha 90.000000
_cell_angle_beta 90.000000
_cell_angle_gamma 90.000000
_cell_volume 5945.854383
_symmetry_space_group_name_H-M "I B A M"
_symmetry_group_IT_number 72
_symmetry_cell_setting 'orthorhombic'
loop_
_space_group_symop_operation_xyz
x,y,z
-x,-y,z
x,-y,1/2-z
-x,y,1/2-z
-x,-y,-z
x,y,-z
-x,y,1/2+z
x,-y,1/2+z
1/2+x,1/2+y,1/2+z
1/2-x,1/2-y,1/2+z
1/2+x,1/2-y,-z
1/2-x,1/2+y,-z
1/2-x,1/2-y,1/2-z
1/2+x,1/2+y,1/2-z
1/2-x,1/2+y,z
1/2+x,1/2-y,z
loop_
_atom_site_type_symbol
_atom_site_label
_atom_site_fract_x
_atom_site_fract_y
_atom_site_fract_z
Si Si1 0.896964 0.069473 0.340380
Si Si2 0.758155 0.202462 0.160870
Si Si3 0.186310 0.386381 0.840125
Si Si4 0.443735 0.863930 0.164236
Si Si5 0.863012 0.829946 0.836109
Si Si6 0.500000 0.500000 0.250000
Si Si7 0.945912 0.744050 0.837940
Si Si8 0.767430 0.954468 0.830312
O O1 0.877708 0.068810 0.500000
O O2 0.907003 0.125158 0.296212
O O3 0.835606 0.051128 0.268663
O O4 0.955613 0.036126 0.329758
O O5 0.750000 0.250000 0.250000
O O6 0.698273 0.170704 0.161014
O O7 0.807097 0.167857 0.231884
O O8 0.776138 0.216074 0.000000
O O9 0.116297 0.393653 0.802922
O O10 0.226491 0.411041 0.721261
O O11 0.199744 0.405635 0.000000
O O12 0.500000 0.885346 0.250000
O O13 0.431441 0.809411 0.211923
O O14 0.460273 0.866629 0.000000
O O15 0.890937 0.778568 0.807970
O O16 0.842428 0.834305 0.000000
O O17 0.000000 0.765821 0.750000
O O18 0.965096 0.745744 0.000000
O O19 0.740586 0.000000 0.750000
O O20 0.762631 0.959291 0.000000
#
# Coordination Sequence:
#
# PCOD8294243 Si02
#       8
#    16  16  16  16  16   4  16  16
#     4  10  22  38  57  81 111 150 196 251 309 359
#     4  11  22  35  55  84 117 155 196 242 297 357
#     4  10  21  38  59  86 116 153 195 239 292 353
#     4   9  18  34  55  82 115 150 188 229 279 339
#     4  10  20  37  54  75 111 152 195 247 301 350
#     4  12  22  40  60  86 116 152 208 260 322 376
#     4   9  18  32  52  75 109 151 192 238 285 340
#     4  11  22  40  63  89 118 151 193 244 300 357
#
# _framework density 19.509391999999998
#
# number of rings (size 3 to 8) (size 9 to 14) (size 15 to 20)
#    0.000    1.931    2.069    1.862    0.966    3.862 
#    0.000    4.138    0.000    0.414    0.000    2.897 
#    0.000    0.000    0.000    0.000    0.000    0.000 
#
# Total GULP energy -718535.638714 kJ/mol
# GULP energy per Si atom -12388.545495 kJ/mol
# Density = 1.946499 g / cm^3
# Si number density = 19.509392 Si / 1000 Ang^3
#
#
#
# Elastic Constant Matrix: (Units=GPa)
#
#
# Indices 1 2 3 4 5 6 
#
# 1 112.7282 32.9672 45.6254 0.0000 0.0000 0.0000
# 2 32.9672 77.5203 31.3318 0.0000 0.0000 0.0000
# 3 45.6254 31.3318 76.4718 0.0000 0.0000 0.0000
# 4 0.0000 0.0000 0.0000 28.2839 0.0000 0.0000
# 5 0.0000 0.0000 0.0000 0.0000 30.8637 0.0000
# 6 0.0000 0.0000 0.0000 0.0000 0.0000 20.8439
#
#
#
# Elastic Compliance Matrix: (Units=1/GPa)
#
#
# Indices 1 2 3 4 5 6 
#
# 1 0.012142 -0.002679 -0.006147 0.000000 0.000000 0.000000
# 2 -0.002679 0.016051 -0.004978 0.000000 0.000000 0.000000
# 3 -0.006147 -0.004978 0.018783 0.000000 0.000000 0.000000
# 4 0.000000 0.000000 0.000000 0.035356 0.000000 0.000000
# 5 0.000000 0.000000 0.000000 0.000000 0.032401 0.000000
# 6 0.000000 0.000000 0.000000 0.000000 0.000000 0.047976
#
#
# Mechanical properties :
#
#
# Convention : Reuss Voigt Hill
#
# Bulk Modulus (GPa) = 51.62839 54.06324 52.84581
# Shear Modulus (GPa) = 25.40998 26.45138 25.93068
#
# Velocity S-wave (km/s) = 3.61286 3.68615 3.64969
# Velocity P-wave (km/s) = 6.62755 6.77410 6.70123
#
# Compressibility (1/GPa) = 0.01936919
#
# Stress axis : x y z
#
# Youngs Moduli (GPa) = 82.35695 62.30036 53.23824
#
# Poissons Ratio (x) = 0.16693 0.32724
# Poissons Ratio (y) = 0.22067 0.26501
# Poissons Ratio (z) = 0.50622 0.31012
#
# Static dielectric constant tensor:
#      x y z
#    x 3.544270 0.000000 0.000000 
#    y 0.000000 3.530320 0.000000 
#    z 0.000000 0.000000 3.472100 
# 
# 
# High freq. dielectric constant tensor:
#      x y z
#    x 1.752880 0.000000 0.000000 
#    y 0.000000 1.752710 0.000000 
#    z 0.000000 0.000000 1.749910 
# 
# From -- ./inp_files/7566.got.cif
#   From: 2010.03.12/outbox.cif.g09.slc.cpg/sg72_4_cif.got.tgz:7566.got - 2010.04.16 14:54:00.
