data_PCOD8294296
_publ_section_title
;
Structure prediction by ZEFSAII (Michael W. Deem and Ramdas Pophale) SiO2 
 PCOD8294296
Probable space group: I B A M
;
_chemical_formula_sum "Si O2"
_cell_formula_units_Z 52
_cell_length_a 19.107961
_cell_length_b 15.864047
_cell_length_c 8.635867
_cell_angle_alpha 90.000000
_cell_angle_beta 90.000000
_cell_angle_gamma 90.000000
_cell_volume 2617.786835
_symmetry_space_group_name_H-M "I B A M"
_symmetry_group_IT_number 72
_symmetry_cell_setting 'orthorhombic'
loop_
_space_group_symop_operation_xyz
x,y,z
-x,-y,z
x,-y,1/2-z
-x,y,1/2-z
-x,-y,-z
x,y,-z
-x,y,1/2+z
x,-y,1/2+z
1/2+x,1/2+y,1/2+z
1/2-x,1/2-y,1/2+z
1/2+x,1/2-y,-z
1/2-x,1/2+y,-z
1/2-x,1/2-y,1/2-z
1/2+x,1/2+y,1/2-z
1/2-x,1/2+y,z
1/2+x,1/2-y,z
loop_
_atom_site_type_symbol
_atom_site_label
_atom_site_fract_x
_atom_site_fract_y
_atom_site_fract_z
Si Si1 0.576020 0.409499 0.315634
Si Si2 0.433005 0.160779 0.170071
Si Si3 0.825757 0.234559 0.681692
Si Si4 0.500000 0.000000 0.750000
O O1 0.599446 0.500000 0.250000
O O2 0.500000 0.384026 0.250000
O O3 0.572174 0.413860 0.500000
O O4 0.634377 0.342302 0.264148
O O5 0.500000 0.205886 0.250000
O O6 0.367180 0.178912 0.280165
O O7 0.448536 0.060540 0.150926
O O8 0.420567 0.200125 0.000000
O O9 0.821382 0.217907 0.500000
O O10 0.750000 0.250000 0.750000
#
# Coordination Sequence:
#
# PCOD8294296 Si02
#       4
#    16  16  16   4
#     4  11  22  41  67  95 124 159 206 257 307 361
#     4  10  20  37  61  90 122 158 202 249 299 357
#     4  12  25  42  62  89 125 165 206 252 310 370
#     4   8  22  36  66  92 128 152 204 244 306 348
#
# _framework density 19.864107000000001
#
# number of rings (size 3 to 8) (size 9 to 14) (size 15 to 20)
#    0.923    0.308    0.000    8.769    0.000    0.000 
#    2.769    0.000    0.000    0.000    0.000    0.000 
#    0.000    0.000    0.000    0.000    0.000    0.000 
#
# Total GULP energy -322157.209434 kJ/mol
# GULP energy per Si atom -12390.661901 kJ/mol
# Density = 1.981890 g / cm^3
# Si number density = 19.864107 Si / 1000 Ang^3
#
#
#
# Elastic Constant Matrix: (Units=GPa)
#
#
# Indices 1 2 3 4 5 6 
#
# 1 166.0781 63.9155 63.8194 0.0000 0.0000 0.0000
# 2 63.9155 124.0510 40.6180 0.0000 0.0000 0.0000
# 3 63.8194 40.6180 193.2274 0.0000 0.0000 0.0000
# 4 0.0000 0.0000 0.0000 28.2232 0.0000 0.0000
# 5 0.0000 0.0000 0.0000 0.0000 35.8691 0.0000
# 6 0.0000 0.0000 0.0000 0.0000 0.0000 13.7068
#
#
#
# Elastic Compliance Matrix: (Units=1/GPa)
#
#
# Indices 1 2 3 4 5 6 
#
# 1 0.008135 -0.003557 -0.001939 0.000000 0.000000 0.000000
# 2 -0.003557 0.010212 -0.000972 0.000000 0.000000 0.000000
# 3 -0.001939 -0.000972 0.006020 0.000000 0.000000 0.000000
# 4 0.000000 0.000000 0.000000 0.035432 0.000000 0.000000
# 5 0.000000 0.000000 0.000000 0.000000 0.027879 0.000000
# 6 0.000000 0.000000 0.000000 0.000000 0.000000 0.072957
#
#
# Mechanical properties :
#
#
# Convention : Reuss Voigt Hill
#
# Bulk Modulus (GPa) = 87.47705 91.11804 89.29754
# Shear Modulus (GPa) = 28.18792 36.56006 32.37399
#
# Velocity S-wave (km/s) = 3.77110 4.29477 4.04142
# Velocity P-wave (km/s) = 7.94323 8.40022 8.17492
#
# Compressibility (1/GPa) = 0.01143157
#
# Stress axis : x y z
#
# Youngs Moduli (GPa) = 122.92198 97.92472 166.11088
#
# Poissons Ratio (x) = 0.34828 0.32214
# Poissons Ratio (y) = 0.43718 0.16145
# Poissons Ratio (z) = 0.23838 0.09518
#
# Static dielectric constant tensor:
#      x y z
#    x 3.588070 0.000000 0.000000 
#    y 0.000000 3.676500 0.000000 
#    z 0.000000 0.000000 3.898450 
# 
# 
# High freq. dielectric constant tensor:
#      x y z
#    x 1.761890 0.000000 0.000000 
#    y 0.000000 1.777030 0.000000 
#    z 0.000000 0.000000 1.794350 
# 
# From -- ./inp_files/4122.got.cif
#   From: 2010.03.12/outbox.cif.g09.slc.cpg/sg72_3_cif.got.tgz:4122.got - 2010.04.16 14:54:00.
