data_PCOD8294121
_publ_section_title
;
Structure prediction by ZEFSAII (Michael W. Deem and Ramdas Pophale) SiO2 
 PCOD8294121
Probable space group: I B A M
;
_chemical_formula_sum "Si O2"
_cell_formula_units_Z 112
_cell_length_a 14.318267
_cell_length_b 21.843912
_cell_length_c 16.854725
_cell_angle_alpha 90.000000
_cell_angle_beta 90.000000
_cell_angle_gamma 90.000000
_cell_volume 5271.601173
_symmetry_space_group_name_H-M "I B A M"
_symmetry_group_IT_number 72
_symmetry_cell_setting 'orthorhombic'
loop_
_space_group_symop_operation_xyz
x,y,z
-x,-y,z
x,-y,1/2-z
-x,y,1/2-z
-x,-y,-z
x,y,-z
-x,y,1/2+z
x,-y,1/2+z
1/2+x,1/2+y,1/2+z
1/2-x,1/2-y,1/2+z
1/2+x,1/2-y,-z
1/2-x,1/2+y,-z
1/2-x,1/2-y,1/2-z
1/2+x,1/2+y,1/2-z
1/2-x,1/2+y,z
1/2+x,1/2-y,z
loop_
_atom_site_type_symbol
_atom_site_label
_atom_site_fract_x
_atom_site_fract_y
_atom_site_fract_z
Si Si1 0.698046 0.238559 0.166900
Si Si2 0.930728 0.605478 0.592955
Si Si3 0.119274 0.263161 0.590444
Si Si4 0.723103 0.013715 0.593838
Si Si5 0.857819 0.386365 0.592787
Si Si6 0.477697 0.673291 0.162948
Si Si7 0.574997 0.452790 0.907149
O O1 0.750000 0.250000 0.250000
O O2 0.769316 0.256489 0.097056
O O3 0.667056 0.168591 0.152282
O O4 0.607628 0.280098 0.160481
O O5 0.910047 0.609182 0.500000
O O6 0.910688 0.672440 0.630125
O O7 0.860359 0.555331 0.631007
O O8 0.037880 0.588492 0.609709
O O9 0.086769 0.260478 0.500000
O O10 0.070720 0.207262 0.634919
O O11 0.720877 0.022136 0.500000
O O12 0.709930 0.942401 0.614845
O O13 0.822399 0.035057 0.630221
O O14 0.848219 0.366400 0.500000
O O15 0.500000 0.648011 0.250000
O O16 0.456517 0.616349 0.106957
O O17 0.500000 0.500000 0.869460
O O18 0.581585 0.465112 0.000000
#
# Coordination Sequence:
#
# PCOD8294121 Si02
#       7
#    16  16  16  16  16  16  16
#     4  12  25  41  61  93 132 175 216 271 334 388
#     4   9  17  33  58  93 126 158 202 262 325 380
#     4  11  23  39  66  96 127 170 222 271 320 390
#     4   9  18  34  59  93 129 164 204 265 329 384
#     4  10  20  35  61  93 127 165 216 268 322 391
#     4  12  25  44  65  93 128 176 220 271 333 391
#     4  10  23  41  64  94 129 167 216 274 325 386
#
# _framework density 21.245916999999999
#
# number of rings (size 3 to 8) (size 9 to 14) (size 15 to 20)
#    0.000    1.571    2.857    2.143    2.000    4.857 
#    0.000    0.000    0.000    2.571    0.000    5.000 
#    0.000    0.000    0.000    0.000    0.000    0.286 
#
# Total GULP energy -694409.203005 kJ/mol
# GULP energy per Si atom -12400.164339 kJ/mol
# Density = 2.119756 g / cm^3
# Si number density = 21.245917 Si / 1000 Ang^3
#
#
#
# Elastic Constant Matrix: (Units=GPa)
#
#
# Indices 1 2 3 4 5 6 
#
# 1 117.2184 52.1061 18.8723 0.0000 0.0000 0.0000
# 2 52.1061 137.0313 20.6650 -0.0001 -0.0001 0.0000
# 3 18.8723 20.6650 40.2028 0.0000 -0.0001 -0.0001
# 4 0.0000 -0.0001 0.0000 16.0157 -0.0001 -0.0001
# 5 0.0000 -0.0001 -0.0001 -0.0001 18.5262 0.0000
# 6 0.0000 0.0000 -0.0001 -0.0001 0.0000 36.5493
#
#
#
# Elastic Compliance Matrix: (Units=1/GPa)
#
#
# Indices 1 2 3 4 5 6 
#
# 1 0.010623 -0.003564 -0.003155 0.000000 0.000000 0.000000
# 2 -0.003564 0.009106 -0.003008 0.000000 0.000000 0.000000
# 3 -0.003155 -0.003008 0.027901 0.000000 0.000000 0.000000
# 4 0.000000 0.000000 0.000000 0.062439 0.000000 0.000000
# 5 0.000000 0.000000 0.000000 0.000000 0.053977 0.000000
# 6 0.000000 0.000000 0.000000 0.000000 0.000000 0.027360
#
#
# Mechanical properties :
#
#
# Convention : Reuss Voigt Hill
#
# Bulk Modulus (GPa) = 35.48955 53.08216 44.28585
# Shear Modulus (GPa) = 22.70118 27.73884 25.22001
#
# Velocity S-wave (km/s) = 3.27233 3.61724 3.44910
# Velocity P-wave (km/s) = 5.56938 6.51803 6.06229
#
# Compressibility (1/GPa) = 0.02817731
#
# Stress axis : x y z
#
# Youngs Moduli (GPa) = 94.13382 109.81413 35.84095
#
# Poissons Ratio (x) = 0.39134 0.11308
# Poissons Ratio (y) = 0.33546 0.10781
# Poissons Ratio (z) = 0.29699 0.33031
#
# Static dielectric constant tensor:
#      x y z
#    x 4.248180 0.000000 0.000000 
#    y 0.000000 3.879840 0.000000 
#    z 0.000000 0.000000 3.446780 
# 
# 
# High freq. dielectric constant tensor:
#      x y z
#    x 1.851710 0.000000 0.000000 
#    y 0.000000 1.841640 0.000000 
#    z 0.000000 0.000000 1.791350 
# 
# From -- ./inp_files/22099.got.cif
#   From: 2010.03.12/outbox.cif.g09.slc.cpg/sg72_12_cif.got.tgz:22099.got - 2010.04.16 14:54:00.
