data_PCOD8294241
_publ_section_title
;
Structure prediction by ZEFSAII (Michael W. Deem and Ramdas Pophale) SiO2 
 PCOD8294241
Probable space group: I B A M
;
_chemical_formula_sum "Si O2"
_cell_formula_units_Z 104
_cell_length_a 17.738290
_cell_length_b 13.046784
_cell_length_c 22.516364
_cell_angle_alpha 90.000000
_cell_angle_beta 90.000000
_cell_angle_gamma 90.000000
_cell_volume 5210.908940
_symmetry_space_group_name_H-M "I B A M"
_symmetry_group_IT_number 72
_symmetry_cell_setting 'orthorhombic'
loop_
_space_group_symop_operation_xyz
x,y,z
-x,-y,z
x,-y,1/2-z
-x,y,1/2-z
-x,-y,-z
x,y,-z
-x,y,1/2+z
x,-y,1/2+z
1/2+x,1/2+y,1/2+z
1/2-x,1/2-y,1/2+z
1/2+x,1/2-y,-z
1/2-x,1/2+y,-z
1/2-x,1/2-y,1/2-z
1/2+x,1/2+y,1/2-z
1/2-x,1/2+y,z
1/2+x,1/2-y,z
loop_
_atom_site_type_symbol
_atom_site_label
_atom_site_fract_x
_atom_site_fract_y
_atom_site_fract_z
Si Si1 0.799538 0.625957 0.500000
Si Si2 0.854821 0.810910 0.685478
Si Si3 0.131121 0.206588 0.823118
Si Si4 0.587946 0.701366 0.000000
Si Si5 0.782008 0.372844 0.129002
Si Si6 0.987688 0.883946 0.388066
Si Si7 0.248189 0.103400 0.500000
Si Si8 0.707511 0.891281 0.370642
O O1 0.882511 0.680206 0.500000
O O2 0.761617 0.662812 0.438610
O O3 0.790059 0.505042 0.500000
O O4 0.878520 0.794410 0.752964
O O5 0.848260 0.698699 0.654991
O O6 0.919881 0.880782 0.658440
O O7 0.776912 0.870827 0.674322
O O8 0.205547 0.139370 0.834816
O O9 0.138486 0.323875 0.845967
O O10 0.061903 0.157172 0.856748
O O11 0.534086 0.685786 0.943851
O O12 0.656842 0.616894 0.000000
O O13 0.812686 0.488901 0.131085
O O14 0.000000 0.000000 0.409430
O O15 0.274806 0.151347 0.437307
#
# Coordination Sequence:
#
# PCOD8294241 Si02
#       8
#     8  16  16   8  16  16   8  16
#     4  10  20  36  69  89 118 158 191 254 318 351
#     4  11  22  40  59  85 127 165 202 248 308 362
#     4  11  25  37  58  92 120 163 209 248 301 368
#     4  12  21  44  64  93 126 160 197 255 316 374
#     4  10  20  38  66  89 120 153 205 260 312 353
#     4  12  26  41  61  88 124 164 197 250 308 374
#     4  10  20  36  67  96 118 152 202 250 317 362
#     4  10  20  38  64  94 117 155 208 260 303 364
#
# _framework density 19.958130000000001
#
# number of rings (size 3 to 8) (size 9 to 14) (size 15 to 20)
#    0.000    1.231    3.077    4.385    2.154    6.154 
#    0.000    0.769    0.000    3.692    0.000    0.000 
#    0.000    0.000    0.000    0.000    0.000    0.000 
#
# Total GULP energy -644220.443027 kJ/mol
# GULP energy per Si atom -12388.854674 kJ/mol
# Density = 1.991270 g / cm^3
# Si number density = 19.958130 Si / 1000 Ang^3
#
#
#
# Elastic Constant Matrix: (Units=GPa)
#
#
# Indices 1 2 3 4 5 6 
#
# 1 57.9783 15.9266 8.5130 0.0000 0.0000 0.0000
# 2 15.9266 90.5817 11.4648 0.0000 0.0000 0.0000
# 3 8.5130 11.4648 124.3892 0.0000 0.0000 0.0000
# 4 0.0000 0.0000 0.0000 25.9823 0.0000 0.0000
# 5 0.0000 0.0000 0.0000 0.0000 41.3512 0.0000
# 6 0.0000 0.0000 0.0000 0.0000 0.0000 27.2341
#
#
#
# Elastic Compliance Matrix: (Units=1/GPa)
#
#
# Indices 1 2 3 4 5 6 
#
# 1 0.018237 -0.003084 -0.000964 0.000000 0.000000 0.000000
# 2 -0.003084 0.011692 -0.000867 0.000000 0.000000 0.000000
# 3 -0.000964 -0.000867 0.008185 0.000000 0.000000 0.000000
# 4 0.000000 0.000000 0.000000 0.038488 0.000000 0.000000
# 5 0.000000 0.000000 0.000000 0.000000 0.024183 0.000000
# 6 0.000000 0.000000 0.000000 0.000000 0.000000 0.036719
#
#
# Mechanical properties :
#
#
# Convention : Reuss Voigt Hill
#
# Bulk Modulus (GPa) = 35.35577 38.30645 36.83111
# Shear Modulus (GPa) = 31.89577 34.71650 33.30613
#
# Velocity S-wave (km/s) = 4.00200 4.17522 4.08953
# Velocity P-wave (km/s) = 6.25365 6.51754 6.38696
#
# Compressibility (1/GPa) = 0.02828393
#
# Stress axis : x y z
#
# Youngs Moduli (GPa) = 54.83462 85.53029 122.17305
#
# Poissons Ratio (x) = 0.26382 0.11775
# Poissons Ratio (y) = 0.16914 0.10587
# Poissons Ratio (z) = 0.05285 0.07411
#
# Static dielectric constant tensor:
#      x y z
#    x 3.593940 0.000000 0.000000 
#    y 0.000000 3.879320 0.000000 
#    z 0.000000 0.000000 4.044700 
# 
# 
# High freq. dielectric constant tensor:
#      x y z
#    x 1.743780 0.000000 0.000000 
#    y 0.000000 1.785690 0.000000 
#    z 0.000000 0.000000 1.804860 
# 
# From -- ./inp_files/38307.got.cif
#   From: 2010.03.12/outbox.cif.g09.slc.cpg/sg72_20_cif.got.tgz:38307.got - 2010.04.16 14:54:00.
