data_PCOD8294091
_publ_section_title
;
Structure prediction by ZEFSAII (Michael W. Deem and Ramdas Pophale) SiO2 
 PCOD8294091
Probable space group: I B A M
;
_chemical_formula_sum "Si O2"
_cell_formula_units_Z 116
_cell_length_a 20.175609
_cell_length_b 33.941175
_cell_length_c 8.927421
_cell_angle_alpha 90.000000
_cell_angle_beta 90.000000
_cell_angle_gamma 90.000000
_cell_volume 6113.353953
_symmetry_space_group_name_H-M "I B A M"
_symmetry_group_IT_number 72
_symmetry_cell_setting 'orthorhombic'
loop_
_space_group_symop_operation_xyz
x,y,z
-x,-y,z
x,-y,1/2-z
-x,y,1/2-z
-x,-y,-z
x,y,-z
-x,y,1/2+z
x,-y,1/2+z
1/2+x,1/2+y,1/2+z
1/2-x,1/2-y,1/2+z
1/2+x,1/2-y,-z
1/2-x,1/2+y,-z
1/2-x,1/2-y,1/2-z
1/2+x,1/2+y,1/2-z
1/2-x,1/2+y,z
1/2+x,1/2-y,z
loop_
_atom_site_type_symbol
_atom_site_label
_atom_site_fract_x
_atom_site_fract_y
_atom_site_fract_z
Si Si1 0.189090 0.888774 0.674928
Si Si2 0.127827 0.037737 0.666912
Si Si3 0.500000 0.500000 0.250000
Si Si4 0.203275 0.806361 0.823792
Si Si5 0.566798 0.170317 0.327553
Si Si6 0.156199 0.270676 0.824007
Si Si7 0.935037 0.541813 0.824548
Si Si8 0.658727 0.096948 0.668767
O O1 0.173173 0.884540 0.500000
O O2 0.141156 0.922003 0.743564
O O3 0.177312 0.846966 0.753448
O O4 0.264237 0.901258 0.704587
O O5 0.157286 0.041604 0.500000
O O6 0.048453 0.028940 0.654853
O O7 0.162177 0.000000 0.750000
O O8 0.160028 0.771672 0.753136
O O9 0.280157 0.797843 0.785066
O O10 0.191174 0.807747 0.000000
O O11 0.500000 0.154410 0.250000
O O12 0.552180 0.179890 0.500000
O O13 0.590562 0.209410 0.242496
O O14 0.625358 0.139075 0.309391
O O15 0.148725 0.264648 0.000000
O O16 0.923620 0.500000 0.750000
O O17 0.870861 0.567560 0.791014
O O18 0.000000 0.562024 0.750000
O O19 0.946246 0.537390 0.000000
O O20 0.645935 0.081380 0.500000
#
# Coordination Sequence:
#
# PCOD8294091 Si02
#       8
#    16  16   4  16  16  16  16  16
#     4  11  22  37  59  89 124 157 195 243 295 350
#     4  10  21  38  63  92 121 155 196 239 291 352
#     4   8  22  40  70  92 122 160 200 244 286 356
#     4  10  20  35  58  86 118 153 192 238 293 355
#     4  11  22  37  57  82 113 152 197 246 295 348
#     4  10  20  35  58  85 114 152 196 240 292 353
#     4  11  22  37  57  76 102 142 190 239 290 348
#     4  10  22  38  55  80 114 150 191 240 289 342
#
# _framework density 18.974854000000001
#
# number of rings (size 3 to 8) (size 9 to 14) (size 15 to 20)
#    0.414    1.241    1.379    4.345    0.000    4.966 
#    0.000    0.000    1.517    0.000    0.000    0.000 
#    0.000    0.000    0.000    0.000    0.000    0.000 
#
# Total GULP energy -719154.524950 kJ/mol
# GULP energy per Si atom -12399.215947 kJ/mol
# Density = 1.893167 g / cm^3
# Si number density = 18.974854 Si / 1000 Ang^3
#
#
#
# Elastic Constant Matrix: (Units=GPa)
#
#
# Indices 1 2 3 4 5 6 
#
# 1 70.8043 36.4169 34.9971 -0.0008 -0.0034 -0.0027
# 2 36.4169 118.9751 62.5552 -0.0005 0.0011 0.0011
# 3 34.9971 62.5552 137.3308 0.0070 0.0190 0.0158
# 4 -0.0008 -0.0005 0.0070 35.6611 0.0026 0.0055
# 5 -0.0034 0.0011 0.0190 0.0026 27.1298 -0.0006
# 6 -0.0027 0.0011 0.0158 0.0055 -0.0006 66.7784
#
#
#
# Elastic Compliance Matrix: (Units=1/GPa)
#
#
# Indices 1 2 3 4 5 6 
#
# 1 0.017467 -0.003953 -0.002651 0.000001 0.000004 0.000001
# 2 -0.003953 0.011947 -0.004434 0.000001 0.000002 0.000001
# 3 -0.002651 -0.004434 0.009977 -0.000002 -0.000007 -0.000002
# 4 0.000001 0.000001 -0.000002 0.028042 -0.000003 -0.000002
# 5 0.000004 0.000002 -0.000007 -0.000003 0.036860 0.000000
# 6 0.000001 0.000001 -0.000002 -0.000002 0.000000 0.014975
#
#
# Mechanical properties :
#
#
# Convention : Reuss Voigt Hill
#
# Bulk Modulus (GPa) = 57.75446 66.11651 61.93549
# Shear Modulus (GPa) = 33.98725 38.78991 36.38858
#
# Velocity S-wave (km/s) = 4.23682 4.52628 4.38394
# Velocity P-wave (km/s) = 7.37818 7.88899 7.63786
#
# Compressibility (1/GPa) = 0.01731468
#
# Stress axis : x y z
#
# Youngs Moduli (GPa) = 57.25215 83.70618 100.22936
#
# Poissons Ratio (x) = 0.33086 0.26568
# Poissons Ratio (y) = 0.22630 0.44446
# Poissons Ratio (z) = 0.15176 0.37119
#
# Static dielectric constant tensor:
#      x y z
#    x 3.288790 0.000000 -0.000020 
#    y 0.000000 3.405910 -0.000030 
#    z -0.000020 -0.000030 3.526460 
# 
# 
# High freq. dielectric constant tensor:
#      x y z
#    x 1.714020 0.000000 0.000000 
#    y 0.000000 1.737270 0.000000 
#    z 0.000000 0.000000 1.752130 
# 
# From -- ./inp_files/7528.got.cif
#   From: 2010.03.12/outbox.cif.g09.slc.cpg/sg72_4_cif.got.tgz:7528.got - 2010.04.16 14:54:00.
