data_PCOD8294575
_publ_section_title
;
Structure prediction by ZEFSAII (Michael W. Deem and Ramdas Pophale) SiO2 
 PCOD8294575
Probable space group: I B A M
;
_chemical_formula_sum "Si O2"
_cell_formula_units_Z 88
_cell_length_a 17.477383
_cell_length_b 27.005256
_cell_length_c 9.027737
_cell_angle_alpha 90.000000
_cell_angle_beta 90.000000
_cell_angle_gamma 90.000000
_cell_volume 4260.922162
_symmetry_space_group_name_H-M "I B A M"
_symmetry_group_IT_number 72
_symmetry_cell_setting 'orthorhombic'
loop_
_space_group_symop_operation_xyz
x,y,z
-x,-y,z
x,-y,1/2-z
-x,y,1/2-z
-x,-y,-z
x,y,-z
-x,y,1/2+z
x,-y,1/2+z
1/2+x,1/2+y,1/2+z
1/2-x,1/2-y,1/2+z
1/2+x,1/2-y,-z
1/2-x,1/2+y,-z
1/2-x,1/2-y,1/2-z
1/2+x,1/2+y,1/2-z
1/2-x,1/2+y,z
1/2+x,1/2-y,z
loop_
_atom_site_type_symbol
_atom_site_label
_atom_site_fract_x
_atom_site_fract_y
_atom_site_fract_z
Si Si1 0.796281 0.000000 0.250000
Si Si2 0.709309 0.902562 0.830336
Si Si3 0.068809 0.939706 0.841476
Si Si4 0.169693 0.740438 0.827632
Si Si5 0.917549 0.650759 0.822287
Si Si6 0.840610 0.849653 0.329084
O O1 0.742524 0.041822 0.321378
O O2 0.855711 0.025945 0.137349
O O3 0.632512 0.896515 0.732071
O O4 0.766160 0.859719 0.771836
O O5 0.689851 0.890809 0.000000
O O6 0.093575 0.886915 0.771727
O O7 0.000000 0.964111 0.750000
O O8 0.031725 0.931006 0.000000
O O9 0.250000 0.750000 0.750000
O O10 0.119983 0.701265 0.737510
O O11 0.127999 0.793919 0.816218
O O12 0.178950 0.724497 0.000000
O O13 0.000000 0.644733 0.750000
O O14 0.922782 0.651965 0.000000
O O15 0.818587 0.862322 0.500000
#
# Coordination Sequence:
#
# PCOD8294575 Si02
#       6
#     8  16  16  16  16  16
#     4  10  23  40  63  90 118 156 204 256 311 376
#     4  11  22  39  65  93 120 156 206 257 309 375
#     4  10  21  37  56  84 123 163 202 249 302 357
#     4  11  21  37  63  95 128 168 213 257 305 365
#     4  12  26  44  65  92 128 166 205 259 315 372
#     4   9  20  37  58  86 125 167 206 251 302 360
#
# _framework density 20.652805000000001
#
# number of rings (size 3 to 8) (size 9 to 14) (size 15 to 20)
#    0.000    1.455    1.818    3.545    0.000    8.000 
#    0.000    2.273    0.000    2.182    0.000    0.000 
#    0.000    0.000    0.000    0.000    0.000    0.000 
#
# Total GULP energy -545196.570237 kJ/mol
# GULP energy per Si atom -12390.831142 kJ/mol
# Density = 2.060580 g / cm^3
# Si number density = 20.652805 Si / 1000 Ang^3
#
#
#
# Elastic Constant Matrix: (Units=GPa)
#
#
# Indices 1 2 3 4 5 6 
#
# 1 135.2165 54.7887 64.4715 -0.0001 0.0000 0.0000
# 2 54.7887 119.0491 34.8421 -0.0001 0.0000 0.0000
# 3 64.4715 34.8421 150.4037 0.0000 0.0003 -0.0001
# 4 -0.0001 -0.0001 0.0000 16.8630 -0.0002 -0.0001
# 5 0.0000 0.0000 0.0003 -0.0002 31.1997 0.0000
# 6 0.0000 0.0000 -0.0001 -0.0001 0.0000 18.6507
#
#
#
# Elastic Compliance Matrix: (Units=1/GPa)
#
#
# Indices 1 2 3 4 5 6 
#
# 1 0.010722 -0.003850 -0.003704 0.000000 0.000000 0.000000
# 2 -0.003850 0.010394 -0.000757 0.000000 0.000000 0.000000
# 3 -0.003704 -0.000757 0.008412 0.000000 0.000000 0.000000
# 4 0.000000 0.000000 0.000000 0.059301 0.000000 0.000000
# 5 0.000000 0.000000 0.000000 0.000000 0.032052 0.000000
# 6 0.000000 0.000000 0.000000 0.000000 0.000000 0.053617
#
#
# Mechanical properties :
#
#
# Convention : Reuss Voigt Hill
#
# Bulk Modulus (GPa) = 77.49504 79.20820 78.35162
# Shear Modulus (GPa) = 25.58568 30.04716 27.81642
#
# Velocity S-wave (km/s) = 3.52355 3.81841 3.67394
# Velocity P-wave (km/s) = 7.35922 7.60762 7.48445
#
# Compressibility (1/GPa) = 0.01290405
#
# Stress axis : x y z
#
# Youngs Moduli (GPa) = 93.26859 96.21386 118.87871
#
# Poissons Ratio (x) = 0.37045 0.44032
# Poissons Ratio (y) = 0.35911 0.09002
# Poissons Ratio (z) = 0.34547 0.07286
#
# Static dielectric constant tensor:
#      x y z
#    x 3.779240 0.000000 0.000000 
#    y 0.000000 4.129010 0.000000 
#    z 0.000000 0.000000 3.796080 
# 
# 
# High freq. dielectric constant tensor:
#      x y z
#    x 1.789220 0.000000 0.000000 
#    y 0.000000 1.822040 0.000000 
#    z 0.000000 0.000000 1.812690 
# 
# From -- ./inp_files/5146.got.cif
#   From: 2010.03.12/outbox.cif.g09.slc.cpg/sg72_3_cif.got.tgz:5146.got - 2010.04.16 14:54:00.
