data_PCOD8294953
_publ_section_title
;
Structure prediction by ZEFSAII (Michael W. Deem and Ramdas Pophale) SiO2 
 PCOD8294953
Probable space group: I B A M
;
_chemical_formula_sum "Si O2"
_cell_formula_units_Z 96
_cell_length_a 18.381632
_cell_length_b 28.563236
_cell_length_c 8.717429
_cell_angle_alpha 90.000000
_cell_angle_beta 90.000000
_cell_angle_gamma 90.000000
_cell_volume 4576.989271
_symmetry_space_group_name_H-M "I B A M"
_symmetry_group_IT_number 72
_symmetry_cell_setting 'orthorhombic'
loop_
_space_group_symop_operation_xyz
x,y,z
-x,-y,z
x,-y,1/2-z
-x,y,1/2-z
-x,-y,-z
x,y,-z
-x,y,1/2+z
x,-y,1/2+z
1/2+x,1/2+y,1/2+z
1/2-x,1/2-y,1/2+z
1/2+x,1/2-y,-z
1/2-x,1/2+y,-z
1/2-x,1/2-y,1/2-z
1/2+x,1/2+y,1/2-z
1/2-x,1/2+y,z
1/2+x,1/2-y,z
loop_
_atom_site_type_symbol
_atom_site_label
_atom_site_fract_x
_atom_site_fract_y
_atom_site_fract_z
Si Si1 0.423420 0.221269 0.177831
Si Si2 0.670161 0.146503 0.821885
Si Si3 0.283011 0.950346 0.317772
Si Si4 0.567424 0.632107 0.324490
Si Si5 0.177654 0.808081 0.825728
Si Si6 0.374475 0.546172 0.320737
O O1 0.500000 0.239097 0.250000
O O2 0.400796 0.172230 0.255111
O O3 0.354807 0.256466 0.203235
O O4 0.437783 0.213134 0.000000
O O5 0.675257 0.095828 0.741208
O O6 0.737101 0.183225 0.795513
O O7 0.659360 0.136350 0.000000
O O8 0.288967 0.952842 0.500000
O O9 0.200258 0.943309 0.267100
O O10 0.313483 0.000000 0.250000
O O11 0.500000 0.661312 0.250000
O O12 0.555233 0.619449 0.500000
O O13 0.641140 0.660114 0.303467
O O14 0.568862 0.586498 0.216789
O O15 0.158453 0.824148 0.000000
O O16 0.410271 0.500000 0.250000
O O17 0.358507 0.541257 0.500000
#
# Coordination Sequence:
#
# PCOD8294953 Si02
#       6
#    16  16  16  16  16  16
#     4  11  24  42  63  91 126 166 209 256 312 372
#     4  11  22  39  65  95 127 164 206 257 309 365
#     4  11  21  36  60  92 125 162 203 251 307 364
#     4  12  24  37  55  79 112 156 203 252 307 363
#     4  10  22  40  62  89 122 160 206 256 305 361
#     4  11  21  36  55  78 110 149 197 249 305 364
#
# _framework density 20.974485999999999
#
# number of rings (size 3 to 8) (size 9 to 14) (size 15 to 20)
#    0.000    1.000    1.667    7.500    0.000    3.667 
#    0.000    1.667    0.000    0.500    0.000    3.500 
#    0.000    0.000    0.000    0.000    0.000    0.000 
#
# Total GULP energy -594894.455195 kJ/mol
# GULP energy per Si atom -12393.634483 kJ/mol
# Density = 2.092675 g / cm^3
# Si number density = 20.974486 Si / 1000 Ang^3
#
#
#
# Elastic Constant Matrix: (Units=GPa)
#
#
# Indices 1 2 3 4 5 6 
#
# 1 49.7326 31.9096 31.4256 0.0000 0.0000 0.0000
# 2 31.9096 108.3354 60.6695 -0.0001 -0.0001 0.0000
# 3 31.4256 60.6695 166.9424 0.0008 0.0001 0.0000
# 4 0.0000 -0.0001 0.0008 35.5363 0.0000 0.0001
# 5 0.0000 -0.0001 0.0001 0.0000 31.1214 0.0001
# 6 0.0000 0.0000 0.0000 0.0001 0.0001 -3.0619
#
#
#
# Elastic Compliance Matrix: (Units=1/GPa)
#
#
# Indices 1 2 3 4 5 6 
#
# 1 0.025673 -0.006096 -0.002617 0.000000 0.000000 0.000000
# 2 -0.006096 0.013037 -0.003590 0.000000 0.000000 0.000000
# 3 -0.002617 -0.003590 0.007788 0.000000 0.000000 0.000000
# 4 0.000000 0.000000 0.000000 0.028140 0.000000 0.000001
# 5 0.000000 0.000000 0.000000 0.000000 0.032132 0.000001
# 6 0.000000 0.000000 0.000000 0.000001 0.000001 -0.326595
#
#
# Mechanical properties :
#
#
# Convention : Reuss Voigt Hill
#
# Bulk Modulus (GPa) = 45.68322 63.66886 54.67604
# Shear Modulus (GPa) = -26.60675 26.11956 -0.24360
#
# Velocity S-wave (km/s) = -3.56551 3.53271 -0.34116
# Velocity P-wave (km/s) = 2.20844 6.86013 5.09601
#
# Compressibility (1/GPa) = 0.02188987
#
# Stress axis : x y z
#
# Youngs Moduli (GPa) = 38.95185 76.70641 128.41065
#
# Poissons Ratio (x) = 0.46760 0.33609
# Poissons Ratio (y) = 0.23745 0.46102
# Poissons Ratio (z) = 0.10195 0.27539
#
# Static dielectric constant tensor:
#      x y z
#    x 3.546660 0.000000 0.000000 
#    y 0.000000 3.888870 0.000000 
#    z 0.000000 0.000000 3.776090 
# 
# 
# High freq. dielectric constant tensor:
#      x y z
#    x 1.793670 0.000000 0.000000 
#    y 0.000000 1.826250 0.000000 
#    z 0.000000 0.000000 1.835810 
# 
# From -- ./inp_files/6013.got.cif
#   From: 2010.03.12/outbox.cif.g09.slc.cpg/sg72_4_cif.got.tgz:6013.got - 2010.04.16 14:54:00.
