data_PCOD8294946
_publ_section_title
;
Structure prediction by ZEFSAII (Michael W. Deem and Ramdas Pophale) SiO2 
 PCOD8294946
Probable space group: I B A M
;
_chemical_formula_sum "Si O2"
_cell_formula_units_Z 104
_cell_length_a 9.954193
_cell_length_b 26.874715
_cell_length_c 18.177688
_cell_angle_alpha 90.000000
_cell_angle_beta 90.000000
_cell_angle_gamma 90.000000
_cell_volume 4862.824200
_symmetry_space_group_name_H-M "I B A M"
_symmetry_group_IT_number 72
_symmetry_cell_setting 'orthorhombic'
loop_
_space_group_symop_operation_xyz
x,y,z
-x,-y,z
x,-y,1/2-z
-x,y,1/2-z
-x,-y,-z
x,y,-z
-x,y,1/2+z
x,-y,1/2+z
1/2+x,1/2+y,1/2+z
1/2-x,1/2-y,1/2+z
1/2+x,1/2-y,-z
1/2-x,1/2+y,-z
1/2-x,1/2-y,1/2-z
1/2+x,1/2+y,1/2-z
1/2-x,1/2+y,z
1/2+x,1/2-y,z
loop_
_atom_site_type_symbol
_atom_site_label
_atom_site_fract_x
_atom_site_fract_y
_atom_site_fract_z
Si Si1 0.005113 0.725978 0.000000
Si Si2 0.500000 0.732465 0.750000
Si Si3 0.284468 0.689580 0.500000
Si Si4 0.095502 0.929347 0.582979
Si Si5 0.204460 0.968624 0.918747
Si Si6 0.325039 0.352838 0.299316
Si Si7 0.947930 0.319515 0.849288
Si Si8 0.775939 0.372290 0.645853
O O1 0.074671 0.780270 0.000000
O O2 0.055506 0.691993 0.065649
O O3 0.841345 0.728684 0.000000
O O4 0.605318 0.701176 0.701170
O O5 0.423407 0.767683 0.692759
O O6 0.281151 0.655223 0.572928
O O7 0.136706 0.911033 0.500000
O O8 0.093303 0.887649 0.645519
O O9 0.944705 0.947586 0.578705
O O10 0.195452 0.974252 0.609407
O O11 0.296463 0.931324 0.870145
O O12 0.267708 0.968945 0.000000
O O13 0.175262 0.354825 0.330610
O O14 0.329023 0.369235 0.213551
O O15 0.085671 0.347186 0.826594
#
# Coordination Sequence:
#
# PCOD8294946 Si02
#       8
#     8   8   8  16  16  16  16  16
#     4  10  24  38  60  85 121 171 217 272 304 384
#     4  12  24  42  62  87 127 174 202 264 320 368
#     4  10  22  40  60  92 123 166 228 258 327 380
#     4   9  21  40  63  96 126 160 204 269 324 377
#     4   9  18  40  67  91 127 160 204 265 329 380
#     4  12  24  39  63  91 125 164 211 257 317 377
#     4  11  25  42  58  86 130 167 211 258 313 381
#     4  11  21  40  63  90 121 169 209 257 319 392
#
# _framework density 21.386748000000001
#
# number of rings (size 3 to 8) (size 9 to 14) (size 15 to 20)
#    0.000    1.538    2.308    3.231    5.385    0.615 
#    1.385    2.308    0.000    3.692    0.000    0.000 
#    0.000    0.000    0.000    0.000    0.000    0.000 
#
# Total GULP energy -644468.617291 kJ/mol
# GULP energy per Si atom -12393.627256 kJ/mol
# Density = 2.133807 g / cm^3
# Si number density = 21.386748 Si / 1000 Ang^3
#
#
#
# Elastic Constant Matrix: (Units=GPa)
#
#
# Indices 1 2 3 4 5 6 
#
# 1 39.2133 24.1751 21.9759 0.0000 0.0000 0.0000
# 2 24.1751 94.6694 36.8737 0.0000 0.0000 0.0000
# 3 21.9759 36.8737 114.1095 0.0000 0.0001 0.0000
# 4 0.0000 0.0000 0.0000 30.5733 0.0000 0.0000
# 5 0.0000 0.0000 0.0001 0.0000 25.0632 0.0000
# 6 0.0000 0.0000 0.0000 0.0000 0.0000 20.6725
#
#
#
# Elastic Compliance Matrix: (Units=1/GPa)
#
#
# Indices 1 2 3 4 5 6 
#
# 1 0.031788 -0.006558 -0.004003 0.000000 0.000000 0.000000
# 2 -0.006558 0.013437 -0.003079 0.000000 0.000000 0.000000
# 3 -0.004003 -0.003079 0.010529 0.000000 0.000000 0.000000
# 4 0.000000 0.000000 0.000000 0.032708 0.000000 0.000000
# 5 0.000000 0.000000 0.000000 0.000000 0.039899 0.000000
# 6 0.000000 0.000000 0.000000 0.000000 0.000000 0.048374
#
#
# Mechanical properties :
#
#
# Convention : Reuss Voigt Hill
#
# Bulk Modulus (GPa) = 35.11946 46.00461 40.56204
# Shear Modulus (GPa) = 23.41843 26.25964 24.83903
#
# Velocity S-wave (km/s) = 3.31266 3.50787 3.41166
# Velocity P-wave (km/s) = 5.57570 6.16152 5.87592
#
# Compressibility (1/GPa) = 0.02847424
#
# Stress axis : x y z
#
# Youngs Moduli (GPa) = 31.45842 74.42053 94.97289
#
# Poissons Ratio (x) = 0.48809 0.38014
# Poissons Ratio (y) = 0.20632 0.29243
# Poissons Ratio (z) = 0.12592 0.22914
#
# Static dielectric constant tensor:
#      x y z
#    x 3.733430 0.000000 0.000000 
#    y 0.000000 4.073040 0.000000 
#    z 0.000000 0.000000 4.133490 
# 
# 
# High freq. dielectric constant tensor:
#      x y z
#    x 1.817810 0.000000 0.000000 
#    y 0.000000 1.830140 0.000000 
#    z 0.000000 0.000000 1.853570 
# 
# From -- ./inp_files/29674.got.cif
#   From: 2010.03.12/outbox.cif.g09.slc.cpg/sg72_15_cif.got.tgz:29674.got - 2010.04.16 14:54:00.
