data_PCOD8294988
_publ_section_title
;
Structure prediction by ZEFSAII (Michael W. Deem and Ramdas Pophale) SiO2 
 PCOD8294988
Probable space group: I B A M
;
_chemical_formula_sum "Si O2"
_cell_formula_units_Z 48
_cell_length_a 7.529678
_cell_length_b 16.408951
_cell_length_c 17.205877
_cell_angle_alpha 90.000000
_cell_angle_beta 90.000000
_cell_angle_gamma 90.000000
_cell_volume 2125.856946
_symmetry_space_group_name_H-M "I B A M"
_symmetry_group_IT_number 72
_symmetry_cell_setting 'orthorhombic'
loop_
_space_group_symop_operation_xyz
x,y,z
-x,-y,z
x,-y,1/2-z
-x,y,1/2-z
-x,-y,-z
x,y,-z
-x,y,1/2+z
x,-y,1/2+z
1/2+x,1/2+y,1/2+z
1/2-x,1/2-y,1/2+z
1/2+x,1/2-y,-z
1/2-x,1/2+y,-z
1/2-x,1/2-y,1/2-z
1/2+x,1/2+y,1/2-z
1/2-x,1/2+y,z
1/2+x,1/2-y,z
loop_
_atom_site_type_symbol
_atom_site_label
_atom_site_fract_x
_atom_site_fract_y
_atom_site_fract_z
Si Si1 0.379188 0.876100 0.000000
Si Si2 0.751542 0.941803 0.000000
Si Si3 0.698638 0.652327 0.840614
Si Si4 0.500000 0.776426 0.250000
Si Si5 0.000000 0.000000 0.374817
O O1 0.290311 0.834806 0.075406
O O2 0.596982 0.872047 0.000000
O O3 0.335861 0.970306 0.000000
O O4 0.880216 0.936534 0.925264
O O5 0.547774 0.720471 0.825258
O O6 0.840656 0.663885 0.772176
O O7 0.623101 0.561045 0.825602
#
# Coordination Sequence:
#
# PCOD8294988 Si02
#       5
#     8   8  16   8   8
#     4   9  18  36  63  90 116 159 208 251 300 359
#     4   8  16  32  59  96 124 140 198 278 304 327
#     4  10  22  41  63  87 124 165 205 252 305 362
#     4  10  24  43  58  89 136 164 192 254 314 362
#     4   9  18  37  64  92 120 160 208 252 300 364
#
# _framework density 22.579128999999998
#
# number of rings (size 3 to 8) (size 9 to 14) (size 15 to 20)
#    0.000    2.667    0.000    1.000    0.000    7.333 
#    0.000   10.000    0.000    0.000    0.000    0.000 
#    0.000    1.333    0.000    0.000    0.000    0.000 
#
# Total GULP energy -297422.822904 kJ/mol
# GULP energy per Si atom -12392.617621 kJ/mol
# Density = 2.252774 g / cm^3
# Si number density = 22.579129 Si / 1000 Ang^3
#
#
#
# Elastic Constant Matrix: (Units=GPa)
#
#
# Indices 1 2 3 4 5 6 
#
# 1 132.7961 61.1865 44.1626 0.0000 0.0000 0.0000
# 2 61.1865 102.7909 59.6169 0.0000 0.0000 0.0000
# 3 44.1626 59.6169 92.0691 0.0000 0.0000 0.0000
# 4 0.0000 0.0000 0.0000 22.4246 0.0000 0.0000
# 5 0.0000 0.0000 0.0000 0.0000 13.7167 0.0000
# 6 0.0000 0.0000 0.0000 0.0000 0.0000 31.5630
#
#
#
# Elastic Compliance Matrix: (Units=1/GPa)
#
#
# Indices 1 2 3 4 5 6 
#
# 1 0.010519 -0.005341 -0.001587 0.000000 0.000000 0.000000
# 2 -0.005341 0.018291 -0.009282 0.000000 0.000000 0.000000
# 3 -0.001587 -0.009282 0.017633 0.000000 0.000000 0.000000
# 4 0.000000 0.000000 0.000000 0.044594 0.000000 0.000000
# 5 0.000000 0.000000 0.000000 0.000000 0.072904 0.000000
# 6 0.000000 0.000000 0.000000 0.000000 0.000000 0.031683
#
#
# Mechanical properties :
#
#
# Convention : Reuss Voigt Hill
#
# Bulk Modulus (GPa) = 71.31251 73.06536 72.18893
# Shear Modulus (GPa) = 21.48522 24.38689 22.93606
#
# Velocity S-wave (km/s) = 3.08807 3.29000 3.19063
# Velocity P-wave (km/s) = 6.66084 6.84559 6.75385
#
# Compressibility (1/GPa) = 0.01402278
#
# Stress axis : x y z
#
# Youngs Moduli (GPa) = 95.06560 54.67146 56.71134
#
# Poissons Ratio (x) = 0.29199 0.09002
# Poissons Ratio (y) = 0.50773 0.52640
# Poissons Ratio (z) = 0.15090 0.50746
#
# Static dielectric constant tensor:
#      x y z
#    x 4.787920 0.000000 0.000000 
#    y 0.000000 3.660230 0.000000 
#    z 0.000000 0.000000 3.882660 
# 
# 
# High freq. dielectric constant tensor:
#      x y z
#    x 1.912510 0.000000 0.000000 
#    y 0.000000 1.859140 0.000000 
#    z 0.000000 0.000000 1.872350 
# 
# From -- ./inp_files/27345.got.cif
#   From: 2010.03.12/outbox.cif.g09.slc.cpg/sg72_14_cif.got.tgz:27345.got - 2010.04.16 14:54:00.
