data_PCOD8294030
_publ_section_title
;
Structure prediction by ZEFSAII (Michael W. Deem and Ramdas Pophale) SiO2 
 PCOD8294030
Probable space group: I B A M
;
_chemical_formula_sum "Si O2"
_cell_formula_units_Z 96
_cell_length_a 25.796201
_cell_length_b 9.935121
_cell_length_c 18.001224
_cell_angle_alpha 90.000000
_cell_angle_beta 90.000000
_cell_angle_gamma 90.000000
_cell_volume 4613.504506
_symmetry_space_group_name_H-M "I B A M"
_symmetry_group_IT_number 72
_symmetry_cell_setting 'orthorhombic'
loop_
_space_group_symop_operation_xyz
x,y,z
-x,-y,z
x,-y,1/2-z
-x,y,1/2-z
-x,-y,-z
x,y,-z
-x,y,1/2+z
x,-y,1/2+z
1/2+x,1/2+y,1/2+z
1/2-x,1/2-y,1/2+z
1/2+x,1/2-y,-z
1/2-x,1/2+y,-z
1/2-x,1/2-y,1/2-z
1/2+x,1/2+y,1/2-z
1/2-x,1/2+y,z
1/2+x,1/2-y,z
loop_
_atom_site_type_symbol
_atom_site_label
_atom_site_fract_x
_atom_site_fract_y
_atom_site_fract_z
Si Si1 0.643081 0.467319 0.086069
Si Si2 0.806876 0.734217 0.155742
Si Si3 0.031760 0.873003 0.412004
Si Si4 0.365335 0.971985 0.335423
Si Si5 0.965708 0.371779 0.918398
Si Si6 0.189722 0.793304 0.823648
O O1 0.687906 0.355626 0.096883
O O2 0.590667 0.393785 0.115488
O O3 0.652977 0.601120 0.134093
O O4 0.639362 0.510436 0.000000
O O5 0.844854 0.612405 0.130212
O O6 0.820584 0.800950 0.235449
O O7 0.749114 0.673904 0.156548
O O8 0.032247 0.859095 0.500000
O O9 0.001980 0.742050 0.379293
O O10 0.000000 0.000000 0.383523
O O11 0.417534 0.913142 0.368926
O O12 0.321711 0.859045 0.349115
O O13 0.376034 0.000000 0.250000
O O14 0.000000 0.500000 0.930451
O O15 0.946056 0.321863 0.000000
#
# Coordination Sequence:
#
# PCOD8294030 Si02
#       6
#    16  16  16  16  16  16
#     4  11  22  36  58  88 118 148 190 245 292 335
#     4  10  21  39  60  82 114 154 194 234 286 353
#     4   9  18  33  53  78 109 146 183 219 271 338
#     4  10  21  36  58  86 111 145 195 244 284 332
#     4  10  20  35  55  78 109 149 186 224 279 342
#     4  10  21  39  61  82 111 155 195 231 286 352
#
# _framework density 20.808475999999999
#
# number of rings (size 3 to 8) (size 9 to 14) (size 15 to 20)
#    0.000    2.000    0.000    3.500    0.000    7.667 
#    0.000    1.667    0.000    8.000    0.000    0.000 
#    0.000    0.000    0.000    0.000    0.000    0.000 
#
# Total GULP energy -595016.670983 kJ/mol
# GULP energy per Si atom -12396.180645 kJ/mol
# Density = 2.076111 g / cm^3
# Si number density = 20.808476 Si / 1000 Ang^3
#
#
#
# Elastic Constant Matrix: (Units=GPa)
#
#
# Indices 1 2 3 4 5 6 
#
# 1 112.6379 60.4429 39.0905 0.0000 0.0000 0.0000
# 2 60.4429 136.6957 50.3328 0.0000 0.0000 0.0000
# 3 39.0905 50.3328 45.4933 0.0000 0.0000 0.0000
# 4 0.0000 0.0000 0.0000 32.0026 0.0000 0.0000
# 5 0.0000 0.0000 0.0000 0.0000 28.3038 0.0000
# 6 0.0000 0.0000 0.0000 0.0000 0.0000 47.5963
#
#
#
# Elastic Compliance Matrix: (Units=1/GPa)
#
#
# Indices 1 2 3 4 5 6 
#
# 1 0.013263 -0.002815 -0.008282 0.000000 0.000000 0.000000
# 2 -0.002815 0.012942 -0.011900 0.000000 0.000000 0.000000
# 3 -0.008282 -0.011900 0.042263 0.000000 0.000000 0.000000
# 4 0.000000 0.000000 0.000000 0.031247 0.000000 0.000000
# 5 0.000000 0.000000 0.000000 0.000000 0.035331 0.000000
# 6 0.000000 0.000000 0.000000 0.000000 0.000000 0.021010
#
#
# Mechanical properties :
#
#
# Convention : Reuss Voigt Hill
#
# Bulk Modulus (GPa) = 44.49449 66.06214 55.27832
# Shear Modulus (GPa) = 23.86179 31.24458 27.55318
#
# Velocity S-wave (km/s) = 3.39002 3.87916 3.64281
# Velocity P-wave (km/s) = 6.06236 7.20281 6.65706
#
# Compressibility (1/GPa) = 0.02247469
#
# Stress axis : x y z
#
# Youngs Moduli (GPa) = 75.39958 77.26872 23.66144
#
# Poissons Ratio (x) = 0.21751 0.19595
# Poissons Ratio (y) = 0.21225 0.28156
# Poissons Ratio (z) = 0.62443 0.91948
#
# Static dielectric constant tensor:
#      x y z
#    x 3.711670 0.000000 0.000000 
#    y 0.000000 3.970100 0.000000 
#    z 0.000000 0.000000 3.580310 
# 
# 
# High freq. dielectric constant tensor:
#      x y z
#    x 1.818920 0.000000 0.000000 
#    y 0.000000 1.834480 0.000000 
#    z 0.000000 0.000000 1.779960 
# 
# From -- ./inp_files/33277.got.cif
#   From: 2010.03.12/outbox.cif.g09.slc.cpg/sg72_17_cif.got.tgz:33277.got - 2010.04.16 14:54:00.
