data_PCOD8294115
_publ_section_title
;
Structure prediction by ZEFSAII (Michael W. Deem and Ramdas Pophale) SiO2 
 PCOD8294115
Probable space group: I B A M
;
_chemical_formula_sum "Si O2"
_cell_formula_units_Z 88
_cell_length_a 26.886178
_cell_length_b 11.212072
_cell_length_c 15.053257
_cell_angle_alpha 90.000000
_cell_angle_beta 90.000000
_cell_angle_gamma 90.000000
_cell_volume 4537.800763
_symmetry_space_group_name_H-M "I B A M"
_symmetry_group_IT_number 72
_symmetry_cell_setting 'orthorhombic'
loop_
_space_group_symop_operation_xyz
x,y,z
-x,-y,z
x,-y,1/2-z
-x,y,1/2-z
-x,-y,-z
x,y,-z
-x,y,1/2+z
x,-y,1/2+z
1/2+x,1/2+y,1/2+z
1/2-x,1/2-y,1/2+z
1/2+x,1/2-y,-z
1/2-x,1/2+y,-z
1/2-x,1/2-y,1/2-z
1/2+x,1/2+y,1/2-z
1/2-x,1/2+y,z
1/2+x,1/2-y,z
loop_
_atom_site_type_symbol
_atom_site_label
_atom_site_fract_x
_atom_site_fract_y
_atom_site_fract_z
Si Si1 0.890287 0.768981 0.356589
Si Si2 0.996027 0.131476 0.854909
Si Si3 0.772186 0.127336 0.500000
Si Si4 0.845700 0.658296 0.000000
Si Si5 0.840267 0.382858 0.000000
Si Si6 0.669570 0.504328 0.650307
Si Si7 0.400819 0.275622 0.347152
O O1 0.871064 0.656873 0.413066
O O2 0.893500 0.730851 0.253654
O O3 0.945322 0.807299 0.388168
O O4 0.851305 0.875104 0.376071
O O5 0.042527 0.214188 0.881442
O O6 0.000000 0.116422 0.750000
O O7 0.000000 0.000000 0.898571
O O8 0.798861 0.254562 0.500000
O O9 0.715310 0.168729 0.500000
O O10 0.786424 0.048090 0.413934
O O11 0.876578 0.678891 0.089376
O O12 0.829785 0.522678 0.000000
O O13 0.691596 0.500000 0.750000
O O14 0.622992 0.593450 0.644004
#
# Coordination Sequence:
#
# PCOD8294115 Si02
#       7
#    16  16   8   8   8  16  16
#     4  10  20  35  60  93 122 146 194 243 295 345
#     4   9  15  30  60  95 125 150 185 238 298 350
#     4  10  23  42  60  81 111 156 197 252 304 341
#     4  10  24  43  56  78 117 159 201 233 299 355
#     4  12  27  41  56  80 115 160 202 252 285 344
#     4   9  17  35  62  91 117 143 186 243 305 355
#     4   9  18  37  61  88 122 156 181 237 296 359
#
# _framework density 19.392655000000001
#
# number of rings (size 3 to 8) (size 9 to 14) (size 15 to 20)
#    0.000    2.364    1.818    0.545    2.545    1.455 
#    3.273    5.455    0.000    3.273    0.000    0.000 
#    0.000    0.000    0.000    0.000    0.000    0.000 
#
# Total GULP energy -545501.030882 kJ/mol
# GULP energy per Si atom -12397.750702 kJ/mol
# Density = 1.934852 g / cm^3
# Si number density = 19.392655 Si / 1000 Ang^3
#
#
#
# Elastic Constant Matrix: (Units=GPa)
#
#
# Indices 1 2 3 4 5 6 
#
# 1 131.8373 37.2671 49.7613 0.0000 0.0000 0.0000
# 2 37.2671 88.3034 39.2778 0.0000 0.0000 0.0000
# 3 49.7613 39.2778 105.1795 0.0000 0.0000 0.0000
# 4 0.0000 0.0000 0.0000 27.0767 0.0000 0.0000
# 5 0.0000 0.0000 0.0000 0.0000 13.5018 0.0000
# 6 0.0000 0.0000 0.0000 0.0000 0.0000 19.5419
#
#
#
# Elastic Compliance Matrix: (Units=1/GPa)
#
#
# Indices 1 2 3 4 5 6 
#
# 1 0.009657 -0.002450 -0.003654 0.000000 0.000000 0.000000
# 2 -0.002450 0.014202 -0.004144 0.000000 0.000000 0.000000
# 3 -0.003654 -0.004144 0.012784 0.000000 0.000000 0.000000
# 4 0.000000 0.000000 0.000000 0.036932 0.000000 0.000000
# 5 0.000000 0.000000 0.000000 0.000000 0.074064 0.000000
# 6 0.000000 0.000000 0.000000 0.000000 0.000000 0.051172
#
#
# Mechanical properties :
#
#
# Convention : Reuss Voigt Hill
#
# Bulk Modulus (GPa) = 61.93456 64.21473 63.07464
# Shear Modulus (GPa) = 22.25292 25.29168 23.77230
#
# Velocity S-wave (km/s) = 3.39114 3.61527 3.50500
# Velocity P-wave (km/s) = 6.88038 7.11419 6.99826
#
# Compressibility (1/GPa) = 0.01614608
#
# Stress axis : x y z
#
# Youngs Moduli (GPa) = 103.55377 70.41192 78.22413
#
# Poissons Ratio (x) = 0.17253 0.28581
# Poissons Ratio (y) = 0.25374 0.32419
# Poissons Ratio (z) = 0.37835 0.29181
#
# Static dielectric constant tensor:
#      x y z
#    x 3.530540 0.000000 0.000000 
#    y 0.000000 3.177570 0.000000 
#    z 0.000000 0.000000 3.439990 
# 
# 
# High freq. dielectric constant tensor:
#      x y z
#    x 1.752060 0.000000 0.000000 
#    y 0.000000 1.726210 0.000000 
#    z 0.000000 0.000000 1.758570 
# 
# From -- ./inp_files/26281.got.cif
#   From: 2010.03.12/outbox.cif.g09.slc.cpg/sg72_14_cif.got.tgz:26281.got - 2010.04.16 14:54:00.
