data_PCOD8294581
_publ_section_title
;
Structure prediction by ZEFSAII (Michael W. Deem and Ramdas Pophale) SiO2 
 PCOD8294581
Probable space group: I B A M
;
_chemical_formula_sum "Si O2"
_cell_formula_units_Z 96
_cell_length_a 24.063460
_cell_length_b 23.888256
_cell_length_c 8.528527
_cell_angle_alpha 90.000000
_cell_angle_beta 90.000000
_cell_angle_gamma 90.000000
_cell_volume 4902.488080
_symmetry_space_group_name_H-M "I B A M"
_symmetry_group_IT_number 72
_symmetry_cell_setting 'orthorhombic'
loop_
_space_group_symop_operation_xyz
x,y,z
-x,-y,z
x,-y,1/2-z
-x,y,1/2-z
-x,-y,-z
x,y,-z
-x,y,1/2+z
x,-y,1/2+z
1/2+x,1/2+y,1/2+z
1/2-x,1/2-y,1/2+z
1/2+x,1/2-y,-z
1/2-x,1/2+y,-z
1/2-x,1/2-y,1/2-z
1/2+x,1/2+y,1/2-z
1/2-x,1/2+y,z
1/2+x,1/2-y,z
loop_
_atom_site_type_symbol
_atom_site_label
_atom_site_fract_x
_atom_site_fract_y
_atom_site_fract_z
Si Si1 0.355087 0.134122 0.318045
Si Si2 0.441146 0.348092 0.184232
Si Si3 0.233581 0.559631 0.818412
Si Si4 0.939366 0.727354 0.185715
Si Si5 0.054505 0.438833 0.313521
Si Si6 0.137332 0.059284 0.816279
O O1 0.345137 0.143172 0.500000
O O2 0.295757 0.116720 0.244495
O O3 0.388982 0.187840 0.248458
O O4 0.391783 0.080851 0.277991
O O5 0.500000 0.369623 0.250000
O O6 0.423945 0.289838 0.263805
O O7 0.394455 0.392871 0.223064
O O8 0.446268 0.338581 0.000000
O O9 0.212178 0.500000 0.750000
O O10 0.298071 0.567663 0.778536
O O11 0.221403 0.555864 0.000000
O O12 0.000000 0.709586 0.250000
O O13 0.942006 0.722407 0.000000
O O14 0.046240 0.500000 0.250000
O O15 0.060927 0.434150 0.500000
O O16 0.000000 0.404824 0.250000
O O17 0.116476 0.000000 0.750000
O O18 0.124177 0.063031 0.000000
#
# Coordination Sequence:
#
# PCOD8294581 Si02
#       6
#    16  16  16  16  16  16
#     4  11  22  35  53  77 106 143 189 234 277 330
#     4  11  22  38  62  89 118 150 183 223 273 331
#     4  10  21  37  58  82 112 149 188 234 283 332
#     4  10  21  37  57  81 111 148 188 234 283 332
#     4  11  21  33  48  68  98 133 175 228 286 339
#     4  10  21  39  62  89 119 149 184 225 274 331
#
# _framework density 19.581893999999998
#
# number of rings (size 3 to 8) (size 9 to 14) (size 15 to 20)
#    0.000    1.500    0.000    7.500    0.000    6.333 
#    0.000    2.500    0.000    0.000    0.000    0.000 
#    0.000    0.000    0.000    0.000    0.000    0.000 
#
# Total GULP energy -594935.631565 kJ/mol
# GULP energy per Si atom -12394.492324 kJ/mol
# Density = 1.953732 g / cm^3
# Si number density = 19.581894 Si / 1000 Ang^3
#
#
#
# Elastic Constant Matrix: (Units=GPa)
#
#
# Indices 1 2 3 4 5 6 
#
# 1 79.6557 57.4693 33.1328 0.0000 0.0000 0.0000
# 2 57.4693 114.9158 33.5480 0.0000 0.0000 0.0000
# 3 33.1328 33.5480 66.2141 0.0000 0.0000 0.0000
# 4 0.0000 0.0000 0.0000 31.9699 0.0000 0.0000
# 5 0.0000 0.0000 0.0000 0.0000 31.1207 0.0000
# 6 0.0000 0.0000 0.0000 0.0000 0.0000 33.6671
#
#
#
# Elastic Compliance Matrix: (Units=1/GPa)
#
#
# Indices 1 2 3 4 5 6 
#
# 1 0.021657 -0.008998 -0.006278 0.000000 0.000000 0.000000
# 2 -0.008998 0.013951 -0.002566 0.000000 0.000000 0.000000
# 3 -0.006278 -0.002566 0.019544 0.000000 0.000000 0.000000
# 4 0.000000 0.000000 0.000000 0.031279 0.000000 0.000000
# 5 0.000000 0.000000 0.000000 0.000000 0.032133 0.000000
# 6 0.000000 0.000000 0.000000 0.000000 0.000000 0.029703
#
#
# Mechanical properties :
#
#
# Convention : Reuss Voigt Hill
#
# Bulk Modulus (GPa) = 51.36565 56.56508 53.96536
# Shear Modulus (GPa) = 26.25492 28.46058 27.35775
#
# Velocity S-wave (km/s) = 3.66563 3.81650 3.74183
# Velocity P-wave (km/s) = 6.64861 6.95486 6.80345
#
# Compressibility (1/GPa) = 0.01946826
#
# Stress axis : x y z
#
# Youngs Moduli (GPa) = 46.17414 71.67963 51.16638
#
# Poissons Ratio (x) = 0.64497 0.32123
# Poissons Ratio (y) = 0.41547 0.13129
# Poissons Ratio (z) = 0.28989 0.18393
#
# Static dielectric constant tensor:
#      x y z
#    x 3.707290 0.000000 0.000000 
#    y 0.000000 3.612050 0.000000 
#    z 0.000000 0.000000 3.767510 
# 
# 
# High freq. dielectric constant tensor:
#      x y z
#    x 1.762370 0.000000 0.000000 
#    y 0.000000 1.756610 0.000000 
#    z 0.000000 0.000000 1.774930 
# 
# From -- ./inp_files/8274.got.cif
#   From: 2010.03.12/outbox.cif.g09.slc.cpg/sg72_5_cif.got.tgz:8274.got - 2010.04.16 14:54:00.
