data_PCOD8294333
_publ_section_title
;
Structure prediction by ZEFSAII (Michael W. Deem and Ramdas Pophale) SiO2 
 PCOD8294333
Probable space group: I B A M
;
_chemical_formula_sum "Si O2"
_cell_formula_units_Z 72
_cell_length_a 4.995371
_cell_length_b 23.974717
_cell_length_c 29.583437
_cell_angle_alpha 90.000000
_cell_angle_beta 90.000000
_cell_angle_gamma 90.000000
_cell_volume 3542.989511
_symmetry_space_group_name_H-M "I B A M"
_symmetry_group_IT_number 72
_symmetry_cell_setting 'orthorhombic'
loop_
_space_group_symop_operation_xyz
x,y,z
-x,-y,z
x,-y,1/2-z
-x,y,1/2-z
-x,-y,-z
x,y,-z
-x,y,1/2+z
x,-y,1/2+z
1/2+x,1/2+y,1/2+z
1/2-x,1/2-y,1/2+z
1/2+x,1/2-y,-z
1/2-x,1/2+y,-z
1/2-x,1/2-y,1/2-z
1/2+x,1/2+y,1/2-z
1/2-x,1/2+y,z
1/2+x,1/2-y,z
loop_
_atom_site_type_symbol
_atom_site_label
_atom_site_fract_x
_atom_site_fract_y
_atom_site_fract_z
Si Si1 0.998702 0.786031 0.802560
Si Si2 0.102139 0.562747 0.596542
Si Si3 0.573587 0.624948 0.624068
Si Si4 0.244021 0.459995 0.000000
Si Si5 0.408275 0.286647 0.051028
O O1 0.788976 0.737516 0.815722
O O2 0.922306 0.842302 0.828731
O O3 0.000000 0.801678 0.750000
O O4 0.360315 0.573927 0.628469
O O5 0.213249 0.576290 0.545684
O O6 0.000000 0.500000 0.602360
O O7 0.866816 0.604316 0.610723
O O8 0.461055 0.663850 0.584918
O O9 0.500000 0.500000 0.000000
O O10 0.000000 0.500000 0.000000
O O11 0.610255 0.235531 0.059904
O O12 0.443952 0.309405 0.000000
#
# Coordination Sequence:
#
# PCOD8294333 Si02
#       5
#    16  16  16   8  16
#     4  10  21  39  64  93 121 148 190 246 300 360
#     4  11  24  38  57  83 117 155 202 255 291 338
#     4  12  22  36  62  84 114 156 197 241 294 363
#     4  10  20  38  56  76 110 154 206 254 294 328
#     4  10  21  35  51  77 114 147 182 227 282 353
#
# _framework density 20.321821
#
# number of rings (size 3 to 8) (size 9 to 14) (size 15 to 20)
#    0.000    1.333    0.000    7.333    3.111    0.000 
#    0.000    0.000    0.000    4.000    0.000    0.000 
#    0.000    0.000    0.000    0.000    0.000    0.000 
#
# Total GULP energy -446357.898144 kJ/mol
# GULP energy per Si atom -12398.830504 kJ/mol
# Density = 2.027557 g / cm^3
# Si number density = 20.321821 Si / 1000 Ang^3
#
#
#
# Elastic Constant Matrix: (Units=GPa)
#
#
# Indices 1 2 3 4 5 6 
#
# 1 118.5670 20.0040 39.0721 0.0000 0.0000 0.0000
# 2 20.0040 64.1482 53.5188 0.0000 0.0000 0.0000
# 3 39.0721 53.5188 95.0054 0.0000 0.0000 0.0000
# 4 0.0000 0.0000 0.0000 32.8113 0.0000 0.0000
# 5 0.0000 0.0000 0.0000 0.0000 24.4056 0.0000
# 6 0.0000 0.0000 0.0000 0.0000 0.0000 41.5376
#
#
#
# Elastic Compliance Matrix: (Units=1/GPa)
#
#
# Indices 1 2 3 4 5 6 
#
# 1 0.009768 0.000576 -0.004342 0.000000 0.000000 0.000000
# 2 0.000576 0.029446 -0.016825 0.000000 0.000000 0.000000
# 3 -0.004342 -0.016825 0.021789 0.000000 0.000000 0.000000
# 4 0.000000 0.000000 0.000000 0.030477 0.000000 0.000000
# 5 0.000000 0.000000 0.000000 0.000000 0.040974 0.000000
# 6 0.000000 0.000000 0.000000 0.000000 0.000000 0.024075
#
#
# Mechanical properties :
#
#
# Convention : Reuss Voigt Hill
#
# Bulk Modulus (GPa) = 50.44758 55.87894 53.16326
# Shear Modulus (GPa) = 24.47191 30.75928 27.61559
#
# Velocity S-wave (km/s) = 3.47395 3.89473 3.69034
# Velocity P-wave (km/s) = 6.40073 6.91245 6.66151
#
# Compressibility (1/GPa) = 0.01982255
#
# Stress axis : x y z
#
# Youngs Moduli (GPa) = 102.37971 33.96062 45.89478
#
# Poissons Ratio (x) = -0.01957 0.19926
# Poissons Ratio (y) = -0.05901 0.77216
# Poissons Ratio (z) = 0.44450 0.57137
#
# Static dielectric constant tensor:
#      x y z
#    x 4.049370 0.000000 0.000000 
#    y 0.000000 3.571080 0.000000 
#    z 0.000000 0.000000 3.416450 
# 
# 
# High freq. dielectric constant tensor:
#      x y z
#    x 1.822050 0.000000 0.000000 
#    y 0.000000 1.784270 0.000000 
#    z 0.000000 0.000000 1.774950 
# 
# From -- ./inp_files/46641.got.cif
#   From: 2010.03.12/outbox.cif.g09.slc.cpg/sg72_24_cif.got.tgz:46641.got - 2010.04.16 14:54:00.
