data_PCOD8294752
_publ_section_title
;
Structure prediction by ZEFSAII (Michael W. Deem and Ramdas Pophale) SiO2 
 PCOD8294752
Probable space group: I B A M
;
_chemical_formula_sum "Si O2"
_cell_formula_units_Z 112
_cell_length_a 11.161059
_cell_length_b 20.285966
_cell_length_c 22.621423
_cell_angle_alpha 90.000000
_cell_angle_beta 90.000000
_cell_angle_gamma 90.000000
_cell_volume 5121.781156
_symmetry_space_group_name_H-M "I B A M"
_symmetry_group_IT_number 72
_symmetry_cell_setting 'orthorhombic'
loop_
_space_group_symop_operation_xyz
x,y,z
-x,-y,z
x,-y,1/2-z
-x,y,1/2-z
-x,-y,-z
x,y,-z
-x,y,1/2+z
x,-y,1/2+z
1/2+x,1/2+y,1/2+z
1/2-x,1/2-y,1/2+z
1/2+x,1/2-y,-z
1/2-x,1/2+y,-z
1/2-x,1/2-y,1/2-z
1/2+x,1/2+y,1/2-z
1/2-x,1/2+y,z
1/2+x,1/2-y,z
loop_
_atom_site_type_symbol
_atom_site_label
_atom_site_fract_x
_atom_site_fract_y
_atom_site_fract_z
Si Si1 0.840274 0.038809 0.192917
Si Si2 0.487335 0.651716 0.364647
Si Si3 0.135250 0.613285 0.253736
Si Si4 0.566716 0.856241 0.064636
Si Si5 0.302585 0.280528 0.935738
Si Si6 0.768917 0.086641 0.367175
Si Si7 0.407936 0.787123 0.152439
O O1 0.935242 0.096984 0.180382
O O2 0.707006 0.065593 0.202871
O O3 0.889741 0.000000 0.250000
O O4 0.821112 0.987231 0.139553
O O5 0.391316 0.659391 0.417471
O O6 0.617714 0.630165 0.387356
O O7 0.504501 0.724667 0.335672
O O8 0.207634 0.616577 0.192229
O O9 0.131008 0.686099 0.283235
O O10 0.000000 0.585381 0.250000
O O11 0.621265 0.784542 0.057419
O O12 0.667990 0.909911 0.082276
O O13 0.468248 0.848569 0.116447
O O14 0.514408 0.877552 0.000000
O O15 0.205194 0.265596 0.886023
O O16 0.245441 0.298434 0.000000
#
# Coordination Sequence:
#
# PCOD8294752 Si02
#       7
#    16  16  16  16  16  16  16
#     4  10  24  44  65  89 131 181 220 261 321 403
#     4  11  23  41  64  98 132 167 218 267 333 396
#     4  11  23  43  65  96 129 167 217 270 336 389
#     4  10  21  39  62  92 128 169 215 267 327 386
#     4  10  21  40  67  96 128 171 216 273 336 392
#     4  11  23  40  63  93 130 176 220 260 315 395
#     4  11  21  41  66  98 128 164 211 283 337 388
#
# _framework density 21.867391999999999
#
# number of rings (size 3 to 8) (size 9 to 14) (size 15 to 20)
#    0.000    1.429    4.286    0.857    0.000    8.286 
#    5.143    0.714    0.000    2.571    0.000    0.000 
#    0.000    0.000    0.000    0.000    0.000    0.000 
#
# Total GULP energy -693962.101501 kJ/mol
# GULP energy per Si atom -12392.180384 kJ/mol
# Density = 2.181762 g / cm^3
# Si number density = 21.867392 Si / 1000 Ang^3
#
#
#
# Elastic Constant Matrix: (Units=GPa)
#
#
# Indices 1 2 3 4 5 6 
#
# 1 92.5086 20.6261 20.2627 0.0000 0.0000 0.0000
# 2 20.6261 86.7162 39.7807 0.0000 0.0000 0.0000
# 3 20.2627 39.7807 67.0000 0.0000 0.0000 0.0000
# 4 0.0000 0.0000 0.0000 17.8785 0.0000 0.0000
# 5 0.0000 0.0000 0.0000 0.0000 11.0477 0.0000
# 6 0.0000 0.0000 0.0000 0.0000 0.0000 38.8207
#
#
#
# Elastic Compliance Matrix: (Units=1/GPa)
#
#
# Indices 1 2 3 4 5 6 
#
# 1 0.011736 -0.001599 -0.002600 0.000000 0.000000 0.000000
# 2 -0.001599 0.016066 -0.009056 0.000000 0.000000 0.000000
# 3 -0.002600 -0.009056 0.021089 0.000000 0.000000 0.000000
# 4 0.000000 0.000000 0.000000 0.055933 0.000000 0.000000
# 5 0.000000 0.000000 0.000000 0.000000 0.090517 0.000000
# 6 0.000000 0.000000 0.000000 0.000000 0.000000 0.025759
#
#
# Mechanical properties :
#
#
# Convention : Reuss Voigt Hill
#
# Bulk Modulus (GPa) = 44.67945 45.28485 44.98215
# Shear Modulus (GPa) = 19.60251 24.58640 22.09446
#
# Velocity S-wave (km/s) = 2.99729 3.35676 3.18210
# Velocity P-wave (km/s) = 5.69690 5.98143 5.84090
#
# Compressibility (1/GPa) = 0.02238165
#
# Stress axis : x y z
#
# Youngs Moduli (GPa) = 85.20966 62.24144 47.41918
#
# Poissons Ratio (x) = 0.09951 0.12329
# Poissons Ratio (y) = 0.13622 0.42942
# Poissons Ratio (z) = 0.22155 0.56365
#
# Static dielectric constant tensor:
#      x y z
#    x 4.104050 0.000000 0.000000 
#    y 0.000000 3.924850 0.000000 
#    z 0.000000 0.000000 4.176640 
# 
# 
# High freq. dielectric constant tensor:
#      x y z
#    x 1.874330 0.000000 0.000000 
#    y 0.000000 1.842990 0.000000 
#    z 0.000000 0.000000 1.838170 
# 
# From -- ./inp_files/43523.got.cif
#   From: 2010.03.12/outbox.cif.g09.slc.cpg/sg72_22_cif.got.tgz:43523.got - 2010.04.16 14:54:00.
