data_PCOD8294675
_publ_section_title
;
Structure prediction by ZEFSAII (Michael W. Deem and Ramdas Pophale) SiO2 
 PCOD8294675
Probable space group: I B A M
;
_chemical_formula_sum "Si O2"
_cell_formula_units_Z 116
_cell_length_a 22.180884
_cell_length_b 31.614324
_cell_length_c 8.321821
_cell_angle_alpha 90.000000
_cell_angle_beta 90.000000
_cell_angle_gamma 90.000000
_cell_volume 5835.540943
_symmetry_space_group_name_H-M "I B A M"
_symmetry_group_IT_number 72
_symmetry_cell_setting 'orthorhombic'
loop_
_space_group_symop_operation_xyz
x,y,z
-x,-y,z
x,-y,1/2-z
-x,y,1/2-z
-x,-y,-z
x,y,-z
-x,y,1/2+z
x,-y,1/2+z
1/2+x,1/2+y,1/2+z
1/2-x,1/2-y,1/2+z
1/2+x,1/2-y,-z
1/2-x,1/2+y,-z
1/2-x,1/2-y,1/2-z
1/2+x,1/2+y,1/2-z
1/2-x,1/2+y,z
1/2+x,1/2-y,z
loop_
_atom_site_type_symbol
_atom_site_label
_atom_site_fract_x
_atom_site_fract_y
_atom_site_fract_z
Si Si1 0.280856 0.045117 0.188667
Si Si2 0.500000 0.000000 0.750000
Si Si3 0.410751 0.934906 0.188565
Si Si4 0.701036 0.694470 0.310253
Si Si5 0.168646 0.897446 0.688830
Si Si6 0.063611 0.657481 0.809297
Si Si7 0.831880 0.280436 0.190055
Si Si8 0.565218 0.454863 0.314187
O O1 0.340699 0.057667 0.283175
O O2 0.230182 0.078895 0.234310
O O3 0.257282 0.000000 0.250000
O O4 0.294362 0.044661 0.000000
O O5 0.549601 0.034855 0.688944
O O6 0.426246 0.886730 0.221644
O O7 0.426593 0.946076 0.000000
O O8 0.704212 0.692389 0.500000
O O9 0.674268 0.650407 0.245256
O O10 0.768714 0.701327 0.241503
O O11 0.658119 0.732821 0.254562
O O12 0.156973 0.899348 0.500000
O O13 0.112121 0.918263 0.774904
O O14 0.114301 0.690000 0.747769
O O15 0.000000 0.676239 0.750000
O O16 0.066145 0.651289 0.000000
O O17 0.831257 0.279215 0.000000
O O18 0.588277 0.500000 0.250000
O O19 0.500000 0.441648 0.250000
O O20 0.558499 0.460519 0.500000
#
# Coordination Sequence:
#
# PCOD8294675 Si02
#       8
#    16   4  16  16  16  16  16  16
#     4  11  23  38  57  82 118 156 196 244 291 340
#     4  12  26  40  60  82 114 156 200 248 290 336
#     4  12  25  40  60  83 113 155 203 247 293 344
#     4   9  18  35  60  86 112 145 184 230 284 341
#     4  10  21  38  59  87 121 155 191 237 291 343
#     4  11  23  39  59  83 114 148 189 236 285 340
#     4   9  19  37  59  84 113 146 183 230 286 342
#     4  11  22  38  61  87 117 155 196 237 282 342
#
# _framework density 19.878191999999999
#
# number of rings (size 3 to 8) (size 9 to 14) (size 15 to 20)
#    0.000    1.517    1.379    4.345    0.000    7.172 
#    0.000    3.448    0.000    1.655    0.000    0.000 
#    0.000    0.000    0.000    0.000    0.000    0.000 
#
# Total GULP energy -718739.703570 kJ/mol
# GULP energy per Si atom -12392.063855 kJ/mol
# Density = 1.983295 g / cm^3
# Si number density = 19.878192 Si / 1000 Ang^3
#
#
#
# Elastic Constant Matrix: (Units=GPa)
#
#
# Indices 1 2 3 4 5 6 
#
# 1 120.7357 86.6532 36.7797 0.0000 0.0000 0.0000
# 2 86.6532 174.6028 36.5143 0.0000 0.0000 0.0000
# 3 36.7797 36.5143 65.0090 0.0000 0.0000 0.0000
# 4 0.0000 0.0000 0.0000 27.1955 0.0000 0.0000
# 5 0.0000 0.0000 0.0000 0.0000 26.0675 0.0000
# 6 0.0000 0.0000 0.0000 0.0000 0.0000 21.2125
#
#
#
# Elastic Compliance Matrix: (Units=1/GPa)
#
#
# Indices 1 2 3 4 5 6 
#
# 1 0.013954 -0.005976 -0.004538 0.000000 0.000000 0.000000
# 2 -0.005976 0.009049 -0.001702 0.000000 0.000000 0.000000
# 3 -0.004538 -0.001702 0.018906 0.000000 0.000000 0.000000
# 4 0.000000 0.000000 0.000000 0.036771 0.000000 0.000000
# 5 0.000000 0.000000 0.000000 0.000000 0.038362 0.000000
# 6 0.000000 0.000000 0.000000 0.000000 0.000000 0.047142
#
#
# Mechanical properties :
#
#
# Convention : Reuss Voigt Hill
#
# Bulk Modulus (GPa) = 57.21717 75.58244 66.39980
# Shear Modulus (GPa) = 25.71474 28.25513 26.98493
#
# Velocity S-wave (km/s) = 3.60059 3.77425 3.68844
# Velocity P-wave (km/s) = 6.79206 7.55637 7.18438
#
# Compressibility (1/GPa) = 0.01747727
#
# Stress axis : x y z
#
# Youngs Moduli (GPa) = 71.66303 110.50864 52.89421
#
# Poissons Ratio (x) = 0.66043 0.24004
# Poissons Ratio (y) = 0.42828 0.09000
# Poissons Ratio (z) = 0.32521 0.18803
#
# Static dielectric constant tensor:
#      x y z
#    x 3.754140 0.000000 0.000000 
#    y 0.000000 3.884450 0.000000 
#    z 0.000000 0.000000 3.513290 
# 
# 
# High freq. dielectric constant tensor:
#      x y z
#    x 1.779270 0.000000 0.000000 
#    y 0.000000 1.783940 0.000000 
#    z 0.000000 0.000000 1.764500 
# 
# From -- ./inp_files/7329.got.cif
#   From: 2010.03.12/outbox.cif.g09.slc.cpg/sg72_4_cif.got.tgz:7329.got - 2010.04.16 14:54:00.
