data_PCOD8294852
_publ_section_title
;
Structure prediction by ZEFSAII (Michael W. Deem and Ramdas Pophale) SiO2 
 PCOD8294852
Probable space group: I B A M
;
_chemical_formula_sum "Si O2"
_cell_formula_units_Z 96
_cell_length_a 8.964942
_cell_length_b 22.573471
_cell_length_c 21.413312
_cell_angle_alpha 90.000000
_cell_angle_beta 90.000000
_cell_angle_gamma 90.000000
_cell_volume 4333.408914
_symmetry_space_group_name_H-M "I B A M"
_symmetry_group_IT_number 72
_symmetry_cell_setting 'orthorhombic'
loop_
_space_group_symop_operation_xyz
x,y,z
-x,-y,z
x,-y,1/2-z
-x,y,1/2-z
-x,-y,-z
x,y,-z
-x,y,1/2+z
x,-y,1/2+z
1/2+x,1/2+y,1/2+z
1/2-x,1/2-y,1/2+z
1/2+x,1/2-y,-z
1/2-x,1/2+y,-z
1/2-x,1/2-y,1/2-z
1/2+x,1/2+y,1/2-z
1/2-x,1/2+y,z
1/2+x,1/2-y,z
loop_
_atom_site_type_symbol
_atom_site_label
_atom_site_fract_x
_atom_site_fract_y
_atom_site_fract_z
Si Si1 0.118444 0.679790 0.628333
Si Si2 0.309127 0.127707 0.141052
Si Si3 0.675660 0.008489 0.426671
Si Si4 0.334961 0.391637 0.930973
Si Si5 0.413954 0.695409 0.073003
Si Si6 0.323330 0.686470 0.742238
O O1 0.191048 0.652517 0.565631
O O2 0.062548 0.746529 0.616223
O O3 0.257855 0.667079 0.675424
O O4 0.982651 0.640108 0.651990
O O5 0.252930 0.173032 0.086918
O O6 0.226389 0.138885 0.206146
O O7 0.273568 0.062248 0.116906
O O8 0.707456 0.020931 0.500000
O O9 0.776751 0.953504 0.401004
O O10 0.500000 0.000000 0.416557
O O11 0.475699 0.356330 0.900877
O O12 0.387420 0.407315 0.000000
O O13 0.438649 0.710064 0.000000
O O14 0.500000 0.693105 0.750000
O O15 0.250000 0.750000 0.750000
#
# Coordination Sequence:
#
# PCOD8294852 Si02
#       6
#    16  16  16  16  16  16
#     4  12  23  40  67  99 134 179 224 284 345 413
#     4  12  24  41  69  99 128 180 235 282 336 409
#     4  10  21  42  70 100 136 181 233 282 338 408
#     4  10  22  41  65  96 138 182 224 279 343 406
#     4  11  24  38  60 101 143 178 221 280 347 416
#     4  12  26  46  68  98 132 178 227 280 349 416
#
# _framework density 22.153459999999999
#
# number of rings (size 3 to 8) (size 9 to 14) (size 15 to 20)
#    0.000    0.833    3.333    4.500    0.000    4.000 
#    0.000    3.333    0.000    1.000    0.000    0.000 
#    0.000    0.000    0.000    0.000    0.000    0.000 
#
# Total GULP energy -594691.488339 kJ/mol
# GULP energy per Si atom -12389.406007 kJ/mol
# Density = 2.210304 g / cm^3
# Si number density = 22.153460 Si / 1000 Ang^3
#
#
#
# Elastic Constant Matrix: (Units=GPa)
#
#
# Indices 1 2 3 4 5 6 
#
# 1 133.2578 42.8421 41.8561 0.0000 0.0000 0.0000
# 2 42.8421 149.7375 47.8800 0.0000 0.0000 0.0000
# 3 41.8561 47.8800 88.0691 0.0000 0.0000 0.0000
# 4 0.0000 0.0000 0.0000 33.7399 0.0000 0.0000
# 5 0.0000 0.0000 0.0000 0.0000 30.6900 0.0000
# 6 0.0000 0.0000 0.0000 0.0000 0.0000 38.6791
#
#
#
# Elastic Compliance Matrix: (Units=1/GPa)
#
#
# Indices 1 2 3 4 5 6 
#
# 1 0.009082 -0.001475 -0.003515 0.000000 0.000000 0.000000
# 2 -0.001475 0.008323 -0.003824 0.000000 0.000000 0.000000
# 3 -0.003515 -0.003824 0.015104 0.000000 0.000000 0.000000
# 4 0.000000 0.000000 0.000000 0.029638 0.000000 0.000000
# 5 0.000000 0.000000 0.000000 0.000000 0.032584 0.000000
# 6 0.000000 0.000000 0.000000 0.000000 0.000000 0.025854
#
#
# Mechanical properties :
#
#
# Convention : Reuss Voigt Hill
#
# Bulk Modulus (GPa) = 67.19307 70.69119 68.94213
# Shear Modulus (GPa) = 34.92261 36.52087 35.72174
#
# Velocity S-wave (km/s) = 3.97469 4.06463 4.01991
# Velocity P-wave (km/s) = 7.17362 7.34897 7.26182
#
# Compressibility (1/GPa) = 0.01488249
#
# Stress axis : x y z
#
# Youngs Moduli (GPa) = 110.10360 120.14789 66.20691
#
# Poissons Ratio (x) = 0.17718 0.23270
# Poissons Ratio (y) = 0.16237 0.25318
# Poissons Ratio (z) = 0.38699 0.45945
#
# Static dielectric constant tensor:
#      x y z
#    x 4.238920 0.000000 0.000000 
#    y 0.000000 4.030180 0.000000 
#    z 0.000000 0.000000 4.347750 
# 
# 
# High freq. dielectric constant tensor:
#      x y z
#    x 1.887060 0.000000 0.000000 
#    y 0.000000 1.866840 0.000000 
#    z 0.000000 0.000000 1.857950 
# 
# From -- ./inp_files/42443.got.cif
#   From: 2010.03.12/outbox.cif.g09.slc.cpg/sg72_22_cif.got.tgz:42443.got - 2010.04.16 14:54:00.
