data_PCOD8294176
_publ_section_title
;
Structure prediction by ZEFSAII (Michael W. Deem and Ramdas Pophale) SiO2 
 PCOD8294176
Probable space group: I B A M
;
_chemical_formula_sum "Si O2"
_cell_formula_units_Z 120
_cell_length_a 30.198178
_cell_length_b 7.822291
_cell_length_c 25.922055
_cell_angle_alpha 90.000000
_cell_angle_beta 90.000000
_cell_angle_gamma 90.000000
_cell_volume 6123.280251
_symmetry_space_group_name_H-M "I B A M"
_symmetry_group_IT_number 72
_symmetry_cell_setting 'orthorhombic'
loop_
_space_group_symop_operation_xyz
x,y,z
-x,-y,z
x,-y,1/2-z
-x,y,1/2-z
-x,-y,-z
x,y,-z
-x,y,1/2+z
x,-y,1/2+z
1/2+x,1/2+y,1/2+z
1/2-x,1/2-y,1/2+z
1/2+x,1/2-y,-z
1/2-x,1/2+y,-z
1/2-x,1/2-y,1/2-z
1/2+x,1/2+y,1/2-z
1/2-x,1/2+y,z
1/2+x,1/2-y,z
loop_
_atom_site_type_symbol
_atom_site_label
_atom_site_fract_x
_atom_site_fract_y
_atom_site_fract_z
Si Si1 0.296563 0.918365 0.941387
Si Si2 0.916309 0.337031 0.715580
Si Si3 0.544110 0.108284 0.058829
Si Si4 0.631211 0.409802 0.356971
Si Si5 0.628398 0.500000 0.250000
Si Si6 0.040780 0.119608 0.861567
Si Si7 0.699025 0.517801 0.558417
Si Si8 0.623728 0.024693 0.374167
O O1 0.306158 0.719217 0.938396
O O2 0.247134 0.959038 0.922210
O O3 0.329453 0.013150 0.902889
O O4 0.302728 0.986563 0.000000
O O5 0.930734 0.500000 0.750000
O O6 0.900702 0.174178 0.748790
O O7 0.958004 0.271269 0.681401
O O8 0.878085 0.396855 0.674901
O O9 0.534828 0.295076 0.082518
O O10 0.500000 0.000000 0.064557
O O11 0.584485 0.012612 0.086085
O O12 0.558023 0.135854 0.000000
O O13 0.655539 0.476081 0.303671
O O14 0.586511 0.517152 0.361999
O O15 0.662447 0.433277 0.405741
O O16 0.617981 0.213578 0.352219
O O17 0.000000 0.000000 0.847930
O O18 0.691120 0.452432 0.500000
#
# Coordination Sequence:
#
# PCOD8294176 Si02
#       8
#    16  16  16  16   8  16  16  16
#     4  10  20  36  58  88 124 156 200 254 303 364
#     4  10  20  39  64  85 117 160 198 255 311 362
#     4  10  21  37  58  85 121 162 203 248 302 367
#     4  11  22  37  62  85 119 162 201 257 307 374
#     4  10  20  38  63  86 120 154 206 250 307 360
#     4  10  22  39  61  85 121 155 206 259 302 369
#     4  10  21  37  59  89 123 160 202 254 311 367
#     4  11  21  36  63  87 119 162 203 250 308 369
#
# _framework density 19.597338000000001
#
# number of rings (size 3 to 8) (size 9 to 14) (size 15 to 20)
#    0.000    1.733    1.333    4.400    0.000    4.000 
#    0.000    5.333   19.067    2.400    0.000    0.000 
#    0.000    0.000    0.000    0.000    0.000    0.000 
#
# Total GULP energy -743805.176061 kJ/mol
# GULP energy per Si atom -12396.752934 kJ/mol
# Density = 1.955273 g / cm^3
# Si number density = 19.597338 Si / 1000 Ang^3
#
#
#
# Elastic Constant Matrix: (Units=GPa)
#
#
# Indices 1 2 3 4 5 6 
#
# 1 96.6316 28.9187 56.4290 0.0000 0.0000 0.0000
# 2 28.9187 120.6193 52.2116 0.0000 0.0000 0.0000
# 3 56.4290 52.2116 121.7652 0.0000 0.0000 0.0000
# 4 0.0000 0.0000 0.0000 8.1670 0.0000 0.0000
# 5 0.0000 0.0000 0.0000 0.0000 7.5160 0.0000
# 6 0.0000 0.0000 0.0000 0.0000 0.0000 28.2644
#
#
#
# Elastic Compliance Matrix: (Units=1/GPa)
#
#
# Indices 1 2 3 4 5 6 
#
# 1 0.014234 -0.000684 -0.006303 0.000000 0.000000 0.000000
# 2 -0.000684 0.010213 -0.004062 0.000000 0.000000 0.000000
# 3 -0.006303 -0.004062 0.012875 0.000000 0.000000 0.000000
# 4 0.000000 0.000000 0.000000 0.122444 0.000000 0.000000
# 5 0.000000 0.000000 0.000000 0.000000 0.133050 0.000000
# 6 0.000000 0.000000 0.000000 0.000000 0.000000 0.035380
#
#
# Mechanical properties :
#
#
# Convention : Reuss Voigt Hill
#
# Bulk Modulus (GPa) = 65.68784 68.23717 66.96251
# Shear Modulus (GPa) = 14.06986 22.21994 18.14490
#
# Velocity S-wave (km/s) = 2.68236 3.37088 3.04614
# Velocity P-wave (km/s) = 6.57152 7.07430 6.82754
#
# Compressibility (1/GPa) = 0.01522352
#
# Stress axis : x y z
#
# Youngs Moduli (GPa) = 70.25394 97.91511 77.66833
#
# Poissons Ratio (x) = 0.06700 0.48954
# Poissons Ratio (y) = 0.04808 0.31549
# Poissons Ratio (z) = 0.44281 0.39774
#
# Static dielectric constant tensor:
#      x y z
#    x 3.311870 0.000000 0.000000 
#    y 0.000000 3.808990 0.000000 
#    z 0.000000 0.000000 3.902530 
# 
# 
# High freq. dielectric constant tensor:
#      x y z
#    x 1.735110 0.000000 0.000000 
#    y 0.000000 1.784050 0.000000 
#    z 0.000000 0.000000 1.775710 
# 
# From -- ./inp_files/49891.got.cif
#   From: 2010.03.12/outbox.cif.g09.slc.cpg/sg72_25_cif.got.tgz:49891.got - 2010.04.16 14:54:00.
