data_PCOD8294905
_publ_section_title
;
Structure prediction by ZEFSAII (Michael W. Deem and Ramdas Pophale) SiO2 
 PCOD8294905
Probable space group: I B A M
;
_chemical_formula_sum "Si O2"
_cell_formula_units_Z 96
_cell_length_a 9.938592
_cell_length_b 22.635548
_cell_length_c 22.671788
_cell_angle_alpha 90.000000
_cell_angle_beta 90.000000
_cell_angle_gamma 90.000000
_cell_volume 5100.369585
_symmetry_space_group_name_H-M "I B A M"
_symmetry_group_IT_number 72
_symmetry_cell_setting 'orthorhombic'
loop_
_space_group_symop_operation_xyz
x,y,z
-x,-y,z
x,-y,1/2-z
-x,y,1/2-z
-x,-y,-z
x,y,-z
-x,y,1/2+z
x,-y,1/2+z
1/2+x,1/2+y,1/2+z
1/2-x,1/2-y,1/2+z
1/2+x,1/2-y,-z
1/2-x,1/2+y,-z
1/2-x,1/2-y,1/2-z
1/2+x,1/2+y,1/2-z
1/2-x,1/2+y,z
1/2+x,1/2-y,z
loop_
_atom_site_type_symbol
_atom_site_label
_atom_site_fract_x
_atom_site_fract_y
_atom_site_fract_z
Si Si1 0.408218 0.302398 0.500000
Si Si2 0.904064 0.689551 0.500000
Si Si3 0.223176 0.870514 0.692987
Si Si4 0.971626 0.675258 0.625597
Si Si5 0.243658 0.378217 0.168356
Si Si6 0.650364 0.497756 0.819755
Si Si7 0.494598 0.314615 0.122907
O O1 0.249675 0.287632 0.500000
O O2 0.494546 0.243551 0.500000
O O3 0.447740 0.337729 0.440290
O O4 0.934208 0.652615 0.559509
O O5 0.345099 0.833093 0.667688
O O6 0.231917 0.867555 0.763002
O O7 0.226746 0.936670 0.665546
O O8 0.081716 0.841253 0.675872
O O9 0.006039 0.744206 0.625890
O O10 0.092707 0.636650 0.650498
O O11 0.266788 0.447319 0.153721
O O12 0.341991 0.336650 0.130213
O O13 0.500000 0.500000 0.847096
O O14 0.638194 0.500000 0.750000
#
# Coordination Sequence:
#
# PCOD8294905 Si02
#       7
#     8   8  16  16  16  16  16
#     4  10  22  38  60  83 111 159 204 234 277 344
#     4  10  22  40  60  81 114 158 201 235 276 345
#     4  11  21  38  60  85 120 156 188 239 293 342
#     4  11  24  37  57  88 122 152 189 237 295 347
#     4  11  23  36  59  90 117 153 194 236 292 348
#     4   9  18  36  59  81 110 155 204 235 272 343
#     4  11  22  37  60  85 118 155 192 236 287 349
#
# _framework density 18.822165999999999
#
# number of rings (size 3 to 8) (size 9 to 14) (size 15 to 20)
#    0.000    1.500    3.333    2.000    7.000    4.667 
#    0.000    2.500    0.000    6.000    0.000    0.000 
#    0.000    0.000    0.000    0.000    0.000    0.000 
#
# Total GULP energy -595153.375478 kJ/mol
# GULP energy per Si atom -12399.028656 kJ/mol
# Density = 1.877933 g / cm^3
# Si number density = 18.822166 Si / 1000 Ang^3
#
#
#
# Elastic Constant Matrix: (Units=GPa)
#
#
# Indices 1 2 3 4 5 6 
#
# 1 65.8215 1.8562 27.8131 0.0000 0.0000 0.0000
# 2 1.8562 78.5548 27.2313 0.0000 0.0000 0.0000
# 3 27.8131 27.2313 91.5812 0.0000 0.0000 0.0000
# 4 0.0000 0.0000 0.0000 4.8930 0.0000 0.0000
# 5 0.0000 0.0000 0.0000 0.0000 31.6127 0.0000
# 6 0.0000 0.0000 0.0000 0.0000 0.0000 26.1434
#
#
#
# Elastic Compliance Matrix: (Units=1/GPa)
#
#
# Indices 1 2 3 4 5 6 
#
# 1 0.017608 0.001603 -0.005824 0.000000 0.000000 0.000000
# 2 0.001603 0.014339 -0.004750 0.000000 0.000000 0.000000
# 3 -0.005824 -0.004750 0.014101 0.000000 0.000000 0.000000
# 4 0.000000 0.000000 0.000000 0.204373 0.000000 0.000000
# 5 0.000000 0.000000 0.000000 0.000000 0.031633 0.000000
# 6 0.000000 0.000000 0.000000 0.000000 0.000000 0.038251
#
#
# Mechanical properties :
#
#
# Convention : Reuss Voigt Hill
#
# Bulk Modulus (GPa) = 35.58161 38.86207 37.22184
# Shear Modulus (GPa) = 14.38369 24.46695 19.42532
#
# Velocity S-wave (km/s) = 2.76740 3.60933 3.21603
# Velocity P-wave (km/s) = 5.39967 6.16939 5.79732
#
# Compressibility (1/GPa) = 0.02810440
#
# Stress axis : x y z
#
# Youngs Moduli (GPa) = 56.79080 69.74066 70.91885
#
# Poissons Ratio (x) = -0.11179 0.41305
# Poissons Ratio (y) = -0.09103 0.33689
# Poissons Ratio (z) = 0.33077 0.33130
#
# Static dielectric constant tensor:
#      x y z
#    x 3.479770 0.000000 0.000000 
#    y 0.000000 3.499210 0.000000 
#    z 0.000000 0.000000 3.859690 
# 
# 
# High freq. dielectric constant tensor:
#      x y z
#    x 1.743360 0.000000 0.000000 
#    y 0.000000 1.714680 0.000000 
#    z 0.000000 0.000000 1.726790 
# 
# From -- ./inp_files/42505.got.cif
#   From: 2010.03.12/outbox.cif.g09.slc.cpg/sg72_22_cif.got.tgz:42505.got - 2010.04.16 14:54:00.
