data_PCOD8294010
_publ_section_title
;
Structure prediction by ZEFSAII (Michael W. Deem and Ramdas Pophale) SiO2 
 PCOD8294010
Probable space group: I B A M
;
_chemical_formula_sum "Si O2"
_cell_formula_units_Z 116
_cell_length_a 22.710725
_cell_length_b 28.309163
_cell_length_c 9.047393
_cell_angle_alpha 90.000000
_cell_angle_beta 90.000000
_cell_angle_gamma 90.000000
_cell_volume 5816.764527
_symmetry_space_group_name_H-M "I B A M"
_symmetry_group_IT_number 72
_symmetry_cell_setting 'orthorhombic'
loop_
_space_group_symop_operation_xyz
x,y,z
-x,-y,z
x,-y,1/2-z
-x,y,1/2-z
-x,-y,-z
x,y,-z
-x,y,1/2+z
x,-y,1/2+z
1/2+x,1/2+y,1/2+z
1/2-x,1/2-y,1/2+z
1/2+x,1/2-y,-z
1/2-x,1/2+y,-z
1/2-x,1/2-y,1/2-z
1/2+x,1/2+y,1/2-z
1/2-x,1/2+y,z
1/2+x,1/2-y,z
loop_
_atom_site_type_symbol
_atom_site_label
_atom_site_fract_x
_atom_site_fract_y
_atom_site_fract_z
Si Si1 0.870262 0.826709 0.323937
Si Si2 0.399800 0.427692 0.833201
Si Si3 0.441516 0.751734 0.825790
Si Si4 0.255109 0.699165 0.823307
Si Si5 0.000000 0.000000 0.750000
Si Si6 0.726146 0.454368 0.326391
Si Si7 0.684473 0.872631 0.328125
Si Si8 0.556351 0.860077 0.331467
O O1 0.869002 0.819106 0.500000
O O2 0.909781 0.873362 0.277350
O O3 0.890071 0.779290 0.243115
O O4 0.804754 0.832859 0.258969
O O5 0.456155 0.463294 0.831593
O O6 0.340150 0.447127 0.756914
O O7 0.380676 0.420963 0.000000
O O8 0.500000 0.731734 0.750000
O O9 0.431870 0.806038 0.781885
O O10 0.444041 0.743433 0.000000
O O11 0.250000 0.750000 0.750000
O O12 0.195470 0.671657 0.780493
O O13 0.264445 0.702604 0.000000
O O14 0.753356 0.500000 0.250000
O O15 0.723873 0.462278 0.500000
O O16 0.770918 0.413468 0.282547
O O17 0.691766 0.857396 0.500000
O O18 0.616580 0.888865 0.300579
O O19 0.500000 0.882610 0.250000
O O20 0.537881 0.861234 0.500000
#
# Coordination Sequence:
#
# PCOD8294010 Si02
#       8
#    16  16  16  16   4  16  16  16
#     4  11  22  39  57  79 115 156 199 253 310 360
#     4  10  22  39  58  81 111 151 195 250 314 364
#     4  10  20  35  53  80 113 153 200 242 293 359
#     4  12  24  37  57  87 120 158 200 247 302 366
#     4  12  22  40  60  86 116 152 208 264 322 384
#     4  10  20  39  62  86 117 152 194 246 304 362
#     4  10  20  38  61  85 117 156 195 241 301 361
#     4   9  19  35  58  84 115 151 189 232 282 344
#
# _framework density 19.942359
#
# number of rings (size 3 to 8) (size 9 to 14) (size 15 to 20)
#    0.000    1.655    2.069    3.103    0.966    2.759 
#    0.000    2.069    0.000    0.414    0.000    2.897 
#    0.000    0.000    0.000    0.000    0.000    0.000 
#
# Total GULP energy -718525.540635 kJ/mol
# GULP energy per Si atom -12388.371390 kJ/mol
# Density = 1.989697 g / cm^3
# Si number density = 19.942359 Si / 1000 Ang^3
#
#
#
# Elastic Constant Matrix: (Units=GPa)
#
#
# Indices 1 2 3 4 5 6 
#
# 1 125.9938 47.0415 32.6995 0.0000 0.0000 0.0000
# 2 47.0415 83.3974 34.4394 0.0000 0.0000 0.0000
# 3 32.6995 34.4394 74.1436 0.0000 0.0000 0.0000
# 4 0.0000 0.0000 0.0000 23.1233 0.0000 0.0000
# 5 0.0000 0.0000 0.0000 0.0000 32.2830 0.0000
# 6 0.0000 0.0000 0.0000 0.0000 0.0000 34.1030
#
#
#
# Elastic Compliance Matrix: (Units=1/GPa)
#
#
# Indices 1 2 3 4 5 6 
#
# 1 0.010361 -0.004896 -0.002295 0.000000 0.000000 0.000000
# 2 -0.004896 0.017151 -0.005807 0.000000 0.000000 0.000000
# 3 -0.002295 -0.005807 0.017197 0.000000 0.000000 0.000000
# 4 0.000000 0.000000 0.000000 0.043247 0.000000 0.000000
# 5 0.000000 0.000000 0.000000 0.000000 0.030976 0.000000
# 6 0.000000 0.000000 0.000000 0.000000 0.000000 0.029323
#
#
# Mechanical properties :
#
#
# Convention : Reuss Voigt Hill
#
# Bulk Modulus (GPa) = 53.44318 56.87729 55.16024
# Shear Modulus (GPa) = 27.70276 29.19214 28.44745
#
# Velocity S-wave (km/s) = 3.73116 3.83015 3.78098
# Velocity P-wave (km/s) = 6.73937 6.93850 6.83966
#
# Compressibility (1/GPa) = 0.01871146
#
# Stress axis : x y z
#
# Youngs Moduli (GPa) = 96.51911 58.30683 58.15026
#
# Poissons Ratio (x) = 0.28549 0.13346
# Poissons Ratio (y) = 0.47259 0.33768
# Poissons Ratio (z) = 0.22151 0.33859
#
# Static dielectric constant tensor:
#      x y z
#    x 3.565670 0.000000 0.000000 
#    y 0.000000 3.544970 0.000000 
#    z 0.000000 0.000000 3.441360 
# 
# 
# High freq. dielectric constant tensor:
#      x y z
#    x 1.785090 0.000000 0.000000 
#    y 0.000000 1.764090 0.000000 
#    z 0.000000 0.000000 1.763730 
# 
# From -- ./inp_files/7334.got.cif
#   From: 2010.03.12/outbox.cif.g09.slc.cpg/sg72_4_cif.got.tgz:7334.got - 2010.04.16 14:54:00.
