data_PCOD8294576
_publ_section_title
;
Structure prediction by ZEFSAII (Michael W. Deem and Ramdas Pophale) SiO2 
 PCOD8294576
Probable space group: I B A M
;
_chemical_formula_sum "Si O2"
_cell_formula_units_Z 80
_cell_length_a 8.848807
_cell_length_b 27.016059
_cell_length_c 15.179937
_cell_angle_alpha 90.000000
_cell_angle_beta 90.000000
_cell_angle_gamma 90.000000
_cell_volume 3628.914100
_symmetry_space_group_name_H-M "I B A M"
_symmetry_group_IT_number 72
_symmetry_cell_setting 'orthorhombic'
loop_
_space_group_symop_operation_xyz
x,y,z
-x,-y,z
x,-y,1/2-z
-x,y,1/2-z
-x,-y,-z
x,y,-z
-x,y,1/2+z
x,-y,1/2+z
1/2+x,1/2+y,1/2+z
1/2-x,1/2-y,1/2+z
1/2+x,1/2-y,-z
1/2-x,1/2+y,-z
1/2-x,1/2-y,1/2-z
1/2+x,1/2+y,1/2-z
1/2-x,1/2+y,z
1/2+x,1/2-y,z
loop_
_atom_site_type_symbol
_atom_site_label
_atom_site_fract_x
_atom_site_fract_y
_atom_site_fract_z
Si Si1 0.659318 0.411171 0.784251
Si Si2 0.227716 0.779465 0.101157
Si Si3 0.898793 0.545260 0.399639
Si Si4 0.404131 0.868284 0.166729
Si Si5 0.406335 0.685973 0.105885
O O1 0.500000 0.432555 0.750000
O O2 0.748710 0.453014 0.839405
O O3 0.754027 0.396784 0.697901
O O4 0.638095 0.364951 0.849298
O O5 0.358617 0.820400 0.111011
O O6 0.285884 0.727061 0.139386
O O7 0.070323 0.797312 0.143943
O O8 0.194566 0.770426 0.000000
O O9 0.849021 0.536393 0.500000
O O10 0.000000 0.500000 0.364561
O O11 0.994321 0.595849 0.393116
O O12 0.500000 0.850170 0.250000
O O13 0.407075 0.679423 0.000000
#
# Coordination Sequence:
#
# PCOD8294576 Si02
#       5
#    16  16  16  16  16
#     4  11  22  40  63  96 132 163 207 262 328 377
#     4  10  21  37  56  84 123 172 222 264 309 366
#     4  10  23  45  71  95 123 164 214 260 316 391
#     4  10  22  37  60  90 124 167 207 261 325 383
#     4  10  22  37  58  87 127 176 221 262 310 372
#
# _framework density 22.045162000000001
#
# number of rings (size 3 to 8) (size 9 to 14) (size 15 to 20)
#    0.000    1.800    2.000    1.200    5.600    5.200 
#    0.000    2.000    0.000    2.400    0.000    0.000 
#    0.000    0.000    0.000    0.000    0.000    0.000 
#
# Total GULP energy -496059.243809 kJ/mol
# GULP energy per Si atom -12401.481095 kJ/mol
# Density = 2.199499 g / cm^3
# Si number density = 22.045162 Si / 1000 Ang^3
#
#
#
# Elastic Constant Matrix: (Units=GPa)
#
#
# Indices 1 2 3 4 5 6 
#
# 1 138.7045 36.8015 34.7643 -0.0003 0.0000 0.0000
# 2 36.8015 86.6775 24.7147 -0.0003 0.0000 0.0000
# 3 34.7643 24.7147 47.5951 -0.0015 -0.0001 -0.0002
# 4 -0.0003 -0.0003 -0.0015 24.2201 -0.0001 -0.0001
# 5 0.0000 0.0000 -0.0001 -0.0001 30.6858 -0.0001
# 6 0.0000 0.0000 -0.0002 -0.0001 -0.0001 39.0242
#
#
#
# Elastic Compliance Matrix: (Units=1/GPa)
#
#
# Indices 1 2 3 4 5 6 
#
# 1 0.009212 -0.002339 -0.005514 0.000000 0.000000 0.000000
# 2 -0.002339 0.014136 -0.005632 0.000000 0.000000 0.000000
# 3 -0.005514 -0.005632 0.027963 0.000002 0.000000 0.000000
# 4 0.000000 0.000000 0.000002 0.041288 0.000000 0.000000
# 5 0.000000 0.000000 0.000000 0.000000 0.032588 0.000000
# 6 0.000000 0.000000 0.000000 0.000000 0.000000 0.025625
#
#
# Mechanical properties :
#
#
# Convention : Reuss Voigt Hill
#
# Bulk Modulus (GPa) = 41.08353 51.72644 46.40498
# Shear Modulus (GPa) = 26.89674 30.56580 28.73127
#
# Velocity S-wave (km/s) = 3.49675 3.72762 3.61403
# Velocity P-wave (km/s) = 5.91435 6.48396 6.20569
#
# Compressibility (1/GPa) = 0.02434065
#
# Stress axis : x y z
#
# Youngs Moduli (GPa) = 108.55150 70.74152 35.76196
#
# Poissons Ratio (x) = 0.16547 0.19720
# Poissons Ratio (y) = 0.25391 0.20141
# Poissons Ratio (z) = 0.59857 0.39841
#
# Static dielectric constant tensor:
#      x y z
#    x 4.407220 0.000000 0.000000 
#    y 0.000000 3.803000 0.000000 
#    z 0.000000 0.000000 3.787570 
# 
# 
# High freq. dielectric constant tensor:
#      x y z
#    x 1.879200 0.000000 0.000000 
#    y 0.000000 1.854000 0.000000 
#    z 0.000000 0.000000 1.860120 
# 
# From -- ./inp_files/28114.got.cif
#   From: 2010.03.12/outbox.cif.g09.slc.cpg/sg72_15_cif.got.tgz:28114.got - 2010.04.16 14:54:00.
