data_PCOD8294292
_publ_section_title
;
Structure prediction by ZEFSAII (Michael W. Deem and Ramdas Pophale) SiO2 
 PCOD8294292
Probable space group: I B A M
;
_chemical_formula_sum "Si O2"
_cell_formula_units_Z 116
_cell_length_a 31.403201
_cell_length_b 22.115697
_cell_length_c 8.470460
_cell_angle_alpha 90.000000
_cell_angle_beta 90.000000
_cell_angle_gamma 90.000000
_cell_volume 5882.765626
_symmetry_space_group_name_H-M "I B A M"
_symmetry_group_IT_number 72
_symmetry_cell_setting 'orthorhombic'
loop_
_space_group_symop_operation_xyz
x,y,z
-x,-y,z
x,-y,1/2-z
-x,y,1/2-z
-x,-y,-z
x,y,-z
-x,y,1/2+z
x,-y,1/2+z
1/2+x,1/2+y,1/2+z
1/2-x,1/2-y,1/2+z
1/2+x,1/2-y,-z
1/2-x,1/2+y,-z
1/2-x,1/2-y,1/2-z
1/2+x,1/2+y,1/2-z
1/2-x,1/2+y,z
1/2+x,1/2-y,z
loop_
_atom_site_type_symbol
_atom_site_label
_atom_site_fract_x
_atom_site_fract_y
_atom_site_fract_z
Si Si1 0.840231 0.563142 0.683191
Si Si2 0.955563 0.720271 0.185374
Si Si3 0.000000 0.500000 0.250000
Si Si4 0.397916 0.332869 0.316562
Si Si5 0.065188 0.591076 0.810832
Si Si6 0.717329 0.834352 0.317324
Si Si7 0.545235 0.435227 0.683239
Si Si8 0.803326 0.199511 0.314947
O O1 0.823215 0.500000 0.750000
O O2 0.844297 0.555928 0.500000
O O3 0.887007 0.579224 0.748850
O O4 0.806736 0.614825 0.720769
O O5 0.919746 0.769386 0.224708
O O6 0.944865 0.660782 0.284181
O O7 0.000000 0.746695 0.250000
O O8 0.957723 0.705874 0.000000
O O9 0.035068 0.549972 0.307022
O O10 0.403452 0.347973 0.500000
O O11 0.418263 0.386974 0.218580
O O12 0.348659 0.328113 0.267508
O O13 0.057154 0.575557 0.000000
O O14 0.709478 0.846919 0.500000
O O15 0.767495 0.837711 0.278765
O O16 0.698348 0.769756 0.264609
O O17 0.559171 0.500000 0.750000
O O18 0.500000 0.412708 0.750000
O O19 0.539268 0.442851 0.500000
O O20 0.794132 0.193598 0.500000
#
# Coordination Sequence:
#
# PCOD8294292 Si02
#       8
#    16  16   4  16  16  16  16  16
#     4  11  23  39  58  84 114 149 192 238 288 342
#     4  11  23  37  56  82 117 156 196 242 289 338
#     4  12  22  40  60  82 114 156 204 248 294 336
#     4  10  21  38  59  87 120 153 190 235 288 343
#     4  11  24  39  58  83 113 154 202 248 294 343
#     4  10  20  37  61  88 115 147 188 234 287 344
#     4  11  22  38  61  87 117 155 195 235 280 338
#     4   9  19  37  61  87 116 150 186 231 287 344
#
# _framework density 19.718617999999999
#
# number of rings (size 3 to 8) (size 9 to 14) (size 15 to 20)
#    0.000    1.517    1.379    4.345    0.000    6.069 
#    0.000    0.690    0.000    3.310    0.000    0.000 
#    0.000    0.000    0.000    0.000    0.000    0.000 
#
# Total GULP energy -718775.007014 kJ/mol
# GULP energy per Si atom -12392.672535 kJ/mol
# Density = 1.967374 g / cm^3
# Si number density = 19.718618 Si / 1000 Ang^3
#
#
#
# Elastic Constant Matrix: (Units=GPa)
#
#
# Indices 1 2 3 4 5 6 
#
# 1 122.1186 62.1461 30.3343 0.0000 0.0000 0.0000
# 2 62.1461 107.1169 31.6740 0.0000 0.0000 0.0000
# 3 30.3343 31.6740 62.8857 0.0000 0.0000 0.0000
# 4 0.0000 0.0000 0.0000 20.3365 0.0000 0.0000
# 5 0.0000 0.0000 0.0000 0.0000 24.7926 0.0000
# 6 0.0000 0.0000 0.0000 0.0000 0.0000 25.6165
#
#
#
# Elastic Compliance Matrix: (Units=1/GPa)
#
#
# Indices 1 2 3 4 5 6 
#
# 1 0.011992 -0.006165 -0.002679 0.000000 0.000000 0.000000
# 2 -0.006165 0.014139 -0.004148 0.000000 0.000000 0.000000
# 3 -0.002679 -0.004148 0.019283 0.000000 0.000000 0.000000
# 4 0.000000 0.000000 0.000000 0.049173 0.000000 0.000000
# 5 0.000000 0.000000 0.000000 0.000000 0.040335 0.000000
# 6 0.000000 0.000000 0.000000 0.000000 0.000000 0.039037
#
#
# Mechanical properties :
#
#
# Convention : Reuss Voigt Hill
#
# Bulk Modulus (GPa) = 51.46655 60.04779 55.75717
# Shear Modulus (GPa) = 24.22263 25.34690 24.78476
#
# Velocity S-wave (km/s) = 3.50868 3.58918 3.54916
# Velocity P-wave (km/s) = 6.52469 6.90614 6.71812
#
# Compressibility (1/GPa) = 0.01943010
#
# Stress axis : x y z
#
# Youngs Moduli (GPa) = 83.39144 70.72774 51.85839
#
# Poissons Ratio (x) = 0.43603 0.13894
# Poissons Ratio (y) = 0.51410 0.21508
# Poissons Ratio (z) = 0.22343 0.29335
#
# Static dielectric constant tensor:
#      x y z
#    x 3.789720 0.000000 0.000000 
#    y 0.000000 3.567950 0.000000 
#    z 0.000000 0.000000 3.526760 
# 
# 
# High freq. dielectric constant tensor:
#      x y z
#    x 1.776700 0.000000 0.000000 
#    y 0.000000 1.771280 0.000000 
#    z 0.000000 0.000000 1.761560 
# 
# From -- ./inp_files/8448.got.cif
#   From: 2010.03.12/outbox.cif.g09.slc.cpg/sg72_5_cif.got.tgz:8448.got - 2010.04.16 14:54:00.
