data_PCOD8294076
_publ_section_title
;
Structure prediction by ZEFSAII (Michael W. Deem and Ramdas Pophale) SiO2 
 PCOD8294076
Probable space group: I B A M
;
_chemical_formula_sum "Si O2"
_cell_formula_units_Z 68
_cell_length_a 16.527380
_cell_length_b 21.560457
_cell_length_c 9.668430
_cell_angle_alpha 90.000000
_cell_angle_beta 90.000000
_cell_angle_gamma 90.000000
_cell_volume 3445.227712
_symmetry_space_group_name_H-M "I B A M"
_symmetry_group_IT_number 72
_symmetry_cell_setting 'orthorhombic'
loop_
_space_group_symop_operation_xyz
x,y,z
-x,-y,z
x,-y,1/2-z
-x,y,1/2-z
-x,-y,-z
x,y,-z
-x,y,1/2+z
x,-y,1/2+z
1/2+x,1/2+y,1/2+z
1/2-x,1/2-y,1/2+z
1/2+x,1/2-y,-z
1/2-x,1/2+y,-z
1/2-x,1/2-y,1/2-z
1/2+x,1/2+y,1/2-z
1/2-x,1/2+y,z
1/2+x,1/2-y,z
loop_
_atom_site_type_symbol
_atom_site_label
_atom_site_fract_x
_atom_site_fract_y
_atom_site_fract_z
Si Si1 0.421784 0.332752 0.158788
Si Si2 0.419891 0.806775 0.661501
Si Si3 0.365150 0.909300 0.847008
Si Si4 0.686212 0.554107 0.844253
Si Si5 0.500000 0.000000 0.750000
O O1 0.500000 0.346402 0.250000
O O2 0.387536 0.263130 0.182317
O O3 0.350520 0.379601 0.201553
O O4 0.448434 0.340814 0.000000
O O5 0.500000 0.816601 0.750000
O O6 0.434605 0.822166 0.500000
O O7 0.359460 0.856747 0.728099
O O8 0.282687 0.947153 0.829089
O O9 0.441736 0.955705 0.839627
O O10 0.367588 0.878376 0.000000
O O11 0.648793 0.500000 0.750000
O O12 0.659545 0.539211 0.000000
#
# Coordination Sequence:
#
# PCOD8294076 Si02
#       5
#    16  16  16  16   4
#     4   9  20  39  61  84 114 149 189 236 287 342
#     4  10  20  35  57  84 113 149 191 236 282 335
#     4  11  23  37  57  85 118 152 189 234 282 337
#     4  10  22  40  58  83 117 151 189 236 288 339
#     4  12  22  36  60  86 116 152 188 224 278 332
#
# _framework density 19.737445999999998
#
# number of rings (size 3 to 8) (size 9 to 14) (size 15 to 20)
#    0.000    1.882    2.353    1.059    0.000    5.176 
#    0.000    2.353    0.000    0.000    0.000    0.000 
#    0.000    0.000    0.000    0.000    0.000    0.000 
#
# Total GULP energy -421468.839352 kJ/mol
# GULP energy per Si atom -12396.142334 kJ/mol
# Density = 1.969252 g / cm^3
# Si number density = 19.737446 Si / 1000 Ang^3
#
#
#
# Elastic Constant Matrix: (Units=GPa)
#
#
# Indices 1 2 3 4 5 6 
#
# 1 59.8628 34.0783 31.0881 0.0000 0.0000 0.0000
# 2 34.0783 129.1975 73.8940 0.0000 0.0000 0.0000
# 3 31.0881 73.8940 126.4678 0.0000 0.0000 0.0000
# 4 0.0000 0.0000 0.0000 36.2204 0.0000 0.0000
# 5 0.0000 0.0000 0.0000 0.0000 23.9885 0.0000
# 6 0.0000 0.0000 0.0000 0.0000 0.0000 24.8804
#
#
#
# Elastic Compliance Matrix: (Units=1/GPa)
#
#
# Indices 1 2 3 4 5 6 
#
# 1 0.020294 -0.003754 -0.002795 0.000000 0.000000 0.000000
# 2 -0.003754 0.012319 -0.006275 0.000000 0.000000 0.000000
# 3 -0.002795 -0.006275 0.012261 0.000000 0.000000 0.000000
# 4 0.000000 0.000000 0.000000 0.027609 0.000000 0.000000
# 5 0.000000 0.000000 0.000000 0.000000 0.041687 0.000000
# 6 0.000000 0.000000 0.000000 0.000000 0.000000 0.040192
#
#
# Mechanical properties :
#
#
# Convention : Reuss Voigt Hill
#
# Bulk Modulus (GPa) = 52.01608 65.96100 58.98854
# Shear Modulus (GPa) = 26.82134 28.78237 27.80186
#
# Velocity S-wave (km/s) = 3.69033 3.82286 3.75718
# Velocity P-wave (km/s) = 6.67602 7.27856 6.98379
#
# Compressibility (1/GPa) = 0.01922482
#
# Stress axis : x y z
#
# Youngs Moduli (GPa) = 49.27678 81.17227 81.56072
#
# Poissons Ratio (x) = 0.30474 0.22796
# Poissons Ratio (y) = 0.18500 0.51182
# Poissons Ratio (z) = 0.13773 0.50938
#
# Static dielectric constant tensor:
#      x y z
#    x 3.334670 0.000000 0.000000 
#    y 0.000000 3.754880 0.000000 
#    z 0.000000 0.000000 3.736300 
# 
# 
# High freq. dielectric constant tensor:
#      x y z
#    x 1.746250 0.000000 0.000000 
#    y 0.000000 1.776880 0.000000 
#    z 0.000000 0.000000 1.775910 
# 
# From -- ./inp_files/4397.got.cif
#   From: 2010.03.12/outbox.cif.g09.slc.cpg/sg72_3_cif.got.tgz:4397.got - 2010.04.16 14:54:00.
