data_PCOD8294253
_publ_section_title
;
Structure prediction by ZEFSAII (Michael W. Deem and Ramdas Pophale) SiO2 
 PCOD8294253
Probable space group: I B A M
;
_chemical_formula_sum "Si O2"
_cell_formula_units_Z 96
_cell_length_a 24.580631
_cell_length_b 21.876841
_cell_length_c 9.982678
_cell_angle_alpha 90.000000
_cell_angle_beta 90.000000
_cell_angle_gamma 90.000000
_cell_volume 5368.150715
_symmetry_space_group_name_H-M "I B A M"
_symmetry_group_IT_number 72
_symmetry_cell_setting 'orthorhombic'
loop_
_space_group_symop_operation_xyz
x,y,z
-x,-y,z
x,-y,1/2-z
-x,y,1/2-z
-x,-y,-z
x,y,-z
-x,y,1/2+z
x,-y,1/2+z
1/2+x,1/2+y,1/2+z
1/2-x,1/2-y,1/2+z
1/2+x,1/2-y,-z
1/2-x,1/2+y,-z
1/2-x,1/2-y,1/2-z
1/2+x,1/2+y,1/2-z
1/2-x,1/2+y,z
1/2+x,1/2-y,z
loop_
_atom_site_type_symbol
_atom_site_label
_atom_site_fract_x
_atom_site_fract_y
_atom_site_fract_z
Si Si1 0.252468 0.150109 0.266087
Si Si2 0.942510 0.384709 0.271217
Si Si3 0.267934 0.922287 0.500000
Si Si4 0.671571 0.744771 0.341352
Si Si5 0.953587 0.750215 0.150847
Si Si6 0.239557 0.441343 0.000000
Si Si7 0.605491 0.910326 0.000000
Si Si8 0.888024 0.456036 0.500000
O O1 0.308608 0.186165 0.303072
O O2 0.203658 0.199025 0.256823
O O3 0.240297 0.097357 0.373220
O O4 0.251349 0.116483 0.126617
O O5 0.957285 0.322625 0.347539
O O6 0.912660 0.372330 0.129900
O O7 0.903747 0.423948 0.362939
O O8 0.000000 0.419399 0.250000
O O9 0.332007 0.926717 0.500000
O O10 0.237439 0.988774 0.500000
O O11 0.682839 0.734685 0.500000
O O12 0.608200 0.733393 0.306792
O O13 0.000000 0.778569 0.250000
O O14 0.965786 0.773477 0.000000
O O15 0.176144 0.454038 0.000000
O O16 0.581031 0.978784 0.000000
#
# Coordination Sequence:
#
# PCOD8294253 Si02
#       8
#    16  16   8  16  16   8   8   8
#     4  11  21  36  56  83 107 145 183 216 280 319
#     4  11  22  34  48  66  91 131 174 222 267 309
#     4  11  22  36  53  79 106 140 180 224 264 330
#     4  10  20  37  58  80 114 143 176 228 272 322
#     4  10  21  37  55  76 102 136 170 210 266 320
#     4  11  22  36  55  75 110 142 176 222 268 330
#     4  11  23  32  48  68  91 128 182 220 260 308
#     4  11  21  36  48  64  93 134 170 222 278 300
#
# _framework density 17.883254000000001
#
# number of rings (size 3 to 8) (size 9 to 14) (size 15 to 20)
#    0.000    1.333    2.500    4.500    3.500    4.667 
#    3.000    0.000    0.000    0.000    0.000    0.000 
#    0.000    4.000    0.000    0.000    0.000    0.000 
#
# Total GULP energy -594897.591014 kJ/mol
# GULP energy per Si atom -12393.699813 kJ/mol
# Density = 1.784255 g / cm^3
# Si number density = 17.883254 Si / 1000 Ang^3
#
#
#
# Elastic Constant Matrix: (Units=GPa)
#
#
# Indices 1 2 3 4 5 6 
#
# 1 79.0495 19.9465 32.9558 0.0000 0.0000 0.0000
# 2 19.9465 60.2805 24.6623 0.0000 0.0000 0.0000
# 3 32.9558 24.6623 114.0832 0.0000 0.0000 0.0000
# 4 0.0000 0.0000 0.0000 -12.5936 0.0000 0.0000
# 5 0.0000 0.0000 0.0000 0.0000 26.7543 0.0000
# 6 0.0000 0.0000 0.0000 0.0000 0.0000 12.2075
#
#
#
# Elastic Compliance Matrix: (Units=1/GPa)
#
#
# Indices 1 2 3 4 5 6 
#
# 1 0.015029 -0.003507 -0.003583 0.000000 0.000000 0.000000
# 2 -0.003507 0.019017 -0.003098 0.000000 0.000000 0.000000
# 3 -0.003583 -0.003098 0.010470 0.000000 0.000000 0.000000
# 4 0.000000 0.000000 0.000000 -0.079405 0.000000 0.000000
# 5 0.000000 0.000000 0.000000 0.000000 0.037377 0.000000
# 6 0.000000 0.000000 0.000000 0.000000 0.000000 0.081917
#
#
# Mechanical properties :
#
#
# Convention : Reuss Voigt Hill
#
# Bulk Modulus (GPa) = 41.42536 45.39359 43.40948
# Shear Modulus (GPa) = 44.31482 16.99686 30.65584
#
# Velocity S-wave (km/s) = 4.98336 3.08626 4.14481
# Velocity P-wave (km/s) = 7.50509 6.17563 6.87258
#
# Compressibility (1/GPa) = 0.02413980
#
# Stress axis : x y z
#
# Youngs Moduli (GPa) = 66.53736 52.58452 95.50730
#
# Poissons Ratio (x) = 0.18441 0.34224
# Poissons Ratio (y) = 0.23335 0.29588
# Poissons Ratio (z) = 0.23843 0.16291
#
# Static dielectric constant tensor:
#      x y z
#    x 3.301720 0.000000 0.000000 
#    y 0.000000 3.287580 0.000000 
#    z 0.000000 0.000000 3.318630 
# 
# 
# High freq. dielectric constant tensor:
#      x y z
#    x 1.674640 0.000000 0.000000 
#    y 0.000000 1.661780 0.000000 
#    z 0.000000 0.000000 1.708940 
# 
# From -- ./inp_files/7022.got.cif
#   From: 2010.03.12/outbox.cif.g09.slc.cpg/sg72_4_cif.got.tgz:7022.got - 2010.04.16 14:54:00.
