data_PCOD8294286
_publ_section_title
;
Structure prediction by ZEFSAII (Michael W. Deem and Ramdas Pophale) SiO2 
 PCOD8294286
Probable space group: I B A M
;
_chemical_formula_sum "Si O2"
_cell_formula_units_Z 96
_cell_length_a 14.799878
_cell_length_b 14.056959
_cell_length_c 22.442826
_cell_angle_alpha 90.000000
_cell_angle_beta 90.000000
_cell_angle_gamma 90.000000
_cell_volume 4669.034209
_symmetry_space_group_name_H-M "I B A M"
_symmetry_group_IT_number 72
_symmetry_cell_setting 'orthorhombic'
loop_
_space_group_symop_operation_xyz
x,y,z
-x,-y,z
x,-y,1/2-z
-x,y,1/2-z
-x,-y,-z
x,y,-z
-x,y,1/2+z
x,-y,1/2+z
1/2+x,1/2+y,1/2+z
1/2-x,1/2-y,1/2+z
1/2+x,1/2-y,-z
1/2-x,1/2+y,-z
1/2-x,1/2-y,1/2-z
1/2+x,1/2+y,1/2-z
1/2-x,1/2+y,z
1/2+x,1/2-y,z
loop_
_atom_site_type_symbol
_atom_site_label
_atom_site_fract_x
_atom_site_fract_y
_atom_site_fract_z
Si Si1 0.947840 0.904235 0.568540
Si Si2 0.365965 0.843735 0.132248
Si Si3 0.063898 0.709647 0.877285
Si Si4 0.752434 0.019660 0.933070
Si Si5 0.252230 0.808869 0.567036
Si Si6 0.604072 0.894034 0.242045
O O1 0.977242 0.878503 0.500000
O O2 0.967386 0.821078 0.617343
O O3 0.840253 0.915333 0.571222
O O4 0.000000 0.000000 0.588677
O O5 0.470683 0.846328 0.111283
O O6 0.325852 0.944400 0.110894
O O7 0.304611 0.760220 0.107850
O O8 0.358509 0.831365 0.203374
O O9 0.138824 0.696333 0.928267
O O10 0.115523 0.670205 0.817731
O O11 0.780697 0.913633 0.914952
O O12 0.712946 0.020858 0.000000
O O13 0.225568 0.782727 0.500000
O O14 0.500000 0.912479 0.250000
O O15 0.649716 0.000000 0.250000
#
# Coordination Sequence:
#
# PCOD8294286 Si02
#       6
#    16  16  16  16  16  16
#     4  10  20  37  60  88 126 171 212 252 313 384
#     4  11  22  39  62  86 123 161 206 263 318 369
#     4  11  22  38  63  90 121 163 216 259 315 379
#     4  10  21  37  57  86 125 163 203 257 311 375
#     4  11  23  38  59  91 126 160 207 258 314 385
#     4   9  20  39  62  89 122 163 211 260 315 379
#
# _framework density 20.560998000000001
#
# number of rings (size 3 to 8) (size 9 to 14) (size 15 to 20)
#    0.000    1.667    1.667    3.000    0.000    6.667 
#    0.000    1.667    0.000   10.500    0.000    0.000 
#    0.000    0.000    0.000    0.000    0.000    0.000 
#
# Total GULP energy -594685.748291 kJ/mol
# GULP energy per Si atom -12389.286423 kJ/mol
# Density = 2.051420 g / cm^3
# Si number density = 20.560998 Si / 1000 Ang^3
#
#
#
# Elastic Constant Matrix: (Units=GPa)
#
#
# Indices 1 2 3 4 5 6 
#
# 1 81.2244 14.4362 39.1676 0.0000 0.0000 0.0000
# 2 14.4362 114.1557 79.7647 0.0000 0.0000 0.0000
# 3 39.1676 79.7647 100.7131 0.0000 0.0000 0.0000
# 4 0.0000 0.0000 0.0000 -3.9054 0.0000 0.0000
# 5 0.0000 0.0000 0.0000 0.0000 28.4729 0.0000
# 6 0.0000 0.0000 0.0000 0.0000 0.0000 34.7243
#
#
#
# Elastic Compliance Matrix: (Units=1/GPa)
#
#
# Indices 1 2 3 4 5 6 
#
# 1 0.016502 0.005368 -0.010669 0.000000 0.000000 0.000000
# 2 0.005368 0.021361 -0.019006 0.000000 0.000000 0.000000
# 3 -0.010669 -0.019006 0.029131 0.000000 0.000000 0.000000
# 4 0.000000 0.000000 0.000000 -0.256056 0.000000 0.000000
# 5 0.000000 0.000000 0.000000 0.000000 0.035121 0.000000
# 6 0.000000 0.000000 0.000000 0.000000 0.000000 0.028798
#
#
# Mechanical properties :
#
#
# Convention : Reuss Voigt Hill
#
# Bulk Modulus (GPa) = 54.40477 62.53669 58.47073
# Shear Modulus (GPa) = -71.02115 22.70669 -24.15723
#
# Velocity S-wave (km/s) = -5.88359 3.32679 -3.43141
# Velocity P-wave (km/s) = 4.43147 6.72592 3.57771
#
# Compressibility (1/GPa) = 0.01838074
#
# Stress axis : x y z
#
# Youngs Moduli (GPa) = 60.59708 46.81425 34.32765
#
# Poissons Ratio (x) = -0.25131 0.36626
# Poissons Ratio (y) = -0.32530 0.65242
# Poissons Ratio (z) = 0.64654 0.88973
#
# Static dielectric constant tensor:
#      x y z
#    x 3.683270 0.000000 0.000000 
#    y 0.000000 4.005030 0.000000 
#    z 0.000000 0.000000 3.873900 
# 
# 
# High freq. dielectric constant tensor:
#      x y z
#    x 1.797740 0.000000 0.000000 
#    y 0.000000 1.817010 0.000000 
#    z 0.000000 0.000000 1.784620 
# 
# From -- ./inp_files/38013.got.cif
#   From: 2010.03.12/outbox.cif.g09.slc.cpg/sg72_20_cif.got.tgz:38013.got - 2010.04.16 14:54:00.
