data_PCOD8294686
_publ_section_title
;
Structure prediction by ZEFSAII (Michael W. Deem and Ramdas Pophale) SiO2 
 PCOD8294686
Probable space group: I B A M
;
_chemical_formula_sum "Si O2"
_cell_formula_units_Z 104
_cell_length_a 20.900007
_cell_length_b 9.318100
_cell_length_c 25.295518
_cell_angle_alpha 90.000000
_cell_angle_beta 90.000000
_cell_angle_gamma 90.000000
_cell_volume 4926.260525
_symmetry_space_group_name_H-M "I B A M"
_symmetry_group_IT_number 72
_symmetry_cell_setting 'orthorhombic'
loop_
_space_group_symop_operation_xyz
x,y,z
-x,-y,z
x,-y,1/2-z
-x,y,1/2-z
-x,-y,-z
x,y,-z
-x,y,1/2+z
x,-y,1/2+z
1/2+x,1/2+y,1/2+z
1/2-x,1/2-y,1/2+z
1/2+x,1/2-y,-z
1/2-x,1/2+y,-z
1/2-x,1/2-y,1/2-z
1/2+x,1/2+y,1/2-z
1/2-x,1/2+y,z
1/2+x,1/2-y,z
loop_
_atom_site_type_symbol
_atom_site_label
_atom_site_fract_x
_atom_site_fract_y
_atom_site_fract_z
Si Si1 0.875681 0.092938 0.300122
Si Si2 0.692829 0.871431 0.399236
Si Si3 0.423961 0.650492 0.558524
Si Si4 0.689351 0.451696 0.908238
Si Si5 0.198712 0.650120 0.720779
Si Si6 0.572949 0.023211 0.439414
Si Si7 0.500000 0.500000 0.643113
O O1 0.825218 0.048026 0.345396
O O2 0.867682 0.259188 0.282773
O O3 0.947662 0.069148 0.318895
O O4 0.856729 0.000000 0.250000
O O5 0.693152 0.714290 0.426065
O O6 0.719085 0.874590 0.339458
O O7 0.744372 0.975277 0.426945
O O8 0.620550 0.929264 0.403745
O O9 0.455141 0.634373 0.500000
O O10 0.366268 0.538006 0.562138
O O11 0.402257 0.814015 0.566594
O O12 0.475215 0.624643 0.604563
O O13 0.186967 0.500000 0.750000
O O14 0.250000 0.750000 0.750000
O O15 0.578037 0.970941 0.500000
O O16 0.500000 0.000000 0.419443
#
# Coordination Sequence:
#
# PCOD8294686 Si02
#       7
#    16  16  16  16  16  16   8
#     4  10  21  38  60  88 126 162 208 252 314 370
#     4  11  22  40  64  94 130 167 212 267 318 386
#     4  10  22  40  63  89 121 160 210 263 317 379
#     4  10  22  37  63  95 124 162 209 261 321 378
#     4  11  22  37  63  96 127 165 208 261 318 382
#     4  10  24  42  63  89 125 169 212 264 324 383
#     4  10  22  38  64  88 118 166 212 258 310 378
#
# _framework density 21.111348
#
# number of rings (size 3 to 8) (size 9 to 14) (size 15 to 20)
#    0.000    1.692    0.000    4.615    6.462    3.692 
#    0.000    0.000    0.000    0.000    0.000    0.000 
#    0.000    0.000    0.000    0.000    0.000    0.000 
#
# Total GULP energy -644570.797776 kJ/mol
# GULP energy per Si atom -12395.592265 kJ/mol
# Density = 2.106330 g / cm^3
# Si number density = 21.111348 Si / 1000 Ang^3
#
#
#
# Elastic Constant Matrix: (Units=GPa)
#
#
# Indices 1 2 3 4 5 6 
#
# 1 121.3087 64.3176 16.5032 0.0000 0.0000 0.0000
# 2 64.3176 171.3634 33.6231 0.0000 0.0000 0.0000
# 3 16.5032 33.6231 63.1364 0.0000 0.0000 0.0000
# 4 0.0000 0.0000 0.0000 30.3207 0.0000 0.0000
# 5 0.0000 0.0000 0.0000 0.0000 12.5377 0.0000
# 6 0.0000 0.0000 0.0000 0.0000 0.0000 36.6243
#
#
#
# Elastic Compliance Matrix: (Units=1/GPa)
#
#
# Indices 1 2 3 4 5 6 
#
# 1 0.010320 -0.003734 -0.000709 0.000000 0.000000 0.000000
# 2 -0.003734 0.007868 -0.003214 0.000000 0.000000 0.000000
# 3 -0.000709 -0.003214 0.017736 0.000000 0.000000 0.000000
# 4 0.000000 0.000000 0.000000 0.032981 0.000000 0.000000
# 5 0.000000 0.000000 0.000000 0.000000 0.079759 0.000000
# 6 0.000000 0.000000 0.000000 0.000000 0.000000 0.027304
#
#
# Mechanical properties :
#
#
# Convention : Reuss Voigt Hill
#
# Bulk Modulus (GPa) = 48.52202 64.96625 56.74414
# Shear Modulus (GPa) = 25.23329 31.98751 28.61040
#
# Velocity S-wave (km/s) = 3.46099 3.89676 3.68532
# Velocity P-wave (km/s) = 6.24540 7.14746 6.71160
#
# Compressibility (1/GPa) = 0.02060920
#
# Stress axis : x y z
#
# Youngs Moduli (GPa) = 96.90173 127.10206 56.38403
#
# Poissons Ratio (x) = 0.47463 0.03997
# Poissons Ratio (y) = 0.36185 0.18121
# Poissons Ratio (z) = 0.06869 0.40848
#
# Static dielectric constant tensor:
#      x y z
#    x 3.699420 0.000000 0.000000 
#    y 0.000000 4.053050 0.000000 
#    z 0.000000 0.000000 3.790700 
# 
# 
# High freq. dielectric constant tensor:
#      x y z
#    x 1.820680 0.000000 0.000000 
#    y 0.000000 1.840100 0.000000 
#    z 0.000000 0.000000 1.821990 
# 
# From -- ./inp_files/49409.got.cif
#   From: 2010.03.12/outbox.cif.g09.slc.cpg/sg72_25_cif.got.tgz:49409.got - 2010.04.16 14:54:00.
