data_PCOD8294854
_publ_section_title
;
Structure prediction by ZEFSAII (Michael W. Deem and Ramdas Pophale) SiO2 
 PCOD8294854
Probable space group: I B A M
;
_chemical_formula_sum "Si O2"
_cell_formula_units_Z 52
_cell_length_a 7.173386
_cell_length_b 13.633566
_cell_length_c 21.513716
_cell_angle_alpha 90.000000
_cell_angle_beta 90.000000
_cell_angle_gamma 90.000000
_cell_volume 2104.016285
_symmetry_space_group_name_H-M "I B A M"
_symmetry_group_IT_number 72
_symmetry_cell_setting 'orthorhombic'
loop_
_space_group_symop_operation_xyz
x,y,z
-x,-y,z
x,-y,1/2-z
-x,y,1/2-z
-x,-y,-z
x,y,-z
-x,y,1/2+z
x,-y,1/2+z
1/2+x,1/2+y,1/2+z
1/2-x,1/2-y,1/2+z
1/2+x,1/2-y,-z
1/2-x,1/2+y,-z
1/2-x,1/2-y,1/2-z
1/2+x,1/2+y,1/2-z
1/2-x,1/2+y,z
1/2+x,1/2-y,z
loop_
_atom_site_type_symbol
_atom_site_label
_atom_site_fract_x
_atom_site_fract_y
_atom_site_fract_z
Si Si1 0.000000 0.000000 0.750000
Si Si2 0.379380 0.400268 0.633540
Si Si3 0.186615 0.438223 0.069204
Si Si4 0.573863 0.229540 0.427293
O O1 0.890697 0.080209 0.707464
O O2 0.349927 0.514327 0.611581
O O3 0.552339 0.340986 0.599209
O O4 0.199991 0.336329 0.617423
O O5 0.134658 0.321761 0.078485
O O6 0.000000 0.500000 0.081583
O O7 0.257413 0.457075 0.000000
O O8 0.636756 0.226498 0.500000
#
# Coordination Sequence:
#
# PCOD8294854 Si02
#       4
#     4  16  16  16
#     4  12  32  48  60  92 150 208 246 254 324 436
#     4  11  24  45  67 100 141 187 235 281 340 419
#     4   8  16  36  66 101 135 165 214 285 356 407
#     4  10  21  42  76 111 136 170 229 304 370 399
#
# _framework density 24.714635999999999
#
# number of rings (size 3 to 8) (size 9 to 14) (size 15 to 20)
#    0.000    2.154    0.000    4.615    4.308    1.231 
#    0.000   10.769    0.000    0.000    0.000    0.000 
#    0.000    0.000    0.000    0.000    0.000    0.000 
#
# Total GULP energy -322191.926294 kJ/mol
# GULP energy per Si atom -12391.997165 kJ/mol
# Density = 2.465838 g / cm^3
# Si number density = 24.714636 Si / 1000 Ang^3
#
#
#
# Elastic Constant Matrix: (Units=GPa)
#
#
# Indices 1 2 3 4 5 6 
#
# 1 95.8952 53.0380 72.6616 0.0000 0.0000 0.0000
# 2 53.0380 224.9395 92.6444 0.0000 0.0000 0.0000
# 3 72.6616 92.6444 197.0933 0.0000 0.0000 0.0000
# 4 0.0000 0.0000 0.0000 53.0741 0.0000 0.0000
# 5 0.0000 0.0000 0.0000 0.0000 28.7919 0.0000
# 6 0.0000 0.0000 0.0000 0.0000 0.0000 37.8173
#
#
#
# Elastic Compliance Matrix: (Units=1/GPa)
#
#
# Indices 1 2 3 4 5 6 
#
# 1 0.014894 -0.001550 -0.004762 0.000000 0.000000 0.000000
# 2 -0.001550 0.005674 -0.002096 0.000000 0.000000 0.000000
# 3 -0.004762 -0.002096 0.007814 0.000000 0.000000 0.000000
# 4 0.000000 0.000000 0.000000 0.018842 0.000000 0.000000
# 5 0.000000 0.000000 0.000000 0.000000 0.034732 0.000000
# 6 0.000000 0.000000 0.000000 0.000000 0.000000 0.026443
#
#
# Mechanical properties :
#
#
# Convention : Reuss Voigt Hill
#
# Bulk Modulus (GPa) = 86.45816 106.06847 96.26331
# Shear Modulus (GPa) = 38.73838 43.90892 41.32365
#
# Velocity S-wave (km/s) = 3.96337 4.21959 4.09348
# Velocity P-wave (km/s) = 7.48351 8.17009 7.83432
#
# Compressibility (1/GPa) = 0.01156629
#
# Stress axis : x y z
#
# Youngs Moduli (GPa) = 67.14161 176.23195 127.96866
#
# Poissons Ratio (x) = 0.27324 0.60940
# Poissons Ratio (y) = 0.10410 0.26818
# Poissons Ratio (z) = 0.31973 0.36932
#
# Static dielectric constant tensor:
#      x y z
#    x 5.079100 0.000000 0.000000 
#    y 0.000000 5.536360 0.000000 
#    z 0.000000 0.000000 3.866410 
# 
# 
# High freq. dielectric constant tensor:
#      x y z
#    x 2.046610 0.000000 0.000000 
#    y 0.000000 2.053990 0.000000 
#    z 0.000000 0.000000 1.923180 
# 
# From -- ./inp_files/27449.got.cif
#   From: 2010.03.12/outbox.cif.g09.slc.cpg/sg72_14_cif.got.tgz:27449.got - 2010.04.16 14:54:00.
