data_PCOD8294860
_publ_section_title
;
Structure prediction by ZEFSAII (Michael W. Deem and Ramdas Pophale) SiO2 
 PCOD8294860
Probable space group: I B A M
;
_chemical_formula_sum "Si O2"
_cell_formula_units_Z 116
_cell_length_a 23.369517
_cell_length_b 8.756036
_cell_length_c 28.399875
_cell_angle_alpha 90.000000
_cell_angle_beta 90.000000
_cell_angle_gamma 90.000000
_cell_volume 5811.305455
_symmetry_space_group_name_H-M "I B A M"
_symmetry_group_IT_number 72
_symmetry_cell_setting 'orthorhombic'
loop_
_space_group_symop_operation_xyz
x,y,z
-x,-y,z
x,-y,1/2-z
-x,y,1/2-z
-x,-y,-z
x,y,-z
-x,y,1/2+z
x,-y,1/2+z
1/2+x,1/2+y,1/2+z
1/2-x,1/2-y,1/2+z
1/2+x,1/2-y,-z
1/2-x,1/2+y,-z
1/2-x,1/2-y,1/2-z
1/2+x,1/2+y,1/2-z
1/2-x,1/2+y,z
1/2+x,1/2-y,z
loop_
_atom_site_type_symbol
_atom_site_label
_atom_site_fract_x
_atom_site_fract_y
_atom_site_fract_z
Si Si1 0.208845 0.771387 0.130631
Si Si2 0.101741 0.697292 0.445446
Si Si3 0.373651 0.850812 0.555967
Si Si4 0.692497 0.169030 0.266496
Si Si5 0.484063 0.665748 0.555333
Si Si6 0.825760 0.881447 0.123964
Si Si7 0.500000 0.500000 0.250000
Si Si8 0.890496 0.131433 0.717482
O O1 0.183202 0.691930 0.084253
O O2 0.180790 0.701699 0.178116
O O3 0.276241 0.740404 0.134261
O O4 0.201171 0.951072 0.122231
O O5 0.112433 0.722466 0.500000
O O6 0.114427 0.525276 0.429936
O O7 0.142107 0.826767 0.422861
O O8 0.035532 0.720837 0.432063
O O9 0.363516 0.833374 0.500000
O O10 0.425149 0.740607 0.574516
O O11 0.750000 0.250000 0.250000
O O12 0.634297 0.213532 0.239134
O O13 0.704345 0.000000 0.250000
O O14 0.500000 0.500000 0.577536
O O15 0.476021 0.646960 0.500000
O O16 0.873612 0.881535 0.163772
O O17 0.459684 0.613137 0.219149
O O18 0.861290 0.000000 0.750000
#
# Coordination Sequence:
#
# PCOD8294860 Si02
#       8
#    16  16  16  16  16  16   4  16
#     4  12  24  39  61  94 125 162 209 258 316 385
#     4  10  22  40  61  87 122 167 213 261 316 375
#     4  10  22  40  61  89 128 166 208 264 318 375
#     4  12  23  39  68  98 130 167 215 267 318 380
#     4   9  17  35  62  88 118 162 213 261 309 370
#     4  12  24  39  64  92 125 165 214 260 319 382
#     4   8  20  44  70  88 130 168 210 246 328 384
#     4  10  21  44  67  93 126 169 206 258 318 380
#
# _framework density 19.961092000000001
#
# number of rings (size 3 to 8) (size 9 to 14) (size 15 to 20)
#    0.414    0.966    2.759    3.310    1.931    3.862 
#    6.207    0.345    0.000    0.000    0.000    0.000 
#    0.000    0.000    0.000    0.000    0.000    0.000 
#
# Total GULP energy -718854.921931 kJ/mol
# GULP energy per Si atom -12394.050378 kJ/mol
# Density = 1.991566 g / cm^3
# Si number density = 19.961092 Si / 1000 Ang^3
#
#
#
# Elastic Constant Matrix: (Units=GPa)
#
#
# Indices 1 2 3 4 5 6 
#
# 1 123.4156 47.2370 38.5397 0.0000 0.0000 0.0000
# 2 47.2370 124.8036 42.7676 0.0000 0.0000 0.0000
# 3 38.5397 42.7676 72.7153 0.0000 0.0000 0.0000
# 4 0.0000 0.0000 0.0000 29.5988 0.0000 0.0000
# 5 0.0000 0.0000 0.0000 0.0000 26.5095 0.0000
# 6 0.0000 0.0000 0.0000 0.0000 0.0000 40.0095
#
#
#
# Elastic Compliance Matrix: (Units=1/GPa)
#
#
# Indices 1 2 3 4 5 6 
#
# 1 0.010317 -0.002544 -0.003972 0.000000 0.000000 0.000000
# 2 -0.002544 0.010662 -0.004923 0.000000 0.000000 0.000000
# 3 -0.003972 -0.004923 0.018753 0.000000 0.000000 0.000000
# 4 0.000000 0.000000 0.000000 0.033785 0.000000 0.000000
# 5 0.000000 0.000000 0.000000 0.000000 0.037722 0.000000
# 6 0.000000 0.000000 0.000000 0.000000 0.000000 0.024994
#
#
# Mechanical properties :
#
#
# Convention : Reuss Voigt Hill
#
# Bulk Modulus (GPa) = 59.32988 64.22480 61.77734
# Shear Modulus (GPa) = 30.35302 32.04957 31.20129
#
# Velocity S-wave (km/s) = 3.90373 4.01134 3.95790
# Velocity P-wave (km/s) = 7.07857 7.32798 7.20435
#
# Compressibility (1/GPa) = 0.01685491
#
# Stress axis : x y z
#
# Youngs Moduli (GPa) = 96.93125 93.78821 53.32549
#
# Poissons Ratio (x) = 0.23857 0.21180
# Poissons Ratio (y) = 0.24656 0.26252
# Poissons Ratio (z) = 0.38499 0.46171
#
# Static dielectric constant tensor:
#      x y z
#    x 3.588780 0.000000 0.000000 
#    y 0.000000 3.858730 0.000000 
#    z 0.000000 0.000000 3.537270 
# 
# 
# High freq. dielectric constant tensor:
#      x y z
#    x 1.777480 0.000000 0.000000 
#    y 0.000000 1.786870 0.000000 
#    z 0.000000 0.000000 1.767170 
# 
# From -- ./inp_files/49745.got.cif
#   From: 2010.03.12/outbox.cif.g09.slc.cpg/sg72_25_cif.got.tgz:49745.got - 2010.04.16 14:54:00.
