data_PCOD8294670
_publ_section_title
;
Structure prediction by ZEFSAII (Michael W. Deem and Ramdas Pophale) SiO2 
 PCOD8294670
Probable space group: I B A M
;
_chemical_formula_sum "Si O2"
_cell_formula_units_Z 96
_cell_length_a 17.756245
_cell_length_b 16.546647
_cell_length_c 17.566366
_cell_angle_alpha 90.000000
_cell_angle_beta 90.000000
_cell_angle_gamma 90.000000
_cell_volume 5161.109316
_symmetry_space_group_name_H-M "I B A M"
_symmetry_group_IT_number 72
_symmetry_cell_setting 'orthorhombic'
loop_
_space_group_symop_operation_xyz
x,y,z
-x,-y,z
x,-y,1/2-z
-x,y,1/2-z
-x,-y,-z
x,y,-z
-x,y,1/2+z
x,-y,1/2+z
1/2+x,1/2+y,1/2+z
1/2-x,1/2-y,1/2+z
1/2+x,1/2-y,-z
1/2-x,1/2+y,-z
1/2-x,1/2-y,1/2-z
1/2+x,1/2+y,1/2-z
1/2-x,1/2+y,z
1/2+x,1/2-y,z
loop_
_atom_site_type_symbol
_atom_site_label
_atom_site_fract_x
_atom_site_fract_y
_atom_site_fract_z
Si Si1 0.263644 0.818078 0.085454
Si Si2 0.774809 0.409460 0.266263
Si Si3 0.348849 0.309754 0.677631
Si Si4 0.012030 0.090885 0.839516
Si Si5 0.589727 0.277497 0.585396
Si Si6 0.420418 0.171995 0.221966
O O1 0.278791 0.892381 0.143218
O O2 0.312952 0.740214 0.108542
O O3 0.177731 0.792987 0.088821
O O4 0.286523 0.845109 0.000000
O O5 0.747420 0.500000 0.250000
O O6 0.716715 0.347026 0.229317
O O7 0.857190 0.396897 0.229684
O O8 0.402958 0.378743 0.642566
O O9 0.398861 0.251476 0.730114
O O10 0.000000 0.096608 0.750000
O O11 0.951365 0.143598 0.883390
O O12 0.000000 0.000000 0.869203
O O13 0.562139 0.259850 0.500000
O O14 0.570036 0.198104 0.634237
O O15 0.500000 0.136352 0.250000
#
# Coordination Sequence:
#
# PCOD8294670 Si02
#       6
#    16  16  16  16  16  16
#     4  10  21  38  59  85 115 151 194 243 284 334
#     4  11  23  37  61  88 115 154 195 238 288 349
#     4  11  19  36  61  83 114 149 199 230 276 352
#     4  11  22  34  56  87 119 152 183 231 289 353
#     4  11  20  36  56  81 115 150 188 234 286 336
#     4  11  19  39  60  82 109 148 200 240 274 337
#
# _framework density 18.600652
#
# number of rings (size 3 to 8) (size 9 to 14) (size 15 to 20)
#    0.000    1.167    6.667    1.000    4.667    1.333 
#    0.000    1.667    0.000    0.000    0.000    3.500 
#    0.000    0.000    0.000    0.000    0.000    0.000 
#
# Total GULP energy -595303.576739 kJ/mol
# GULP energy per Si atom -12402.157849 kJ/mol
# Density = 1.855832 g / cm^3
# Si number density = 18.600652 Si / 1000 Ang^3
#
#
#
# Elastic Constant Matrix: (Units=GPa)
#
#
# Indices 1 2 3 4 5 6 
#
# 1 90.9363 17.9202 14.1009 0.0000 0.0000 0.0000
# 2 17.9202 62.7107 35.2357 0.0000 0.0000 0.0000
# 3 14.1009 35.2357 112.7353 0.0000 0.0000 0.0000
# 4 0.0000 0.0000 0.0000 15.9345 0.0000 0.0000
# 5 0.0000 0.0000 0.0000 0.0000 6.0794 0.0000
# 6 0.0000 0.0000 0.0000 0.0000 0.0000 27.5482
#
#
#
# Elastic Compliance Matrix: (Units=1/GPa)
#
#
# Indices 1 2 3 4 5 6 
#
# 1 0.011677 -0.003052 -0.000507 0.000000 0.000000 0.000000
# 2 -0.003052 0.020141 -0.005913 0.000000 0.000000 0.000000
# 3 -0.000507 -0.005913 0.010782 0.000000 0.000000 0.000000
# 4 0.000000 0.000000 0.000000 0.062757 0.000000 0.000000
# 5 0.000000 0.000000 0.000000 0.000000 0.164489 0.000000
# 6 0.000000 0.000000 0.000000 0.000000 0.000000 0.036300
#
#
# Mechanical properties :
#
#
# Convention : Reuss Voigt Hill
#
# Bulk Modulus (GPa) = 42.27338 44.54401 43.40870
# Shear Modulus (GPa) = 15.01614 23.18745 19.10180
#
# Velocity S-wave (km/s) = 2.84437 3.53454 3.20807
# Velocity P-wave (km/s) = 5.79339 6.37627 6.09181
#
# Compressibility (1/GPa) = 0.02365555
#
# Stress axis : x y z
#
# Youngs Moduli (GPa) = 85.64049 49.65000 92.74774
#
# Poissons Ratio (x) = 0.15154 0.04698
# Poissons Ratio (y) = 0.26138 0.54845
# Poissons Ratio (z) = 0.04338 0.29360
#
# Static dielectric constant tensor:
#      x y z
#    x 3.593280 0.000000 0.000000 
#    y 0.000000 3.254120 0.000000 
#    z 0.000000 0.000000 3.609230 
# 
# 
# High freq. dielectric constant tensor:
#      x y z
#    x 1.737320 0.000000 0.000000 
#    y 0.000000 1.695670 0.000000 
#    z 0.000000 0.000000 1.713780 
# 
# From -- ./inp_files/31590.got.cif
#   From: 2010.03.12/outbox.cif.g09.slc.cpg/sg72_16_cif.got.tgz:31590.got - 2010.04.16 14:54:00.
