data_PCOD8294469
_publ_section_title
;
Structure prediction by ZEFSAII (Michael W. Deem and Ramdas Pophale) SiO2 
 PCOD8294469
Probable space group: I B A M
;
_chemical_formula_sum "Si O2"
_cell_formula_units_Z 68
_cell_length_a 5.236639
_cell_length_b 22.336280
_cell_length_c 28.168397
_cell_angle_alpha 90.000000
_cell_angle_beta 90.000000
_cell_angle_gamma 90.000000
_cell_volume 3294.773877
_symmetry_space_group_name_H-M "I B A M"
_symmetry_group_IT_number 72
_symmetry_cell_setting 'orthorhombic'
loop_
_space_group_symop_operation_xyz
x,y,z
-x,-y,z
x,-y,1/2-z
-x,y,1/2-z
-x,-y,-z
x,y,-z
-x,y,1/2+z
x,-y,1/2+z
1/2+x,1/2+y,1/2+z
1/2-x,1/2-y,1/2+z
1/2+x,1/2-y,-z
1/2-x,1/2+y,-z
1/2-x,1/2-y,1/2-z
1/2+x,1/2+y,1/2-z
1/2-x,1/2+y,z
1/2+x,1/2-y,z
loop_
_atom_site_type_symbol
_atom_site_label
_atom_site_fract_x
_atom_site_fract_y
_atom_site_fract_z
Si Si1 0.680265 0.602224 0.793502
Si Si2 0.000000 0.500000 0.750000
Si Si3 0.501467 0.428912 0.892832
Si Si4 0.499075 0.928672 0.053563
Si Si5 0.950915 0.276962 0.303087
O O1 0.500000 0.621510 0.750000
O O2 0.500886 0.594854 0.839108
O O3 0.895670 0.652245 0.802699
O O4 0.823728 0.539854 0.784048
O O5 0.500000 0.500000 0.893324
O O6 0.755652 0.404011 0.918017
O O7 0.254686 0.404181 0.920870
O O8 0.500000 0.000000 0.052971
O O9 0.507420 0.903680 0.000000
O O10 0.719856 0.239873 0.328720
O O11 0.000000 0.251736 0.250000
#
# Coordination Sequence:
#
# PCOD8294469 Si02
#       5
#    16   4  16  16  16
#     4  12  25  38  54  81 120 156 197 228 273 343
#     4  12  26  36  52  78 118 172 186 218 266 340
#     4  10  21  33  52  76 110 149 183 224 276 336
#     4   9  18  33  52  74 103 142 188 230 274 329
#     4  10  21  39  60  78 101 146 200 247 283 310
#
# _framework density 20.638743999999999
#
# number of rings (size 3 to 8) (size 9 to 14) (size 15 to 20)
#    0.000    1.647    1.176    4.588    8.235    2.824 
#    0.000    0.000    0.000    0.000    0.000    0.000 
#    0.000   18.824    0.000    0.000    0.000    0.000 
#
# Total GULP energy -421582.694209 kJ/mol
# GULP energy per Si atom -12399.491006 kJ/mol
# Density = 2.059177 g / cm^3
# Si number density = 20.638744 Si / 1000 Ang^3
#
#
#
# Elastic Constant Matrix: (Units=GPa)
#
#
# Indices 1 2 3 4 5 6 
#
# 1 184.9149 36.7952 67.6067 0.0000 0.0000 0.0000
# 2 36.7952 81.7418 12.3544 0.0000 0.0000 0.0000
# 3 67.6067 12.3544 142.8187 0.0000 0.0000 0.0000
# 4 0.0000 0.0000 0.0000 2.4121 0.0000 0.0000
# 5 0.0000 0.0000 0.0000 0.0000 30.8849 0.0000
# 6 0.0000 0.0000 0.0000 0.0000 0.0000 19.9700
#
#
#
# Elastic Compliance Matrix: (Units=1/GPa)
#
#
# Indices 1 2 3 4 5 6 
#
# 1 0.007090 -0.002720 -0.003121 0.000000 0.000000 0.000000
# 2 -0.002720 0.013439 0.000125 0.000000 0.000000 0.000000
# 3 -0.003121 0.000125 0.008468 0.000000 0.000000 0.000000
# 4 0.000000 0.000000 0.000000 0.414576 0.000000 0.000000
# 5 0.000000 0.000000 0.000000 0.000000 0.032378 0.000000
# 6 0.000000 0.000000 0.000000 0.000000 0.000000 0.050075
#
#
# Mechanical properties :
#
#
# Convention : Reuss Voigt Hill
#
# Bulk Modulus (GPa) = 56.92842 71.44309 64.18575
# Shear Modulus (GPa) = 9.20278 30.16801 19.68540
#
# Velocity S-wave (km/s) = 2.11392 3.82739 3.09173
# Velocity P-wave (km/s) = 5.79667 7.36363 6.62663
#
# Compressibility (1/GPa) = 0.01756592
#
# Stress axis : x y z
#
# Youngs Moduli (GPa) = 141.04009 74.40993 118.08486
#
# Poissons Ratio (x) = 0.20238 0.36855
# Poissons Ratio (y) = 0.38361 -0.01476
# Poissons Ratio (z) = 0.44019 -0.00930
#
# Static dielectric constant tensor:
#      x y z
#    x 4.310510 0.000000 0.000000 
#    y 0.000000 3.257180 0.000000 
#    z 0.000000 0.000000 3.588850 
# 
# 
# High freq. dielectric constant tensor:
#      x y z
#    x 1.837350 0.000000 0.000000 
#    y 0.000000 1.759520 0.000000 
#    z 0.000000 0.000000 1.772940 
# 
# From -- ./inp_files/46569.got.cif
#   From: 2010.03.12/outbox.cif.g09.slc.cpg/sg72_24_cif.got.tgz:46569.got - 2010.04.16 14:54:00.
