data_PCOD8294977
_publ_section_title
;
Structure prediction by ZEFSAII (Michael W. Deem and Ramdas Pophale) SiO2 
 PCOD8294977
Probable space group: I B A M
;
_chemical_formula_sum "Si O2"
_cell_formula_units_Z 56
_cell_length_a 7.910014
_cell_length_b 12.460636
_cell_length_c 25.411624
_cell_angle_alpha 90.000000
_cell_angle_beta 90.000000
_cell_angle_gamma 90.000000
_cell_volume 2504.666358
_symmetry_space_group_name_H-M "I B A M"
_symmetry_group_IT_number 72
_symmetry_cell_setting 'orthorhombic'
loop_
_space_group_symop_operation_xyz
x,y,z
-x,-y,z
x,-y,1/2-z
-x,y,1/2-z
-x,-y,-z
x,y,-z
-x,y,1/2+z
x,-y,1/2+z
1/2+x,1/2+y,1/2+z
1/2-x,1/2-y,1/2+z
1/2+x,1/2-y,-z
1/2-x,1/2+y,-z
1/2-x,1/2-y,1/2-z
1/2+x,1/2+y,1/2-z
1/2-x,1/2+y,z
1/2+x,1/2-y,z
loop_
_atom_site_type_symbol
_atom_site_label
_atom_site_fract_x
_atom_site_fract_y
_atom_site_fract_z
Si Si1 0.916093 0.166330 0.695199
Si Si2 0.438449 0.122340 0.836319
Si Si3 0.000000 0.000000 0.610290
Si Si4 0.167141 0.430305 0.442724
O O1 0.721054 0.134320 0.702210
O O2 0.008896 0.104172 0.647767
O O3 0.000000 0.135399 0.750000
O O4 0.920878 0.293916 0.682495
O O5 0.373497 0.153062 0.895640
O O6 0.500000 0.000000 0.833797
O O7 0.831729 0.999700 0.574108
O O8 0.203490 0.375408 0.500000
O O9 0.000000 0.500000 0.449098
#
# Coordination Sequence:
#
# PCOD8294977 Si02
#       4
#    16  16   8  16
#     4  11  24  43  67  96 138 178 230 277 343 404
#     4  10  24  43  67  99 135 174 229 281 336 410
#     4  10  22  40  66  94 134 170 226 276 336 402
#     4   9  19  39  65  92 129 168 217 277 336 397
#
# _framework density 22.358269
#
# number of rings (size 3 to 8) (size 9 to 14) (size 15 to 20)
#    0.000    2.000    0.000    1.714   12.000    0.571 
#   10.286    7.143    0.000    0.000    0.000    0.000 
#    0.000    0.000    0.000    0.000    0.000    0.000 
#
# Total GULP energy -346945.382440 kJ/mol
# GULP energy per Si atom -12390.906516 kJ/mol
# Density = 2.230738 g / cm^3
# Si number density = 22.358269 Si / 1000 Ang^3
#
#
#
# Elastic Constant Matrix: (Units=GPa)
#
#
# Indices 1 2 3 4 5 6 
#
# 1 138.4803 44.5974 60.1946 0.0000 0.0000 0.0000
# 2 44.5974 108.2365 37.1540 0.0000 0.0000 0.0000
# 3 60.1946 37.1540 142.3544 0.0000 0.0000 0.0000
# 4 0.0000 0.0000 0.0000 20.4526 0.0000 0.0000
# 5 0.0000 0.0000 0.0000 0.0000 47.8051 0.0000
# 6 0.0000 0.0000 0.0000 0.0000 0.0000 25.9380
#
#
#
# Elastic Compliance Matrix: (Units=1/GPa)
#
#
# Indices 1 2 3 4 5 6 
#
# 1 0.009564 -0.002804 -0.003312 0.000000 0.000000 0.000000
# 2 -0.002804 0.010970 -0.001678 0.000000 0.000000 0.000000
# 3 -0.003312 -0.001678 0.008863 0.000000 0.000000 0.000000
# 4 0.000000 0.000000 0.000000 0.048894 0.000000 0.000000
# 5 0.000000 0.000000 0.000000 0.000000 0.020918 0.000000
# 6 0.000000 0.000000 0.000000 0.000000 0.000000 0.038553
#
#
# Mechanical properties :
#
#
# Convention : Reuss Voigt Hill
#
# Bulk Modulus (GPa) = 72.41158 74.77368 73.59263
# Shear Modulus (GPa) = 31.65493 35.31416 33.48454
#
# Velocity S-wave (km/s) = 3.76680 3.97856 3.87413
# Velocity P-wave (km/s) = 7.16768 7.39062 7.28000
#
# Compressibility (1/GPa) = 0.01380995
#
# Stress axis : x y z
#
# Youngs Moduli (GPa) = 104.55887 91.15673 112.82586
#
# Poissons Ratio (x) = 0.25557 0.37372
# Poissons Ratio (y) = 0.29315 0.18928
# Poissons Ratio (z) = 0.34634 0.15293
#
# Static dielectric constant tensor:
#      x y z
#    x 4.126220 0.000000 0.000000 
#    y 0.000000 3.721290 0.000000 
#    z 0.000000 0.000000 4.821080 
# 
# 
# High freq. dielectric constant tensor:
#      x y z
#    x 1.897410 0.000000 0.000000 
#    y 0.000000 1.839150 0.000000 
#    z 0.000000 0.000000 1.900540 
# 
# From -- ./inp_files/46859.got.cif
#   From: 2010.03.12/outbox.cif.g09.slc.cpg/sg72_24_cif.got.tgz:46859.got - 2010.04.16 14:54:00.
