data_PCOD8294874
_publ_section_title
;
Structure prediction by ZEFSAII (Michael W. Deem and Ramdas Pophale) SiO2 
 PCOD8294874
Probable space group: I B A M
;
_chemical_formula_sum "Si O2"
_cell_formula_units_Z 88
_cell_length_a 22.810114
_cell_length_b 13.052143
_cell_length_c 14.740311
_cell_angle_alpha 90.000000
_cell_angle_beta 90.000000
_cell_angle_gamma 90.000000
_cell_volume 4388.498212
_symmetry_space_group_name_H-M "I B A M"
_symmetry_group_IT_number 72
_symmetry_cell_setting 'orthorhombic'
loop_
_space_group_symop_operation_xyz
x,y,z
-x,-y,z
x,-y,1/2-z
-x,y,1/2-z
-x,-y,-z
x,y,-z
-x,y,1/2+z
x,-y,1/2+z
1/2+x,1/2+y,1/2+z
1/2-x,1/2-y,1/2+z
1/2+x,1/2-y,-z
1/2-x,1/2+y,-z
1/2-x,1/2-y,1/2-z
1/2+x,1/2+y,1/2-z
1/2-x,1/2+y,z
1/2+x,1/2-y,z
loop_
_atom_site_type_symbol
_atom_site_label
_atom_site_fract_x
_atom_site_fract_y
_atom_site_fract_z
Si Si1 0.042031 0.096571 0.000000
Si Si2 0.347879 0.961017 0.345999
Si Si3 0.647855 0.719371 0.163703
Si Si4 0.567334 0.723269 0.000000
Si Si5 0.778433 0.040234 0.105679
Si Si6 0.933929 0.536951 0.500000
Si Si7 0.882505 0.083701 0.681172
O O1 0.080355 0.099556 0.090720
O O2 0.000000 0.000000 0.000000
O O3 0.000761 0.195042 0.000000
O O4 0.338032 0.838776 0.346279
O O5 0.399164 0.000644 0.411668
O O6 0.369708 0.000000 0.250000
O O7 0.288611 0.017085 0.373793
O O8 0.599819 0.681250 0.089843
O O9 0.706681 0.653968 0.143366
O O10 0.623651 0.691358 0.264274
O O11 0.568679 0.843014 0.000000
O O12 0.817913 0.955652 0.155279
O O13 0.791308 0.034993 0.000000
O O14 0.000000 0.500000 0.500000
O O15 0.911553 0.000000 0.750000
#
# Coordination Sequence:
#
# PCOD8294874 Si02
#       7
#     8  16  16   8  16   8  16
#     4  12  22  35  57  90 125 160 212 259 301 364
#     4  11  24  42  67  93 120 161 206 246 307 371
#     4  10  22  42  61  87 126 164 199 252 310 371
#     4  10  22  39  63  83 118 168 209 248 308 359
#     4  11  20  38  65  92 123 160 198 245 311 373
#     4  10  24  46  64  87 119 158 208 261 299 345
#     4  10  22  36  58  90 128 163 200 252 311 367
#
# _framework density 20.052417999999999
#
# number of rings (size 3 to 8) (size 9 to 14) (size 15 to 20)
#    0.000    1.455    2.727    3.818    0.000    7.273 
#    0.000    3.636    0.000    0.000    0.000    0.000 
#    0.000    0.000    0.000    0.000    0.000    0.000 
#
# Total GULP energy -545553.885168 kJ/mol
# GULP energy per Si atom -12398.951936 kJ/mol
# Density = 2.000678 g / cm^3
# Si number density = 20.052418 Si / 1000 Ang^3
#
#
#
# Elastic Constant Matrix: (Units=GPa)
#
#
# Indices 1 2 3 4 5 6 
#
# 1 147.6744 45.5609 73.5838 0.0000 0.0000 0.0000
# 2 45.5609 64.4189 46.7660 0.0000 0.0000 0.0000
# 3 73.5838 46.7660 181.7009 0.0000 0.0000 0.0000
# 4 0.0000 0.0000 0.0000 30.2668 0.0000 0.0000
# 5 0.0000 0.0000 0.0000 0.0000 8.8063 0.0000
# 6 0.0000 0.0000 0.0000 0.0000 0.0000 30.9268
#
#
#
# Elastic Compliance Matrix: (Units=1/GPa)
#
#
# Indices 1 2 3 4 5 6 
#
# 1 0.009584 -0.004871 -0.002627 0.000000 0.000000 0.000000
# 2 -0.004871 0.021566 -0.003578 0.000000 0.000000 0.000000
# 3 -0.002627 -0.003578 0.007489 0.000000 0.000000 0.000000
# 4 0.000000 0.000000 0.000000 0.033039 0.000000 0.000000
# 5 0.000000 0.000000 0.000000 0.000000 0.113555 0.000000
# 6 0.000000 0.000000 0.000000 0.000000 0.000000 0.032334
#
#
# Mechanical properties :
#
#
# Convention : Reuss Voigt Hill
#
# Bulk Modulus (GPa) = 60.65950 80.62395 70.64172
# Shear Modulus (GPa) = 20.39032 29.19222 24.79127
#
# Velocity S-wave (km/s) = 3.19227 3.81963 3.51995
# Velocity P-wave (km/s) = 6.62598 7.72959 7.19897
#
# Compressibility (1/GPa) = 0.01648546
#
# Stress axis : x y z
#
# Youngs Moduli (GPa) = 104.34503 46.36976 133.53738
#
# Poissons Ratio (x) = 0.22585 0.35087
# Poissons Ratio (y) = 0.50823 0.47781
# Poissons Ratio (z) = 0.27417 0.16592
#
# Static dielectric constant tensor:
#      x y z
#    x 2.191540 0.000000 0.000000 
#    y 0.000000 3.649330 0.000000 
#    z 0.000000 0.000000 4.355320 
# 
# 
# High freq. dielectric constant tensor:
#      x y z
#    x 1.772870 0.000000 0.000000 
#    y 0.000000 1.772990 0.000000 
#    z 0.000000 0.000000 1.809480 
# 
# From -- ./inp_files/21750.got.cif
#   From: 2010.03.12/outbox.cif.g09.slc.cpg/sg72_11_cif.got.tgz:21750.got - 2010.04.16 14:54:00.
