data_PCOD8294326
_publ_section_title
;
Structure prediction by ZEFSAII (Michael W. Deem and Ramdas Pophale) SiO2 
 PCOD8294326
Probable space group: I B A M
;
_chemical_formula_sum "Si O2"
_cell_formula_units_Z 80
_cell_length_a 11.517697
_cell_length_b 24.160771
_cell_length_c 13.345004
_cell_angle_alpha 90.000000
_cell_angle_beta 90.000000
_cell_angle_gamma 90.000000
_cell_volume 3713.600200
_symmetry_space_group_name_H-M "I B A M"
_symmetry_group_IT_number 72
_symmetry_cell_setting 'orthorhombic'
loop_
_space_group_symop_operation_xyz
x,y,z
-x,-y,z
x,-y,1/2-z
-x,y,1/2-z
-x,-y,-z
x,y,-z
-x,y,1/2+z
x,-y,1/2+z
1/2+x,1/2+y,1/2+z
1/2-x,1/2-y,1/2+z
1/2+x,1/2-y,-z
1/2-x,1/2+y,-z
1/2-x,1/2-y,1/2-z
1/2+x,1/2+y,1/2-z
1/2-x,1/2+y,z
1/2+x,1/2-y,z
loop_
_atom_site_type_symbol
_atom_site_label
_atom_site_fract_x
_atom_site_fract_y
_atom_site_fract_z
Si Si1 0.489115 0.605036 0.887687
Si Si2 0.182913 0.794688 0.616257
Si Si3 0.268162 0.415799 0.189000
Si Si4 0.279838 0.466542 0.608660
Si Si5 0.627887 0.185039 0.780245
O O1 0.404011 0.655423 0.859399
O O2 0.596239 0.603109 0.809496
O O3 0.417228 0.547419 0.884805
O O4 0.539811 0.614242 0.000000
O O5 0.217799 0.793028 0.500000
O O6 0.299775 0.802382 0.679809
O O7 0.120346 0.737915 0.647584
O O8 0.221400 0.433888 0.299439
O O9 0.258578 0.467768 0.114636
O O10 0.187405 0.364874 0.156178
O O11 0.230989 0.446381 0.500000
O O12 0.500000 0.166316 0.750000
#
# Coordination Sequence:
#
# PCOD8294326 Si02
#       5
#    16  16  16  16  16
#     4  10  20  37  65  97 127 162 207 265 328 381
#     4  10  24  44  67  93 128 169 212 264 323 386
#     4  11  22  38  64  92 130 165 207 266 325 382
#     4  10  21  37  60  95 128 163 207 259 322 381
#     4  11  26  43  65  93 129 173 218 265 316 384
#
# _framework density 21.542438000000001
#
# number of rings (size 3 to 8) (size 9 to 14) (size 15 to 20)
#    0.000    1.600    2.000    1.800    5.600    5.600 
#    0.000    2.000    0.000    1.200    0.000    0.000 
#    0.000    0.000    0.000    0.000    0.000    0.000 
#
# Total GULP energy -495875.945877 kJ/mol
# GULP energy per Si atom -12396.898647 kJ/mol
# Density = 2.149341 g / cm^3
# Si number density = 21.542438 Si / 1000 Ang^3
#
#
#
# Elastic Constant Matrix: (Units=GPa)
#
#
# Indices 1 2 3 4 5 6 
#
# 1 60.8282 29.1908 -3.2108 -0.0001 0.0000 0.0000
# 2 29.1908 127.1202 26.7986 0.0001 0.0000 0.0000
# 3 -3.2108 26.7986 110.8568 0.0001 0.0000 -0.0001
# 4 -0.0001 0.0001 0.0001 29.4263 0.0000 0.0000
# 5 0.0000 0.0000 0.0000 0.0000 10.3654 0.0001
# 6 0.0000 0.0000 -0.0001 0.0000 0.0001 19.5804
#
#
#
# Elastic Compliance Matrix: (Units=1/GPa)
#
#
# Indices 1 2 3 4 5 6 
#
# 1 0.018765 -0.004661 0.001670 0.000000 0.000000 0.000000
# 2 -0.004661 0.009447 -0.002419 0.000000 0.000000 0.000000
# 3 0.001670 -0.002419 0.009654 0.000000 0.000000 0.000000
# 4 0.000000 0.000000 0.000000 0.033983 0.000000 0.000000
# 5 0.000000 0.000000 0.000000 0.000000 0.096475 0.000000
# 6 0.000000 0.000000 0.000000 0.000000 0.000000 0.051071
#
#
# Mechanical properties :
#
#
# Convention : Reuss Voigt Hill
#
# Bulk Modulus (GPa) = 36.97373 44.92915 40.95144
# Shear Modulus (GPa) = 20.90049 28.27621 24.58835
#
# Velocity S-wave (km/s) = 3.11818 3.62689 3.38211
# Velocity P-wave (km/s) = 5.49223 6.20004 5.85684
#
# Compressibility (1/GPa) = 0.02704623
#
# Stress axis : x y z
#
# Youngs Moduli (GPa) = 53.29153 105.85602 103.58709
#
# Poissons Ratio (x) = 0.49340 -0.17302
# Poissons Ratio (y) = 0.24840 0.25054
# Poissons Ratio (z) = -0.08901 0.25603
#
# Static dielectric constant tensor:
#      x y z
#    x 3.374230 0.000000 0.000000 
#    y 0.000000 4.153200 0.000000 
#    z 0.000000 0.000000 4.062750 
# 
# 
# High freq. dielectric constant tensor:
#      x y z
#    x 1.793260 0.000000 0.000000 
#    y 0.000000 1.861210 0.000000 
#    z 0.000000 0.000000 1.859680 
# 
# From -- ./inp_files/20222.got.cif
#   From: 2010.03.12/outbox.cif.g09.slc.cpg/sg72_11_cif.got.tgz:20222.got - 2010.04.16 14:54:00.
