data_PCOD8294616
_publ_section_title
;
Structure prediction by ZEFSAII (Michael W. Deem and Ramdas Pophale) SiO2 
 PCOD8294616
Probable space group: I B A M
;
_chemical_formula_sum "Si O2"
_cell_formula_units_Z 96
_cell_length_a 9.021401
_cell_length_b 21.058585
_cell_length_c 25.632661
_cell_angle_alpha 90.000000
_cell_angle_beta 90.000000
_cell_angle_gamma 90.000000
_cell_volume 4869.640128
_symmetry_space_group_name_H-M "I B A M"
_symmetry_group_IT_number 72
_symmetry_cell_setting 'orthorhombic'
loop_
_space_group_symop_operation_xyz
x,y,z
-x,-y,z
x,-y,1/2-z
-x,y,1/2-z
-x,-y,-z
x,y,-z
-x,y,1/2+z
x,-y,1/2+z
1/2+x,1/2+y,1/2+z
1/2-x,1/2-y,1/2+z
1/2+x,1/2-y,-z
1/2-x,1/2+y,-z
1/2-x,1/2-y,1/2-z
1/2+x,1/2+y,1/2-z
1/2-x,1/2+y,z
1/2+x,1/2-y,z
loop_
_atom_site_type_symbol
_atom_site_label
_atom_site_fract_x
_atom_site_fract_y
_atom_site_fract_z
Si Si1 0.900170 0.058728 0.059990
Si Si2 0.932647 0.189052 0.440374
Si Si3 0.670007 0.574268 0.753887
Si Si4 0.316849 0.246424 0.119657
Si Si5 0.587530 0.147549 0.303301
Si Si6 0.806593 0.383000 0.359644
O O1 0.749082 0.070662 0.093363
O O2 0.006040 0.118733 0.066240
O O3 0.851481 0.047721 0.000000
O O4 0.000000 0.000000 0.080655
O O5 0.908448 0.208024 0.500000
O O6 0.777108 0.193109 0.410697
O O7 0.041516 0.240439 0.415615
O O8 0.697428 0.500000 0.750000
O O9 0.500000 0.593839 0.750000
O O10 0.766544 0.605838 0.707774
O O11 0.711793 0.598889 0.810101
O O12 0.364824 0.216280 0.174880
O O13 0.221345 0.309562 0.127560
O O14 0.500000 0.160231 0.250000
O O15 0.481783 0.110507 0.345434
#
# Coordination Sequence:
#
# PCOD8294616 Si02
#       6
#    16  16  16  16  16  16
#     4   9  20  38  63  92 123 161 210 258 307 368
#     4  10  21  37  60  88 120 157 202 255 304 363
#     4  10  24  40  62  89 116 160 211 250 302 365
#     4  11  21  38  59  89 120 160 203 245 313 368
#     4  10  23  40  57  86 125 160 198 255 307 359
#     4  10  22  38  59  88 122 160 202 251 312 359
#
# _framework density 19.713982999999999
#
# number of rings (size 3 to 8) (size 9 to 14) (size 15 to 20)
#    0.000    2.000    1.667    0.500    7.000    7.000 
#    0.000    0.000    0.000    0.000    0.000    5.833 
#    0.000    0.000    0.000    0.000    0.000    0.000 
#
# Total GULP energy -595124.005666 kJ/mol
# GULP energy per Si atom -12398.416785 kJ/mol
# Density = 1.966911 g / cm^3
# Si number density = 19.713983 Si / 1000 Ang^3
#
#
#
# Elastic Constant Matrix: (Units=GPa)
#
#
# Indices 1 2 3 4 5 6 
#
# 1 117.3401 51.2182 50.4583 0.0000 0.0000 0.0000
# 2 51.2182 68.2822 46.0502 0.0000 0.0000 0.0000
# 3 50.4583 46.0502 99.1788 0.0000 0.0000 0.0000
# 4 0.0000 0.0000 0.0000 16.4240 0.0000 0.0000
# 5 0.0000 0.0000 0.0000 0.0000 52.7797 0.0000
# 6 0.0000 0.0000 0.0000 0.0000 0.0000 21.5718
#
#
#
# Elastic Compliance Matrix: (Units=1/GPa)
#
#
# Indices 1 2 3 4 5 6 
#
# 1 0.013297 -0.007879 -0.003107 0.000000 0.000000 0.000000
# 2 -0.007879 0.025990 -0.008059 0.000000 0.000000 0.000000
# 3 -0.003107 -0.008059 0.015405 0.000000 0.000000 0.000000
# 4 0.000000 0.000000 0.000000 0.060887 0.000000 0.000000
# 5 0.000000 0.000000 0.000000 0.000000 0.018947 0.000000
# 6 0.000000 0.000000 0.000000 0.000000 0.000000 0.046357
#
#
# Mechanical properties :
#
#
# Convention : Reuss Voigt Hill
#
# Bulk Modulus (GPa) = 60.22980 64.47274 62.35127
# Shear Modulus (GPa) = 22.27098 27.29340 24.78219
#
# Velocity S-wave (km/s) = 3.36475 3.72488 3.54939
# Velocity P-wave (km/s) = 6.76118 7.16064 6.96377
#
# Compressibility (1/GPa) = 0.01660308
#
# Stress axis : x y z
#
# Youngs Moduli (GPa) = 75.20280 38.47594 64.91223
#
# Poissons Ratio (x) = 0.30315 0.20167
# Poissons Ratio (y) = 0.59252 0.52314
# Poissons Ratio (z) = 0.23364 0.31008
#
# Static dielectric constant tensor:
#      x y z
#    x 3.750910 0.000000 0.000000 
#    y 0.000000 3.500920 0.000000 
#    z 0.000000 0.000000 3.724390 
# 
# 
# High freq. dielectric constant tensor:
#      x y z
#    x 1.771610 0.000000 0.000000 
#    y 0.000000 1.761970 0.000000 
#    z 0.000000 0.000000 1.773790 
# 
# From -- ./inp_files/47312.got.cif
#   From: 2010.03.12/outbox.cif.g09.slc.cpg/sg72_24_cif.got.tgz:47312.got - 2010.04.16 14:54:00.
