data_PCOD8294074
_publ_section_title
;
Structure prediction by ZEFSAII (Michael W. Deem and Ramdas Pophale) SiO2 
 PCOD8294074
Probable space group: I B A M
;
_chemical_formula_sum "Si O2"
_cell_formula_units_Z 112
_cell_length_a 28.394092
_cell_length_b 13.330129
_cell_length_c 15.492197
_cell_angle_alpha 90.000000
_cell_angle_beta 90.000000
_cell_angle_gamma 90.000000
_cell_volume 5863.748681
_symmetry_space_group_name_H-M "I B A M"
_symmetry_group_IT_number 72
_symmetry_cell_setting 'orthorhombic'
loop_
_space_group_symop_operation_xyz
x,y,z
-x,-y,z
x,-y,1/2-z
-x,y,1/2-z
-x,-y,-z
x,y,-z
-x,y,1/2+z
x,-y,1/2+z
1/2+x,1/2+y,1/2+z
1/2-x,1/2-y,1/2+z
1/2+x,1/2-y,-z
1/2-x,1/2+y,-z
1/2-x,1/2-y,1/2-z
1/2+x,1/2+y,1/2-z
1/2-x,1/2+y,z
1/2+x,1/2-y,z
loop_
_atom_site_type_symbol
_atom_site_label
_atom_site_fract_x
_atom_site_fract_y
_atom_site_fract_z
Si Si1 0.272498 0.894618 0.799040
Si Si2 0.618928 0.133847 0.597095
Si Si3 0.134935 0.581996 0.601843
Si Si4 0.595945 0.384091 0.255358
Si Si5 0.932936 0.760052 0.099402
Si Si6 0.041428 0.219102 0.600060
Si Si7 0.186357 0.226624 0.319963
O O1 0.312251 0.891325 0.871697
O O2 0.223406 0.860930 0.845811
O O3 0.285749 0.811007 0.730850
O O4 0.265758 0.000000 0.750000
O O5 0.611207 0.102532 0.500000
O O6 0.571878 0.185996 0.631720
O O7 0.662919 0.211323 0.601554
O O8 0.625224 0.027300 0.646062
O O9 0.133446 0.578439 0.500000
O O10 0.096009 0.662729 0.633391
O O11 0.608066 0.500000 0.250000
O O12 0.577165 0.353561 0.161115
O O13 0.557063 0.367875 0.332311
O O14 0.644115 0.323669 0.267359
O O15 0.988493 0.742090 0.108139
O O16 0.919469 0.786297 0.000000
O O17 0.052645 0.186631 0.500000
#
# Coordination Sequence:
#
# PCOD8294074 Si02
#       7
#    16  16  16  16  16  16  16
#     4  11  20  35  57  81 107 142 185 226 278 332
#     4   9  18  35  57  82 111 148 182 221 276 335
#     4  10  20  35  57  82 113 146 182 227 280 334
#     4  11  22  38  58  81 110 148 193 236 281 338
#     4  10  21  37  56  83 116 147 185 236 283 334
#     4   9  20  37  57  83 115 148 186 230 282 335
#     4  10  21  35  56  79 109 143 180 231 274 332
#
# _framework density 19.100408999999999
#
# number of rings (size 3 to 8) (size 9 to 14) (size 15 to 20)
#    0.000    2.000    2.857    0.857    0.000    2.857 
#    0.000    4.286    0.000    4.286    0.000    0.000 
#    0.000    0.000    0.000    0.000    0.000    0.000 
#
# Total GULP energy -693753.995617 kJ/mol
# GULP energy per Si atom -12388.464207 kJ/mol
# Density = 1.905694 g / cm^3
# Si number density = 19.100409 Si / 1000 Ang^3
#
#
#
# Elastic Constant Matrix: (Units=GPa)
#
#
# Indices 1 2 3 4 5 6 
#
# 1 112.1038 42.1043 20.1502 0.0000 0.0000 0.0000
# 2 42.1043 108.1811 29.4440 0.0000 0.0000 0.0000
# 3 20.1502 29.4440 50.0142 0.0000 0.0000 0.0000
# 4 0.0000 0.0000 0.0000 22.9464 0.0000 0.0000
# 5 0.0000 0.0000 0.0000 0.0000 26.0832 0.0000
# 6 0.0000 0.0000 0.0000 0.0000 0.0000 21.3564
#
#
#
# Elastic Compliance Matrix: (Units=1/GPa)
#
#
# Indices 1 2 3 4 5 6 
#
# 1 0.010648 -0.003544 -0.002203 0.000000 0.000000 0.000000
# 2 -0.003544 0.012187 -0.005747 0.000000 0.000000 0.000000
# 3 -0.002203 -0.005747 0.024265 0.000000 0.000000 0.000000
# 4 0.000000 0.000000 0.000000 0.043580 0.000000 0.000000
# 5 0.000000 0.000000 0.000000 0.000000 0.038339 0.000000
# 6 0.000000 0.000000 0.000000 0.000000 0.000000 0.046824
#
#
# Mechanical properties :
#
#
# Convention : Reuss Voigt Hill
#
# Bulk Modulus (GPa) = 41.47437 50.41068 45.94252
# Shear Modulus (GPa) = 24.16987 25.98391 25.07689
#
# Velocity S-wave (km/s) = 3.56112 3.69234 3.62732
# Velocity P-wave (km/s) = 6.21850 6.68039 6.45358
#
# Compressibility (1/GPa) = 0.02411128
#
# Stress axis : x y z
#
# Youngs Moduli (GPa) = 93.91856 82.05201 41.21129
#
# Poissons Ratio (x) = 0.29082 0.09079
# Poissons Ratio (y) = 0.33288 0.23684
# Poissons Ratio (z) = 0.20692 0.47154
#
# Static dielectric constant tensor:
#      x y z
#    x 3.765540 0.000000 0.000000 
#    y 0.000000 3.995510 0.000000 
#    z 0.000000 0.000000 3.428270 
# 
# 
# High freq. dielectric constant tensor:
#      x y z
#    x 1.751720 0.000000 0.000000 
#    y 0.000000 1.744260 0.000000 
#    z 0.000000 0.000000 1.729000 
# 
# From -- ./inp_files/25971.got.cif
#   From: 2010.03.12/outbox.cif.g09.slc.cpg/sg72_13_cif.got.tgz:25971.got - 2010.04.16 14:54:00.
