data_PCOD8294050
_publ_section_title
;
Structure prediction by ZEFSAII (Michael W. Deem and Ramdas Pophale) SiO2 
 PCOD8294050
Probable space group: I B A M
;
_chemical_formula_sum "Si O2"
_cell_formula_units_Z 112
_cell_length_a 14.339082
_cell_length_b 23.768369
_cell_length_c 14.662905
_cell_angle_alpha 90.000000
_cell_angle_beta 90.000000
_cell_angle_gamma 90.000000
_cell_volume 4997.361312
_symmetry_space_group_name_H-M "I B A M"
_symmetry_group_IT_number 72
_symmetry_cell_setting 'orthorhombic'
loop_
_space_group_symop_operation_xyz
x,y,z
-x,-y,z
x,-y,1/2-z
-x,y,1/2-z
-x,-y,-z
x,y,-z
-x,y,1/2+z
x,-y,1/2+z
1/2+x,1/2+y,1/2+z
1/2-x,1/2-y,1/2+z
1/2+x,1/2-y,-z
1/2-x,1/2+y,-z
1/2-x,1/2-y,1/2-z
1/2+x,1/2+y,1/2-z
1/2-x,1/2+y,z
1/2+x,1/2-y,z
loop_
_atom_site_type_symbol
_atom_site_label
_atom_site_fract_x
_atom_site_fract_y
_atom_site_fract_z
Si Si1 0.223825 0.123970 0.397700
Si Si2 0.583706 0.542907 0.608820
Si Si3 0.731100 0.943084 0.776832
Si Si4 0.823894 0.658152 0.397517
Si Si5 0.479352 0.651095 0.399899
Si Si6 0.206160 0.259315 0.102681
Si Si7 0.495310 0.770854 0.650301
O O1 0.268729 0.115333 0.500000
O O2 0.256496 0.079837 0.324666
O O3 0.114073 0.115039 0.407145
O O4 0.247444 0.185276 0.355212
O O5 0.500000 0.500000 0.636434
O O6 0.604462 0.537464 0.500000
O O7 0.676106 0.534841 0.669566
O O8 0.556269 0.607254 0.635862
O O9 0.673336 0.898605 0.837490
O O10 0.674120 0.000000 0.750000
O O11 0.795714 0.640089 0.500000
O O12 0.747434 0.701708 0.352636
O O13 0.924134 0.689309 0.403867
O O14 0.509328 0.673476 0.500000
O O15 0.461245 0.706203 0.338812
O O16 0.095758 0.266759 0.104239
O O17 0.243240 0.255544 0.000000
O O18 0.500000 0.797966 0.750000
#
# Coordination Sequence:
#
# PCOD8294050 Si02
#       7
#    16  16  16  16  16  16  16
#     4  10  22  39  60  85 125 169 211 267 325 388
#     4  10  22  40  61  89 130 175 221 271 327 396
#     4  12  26  40  62  92 125 171 227 276 324 395
#     4  11  24  44  68  97 138 177 218 274 338 405
#     4  10  20  35  55  85 125 170 212 255 317 390
#     4  10  21  40  64  92 127 170 216 267 332 404
#     4  12  24  35  62  98 131 170 211 270 334 399
#
# _framework density 22.411828
#
# number of rings (size 3 to 8) (size 9 to 14) (size 15 to 20)
#    0.000    1.286    1.429    4.286    4.000    7.143 
#    0.000    0.000    0.000    4.286    0.000    6.000 
#    0.000    0.000    0.000    0.000    0.000    0.000 
#
# Total GULP energy -693771.223283 kJ/mol
# GULP energy per Si atom -12388.771844 kJ/mol
# Density = 2.236082 g / cm^3
# Si number density = 22.411828 Si / 1000 Ang^3
#
#
#
# Elastic Constant Matrix: (Units=GPa)
#
#
# Indices 1 2 3 4 5 6 
#
# 1 78.6357 30.8634 7.9778 0.0002 0.0000 0.0000
# 2 30.8634 150.0738 47.0750 -0.0004 0.0000 0.0002
# 3 7.9778 47.0750 96.0522 0.0004 -0.0001 0.0001
# 4 0.0002 -0.0004 0.0004 36.1079 -0.0001 0.0001
# 5 0.0000 0.0000 -0.0001 -0.0001 23.9195 0.0000
# 6 0.0000 0.0002 0.0001 0.0001 0.0000 31.5383
#
#
#
# Elastic Compliance Matrix: (Units=1/GPa)
#
#
# Indices 1 2 3 4 5 6 
#
# 1 0.013840 -0.002937 0.000290 0.000000 0.000000 0.000000
# 2 -0.002937 0.008497 -0.003921 0.000000 0.000000 0.000000
# 3 0.000290 -0.003921 0.012308 0.000000 0.000000 0.000000
# 4 0.000000 0.000000 0.000000 0.027695 0.000000 0.000000
# 5 0.000000 0.000000 0.000000 0.000000 0.041807 0.000000
# 6 0.000000 0.000000 0.000000 0.000000 0.000000 0.031707
#
#
# Mechanical properties :
#
#
# Convention : Reuss Voigt Hill
#
# Bulk Modulus (GPa) = 46.48933 55.17712 50.83323
# Shear Modulus (GPa) = 32.01829 34.23617 33.12723
#
# Velocity S-wave (km/s) = 3.78383 3.91268 3.84880
# Velocity P-wave (km/s) = 6.31491 6.71455 6.51779
#
# Compressibility (1/GPa) = 0.02151031
#
# Stress axis : x y z
#
# Youngs Moduli (GPa) = 72.25278 117.68522 81.24565
#
# Poissons Ratio (x) = 0.34568 -0.02356
# Poissons Ratio (y) = 0.21223 0.31852
# Poissons Ratio (z) = -0.02096 0.46139
#
# Static dielectric constant tensor:
#      x y z
#    x 3.726150 0.000000 0.000000 
#    y 0.000000 4.162370 0.000000 
#    z 0.000000 0.000000 4.066740 
# 
# 
# High freq. dielectric constant tensor:
#      x y z
#    x 1.845470 0.000000 0.000000 
#    y 0.000000 1.884760 0.000000 
#    z 0.000000 0.000000 1.890420 
# 
# From -- ./inp_files/22154.got.cif
#   From: 2010.03.12/outbox.cif.g09.slc.cpg/sg72_12_cif.got.tgz:22154.got - 2010.04.16 14:54:00.
