data_PCOD8294869
_publ_section_title
;
Structure prediction by ZEFSAII (Michael W. Deem and Ramdas Pophale) SiO2 
 PCOD8294869
Probable space group: I B A M
;
_chemical_formula_sum "Si O2"
_cell_formula_units_Z 112
_cell_length_a 22.929261
_cell_length_b 14.680824
_cell_length_c 15.440903
_cell_angle_alpha 90.000000
_cell_angle_beta 90.000000
_cell_angle_gamma 90.000000
_cell_volume 5197.723642
_symmetry_space_group_name_H-M "I B A M"
_symmetry_group_IT_number 72
_symmetry_cell_setting 'orthorhombic'
loop_
_space_group_symop_operation_xyz
x,y,z
-x,-y,z
x,-y,1/2-z
-x,y,1/2-z
-x,-y,-z
x,y,-z
-x,y,1/2+z
x,-y,1/2+z
1/2+x,1/2+y,1/2+z
1/2-x,1/2-y,1/2+z
1/2+x,1/2-y,-z
1/2-x,1/2+y,-z
1/2-x,1/2-y,1/2-z
1/2+x,1/2+y,1/2-z
1/2-x,1/2+y,z
1/2+x,1/2-y,z
loop_
_atom_site_type_symbol
_atom_site_label
_atom_site_fract_x
_atom_site_fract_y
_atom_site_fract_z
Si Si1 0.461358 0.734881 0.820548
Si Si2 0.523437 0.091141 0.096119
Si Si3 0.337995 0.776783 0.757516
Si Si4 0.820345 0.924429 0.185519
Si Si5 0.794043 0.608083 0.401010
Si Si6 0.058114 0.946292 0.401242
Si Si7 0.661450 0.088501 0.096440
O O1 0.500000 0.681271 0.750000
O O2 0.500017 0.818743 0.856373
O O3 0.406928 0.777696 0.769988
O O4 0.448865 0.663299 0.896885
O O5 0.592499 0.099365 0.093543
O O6 0.500000 0.000000 0.144061
O O7 0.496277 0.091398 0.000000
O O8 0.319495 0.671814 0.764674
O O9 0.317608 0.814289 0.664258
O O10 0.310817 0.840086 0.834710
O O11 0.775402 0.910614 0.106559
O O12 0.883270 0.964211 0.154298
O O13 0.794588 0.000000 0.250000
O O14 0.807501 0.637717 0.500000
O O15 0.826275 0.514765 0.375744
O O16 0.069215 0.975527 0.500000
O O17 0.000000 0.000000 0.366769
O O18 0.687155 0.109123 0.000000
#
# Coordination Sequence:
#
# PCOD8294869 Si02
#       7
#    16  16  16  16  16  16  16
#     4  10  22  35  58  89 120 161 207 253 311 372
#     4   9  18  33  53  81 118 157 197 245 301 367
#     4  10  22  40  62  90 123 167 209 255 315 380
#     4  11  24  41  66  93 124 162 213 271 322 383
#     4  11  23  41  64  93 129 166 206 260 322 385
#     4  10  23  42  65  89 120 164 212 265 322 384
#     4   9  19  36  61  88 119 160 201 250 312 378
#
# _framework density 21.547893999999999
#
# number of rings (size 3 to 8) (size 9 to 14) (size 15 to 20)
#    0.000    2.000    0.000    2.571    6.000    4.286 
#    0.000    3.571    0.000    0.000    0.000    0.000 
#    0.000    0.000    0.000    0.000    0.000    0.000 
#
# Total GULP energy -693891.298876 kJ/mol
# GULP energy per Si atom -12390.916051 kJ/mol
# Density = 2.149885 g / cm^3
# Si number density = 21.547894 Si / 1000 Ang^3
#
#
#
# Elastic Constant Matrix: (Units=GPa)
#
#
# Indices 1 2 3 4 5 6 
#
# 1 55.3779 20.7631 34.2150 0.0000 0.0000 0.0000
# 2 20.7631 114.3043 55.2244 0.0000 0.0000 0.0000
# 3 34.2150 55.2244 114.2879 0.0000 0.0000 0.0000
# 4 0.0000 0.0000 0.0000 25.6851 0.0000 0.0000
# 5 0.0000 0.0000 0.0000 0.0000 26.2386 0.0000
# 6 0.0000 0.0000 0.0000 0.0000 0.0000 21.3557
#
#
#
# Elastic Compliance Matrix: (Units=1/GPa)
#
#
# Indices 1 2 3 4 5 6 
#
# 1 0.022257 -0.001075 -0.006144 0.000000 0.000000 0.000000
# 2 -0.001075 0.011465 -0.005218 0.000000 0.000000 0.000000
# 3 -0.006144 -0.005218 0.013111 0.000000 0.000000 0.000000
# 4 0.000000 0.000000 0.000000 0.038933 0.000000 0.000000
# 5 0.000000 0.000000 0.000000 0.000000 0.038112 0.000000
# 6 0.000000 0.000000 0.000000 0.000000 0.000000 0.046826
#
#
# Mechanical properties :
#
#
# Convention : Reuss Voigt Hill
#
# Bulk Modulus (GPa) = 45.53964 56.04166 50.79065
# Shear Modulus (GPa) = 24.64321 26.24038 25.44179
#
# Velocity S-wave (km/s) = 3.38546 3.49344 3.43987
# Velocity P-wave (km/s) = 6.03836 6.50666 6.27688
#
# Compressibility (1/GPa) = 0.02195889
#
# Stress axis : x y z
#
# Youngs Moduli (GPa) = 44.93053 87.22316 76.27418
#
# Poissons Ratio (x) = 0.09372 0.46862
# Poissons Ratio (y) = 0.04828 0.39801
# Poissons Ratio (z) = 0.27605 0.45515
#
# Static dielectric constant tensor:
#      x y z
#    x 3.841890 0.000000 0.000000 
#    y 0.000000 4.066620 0.000000 
#    z 0.000000 0.000000 3.922460 
# 
# 
# High freq. dielectric constant tensor:
#      x y z
#    x 1.836230 0.000000 0.000000 
#    y 0.000000 1.851050 0.000000 
#    z 0.000000 0.000000 1.840920 
# 
# From -- ./inp_files/25175.got.cif
#   From: 2010.03.12/outbox.cif.g09.slc.cpg/sg72_13_cif.got.tgz:25175.got - 2010.04.16 14:54:00.
