data_PCOD8294042
_publ_section_title
;
Structure prediction by ZEFSAII (Michael W. Deem and Ramdas Pophale) SiO2 
 PCOD8294042
Probable space group: I B A M
;
_chemical_formula_sum "Si O2"
_cell_formula_units_Z 68
_cell_length_a 5.049466
_cell_length_b 25.511823
_cell_length_c 29.754571
_cell_angle_alpha 90.000000
_cell_angle_beta 90.000000
_cell_angle_gamma 90.000000
_cell_volume 3833.016056
_symmetry_space_group_name_H-M "I B A M"
_symmetry_group_IT_number 72
_symmetry_cell_setting 'orthorhombic'
loop_
_space_group_symop_operation_xyz
x,y,z
-x,-y,z
x,-y,1/2-z
-x,y,1/2-z
-x,-y,-z
x,y,-z
-x,y,1/2+z
x,-y,1/2+z
1/2+x,1/2+y,1/2+z
1/2-x,1/2-y,1/2+z
1/2+x,1/2-y,-z
1/2-x,1/2+y,-z
1/2-x,1/2-y,1/2-z
1/2+x,1/2+y,1/2-z
1/2-x,1/2+y,z
1/2+x,1/2-y,z
loop_
_atom_site_type_symbol
_atom_site_label
_atom_site_fract_x
_atom_site_fract_y
_atom_site_fract_z
Si Si1 0.262703 0.467261 0.835788
Si Si2 0.110822 0.554999 0.948742
Si Si3 0.371065 0.606196 0.410728
Si Si4 0.619824 0.715813 0.051621
Si Si5 0.500000 0.500000 0.750000
O O1 0.500000 0.500000 0.858521
O O2 0.262192 0.410809 0.861005
O O3 0.319843 0.462157 0.781891
O O4 0.000000 0.500000 0.844073
O O5 0.364823 0.573883 0.921446
O O6 0.000000 0.500000 0.928711
O O7 0.867436 0.595596 0.945679
O O8 0.200482 0.548165 0.000000
O O9 0.432276 0.667863 0.414190
O O10 0.407820 0.760973 0.061538
O O11 0.591057 0.696309 0.000000
#
# Coordination Sequence:
#
# PCOD8294042 Si02
#       5
#    16  16  16  16   4
#     4  10  20  35  55  82 112 136 170 214 262 336
#     4  11  22  33  47  74 112 148 180 212 258 318
#     4  12  21  34  55  77 104 146 185 229 264 309
#     4  10  21  36  52  72 102 143 192 236 266 297
#     4   8  22  36  58  80 112 140 162 208 274 340
#
# _framework density 17.740600000000001
#
# number of rings (size 3 to 8) (size 9 to 14) (size 15 to 20)
#    0.706    0.706    0.000    8.118    0.000    3.765 
#    0.000    0.000    0.000    0.000    0.000    1.647 
#    0.000    0.000    0.000    0.000    0.000    0.000 
#
# Total GULP energy -421362.469976 kJ/mol
# GULP energy per Si atom -12393.013823 kJ/mol
# Density = 1.770022 g / cm^3
# Si number density = 17.740600 Si / 1000 Ang^3
#
#
#
# Elastic Constant Matrix: (Units=GPa)
#
#
# Indices 1 2 3 4 5 6 
#
# 1 114.5952 24.2446 26.4709 0.0000 0.0000 0.0000
# 2 24.2446 93.4718 58.1983 0.0000 0.0000 0.0000
# 3 26.4709 58.1983 93.3972 0.0000 0.0000 0.0000
# 4 0.0000 0.0000 0.0000 21.2343 0.0000 0.0000
# 5 0.0000 0.0000 0.0000 0.0000 12.4111 0.0000
# 6 0.0000 0.0000 0.0000 0.0000 0.0000 24.0814
#
#
#
# Elastic Compliance Matrix: (Units=1/GPa)
#
#
# Indices 1 2 3 4 5 6 
#
# 1 0.009430 -0.001278 -0.001877 0.000000 0.000000 0.000000
# 2 -0.001278 0.017653 -0.010638 0.000000 0.000000 0.000000
# 3 -0.001877 -0.010638 0.017868 0.000000 0.000000 0.000000
# 4 0.000000 0.000000 0.000000 0.047094 0.000000 0.000000
# 5 0.000000 0.000000 0.000000 0.000000 0.080573 0.000000
# 6 0.000000 0.000000 0.000000 0.000000 0.000000 0.041526
#
#
# Mechanical properties :
#
#
# Convention : Reuss Voigt Hill
#
# Bulk Modulus (GPa) = 57.58193 57.69908 57.64051
# Shear Modulus (GPa) = 20.20060 24.38207 22.29133
#
# Velocity S-wave (km/s) = 3.37807 3.71127 3.54858
# Velocity P-wave (km/s) = 6.90966 7.13856 7.02504
#
# Compressibility (1/GPa) = 0.01736656
#
# Stress axis : x y z
#
# Youngs Moduli (GPa) = 106.04284 56.64606 55.96646
#
# Poissons Ratio (x) = 0.07237 0.10503
# Poissons Ratio (y) = 0.13547 0.59539
# Poissons Ratio (z) = 0.19901 0.60262
#
# Static dielectric constant tensor:
#      x y z
#    x 3.405550 0.000000 0.000000 
#    y 0.000000 2.936750 0.000000 
#    z 0.000000 0.000000 3.101490 
# 
# 
# High freq. dielectric constant tensor:
#      x y z
#    x 1.712420 0.000000 0.000000 
#    y 0.000000 1.655240 0.000000 
#    z 0.000000 0.000000 1.658450 
# 
# From -- ./inp_files/50217.got.cif
#   From: 2010.03.12/outbox.cif.g09.slc.cpg/sg72_26_cif.got.tgz:50217.got - 2010.04.16 14:54:00.
