data_PCOD8294479
_publ_section_title
;
Structure prediction by ZEFSAII (Michael W. Deem and Ramdas Pophale) SiO2 
 PCOD8294479
Probable space group: I B A M
;
_chemical_formula_sum "Si O2"
_cell_formula_units_Z 88
_cell_length_a 12.795131
_cell_length_b 24.249246
_cell_length_c 13.989043
_cell_angle_alpha 90.000000
_cell_angle_beta 90.000000
_cell_angle_gamma 90.000000
_cell_volume 4340.412256
_symmetry_space_group_name_H-M "I B A M"
_symmetry_group_IT_number 72
_symmetry_cell_setting 'orthorhombic'
loop_
_space_group_symop_operation_xyz
x,y,z
-x,-y,z
x,-y,1/2-z
-x,y,1/2-z
-x,-y,-z
x,y,-z
-x,y,1/2+z
x,-y,1/2+z
1/2+x,1/2+y,1/2+z
1/2-x,1/2-y,1/2+z
1/2+x,1/2-y,-z
1/2-x,1/2+y,-z
1/2-x,1/2-y,1/2-z
1/2+x,1/2+y,1/2-z
1/2-x,1/2+y,z
1/2+x,1/2-y,z
loop_
_atom_site_type_symbol
_atom_site_label
_atom_site_fract_x
_atom_site_fract_y
_atom_site_fract_z
Si Si1 0.027342 0.436142 0.389443
Si Si2 0.664173 0.904254 0.719158
Si Si3 0.507271 0.327246 0.889908
Si Si4 0.711994 0.500000 0.750000
Si Si5 0.430349 0.446545 0.603837
Si Si6 0.180035 0.196239 0.257265
O O1 0.050593 0.424290 0.500000
O O2 0.127458 0.417677 0.327939
O O3 0.000000 0.500000 0.369675
O O4 0.932319 0.396683 0.353631
O O5 0.739946 0.852402 0.718653
O O6 0.721883 0.959813 0.681154
O O7 0.497130 0.393395 0.876295
O O8 0.406698 0.299073 0.841105
O O9 0.617642 0.310325 0.842242
O O10 0.509734 0.308785 0.000000
O O11 0.651142 0.545485 0.688039
O O12 0.500000 0.500000 0.603673
O O13 0.375094 0.439479 0.500000
O O14 0.250000 0.250000 0.250000
#
# Coordination Sequence:
#
# PCOD8294479 Si02
#       6
#    16  16  16   8  16  16
#     4  10  21  37  57  86 123 158 199 250 298 355
#     4  11  21  38  59  87 119 159 201 245 302 355
#     4  10  23  44  65  91 125 159 200 252 303 360
#     4  12  19  31  62  88 118 158 198 238 306 368
#     4  10  21  34  55  90 126 158 193 238 302 372
#     4  11  25  43  64  91 121 159 206 255 300 356
#
# _framework density 20.274571999999999
#
# number of rings (size 3 to 8) (size 9 to 14) (size 15 to 20)
#    0.000    1.455    3.636    1.909    2.545    6.545 
#    0.000    1.818    0.000    0.000    0.000    0.000 
#    0.000    0.000    0.000    0.000    0.000    0.000 
#
# Total GULP energy -545348.603424 kJ/mol
# GULP energy per Si atom -12394.286441 kJ/mol
# Density = 2.022843 g / cm^3
# Si number density = 20.274572 Si / 1000 Ang^3
#
#
#
# Elastic Constant Matrix: (Units=GPa)
#
#
# Indices 1 2 3 4 5 6 
#
# 1 94.7865 42.5855 31.6100 0.0001 -0.0002 0.0000
# 2 42.5855 102.0623 12.3489 0.0006 -0.0009 -0.0001
# 3 31.6100 12.3489 119.6453 0.0003 -0.0007 0.0000
# 4 0.0001 0.0006 0.0003 16.2021 -0.0008 -0.0001
# 5 -0.0002 -0.0009 -0.0007 -0.0008 51.2501 0.0000
# 6 0.0000 -0.0001 0.0000 -0.0001 0.0000 41.0254
#
#
#
# Elastic Compliance Matrix: (Units=1/GPa)
#
#
# Indices 1 2 3 4 5 6 
#
# 1 0.014066 -0.005488 -0.003150 0.000000 0.000000 0.000000
# 2 -0.005488 0.012063 0.000205 0.000000 0.000000 0.000000
# 3 -0.003150 0.000205 0.009169 0.000000 0.000000 0.000000
# 4 0.000000 0.000000 0.000000 0.061721 0.000001 0.000000
# 5 0.000000 0.000000 0.000000 0.000001 0.019512 0.000000
# 6 0.000000 0.000000 0.000000 0.000000 0.000000 0.024375
#
#
# Mechanical properties :
#
#
# Convention : Reuss Voigt Hill
#
# Bulk Modulus (GPa) = 54.25253 54.39812 54.32533
# Shear Modulus (GPa) = 30.50346 37.02549 33.76447
#
# Velocity S-wave (km/s) = 3.88302 4.27805 4.08531
# Velocity P-wave (km/s) = 6.84987 7.16179 7.00757
#
# Compressibility (1/GPa) = 0.01843232
#
# Stress axis : x y z
#
# Youngs Moduli (GPa) = 71.09316 82.89816 109.06237
#
# Poissons Ratio (x) = 0.45494 0.34352
# Poissons Ratio (y) = 0.39016 -0.02234
# Poissons Ratio (z) = 0.22393 -0.01698
#
# Static dielectric constant tensor:
#      x y z
#    x -14.854740 0.000060 -0.000040 
#    y 0.000060 3.499240 0.000000 
#    z -0.000040 0.000000 4.030550 
# 
# 
# High freq. dielectric constant tensor:
#      x y z
#    x 1.799910 0.000000 0.000000 
#    y 0.000000 1.774620 0.000000 
#    z 0.000000 0.000000 1.789770 
# 
# From -- ./inp_files/20505.got.cif
#   From: 2010.03.12/outbox.cif.g09.slc.cpg/sg72_11_cif.got.tgz:20505.got - 2010.04.16 14:54:00.
