data_PCOD8294689
_publ_section_title
;
Structure prediction by ZEFSAII (Michael W. Deem and Ramdas Pophale) SiO2 
 PCOD8294689
Probable space group: I B A M
;
_chemical_formula_sum "Si O2"
_cell_formula_units_Z 112
_cell_length_a 24.145756
_cell_length_b 15.926168
_cell_length_c 13.893176
_cell_angle_alpha 90.000000
_cell_angle_beta 90.000000
_cell_angle_gamma 90.000000
_cell_volume 5342.612030
_symmetry_space_group_name_H-M "I B A M"
_symmetry_group_IT_number 72
_symmetry_cell_setting 'orthorhombic'
loop_
_space_group_symop_operation_xyz
x,y,z
-x,-y,z
x,-y,1/2-z
-x,y,1/2-z
-x,-y,-z
x,y,-z
-x,y,1/2+z
x,-y,1/2+z
1/2+x,1/2+y,1/2+z
1/2-x,1/2-y,1/2+z
1/2+x,1/2-y,-z
1/2-x,1/2+y,-z
1/2-x,1/2-y,1/2-z
1/2+x,1/2+y,1/2-z
1/2-x,1/2+y,z
1/2+x,1/2-y,z
loop_
_atom_site_type_symbol
_atom_site_label
_atom_site_fract_x
_atom_site_fract_y
_atom_site_fract_z
Si Si1 0.241692 0.653656 0.275309
Si Si2 0.299074 0.410377 0.604797
Si Si3 0.560507 0.402245 0.755458
Si Si4 0.062909 0.526495 0.111717
Si Si5 0.891861 0.212418 0.393769
Si Si6 0.386336 0.123542 0.287689
Si Si7 0.343673 0.588411 0.388844
O O1 0.250000 0.750000 0.250000
O O2 0.251667 0.593249 0.183666
O O3 0.179329 0.630335 0.299363
O O4 0.285037 0.630247 0.359533
O O5 0.272362 0.426928 0.500000
O O6 0.327899 0.317893 0.605855
O O7 0.340502 0.487805 0.629089
O O8 0.553507 0.500000 0.750000
O O9 0.500000 0.359654 0.750000
O O10 0.578598 0.372979 0.861177
O O11 0.605932 0.373176 0.674976
O O12 0.098446 0.443625 0.130840
O O13 0.086947 0.599193 0.183584
O O14 0.000000 0.500000 0.136782
O O15 0.068805 0.555373 0.000000
O O16 0.911116 0.239891 0.500000
O O17 0.908408 0.285065 0.318532
O O18 0.355569 0.610136 0.500000
#
# Coordination Sequence:
#
# PCOD8294689 Si02
#       7
#    16  16  16  16  16  16  16
#     4  12  23  40  60  93 134 170 213 271 333 398
#     4  10  21  38  61  84 121 171 214 256 317 386
#     4  11  22  39  63  91 126 167 219 272 321 381
#     4  10  24  47  72 100 137 178 224 284 351 414
#     4  11  22  41  64  90 127 170 219 272 330 394
#     4  11  23  40  69  99 131 170 225 272 330 410
#     4  11  23  40  62  89 127 172 216 264 325 395
#
# _framework density 20.963528
#
# number of rings (size 3 to 8) (size 9 to 14) (size 15 to 20)
#    0.000    1.143    4.286    1.714    4.000    4.000 
#    0.000    3.571    0.000    0.000    0.000    0.000 
#    0.000    0.000    0.000    0.000    0.000    0.000 
#
# Total GULP energy -693732.485078 kJ/mol
# GULP energy per Si atom -12388.080091 kJ/mol
# Density = 2.091581 g / cm^3
# Si number density = 20.963528 Si / 1000 Ang^3
#
#
#
# Elastic Constant Matrix: (Units=GPa)
#
#
# Indices 1 2 3 4 5 6 
#
# 1 140.7918 32.6880 57.7401 0.0000 0.0000 0.0000
# 2 32.6880 102.3139 46.9079 0.0000 0.0000 0.0000
# 3 57.7401 46.9079 136.0121 0.0000 0.0000 0.0000
# 4 0.0000 0.0000 0.0000 33.5697 0.0000 0.0000
# 5 0.0000 0.0000 0.0000 0.0000 21.3517 0.0000
# 6 0.0000 0.0000 0.0000 0.0000 0.0000 9.9937
#
#
#
# Elastic Compliance Matrix: (Units=1/GPa)
#
#
# Indices 1 2 3 4 5 6 
#
# 1 0.008742 -0.001297 -0.003264 0.000000 0.000000 0.000000
# 2 -0.001297 0.011802 -0.003520 0.000000 0.000000 0.000000
# 3 -0.003264 -0.003520 0.009952 0.000000 0.000000 0.000000
# 4 0.000000 0.000000 0.000000 0.029789 0.000000 0.000000
# 5 0.000000 0.000000 0.000000 0.000000 0.046835 0.000000
# 6 0.000000 0.000000 0.000000 0.000000 0.000000 0.100063
#
#
# Mechanical properties :
#
#
# Convention : Reuss Voigt Hill
#
# Bulk Modulus (GPa) = 69.75914 72.64333 71.20124
# Shear Modulus (GPa) = 21.91808 29.10180 25.50994
#
# Velocity S-wave (km/s) = 3.23698 3.72991 3.49215
# Velocity P-wave (km/s) = 6.87891 7.29912 7.09213
#
# Compressibility (1/GPa) = 0.01433504
#
# Stress axis : x y z
#
# Youngs Moduli (GPa) = 114.38525 84.73283 100.48318
#
# Poissons Ratio (x) = 0.10986 0.32800
# Poissons Ratio (y) = 0.14831 0.35368
# Poissons Ratio (z) = 0.37337 0.29824
#
# Static dielectric constant tensor:
#      x y z
#    x 4.166630 0.000000 0.000000 
#    y 0.000000 3.862860 0.000000 
#    z 0.000000 0.000000 3.909900 
# 
# 
# High freq. dielectric constant tensor:
#      x y z
#    x 1.814890 0.000000 0.000000 
#    y 0.000000 1.817700 0.000000 
#    z 0.000000 0.000000 1.824790 
# 
# From -- ./inp_files/25177.got.cif
#   From: 2010.03.12/outbox.cif.g09.slc.cpg/sg72_13_cif.got.tgz:25177.got - 2010.04.16 14:54:00.
