data_PCOD8294671
_publ_section_title
;
Structure prediction by ZEFSAII (Michael W. Deem and Ramdas Pophale) SiO2 
 PCOD8294671
Probable space group: I B A M
;
_chemical_formula_sum "Si O2"
_cell_formula_units_Z 112
_cell_length_a 16.023117
_cell_length_b 14.809905
_cell_length_c 23.202411
_cell_angle_alpha 90.000000
_cell_angle_beta 90.000000
_cell_angle_gamma 90.000000
_cell_volume 5505.951634
_symmetry_space_group_name_H-M "I B A M"
_symmetry_group_IT_number 72
_symmetry_cell_setting 'orthorhombic'
loop_
_space_group_symop_operation_xyz
x,y,z
-x,-y,z
x,-y,1/2-z
-x,y,1/2-z
-x,-y,-z
x,y,-z
-x,y,1/2+z
x,-y,1/2+z
1/2+x,1/2+y,1/2+z
1/2-x,1/2-y,1/2+z
1/2+x,1/2-y,-z
1/2-x,1/2+y,-z
1/2-x,1/2-y,1/2-z
1/2+x,1/2+y,1/2-z
1/2-x,1/2+y,z
1/2+x,1/2-y,z
loop_
_atom_site_type_symbol
_atom_site_label
_atom_site_fract_x
_atom_site_fract_y
_atom_site_fract_z
Si Si1 0.033832 0.861580 0.191160
Si Si2 0.152475 0.727844 0.239110
Si Si3 0.806153 0.671273 0.063492
Si Si4 0.790339 0.428425 0.163802
Si Si5 0.405261 0.989012 0.564916
Si Si6 0.788902 0.886311 0.669601
Si Si7 0.868898 0.811699 0.858355
O O1 0.068260 0.761000 0.206496
O O2 0.113970 0.918967 0.168692
O O3 0.000000 0.907545 0.250000
O O4 0.960167 0.858279 0.144013
O O5 0.169460 0.626731 0.216599
O O6 0.276854 0.694731 0.281726
O O7 0.137778 0.736176 0.307587
O O8 0.867921 0.588108 0.064004
O O9 0.729327 0.656058 0.107097
O O10 0.859229 0.759257 0.081661
O O11 0.768466 0.687266 0.000000
O O12 0.852982 0.426611 0.109083
O O13 0.771957 0.530819 0.184932
O O14 0.702012 0.387323 0.145098
O O15 0.401671 0.946985 0.500000
O O16 0.500000 0.000000 0.586561
#
# Coordination Sequence:
#
# PCOD8294671 Si02
#       7
#    16  16  16  16  16  16  16
#     4   8  18  37  58  84 125 155 193 248 294 355
#     4   9  20  39  55  89 121 156 196 248 299 360
#     4  10  21  38  59  85 119 155 199 252 299 356
#     4  11  21  34  62  90 117 160 201 243 301 367
#     4   9  21  41  61  85 116 154 204 258 302 356
#     4   9  20  39  56  87 123 157 195 248 300 354
#     4  11  20  36  60  85 124 156 198 248 296 360
#
# _framework density 20.341625000000001
#
# number of rings (size 3 to 8) (size 9 to 14) (size 15 to 20)
#    0.857    1.571    1.429    0.429    2.000    1.714 
#    2.571    1.429    0.000    0.857    0.000    5.000 
#    0.000    0.000    0.000    0.000    0.000    0.000 
#
# Total GULP energy -693971.015670 kJ/mol
# GULP energy per Si atom -12392.339566 kJ/mol
# Density = 2.029533 g / cm^3
# Si number density = 20.341625 Si / 1000 Ang^3
#
#
#
# Elastic Constant Matrix: (Units=GPa)
#
#
# Indices 1 2 3 4 5 6 
#
# 1 116.0312 11.7030 42.1061 0.0000 0.0000 0.0000
# 2 11.7030 74.0394 43.6752 0.0000 0.0000 0.0000
# 3 42.1061 43.6752 112.5524 0.0000 0.0000 0.0000
# 4 0.0000 0.0000 0.0000 25.2831 0.0000 0.0000
# 5 0.0000 0.0000 0.0000 0.0000 34.2811 0.0000
# 6 0.0000 0.0000 0.0000 0.0000 0.0000 19.9612
#
#
#
# Elastic Compliance Matrix: (Units=1/GPa)
#
#
# Indices 1 2 3 4 5 6 
#
# 1 0.010010 0.000813 -0.004060 0.000000 0.000000 0.000000
# 2 0.000813 0.017582 -0.007127 0.000000 0.000000 0.000000
# 3 -0.004060 -0.007127 0.013169 0.000000 0.000000 0.000000
# 4 0.000000 0.000000 0.000000 0.039552 0.000000 0.000000
# 5 0.000000 0.000000 0.000000 0.000000 0.029171 0.000000
# 6 0.000000 0.000000 0.000000 0.000000 0.000000 0.050097
#
#
# Mechanical properties :
#
#
# Convention : Reuss Voigt Hill
#
# Bulk Modulus (GPa) = 49.96779 55.28797 52.62788
# Shear Modulus (GPa) = 26.73811 29.58099 28.15955
#
# Velocity S-wave (km/s) = 3.62947 3.81755 3.72470
# Velocity P-wave (km/s) = 6.49475 6.83157 6.66528
#
# Compressibility (1/GPa) = 0.02001289
#
# Stress axis : x y z
#
# Youngs Moduli (GPa) = 99.90268 56.87719 75.93558
#
# Poissons Ratio (x) = -0.04623 0.30830
# Poissons Ratio (y) = -0.08120 0.54116
# Poissons Ratio (z) = 0.40561 0.40534
#
# Static dielectric constant tensor:
#      x y z
#    x 3.931250 0.000000 0.000000 
#    y 0.000000 3.438990 0.000000 
#    z 0.000000 0.000000 3.806330 
# 
# 
# High freq. dielectric constant tensor:
#      x y z
#    x 1.806260 0.000000 0.000000 
#    y 0.000000 1.778380 0.000000 
#    z 0.000000 0.000000 1.777020 
# 
# From -- ./inp_files/44342.got.cif
#   From: 2010.03.12/outbox.cif.g09.slc.cpg/sg72_23_cif.got.tgz:44342.got - 2010.04.16 14:54:00.
