data_PCOD8294147
_publ_section_title
;
Structure prediction by ZEFSAII (Michael W. Deem and Ramdas Pophale) SiO2 
 PCOD8294147
Probable space group: I B A M
;
_chemical_formula_sum "Si O2"
_cell_formula_units_Z 112
_cell_length_a 10.967111
_cell_length_b 31.146275
_cell_length_c 16.823310
_cell_angle_alpha 90.000000
_cell_angle_beta 90.000000
_cell_angle_gamma 90.000000
_cell_volume 5746.584545
_symmetry_space_group_name_H-M "I B A M"
_symmetry_group_IT_number 72
_symmetry_cell_setting 'orthorhombic'
loop_
_space_group_symop_operation_xyz
x,y,z
-x,-y,z
x,-y,1/2-z
-x,y,1/2-z
-x,-y,-z
x,y,-z
-x,y,1/2+z
x,-y,1/2+z
1/2+x,1/2+y,1/2+z
1/2-x,1/2-y,1/2+z
1/2+x,1/2-y,-z
1/2-x,1/2+y,-z
1/2-x,1/2-y,1/2-z
1/2+x,1/2+y,1/2-z
1/2-x,1/2+y,z
1/2+x,1/2-y,z
loop_
_atom_site_type_symbol
_atom_site_label
_atom_site_fract_x
_atom_site_fract_y
_atom_site_fract_z
Si Si1 0.074345 0.039350 0.407082
Si Si2 0.957180 0.435378 0.840540
Si Si3 0.462769 0.376695 0.659359
Si Si4 0.791964 0.633074 0.407370
Si Si5 0.667109 0.012694 0.907856
Si Si6 0.266262 0.232286 0.091446
Si Si7 0.996478 0.780430 0.156178
O O1 0.065581 0.033521 0.500000
O O2 0.211432 0.035058 0.377047
O O3 0.032283 0.086876 0.387685
O O4 0.000000 0.000000 0.366478
O O5 0.912713 0.389362 0.872548
O O6 0.851979 0.471225 0.851390
O O7 0.000000 0.431819 0.750000
O O8 0.065009 0.451123 0.897548
O O9 0.500000 0.380793 0.750000
O O10 0.319540 0.384368 0.645547
O O11 0.497409 0.329665 0.625314
O O12 0.771568 0.621592 0.500000
O O13 0.806994 0.683554 0.394567
O O14 0.672568 0.998009 0.000000
O O15 0.131720 0.241904 0.129098
O O16 0.378195 0.259800 0.125535
O O17 0.251911 0.244016 0.000000
O O18 0.000000 0.778402 0.250000
#
# Coordination Sequence:
#
# PCOD8294147 Si02
#       7
#    16  16  16  16  16  16  16
#     4  10  21  37  57  83 113 149 194 240 292 354
#     4  11  22  36  56  81 112 151 197 246 290 344
#     4  10  22  38  60  89 121 152 194 243 297 356
#     4  10  21  39  61  83 116 160 200 237 296 366
#     4  10  20  36  56  77 112 151 191 240 298 357
#     4  10  21  38  62  91 120 158 208 250 296 362
#     4  10  21  40  62  89 125 163 197 248 309 368
#
# _framework density 19.489836
#
# number of rings (size 3 to 8) (size 9 to 14) (size 15 to 20)
#    0.000    1.857    0.000    4.714    2.000    3.714 
#    5.143    0.000    0.000    0.000    0.000    0.000 
#    0.000    0.000    0.000    0.000    0.000    0.000 
#
# Total GULP energy -694173.981898 kJ/mol
# GULP energy per Si atom -12395.963962 kJ/mol
# Density = 1.944548 g / cm^3
# Si number density = 19.489836 Si / 1000 Ang^3
#
#
#
# Elastic Constant Matrix: (Units=GPa)
#
#
# Indices 1 2 3 4 5 6 
#
# 1 121.3280 73.4875 36.5283 -0.0001 0.0000 0.0000
# 2 73.4875 90.0460 26.8613 -0.0002 0.0002 0.0001
# 3 36.5283 26.8613 74.5430 -0.0017 0.0010 0.0005
# 4 -0.0001 -0.0002 -0.0017 24.0413 0.0002 0.0001
# 5 0.0000 0.0002 0.0010 0.0002 31.7829 -0.0003
# 6 0.0000 0.0001 0.0005 0.0001 -0.0003 43.0954
#
#
#
# Elastic Compliance Matrix: (Units=1/GPa)
#
#
# Indices 1 2 3 4 5 6 
#
# 1 0.017198 -0.012909 -0.003776 0.000000 0.000000 0.000000
# 2 -0.012909 0.022133 -0.001650 0.000000 0.000000 0.000000
# 3 -0.003776 -0.001650 0.015860 0.000001 0.000000 0.000000
# 4 0.000000 0.000000 0.000001 0.041595 0.000000 0.000000
# 5 0.000000 0.000000 0.000000 0.000000 0.031463 0.000000
# 6 0.000000 0.000000 0.000000 0.000000 0.000000 0.023204
#
#
# Mechanical properties :
#
#
# Convention : Reuss Voigt Hill
#
# Bulk Modulus (GPa) = 53.99126 62.18570 58.08848
# Shear Modulus (GPa) = 25.73401 29.71992 27.72696
#
# Velocity S-wave (km/s) = 3.63765 3.90922 3.77588
# Velocity P-wave (km/s) = 6.73838 7.23547 6.99134
#
# Compressibility (1/GPa) = 0.01852152
#
# Stress axis : x y z
#
# Youngs Moduli (GPa) = 58.14719 45.18210 63.05271
#
# Poissons Ratio (x) = 0.58325 0.23807
# Poissons Ratio (y) = 0.75062 0.10401
# Poissons Ratio (z) = 0.21955 0.07453
#
# Static dielectric constant tensor:
#      x y z
#    x 3.917550 0.000000 0.000000 
#    y 0.000000 3.663360 0.000000 
#    z 0.000000 0.000000 3.642860 
# 
# 
# High freq. dielectric constant tensor:
#      x y z
#    x 1.768920 0.000000 0.000000 
#    y 0.000000 1.756090 0.000000 
#    z 0.000000 0.000000 1.759410 
# 
# From -- ./inp_files/20695.got.cif
#   From: 2010.03.12/outbox.cif.g09.slc.cpg/sg72_11_cif.got.tgz:20695.got - 2010.04.16 14:54:00.
