data_PCOD8294468
_publ_section_title
;
Structure prediction by ZEFSAII (Michael W. Deem and Ramdas Pophale) SiO2 
 PCOD8294468
Probable space group: I B A M
;
_chemical_formula_sum "Si O2"
_cell_formula_units_Z 72
_cell_length_a 23.264153
_cell_length_b 16.461381
_cell_length_c 10.149892
_cell_angle_alpha 90.000000
_cell_angle_beta 90.000000
_cell_angle_gamma 90.000000
_cell_volume 3887.003515
_symmetry_space_group_name_H-M "I B A M"
_symmetry_group_IT_number 72
_symmetry_cell_setting 'orthorhombic'
loop_
_space_group_symop_operation_xyz
x,y,z
-x,-y,z
x,-y,1/2-z
-x,y,1/2-z
-x,-y,-z
x,y,-z
-x,y,1/2+z
x,-y,1/2+z
1/2+x,1/2+y,1/2+z
1/2-x,1/2-y,1/2+z
1/2+x,1/2-y,-z
1/2-x,1/2+y,-z
1/2-x,1/2-y,1/2-z
1/2+x,1/2+y,1/2-z
1/2-x,1/2+y,z
1/2+x,1/2-y,z
loop_
_atom_site_type_symbol
_atom_site_label
_atom_site_fract_x
_atom_site_fract_y
_atom_site_fract_z
Si Si1 0.354023 0.500000 0.250000
Si Si2 0.545960 0.601923 0.854311
Si Si3 0.291551 0.350381 0.351537
Si Si4 0.171336 0.282931 0.650386
Si Si5 0.953308 0.292124 0.148030
O O1 0.393826 0.444900 0.156624
O O2 0.312880 0.442510 0.336228
O O3 0.500000 0.567483 0.750000
O O4 0.556173 0.696625 0.828774
O O5 0.520290 0.587621 0.000000
O O6 0.305770 0.321028 0.500000
O O7 0.222820 0.346820 0.325964
O O8 0.323805 0.292141 0.249935
O O9 0.172422 0.248844 0.500000
O O10 0.110348 0.329326 0.674189
O O11 0.000000 0.328222 0.250000
O O12 0.975011 0.311362 0.000000
#
# Coordination Sequence:
#
# PCOD8294468 Si02
#       5
#     8  16  16  16  16
#     4  12  21  32  48  74 101 130 170 206 240 290
#     4  10  21  34  46  65  97 135 168 201 238 279
#     4  10  21  33  52  74  96 132 172 205 246 296
#     4   9  18  36  53  71  99 130 164 209 254 291
#     4   9  17  31  50  71  96 127 161 201 244 288
#
# _framework density 18.523266
#
# number of rings (size 3 to 8) (size 9 to 14) (size 15 to 20)
#    0.000    2.222    2.222    1.000    0.000    4.444 
#    0.000    0.000    0.000    0.000    0.000    0.778 
#    0.000    5.333    0.000    0.000    0.000    0.000 
#
# Total GULP energy -446224.444117 kJ/mol
# GULP energy per Si atom -12395.123448 kJ/mol
# Density = 1.848111 g / cm^3
# Si number density = 18.523266 Si / 1000 Ang^3
#
#
#
# Elastic Constant Matrix: (Units=GPa)
#
#
# Indices 1 2 3 4 5 6 
#
# 1 136.6627 21.9118 71.1507 0.0000 0.0000 0.0000
# 2 21.9118 26.3169 14.4939 0.0000 0.0000 0.0000
# 3 71.1507 14.4939 123.0919 0.0000 0.0000 0.0000
# 4 0.0000 0.0000 0.0000 6.4242 0.0000 0.0000
# 5 0.0000 0.0000 0.0000 0.0000 29.9586 0.0000
# 6 0.0000 0.0000 0.0000 0.0000 0.0000 28.5814
#
#
#
# Elastic Compliance Matrix: (Units=1/GPa)
#
#
# Indices 1 2 3 4 5 6 
#
# 1 0.011352 -0.006243 -0.005827 0.000000 0.000000 0.000000
# 2 -0.006243 0.044066 -0.001580 0.000000 0.000000 0.000000
# 3 -0.005827 -0.001580 0.011678 0.000000 0.000000 0.000000
# 4 0.000000 0.000000 0.000000 0.155660 0.000000 0.000000
# 5 0.000000 0.000000 0.000000 0.000000 0.033379 0.000000
# 6 0.000000 0.000000 0.000000 0.000000 0.000000 0.034988
#
#
# Mechanical properties :
#
#
# Convention : Reuss Voigt Hill
#
# Bulk Modulus (GPa) = 25.12744 55.68713 40.40729
# Shear Modulus (GPa) = 15.07438 24.89385 19.98412
#
# Velocity S-wave (km/s) = 2.85583 3.66993 3.28817
# Velocity P-wave (km/s) = 4.94663 6.93444 6.02311
#
# Compressibility (1/GPa) = 0.03979712
#
# Stress axis : x y z
#
# Youngs Moduli (GPa) = 88.09279 22.69300 85.63110
#
# Poissons Ratio (x) = 0.14166 0.49893
# Poissons Ratio (y) = 0.54993 0.13533
# Poissons Ratio (z) = 0.51328 0.03586
#
# Static dielectric constant tensor:
#      x y z
#    x 3.706030 0.000000 0.000000 
#    y 0.000000 2.938950 0.000000 
#    z 0.000000 0.000000 3.535700 
# 
# 
# High freq. dielectric constant tensor:
#      x y z
#    x 1.730840 0.000000 0.000000 
#    y 0.000000 1.658490 0.000000 
#    z 0.000000 0.000000 1.727960 
# 
# From -- ./inp_files/6714.got.cif
#   From: 2010.03.12/outbox.cif.g09.slc.cpg/sg72_4_cif.got.tgz:6714.got - 2010.04.16 14:54:00.
