data_PCOD8294116
_publ_section_title
;
Structure prediction by ZEFSAII (Michael W. Deem and Ramdas Pophale) SiO2 
 PCOD8294116
Probable space group: I B A M
;
_chemical_formula_sum "Si O2"
_cell_formula_units_Z 116
_cell_length_a 27.407919
_cell_length_b 22.405504
_cell_length_c 8.878574
_cell_angle_alpha 90.000000
_cell_angle_beta 90.000000
_cell_angle_gamma 90.000000
_cell_volume 5452.227871
_symmetry_space_group_name_H-M "I B A M"
_symmetry_group_IT_number 72
_symmetry_cell_setting 'orthorhombic'
loop_
_space_group_symop_operation_xyz
x,y,z
-x,-y,z
x,-y,1/2-z
-x,y,1/2-z
-x,-y,-z
x,y,-z
-x,y,1/2+z
x,-y,1/2+z
1/2+x,1/2+y,1/2+z
1/2-x,1/2-y,1/2+z
1/2+x,1/2-y,-z
1/2-x,1/2+y,-z
1/2-x,1/2-y,1/2-z
1/2+x,1/2+y,1/2-z
1/2-x,1/2+y,z
1/2+x,1/2-y,z
loop_
_atom_site_type_symbol
_atom_site_label
_atom_site_fract_x
_atom_site_fract_y
_atom_site_fract_z
Si Si1 0.724713 0.441885 0.825147
Si Si2 0.451536 0.794621 0.667161
Si Si3 0.413153 0.916059 0.668823
Si Si4 0.698345 0.767364 0.180176
Si Si5 0.353905 0.660071 0.825711
Si Si6 0.000000 0.500000 0.250000
Si Si7 0.679797 0.105235 0.821942
Si Si8 0.052190 0.162273 0.329101
O O1 0.699815 0.500000 0.750000
O O2 0.688843 0.386966 0.803272
O O3 0.773667 0.431383 0.731373
O O4 0.736834 0.452295 0.000000
O O5 0.500000 0.780041 0.750000
O O6 0.463924 0.816654 0.500000
O O7 0.423563 0.850243 0.740361
O O8 0.426248 0.730196 0.669868
O O9 0.392703 0.912072 0.500000
O O10 0.368090 0.935032 0.776091
O O11 0.462040 0.957117 0.662417
O O12 0.750000 0.750000 0.250000
O O13 0.659271 0.718662 0.231130
O O14 0.679512 0.831134 0.237889
O O15 0.702597 0.769632 0.000000
O O16 0.404327 0.630070 0.763174
O O17 0.361030 0.677324 0.000000
O O18 0.681175 0.114696 0.000000
O O19 0.047648 0.138204 0.500000
O O20 0.000000 0.152787 0.250000
#
# Coordination Sequence:
#
# PCOD8294116 Si02
#       8
#    16  16  16  16  16   4  16  16
#     4  11  25  45  68  93 128 168 216 268 319 384
#     4   9  18  34  55  80 112 154 197 249 309 371
#     4  11  24  42  62  85 118 159 214 277 335 392
#     4  12  23  39  65  99 137 173 214 267 332 400
#     4  11  23  40  65  97 132 173 215 262 321 387
#     4  12  26  44  68  90 118 168 232 290 354 400
#     4  12  26  43  67  95 127 170 219 272 335 398
#     4  10  20  35  60  93 129 167 208 256 313 381
#
# _framework density 21.275706
#
# number of rings (size 3 to 8) (size 9 to 14) (size 15 to 20)
#    0.000    1.103    2.069    4.759    0.966    4.966 
#    0.000    0.000    0.000    0.414    0.000    2.897 
#    0.000    0.000    0.000    0.000    0.000    0.000 
#
# Total GULP energy -718660.167845 kJ/mol
# GULP energy per Si atom -12390.692549 kJ/mol
# Density = 2.122728 g / cm^3
# Si number density = 21.275706 Si / 1000 Ang^3
#
#
#
# Elastic Constant Matrix: (Units=GPa)
#
#
# Indices 1 2 3 4 5 6 
#
# 1 140.1577 9.5603 58.6043 0.0000 0.0000 0.0000
# 2 9.5603 46.6244 28.1131 0.0000 0.0000 0.0000
# 3 58.6043 28.1131 153.8705 0.0000 0.0000 0.0000
# 4 0.0000 0.0000 0.0000 26.3206 0.0000 0.0000
# 5 0.0000 0.0000 0.0000 0.0000 33.4041 0.0000
# 6 0.0000 0.0000 0.0000 0.0000 0.0000 12.3427
#
#
#
# Elastic Compliance Matrix: (Units=1/GPa)
#
#
# Indices 1 2 3 4 5 6 
#
# 1 0.008489 0.000235 -0.003276 0.000000 0.000000 0.000000
# 2 0.000235 0.024110 -0.004494 0.000000 0.000000 0.000000
# 3 -0.003276 -0.004494 0.008568 0.000000 0.000000 0.000000
# 4 0.000000 0.000000 0.000000 0.037993 0.000000 0.000000
# 5 0.000000 0.000000 0.000000 0.000000 0.029936 0.000000
# 6 0.000000 0.000000 0.000000 0.000000 0.000000 0.081020
#
#
# Mechanical properties :
#
#
# Convention : Reuss Voigt Hill
#
# Bulk Modulus (GPa) = 38.32148 59.24532 48.78340
# Shear Modulus (GPa) = 23.37706 30.70514 27.04110
#
# Velocity S-wave (km/s) = 3.31836 3.80307 3.56896
# Velocity P-wave (km/s) = 5.72128 6.86960 6.32157
#
# Compressibility (1/GPa) = 0.02609502
#
# Stress axis : x y z
#
# Youngs Moduli (GPa) = 117.80543 41.47680 116.71592
#
# Poissons Ratio (x) = -0.00973 0.38235
# Poissons Ratio (y) = -0.02765 0.52457
# Poissons Ratio (z) = 0.38592 0.18641
#
# Static dielectric constant tensor:
#      x y z
#    x 3.879640 0.000000 0.000000 
#    y 0.000000 4.116150 0.000000 
#    z 0.000000 0.000000 3.838730 
# 
# 
# High freq. dielectric constant tensor:
#      x y z
#    x 1.848990 0.000000 0.000000 
#    y 0.000000 1.815410 0.000000 
#    z 0.000000 0.000000 1.839870 
# 
# From -- ./inp_files/8452.got.cif
#   From: 2010.03.12/outbox.cif.g09.slc.cpg/sg72_5_cif.got.tgz:8452.got - 2010.04.16 14:54:00.
