data_PCOD8294380
_publ_section_title
;
Structure prediction by ZEFSAII (Michael W. Deem and Ramdas Pophale) SiO2 
 PCOD8294380
Probable space group: I B A M
;
_chemical_formula_sum "Si O2"
_cell_formula_units_Z 72
_cell_length_a 9.016388
_cell_length_b 19.953734
_cell_length_c 17.634551
_cell_angle_alpha 90.000000
_cell_angle_beta 90.000000
_cell_angle_gamma 90.000000
_cell_volume 3172.642789
_symmetry_space_group_name_H-M "I B A M"
_symmetry_group_IT_number 72
_symmetry_cell_setting 'orthorhombic'
loop_
_space_group_symop_operation_xyz
x,y,z
-x,-y,z
x,-y,1/2-z
-x,y,1/2-z
-x,-y,-z
x,y,-z
-x,y,1/2+z
x,-y,1/2+z
1/2+x,1/2+y,1/2+z
1/2-x,1/2-y,1/2+z
1/2+x,1/2-y,-z
1/2-x,1/2+y,-z
1/2-x,1/2-y,1/2-z
1/2+x,1/2+y,1/2-z
1/2-x,1/2+y,z
1/2+x,1/2-y,z
loop_
_atom_site_type_symbol
_atom_site_label
_atom_site_fract_x
_atom_site_fract_y
_atom_site_fract_z
Si Si1 0.730437 0.107093 0.806271
Si Si2 0.019682 0.139175 0.584522
Si Si3 0.500000 0.000000 0.649551
Si Si4 0.784553 0.389649 0.866905
Si Si5 0.487834 0.779007 0.162853
O O1 0.872130 0.096184 0.860578
O O2 0.778731 0.108508 0.719180
O O3 0.660543 0.175750 0.839759
O O4 0.607469 0.048513 0.802405
O O5 0.088378 0.140416 0.500000
O O6 0.979758 0.213446 0.612538
O O7 0.858608 0.104405 0.580023
O O8 0.609508 0.049510 0.603829
O O9 0.874229 0.320304 0.871248
O O10 0.500000 0.756499 0.250000
#
# Coordination Sequence:
#
# PCOD8294380 Si02
#       5
#    16  16   8  16  16
#     4  10  20  38  64  89 114 145 188 242 291 336
#     4  12  25  37  53  85 124 158 192 228 277 342
#     4  10  21  42  69  90 105 140 199 248 289 340
#     4  10  20  38  64  89 114 145 188 242 291 336
#     4   9  19  37  62  89 115 147 189 238 290 337
#
# _framework density 22.694015
#
# number of rings (size 3 to 8) (size 9 to 14) (size 15 to 20)
#    0.000    1.778    0.000    6.667    0.000    8.000 
#    0.000    8.889    0.000    0.000    0.000    0.000 
#    0.000    0.000    0.000    0.000    0.000    0.000 
#
# Total GULP energy -446006.988227 kJ/mol
# GULP energy per Si atom -12389.083006 kJ/mol
# Density = 2.264236 g / cm^3
# Si number density = 22.694015 Si / 1000 Ang^3
#
#
#
# Elastic Constant Matrix: (Units=GPa)
#
#
# Indices 1 2 3 4 5 6 
#
# 1 118.2104 32.7627 35.4192 0.0000 0.0000 0.0000
# 2 32.7627 98.7842 24.2235 0.0000 0.0000 0.0000
# 3 35.4192 24.2235 74.0549 0.0000 0.0000 0.0000
# 4 0.0000 0.0000 0.0000 -2.9098 0.0000 0.0000
# 5 0.0000 0.0000 0.0000 0.0000 19.3267 0.0000
# 6 0.0000 0.0000 0.0000 0.0000 0.0000 18.0754
#
#
#
# Elastic Compliance Matrix: (Units=1/GPa)
#
#
# Indices 1 2 3 4 5 6 
#
# 1 0.010381 -0.002419 -0.004173 0.000000 0.000000 0.000000
# 2 -0.002419 0.011570 -0.002627 0.000000 0.000000 0.000000
# 3 -0.004173 -0.002627 0.016359 0.000000 0.000000 0.000000
# 4 0.000000 0.000000 0.000000 -0.343666 0.000000 0.000000
# 5 0.000000 0.000000 0.000000 0.000000 0.051742 0.000000
# 6 0.000000 0.000000 0.000000 0.000000 0.000000 0.055324
#
#
# Mechanical properties :
#
#
# Convention : Reuss Voigt Hill
#
# Bulk Modulus (GPa) = 50.32987 52.87339 51.60163
# Shear Modulus (GPa) = -28.86369 20.14139 -4.36115
#
# Velocity S-wave (km/s) = -3.57019 2.98236 -1.38776
# Velocity P-wave (km/s) = 2.28708 5.93365 4.49661
#
# Compressibility (1/GPa) = 0.01986892
#
# Stress axis : x y z
#
# Youngs Moduli (GPa) = 96.33426 86.43219 61.12853
#
# Poissons Ratio (x) = 0.20911 0.25512
# Poissons Ratio (y) = 0.23307 0.16061
# Poissons Ratio (z) = 0.40204 0.22709
#
# Static dielectric constant tensor:
#      x y z
#    x 4.219240 0.000000 0.000000 
#    y 0.000000 4.157350 0.000000 
#    z 0.000000 0.000000 3.582640 
# 
# 
# High freq. dielectric constant tensor:
#      x y z
#    x 1.908910 0.000000 0.000000 
#    y 0.000000 1.895510 0.000000 
#    z 0.000000 0.000000 1.853480 
# 
# From -- ./inp_files/27969.got.cif
#   From: 2010.03.12/outbox.cif.g09.slc.cpg/sg72_14_cif.got.tgz:27969.got - 2010.04.16 14:54:00.
