data_PCOD8294148
_publ_section_title
;
Structure prediction by ZEFSAII (Michael W. Deem and Ramdas Pophale) SiO2 
 PCOD8294148
Probable space group: I B A M
;
_chemical_formula_sum "Si O2"
_cell_formula_units_Z 112
_cell_length_a 25.439899
_cell_length_b 16.530790
_cell_length_c 14.083299
_cell_angle_alpha 90.000000
_cell_angle_beta 90.000000
_cell_angle_gamma 90.000000
_cell_volume 5922.613489
_symmetry_space_group_name_H-M "I B A M"
_symmetry_group_IT_number 72
_symmetry_cell_setting 'orthorhombic'
loop_
_space_group_symop_operation_xyz
x,y,z
-x,-y,z
x,-y,1/2-z
-x,y,1/2-z
-x,-y,-z
x,y,-z
-x,y,1/2+z
x,-y,1/2+z
1/2+x,1/2+y,1/2+z
1/2-x,1/2-y,1/2+z
1/2+x,1/2-y,-z
1/2-x,1/2+y,-z
1/2-x,1/2-y,1/2-z
1/2+x,1/2+y,1/2-z
1/2-x,1/2+y,z
1/2+x,1/2-y,z
loop_
_atom_site_type_symbol
_atom_site_label
_atom_site_fract_x
_atom_site_fract_y
_atom_site_fract_z
Si Si1 0.484567 0.413027 0.894751
Si Si2 0.312356 0.541789 0.892142
Si Si3 0.215805 0.863563 0.109218
Si Si4 0.283583 0.090425 0.229167
Si Si5 0.597014 0.660882 0.602850
Si Si6 0.057393 0.227337 0.279652
Si Si7 0.353218 0.206700 0.110576
O O1 0.500000 0.500000 0.852154
O O2 0.536735 0.361804 0.906635
O O3 0.447616 0.364190 0.821853
O O4 0.457710 0.422159 0.000000
O O5 0.315465 0.446693 0.866012
O O6 0.269649 0.589399 0.831430
O O7 0.368891 0.581460 0.872856
O O8 0.294283 0.552406 0.000000
O O9 0.268715 0.861742 0.173533
O O10 0.177915 0.789182 0.132709
O O11 0.234151 0.860863 0.000000
O O12 0.329020 0.134497 0.171485
O O13 0.304173 0.000000 0.250000
O O14 0.615399 0.697607 0.500000
O O15 0.597787 0.724928 0.689409
O O16 0.085749 0.283401 0.357903
O O17 0.000000 0.262663 0.250000
O O18 0.351622 0.183905 0.000000
#
# Coordination Sequence:
#
# PCOD8294148 Si02
#       7
#    16  16  16  16  16  16  16
#     4   9  18  31  46  68 101 143 191 236 269 309
#     4   9  17  31  49  73 106 146 184 224 265 310
#     4   9  19  32  50  78 113 145 179 218 264 315
#     4  10  20  36  56  79 107 141 179 223 267 322
#     4   9  18  30  46  68 101 146 191 227 265 311
#     4  10  21  35  50  74 106 144 185 227 275 317
#     4  11  22  36  57  83 109 141 177 222 272 323
#
# _framework density 18.910571000000001
#
# number of rings (size 3 to 8) (size 9 to 14) (size 15 to 20)
#    0.000    2.429    0.000    2.143    2.000    3.714 
#    0.000    2.143    0.000    0.429    0.000    1.000 
#    0.000    0.000    0.000    0.000    0.000    0.000 
#
# Total GULP energy -694088.375551 kJ/mol
# GULP energy per Si atom -12394.435278 kJ/mol
# Density = 1.886753 g / cm^3
# Si number density = 18.910571 Si / 1000 Ang^3
#
#
#
# Elastic Constant Matrix: (Units=GPa)
#
#
# Indices 1 2 3 4 5 6 
#
# 1 71.4683 43.6878 54.4866 0.0000 0.0000 0.0000
# 2 43.6878 54.2305 36.8076 0.0000 0.0000 0.0000
# 3 54.4866 36.8076 102.1513 0.0000 0.0000 0.0000
# 4 0.0000 0.0000 0.0000 25.0990 0.0000 0.0000
# 5 0.0000 0.0000 0.0000 0.0000 25.6165 0.0000
# 6 0.0000 0.0000 0.0000 0.0000 0.0000 24.5123
#
#
#
# Elastic Compliance Matrix: (Units=1/GPa)
#
#
# Indices 1 2 3 4 5 6 
#
# 1 0.035359 -0.020762 -0.011379 0.000000 0.000000 0.000000
# 2 -0.020762 0.036600 -0.002114 0.000000 0.000000 0.000000
# 3 -0.011379 -0.002114 0.016621 0.000000 0.000000 0.000000
# 4 0.000000 0.000000 0.000000 0.039842 0.000000 0.000000
# 5 0.000000 0.000000 0.000000 0.000000 0.039037 0.000000
# 6 0.000000 0.000000 0.000000 0.000000 0.000000 0.040796
#
#
# Mechanical properties :
#
#
# Convention : Reuss Voigt Hill
#
# Bulk Modulus (GPa) = 49.82499 55.31266 52.56883
# Shear Modulus (GPa) = 17.63954 21.23677 19.43815
#
# Velocity S-wave (km/s) = 3.05747 3.35477 3.20956
# Velocity P-wave (km/s) = 6.23451 6.65726 6.44935
#
# Compressibility (1/GPa) = 0.02007025
#
# Stress axis : x y z
#
# Youngs Moduli (GPa) = 28.28141 27.32249 60.16622
#
# Poissons Ratio (x) = 0.56726 0.68464
# Poissons Ratio (y) = 0.58717 0.12718
# Poissons Ratio (z) = 0.32182 0.05775
#
# Static dielectric constant tensor:
#      x y z
#    x 3.229400 0.000000 0.000000 
#    y 0.000000 3.088290 0.000000 
#    z 0.000000 0.000000 4.399290 
# 
# 
# High freq. dielectric constant tensor:
#      x y z
#    x 1.707530 0.000000 0.000000 
#    y 0.000000 1.684860 0.000000 
#    z 0.000000 0.000000 1.766220 
# 
# From -- ./inp_files/25958.got.cif
#   From: 2010.03.12/outbox.cif.g09.slc.cpg/sg72_13_cif.got.tgz:25958.got - 2010.04.16 14:54:00.
