data_PCOD8294640
_publ_section_title
;
Structure prediction by ZEFSAII (Michael W. Deem and Ramdas Pophale) SiO2 
 PCOD8294640
Probable space group: I B A M
;
_chemical_formula_sum "Si O2"
_cell_formula_units_Z 72
_cell_length_a 23.710828
_cell_length_b 11.518308
_cell_length_c 13.340273
_cell_angle_alpha 90.000000
_cell_angle_beta 90.000000
_cell_angle_gamma 90.000000
_cell_volume 3643.343547
_symmetry_space_group_name_H-M "I B A M"
_symmetry_group_IT_number 72
_symmetry_cell_setting 'orthorhombic'
loop_
_space_group_symop_operation_xyz
x,y,z
-x,-y,z
x,-y,1/2-z
-x,y,1/2-z
-x,-y,-z
x,y,-z
-x,y,1/2+z
x,-y,1/2+z
1/2+x,1/2+y,1/2+z
1/2-x,1/2-y,1/2+z
1/2+x,1/2-y,-z
1/2-x,1/2+y,-z
1/2-x,1/2-y,1/2-z
1/2+x,1/2+y,1/2-z
1/2-x,1/2+y,z
1/2+x,1/2-y,z
loop_
_atom_site_type_symbol
_atom_site_label
_atom_site_fract_x
_atom_site_fract_y
_atom_site_fract_z
Si Si1 0.203503 0.687512 0.617568
Si Si2 0.500000 0.842647 0.750000
Si Si3 0.312748 0.626599 0.277681
Si Si4 0.093262 0.276855 0.385110
Si Si5 0.093036 0.546042 0.613336
O O1 0.208554 0.711431 0.500000
O O2 0.256797 0.612874 0.654780
O O3 0.202326 0.810520 0.673535
O O4 0.146986 0.619329 0.646344
O O5 0.535669 0.758078 0.822523
O O6 0.459630 0.924446 0.816798
O O7 0.336520 0.500000 0.250000
O O8 0.358272 0.696732 0.341172
O O9 0.082719 0.241588 0.500000
O O10 0.110301 0.411890 0.374759
O O11 0.074889 0.574680 0.500000
#
# Coordination Sequence:
#
# PCOD8294640 Si02
#       5
#    16   8  16  16  16
#     4  10  23  41  64  91 124 160 200 252 308 368
#     4  12  21  36  65  94 127 160 206 257 306 359
#     4  11  25  41  64  90 124 165 207 247 304 369
#     4  11  23  39  63  94 126 160 202 256 313 366
#     4  10  21  37  62  95 125 157 200 254 312 363
#
# _framework density 19.762066999999998
#
# number of rings (size 3 to 8) (size 9 to 14) (size 15 to 20)
#    0.000    1.333    2.222    3.333    6.222    3.556 
#    0.000    0.556    0.000    1.333    0.000    0.000 
#    0.000    0.000    0.000    0.000    0.000    0.000 
#
# Total GULP energy -446484.825123 kJ/mol
# GULP energy per Si atom -12402.356253 kJ/mol
# Density = 1.971709 g / cm^3
# Si number density = 19.762067 Si / 1000 Ang^3
#
#
#
# Elastic Constant Matrix: (Units=GPa)
#
#
# Indices 1 2 3 4 5 6 
#
# 1 151.1932 58.2924 80.7631 0.0000 0.0000 0.0000
# 2 58.2924 84.3690 47.8171 0.0000 0.0000 0.0000
# 3 80.7631 47.8171 151.5260 0.0000 0.0000 0.0000
# 4 0.0000 0.0000 0.0000 22.9951 0.0000 0.0000
# 5 0.0000 0.0000 0.0000 0.0000 34.8297 0.0000
# 6 0.0000 0.0000 0.0000 0.0000 0.0000 16.3848
#
#
#
# Elastic Compliance Matrix: (Units=1/GPa)
#
#
# Indices 1 2 3 4 5 6 
#
# 1 0.010798 -0.005113 -0.004142 0.000000 0.000000 0.000000
# 2 -0.005113 0.016856 -0.002594 0.000000 0.000000 0.000000
# 3 -0.004142 -0.002594 0.009626 0.000000 0.000000 0.000000
# 4 0.000000 0.000000 0.000000 0.043488 0.000000 0.000000
# 5 0.000000 0.000000 0.000000 0.000000 0.028711 0.000000
# 6 0.000000 0.000000 0.000000 0.000000 0.000000 0.061032
#
#
# Mechanical properties :
#
#
# Convention : Reuss Voigt Hill
#
# Bulk Modulus (GPa) = 73.62847 84.53704 79.08276
# Shear Modulus (GPa) = 25.15924 28.18961 26.67442
#
# Velocity S-wave (km/s) = 3.57193 3.78094 3.67792
# Velocity P-wave (km/s) = 7.37224 7.86962 7.62499
#
# Compressibility (1/GPa) = 0.01358170
#
# Stress axis : x y z
#
# Youngs Moduli (GPa) = 92.61190 59.32771 103.89013
#
# Poissons Ratio (x) = 0.30335 0.43028
# Poissons Ratio (y) = 0.47353 0.26947
# Poissons Ratio (z) = 0.38357 0.15389
#
# Static dielectric constant tensor:
#      x y z
#    x 3.765030 0.000000 0.000000 
#    y 0.000000 3.281600 0.000000 
#    z 0.000000 0.000000 4.064660 
# 
# 
# High freq. dielectric constant tensor:
#      x y z
#    x 1.778380 0.000000 0.000000 
#    y 0.000000 1.738060 0.000000 
#    z 0.000000 0.000000 1.800810 
# 
# From -- ./inp_files/24855.got.cif
#   From: 2010.03.12/outbox.cif.g09.slc.cpg/sg72_13_cif.got.tgz:24855.got - 2010.04.16 14:54:00.
