data_PCOD8294796
_publ_section_title
;
Structure prediction by ZEFSAII (Michael W. Deem and Ramdas Pophale) SiO2 
 PCOD8294796
Probable space group: I B A M
;
_chemical_formula_sum "Si O2"
_cell_formula_units_Z 80
_cell_length_a 9.184871
_cell_length_b 24.570626
_cell_length_c 16.491368
_cell_angle_alpha 90.000000
_cell_angle_beta 90.000000
_cell_angle_gamma 90.000000
_cell_volume 3721.739446
_symmetry_space_group_name_H-M "I B A M"
_symmetry_group_IT_number 72
_symmetry_cell_setting 'orthorhombic'
loop_
_space_group_symop_operation_xyz
x,y,z
-x,-y,z
x,-y,1/2-z
-x,y,1/2-z
-x,-y,-z
x,y,-z
-x,y,1/2+z
x,-y,1/2+z
1/2+x,1/2+y,1/2+z
1/2-x,1/2-y,1/2+z
1/2+x,1/2-y,-z
1/2-x,1/2+y,-z
1/2-x,1/2-y,1/2-z
1/2+x,1/2+y,1/2-z
1/2-x,1/2+y,z
1/2+x,1/2-y,z
loop_
_atom_site_type_symbol
_atom_site_label
_atom_site_fract_x
_atom_site_fract_y
_atom_site_fract_z
Si Si1 0.052299 0.217714 0.158684
Si Si2 0.149573 0.080779 0.593822
Si Si3 0.250337 0.306155 0.906674
Si Si4 0.334359 0.390579 0.403404
Si Si5 0.338685 0.986695 0.656204
O O1 0.136629 0.274648 0.150136
O O2 0.165898 0.170691 0.131179
O O3 0.000000 0.208796 0.250000
O O4 0.913026 0.218137 0.099888
O O5 0.133649 0.092902 0.500000
O O6 0.244552 0.131614 0.627752
O O7 0.984630 0.081129 0.627381
O O8 0.223744 0.023452 0.608632
O O9 0.199442 0.302053 0.000000
O O10 0.313648 0.390202 0.500000
O O11 0.201387 0.424144 0.362876
O O12 0.500000 0.000000 0.623846
O O13 0.325748 0.000000 0.750000
#
# Coordination Sequence:
#
# PCOD8294796 Si02
#       5
#    16  16  16  16  16
#     4  11  23  39  63  99 128 167 210 266 318 379
#     4   9  20  39  62  87 118 161 211 259 310 376
#     4  10  21  40  63  89 128 168 211 259 316 384
#     4  10  22  40  65  91 121 163 215 260 312 387
#     4  11  25  40  57  89 125 162 205 265 326 379
#
# _framework density 21.495325999999999
#
# number of rings (size 3 to 8) (size 9 to 14) (size 15 to 20)
#    0.000    1.800    0.000    4.800    5.600    5.600 
#    3.600    2.000    0.000    0.000    0.000    0.000 
#    0.000    0.000    0.000    0.000    0.000    0.000 
#
# Total GULP energy -496023.583641 kJ/mol
# GULP energy per Si atom -12400.589591 kJ/mol
# Density = 2.144640 g / cm^3
# Si number density = 21.495326 Si / 1000 Ang^3
#
#
#
# Elastic Constant Matrix: (Units=GPa)
#
#
# Indices 1 2 3 4 5 6 
#
# 1 59.5240 23.5500 15.2211 0.0000 0.0000 0.0000
# 2 23.5500 75.3278 22.1628 0.0000 0.0000 0.0000
# 3 15.2211 22.1628 83.0334 0.0002 -0.0001 -0.0001
# 4 0.0000 0.0000 0.0002 33.0129 0.0000 0.0000
# 5 0.0000 0.0000 -0.0001 0.0000 16.1675 0.0000
# 6 0.0000 0.0000 -0.0001 0.0000 0.0000 48.1567
#
#
#
# Elastic Compliance Matrix: (Units=1/GPa)
#
#
# Indices 1 2 3 4 5 6 
#
# 1 0.019507 -0.005477 -0.002114 0.000000 0.000000 0.000000
# 2 -0.005477 0.015944 -0.003252 0.000000 0.000000 0.000000
# 3 -0.002114 -0.003252 0.013299 0.000000 0.000000 0.000000
# 4 0.000000 0.000000 0.000000 0.030291 0.000000 0.000000
# 5 0.000000 0.000000 0.000000 0.000000 0.061853 0.000000
# 6 0.000000 0.000000 0.000000 0.000000 0.000000 0.020766
#
#
# Mechanical properties :
#
#
# Convention : Reuss Voigt Hill
#
# Bulk Modulus (GPa) = 36.94777 37.75034 37.34905
# Shear Modulus (GPa) = 25.99203 29.93083 27.96143
#
# Velocity S-wave (km/s) = 3.48112 3.73558 3.61059
# Velocity P-wave (km/s) = 5.77786 6.01717 5.89873
#
# Compressibility (1/GPa) = 0.02706523
#
# Stress axis : x y z
#
# Youngs Moduli (GPa) = 51.26277 62.71863 75.19438
#
# Poissons Ratio (x) = 0.34349 0.15897
# Poissons Ratio (y) = 0.28075 0.24452
# Poissons Ratio (z) = 0.10838 0.20395
#
# Static dielectric constant tensor:
#      x y z
#    x 3.845290 0.000000 0.000000 
#    y 0.000000 3.977440 0.000000 
#    z 0.000000 0.000000 3.678210 
# 
# 
# High freq. dielectric constant tensor:
#      x y z
#    x 1.833930 0.000000 0.000000 
#    y 0.000000 1.848140 0.000000 
#    z 0.000000 0.000000 1.837670 
# 
# From -- ./inp_files/28194.got.cif
#   From: 2010.03.12/outbox.cif.g09.slc.cpg/sg72_15_cif.got.tgz:28194.got - 2010.04.16 14:54:00.
