data_PCOD8294775
_publ_section_title
;
Structure prediction by ZEFSAII (Michael W. Deem and Ramdas Pophale) SiO2 
 PCOD8294775
Probable space group: I B A M
;
_chemical_formula_sum "Si O2"
_cell_formula_units_Z 112
_cell_length_a 12.005981
_cell_length_b 30.513562
_cell_length_c 14.300754
_cell_angle_alpha 90.000000
_cell_angle_beta 90.000000
_cell_angle_gamma 90.000000
_cell_volume 5239.013237
_symmetry_space_group_name_H-M "I B A M"
_symmetry_group_IT_number 72
_symmetry_cell_setting 'orthorhombic'
loop_
_space_group_symop_operation_xyz
x,y,z
-x,-y,z
x,-y,1/2-z
-x,y,1/2-z
-x,-y,-z
x,y,-z
-x,y,1/2+z
x,-y,1/2+z
1/2+x,1/2+y,1/2+z
1/2-x,1/2-y,1/2+z
1/2+x,1/2-y,-z
1/2-x,1/2+y,-z
1/2-x,1/2-y,1/2-z
1/2+x,1/2+y,1/2-z
1/2-x,1/2+y,z
1/2+x,1/2-y,z
loop_
_atom_site_type_symbol
_atom_site_label
_atom_site_fract_x
_atom_site_fract_y
_atom_site_fract_z
Si Si1 0.089150 0.307884 0.169012
Si Si2 0.872471 0.083046 0.236417
Si Si3 0.660739 0.318368 0.720613
Si Si4 0.035938 0.215648 0.893940
Si Si5 0.202741 0.433164 0.608194
Si Si6 0.029394 0.598309 0.606384
Si Si7 0.783972 0.465385 0.391915
O O1 0.211835 0.304255 0.212393
O O2 0.068149 0.266828 0.101660
O O3 0.073931 0.352464 0.111773
O O4 0.000000 0.306498 0.250000
O O5 0.858053 0.131188 0.192188
O O6 0.810412 0.082609 0.336009
O O7 0.826357 0.046236 0.166022
O O8 0.000000 0.070908 0.250000
O O9 0.588165 0.289329 0.648631
O O10 0.621834 0.310687 0.827725
O O11 0.041008 0.197217 0.000000
O O12 0.224475 0.421610 0.500000
O O13 0.181882 0.484617 0.623043
O O14 0.094026 0.407685 0.650438
O O15 0.016238 0.583281 0.500000
O O16 0.118163 0.564960 0.651743
O O17 0.760461 0.454545 0.500000
#
# Coordination Sequence:
#
# PCOD8294775 Si02
#       7
#    16  16  16  16  16  16  16
#     4  12  23  42  69  98 140 169 212 273 327 396
#     4  12  24  43  66  90 127 175 226 267 320 389
#     4  11  24  48  66  96 136 172 217 280 329 388
#     4  11  25  44  69  97 128 176 225 271 331 393
#     4  10  23  42  65  98 134 167 213 275 328 384
#     4  10  21  39  66 100 132 170 213 259 329 401
#     4  10  22  41  66  96 132 172 216 268 326 387
#
# _framework density 21.378070000000001
#
# number of rings (size 3 to 8) (size 9 to 14) (size 15 to 20)
#    0.000    1.143    4.286    2.571    0.000    5.714 
#    0.000    3.571    0.000    0.000    0.000    0.000 
#    0.000    0.000    0.000    0.000    0.000    0.000 
#
# Total GULP energy -694589.458321 kJ/mol
# GULP energy per Si atom -12403.383184 kJ/mol
# Density = 2.132941 g / cm^3
# Si number density = 21.378070 Si / 1000 Ang^3
#
#
#
# Elastic Constant Matrix: (Units=GPa)
#
#
# Indices 1 2 3 4 5 6 
#
# 1 184.0264 28.7563 54.7609 0.0000 0.0001 0.0000
# 2 28.7563 88.2140 15.1917 -0.0003 0.0004 0.0000
# 3 54.7609 15.1917 93.1847 -0.0006 0.0004 0.0002
# 4 0.0000 -0.0003 -0.0006 29.9556 0.0000 0.0000
# 5 0.0001 0.0004 0.0004 0.0000 20.4961 -0.0003
# 6 0.0000 0.0000 0.0002 0.0000 -0.0003 36.4969
#
#
#
# Elastic Compliance Matrix: (Units=1/GPa)
#
#
# Indices 1 2 3 4 5 6 
#
# 1 0.006791 -0.001571 -0.003735 0.000000 0.000000 0.000000
# 2 -0.001571 0.012027 -0.001038 0.000000 0.000000 0.000000
# 3 -0.003735 -0.001038 0.013095 0.000000 0.000000 0.000000
# 4 0.000000 0.000000 0.000000 0.033383 0.000000 0.000000
# 5 0.000000 0.000000 0.000000 0.000000 0.048790 0.000000
# 6 0.000000 0.000000 0.000000 0.000000 0.000000 0.027400
#
#
# Mechanical properties :
#
#
# Convention : Reuss Voigt Hill
#
# Bulk Modulus (GPa) = 52.01034 62.53812 57.27423
# Shear Modulus (GPa) = 31.13722 35.17080 33.15401
#
# Velocity S-wave (km/s) = 3.82056 4.06048 3.94235
# Velocity P-wave (km/s) = 6.62147 7.16242 6.89725
#
# Compressibility (1/GPa) = 0.01922695
#
# Stress axis : x y z
#
# Youngs Moduli (GPa) = 147.25972 83.14797 76.36364
#
# Poissons Ratio (x) = 0.13059 0.28519
# Poissons Ratio (y) = 0.23127 0.07925
# Poissons Ratio (z) = 0.54996 0.08629
#
# Static dielectric constant tensor:
#      x y z
#    x 3.956680 0.000000 0.000000 
#    y 0.000000 4.093260 0.000000 
#    z 0.000000 0.000000 3.718660 
# 
# 
# High freq. dielectric constant tensor:
#      x y z
#    x 1.843670 0.000000 0.000000 
#    y 0.000000 1.847340 0.000000 
#    z 0.000000 0.000000 1.833410 
# 
# From -- ./inp_files/20688.got.cif
#   From: 2010.03.12/outbox.cif.g09.slc.cpg/sg72_11_cif.got.tgz:20688.got - 2010.04.16 14:54:00.
