data_PCOD8294341
_publ_section_title
;
Structure prediction by ZEFSAII (Michael W. Deem and Ramdas Pophale) SiO2 
 PCOD8294341
Probable space group: I B A M
;
_chemical_formula_sum "Si O2"
_cell_formula_units_Z 120
_cell_length_a 22.022476
_cell_length_b 11.911947
_cell_length_c 24.121922
_cell_angle_alpha 90.000000
_cell_angle_beta 90.000000
_cell_angle_gamma 90.000000
_cell_volume 6327.917473
_symmetry_space_group_name_H-M "I B A M"
_symmetry_group_IT_number 72
_symmetry_cell_setting 'orthorhombic'
loop_
_space_group_symop_operation_xyz
x,y,z
-x,-y,z
x,-y,1/2-z
-x,y,1/2-z
-x,-y,-z
x,y,-z
-x,y,1/2+z
x,-y,1/2+z
1/2+x,1/2+y,1/2+z
1/2-x,1/2-y,1/2+z
1/2+x,1/2-y,-z
1/2-x,1/2+y,-z
1/2-x,1/2-y,1/2-z
1/2+x,1/2+y,1/2-z
1/2-x,1/2+y,z
1/2+x,1/2-y,z
loop_
_atom_site_type_symbol
_atom_site_label
_atom_site_fract_x
_atom_site_fract_y
_atom_site_fract_z
Si Si1 0.755308 0.500000 0.250000
Si Si2 0.091188 0.683250 0.936802
Si Si3 0.345843 0.324342 0.723816
Si Si4 0.460434 0.279542 0.436025
Si Si5 0.381922 0.067834 0.563311
Si Si6 0.567209 0.536196 0.652984
Si Si7 0.347851 0.676979 0.348160
Si Si8 0.706946 0.871723 0.345920
O O1 0.714248 0.601988 0.270530
O O2 0.799736 0.532868 0.200440
O O3 0.083210 0.549873 0.927212
O O4 0.140168 0.726554 0.892913
O O5 0.030371 0.752306 0.924609
O O6 0.113086 0.705167 0.000000
O O7 0.403651 0.395987 0.704080
O O8 0.361059 0.277500 0.785531
O O9 0.331020 0.233646 0.676937
O O10 0.448621 0.309250 0.500000
O O11 0.426028 0.167123 0.417845
O O12 0.437891 0.386251 0.401496
O O13 0.361895 0.081033 0.500000
O O14 0.320395 0.078667 0.598025
O O15 0.500000 0.500000 0.671783
O O16 0.610828 0.431776 0.638816
O O17 0.277565 0.649507 0.356148
#
# Coordination Sequence:
#
# PCOD8294341 Si02
#       8
#     8  16  16  16  16  16  16  16
#     4  10  20  38  59  88 115 162 198 242 288 356
#     4  10  22  40  62  87 116 154 199 246 297 353
#     4  11  22  40  57  89 121 160 200 238 298 356
#     4  10  21  41  64  87 115 154 202 245 297 357
#     4  10  22  40  63  88 116 153 198 250 301 348
#     4  12  22  39  61  91 122 156 194 248 300 352
#     4  11  23  38  61  90 121 158 198 242 292 357
#     4  11  23  37  64  85 123 155 204 242 292 355
#
# _framework density 18.963584000000001
#
# number of rings (size 3 to 8) (size 9 to 14) (size 15 to 20)
#    0.000    1.333    5.333    2.000    3.733    4.000 
#    0.000    0.000    0.000    0.000    0.000    0.000 
#    0.000    0.000    0.000    0.000    0.000    0.000 
#
# Total GULP energy -743888.961433 kJ/mol
# GULP energy per Si atom -12398.149357 kJ/mol
# Density = 1.892042 g / cm^3
# Si number density = 18.963584 Si / 1000 Ang^3
#
#
#
# Elastic Constant Matrix: (Units=GPa)
#
#
# Indices 1 2 3 4 5 6 
#
# 1 74.3079 27.5017 33.7901 0.0000 0.0000 0.0000
# 2 27.5017 77.5716 40.6850 0.0000 0.0000 0.0000
# 3 33.7901 40.6850 77.6955 0.0000 0.0000 0.0000
# 4 0.0000 0.0000 0.0000 39.8151 0.0000 0.0000
# 5 0.0000 0.0000 0.0000 0.0000 27.0711 0.0000
# 6 0.0000 0.0000 0.0000 0.0000 0.0000 23.0236
#
#
#
# Elastic Compliance Matrix: (Units=1/GPa)
#
#
# Indices 1 2 3 4 5 6 
#
# 1 0.017270 -0.003010 -0.005935 0.000000 0.000000 0.000000
# 2 -0.003010 0.018297 -0.008272 0.000000 0.000000 0.000000
# 3 -0.005935 -0.008272 0.019783 0.000000 0.000000 0.000000
# 4 0.000000 0.000000 0.000000 0.025116 0.000000 0.000000
# 5 0.000000 0.000000 0.000000 0.000000 0.036940 0.000000
# 6 0.000000 0.000000 0.000000 0.000000 0.000000 0.043434
#
#
# Mechanical properties :
#
#
# Convention : Reuss Voigt Hill
#
# Bulk Modulus (GPa) = 47.80819 48.16985 47.98902
# Shear Modulus (GPa) = 24.72231 26.48851 25.60541
#
# Velocity S-wave (km/s) = 3.61456 3.74145 3.67855
# Velocity P-wave (km/s) = 6.53340 6.64236 6.58810
#
# Compressibility (1/GPa) = 0.02091692
#
# Stress axis : x y z
#
# Youngs Moduli (GPa) = 57.90295 54.65339 50.54753
#
# Poissons Ratio (x) = 0.16452 0.29998
# Poissons Ratio (y) = 0.17431 0.41813
# Poissons Ratio (z) = 0.34363 0.45210
#
# Static dielectric constant tensor:
#      x y z
#    x 3.405220 0.000000 0.000000 
#    y 0.000000 3.660750 0.000000 
#    z 0.000000 0.000000 3.671650 
# 
# 
# High freq. dielectric constant tensor:
#      x y z
#    x 1.729980 0.000000 0.000000 
#    y 0.000000 1.742400 0.000000 
#    z 0.000000 0.000000 1.743510 
# 
# From -- ./inp_files/45453.got.cif
#   From: 2010.03.12/outbox.cif.g09.slc.cpg/sg72_23_cif.got.tgz:45453.got - 2010.04.16 14:54:00.
