data_PCOD8294377
_publ_section_title
;
Structure prediction by ZEFSAII (Michael W. Deem and Ramdas Pophale) SiO2 
 PCOD8294377
Probable space group: I B A M
;
_chemical_formula_sum "Si O2"
_cell_formula_units_Z 104
_cell_length_a 13.055146
_cell_length_b 17.223632
_cell_length_c 25.085614
_cell_angle_alpha 90.000000
_cell_angle_beta 90.000000
_cell_angle_gamma 90.000000
_cell_volume 5640.676670
_symmetry_space_group_name_H-M "I B A M"
_symmetry_group_IT_number 72
_symmetry_cell_setting 'orthorhombic'
loop_
_space_group_symop_operation_xyz
x,y,z
-x,-y,z
x,-y,1/2-z
-x,y,1/2-z
-x,-y,-z
x,y,-z
-x,y,1/2+z
x,-y,1/2+z
1/2+x,1/2+y,1/2+z
1/2-x,1/2-y,1/2+z
1/2+x,1/2-y,-z
1/2-x,1/2+y,-z
1/2-x,1/2-y,1/2-z
1/2+x,1/2+y,1/2-z
1/2-x,1/2+y,z
1/2+x,1/2-y,z
loop_
_atom_site_type_symbol
_atom_site_label
_atom_site_fract_x
_atom_site_fract_y
_atom_site_fract_z
Si Si1 0.236902 0.178163 0.177288
Si Si2 0.610954 0.166346 0.500000
Si Si3 0.100492 0.772615 0.773180
Si Si4 0.569990 0.387293 0.369773
Si Si5 0.239491 0.518322 0.000000
Si Si6 0.278190 0.276174 0.919579
Si Si7 0.353131 0.449647 0.610445
Si Si8 0.134280 0.649166 0.500000
O O1 0.157034 0.183967 0.225004
O O2 0.346936 0.195509 0.203351
O O3 0.225770 0.247629 0.134747
O O4 0.230180 0.095440 0.147073
O O5 0.648134 0.078834 0.500000
O O6 0.657759 0.207996 0.551943
O O7 0.487932 0.160082 0.500000
O O8 0.072368 0.838774 0.815680
O O9 0.000000 0.734203 0.750000
O O10 0.640192 0.345394 0.413609
O O11 0.618217 0.471756 0.358738
O O12 0.454603 0.395096 0.393132
O O13 0.311461 0.530735 0.051681
O O14 0.177951 0.437934 0.000000
O O15 0.178568 0.306233 0.949448
#
# Coordination Sequence:
#
# PCOD8294377 Si02
#       8
#    16   8  16  16   8  16  16   8
#     4  10  21  37  60  88 122 156 197 252 303 352
#     4  11  24  35  63  83 112 167 210 245 296 369
#     4  10  20  38  63  91 120 156 202 252 308 364
#     4  10  22  37  60  92 123 156 197 251 316 355
#     4  12  23  42  58  89 124 166 202 242 304 365
#     4  10  22  39  57  90 117 155 203 255 301 350
#     4  11  22  38  61  90 125 162 195 251 302 370
#     4  11  24  40  60  82 126 161 206 249 297 371
#
# _framework density 18.437504000000001
#
# number of rings (size 3 to 8) (size 9 to 14) (size 15 to 20)
#    0.000    1.538    4.615    0.231    2.154    3.077 
#    0.000    0.000    0.000    0.000    0.000    1.077 
#    0.000    0.000    0.000    0.000    0.000    0.000 
#
# Total GULP energy -644372.329411 kJ/mol
# GULP energy per Si atom -12391.775566 kJ/mol
# Density = 1.839554 g / cm^3
# Si number density = 18.437504 Si / 1000 Ang^3
#
#
#
# Elastic Constant Matrix: (Units=GPa)
#
#
# Indices 1 2 3 4 5 6 
#
# 1 130.0662 55.6185 50.7473 0.0000 0.0000 0.0000
# 2 55.6185 84.4277 23.7038 0.0000 0.0000 0.0000
# 3 50.7473 23.7038 89.2290 0.0000 0.0000 0.0000
# 4 0.0000 0.0000 0.0000 -20.9249 0.0000 0.0000
# 5 0.0000 0.0000 0.0000 0.0000 19.0731 0.0000
# 6 0.0000 0.0000 0.0000 0.0000 0.0000 -10.1642
#
#
#
# Elastic Compliance Matrix: (Units=1/GPa)
#
#
# Indices 1 2 3 4 5 6 
#
# 1 0.012742 -0.006872 -0.005421 0.000000 0.000000 0.000000
# 2 -0.006872 0.016505 -0.000476 0.000000 0.000000 0.000000
# 3 -0.005421 -0.000476 0.014417 0.000000 0.000000 0.000000
# 4 0.000000 0.000000 0.000000 -0.047790 0.000000 0.000000
# 5 0.000000 0.000000 0.000000 0.000000 0.052430 0.000000
# 6 0.000000 0.000000 0.000000 0.000000 0.000000 -0.098385
#
#
# Mechanical properties :
#
#
# Convention : Reuss Voigt Hill
#
# Bulk Modulus (GPa) = 55.17226 62.65133 58.91180
# Shear Modulus (GPa) = -270.28513 9.17369 -130.55572
#
# Velocity S-wave (km/s) = -12.12079 2.23302 -8.42399
# Velocity P-wave (km/s) = 12.88006 6.37986 7.91180
#
# Compressibility (1/GPa) = 0.01812505
#
# Stress axis : x y z
#
# Youngs Moduli (GPa) = 78.47914 60.58652 69.36303
#
# Poissons Ratio (x) = 0.41636 0.37604
# Poissons Ratio (y) = 0.53932 0.03304
# Poissons Ratio (z) = 0.42546 0.02886
#
# Static dielectric constant tensor:
#      x y z
#    x 3.531330 0.000000 0.000000 
#    y 0.000000 3.418000 0.000000 
#    z 0.000000 0.000000 5.440800 
# 
# 
# High freq. dielectric constant tensor:
#      x y z
#    x 1.718650 0.000000 0.000000 
#    y 0.000000 1.712490 0.000000 
#    z 0.000000 0.000000 1.724750 
# 
# From -- ./inp_files/48202.got.cif
#   From: 2010.03.12/outbox.cif.g09.slc.cpg/sg72_25_cif.got.tgz:48202.got - 2010.04.16 14:54:00.
