data_PCOD8294054
_publ_section_title
;
Structure prediction by ZEFSAII (Michael W. Deem and Ramdas Pophale) SiO2 
 PCOD8294054
Probable space group: I B A M
;
_chemical_formula_sum "Si O2"
_cell_formula_units_Z 116
_cell_length_a 31.016751
_cell_length_b 21.846150
_cell_length_c 8.951023
_cell_angle_alpha 90.000000
_cell_angle_beta 90.000000
_cell_angle_gamma 90.000000
_cell_volume 6065.182705
_symmetry_space_group_name_H-M "I B A M"
_symmetry_group_IT_number 72
_symmetry_cell_setting 'orthorhombic'
loop_
_space_group_symop_operation_xyz
x,y,z
-x,-y,z
x,-y,1/2-z
-x,y,1/2-z
-x,-y,-z
x,y,-z
-x,y,1/2+z
x,-y,1/2+z
1/2+x,1/2+y,1/2+z
1/2-x,1/2-y,1/2+z
1/2+x,1/2-y,-z
1/2-x,1/2+y,-z
1/2-x,1/2-y,1/2-z
1/2+x,1/2+y,1/2-z
1/2-x,1/2+y,z
1/2+x,1/2-y,z
loop_
_atom_site_type_symbol
_atom_site_label
_atom_site_fract_x
_atom_site_fract_y
_atom_site_fract_z
Si Si1 0.839174 0.561955 0.677349
Si Si2 0.956505 0.726878 0.323277
Si Si3 0.000000 0.500000 0.250000
Si Si4 0.398045 0.322114 0.327789
Si Si5 0.068036 0.595742 0.833963
Si Si6 0.717400 0.836240 0.327256
Si Si7 0.544711 0.437196 0.824312
Si Si8 0.800967 0.197150 0.328975
O O1 0.820931 0.500000 0.750000
O O2 0.838264 0.555053 0.500000
O O3 0.887873 0.572204 0.742541
O O4 0.809316 0.617562 0.726167
O O5 0.962298 0.727835 0.500000
O O6 0.916721 0.768997 0.276430
O O7 0.948796 0.658180 0.257097
O O8 0.000000 0.753298 0.250000
O O9 0.968833 0.456184 0.155003
O O10 0.405688 0.303440 0.500000
O O11 0.419744 0.386483 0.289020
O O12 0.347714 0.330068 0.292485
O O13 0.081265 0.614845 0.000000
O O14 0.714101 0.855360 0.500000
O O15 0.767312 0.837325 0.277722
O O16 0.697779 0.769481 0.296764
O O17 0.561030 0.500000 0.750000
O O18 0.500000 0.415986 0.750000
O O19 0.537599 0.446936 0.000000
O O20 0.787382 0.185070 0.500000
#
# Coordination Sequence:
#
# PCOD8294054 Si02
#       8
#    16  16   4  16  16  16  16  16
#     4  11  22  38  57  81 111 146 188 234 283 334
#     4  11  22  36  53  79 113 150 191 236 283 331
#     4  12  18  40  56  74 112 152 200 240 282 328
#     4  10  21  37  57  84 113 145 183 227 280 333
#     4  10  22  36  54  79 109 150 196 239 284 331
#     4  10  20  36  59  86 111 142 184 227 277 336
#     4  10  20  35  56  80 109 143 182 219 260 319
#     4   9  19  37  60  84 112 145 180 224 278 334
#
# _framework density 19.125557000000001
#
# number of rings (size 3 to 8) (size 9 to 14) (size 15 to 20)
#    0.000    1.793    1.379    3.517    0.000    3.310 
#    0.000    2.759    0.000    1.655    0.000    0.000 
#    0.000    0.000    0.000    0.000    0.000    0.000 
#
# Total GULP energy -719269.741818 kJ/mol
# GULP energy per Si atom -12401.202445 kJ/mol
# Density = 1.908203 g / cm^3
# Si number density = 19.125557 Si / 1000 Ang^3
#
#
#
# Elastic Constant Matrix: (Units=GPa)
#
#
# Indices 1 2 3 4 5 6 
#
# 1 123.3846 68.2452 42.0542 0.0000 0.0000 0.0000
# 2 68.2452 102.3005 42.3854 0.0000 0.0000 0.0000
# 3 42.0542 42.3854 85.8771 0.0000 0.0000 0.0000
# 4 0.0000 0.0000 0.0000 28.1653 0.0000 0.0000
# 5 0.0000 0.0000 0.0000 0.0000 27.6712 0.0000
# 6 0.0000 0.0000 0.0000 0.0000 0.0000 24.8183
#
#
#
# Elastic Compliance Matrix: (Units=1/GPa)
#
#
# Indices 1 2 3 4 5 6 
#
# 1 0.013319 -0.007772 -0.002686 0.000000 0.000000 0.000000
# 2 -0.007772 0.016823 -0.004497 0.000000 0.000000 0.000000
# 3 -0.002686 -0.004497 0.015180 0.000000 0.000000 0.000000
# 4 0.000000 0.000000 0.000000 0.035505 0.000000 0.000000
# 5 0.000000 0.000000 0.000000 0.000000 0.036139 0.000000
# 6 0.000000 0.000000 0.000000 0.000000 0.000000 0.040293
#
#
# Mechanical properties :
#
#
# Convention : Reuss Voigt Hill
#
# Bulk Modulus (GPa) = 64.89063 68.54800 66.71932
# Shear Modulus (GPa) = 26.00004 26.72279 26.36142
#
# Velocity S-wave (km/s) = 3.69106 3.74201 3.71662
# Velocity P-wave (km/s) = 7.22272 7.38844 7.30605
#
# Compressibility (1/GPa) = 0.01541054
#
# Stress axis : x y z
#
# Youngs Moduli (GPa) = 75.07883 59.44102 65.87738
#
# Poissons Ratio (x) = 0.46200 0.17697
# Poissons Ratio (y) = 0.58354 0.29626
# Poissons Ratio (z) = 0.20169 0.26732
#
# Static dielectric constant tensor:
#      x y z
#    x 3.505150 0.000000 0.000000 
#    y 0.000000 3.465780 0.000000 
#    z 0.000000 0.000000 3.396150 
# 
# 
# High freq. dielectric constant tensor:
#      x y z
#    x 1.744920 0.000000 0.000000 
#    y 0.000000 1.742530 0.000000 
#    z 0.000000 0.000000 1.739240 
# 
# From -- ./inp_files/8396.got.cif
#   From: 2010.03.12/outbox.cif.g09.slc.cpg/sg72_5_cif.got.tgz:8396.got - 2010.04.16 14:54:00.
