data_PCOD8294780
_publ_section_title
;
Structure prediction by ZEFSAII (Michael W. Deem and Ramdas Pophale) SiO2 
 PCOD8294780
Probable space group: I B A M
;
_chemical_formula_sum "Si O2"
_cell_formula_units_Z 96
_cell_length_a 14.217818
_cell_length_b 21.442815
_cell_length_c 14.363220
_cell_angle_alpha 90.000000
_cell_angle_beta 90.000000
_cell_angle_gamma 90.000000
_cell_volume 4378.915471
_symmetry_space_group_name_H-M "I B A M"
_symmetry_group_IT_number 72
_symmetry_cell_setting 'orthorhombic'
loop_
_space_group_symop_operation_xyz
x,y,z
-x,-y,z
x,-y,1/2-z
-x,y,1/2-z
-x,-y,-z
x,y,-z
-x,y,1/2+z
x,-y,1/2+z
1/2+x,1/2+y,1/2+z
1/2-x,1/2-y,1/2+z
1/2+x,1/2-y,-z
1/2-x,1/2+y,-z
1/2-x,1/2-y,1/2-z
1/2+x,1/2+y,1/2-z
1/2-x,1/2+y,z
1/2+x,1/2-y,z
loop_
_atom_site_type_symbol
_atom_site_label
_atom_site_fract_x
_atom_site_fract_y
_atom_site_fract_z
Si Si1 0.342214 0.308714 0.500000
Si Si2 0.090651 0.890478 0.199306
Si Si3 0.000000 0.664894 0.250000
Si Si4 0.036037 0.432742 0.894717
Si Si5 0.815192 0.053233 0.500000
Si Si6 0.767502 0.468765 0.661054
Si Si7 0.992097 0.889415 0.500000
Si Si8 0.846856 0.235477 0.703640
O O1 0.282405 0.373982 0.500000
O O2 0.453279 0.323936 0.500000
O O3 0.324042 0.269797 0.406466
O O4 0.185768 0.928625 0.210220
O O5 0.103914 0.824976 0.252219
O O6 0.000000 0.922248 0.250000
O O7 0.074938 0.888303 0.088934
O O8 0.019185 0.620074 0.162238
O O9 0.910447 0.705544 0.225325
O O10 0.150225 0.428140 0.886566
O O11 0.000000 0.500000 0.861115
O O12 0.005508 0.420918 0.000000
O O13 0.776790 0.018740 0.409390
O O14 0.930696 0.053533 0.500000
O O15 0.817287 0.500000 0.750000
O O16 0.750000 0.250000 0.750000
#
# Coordination Sequence:
#
# PCOD8294780 Si02
#       8
#     8  16   8  16   8  16   8  16
#     4  10  22  47  67  96 152 183 237 306 358 425
#     4  12  23  43  66 103 148 191 239 305 362 430
#     4  12  25  48  78 100 141 186 248 292 374 430
#     4  11  26  49  73 105 146 184 238 311 366 440
#     4  10  23  42  66 106 142 196 237 291 366 446
#     4  12  23  40  71 106 146 192 245 293 368 439
#     4  10  21  39  67  88 144 191 228 284 369 420
#     4  12  26  47  72 106 139 192 246 301 363 439
#
# _framework density 21.923237
#
# number of rings (size 3 to 8) (size 9 to 14) (size 15 to 20)
#    0.500    0.167    3.333    4.750    1.167    5.000 
#    3.000    0.000    0.000    0.000    0.000    0.000 
#    0.000    0.000    0.000    0.000    0.000    0.000 
#
# Total GULP energy -595016.859480 kJ/mol
# GULP energy per Si atom -12396.184573 kJ/mol
# Density = 2.187334 g / cm^3
# Si number density = 21.923237 Si / 1000 Ang^3
#
#
#
# Elastic Constant Matrix: (Units=GPa)
#
#
# Indices 1 2 3 4 5 6 
#
# 1 68.8405 32.8856 33.6532 0.0000 0.0000 0.0000
# 2 32.8856 116.8686 62.7200 -0.0001 0.0000 0.0000
# 3 33.6532 62.7200 173.7730 -0.0001 0.0000 0.0000
# 4 0.0000 -0.0001 -0.0001 33.9838 0.0000 0.0000
# 5 0.0000 0.0000 0.0000 0.0000 34.7453 -0.0001
# 6 0.0000 0.0000 0.0000 0.0000 -0.0001 25.2364
#
#
#
# Elastic Compliance Matrix: (Units=1/GPa)
#
#
# Indices 1 2 3 4 5 6 
#
# 1 0.017313 -0.003810 -0.001978 0.000000 0.000000 0.000000
# 2 -0.003810 0.011451 -0.003395 0.000000 0.000000 0.000000
# 3 -0.001978 -0.003395 0.007363 0.000000 0.000000 0.000000
# 4 0.000000 0.000000 0.000000 0.029426 0.000000 0.000000
# 5 0.000000 0.000000 0.000000 0.000000 0.028781 0.000000
# 6 0.000000 0.000000 0.000000 0.000000 0.000000 0.039625
#
#
# Mechanical properties :
#
#
# Convention : Reuss Voigt Hill
#
# Bulk Modulus (GPa) = 56.30314 68.66666 62.48490
# Shear Modulus (GPa) = 31.59641 34.14131 32.86886
#
# Velocity S-wave (km/s) = 3.80047 3.95056 3.87624
# Velocity P-wave (km/s) = 6.70789 7.22486 6.97117
#
# Compressibility (1/GPa) = 0.01776100
#
# Stress axis : x y z
#
# Youngs Moduli (GPa) = 57.75868 87.32963 135.81427
#
# Poissons Ratio (x) = 0.33277 0.26859
# Poissons Ratio (y) = 0.22009 0.46109
# Poissons Ratio (z) = 0.11423 0.29649
#
# Static dielectric constant tensor:
#      x y z
#    x 3.583180 0.000000 -0.000010 
#    y 0.000000 3.659540 0.000000 
#    z -0.000010 0.000000 2.874680 
# 
# 
# High freq. dielectric constant tensor:
#      x y z
#    x 1.863030 0.000000 0.000000 
#    y 0.000000 1.850430 0.000000 
#    z 0.000000 0.000000 1.883630 
# 
# From -- ./inp_files/21941.got.cif
#   From: 2010.03.12/outbox.cif.g09.slc.cpg/sg72_11_cif.got.tgz:21941.got - 2010.04.16 14:54:00.
