data_PCOD8294285
_publ_section_title
;
Structure prediction by ZEFSAII (Michael W. Deem and Ramdas Pophale) SiO2 
 PCOD8294285
Probable space group: I B A M
;
_chemical_formula_sum "Si O2"
_cell_formula_units_Z 112
_cell_length_a 11.927091
_cell_length_b 18.226772
_cell_length_c 26.267176
_cell_angle_alpha 90.000000
_cell_angle_beta 90.000000
_cell_angle_gamma 90.000000
_cell_volume 5710.283599
_symmetry_space_group_name_H-M "I B A M"
_symmetry_group_IT_number 72
_symmetry_cell_setting 'orthorhombic'
loop_
_space_group_symop_operation_xyz
x,y,z
-x,-y,z
x,-y,1/2-z
-x,y,1/2-z
-x,-y,-z
x,y,-z
-x,y,1/2+z
x,-y,1/2+z
1/2+x,1/2+y,1/2+z
1/2-x,1/2-y,1/2+z
1/2+x,1/2-y,-z
1/2-x,1/2+y,-z
1/2-x,1/2-y,1/2-z
1/2+x,1/2+y,1/2-z
1/2-x,1/2+y,z
1/2+x,1/2-y,z
loop_
_atom_site_type_symbol
_atom_site_label
_atom_site_fract_x
_atom_site_fract_y
_atom_site_fract_z
Si Si1 0.802042 0.689925 0.690321
Si Si2 0.830349 0.966965 0.941766
Si Si3 0.081240 0.060856 0.651206
Si Si4 0.074219 0.434585 0.441393
Si Si5 0.024702 0.679470 0.367570
Si Si6 0.223054 0.644414 0.701021
Si Si7 0.397818 0.663467 0.118576
O O1 0.807685 0.636304 0.739574
O O2 0.763525 0.772383 0.698744
O O3 0.714722 0.651299 0.651865
O O4 0.928443 0.698916 0.671937
O O5 0.699747 0.959150 0.931089
O O6 0.883859 0.886402 0.931878
O O7 0.880146 0.028552 0.903904
O O8 0.855741 0.990546 0.000000
O O9 0.186300 0.082288 0.686277
O O10 0.009498 0.135045 0.646632
O O11 0.000000 0.000000 0.677542
O O12 0.050727 0.418366 0.500000
O O13 0.000000 0.500000 0.419837
O O14 0.035746 0.362076 0.413018
O O15 0.118473 0.633009 0.337210
O O16 0.082245 0.751096 0.393103
#
# Coordination Sequence:
#
# PCOD8294285 Si02
#       7
#    16  16  16  16  16  16  16
#     4  10  20  37  60  88 119 156 202 247 303 359
#     4  10  21  39  61  85 120 164 203 248 306 370
#     4  10  21  38  59  86 123 159 201 247 302 356
#     4  10  21  38  61  85 115 158 202 244 306 370
#     4  11  20  37  65  86 121 155 197 259 302 356
#     4  10  21  36  60  90 119 157 203 243 302 364
#     4  10  21  36  59  89 121 153 198 254 302 359
#
# _framework density 19.613737
#
# number of rings (size 3 to 8) (size 9 to 14) (size 15 to 20)
#    0.000    1.857    2.857    1.286    0.000    3.714 
#    0.000    5.000    0.000    1.714    0.000    0.000 
#    0.000    0.000    0.000    0.000    0.000    0.000 
#
# Total GULP energy -694021.560186 kJ/mol
# GULP energy per Si atom -12393.242146 kJ/mol
# Density = 1.956910 g / cm^3
# Si number density = 19.613737 Si / 1000 Ang^3
#
#
#
# Elastic Constant Matrix: (Units=GPa)
#
#
# Indices 1 2 3 4 5 6 
#
# 1 96.8315 11.1107 16.4740 0.0000 0.0000 0.0000
# 2 11.1107 39.6455 22.6510 0.0000 0.0000 0.0000
# 3 16.4740 22.6510 60.5379 0.0000 0.0000 0.0000
# 4 0.0000 0.0000 0.0000 25.5490 0.0000 0.0000
# 5 0.0000 0.0000 0.0000 0.0000 25.7283 0.0000
# 6 0.0000 0.0000 0.0000 0.0000 0.0000 39.8809
#
#
#
# Elastic Compliance Matrix: (Units=1/GPa)
#
#
# Indices 1 2 3 4 5 6 
#
# 1 0.010921 -0.001733 -0.002323 0.000000 0.000000 0.000000
# 2 -0.001733 0.032357 -0.011635 0.000000 0.000000 0.000000
# 3 -0.002323 -0.011635 0.021504 0.000000 0.000000 0.000000
# 4 0.000000 0.000000 0.000000 0.039140 0.000000 0.000000
# 5 0.000000 0.000000 0.000000 0.000000 0.038868 0.000000
# 6 0.000000 0.000000 0.000000 0.000000 0.000000 0.025075
#
#
# Mechanical properties :
#
#
# Convention : Reuss Voigt Hill
#
# Bulk Modulus (GPa) = 29.94106 33.05401 31.49754
# Shear Modulus (GPa) = 23.76633 28.01693 25.89163
#
# Velocity S-wave (km/s) = 3.48475 3.78356 3.63723
# Velocity P-wave (km/s) = 5.61158 5.99802 5.80801
#
# Compressibility (1/GPa) = 0.03339896
#
# Stress axis : x y z
#
# Youngs Moduli (GPa) = 91.56339 30.90540 46.50248
#
# Poissons Ratio (x) = 0.05357 0.10805
# Poissons Ratio (y) = 0.15870 0.54106
# Poissons Ratio (z) = 0.21275 0.35958
#
# Static dielectric constant tensor:
#      x y z
#    x 5.362700 0.000000 0.000000 
#    y 0.000000 3.401570 0.000000 
#    z 0.000000 0.000000 3.493430 
# 
# 
# High freq. dielectric constant tensor:
#      x y z
#    x 1.787220 0.000000 0.000000 
#    y 0.000000 1.753340 0.000000 
#    z 0.000000 0.000000 1.748290 
# 
# From -- ./inp_files/43538.got.cif
#   From: 2010.03.12/outbox.cif.g09.slc.cpg/sg72_22_cif.got.tgz:43538.got - 2010.04.16 14:54:00.
