data_PCOD8294568
_publ_section_title
;
Structure prediction by ZEFSAII (Michael W. Deem and Ramdas Pophale) SiO2 
 PCOD8294568
Probable space group: I B A M
;
_chemical_formula_sum "Si O2"
_cell_formula_units_Z 108
_cell_length_a 16.093531
_cell_length_b 33.197988
_cell_length_c 10.507838
_cell_angle_alpha 90.000000
_cell_angle_beta 90.000000
_cell_angle_gamma 90.000000
_cell_volume 5614.052545
_symmetry_space_group_name_H-M "I B A M"
_symmetry_group_IT_number 72
_symmetry_cell_setting 'orthorhombic'
loop_
_space_group_symop_operation_xyz
x,y,z
-x,-y,z
x,-y,1/2-z
-x,y,1/2-z
-x,-y,-z
x,y,-z
-x,y,1/2+z
x,-y,1/2+z
1/2+x,1/2+y,1/2+z
1/2-x,1/2-y,1/2+z
1/2+x,1/2-y,-z
1/2-x,1/2+y,-z
1/2-x,1/2-y,1/2-z
1/2+x,1/2+y,1/2-z
1/2-x,1/2+y,z
1/2+x,1/2-y,z
loop_
_atom_site_type_symbol
_atom_site_label
_atom_site_fract_x
_atom_site_fract_y
_atom_site_fract_z
Si Si1 0.437005 0.294543 0.640634
Si Si2 0.500000 0.000000 0.750000
Si Si3 0.195563 0.634733 0.357149
Si Si4 0.353023 0.951040 0.139567
Si Si5 0.829171 0.870573 0.858338
Si Si6 0.291966 0.500000 0.750000
Si Si7 0.068360 0.296982 0.145409
Si Si8 0.931580 0.051407 0.642639
O O1 0.500000 0.307408 0.750000
O O2 0.479489 0.297181 0.500000
O O3 0.361033 0.324949 0.647856
O O4 0.403779 0.249278 0.663977
O O5 0.559546 0.028616 0.830057
O O6 0.234598 0.637050 0.500000
O O7 0.132560 0.596907 0.349055
O O8 0.263766 0.625582 0.252837
O O9 0.148049 0.675791 0.325581
O O10 0.270111 0.963883 0.213742
O O11 0.330091 0.965220 0.000000
O O12 0.902217 0.902755 0.833369
O O13 0.790813 0.878348 0.000000
O O14 0.353301 0.520605 0.852845
O O15 0.000000 0.308698 0.250000
O O16 0.036066 0.304603 0.000000
O O17 0.970286 0.047541 0.500000
O O18 0.000000 0.040483 0.750000
#
# Coordination Sequence:
#
# PCOD8294568 Si02
#       8
#    16   4  16  16  16   8  16  16
#     4   9  18  34  56  81 111 145 181 224 270 322
#     4  10  22  36  58  86 110 144 192 240 280 340
#     4  10  21  37  56  80 111 146 183 224 276 331
#     4  10  21  38  58  82 113 148 187 233 283 336
#     4  10  21  38  56  80 112 145 185 228 275 326
#     4  11  21  39  61  80 110 150 185 233 279 343
#     4   9  19  35  56  82 112 144 181 223 272 328
#     4  11  24  39  58  85 113 147 190 235 282 336
#
# _framework density 19.237438999999998
#
# number of rings (size 3 to 8) (size 9 to 14) (size 15 to 20)
#    0.000    2.074    1.481    1.333    1.037    4.148 
#    0.000    0.741    0.000    0.000    0.000    0.000 
#    0.000    0.000    0.000    0.000    0.000    0.000 
#
# Total GULP energy -669087.643600 kJ/mol
# GULP energy per Si atom -12390.511919 kJ/mol
# Density = 1.919365 g / cm^3
# Si number density = 19.237439 Si / 1000 Ang^3
#
#
#
# Elastic Constant Matrix: (Units=GPa)
#
#
# Indices 1 2 3 4 5 6 
#
# 1 86.5900 34.1195 51.7530 -0.0018 0.0020 -0.0005
# 2 34.1195 88.4340 32.1189 -0.0008 0.0024 -0.0010
# 3 51.7530 32.1189 114.7771 -0.0368 0.0067 -0.0021
# 4 -0.0018 -0.0008 -0.0368 27.7586 0.0019 -0.0001
# 5 0.0020 0.0024 0.0067 0.0019 26.8523 -0.0008
# 6 -0.0005 -0.0010 -0.0021 -0.0001 -0.0008 26.9466
#
#
#
# Elastic Compliance Matrix: (Units=1/GPa)
#
#
# Indices 1 2 3 4 5 6 
#
# 1 0.017123 -0.004232 -0.006536 -0.000008 0.000001 0.000000
# 2 -0.004232 0.013633 -0.001907 -0.000002 0.000000 0.000000
# 3 -0.006536 -0.001907 0.012193 0.000016 -0.000002 0.000001
# 4 -0.000008 -0.000002 0.000016 0.036025 -0.000002 0.000000
# 5 0.000001 0.000000 -0.000002 -0.000002 0.037241 0.000001
# 6 0.000000 0.000000 0.000001 0.000000 0.000001 0.037110
#
#
# Mechanical properties :
#
#
# Convention : Reuss Voigt Hill
#
# Bulk Modulus (GPa) = 56.82235 58.42043 57.62139
# Shear Modulus (GPa) = 27.09392 27.76547 27.42970
#
# Velocity S-wave (km/s) = 3.75693 3.80321 3.78014
# Velocity P-wave (km/s) = 6.95851 7.05123 7.00502
#
# Compressibility (1/GPa) = 0.01759871
#
# Stress axis : x y z
#
# Youngs Moduli (GPa) = 58.40071 73.34975 82.01167
#
# Poissons Ratio (x) = 0.31045 0.53606
# Poissons Ratio (y) = 0.24717 0.15637
# Poissons Ratio (z) = 0.38173 0.13986
#
# Static dielectric constant tensor:
#      x y z
#    x 2.904330 -0.000010 0.000060 
#    y -0.000010 3.767810 -0.000140 
#    z 0.000060 -0.000140 3.272810 
# 
# 
# High freq. dielectric constant tensor:
#      x y z
#    x 1.714510 0.000000 0.000000 
#    y 0.000000 1.772470 0.000000 
#    z 0.000000 0.000000 1.759640 
# 
# From -- ./inp_files/13170.got.cif
#   From: 2010.03.12/outbox.cif.g09.slc.cpg/sg72_7_cif.got.tgz:13170.got - 2010.04.16 14:54:00.
