data_PCOD8294064
_publ_section_title
;
Structure prediction by ZEFSAII (Michael W. Deem and Ramdas Pophale) SiO2 
 PCOD8294064
Probable space group: I B A M
;
_chemical_formula_sum "Si O2"
_cell_formula_units_Z 116
_cell_length_a 23.091033
_cell_length_b 27.790553
_cell_length_c 8.994006
_cell_angle_alpha 90.000000
_cell_angle_beta 90.000000
_cell_angle_gamma 90.000000
_cell_volume 5771.566763
_symmetry_space_group_name_H-M "I B A M"
_symmetry_group_IT_number 72
_symmetry_cell_setting 'orthorhombic'
loop_
_space_group_symop_operation_xyz
x,y,z
-x,-y,z
x,-y,1/2-z
-x,y,1/2-z
-x,-y,-z
x,y,-z
-x,y,1/2+z
x,-y,1/2+z
1/2+x,1/2+y,1/2+z
1/2-x,1/2-y,1/2+z
1/2+x,1/2-y,-z
1/2-x,1/2+y,-z
1/2-x,1/2-y,1/2-z
1/2+x,1/2+y,1/2-z
1/2-x,1/2+y,z
1/2+x,1/2-y,z
loop_
_atom_site_type_symbol
_atom_site_label
_atom_site_fract_x
_atom_site_fract_y
_atom_site_fract_z
Si Si1 0.212786 0.546452 0.674930
Si Si2 0.869935 0.673146 0.672897
Si Si3 0.000000 0.500000 0.250000
Si Si4 0.631467 0.644905 0.172461
Si Si5 0.247236 0.139434 0.823746
Si Si6 0.400313 0.068167 0.165377
Si Si7 0.560533 0.737711 0.825793
Si Si8 0.438223 0.450254 0.822439
O O1 0.240934 0.500000 0.750000
O O2 0.220646 0.545860 0.500000
O O3 0.250055 0.588186 0.745793
O O4 0.144299 0.547572 0.714248
O O5 0.865337 0.682617 0.500000
O O6 0.803924 0.668487 0.733381
O O7 0.908487 0.624916 0.705374
O O8 0.898986 0.720231 0.745018
O O9 0.040633 0.463013 0.341019
O O10 0.687239 0.661634 0.267273
O O11 0.584051 0.684934 0.210897
O O12 0.606299 0.592663 0.217238
O O13 0.648720 0.646036 0.000000
O O14 0.247131 0.134082 0.000000
O O15 0.372210 0.065271 0.000000
O O16 0.500000 0.743853 0.750000
O O17 0.552801 0.745560 0.000000
O O18 0.414738 0.500000 0.750000
O O19 0.500000 0.437392 0.750000
O O20 0.445248 0.455967 0.000000
#
# Coordination Sequence:
#
# PCOD8294064 Si02
#       8
#    16  16   4  16  16  16  16  16
#     4  11  21  36  57  79 110 150 192 238 290 346
#     4   8  18  38  59  80 113 153 191 242 296 345
#     4  12  22  28  56  86 118 156 198 248 294 340
#     4  10  22  38  57  86 120 152 189 238 290 345
#     4  10  21  38  60  84 113 151 193 239 292 350
#     4  10  21  36  52  78 116 153 195 243 294 347
#     4  10  21  39  62  86 117 153 191 238 293 348
#     4  10  20  35  56  83 117 153 190 231 281 339
#
# _framework density 20.098527000000001
#
# number of rings (size 3 to 8) (size 9 to 14) (size 15 to 20)
#    0.000    2.069    0.690    3.931    0.966    3.310 
#    0.000    4.828    0.000    0.000    0.000    0.000 
#    0.000    0.000    0.000    0.000    0.000    0.000 
#
# Total GULP energy -718820.756402 kJ/mol
# GULP energy per Si atom -12393.461317 kJ/mol
# Density = 2.005278 g / cm^3
# Si number density = 20.098527 Si / 1000 Ang^3
#
#
#
# Elastic Constant Matrix: (Units=GPa)
#
#
# Indices 1 2 3 4 5 6 
#
# 1 114.2480 56.9557 37.4572 0.0000 0.0000 0.0000
# 2 56.9557 130.9915 40.0451 0.0000 0.0000 0.0000
# 3 37.4572 40.0451 81.9159 0.0000 0.0000 0.0000
# 4 0.0000 0.0000 0.0000 22.8363 0.0000 0.0000
# 5 0.0000 0.0000 0.0000 0.0000 32.7917 0.0000
# 6 0.0000 0.0000 0.0000 0.0000 0.0000 12.8460
#
#
#
# Elastic Compliance Matrix: (Units=1/GPa)
#
#
# Indices 1 2 3 4 5 6 
#
# 1 0.011945 -0.004143 -0.003437 0.000000 0.000000 0.000000
# 2 -0.004143 0.010413 -0.003196 0.000000 0.000000 0.000000
# 3 -0.003437 -0.003196 0.015341 0.000000 0.000000 0.000000
# 4 0.000000 0.000000 0.000000 0.043790 0.000000 0.000000
# 5 0.000000 0.000000 0.000000 0.000000 0.030496 0.000000
# 6 0.000000 0.000000 0.000000 0.000000 0.000000 0.077845
#
#
# Mechanical properties :
#
#
# Convention : Reuss Voigt Hill
#
# Bulk Modulus (GPa) = 61.92755 66.23017 64.07886
# Shear Modulus (GPa) = 23.06662 26.54129 24.80396
#
# Velocity S-wave (km/s) = 3.39141 3.63789 3.51681
# Velocity P-wave (km/s) = 6.79812 7.11828 6.96004
#
# Compressibility (1/GPa) = 0.01614790
#
# Stress axis : x y z
#
# Youngs Moduli (GPa) = 83.71624 96.03835 65.18340
#
# Poissons Ratio (x) = 0.39790 0.22401
# Poissons Ratio (y) = 0.34685 0.20831
# Poissons Ratio (z) = 0.28770 0.30691
#
# Static dielectric constant tensor:
#      x y z
#    x 3.608570 0.000000 0.000000 
#    y 0.000000 3.928210 0.000000 
#    z 0.000000 0.000000 3.477140 
# 
# 
# High freq. dielectric constant tensor:
#      x y z
#    x 1.778390 0.000000 0.000000 
#    y 0.000000 1.794840 0.000000 
#    z 0.000000 0.000000 1.769520 
# 
# From -- ./inp_files/7306.got.cif
#   From: 2010.03.12/outbox.cif.g09.slc.cpg/sg72_4_cif.got.tgz:7306.got - 2010.04.16 14:54:00.
