data_PCOD8294803
_publ_section_title
;
Structure prediction by ZEFSAII (Michael W. Deem and Ramdas Pophale) SiO2 
 PCOD8294803
Probable space group: I B A M
;
_chemical_formula_sum "Si O2"
_cell_formula_units_Z 104
_cell_length_a 26.465731
_cell_length_b 21.502400
_cell_length_c 9.233040
_cell_angle_alpha 90.000000
_cell_angle_beta 90.000000
_cell_angle_gamma 90.000000
_cell_volume 5254.308250
_symmetry_space_group_name_H-M "I B A M"
_symmetry_group_IT_number 72
_symmetry_cell_setting 'orthorhombic'
loop_
_space_group_symop_operation_xyz
x,y,z
-x,-y,z
x,-y,1/2-z
-x,y,1/2-z
-x,-y,-z
x,y,-z
-x,y,1/2+z
x,-y,1/2+z
1/2+x,1/2+y,1/2+z
1/2-x,1/2-y,1/2+z
1/2+x,1/2-y,-z
1/2-x,1/2+y,-z
1/2-x,1/2-y,1/2-z
1/2+x,1/2+y,1/2-z
1/2-x,1/2+y,z
1/2+x,1/2-y,z
loop_
_atom_site_type_symbol
_atom_site_label
_atom_site_fract_x
_atom_site_fract_y
_atom_site_fract_z
Si Si1 0.862966 0.619354 0.339419
Si Si2 0.550667 0.324953 0.167611
Si Si3 0.116024 0.942989 0.327724
Si Si4 0.302826 0.000000 0.750000
Si Si5 0.552042 0.183859 0.170065
Si Si6 0.784815 0.079473 0.161322
Si Si7 0.261881 0.811518 0.666310
O O1 0.886560 0.623516 0.500000
O O2 0.839200 0.550649 0.323893
O O3 0.906324 0.634416 0.223486
O O4 0.820642 0.671957 0.320452
O O5 0.500000 0.342473 0.250000
O O6 0.592733 0.375642 0.210208
O O7 0.569245 0.254909 0.206312
O O8 0.537279 0.329467 0.000000
O O9 0.120065 0.953686 0.500000
O O10 0.170170 0.950306 0.251927
O O11 0.084691 0.000000 0.250000
O O12 0.264226 0.034621 0.640712
O O13 0.500000 0.168473 0.250000
O O14 0.544391 0.173970 0.000000
O O15 0.771790 0.138219 0.256419
O O16 0.802626 0.098322 0.000000
O O17 0.244605 0.806066 0.500000
O O18 0.250000 0.750000 0.750000
#
# Coordination Sequence:
#
# PCOD8294803 Si02
#       7
#    16  16  16   8  16  16  16
#     4  10  22  39  61  90 121 157 200 250 301 357
#     4   9  21  40  61  86 116 153 195 246 303 361
#     4  11  23  38  57  85 118 156 203 252 300 355
#     4  10  22  40  63  86 121 160 206 246 298 360
#     4  10  21  40  65  92 120 156 196 245 304 365
#     4  11  22  37  59  84 115 159 203 244 299 357
#     4  10  22  38  56  84 121 157 198 247 297 353
#
# _framework density 19.793281
#
# number of rings (size 3 to 8) (size 9 to 14) (size 15 to 20)
#    0.000    1.846    0.769    2.308    2.154    7.077 
#    0.000    1.923    0.000    1.846    0.000    0.000 
#    0.000    0.000    0.000    0.000    0.000    0.000 
#
# Total GULP energy -644467.152730 kJ/mol
# GULP energy per Si atom -12393.599091 kJ/mol
# Density = 1.974823 g / cm^3
# Si number density = 19.793281 Si / 1000 Ang^3
#
#
#
# Elastic Constant Matrix: (Units=GPa)
#
#
# Indices 1 2 3 4 5 6 
#
# 1 82.7070 61.0801 47.9639 0.0000 0.0000 0.0000
# 2 61.0801 122.0107 61.8953 0.0000 0.0000 0.0000
# 3 47.9639 61.8953 131.8702 0.0000 0.0000 0.0000
# 4 0.0000 0.0000 0.0000 22.3496 0.0000 0.0000
# 5 0.0000 0.0000 0.0000 0.0000 31.7681 0.0000
# 6 0.0000 0.0000 0.0000 0.0000 0.0000 21.1635
#
#
#
# Elastic Compliance Matrix: (Units=1/GPa)
#
#
# Indices 1 2 3 4 5 6 
#
# 1 0.020300 -0.008422 -0.003430 0.000000 0.000000 0.000000
# 2 -0.008422 0.014252 -0.003626 0.000000 0.000000 0.000000
# 3 -0.003430 -0.003626 0.010533 0.000000 0.000000 0.000000
# 4 0.000000 0.000000 0.000000 0.044744 0.000000 0.000000
# 5 0.000000 0.000000 0.000000 0.000000 0.031478 0.000000
# 6 0.000000 0.000000 0.000000 0.000000 0.000000 0.047251
#
#
# Mechanical properties :
#
#
# Convention : Reuss Voigt Hill
#
# Bulk Modulus (GPa) = 70.78429 75.38518 73.08474
# Shear Modulus (GPa) = 24.48290 26.09948 25.29119
#
# Velocity S-wave (km/s) = 3.52082 3.63520 3.57846
# Velocity P-wave (km/s) = 7.23655 7.46917 7.35378
#
# Compressibility (1/GPa) = 0.01412743
#
# Stress axis : x y z
#
# Youngs Moduli (GPa) = 49.26044 70.16701 94.94138
#
# Poissons Ratio (x) = 0.59097 0.32569
# Poissons Ratio (y) = 0.41489 0.34425
# Poissons Ratio (z) = 0.16899 0.25442
#
# Static dielectric constant tensor:
#      x y z
#    x 3.442700 0.000000 0.000000 
#    y 0.000000 3.775780 0.000000 
#    z 0.000000 0.000000 3.778860 
# 
# 
# High freq. dielectric constant tensor:
#      x y z
#    x 1.753940 0.000000 0.000000 
#    y 0.000000 1.782470 0.000000 
#    z 0.000000 0.000000 1.781360 
# 
# From -- ./inp_files/8175.got.cif
#   From: 2010.03.12/outbox.cif.g09.slc.cpg/sg72_5_cif.got.tgz:8175.got - 2010.04.16 14:54:00.
