data_PCOD8294624
_publ_section_title
;
Structure prediction by ZEFSAII (Michael W. Deem and Ramdas Pophale) SiO2 
 PCOD8294624
Probable space group: I B A M
;
_chemical_formula_sum "Si O2"
_cell_formula_units_Z 112
_cell_length_a 25.825437
_cell_length_b 14.050185
_cell_length_c 14.242183
_cell_angle_alpha 90.000000
_cell_angle_beta 90.000000
_cell_angle_gamma 90.000000
_cell_volume 5167.806972
_symmetry_space_group_name_H-M "I B A M"
_symmetry_group_IT_number 72
_symmetry_cell_setting 'orthorhombic'
loop_
_space_group_symop_operation_xyz
x,y,z
-x,-y,z
x,-y,1/2-z
-x,y,1/2-z
-x,-y,-z
x,y,-z
-x,y,1/2+z
x,-y,1/2+z
1/2+x,1/2+y,1/2+z
1/2-x,1/2-y,1/2+z
1/2+x,1/2-y,-z
1/2-x,1/2+y,-z
1/2-x,1/2-y,1/2-z
1/2+x,1/2+y,1/2-z
1/2-x,1/2+y,z
1/2+x,1/2-y,z
loop_
_atom_site_type_symbol
_atom_site_label
_atom_site_fract_x
_atom_site_fract_y
_atom_site_fract_z
Si Si1 0.569308 0.692381 0.393617
Si Si2 0.260461 0.504709 0.397390
Si Si3 0.872249 0.997345 0.646231
Si Si4 0.971349 0.089251 0.891228
Si Si5 0.225250 0.646624 0.247293
Si Si6 0.395098 0.138904 0.268292
Si Si7 0.939944 0.474303 0.890453
O O1 0.576851 0.732463 0.500000
O O2 0.597800 0.591247 0.387678
O O3 0.507362 0.681349 0.372769
O O4 0.590283 0.761545 0.314639
O O5 0.234136 0.497641 0.500000
O O6 0.321836 0.518691 0.416378
O O7 0.237441 0.595860 0.345365
O O8 0.249873 0.407961 0.340835
O O9 0.912227 0.906806 0.646412
O O10 0.848948 0.000000 0.750000
O O11 0.965752 0.068226 0.000000
O O12 0.000000 0.000000 0.841961
O O13 0.250000 0.750000 0.250000
O O14 0.163820 0.646571 0.235507
O O15 0.428548 0.119076 0.173366
O O16 0.404209 0.057493 0.346776
O O17 0.000000 0.500000 0.879987
O O18 0.925696 0.456882 0.000000
#
# Coordination Sequence:
#
# PCOD8294624 Si02
#       7
#    16  16  16  16  16  16  16
#     4  10  21  37  60  93 129 168 218 260 309 387
#     4  11  23  42  66  92 128 174 219 270 334 387
#     4  11  20  36  60  87 130 177 211 258 311 379
#     4   8  16  32  53  82 118 160 207 245 288 357
#     4  11  25  43  64  97 133 165 221 281 322 389
#     4  11  22  39  70  95 123 170 213 265 328 387
#     4  10  22  44  68  95 129 163 208 269 333 395
#
# _framework density 21.672636000000001
#
# number of rings (size 3 to 8) (size 9 to 14) (size 15 to 20)
#    0.000    1.714    1.429    6.000    0.000    6.000 
#    5.143    0.000    0.000    0.000    0.000    0.000 
#    0.000    0.571    0.000    0.000    0.000    0.000 
#
# Total GULP energy -694031.080017 kJ/mol
# GULP energy per Si atom -12393.412143 kJ/mol
# Density = 2.162331 g / cm^3
# Si number density = 21.672636 Si / 1000 Ang^3
#
#
#
# Elastic Constant Matrix: (Units=GPa)
#
#
# Indices 1 2 3 4 5 6 
#
# 1 130.6483 31.0705 40.3338 0.0000 0.0000 0.0000
# 2 31.0705 75.1654 36.1707 0.0000 0.0000 0.0000
# 3 40.3338 36.1707 155.5247 0.0000 0.0000 0.0000
# 4 0.0000 0.0000 0.0000 25.4280 0.0000 0.0000
# 5 0.0000 0.0000 0.0000 0.0000 22.2847 0.0000
# 6 0.0000 0.0000 0.0000 0.0000 0.0000 30.0669
#
#
#
# Elastic Compliance Matrix: (Units=1/GPa)
#
#
# Indices 1 2 3 4 5 6 
#
# 1 0.008839 -0.002872 -0.001624 0.000000 0.000000 0.000000
# 2 -0.002872 0.015914 -0.002956 0.000000 0.000000 0.000000
# 3 -0.001624 -0.002956 0.007539 0.000000 0.000000 0.000000
# 4 0.000000 0.000000 0.000000 0.039327 0.000000 0.000000
# 5 0.000000 0.000000 0.000000 0.000000 0.044874 0.000000
# 6 0.000000 0.000000 0.000000 0.000000 0.000000 0.033259
#
#
# Mechanical properties :
#
#
# Convention : Reuss Voigt Hill
#
# Bulk Modulus (GPa) = 57.51750 64.05427 60.78588
# Shear Modulus (GPa) = 29.33398 32.47350 30.90374
#
# Velocity S-wave (km/s) = 3.68299 3.87507 3.78025
# Velocity P-wave (km/s) = 6.68451 7.04564 6.86745
#
# Compressibility (1/GPa) = 0.01738601
#
# Stress axis : x y z
#
# Youngs Moduli (GPa) = 113.14043 62.83882 132.64997
#
# Poissons Ratio (x) = 0.18047 0.21546
# Poissons Ratio (y) = 0.32493 0.39215
# Poissons Ratio (z) = 0.18377 0.18577
#
# Static dielectric constant tensor:
#      x y z
#    x 4.100920 0.000000 0.000000 
#    y 0.000000 3.702130 0.000000 
#    z 0.000000 0.000000 4.059340 
# 
# 
# High freq. dielectric constant tensor:
#      x y z
#    x 1.861540 0.000000 0.000000 
#    y 0.000000 1.822570 0.000000 
#    z 0.000000 0.000000 1.865060 
# 
# From -- ./inp_files/25176.got.cif
#   From: 2010.03.12/outbox.cif.g09.slc.cpg/sg72_13_cif.got.tgz:25176.got - 2010.04.16 14:54:00.
