data_PCOD8294156
_publ_section_title
;
Structure prediction by ZEFSAII (Michael W. Deem and Ramdas Pophale) SiO2 
 PCOD8294156
Probable space group: I B A M
;
_chemical_formula_sum "Si O2"
_cell_formula_units_Z 116
_cell_length_a 21.617913
_cell_length_b 32.562531
_cell_length_c 8.612230
_cell_angle_alpha 90.000000
_cell_angle_beta 90.000000
_cell_angle_gamma 90.000000
_cell_volume 6062.441187
_symmetry_space_group_name_H-M "I B A M"
_symmetry_group_IT_number 72
_symmetry_cell_setting 'orthorhombic'
loop_
_space_group_symop_operation_xyz
x,y,z
-x,-y,z
x,-y,1/2-z
-x,y,1/2-z
-x,-y,-z
x,y,-z
-x,y,1/2+z
x,-y,1/2+z
1/2+x,1/2+y,1/2+z
1/2-x,1/2-y,1/2+z
1/2+x,1/2-y,-z
1/2-x,1/2+y,-z
1/2-x,1/2-y,1/2-z
1/2+x,1/2+y,1/2-z
1/2-x,1/2+y,z
1/2+x,1/2-y,z
loop_
_atom_site_type_symbol
_atom_site_label
_atom_site_fract_x
_atom_site_fract_y
_atom_site_fract_z
Si Si1 0.709303 0.895308 0.815956
Si Si2 0.158883 0.227242 0.824584
Si Si3 0.777500 0.691850 0.178481
Si Si4 0.064391 0.170972 0.319608
Si Si5 0.379770 0.961390 0.668186
Si Si6 0.568269 0.584258 0.315333
Si Si7 0.000000 0.500000 0.750000
Si Si8 0.187311 0.044492 0.685465
O O1 0.701270 0.853235 0.724424
O O2 0.645701 0.918926 0.761734
O O3 0.768730 0.920792 0.759823
O O4 0.713784 0.887131 0.000000
O O5 0.165444 0.276335 0.800365
O O6 0.223942 0.205348 0.794707
O O7 0.109989 0.209125 0.703899
O O8 0.138017 0.217134 0.000000
O O9 0.754198 0.692578 0.000000
O O10 0.057910 0.160043 0.500000
O O11 0.088274 0.130538 0.230238
O O12 0.000000 0.185751 0.250000
O O13 0.350428 0.962289 0.500000
O O14 0.454693 0.968330 0.658682
O O15 0.347653 0.000000 0.750000
O O16 0.500000 0.574375 0.250000
O O17 0.568819 0.579007 0.500000
O O18 0.616954 0.553265 0.238215
O O19 0.192506 0.045703 0.500000
O O20 0.206866 0.000000 0.750000
#
# Coordination Sequence:
#
# PCOD8294156 Si02
#       8
#    16  16  16  16  16  16   4  16
#     4  11  22  37  56  83 115 148 185 230 282 333
#     4  10  20  36  57  81 111 144 184 229 276 331
#     4  10  21  36  56  83 111 145 184 225 277 332
#     4  11  21  35  57  84 113 146 186 231 278 329
#     4   9  19  33  55  81 108 140 180 223 269 321
#     4  11  22  39  60  84 113 149 191 235 280 331
#     4   8  18  36  58  84 110 140 184 224 266 320
#     4  12  25  41  58  82 113 149 190 234 285 336
#
# _framework density 19.134205999999999
#
# number of rings (size 3 to 8) (size 9 to 14) (size 15 to 20)
#    0.414    1.103    0.000    7.241    0.000    4.138 
#    0.000    1.379    1.517    0.000    0.000    0.000 
#    0.000    0.000    0.000    0.000    0.000    0.000 
#
# Total GULP energy -718788.148105 kJ/mol
# GULP energy per Si atom -12392.899105 kJ/mol
# Density = 1.909066 g / cm^3
# Si number density = 19.134206 Si / 1000 Ang^3
#
#
#
# Elastic Constant Matrix: (Units=GPa)
#
#
# Indices 1 2 3 4 5 6 
#
# 1 70.5374 34.5145 14.0363 0.0000 -0.0001 0.0000
# 2 34.5145 118.1476 23.0462 0.0000 0.0000 0.0000
# 3 14.0363 23.0462 87.0721 0.0000 -0.0007 0.0000
# 4 0.0000 0.0000 0.0000 29.4651 0.0000 0.0000
# 5 -0.0001 0.0000 -0.0007 0.0000 21.7356 0.0000
# 6 0.0000 0.0000 0.0000 0.0000 0.0000 28.0883
#
#
#
# Elastic Compliance Matrix: (Units=1/GPa)
#
#
# Indices 1 2 3 4 5 6 
#
# 1 0.016720 -0.004596 -0.001479 0.000000 0.000000 0.000000
# 2 -0.004596 0.010188 -0.001956 0.000000 0.000000 0.000000
# 3 -0.001479 -0.001956 0.012241 0.000000 0.000000 0.000000
# 4 0.000000 0.000000 0.000000 0.033938 0.000000 0.000000
# 5 0.000000 0.000000 0.000000 0.000000 0.046007 0.000000
# 6 0.000000 0.000000 0.000000 0.000000 0.000000 0.035602
#
#
# Mechanical properties :
#
#
# Convention : Reuss Voigt Hill
#
# Bulk Modulus (GPa) = 43.31286 46.55012 44.93149
# Shear Modulus (GPa) = 28.01846 29.46847 28.74347
#
# Velocity S-wave (km/s) = 3.83079 3.92866 3.88003
# Velocity P-wave (km/s) = 6.50016 6.70524 6.60349
#
# Compressibility (1/GPa) = 0.02308783
#
# Stress axis : x y z
#
# Youngs Moduli (GPa) = 59.80865 98.15382 81.69421
#
# Poissons Ratio (x) = 0.45111 0.12081
# Poissons Ratio (y) = 0.27488 0.15977
# Poissons Ratio (z) = 0.08845 0.19196
#
# Static dielectric constant tensor:
#      x y z
#    x 3.436770 0.000000 0.000000 
#    y 0.000000 3.683340 0.000000 
#    z 0.000000 0.000000 3.569390 
# 
# 
# High freq. dielectric constant tensor:
#      x y z
#    x 1.731810 0.000000 0.000000 
#    y 0.000000 1.741960 0.000000 
#    z 0.000000 0.000000 1.759380 
# 
# From -- ./inp_files/7364.got.cif
#   From: 2010.03.12/outbox.cif.g09.slc.cpg/sg72_4_cif.got.tgz:7364.got - 2010.04.16 14:54:00.
