data_PCOD8294522
_publ_section_title
;
Structure prediction by ZEFSAII (Michael W. Deem and Ramdas Pophale) SiO2 
 PCOD8294522
Probable space group: I B A M
;
_chemical_formula_sum "Si O2"
_cell_formula_units_Z 64
_cell_length_a 5.136501
_cell_length_b 17.213781
_cell_length_c 35.271435
_cell_angle_alpha 90.000000
_cell_angle_beta 90.000000
_cell_angle_gamma 90.000000
_cell_volume 3118.651020
_symmetry_space_group_name_H-M "I B A M"
_symmetry_group_IT_number 72
_symmetry_cell_setting 'orthorhombic'
loop_
_space_group_symop_operation_xyz
x,y,z
-x,-y,z
x,-y,1/2-z
-x,y,1/2-z
-x,-y,-z
x,y,-z
-x,y,1/2+z
x,-y,1/2+z
1/2+x,1/2+y,1/2+z
1/2-x,1/2-y,1/2+z
1/2+x,1/2-y,-z
1/2-x,1/2+y,-z
1/2-x,1/2-y,1/2-z
1/2+x,1/2+y,1/2-z
1/2-x,1/2+y,z
1/2+x,1/2-y,z
loop_
_atom_site_type_symbol
_atom_site_label
_atom_site_fract_x
_atom_site_fract_y
_atom_site_fract_z
Si Si1 0.242234 0.549732 0.094553
Si Si2 0.255160 0.949720 0.681286
Si Si3 0.770981 0.199801 0.456299
Si Si4 0.416377 0.286184 0.292675
O O1 0.500000 0.500000 0.090326
O O2 0.192631 0.575036 0.137952
O O3 0.269661 0.624767 0.069312
O O4 0.000000 0.500000 0.079285
O O5 0.200845 0.872661 0.705711
O O6 0.500000 0.000000 0.697089
O O7 0.000000 0.000000 0.685248
O O8 0.768126 0.173466 0.500000
O O9 0.525538 0.251998 0.446111
O O10 0.500000 0.261841 0.250000
O O11 0.699616 0.271565 0.312349
#
# Coordination Sequence:
#
# PCOD8294522 Si02
#       4
#    16  16  16  16
#     4  10  21  36  55  80 109 142 182 226 272 325
#     4  10  21  37  56  81 111 142 181 226 271 324
#     4  10  21  36  54  79 110 143 183 228 272 324
#     4  10  21  37  56  80 109 140 177 220 266 320
#
# _framework density 20.521692999999999
#
# number of rings (size 3 to 8) (size 9 to 14) (size 15 to 20)
#    0.000    2.000    0.000    3.000    0.000    3.500 
#    0.000    1.250    0.000    0.000    0.000    0.000 
#    0.000    0.000    0.000    0.000    0.000    0.000 
#
# Total GULP energy -396652.541658 kJ/mol
# GULP energy per Si atom -12395.391927 kJ/mol
# Density = 2.047498 g / cm^3
# Si number density = 20.521693 Si / 1000 Ang^3
#
#
#
# Elastic Constant Matrix: (Units=GPa)
#
#
# Indices 1 2 3 4 5 6 
#
# 1 187.1054 64.3466 33.1915 0.0000 0.0000 0.0000
# 2 64.3466 116.7275 34.1595 0.0000 0.0000 0.0000
# 3 33.1915 34.1595 30.1638 0.0000 0.0000 0.0000
# 4 0.0000 0.0000 0.0000 -4.1918 0.0000 0.0000
# 5 0.0000 0.0000 0.0000 0.0000 83.7834 0.0000
# 6 0.0000 0.0000 0.0000 0.0000 0.0000 5.5417
#
#
#
# Elastic Compliance Matrix: (Units=1/GPa)
#
#
# Indices 1 2 3 4 5 6 
#
# 1 0.007072 -0.002425 -0.005036 0.000000 0.000000 0.000000
# 2 -0.002425 0.013645 -0.012784 0.000000 0.000000 0.000000
# 3 -0.005036 -0.012784 0.053171 0.000000 0.000000 0.000000
# 4 0.000000 0.000000 0.000000 -0.238563 0.000000 0.000000
# 5 0.000000 0.000000 0.000000 0.000000 0.011936 0.000000
# 6 0.000000 0.000000 0.000000 0.000000 0.000000 0.180449
#
#
# Mechanical properties :
#
#
# Convention : Reuss Voigt Hill
#
# Bulk Modulus (GPa) = 29.94145 66.37686 48.15915
# Shear Modulus (GPa) = 63.02657 30.51328 46.76993
#
# Velocity S-wave (km/s) = 5.54787 3.86019 4.77912
# Velocity P-wave (km/s) = 7.46058 7.23070 7.34654
#
# Compressibility (1/GPa) = 0.03339852
#
# Stress axis : x y z
#
# Youngs Moduli (GPa) = 141.40781 73.28801 18.80717
#
# Poissons Ratio (x) = 0.17770 0.09471
# Poissons Ratio (y) = 0.34287 0.24044
# Poissons Ratio (z) = 0.71209 0.93693
#
# Static dielectric constant tensor:
#      x y z
#    x 4.394450 0.000000 0.000000 
#    y 0.000000 3.375730 0.000000 
#    z 0.000000 0.000000 3.588520 
# 
# 
# High freq. dielectric constant tensor:
#      x y z
#    x 1.839160 0.000000 0.000000 
#    y 0.000000 1.802570 0.000000 
#    z 0.000000 0.000000 1.775540 
# 
# From -- ./inp_files/50153.got.cif
#   From: 2010.03.12/outbox.cif.g09.slc.cpg/sg72_26_cif.got.tgz:50153.got - 2010.04.16 14:54:00.
