data_PCOD8294486
_publ_section_title
;
Structure prediction by ZEFSAII (Michael W. Deem and Ramdas Pophale) SiO2 
 PCOD8294486
Probable space group: I B A M
;
_chemical_formula_sum "Si O2"
_cell_formula_units_Z 56
_cell_length_a 16.753092
_cell_length_b 17.680783
_cell_length_c 10.154900
_cell_angle_alpha 90.000000
_cell_angle_beta 90.000000
_cell_angle_gamma 90.000000
_cell_volume 3007.960428
_symmetry_space_group_name_H-M "I B A M"
_symmetry_group_IT_number 72
_symmetry_cell_setting 'orthorhombic'
loop_
_space_group_symop_operation_xyz
x,y,z
-x,-y,z
x,-y,1/2-z
-x,y,1/2-z
-x,-y,-z
x,y,-z
-x,y,1/2+z
x,-y,1/2+z
1/2+x,1/2+y,1/2+z
1/2-x,1/2-y,1/2+z
1/2+x,1/2-y,-z
1/2-x,1/2+y,-z
1/2-x,1/2-y,1/2-z
1/2+x,1/2+y,1/2-z
1/2-x,1/2+y,z
1/2+x,1/2-y,z
loop_
_atom_site_type_symbol
_atom_site_label
_atom_site_fract_x
_atom_site_fract_y
_atom_site_fract_z
Si Si1 0.000000 0.811828 0.250000
Si Si2 0.888690 0.935947 0.147936
Si Si3 0.793135 0.565182 0.650343
Si Si4 0.061984 0.333508 0.352880
O O1 0.055872 0.862697 0.341878
O O2 0.057556 0.757941 0.161715
O O3 0.798008 0.911122 0.179223
O O4 0.917397 0.000000 0.250000
O O5 0.896107 0.968969 0.000000
O O6 0.820822 0.500000 0.750000
O O7 0.802594 0.536021 0.500000
O O8 0.848332 0.638329 0.676432
O O9 0.035941 0.356853 0.500000
O O10 0.000000 0.372157 0.250000
#
# Coordination Sequence:
#
# PCOD8294486 Si02
#       4
#     8  16  16  16
#     4  10  21  34  57  76 110 140 178 216 265 318
#     4  10  21  37  58  81 107 141 179 222 267 317
#     4   9  19  37  57  80 108 140 181 222 265 314
#     4   9  20  36  54  79 110 143 178 219 266 317
#
# _framework density 18.617266000000001
#
# number of rings (size 3 to 8) (size 9 to 14) (size 15 to 20)
#    0.857    1.714    0.000    1.286    0.000    6.286 
#    0.000    2.857    0.000    0.000    0.000    0.000 
#    0.000    0.000    0.000    0.000    0.000    0.000 
#
# Total GULP energy -347018.621338 kJ/mol
# GULP energy per Si atom -12393.522191 kJ/mol
# Density = 1.857489 g / cm^3
# Si number density = 18.617266 Si / 1000 Ang^3
#
#
#
# Elastic Constant Matrix: (Units=GPa)
#
#
# Indices 1 2 3 4 5 6 
#
# 1 95.0472 67.6357 49.3868 0.0000 0.0000 0.0000
# 2 67.6357 107.0007 51.2943 0.0000 0.0000 0.0000
# 3 49.3868 51.2943 110.3300 0.0000 0.0000 0.0000
# 4 0.0000 0.0000 0.0000 25.8979 0.0000 0.0000
# 5 0.0000 0.0000 0.0000 0.0000 25.6125 0.0000
# 6 0.0000 0.0000 0.0000 0.0000 0.0000 38.3167
#
#
#
# Elastic Compliance Matrix: (Units=1/GPa)
#
#
# Indices 1 2 3 4 5 6 
#
# 1 0.020434 -0.010978 -0.004043 0.000000 0.000000 0.000000
# 2 -0.010978 0.017924 -0.003419 0.000000 0.000000 0.000000
# 3 -0.004043 -0.003419 0.012463 0.000000 0.000000 0.000000
# 4 0.000000 0.000000 0.000000 0.038613 0.000000 0.000000
# 5 0.000000 0.000000 0.000000 0.000000 0.039043 0.000000
# 6 0.000000 0.000000 0.000000 0.000000 0.000000 0.026098
#
#
# Mechanical properties :
#
#
# Convention : Reuss Voigt Hill
#
# Bulk Modulus (GPa) = 71.73220 72.11239 71.92230
# Shear Modulus (GPa) = 25.49676 27.56950 26.53313
#
# Velocity S-wave (km/s) = 3.70472 3.85236 3.77926
# Velocity P-wave (km/s) = 7.54410 7.65545 7.59998
#
# Compressibility (1/GPa) = 0.01394074
#
# Stress axis : x y z
#
# Youngs Moduli (GPa) = 48.93820 55.79040 80.23776
#
# Poissons Ratio (x) = 0.61249 0.32438
# Poissons Ratio (y) = 0.53726 0.27434
# Poissons Ratio (z) = 0.19785 0.19075
#
# Static dielectric constant tensor:
#      x y z
#    x 3.450880 0.000000 0.000000 
#    y 0.000000 3.164750 0.000000 
#    z 0.000000 0.000000 3.470940 
# 
# 
# High freq. dielectric constant tensor:
#      x y z
#    x 1.727030 0.000000 0.000000 
#    y 0.000000 1.695450 0.000000 
#    z 0.000000 0.000000 1.730890 
# 
# From -- ./inp_files/3248.got.cif
#   From: 2010.03.12/outbox.cif.g09.slc.cpg/sg72_2_cif.got.tgz:3248.got - 2010.04.16 14:54:00.
