data_PCOD8294509
_publ_section_title
;
Structure prediction by ZEFSAII (Michael W. Deem and Ramdas Pophale) SiO2 
 PCOD8294509
Probable space group: I B A M
;
_chemical_formula_sum "Si O2"
_cell_formula_units_Z 112
_cell_length_a 23.159934
_cell_length_b 14.145697
_cell_length_c 15.055843
_cell_angle_alpha 90.000000
_cell_angle_beta 90.000000
_cell_angle_gamma 90.000000
_cell_volume 4932.496049
_symmetry_space_group_name_H-M "I B A M"
_symmetry_group_IT_number 72
_symmetry_cell_setting 'orthorhombic'
loop_
_space_group_symop_operation_xyz
x,y,z
-x,-y,z
x,-y,1/2-z
-x,y,1/2-z
-x,-y,-z
x,y,-z
-x,y,1/2+z
x,-y,1/2+z
1/2+x,1/2+y,1/2+z
1/2-x,1/2-y,1/2+z
1/2+x,1/2-y,-z
1/2-x,1/2+y,-z
1/2-x,1/2-y,1/2-z
1/2+x,1/2+y,1/2-z
1/2-x,1/2+y,z
1/2+x,1/2-y,z
loop_
_atom_site_type_symbol
_atom_site_label
_atom_site_fract_x
_atom_site_fract_y
_atom_site_fract_z
Si Si1 0.558476 0.727680 0.724160
Si Si2 0.378919 0.215263 0.097553
Si Si3 0.227874 0.989349 0.846570
Si Si4 0.348089 0.345366 0.595580
Si Si5 0.849659 0.485623 0.902057
Si Si6 0.743290 0.727076 0.146866
Si Si7 0.040031 0.409920 0.105258
O O1 0.500000 0.671010 0.750000
O O2 0.590802 0.740366 0.817932
O O3 0.600993 0.662532 0.667055
O O4 0.532592 0.818895 0.669516
O O5 0.392819 0.104109 0.099231
O O6 0.309597 0.216834 0.104884
O O7 0.398231 0.256930 0.000000
O O8 0.186380 0.055176 0.904906
O O9 0.294102 0.025595 0.839436
O O10 0.200348 0.000000 0.750000
O O11 0.229238 0.881284 0.877405
O O12 0.378329 0.336730 0.500000
O O13 0.303145 0.258790 0.603373
O O14 0.892246 0.570043 0.875113
O O15 0.823709 0.502693 0.000000
O O16 0.750000 0.750000 0.250000
O O17 0.000000 0.500000 0.133064
O O18 0.030054 0.386047 0.000000
#
# Coordination Sequence:
#
# PCOD8294509 Si02
#       7
#    16  16  16  16  16  16  16
#     4  12  26  43  66  95 132 187 247 302 363 424
#     4  11  23  40  62  91 134 177 227 287 350 421
#     4  12  23  38  67  99 137 180 225 280 347 424
#     4  12  26  45  69 105 148 189 235 292 360 440
#     4  10  21  35  56  92 134 179 223 272 336 419
#     4  12  22  43  69 104 143 181 230 287 355 425
#     4  10  22  40  62  95 138 184 238 296 363 440
#
# _framework density 22.706555999999999
#
# number of rings (size 3 to 8) (size 9 to 14) (size 15 to 20)
#    0.000    0.714    4.286    3.000    2.000    7.143 
#    0.000    0.000    0.000    4.286    0.000    5.000 
#    0.000    0.000    0.000    0.000    0.000    0.000 
#
# Total GULP energy -693784.491667 kJ/mol
# GULP energy per Si atom -12389.008780 kJ/mol
# Density = 2.265488 g / cm^3
# Si number density = 22.706556 Si / 1000 Ang^3
#
#
#
# Elastic Constant Matrix: (Units=GPa)
#
#
# Indices 1 2 3 4 5 6 
#
# 1 127.7274 25.2859 43.5641 0.0000 0.0000 0.0000
# 2 25.2859 98.7471 19.0348 0.0000 0.0000 0.0000
# 3 43.5641 19.0348 151.4710 0.0000 0.0000 0.0000
# 4 0.0000 0.0000 0.0000 18.6139 0.0000 0.0000
# 5 0.0000 0.0000 0.0000 0.0000 16.1745 0.0000
# 6 0.0000 0.0000 0.0000 0.0000 0.0000 28.5461
#
#
#
# Elastic Compliance Matrix: (Units=1/GPa)
#
#
# Indices 1 2 3 4 5 6 
#
# 1 0.008999 -0.001850 -0.002356 0.000000 0.000000 0.000000
# 2 -0.001850 0.010759 -0.000820 0.000000 0.000000 0.000000
# 3 -0.002356 -0.000820 0.007382 0.000000 0.000000 0.000000
# 4 0.000000 0.000000 0.000000 0.053723 0.000000 0.000000
# 5 0.000000 0.000000 0.000000 0.000000 0.061826 0.000000
# 6 0.000000 0.000000 0.000000 0.000000 0.000000 0.035031
#
#
# Mechanical properties :
#
#
# Convention : Reuss Voigt Hill
#
# Bulk Modulus (GPa) = 58.51862 61.52389 60.02126
# Shear Modulus (GPa) = 25.84408 32.00427 28.92418
#
# Velocity S-wave (km/s) = 3.37735 3.75837 3.57294
# Velocity P-wave (km/s) = 6.40596 6.78143 6.59637
#
# Compressibility (1/GPa) = 0.01708858
#
# Stress axis : x y z
#
# Youngs Moduli (GPa) = 111.12473 92.94794 135.45642
#
# Poissons Ratio (x) = 0.17198 0.31908
# Poissons Ratio (y) = 0.20561 0.11106
# Poissons Ratio (z) = 0.26177 0.07620
#
# Static dielectric constant tensor:
#      x y z
#    x 4.089060 0.000000 0.000000 
#    y 0.000000 4.151560 0.000000 
#    z 0.000000 0.000000 4.281520 
# 
# 
# High freq. dielectric constant tensor:
#      x y z
#    x 1.892830 0.000000 0.000000 
#    y 0.000000 1.863780 0.000000 
#    z 0.000000 0.000000 1.912200 
# 
# From -- ./inp_files/25179.got.cif
#   From: 2010.03.12/outbox.cif.g09.slc.cpg/sg72_13_cif.got.tgz:25179.got - 2010.04.16 14:54:00.
