data_PCOD8294845
_publ_section_title
;
Structure prediction by ZEFSAII (Michael W. Deem and Ramdas Pophale) SiO2 
 PCOD8294845
Probable space group: I B A M
;
_chemical_formula_sum "Si O2"
_cell_formula_units_Z 88
_cell_length_a 17.151797
_cell_length_b 12.470904
_cell_length_c 19.948202
_cell_angle_alpha 90.000000
_cell_angle_beta 90.000000
_cell_angle_gamma 90.000000
_cell_volume 4266.888766
_symmetry_space_group_name_H-M "I B A M"
_symmetry_group_IT_number 72
_symmetry_cell_setting 'orthorhombic'
loop_
_space_group_symop_operation_xyz
x,y,z
-x,-y,z
x,-y,1/2-z
-x,y,1/2-z
-x,-y,-z
x,y,-z
-x,y,1/2+z
x,-y,1/2+z
1/2+x,1/2+y,1/2+z
1/2-x,1/2-y,1/2+z
1/2+x,1/2-y,-z
1/2-x,1/2+y,-z
1/2-x,1/2-y,1/2-z
1/2+x,1/2+y,1/2-z
1/2-x,1/2+y,z
1/2+x,1/2-y,z
loop_
_atom_site_type_symbol
_atom_site_label
_atom_site_fract_x
_atom_site_fract_y
_atom_site_fract_z
Si Si1 0.338017 0.030399 0.500000
Si Si2 0.177897 0.641393 0.113941
Si Si3 0.529727 0.391499 0.113417
Si Si4 0.759087 0.775196 0.500000
Si Si5 0.673149 0.601230 0.296384
Si Si6 0.913097 0.746891 0.000000
Si Si7 0.429722 0.256734 0.792905
O O1 0.256607 0.097223 0.500000
O O2 0.410471 0.115884 0.500000
O O3 0.339352 0.961657 0.567792
O O4 0.194198 0.743725 0.066584
O O5 0.247023 0.627868 0.166382
O O6 0.100291 0.666395 0.156009
O O7 0.500000 0.500000 0.076360
O O8 0.610261 0.425409 0.147356
O O9 0.466306 0.358967 0.169001
O O10 0.541280 0.291132 0.064180
O O11 0.676311 0.710089 0.500000
O O12 0.689468 0.500000 0.250000
O O13 0.642337 0.702391 0.252789
O O14 0.500000 0.203556 0.750000
#
# Coordination Sequence:
#
# PCOD8294845 Si02
#       7
#     8  16  16   8  16   8  16
#     4   9  23  42  66  93 131 169 228 275 322 379
#     4  11  22  43  67  95 129 177 220 271 331 387
#     4  11  21  40  65  98 131 167 211 272 342 389
#     4   9  21  40  66  93 125 163 221 279 316 377
#     4  11  21  37  66  93 134 168 209 272 330 392
#     4  10  21  42  64  91 130 169 212 279 313 394
#     4  10  24  40  63  98 135 169 221 267 326 407
#
# _framework density 20.623926999999998
#
# number of rings (size 3 to 8) (size 9 to 14) (size 15 to 20)
#    0.545    1.091    3.636    0.818    2.545    1.455 
#    6.545    1.818    0.000    0.000    0.000    0.000 
#    0.000    0.000    0.000    0.000    0.000    0.000 
#
# Total GULP energy -545435.572071 kJ/mol
# GULP energy per Si atom -12396.263002 kJ/mol
# Density = 2.057699 g / cm^3
# Si number density = 20.623927 Si / 1000 Ang^3
#
#
#
# Elastic Constant Matrix: (Units=GPa)
#
#
# Indices 1 2 3 4 5 6 
#
# 1 97.6465 50.0905 58.3912 0.0000 0.0000 0.0000
# 2 50.0905 123.1047 62.1757 0.0000 0.0000 0.0000
# 3 58.3912 62.1757 128.3353 0.0000 0.0000 0.0000
# 4 0.0000 0.0000 0.0000 93.7882 0.0000 0.0000
# 5 0.0000 0.0000 0.0000 0.0000 28.4700 0.0000
# 6 0.0000 0.0000 0.0000 0.0000 0.0000 27.0247
#
#
#
# Elastic Compliance Matrix: (Units=1/GPa)
#
#
# Indices 1 2 3 4 5 6 
#
# 1 0.015159 -0.003554 -0.005175 0.000000 0.000000 0.000000
# 2 -0.003554 0.011588 -0.003997 0.000000 0.000000 0.000000
# 3 -0.005175 -0.003997 0.012083 0.000000 0.000000 0.000000
# 4 0.000000 0.000000 0.000000 0.010662 0.000000 0.000000
# 5 0.000000 0.000000 0.000000 0.000000 0.035125 0.000000
# 6 0.000000 0.000000 0.000000 0.000000 0.000000 0.037003
#
#
# Mechanical properties :
#
#
# Convention : Reuss Voigt Hill
#
# Bulk Modulus (GPa) = 74.75354 76.71128 75.73241
# Shear Modulus (GPa) = 32.99619 41.75187 37.37403
#
# Velocity S-wave (km/s) = 4.00421 4.50426 4.26158
# Velocity P-wave (km/s) = 7.59625 8.02042 7.81121
#
# Compressibility (1/GPa) = 0.01337729
#
# Stress axis : x y z
#
# Youngs Moduli (GPa) = 65.96744 86.29508 82.75926
#
# Poissons Ratio (x) = 0.30672 0.42830
# Poissons Ratio (y) = 0.23447 0.33079
# Poissons Ratio (z) = 0.34140 0.34493
#
# Static dielectric constant tensor:
#      x y z
#    x 3.688260 0.000000 0.000000 
#    y 0.000000 3.425640 0.000000 
#    z 0.000000 0.000000 3.874030 
# 
# 
# High freq. dielectric constant tensor:
#      x y z
#    x 1.801940 0.000000 0.000000 
#    y 0.000000 1.786590 0.000000 
#    z 0.000000 0.000000 1.817500 
# 
# From -- ./inp_files/38927.got.cif
#   From: 2010.03.12/outbox.cif.g09.slc.cpg/sg72_20_cif.got.tgz:38927.got - 2010.04.16 14:54:00.
