data_PCOD8294927
_publ_section_title
;
Structure prediction by ZEFSAII (Michael W. Deem and Ramdas Pophale) SiO2 
 PCOD8294927
Probable space group: I B A M
;
_chemical_formula_sum "Si O2"
_cell_formula_units_Z 64
_cell_length_a 8.973106
_cell_length_b 23.024586
_cell_length_c 13.552860
_cell_angle_alpha 90.000000
_cell_angle_beta 90.000000
_cell_angle_gamma 90.000000
_cell_volume 2800.048670
_symmetry_space_group_name_H-M "I B A M"
_symmetry_group_IT_number 72
_symmetry_cell_setting 'orthorhombic'
loop_
_space_group_symop_operation_xyz
x,y,z
-x,-y,z
x,-y,1/2-z
-x,y,1/2-z
-x,-y,-z
x,y,-z
-x,y,1/2+z
x,-y,1/2+z
1/2+x,1/2+y,1/2+z
1/2-x,1/2-y,1/2+z
1/2+x,1/2-y,-z
1/2-x,1/2+y,-z
1/2-x,1/2-y,1/2-z
1/2+x,1/2+y,1/2-z
1/2-x,1/2+y,z
1/2+x,1/2-y,z
loop_
_atom_site_type_symbol
_atom_site_label
_atom_site_fract_x
_atom_site_fract_y
_atom_site_fract_z
Si Si1 0.904118 0.853458 0.340367
Si Si2 0.826355 0.495879 0.500000
Si Si3 0.206373 0.230556 0.500000
Si Si4 0.888884 0.412387 0.664838
Si Si5 0.491787 0.832071 0.500000
Si Si6 0.554581 0.433647 0.000000
O O1 0.868879 0.797420 0.404504
O O2 0.749844 0.876611 0.292423
O O3 0.000000 0.830837 0.250000
O O4 0.995369 0.901510 0.402925
O O5 0.798093 0.460824 0.601468
O O6 0.735997 0.557281 0.500000
O O7 0.000000 0.500000 0.500000
O O8 0.382861 0.218986 0.500000
O O9 0.168787 0.299572 0.500000
O O10 0.991925 0.372382 0.595572
O O11 0.000000 0.436968 0.750000
O O12 0.500000 0.500000 0.000000
#
# Coordination Sequence:
#
# PCOD8294927 Si02
#       6
#    16   8   8  16   8   8
#     4  10  22  39  62  89 120 156 205 251 298 362
#     4  11  24  41  59  86 122 158 204 251 304 361
#     4   9  20  40  61  87 120 157 200 248 303 365
#     4  10  22  41  59  87 126 158 196 253 307 360
#     4   9  20  40  63  84 120 162 197 249 306 361
#     4  11  20  43  63  82 118 162 204 250 301 352
#
# _framework density 22.856745
#
# number of rings (size 3 to 8) (size 9 to 14) (size 15 to 20)
#    0.000    2.000    2.500    1.500    3.500    4.000 
#    4.500    5.000    0.000    0.000    0.000    0.000 
#    0.000    0.000    0.000    0.000    0.000    0.000 
#
# Total GULP energy -396467.502064 kJ/mol
# GULP energy per Si atom -12389.609439 kJ/mol
# Density = 2.280472 g / cm^3
# Si number density = 22.856745 Si / 1000 Ang^3
#
#
#
# Elastic Constant Matrix: (Units=GPa)
#
#
# Indices 1 2 3 4 5 6 
#
# 1 79.2537 -9.1582 26.3210 -0.0001 0.0000 0.0000
# 2 -9.1582 45.4736 -3.3712 0.0000 0.0000 0.0000
# 3 26.3210 -3.3712 105.6358 -0.0007 0.0000 0.0001
# 4 -0.0001 0.0000 -0.0007 1.9166 0.0001 0.0001
# 5 0.0000 0.0000 0.0000 0.0001 29.8534 0.0000
# 6 0.0000 0.0000 0.0001 0.0001 0.0000 45.6758
#
#
#
# Elastic Compliance Matrix: (Units=1/GPa)
#
#
# Indices 1 2 3 4 5 6 
#
# 1 0.014051 0.002576 -0.003419 -0.000001 0.000000 0.000000
# 2 0.002576 0.022515 0.000077 0.000000 0.000000 0.000000
# 3 -0.003419 0.000077 0.010321 0.000004 0.000000 0.000000
# 4 -0.000001 0.000000 0.000004 0.521747 -0.000001 -0.000001
# 5 0.000000 0.000000 0.000000 -0.000001 0.033497 0.000000
# 6 0.000000 0.000000 0.000000 -0.000001 0.000000 0.021893
#
#
# Mechanical properties :
#
#
# Convention : Reuss Voigt Hill
#
# Bulk Modulus (GPa) = 22.04818 28.66070 25.35444
# Shear Modulus (GPa) = 7.80428 29.92727 18.86578
#
# Velocity S-wave (km/s) = 1.84982 3.62241 2.87608
# Velocity P-wave (km/s) = 3.77222 5.48291 4.70595
#
# Compressibility (1/GPa) = 0.04535523
#
# Stress axis : x y z
#
# Youngs Moduli (GPa) = 71.17013 44.41422 96.89189
#
# Poissons Ratio (x) = -0.11443 0.33125
# Poissons Ratio (y) = -0.18336 -0.00742
# Poissons Ratio (z) = 0.24332 -0.00340
#
# Static dielectric constant tensor:
#      x y z
#    x 5.950700 0.000000 0.000000 
#    y 0.000000 6.884580 0.000000 
#    z 0.000000 0.000000 3.930690 
# 
# 
# High freq. dielectric constant tensor:
#      x y z
#    x 1.917570 0.000000 0.000000 
#    y 0.000000 1.886570 0.000000 
#    z 0.000000 0.000000 1.890770 
# 
# From -- ./inp_files/18745.got.cif
#   From: 2010.03.12/outbox.cif.g09.slc.cpg/sg72_10_cif.got.tgz:18745.got - 2010.04.16 14:54:00.
