data_PCOD8294915
_publ_section_title
;
Structure prediction by ZEFSAII (Michael W. Deem and Ramdas Pophale) SiO2 
 PCOD8294915
Probable space group: I B A M
;
_chemical_formula_sum "Si O2"
_cell_formula_units_Z 52
_cell_length_a 5.380530
_cell_length_b 30.519014
_cell_length_c 12.062979
_cell_angle_alpha 90.000000
_cell_angle_beta 90.000000
_cell_angle_gamma 90.000000
_cell_volume 1980.843330
_symmetry_space_group_name_H-M "I B A M"
_symmetry_group_IT_number 72
_symmetry_cell_setting 'orthorhombic'
loop_
_space_group_symop_operation_xyz
x,y,z
-x,-y,z
x,-y,1/2-z
-x,y,1/2-z
-x,-y,-z
x,y,-z
-x,y,1/2+z
x,-y,1/2+z
1/2+x,1/2+y,1/2+z
1/2-x,1/2-y,1/2+z
1/2+x,1/2-y,-z
1/2-x,1/2+y,-z
1/2-x,1/2-y,1/2-z
1/2+x,1/2+y,1/2-z
1/2-x,1/2+y,z
1/2+x,1/2-y,z
loop_
_atom_site_type_symbol
_atom_site_label
_atom_site_fract_x
_atom_site_fract_y
_atom_site_fract_z
Si Si1 0.352006 0.272776 0.368505
Si Si2 0.500000 0.000000 0.750000
Si Si3 0.349870 0.372678 0.631225
Si Si4 0.847695 0.580405 0.131289
O O1 0.357137 0.267200 0.500000
O O2 0.124511 0.242451 0.322385
O O3 0.305337 0.322709 0.333447
O O4 0.676376 0.969776 0.672315
O O5 0.358013 0.376963 0.500000
O O6 0.119019 0.402358 0.673961
O O7 0.620697 0.389219 0.677570
O O8 0.835156 0.581765 0.000000
#
# Coordination Sequence:
#
# PCOD8294915 Si02
#       4
#    16   4  16  16
#     4   9  15  24  45  79 114 147 187 227 264 321
#     4  12  26  42  64  88 108 146 194 242 292 344
#     4   9  18  34  54  81 119 155 185 230 285 332
#     4  10  22  39  59  84 116 149 187 235 287 342
#
# _framework density 26.251442999999998
#
# number of rings (size 3 to 8) (size 9 to 14) (size 15 to 20)
#    0.000    2.462    0.000    2.308    0.000   11.077 
#    0.000    4.615    0.000    0.000    0.000   21.538 
#    0.000    0.000    0.000    0.000    0.000    6.154 
#
# Total GULP energy -322675.775422 kJ/mol
# GULP energy per Si atom -12410.606747 kJ/mol
# Density = 2.619169 g / cm^3
# Si number density = 26.251443 Si / 1000 Ang^3
#
#
#
# Elastic Constant Matrix: (Units=GPa)
#
#
# Indices 1 2 3 4 5 6 
#
# 1 198.2380 126.5843 91.4315 0.0000 0.0000 0.0000
# 2 126.5843 218.0952 31.5858 -0.0001 0.0000 0.0000
# 3 91.4315 31.5858 100.2554 0.0001 0.0000 0.0000
# 4 0.0000 -0.0001 0.0001 46.8505 0.0000 0.0000
# 5 0.0000 0.0000 0.0000 0.0000 67.2830 0.0000
# 6 0.0000 0.0000 0.0000 0.0000 0.0000 46.3565
#
#
#
# Elastic Compliance Matrix: (Units=1/GPa)
#
#
# Indices 1 2 3 4 5 6 
#
# 1 0.014509 -0.006816 -0.011085 0.000000 0.000000 0.000000
# 2 -0.006816 0.008006 0.003694 0.000000 0.000000 0.000000
# 3 -0.011085 0.003694 0.018920 0.000000 0.000000 0.000000
# 4 0.000000 0.000000 0.000000 0.021344 0.000000 0.000000
# 5 0.000000 0.000000 0.000000 0.000000 0.014863 0.000000
# 6 0.000000 0.000000 0.000000 0.000000 0.000000 0.021572
#
#
# Mechanical properties :
#
#
# Convention : Reuss Voigt Hill
#
# Bulk Modulus (GPa) = 76.79736 112.86578 94.83157
# Shear Modulus (GPa) = 37.88745 49.89711 43.89228
#
# Velocity S-wave (km/s) = 3.80314 4.36448 4.09344
# Velocity P-wave (km/s) = 6.97160 8.27561 7.65143
#
# Compressibility (1/GPa) = 0.01302128
#
# Stress axis : x y z
#
# Youngs Moduli (GPa) = 68.92090 124.90211 52.85369
#
# Poissons Ratio (x) = 0.85133 0.58588
# Poissons Ratio (y) = 0.46976 -0.19522
# Poissons Ratio (z) = 0.76399 -0.46135
#
# Static dielectric constant tensor:
#      x y z
#    x 5.120820 0.000000 0.000000 
#    y 0.000000 4.459570 0.000000 
#    z 0.000000 0.000000 5.519270 
# 
# 
# High freq. dielectric constant tensor:
#      x y z
#    x 2.068670 0.000000 0.000000 
#    y 0.000000 2.031850 0.000000 
#    z 0.000000 0.000000 2.164530 
# 
# From -- ./inp_files/17557.got.cif
#   From: 2010.03.12/outbox.cif.g09.slc.cpg/sg72_9_cif.got.tgz:17557.got - 2010.04.16 14:54:00.
