data_PCOD8294839
_publ_section_title
;
Structure prediction by ZEFSAII (Michael W. Deem and Ramdas Pophale) SiO2 
 PCOD8294839
Probable space group: I B A M
;
_chemical_formula_sum "Si O2"
_cell_formula_units_Z 52
_cell_length_a 10.626529
_cell_length_b 16.270304
_cell_length_c 13.697292
_cell_angle_alpha 90.000000
_cell_angle_beta 90.000000
_cell_angle_gamma 90.000000
_cell_volume 2368.218740
_symmetry_space_group_name_H-M "I B A M"
_symmetry_group_IT_number 72
_symmetry_cell_setting 'orthorhombic'
loop_
_space_group_symop_operation_xyz
x,y,z
-x,-y,z
x,-y,1/2-z
-x,y,1/2-z
-x,-y,-z
x,y,-z
-x,y,1/2+z
x,-y,1/2+z
1/2+x,1/2+y,1/2+z
1/2-x,1/2-y,1/2+z
1/2+x,1/2-y,-z
1/2-x,1/2+y,-z
1/2-x,1/2-y,1/2-z
1/2+x,1/2+y,1/2-z
1/2-x,1/2+y,z
1/2+x,1/2-y,z
loop_
_atom_site_type_symbol
_atom_site_label
_atom_site_fract_x
_atom_site_fract_y
_atom_site_fract_z
Si Si1 0.053459 0.589825 0.390644
Si Si2 0.315573 0.802260 0.387295
Si Si3 0.500000 0.500000 0.250000
Si Si4 0.805206 0.868631 0.294708
O O1 0.101839 0.606571 0.500000
O O2 0.169078 0.595544 0.318004
O O3 0.000000 0.500000 0.379228
O O4 0.947240 0.655035 0.362203
O O5 0.276022 0.816488 0.500000
O O6 0.203209 0.837989 0.318574
O O7 0.337701 0.706283 0.366166
O O8 0.590453 0.560528 0.187840
#
# Coordination Sequence:
#
# PCOD8294839 Si02
#       4
#    16  16   4  16
#     4  10  21  41  69  99 128 170 223 275 332 396
#     4  10  23  42  69  97 127 175 227 278 333 395
#     4  12  28  44  64 104 134 186 216 270 354 396
#     4  11  24  42  66  96 139 172 222 276 334 407
#
# _framework density 21.957432000000001
#
# number of rings (size 3 to 8) (size 9 to 14) (size 15 to 20)
#    0.000    1.538    0.000    3.692    8.615    1.231 
#    0.000    6.923    0.000    0.000    0.000    0.000 
#    0.000    0.000    0.000    0.000    0.000    0.000 
#
# Total GULP energy -322390.241385 kJ/mol
# GULP energy per Si atom -12399.624669 kJ/mol
# Density = 2.190746 g / cm^3
# Si number density = 21.957432 Si / 1000 Ang^3
#
#
#
# Elastic Constant Matrix: (Units=GPa)
#
#
# Indices 1 2 3 4 5 6 
#
# 1 95.7565 50.5724 38.5638 0.0000 0.0000 0.0003
# 2 50.5724 92.0931 4.4266 0.0000 0.0000 0.0012
# 3 38.5638 4.4266 95.9032 0.0000 0.0000 0.0008
# 4 0.0000 0.0000 0.0000 9.3440 0.0000 0.0000
# 5 0.0000 0.0000 0.0000 0.0000 27.8954 -0.0002
# 6 0.0003 0.0012 0.0008 0.0000 -0.0002 576.3404
#
#
#
# Elastic Compliance Matrix: (Units=1/GPa)
#
#
# Indices 1 2 3 4 5 6 
#
# 1 0.018402 -0.009772 -0.006949 0.000000 0.000000 0.000000
# 2 -0.009772 0.016071 0.003187 0.000000 0.000000 0.000000
# 3 -0.006949 0.003187 0.013074 0.000000 0.000000 0.000000
# 4 0.000000 0.000000 0.000000 0.107021 0.000000 0.000000
# 5 0.000000 0.000000 0.000000 0.000000 0.035848 0.000000
# 6 0.000000 0.000000 0.000000 0.000000 0.000000 0.001735
#
#
# Mechanical properties :
#
#
# Convention : Reuss Voigt Hill
#
# Bulk Modulus (GPa) = 48.82286 52.31982 50.57134
# Shear Modulus (GPa) = 22.11949 135.39529 78.75739
#
# Velocity S-wave (km/s) = 3.17737 7.86107 5.99551
# Velocity P-wave (km/s) = 5.97866 10.30897 8.42672
#
# Compressibility (1/GPa) = 0.02048221
#
# Stress axis : x y z
#
# Youngs Moduli (GPa) = 54.34110 62.22258 76.48630
#
# Poissons Ratio (x) = 0.60801 0.53148
# Poissons Ratio (y) = 0.53099 -0.24379
# Poissons Ratio (z) = 0.37760 -0.19833
#
# Static dielectric constant tensor:
#      x y z
#    x 3.723520 0.000000 0.000000 
#    y 0.000000 4.175870 0.000000 
#    z 0.000000 0.000000 4.208470 
# 
# 
# High freq. dielectric constant tensor:
#      x y z
#    x 1.853530 0.000000 0.000000 
#    y 0.000000 1.881780 0.000000 
#    z 0.000000 0.000000 1.861990 
# 
# From -- ./inp_files/19550.got.cif
#   From: 2010.03.12/outbox.cif.g09.slc.cpg/sg72_10_cif.got.tgz:19550.got - 2010.04.16 14:54:00.
