data_PCOD8294423
_publ_section_title
;
Structure prediction by ZEFSAII (Michael W. Deem and Ramdas Pophale) SiO2 
 PCOD8294423
Probable space group: I B A M
;
_chemical_formula_sum "Si O2"
_cell_formula_units_Z 80
_cell_length_a 17.657550
_cell_length_b 14.521660
_cell_length_c 15.601434
_cell_angle_alpha 90.000000
_cell_angle_beta 90.000000
_cell_angle_gamma 90.000000
_cell_volume 4000.471927
_symmetry_space_group_name_H-M "I B A M"
_symmetry_group_IT_number 72
_symmetry_cell_setting 'orthorhombic'
loop_
_space_group_symop_operation_xyz
x,y,z
-x,-y,z
x,-y,1/2-z
-x,y,1/2-z
-x,-y,-z
x,y,-z
-x,y,1/2+z
x,-y,1/2+z
1/2+x,1/2+y,1/2+z
1/2-x,1/2-y,1/2+z
1/2+x,1/2-y,-z
1/2-x,1/2+y,-z
1/2-x,1/2-y,1/2-z
1/2+x,1/2+y,1/2-z
1/2-x,1/2+y,z
1/2+x,1/2-y,z
loop_
_atom_site_type_symbol
_atom_site_label
_atom_site_fract_x
_atom_site_fract_y
_atom_site_fract_z
Si Si1 0.818503 0.144319 0.592922
Si Si2 0.732723 0.027048 0.152415
Si Si3 0.792821 0.227424 0.164145
Si Si4 0.931729 0.429354 0.598795
Si Si5 0.421040 0.249443 0.280260
O O1 0.857388 0.150249 0.500000
O O2 0.743885 0.209612 0.590840
O O3 0.880280 0.173820 0.662482
O O4 0.790856 0.041813 0.608787
O O5 0.777837 0.122059 0.140532
O O6 0.650951 0.024042 0.106048
O O7 0.718086 0.000000 0.250000
O O8 0.750000 0.250000 0.250000
O O9 0.878058 0.258867 0.187871
O O10 0.942717 0.395545 0.500000
O O11 0.931214 0.345230 0.666669
O O12 0.000000 0.500000 0.622900
O O13 0.500000 0.290111 0.250000
#
# Coordination Sequence:
#
# PCOD8294423 Si02
#       5
#    16  16  16  16  16
#     4  11  23  40  65  94 128 167 212 266 318 370
#     4  12  21  39  67  94 125 165 220 260 308 386
#     4  10  20  40  62  91 123 169 216 255 305 374
#     4  11  25  38  57  95 137 166 199 257 326 382
#     4  11  23  41  63  90 127 170 211 258 314 382
#
# _framework density 19.997641000000002
#
# number of rings (size 3 to 8) (size 9 to 14) (size 15 to 20)
#    0.000    1.000    8.000    1.200    5.600    0.800 
#    0.000    3.000    0.000    1.200    0.000    0.000 
#    0.000    0.000    0.000    0.000    0.000    0.000 
#
# Total GULP energy -495596.093841 kJ/mol
# GULP energy per Si atom -12389.902346 kJ/mol
# Density = 1.995213 g / cm^3
# Si number density = 19.997641 Si / 1000 Ang^3
#
#
#
# Elastic Constant Matrix: (Units=GPa)
#
#
# Indices 1 2 3 4 5 6 
#
# 1 143.4421 47.7212 37.2975 0.0000 0.0000 0.0000
# 2 47.7212 146.5305 29.2605 0.0000 0.0000 0.0000
# 3 37.2975 29.2605 78.4802 0.0000 0.0000 0.0000
# 4 0.0000 0.0000 0.0000 7.6156 0.0000 0.0000
# 5 0.0000 0.0000 0.0000 0.0000 22.5586 0.0000
# 6 0.0000 0.0000 0.0000 0.0000 0.0000 33.1939
#
#
#
# Elastic Compliance Matrix: (Units=1/GPa)
#
#
# Indices 1 2 3 4 5 6 
#
# 1 0.008526 -0.002126 -0.003259 0.000000 0.000000 0.000000
# 2 -0.002126 0.007904 -0.001936 0.000000 0.000000 0.000000
# 3 -0.003259 -0.001936 0.015013 0.000000 0.000000 0.000000
# 4 0.000000 0.000000 0.000000 0.131310 0.000000 0.000000
# 5 0.000000 0.000000 0.000000 0.000000 0.044329 0.000000
# 6 0.000000 0.000000 0.000000 0.000000 0.000000 0.030126
#
#
# Mechanical properties :
#
#
# Convention : Reuss Voigt Hill
#
# Bulk Modulus (GPa) = 59.52623 66.33458 62.93041
# Shear Modulus (GPa) = 19.42120 29.61854 24.51987
#
# Velocity S-wave (km/s) = 3.11975 3.85268 3.50542
# Velocity P-wave (km/s) = 6.54281 7.28245 6.92252
#
# Compressibility (1/GPa) = 0.01679932
#
# Stress axis : x y z
#
# Youngs Moduli (GPa) = 117.28526 126.52545 66.60861
#
# Poissons Ratio (x) = 0.26898 0.21711
# Poissons Ratio (y) = 0.24934 0.12898
# Poissons Ratio (z) = 0.38228 0.24501
#
# Static dielectric constant tensor:
#      x y z
#    x 4.031630 0.000000 0.000000 
#    y 0.000000 3.787710 0.000000 
#    z 0.000000 0.000000 3.253910 
# 
# 
# High freq. dielectric constant tensor:
#      x y z
#    x 1.772460 0.000000 0.000000 
#    y 0.000000 1.778670 0.000000 
#    z 0.000000 0.000000 1.781620 
# 
# From -- ./inp_files/31378.got.cif
#   From: 2010.03.12/outbox.cif.g09.slc.cpg/sg72_16_cif.got.tgz:31378.got - 2010.04.16 14:54:00.
