data_PCOD8294643
_publ_section_title
;
Structure prediction by ZEFSAII (Michael W. Deem and Ramdas Pophale) SiO2 
 PCOD8294643
Probable space group: I B A M
;
_chemical_formula_sum "Si O2"
_cell_formula_units_Z 72
_cell_length_a 8.631217
_cell_length_b 18.693790
_cell_length_c 20.202509
_cell_angle_alpha 90.000000
_cell_angle_beta 90.000000
_cell_angle_gamma 90.000000
_cell_volume 3259.678020
_symmetry_space_group_name_H-M "I B A M"
_symmetry_group_IT_number 72
_symmetry_cell_setting 'orthorhombic'
loop_
_space_group_symop_operation_xyz
x,y,z
-x,-y,z
x,-y,1/2-z
-x,y,1/2-z
-x,-y,-z
x,y,-z
-x,y,1/2+z
x,-y,1/2+z
1/2+x,1/2+y,1/2+z
1/2-x,1/2-y,1/2+z
1/2+x,1/2-y,-z
1/2-x,1/2+y,-z
1/2-x,1/2-y,1/2-z
1/2+x,1/2+y,1/2-z
1/2-x,1/2+y,z
1/2+x,1/2-y,z
loop_
_atom_site_type_symbol
_atom_site_label
_atom_site_fract_x
_atom_site_fract_y
_atom_site_fract_z
Si Si1 0.139755 0.865092 0.075499
Si Si2 0.447242 0.287706 0.320710
Si Si3 0.765772 0.589750 0.303334
Si Si4 0.598620 0.122035 0.167030
Si Si5 0.000000 0.000000 0.134657
O O1 0.316854 0.882263 0.096353
O O2 0.073277 0.801854 0.121786
O O3 0.041676 0.936365 0.085284
O O4 0.134757 0.839146 0.000000
O O5 0.500000 0.319587 0.250000
O O6 0.292083 0.333994 0.333244
O O7 0.420027 0.204462 0.312979
O O8 0.790967 0.588383 0.223895
O O9 0.646109 0.525930 0.320851
O O10 0.935550 0.579852 0.336917
#
# Coordination Sequence:
#
# PCOD8294643 Si02
#       5
#    16  16  16  16   8
#     4  11  25  42  63  92 133 179 217 269 334 400
#     4  11  19  39  69  98 129 165 212 270 333 397
#     4  10  21  37  65  98 122 170 214 283 326 380
#     4  11  21  37  66 100 130 159 221 279 334 389
#     4  10  25  45  62  84 132 178 232 270 320 396
#
# _framework density 22.088070999999999
#
# number of rings (size 3 to 8) (size 9 to 14) (size 15 to 20)
#    0.000    1.333    4.444    2.333    0.000    3.556 
#    0.000    8.889    0.000    0.000    0.000    0.000 
#    0.000    0.000    0.000    0.000    0.000    0.000 
#
# Total GULP energy -446262.375983 kJ/mol
# GULP energy per Si atom -12396.177111 kJ/mol
# Density = 2.203780 g / cm^3
# Si number density = 22.088071 Si / 1000 Ang^3
#
#
#
# Elastic Constant Matrix: (Units=GPa)
#
#
# Indices 1 2 3 4 5 6 
#
# 1 135.6497 19.7220 60.1043 0.0000 0.0000 0.0000
# 2 19.7220 45.8411 15.0633 0.0000 0.0000 0.0000
# 3 60.1043 15.0633 164.2295 0.0000 0.0000 0.0000
# 4 0.0000 0.0000 0.0000 17.6617 0.0000 0.0000
# 5 0.0000 0.0000 0.0000 0.0000 29.5581 0.0000
# 6 0.0000 0.0000 0.0000 0.0000 0.0000 33.4039
#
#
#
# Elastic Compliance Matrix: (Units=1/GPa)
#
#
# Indices 1 2 3 4 5 6 
#
# 1 0.009165 -0.002929 -0.003085 0.000000 0.000000 0.000000
# 2 -0.002929 0.023429 -0.001077 0.000000 0.000000 0.000000
# 3 -0.003085 -0.001077 0.007317 0.000000 0.000000 0.000000
# 4 0.000000 0.000000 0.000000 0.056620 0.000000 0.000000
# 5 0.000000 0.000000 0.000000 0.000000 0.033832 0.000000
# 6 0.000000 0.000000 0.000000 0.000000 0.000000 0.029937
#
#
# Mechanical properties :
#
#
# Convention : Reuss Voigt Hill
#
# Bulk Modulus (GPa) = 38.86894 59.49996 49.18445
# Shear Modulus (GPa) = 27.31387 32.84680 30.08033
#
# Velocity S-wave (km/s) = 3.52033 3.86046 3.69431
# Velocity P-wave (km/s) = 5.84458 6.84594 6.36498
#
# Compressibility (1/GPa) = 0.02572749
#
# Stress axis : x y z
#
# Youngs Moduli (GPa) = 109.11167 42.68299 136.66735
#
# Poissons Ratio (x) = 0.12502 0.42169
# Poissons Ratio (y) = 0.31960 0.14718
# Poissons Ratio (z) = 0.33666 0.04597
#
# Static dielectric constant tensor:
#      x y z
#    x 4.378390 0.000000 0.000000 
#    y 0.000000 3.877360 0.000000 
#    z 0.000000 0.000000 3.530270 
# 
# 
# High freq. dielectric constant tensor:
#      x y z
#    x 1.885080 0.000000 0.000000 
#    y 0.000000 1.876980 0.000000 
#    z 0.000000 0.000000 1.824660 
# 
# From -- ./inp_files/35641.got.cif
#   From: 2010.03.12/outbox.cif.g09.slc.cpg/sg72_18_cif.got.tgz:35641.got - 2010.04.16 14:54:00.
