data_PCOD8294263
_publ_section_title
;
Structure prediction by ZEFSAII (Michael W. Deem and Ramdas Pophale) SiO2 
 PCOD8294263
Probable space group: I B A M
;
_chemical_formula_sum "Si O2"
_cell_formula_units_Z 96
_cell_length_a 15.944979
_cell_length_b 20.733959
_cell_length_c 15.344053
_cell_angle_alpha 90.000000
_cell_angle_beta 90.000000
_cell_angle_gamma 90.000000
_cell_volume 5072.782909
_symmetry_space_group_name_H-M "I B A M"
_symmetry_group_IT_number 72
_symmetry_cell_setting 'orthorhombic'
loop_
_space_group_symop_operation_xyz
x,y,z
-x,-y,z
x,-y,1/2-z
-x,y,1/2-z
-x,-y,-z
x,y,-z
-x,y,1/2+z
x,-y,1/2+z
1/2+x,1/2+y,1/2+z
1/2-x,1/2-y,1/2+z
1/2+x,1/2-y,-z
1/2-x,1/2+y,-z
1/2-x,1/2-y,1/2-z
1/2+x,1/2+y,1/2-z
1/2-x,1/2+y,z
1/2+x,1/2-y,z
loop_
_atom_site_type_symbol
_atom_site_label
_atom_site_fract_x
_atom_site_fract_y
_atom_site_fract_z
Si Si1 0.984980 0.575690 0.095863
Si Si2 0.325235 0.069055 0.705118
Si Si3 0.636609 0.836786 0.156937
Si Si4 0.789961 0.143963 0.099517
Si Si5 0.702949 0.275273 0.095155
Si Si6 0.906212 0.795390 0.263159
O O1 0.916608 0.588630 0.169191
O O2 0.000000 0.500000 0.097799
O O3 0.069380 0.616010 0.112480
O O4 0.951501 0.595672 0.000000
O O5 0.306066 0.122580 0.777083
O O6 0.254379 0.076879 0.630223
O O7 0.322817 0.000000 0.750000
O O8 0.705462 0.809027 0.090441
O O9 0.589689 0.778183 0.204496
O O10 0.719333 0.199356 0.109357
O O11 0.867778 0.158929 0.162362
O O12 0.821568 0.136711 0.000000
O O13 0.644242 0.301346 0.172171
O O14 0.660374 0.286824 0.000000
O O15 0.000000 0.820818 0.250000
#
# Coordination Sequence:
#
# PCOD8294263 Si02
#       6
#    16  16  16  16  16  16
#     4  11  23  34  48  80 120 158 197 232 272 338
#     4  12  21  35  56  80 114 160 197 229 281 344
#     4  11  20  37  55  81 117 155 193 232 280 345
#     4  10  21  39  59  83 116 152 193 241 292 347
#     4  10  20  37  59  82 114 152 192 244 296 343
#     4  11  21  37  60  87 113 147 195 247 299 346
#
# _framework density 18.924524000000002
#
# number of rings (size 3 to 8) (size 9 to 14) (size 15 to 20)
#    0.000    1.167    5.000    3.500    0.000    1.333 
#    0.000    0.000    0.000    0.500    0.000    1.167 
#    0.000    0.000    0.000    0.000    0.000    0.000 
#
# Total GULP energy -594990.201135 kJ/mol
# GULP energy per Si atom -12395.629190 kJ/mol
# Density = 1.888145 g / cm^3
# Si number density = 18.924524 Si / 1000 Ang^3
#
#
#
# Elastic Constant Matrix: (Units=GPa)
#
#
# Indices 1 2 3 4 5 6 
#
# 1 106.6145 37.8141 58.6515 0.0000 0.0000 0.0000
# 2 37.8141 62.3569 31.6348 -0.0001 0.0000 0.0000
# 3 58.6515 31.6348 138.9916 -0.0003 0.0000 0.0000
# 4 0.0000 -0.0001 -0.0003 13.7587 0.0000 0.0000
# 5 0.0000 0.0000 0.0000 0.0000 7.6052 0.0000
# 6 0.0000 0.0000 0.0000 0.0000 0.0000 25.7414
#
#
#
# Elastic Compliance Matrix: (Units=1/GPa)
#
#
# Indices 1 2 3 4 5 6 
#
# 1 0.014082 -0.006246 -0.004521 0.000000 0.000000 0.000000
# 2 -0.006246 0.020901 -0.002121 0.000000 0.000000 0.000000
# 3 -0.004521 -0.002121 0.009585 0.000000 0.000000 0.000000
# 4 0.000000 0.000000 0.000000 0.072681 0.000000 0.000000
# 5 0.000000 0.000000 0.000000 0.000000 0.131489 0.000000
# 6 0.000000 0.000000 0.000000 0.000000 0.000000 0.038848
#
#
# Mechanical properties :
#
#
# Convention : Reuss Voigt Hill
#
# Bulk Modulus (GPa) = 53.21535 62.68486 57.95011
# Shear Modulus (GPa) = 15.64331 21.41190 18.52760
#
# Velocity S-wave (km/s) = 2.87821 3.36733 3.13233
# Velocity P-wave (km/s) = 6.26309 6.95083 6.61590
#
# Compressibility (1/GPa) = 0.01879157
#
# Stress axis : x y z
#
# Youngs Moduli (GPa) = 71.01342 47.84552 104.32853
#
# Poissons Ratio (x) = 0.29884 0.47163
# Poissons Ratio (y) = 0.44355 0.22132
# Poissons Ratio (z) = 0.32103 0.10150
#
# Static dielectric constant tensor:
#      x y z
#    x 3.186350 0.000000 0.000000 
#    y 0.000000 3.331370 0.000000 
#    z 0.000000 0.000000 3.757160 
# 
# 
# High freq. dielectric constant tensor:
#      x y z
#    x 1.712940 0.000000 0.000000 
#    y 0.000000 1.712790 0.000000 
#    z 0.000000 0.000000 1.756160 
# 
# From -- ./inp_files/21837.got.cif
#   From: 2010.03.12/outbox.cif.g09.slc.cpg/sg72_11_cif.got.tgz:21837.got - 2010.04.16 14:54:00.
