data_PCOD8294410
_publ_section_title
;
Structure prediction by ZEFSAII (Michael W. Deem and Ramdas Pophale) SiO2 
 PCOD8294410
Probable space group: I B A M
;
_chemical_formula_sum "Si O2"
_cell_formula_units_Z 56
_cell_length_a 8.764343
_cell_length_b 13.332556
_cell_length_c 19.312672
_cell_angle_alpha 90.000000
_cell_angle_beta 90.000000
_cell_angle_gamma 90.000000
_cell_volume 2256.706848
_symmetry_space_group_name_H-M "I B A M"
_symmetry_group_IT_number 72
_symmetry_cell_setting 'orthorhombic'
loop_
_space_group_symop_operation_xyz
x,y,z
-x,-y,z
x,-y,1/2-z
-x,y,1/2-z
-x,-y,-z
x,y,-z
-x,y,1/2+z
x,-y,1/2+z
1/2+x,1/2+y,1/2+z
1/2-x,1/2-y,1/2+z
1/2+x,1/2-y,-z
1/2-x,1/2+y,-z
1/2-x,1/2-y,1/2-z
1/2+x,1/2+y,1/2-z
1/2-x,1/2+y,z
1/2+x,1/2-y,z
loop_
_atom_site_type_symbol
_atom_site_label
_atom_site_fract_x
_atom_site_fract_y
_atom_site_fract_z
Si Si1 0.925817 0.855866 0.500000
Si Si2 0.200420 0.500000 0.250000
Si Si3 0.219076 0.141964 0.636896
Si Si4 0.926040 0.356946 0.137671
Si Si5 0.212940 0.365300 0.500000
O O1 0.860190 0.908587 0.569162
O O2 0.863195 0.744006 0.500000
O O3 0.106406 0.861004 0.500000
O O4 0.308890 0.431733 0.201780
O O5 0.092893 0.570824 0.203070
O O6 0.147101 0.249571 0.654592
O O7 0.396913 0.158958 0.622065
O O8 0.847866 0.413765 0.071585
#
# Coordination Sequence:
#
# PCOD8294410 Si02
#       5
#     8   8  16  16   8
#     4  10  20  39  64  93 122 160 206 257 309 363
#     4  12  27  42  63  92 129 170 209 246 307 380
#     4  11  22  42  66  93 124 163 207 256 307 366
#     4  11  22  42  66  93 124 163 207 256 307 366
#     4  10  20  39  64  93 122 160 206 257 309 363
#
# _framework density 24.814920000000001
#
# number of rings (size 3 to 8) (size 9 to 14) (size 15 to 20)
#    0.000    1.143    0.000   11.143    0.000    1.143 
#    0.000   20.000    0.000    0.000    0.000    0.000 
#    0.000    0.000    0.000    0.000    0.000    0.000 
#
# Total GULP energy -347182.567813 kJ/mol
# GULP energy per Si atom -12399.377422 kJ/mol
# Density = 2.475844 g / cm^3
# Si number density = 24.814920 Si / 1000 Ang^3
#
#
#
# Elastic Constant Matrix: (Units=GPa)
#
#
# Indices 1 2 3 4 5 6 
#
# 1 196.3608 59.3231 96.8827 0.0000 0.0000 0.0000
# 2 59.3231 96.7599 70.9915 0.0000 0.0000 0.0000
# 3 96.8827 70.9915 226.6590 0.0000 0.0000 0.0000
# 4 0.0000 0.0000 0.0000 122.5493 0.0000 0.0000
# 5 0.0000 0.0000 0.0000 0.0000 30.6426 0.0000
# 6 0.0000 0.0000 0.0000 0.0000 0.0000 29.3209
#
#
#
# Elastic Compliance Matrix: (Units=1/GPa)
#
#
# Indices 1 2 3 4 5 6 
#
# 1 0.006960 -0.002706 -0.002127 0.000000 0.000000 0.000000
# 2 -0.002706 0.014471 -0.003376 0.000000 0.000000 0.000000
# 3 -0.002127 -0.003376 0.006378 0.000000 0.000000 0.000000
# 4 0.000000 0.000000 0.000000 0.008160 0.000000 0.000000
# 5 0.000000 0.000000 0.000000 0.000000 0.032634 0.000000
# 6 0.000000 0.000000 0.000000 0.000000 0.000000 0.034105
#
#
# Mechanical properties :
#
#
# Convention : Reuss Voigt Hill
#
# Bulk Modulus (GPa) = 87.79082 108.24159 98.01620
# Shear Modulus (GPa) = 40.67562 56.00806 48.34184
#
# Velocity S-wave (km/s) = 4.05305 4.75598 4.41851
# Velocity P-wave (km/s) = 7.57350 8.59496 8.10035
#
# Compressibility (1/GPa) = 0.01139071
#
# Stress axis : x y z
#
# Youngs Moduli (GPa) = 143.68122 69.10518 156.77796
#
# Poissons Ratio (x) = 0.18702 0.33351
# Poissons Ratio (y) = 0.38885 0.52921
# Poissons Ratio (z) = 0.30565 0.23327
#
# Static dielectric constant tensor:
#      x y z
#    x 4.270690 0.000000 0.000000 
#    y 0.000000 5.678790 0.000000 
#    z 0.000000 0.000000 5.812850 
# 
# 
# High freq. dielectric constant tensor:
#      x y z
#    x 1.990620 0.000000 0.000000 
#    y 0.000000 1.984620 0.000000 
#    z 0.000000 0.000000 2.015750 
# 
# From -- ./inp_files/35279.got.cif
#   From: 2010.03.12/outbox.cif.g09.slc.cpg/sg72_18_cif.got.tgz:35279.got - 2010.04.16 14:54:00.
