data_PCOD8294723
_publ_section_title
;
Structure prediction by ZEFSAII (Michael W. Deem and Ramdas Pophale) SiO2 
 PCOD8294723
Probable space group: I B A M
;
_chemical_formula_sum "Si O2"
_cell_formula_units_Z 116
_cell_length_a 8.777782
_cell_length_b 23.731593
_cell_length_c 31.273533
_cell_angle_alpha 90.000000
_cell_angle_beta 90.000000
_cell_angle_gamma 90.000000
_cell_volume 6514.613110
_symmetry_space_group_name_H-M "I B A M"
_symmetry_group_IT_number 72
_symmetry_cell_setting 'orthorhombic'
loop_
_space_group_symop_operation_xyz
x,y,z
-x,-y,z
x,-y,1/2-z
-x,y,1/2-z
-x,-y,-z
x,y,-z
-x,y,1/2+z
x,-y,1/2+z
1/2+x,1/2+y,1/2+z
1/2-x,1/2-y,1/2+z
1/2+x,1/2-y,-z
1/2-x,1/2+y,-z
1/2-x,1/2-y,1/2-z
1/2+x,1/2+y,1/2-z
1/2-x,1/2+y,z
1/2+x,1/2-y,z
loop_
_atom_site_type_symbol
_atom_site_label
_atom_site_fract_x
_atom_site_fract_y
_atom_site_fract_z
Si Si1 0.845089 0.797790 0.805243
Si Si2 0.000000 0.500000 0.250000
Si Si3 0.807867 0.182930 0.207884
Si Si4 0.131802 0.576021 0.319350
Si Si5 0.163122 0.993632 0.631086
Si Si6 0.332510 0.119764 0.135140
Si Si7 0.234280 0.476541 0.953486
Si Si8 0.551843 0.907761 0.952663
O O1 0.800866 0.823410 0.759194
O O2 0.807495 0.731701 0.806720
O O3 0.749754 0.826819 0.843369
O O4 0.025778 0.804125 0.811199
O O5 0.108520 0.541155 0.276337
O O6 0.753586 0.124795 0.187892
O O7 0.199433 0.531041 0.351795
O O8 0.974587 0.601178 0.336258
O O9 0.138152 0.017752 0.582928
O O10 0.206757 0.928783 0.634352
O O11 0.000000 0.000000 0.654908
O O12 0.388546 0.132449 0.086160
O O13 0.134632 0.532747 0.950310
O O14 0.127335 0.421490 0.946397
O O15 0.313473 0.471896 0.000000
O O16 0.578969 0.879894 0.000000
#
# Coordination Sequence:
#
# PCOD8294723 Si02
#       8
#    16   4  16  16  16  16  16  16
#     4  10  21  39  58  83 102 140 176 233 273 323
#     4  12  24  36  54  76 106 148 194 220 282 332
#     4  10  22  38  58  79 109 134 182 226 279 316
#     4  12  22  37  52  76 105 148 183 229 270 333
#     4  11  21  32  47  75 111 144 179 223 271 329
#     4  11  19  34  56  77 107 140 185 224 266 327
#     4   8  14  27  46  70 103 141 177 216 263 318
#     4   8  14  26  48  75 102 137 177 219 264 316
#
# _framework density 17.806121999999998
#
# number of rings (size 3 to 8) (size 9 to 14) (size 15 to 20)
#    0.000    1.931    2.759    3.310    0.000    2.483 
#    0.000    0.000    0.000    0.000    0.000    4.828 
#    0.000    0.000    0.000    0.000    0.000    0.000 
#
# Total GULP energy -718813.518531 kJ/mol
# GULP energy per Si atom -12393.336526 kJ/mol
# Density = 1.776559 g / cm^3
# Si number density = 17.806122 Si / 1000 Ang^3
#
#
#
# Elastic Constant Matrix: (Units=GPa)
#
#
# Indices 1 2 3 4 5 6 
#
# 1 84.1316 22.1573 26.1021 0.0000 0.0000 0.0000
# 2 22.1573 55.1336 29.3743 0.0000 0.0000 0.0000
# 3 26.1021 29.3743 97.4958 0.0000 0.0000 0.0000
# 4 0.0000 0.0000 0.0000 23.2314 0.0000 0.0000
# 5 0.0000 0.0000 0.0000 0.0000 15.4730 0.0000
# 6 0.0000 0.0000 0.0000 0.0000 0.0000 29.0997
#
#
#
# Elastic Compliance Matrix: (Units=1/GPa)
#
#
# Indices 1 2 3 4 5 6 
#
# 1 0.013750 -0.004246 -0.002402 0.000000 0.000000 0.000000
# 2 -0.004246 0.022917 -0.005768 0.000000 0.000000 0.000000
# 3 -0.002402 -0.005768 0.012638 0.000000 0.000000 0.000000
# 4 0.000000 0.000000 0.000000 0.043045 0.000000 0.000000
# 5 0.000000 0.000000 0.000000 0.000000 0.064629 0.000000
# 6 0.000000 0.000000 0.000000 0.000000 0.000000 0.034365
#
#
# Mechanical properties :
#
#
# Convention : Reuss Voigt Hill
#
# Bulk Modulus (GPa) = 40.86153 43.55871 42.21012
# Shear Modulus (GPa) = 22.28836 24.16931 23.22883
#
# Velocity S-wave (km/s) = 3.54181 3.68823 3.61576
# Velocity P-wave (km/s) = 6.30268 6.53095 6.41783
#
# Compressibility (1/GPa) = 0.02447290
#
# Stress axis : x y z
#
# Youngs Moduli (GPa) = 72.72953 43.63528 79.12844
#
# Poissons Ratio (x) = 0.18528 0.19005
# Poissons Ratio (y) = 0.30881 0.45640
# Poissons Ratio (z) = 0.17468 0.25168
#
# Static dielectric constant tensor:
#      x y z
#    x 3.397730 0.000000 0.000000 
#    y 0.000000 2.996090 0.000000 
#    z 0.000000 0.000000 4.061420 
# 
# 
# High freq. dielectric constant tensor:
#      x y z
#    x 1.690290 0.000000 0.000000 
#    y 0.000000 1.652470 0.000000 
#    z 0.000000 0.000000 1.691940 
# 
# From -- ./inp_files/51002.got.cif
#   From: 2010.03.12/outbox.cif.g09.slc.cpg/sg72_26_cif.got.tgz:51002.got - 2010.04.16 14:54:00.
