data_PCOD8294966
_publ_section_title
;
Structure prediction by ZEFSAII (Michael W. Deem and Ramdas Pophale) SiO2 
 PCOD8294966
Probable space group: I B A M
;
_chemical_formula_sum "Si O2"
_cell_formula_units_Z 96
_cell_length_a 13.687969
_cell_length_b 20.252901
_cell_length_c 15.676519
_cell_angle_alpha 90.000000
_cell_angle_beta 90.000000
_cell_angle_gamma 90.000000
_cell_volume 4345.861544
_symmetry_space_group_name_H-M "I B A M"
_symmetry_group_IT_number 72
_symmetry_cell_setting 'orthorhombic'
loop_
_space_group_symop_operation_xyz
x,y,z
-x,-y,z
x,-y,1/2-z
-x,y,1/2-z
-x,-y,-z
x,y,-z
-x,y,1/2+z
x,-y,1/2+z
1/2+x,1/2+y,1/2+z
1/2-x,1/2-y,1/2+z
1/2+x,1/2-y,-z
1/2-x,1/2+y,-z
1/2-x,1/2-y,1/2-z
1/2+x,1/2+y,1/2-z
1/2-x,1/2+y,z
1/2+x,1/2-y,z
loop_
_atom_site_type_symbol
_atom_site_label
_atom_site_fract_x
_atom_site_fract_y
_atom_site_fract_z
Si Si1 0.433106 0.289455 0.097691
Si Si2 0.088690 0.457987 0.593836
Si Si3 0.717066 0.355560 0.696765
Si Si4 0.301169 0.486608 0.095647
Si Si5 0.407899 0.162537 0.794664
Si Si6 0.429311 0.397159 0.676263
O O1 0.321504 0.311091 0.118512
O O2 0.449874 0.228397 0.161064
O O3 0.507212 0.350282 0.113846
O O4 0.441190 0.266689 0.000000
O O5 0.050150 0.438983 0.500000
O O6 0.187598 0.498130 0.589773
O O7 0.124708 0.390985 0.637273
O O8 0.000000 0.500000 0.638215
O O9 0.700906 0.430889 0.667678
O O10 0.823531 0.329260 0.723238
O O11 0.649777 0.348277 0.780833
O O12 0.374891 0.544851 0.124286
O O13 0.335432 0.464136 0.000000
O O14 0.500000 0.129365 0.750000
O O15 0.500000 0.427212 0.750000
#
# Coordination Sequence:
#
# PCOD8294966 Si02
#       6
#    16  16  16  16  16  16
#     4  11  25  45  65  94 131 176 226 279 337 407
#     4  10  22  40  64  96 132 169 217 276 339 401
#     4  11  23  41  65  96 132 172 225 278 340 405
#     4  11  22  39  65  99 136 176 219 279 347 409
#     4  12  24  42  67  93 130 173 225 275 338 401
#     4  10  22  41  66  97 136 178 230 279 338 406
#
# _framework density 22.089981000000002
#
# number of rings (size 3 to 8) (size 9 to 14) (size 15 to 20)
#    0.000    1.167    1.667    5.000    0.000    6.333 
#    0.000    8.333    0.000    0.000    0.000    0.000 
#    0.000    0.000    0.000    0.000    0.000    0.000 
#
# Total GULP energy -594703.833214 kJ/mol
# GULP energy per Si atom -12389.663192 kJ/mol
# Density = 2.203970 g / cm^3
# Si number density = 22.089981 Si / 1000 Ang^3
#
#
#
# Elastic Constant Matrix: (Units=GPa)
#
#
# Indices 1 2 3 4 5 6 
#
# 1 125.6046 13.1260 39.0259 0.0002 0.0000 0.0000
# 2 13.1260 74.5657 28.2649 0.0002 0.0000 0.0000
# 3 39.0259 28.2649 101.0125 0.0013 0.0000 0.0000
# 4 0.0002 0.0002 0.0013 -1.8690 0.0000 0.0001
# 5 0.0000 0.0000 0.0000 0.0000 28.7915 0.0000
# 6 0.0000 0.0000 0.0000 0.0001 0.0000 29.0792
#
#
#
# Elastic Compliance Matrix: (Units=1/GPa)
#
#
# Indices 1 2 3 4 5 6 
#
# 1 0.009054 -0.000300 -0.003414 -0.000001 0.000000 0.000000
# 2 -0.000300 0.015012 -0.004085 -0.000001 0.000000 0.000000
# 3 -0.003414 -0.004085 0.012362 0.000008 0.000000 0.000000
# 4 -0.000001 -0.000001 0.000008 -0.535032 0.000000 0.000002
# 5 0.000000 0.000000 0.000000 0.000000 0.034733 0.000000
# 6 0.000000 0.000000 0.000000 0.000002 0.000000 0.034389
#
#
# Mechanical properties :
#
#
# Convention : Reuss Voigt Hill
#
# Bulk Modulus (GPa) = 48.00651 51.33515 49.67083
# Shear Modulus (GPa) = -12.28673 25.91807 6.81567
#
# Velocity S-wave (km/s) = -2.36098 3.42906 1.75844
# Velocity P-wave (km/s) = 3.78776 6.24239 5.16307
#
# Compressibility (1/GPa) = 0.02083051
#
# Stress axis : x y z
#
# Youngs Moduli (GPa) = 110.45404 66.61275 80.89466
#
# Poissons Ratio (x) = 0.01996 0.27617
# Poissons Ratio (y) = 0.03309 0.33044
# Poissons Ratio (z) = 0.37709 0.27210
#
# Static dielectric constant tensor:
#      x y z
#    x 4.139120 0.000000 0.000000 
#    y 0.000000 3.761270 0.000000 
#    z 0.000000 0.000000 4.232030 
# 
# 
# High freq. dielectric constant tensor:
#      x y z
#    x 1.881220 0.000000 0.000000 
#    y 0.000000 1.860190 0.000000 
#    z 0.000000 0.000000 1.869130 
# 
# From -- ./inp_files/21766.got.cif
#   From: 2010.03.12/outbox.cif.g09.slc.cpg/sg72_11_cif.got.tgz:21766.got - 2010.04.16 14:54:00.
