data_PCOD8294882
_publ_section_title
;
Structure prediction by ZEFSAII (Michael W. Deem and Ramdas Pophale) SiO2 
 PCOD8294882
Probable space group: I B A M
;
_chemical_formula_sum "Si O2"
_cell_formula_units_Z 52
_cell_length_a 13.663883
_cell_length_b 9.688858
_cell_length_c 20.861336
_cell_angle_alpha 90.000000
_cell_angle_beta 90.000000
_cell_angle_gamma 90.000000
_cell_volume 2761.778495
_symmetry_space_group_name_H-M "I B A M"
_symmetry_group_IT_number 72
_symmetry_cell_setting 'orthorhombic'
loop_
_space_group_symop_operation_xyz
x,y,z
-x,-y,z
x,-y,1/2-z
-x,y,1/2-z
-x,-y,-z
x,y,-z
-x,y,1/2+z
x,-y,1/2+z
1/2+x,1/2+y,1/2+z
1/2-x,1/2-y,1/2+z
1/2+x,1/2-y,-z
1/2-x,1/2+y,-z
1/2-x,1/2-y,1/2-z
1/2+x,1/2+y,1/2-z
1/2-x,1/2+y,z
1/2+x,1/2-y,z
loop_
_atom_site_type_symbol
_atom_site_label
_atom_site_fract_x
_atom_site_fract_y
_atom_site_fract_z
Si Si1 0.770187 0.301696 0.606826
Si Si2 0.810953 0.563684 0.686721
Si Si3 0.000000 0.500000 0.250000
Si Si4 0.401118 0.681071 0.000000
Si Si5 0.878619 0.857759 0.500000
O O1 0.802259 0.452449 0.629917
O O2 0.859608 0.246055 0.564891
O O3 0.673655 0.305173 0.563801
O O4 0.745235 0.202740 0.666898
O O5 0.758038 0.500000 0.750000
O O6 0.926625 0.591520 0.704745
O O7 0.378049 0.521016 0.000000
O O8 0.515714 0.710743 0.000000
#
# Coordination Sequence:
#
# PCOD8294882 Si02
#       5
#    16  16   4   8   8
#     4  11  21  40  60  84 117 155 184 240 288 335
#     4  10  22  39  58  85 115 149 193 235 283 339
#     4   8  24  36  60  88 110 148 200 234 282 328
#     4  10  22  37  58  87 116 153 191 234 284 342
#     4  10  22  37  58  87 116 153 191 234 284 342
#
# _framework density 18.828446
#
# number of rings (size 3 to 8) (size 9 to 14) (size 15 to 20)
#    0.923    0.923    3.077    0.923    4.308    0.000 
#    0.000    1.538    0.000    3.692    0.000    0.000 
#    0.000    0.000    0.000    0.000    0.000    0.000 
#
# Total GULP energy -322257.062002 kJ/mol
# GULP energy per Si atom -12394.502385 kJ/mol
# Density = 1.878559 g / cm^3
# Si number density = 18.828446 Si / 1000 Ang^3
#
#
#
# Elastic Constant Matrix: (Units=GPa)
#
#
# Indices 1 2 3 4 5 6 
#
# 1 107.2875 28.3836 37.5525 0.0000 0.0000 0.0000
# 2 28.3836 56.3965 9.0512 0.0000 0.0000 0.0000
# 3 37.5525 9.0512 83.3983 0.0000 0.0000 0.0000
# 4 0.0000 0.0000 0.0000 35.3984 0.0000 0.0000
# 5 0.0000 0.0000 0.0000 0.0000 84.1505 0.0000
# 6 0.0000 0.0000 0.0000 0.0000 0.0000 22.3279
#
#
#
# Elastic Compliance Matrix: (Units=1/GPa)
#
#
# Indices 1 2 3 4 5 6 
#
# 1 0.012545 -0.005503 -0.005051 0.000000 0.000000 0.000000
# 2 -0.005503 0.020460 0.000257 0.000000 0.000000 0.000000
# 3 -0.005051 0.000257 0.014237 0.000000 0.000000 0.000000
# 4 0.000000 0.000000 0.000000 0.028250 0.000000 0.000000
# 5 0.000000 0.000000 0.000000 0.000000 0.011883 0.000000
# 6 0.000000 0.000000 0.000000 0.000000 0.000000 0.044787
#
#
# Mechanical properties :
#
#
# Convention : Reuss Voigt Hill
#
# Bulk Modulus (GPa) = 37.52640 44.11743 40.82192
# Shear Modulus (GPa) = 30.93324 39.84837 35.39081
#
# Velocity S-wave (km/s) = 4.05767 4.60542 4.34019
# Velocity P-wave (km/s) = 6.47509 7.19458 6.84430
#
# Compressibility (1/GPa) = 0.02664790
#
# Stress axis : x y z
#
# Youngs Moduli (GPa) = 79.71546 48.87637 70.23833
#
# Poissons Ratio (x) = 0.26896 0.35480
# Poissons Ratio (y) = 0.43866 -0.01807
# Poissons Ratio (z) = 0.40267 -0.01258
#
# Static dielectric constant tensor:
#      x y z
#    x 3.373660 0.000000 0.000000 
#    y 0.000000 3.258130 0.000000 
#    z 0.000000 0.000000 3.328850 
# 
# 
# High freq. dielectric constant tensor:
#      x y z
#    x 1.722820 0.000000 0.000000 
#    y 0.000000 1.722210 0.000000 
#    z 0.000000 0.000000 1.743280 
# 
# From -- ./inp_files/28638.got.cif
#   From: 2010.03.12/outbox.cif.g09.slc.cpg/sg72_15_cif.got.tgz:28638.got - 2010.04.16 14:54:00.
