data_PCOD8294783
_publ_section_title
;
Structure prediction by ZEFSAII (Michael W. Deem and Ramdas Pophale) SiO2 
 PCOD8294783
Probable space group: I B A M
;
_chemical_formula_sum "Si O2"
_cell_formula_units_Z 88
_cell_length_a 5.143403
_cell_length_b 24.989260
_cell_length_c 29.904321
_cell_angle_alpha 90.000000
_cell_angle_beta 90.000000
_cell_angle_gamma 90.000000
_cell_volume 3843.597439
_symmetry_space_group_name_H-M "I B A M"
_symmetry_group_IT_number 72
_symmetry_cell_setting 'orthorhombic'
loop_
_space_group_symop_operation_xyz
x,y,z
-x,-y,z
x,-y,1/2-z
-x,y,1/2-z
-x,-y,-z
x,y,-z
-x,y,1/2+z
x,-y,1/2+z
1/2+x,1/2+y,1/2+z
1/2-x,1/2-y,1/2+z
1/2+x,1/2-y,-z
1/2-x,1/2+y,-z
1/2-x,1/2-y,1/2-z
1/2+x,1/2+y,1/2-z
1/2-x,1/2+y,z
1/2+x,1/2-y,z
loop_
_atom_site_type_symbol
_atom_site_label
_atom_site_fract_x
_atom_site_fract_y
_atom_site_fract_z
Si Si1 0.851720 0.892128 0.143126
Si Si2 0.520804 0.284144 0.197489
Si Si3 0.256457 0.036724 0.500000
Si Si4 0.802770 0.718278 0.947946
Si Si5 0.249499 0.559870 0.769280
Si Si6 0.668130 0.894043 0.588255
O O1 0.899438 0.836253 0.168725
O O2 0.750554 0.937616 0.177318
O O3 0.631309 0.892121 0.104404
O O4 0.125954 0.914709 0.124881
O O5 0.500000 0.298388 0.250000
O O6 0.238549 0.260346 0.184839
O O7 0.285018 0.072383 0.543867
O O8 0.500000 0.000000 0.500000
O O9 0.000000 0.000000 0.500000
O O10 0.588971 0.762042 0.934626
O O11 0.736344 0.665955 0.920442
O O12 0.785562 0.704333 0.000000
O O13 0.246127 0.500000 0.750000
O O14 0.500000 0.590689 0.750000
O O15 0.000000 0.591305 0.750000
#
# Coordination Sequence:
#
# PCOD8294783 Si02
#       6
#    16  16   8  16  16  16
#     4  12  25  41  70 106 138 175 233 296 339 404
#     4  10  22  40  64  97 143 196 231 266 336 424
#     4  12  28  56  74  94 136 196 236 290 366 422
#     4  10  21  39  67  98 135 180 221 269 340 411
#     4  10  22  44  66  92 130 172 211 277 351 402
#     4  12  26  46  70 105 141 180 237 289 346 422
#
# _framework density 22.895216000000001
#
# number of rings (size 3 to 8) (size 9 to 14) (size 15 to 20)
#    0.000    1.091    0.909    4.909    0.000    6.545 
#   19.636    0.000    0.000    0.000    0.000    0.000 
#    0.000    0.000    0.000    0.000    0.000    0.000 
#
# Total GULP energy -545342.094254 kJ/mol
# GULP energy per Si atom -12394.138506 kJ/mol
# Density = 2.284311 g / cm^3
# Si number density = 22.895216 Si / 1000 Ang^3
#
#
#
# Elastic Constant Matrix: (Units=GPa)
#
#
# Indices 1 2 3 4 5 6 
#
# 1 180.8148 24.7301 49.2728 0.0000 0.0000 0.0000
# 2 24.7301 83.9462 56.9385 0.0000 0.0000 0.0000
# 3 49.2728 56.9385 116.5519 0.0000 0.0000 0.0000
# 4 0.0000 0.0000 0.0000 10.8554 0.0000 0.0000
# 5 0.0000 0.0000 0.0000 0.0000 48.3631 0.0000
# 6 0.0000 0.0000 0.0000 0.0000 0.0000 23.1444
#
#
#
# Elastic Compliance Matrix: (Units=1/GPa)
#
#
# Indices 1 2 3 4 5 6 
#
# 1 0.006251 -0.000073 -0.002607 0.000000 0.000000 0.000000
# 2 -0.000073 0.017817 -0.008673 0.000000 0.000000 0.000000
# 3 -0.002607 -0.008673 0.013919 0.000000 0.000000 0.000000
# 4 0.000000 0.000000 0.000000 0.092120 0.000000 0.000000
# 5 0.000000 0.000000 0.000000 0.000000 0.020677 0.000000
# 6 0.000000 0.000000 0.000000 0.000000 0.000000 0.043207
#
#
# Mechanical properties :
#
#
# Convention : Reuss Voigt Hill
#
# Bulk Modulus (GPa) = 65.44360 71.46619 68.45489
# Shear Modulus (GPa) = 22.54390 33.16403 27.85397
#
# Velocity S-wave (km/s) = 3.14133 3.81006 3.49174
# Velocity P-wave (km/s) = 6.46554 7.11602 6.79856
#
# Compressibility (1/GPa) = 0.01528033
#
# Stress axis : x y z
#
# Youngs Moduli (GPa) = 159.97675 56.12770 71.84560
#
# Poissons Ratio (x) = 0.00412 0.18728
# Poissons Ratio (y) = 0.01174 0.62310
# Poissons Ratio (z) = 0.41702 0.48678
#
# Static dielectric constant tensor:
#      x y z
#    x 4.294320 0.000000 0.000000 
#    y 0.000000 3.843730 0.000000 
#    z 0.000000 0.000000 4.308270 
# 
# 
# High freq. dielectric constant tensor:
#      x y z
#    x 1.930760 0.000000 0.000000 
#    y 0.000000 1.891870 0.000000 
#    z 0.000000 0.000000 1.913570 
# 
# From -- ./inp_files/50303.got.cif
#   From: 2010.03.12/outbox.cif.g09.slc.cpg/sg72_26_cif.got.tgz:50303.got - 2010.04.16 14:54:00.
