data_PCOD8294434
_publ_section_title
;
Structure prediction by ZEFSAII (Michael W. Deem and Ramdas Pophale) SiO2 
 PCOD8294434
Probable space group: I B A M
;
_chemical_formula_sum "Si O2"
_cell_formula_units_Z 60
_cell_length_a 15.071523
_cell_length_b 17.029658
_cell_length_c 10.467100
_cell_angle_alpha 90.000000
_cell_angle_beta 90.000000
_cell_angle_gamma 90.000000
_cell_volume 2686.516055
_symmetry_space_group_name_H-M "I B A M"
_symmetry_group_IT_number 72
_symmetry_cell_setting 'orthorhombic'
loop_
_space_group_symop_operation_xyz
x,y,z
-x,-y,z
x,-y,1/2-z
-x,y,1/2-z
-x,-y,-z
x,y,-z
-x,y,1/2+z
x,-y,1/2+z
1/2+x,1/2+y,1/2+z
1/2-x,1/2-y,1/2+z
1/2+x,1/2-y,-z
1/2-x,1/2+y,-z
1/2-x,1/2-y,1/2-z
1/2+x,1/2+y,1/2-z
1/2-x,1/2+y,z
1/2+x,1/2-y,z
loop_
_atom_site_type_symbol
_atom_site_label
_atom_site_fract_x
_atom_site_fract_y
_atom_site_fract_z
Si Si1 0.411606 0.153449 0.000000
Si Si2 0.148320 0.899270 0.361584
Si Si3 0.605242 0.754042 0.750322
Si Si4 0.788877 0.515049 0.500000
Si Si5 0.000000 0.000000 0.750000
Si Si6 0.379407 0.847771 0.000000
O O1 0.371399 0.200186 0.120643
O O2 0.377819 0.065148 0.000000
O O3 0.515539 0.138253 0.000000
O O4 0.137570 0.856343 0.500000
O O5 0.156033 0.830521 0.254615
O O6 0.231251 0.960698 0.372648
O O7 0.059718 0.947978 0.341684
O O8 0.500000 0.739006 0.750000
O O9 0.642190 0.802532 0.630232
O O10 0.818022 0.425106 0.500000
#
# Coordination Sequence:
#
# PCOD8294434 Si02
#       6
#     8  16  16   8   4   8
#     4  10  23  38  67 108 134 181 229 287 341 414
#     4  10  23  42  64  97 130 176 225 284 339 425
#     4  10  20  40  71  98 129 182 236 282 343 409
#     4  10  24  42  60 101 140 174 233 280 348 405
#     4  12  22  40  72  94 134 168 220 292 358 402
#     4  10  20  41  71  93 140 189 225 283 339 418
#
# _framework density 22.333758
#
# number of rings (size 3 to 8) (size 9 to 14) (size 15 to 20)
#    0.800    1.067    2.667    0.800    0.000    4.267 
#    2.400    6.667    0.000    1.600    0.000    0.000 
#    0.000    0.000    0.000    0.000    0.000    0.000 
#
# Total GULP energy -371660.988484 kJ/mol
# GULP energy per Si atom -12388.699616 kJ/mol
# Density = 2.228293 g / cm^3
# Si number density = 22.333758 Si / 1000 Ang^3
#
#
#
# Elastic Constant Matrix: (Units=GPa)
#
#
# Indices 1 2 3 4 5 6 
#
# 1 73.7558 53.4182 22.6962 0.0000 0.0000 0.0000
# 2 53.4182 158.0275 51.3613 0.0000 0.0000 0.0000
# 3 22.6962 51.3613 123.0863 0.0000 0.0000 0.0000
# 4 0.0000 0.0000 0.0000 58.0861 0.0000 0.0000
# 5 0.0000 0.0000 0.0000 0.0000 22.2011 0.0000
# 6 0.0000 0.0000 0.0000 0.0000 0.0000 44.3139
#
#
#
# Elastic Compliance Matrix: (Units=1/GPa)
#
#
# Indices 1 2 3 4 5 6 
#
# 1 0.018040 -0.005804 -0.000905 0.000000 0.000000 0.000000
# 2 -0.005804 0.009188 -0.002764 0.000000 0.000000 0.000000
# 3 -0.000905 -0.002764 0.009444 0.000000 0.000000 0.000000
# 4 0.000000 0.000000 0.000000 0.017216 0.000000 0.000000
# 5 0.000000 0.000000 0.000000 0.000000 0.045043 0.000000
# 6 0.000000 0.000000 0.000000 0.000000 0.000000 0.022566
#
#
# Mechanical properties :
#
#
# Convention : Reuss Voigt Hill
#
# Bulk Modulus (GPa) = 56.40807 67.75790 62.08299
# Shear Modulus (GPa) = 34.16407 40.07980 37.12193
#
# Velocity S-wave (km/s) = 3.91539 4.24085 4.08136
# Velocity P-wave (km/s) = 6.76403 7.37458 7.07589
#
# Compressibility (1/GPa) = 0.01772796
#
# Stress axis : x y z
#
# Youngs Moduli (GPa) = 55.43124 108.83396 105.88217
#
# Poissons Ratio (x) = 0.63170 0.09577
# Poissons Ratio (y) = 0.32174 0.29264
# Poissons Ratio (z) = 0.05014 0.30080
#
# Static dielectric constant tensor:
#      x y z
#    x 3.845230 0.000000 0.000000 
#    y 0.000000 3.869140 0.000000 
#    z 0.000000 0.000000 3.816650 
# 
# 
# High freq. dielectric constant tensor:
#      x y z
#    x 1.876030 0.000000 0.000000 
#    y 0.000000 1.881780 0.000000 
#    z 0.000000 0.000000 1.872790 
# 
# From -- ./inp_files/12328.got.cif
#   From: 2010.03.12/outbox.cif.g09.slc.cpg/sg72_7_cif.got.tgz:12328.got - 2010.04.16 14:54:00.
