data_PCOD8294462
_publ_section_title
;
Structure prediction by ZEFSAII (Michael W. Deem and Ramdas Pophale) SiO2 
 PCOD8294462
Probable space group: I B A M
;
_chemical_formula_sum "Si O2"
_cell_formula_units_Z 88
_cell_length_a 18.668754
_cell_length_b 16.494186
_cell_length_c 14.678319
_cell_angle_alpha 90.000000
_cell_angle_beta 90.000000
_cell_angle_gamma 90.000000
_cell_volume 4519.834601
_symmetry_space_group_name_H-M "I B A M"
_symmetry_group_IT_number 72
_symmetry_cell_setting 'orthorhombic'
loop_
_space_group_symop_operation_xyz
x,y,z
-x,-y,z
x,-y,1/2-z
-x,y,1/2-z
-x,-y,-z
x,y,-z
-x,y,1/2+z
x,-y,1/2+z
1/2+x,1/2+y,1/2+z
1/2-x,1/2-y,1/2+z
1/2+x,1/2-y,-z
1/2-x,1/2+y,-z
1/2-x,1/2-y,1/2-z
1/2+x,1/2+y,1/2-z
1/2-x,1/2+y,z
1/2+x,1/2-y,z
loop_
_atom_site_type_symbol
_atom_site_label
_atom_site_fract_x
_atom_site_fract_y
_atom_site_fract_z
Si Si1 0.826085 0.623873 0.601740
Si Si2 0.000000 0.204206 0.750000
Si Si3 0.421997 0.031988 0.396155
Si Si4 0.373623 0.811718 0.212158
Si Si5 0.019570 0.908130 0.395906
Si Si6 0.669794 0.668685 0.396701
O O1 0.842521 0.659839 0.500000
O O2 0.863310 0.537573 0.611231
O O3 0.855090 0.681981 0.681125
O O4 0.740728 0.613608 0.615237
O O5 0.054791 0.261741 0.799807
O O6 0.969009 0.146790 0.831047
O O7 0.430768 0.063229 0.500000
O O8 0.388328 0.101882 0.333814
O O9 0.500000 0.000000 0.361024
O O10 0.317676 0.752694 0.160084
O O11 0.003019 0.886395 0.500000
O O12 0.102391 0.888085 0.368306
O O13 0.000000 0.000000 0.374492
O O14 0.659442 0.697291 0.500000
#
# Coordination Sequence:
#
# PCOD8294462 Si02
#       6
#    16   8  16  16  16  16
#     4  10  21  36  53  76 108 142 179 222 265 317
#     4  10  21  32  51  80 108 134 172 220 263 312
#     4  10  21  37  58  82 108 143 186 228 271 324
#     4  11  20  34  55  79 109 144 178 220 273 324
#     4   9  18  35  57  78 104 139 176 215 262 315
#     4   9  19  36  56  79 107 139 177 221 268 318
#
# _framework density 19.469739000000001
#
# number of rings (size 3 to 8) (size 9 to 14) (size 15 to 20)
#    0.000    2.182    0.000    3.000    0.000    2.182 
#    0.000    9.091    0.000    4.364    0.000    0.000 
#    0.000    0.000    0.000    0.000    0.000    0.000 
#
# Total GULP energy -545165.275453 kJ/mol
# GULP energy per Si atom -12390.119897 kJ/mol
# Density = 1.942543 g / cm^3
# Si number density = 19.469739 Si / 1000 Ang^3
#
#
#
# Elastic Constant Matrix: (Units=GPa)
#
#
# Indices 1 2 3 4 5 6 
#
# 1 77.1066 49.5502 33.2903 0.0000 0.0000 0.0000
# 2 49.5502 105.2220 60.6568 0.0000 0.0000 0.0000
# 3 33.2903 60.6568 116.2918 0.0000 0.0000 0.0000
# 4 0.0000 0.0000 0.0000 32.9670 0.0000 0.0000
# 5 0.0000 0.0000 0.0000 0.0000 22.0870 0.0000
# 6 0.0000 0.0000 0.0000 0.0000 0.0000 26.1514
#
#
#
# Elastic Compliance Matrix: (Units=1/GPa)
#
#
# Indices 1 2 3 4 5 6 
#
# 1 0.018692 -0.008176 -0.001086 0.000000 0.000000 0.000000
# 2 -0.008176 0.017166 -0.006613 0.000000 0.000000 0.000000
# 3 -0.001086 -0.006613 0.012359 0.000000 0.000000 0.000000
# 4 0.000000 0.000000 0.000000 0.030333 0.000000 0.000000
# 5 0.000000 0.000000 0.000000 0.000000 0.045275 0.000000
# 6 0.000000 0.000000 0.000000 0.000000 0.000000 0.038239
#
#
# Mechanical properties :
#
#
# Convention : Reuss Voigt Hill
#
# Bulk Modulus (GPa) = 60.72927 65.06832 62.89879
# Shear Modulus (GPa) = 25.08709 26.58264 25.83486
#
# Velocity S-wave (km/s) = 3.59349 3.69905 3.64665
# Velocity P-wave (km/s) = 6.96253 7.19282 7.07861
#
# Compressibility (1/GPa) = 0.01646652
#
# Stress axis : x y z
#
# Youngs Moduli (GPa) = 53.49818 58.25387 80.90987
#
# Poissons Ratio (x) = 0.47629 0.08789
# Poissons Ratio (y) = 0.43741 0.53507
# Poissons Ratio (z) = 0.05812 0.38525
#
# Static dielectric constant tensor:
#      x y z
#    x 3.585810 0.000000 0.000000 
#    y 0.000000 3.486080 0.000000 
#    z 0.000000 0.000000 4.101590 
# 
# 
# High freq. dielectric constant tensor:
#      x y z
#    x 1.741860 0.000000 0.000000 
#    y 0.000000 1.750540 0.000000 
#    z 0.000000 0.000000 1.778800 
# 
# From -- ./inp_files/24070.got.cif
#   From: 2010.03.12/outbox.cif.g09.slc.cpg/sg72_13_cif.got.tgz:24070.got - 2010.04.16 14:54:00.
