data_PCOD8294846
_publ_section_title
;
Structure prediction by ZEFSAII (Michael W. Deem and Ramdas Pophale) SiO2 
 PCOD8294846
Probable space group: I B A M
;
_chemical_formula_sum "Si O2"
_cell_formula_units_Z 80
_cell_length_a 13.208798
_cell_length_b 11.147082
_cell_length_c 25.662562
_cell_angle_alpha 90.000000
_cell_angle_beta 90.000000
_cell_angle_gamma 90.000000
_cell_volume 3778.544194
_symmetry_space_group_name_H-M "I B A M"
_symmetry_group_IT_number 72
_symmetry_cell_setting 'orthorhombic'
loop_
_space_group_symop_operation_xyz
x,y,z
-x,-y,z
x,-y,1/2-z
-x,y,1/2-z
-x,-y,-z
x,y,-z
-x,y,1/2+z
x,-y,1/2+z
1/2+x,1/2+y,1/2+z
1/2-x,1/2-y,1/2+z
1/2+x,1/2-y,-z
1/2-x,1/2+y,-z
1/2-x,1/2-y,1/2-z
1/2+x,1/2+y,1/2-z
1/2-x,1/2+y,z
1/2+x,1/2-y,z
loop_
_atom_site_type_symbol
_atom_site_label
_atom_site_fract_x
_atom_site_fract_y
_atom_site_fract_z
Si Si1 0.309691 0.310713 0.940137
Si Si2 0.113818 0.995563 0.140209
Si Si3 0.813069 0.537910 0.807556
Si Si4 0.123612 0.734891 0.374776
Si Si5 0.570491 0.895409 0.102731
O O1 0.379187 0.404059 0.908199
O O2 0.194646 0.325456 0.919353
O O3 0.349454 0.172405 0.934539
O O4 0.312705 0.348864 0.000000
O O5 0.191442 0.963232 0.186390
O O6 0.147081 0.126229 0.121452
O O7 0.000000 0.000000 0.162695
O O8 0.845554 0.500000 0.750000
O O9 0.846076 0.675172 0.819112
O O10 0.871088 0.450045 0.847736
O O11 0.005079 0.711583 0.381664
O O12 0.500000 0.000000 0.076364
#
# Coordination Sequence:
#
# PCOD8294846 Si02
#       5
#    16  16  16  16  16
#     4  11  24  41  64  94 129 172 217 265 324 387
#     4  11  22  42  64  93 137 168 206 267 326 386
#     4  10  23  43  68  94 124 171 218 262 320 386
#     4  10  22  42  64  92 130 163 214 269 317 379
#     4  10  21  42  65  91 127 169 216 269 314 382
#
# _framework density 21.172173999999998
#
# number of rings (size 3 to 8) (size 9 to 14) (size 15 to 20)
#    0.000    1.600    4.000    0.000    0.000    7.200 
#    0.000    2.000    0.000    0.000    0.000    0.000 
#    0.000    0.000    0.000    0.000    0.000    0.000 
#
# Total GULP energy -495666.773693 kJ/mol
# GULP energy per Si atom -12391.669342 kJ/mol
# Density = 2.112399 g / cm^3
# Si number density = 21.172174 Si / 1000 Ang^3
#
#
#
# Elastic Constant Matrix: (Units=GPa)
#
#
# Indices 1 2 3 4 5 6 
#
# 1 120.4572 12.8049 21.4001 0.0000 0.0000 0.0000
# 2 12.8049 109.1904 34.6646 0.0000 0.0000 0.0000
# 3 21.4001 34.6646 85.7279 0.0000 0.0000 0.0000
# 4 0.0000 0.0000 0.0000 23.2736 0.0000 0.0000
# 5 0.0000 0.0000 0.0000 0.0000 11.1285 0.0000
# 6 0.0000 0.0000 0.0000 0.0000 0.0000 27.3694
#
#
#
# Elastic Compliance Matrix: (Units=1/GPa)
#
#
# Indices 1 2 3 4 5 6 
#
# 1 0.008701 -0.000380 -0.002018 0.000000 0.000000 0.000000
# 2 -0.000380 0.010524 -0.004161 0.000000 0.000000 0.000000
# 3 -0.002018 -0.004161 0.013851 0.000000 0.000000 0.000000
# 4 0.000000 0.000000 0.000000 0.042967 0.000000 0.000000
# 5 0.000000 0.000000 0.000000 0.000000 0.089859 0.000000
# 6 0.000000 0.000000 0.000000 0.000000 0.000000 0.036537
#
#
# Mechanical properties :
#
#
# Convention : Reuss Voigt Hill
#
# Bulk Modulus (GPa) = 50.10465 50.34606 50.22535
# Shear Modulus (GPa) = 22.50136 28.78804 25.64470
#
# Velocity S-wave (km/s) = 3.26357 3.69143 3.48407
# Velocity P-wave (km/s) = 6.15775 6.48073 6.32130
#
# Compressibility (1/GPa) = 0.01995823
#
# Stress axis : x y z
#
# Youngs Moduli (GPa) = 114.93404 95.02385 72.19681
#
# Poissons Ratio (x) = 0.03606 0.14573
# Poissons Ratio (y) = 0.04362 0.30038
# Poissons Ratio (z) = 0.23199 0.39535
#
# Static dielectric constant tensor:
#      x y z
#    x 4.135010 0.000000 0.000000 
#    y 0.000000 4.056170 0.000000 
#    z 0.000000 0.000000 3.262780 
# 
# 
# High freq. dielectric constant tensor:
#      x y z
#    x 1.855510 0.000000 0.000000 
#    y 0.000000 1.845720 0.000000 
#    z 0.000000 0.000000 1.774500 
# 
# From -- ./inp_files/43131.got.cif
#   From: 2010.03.12/outbox.cif.g09.slc.cpg/sg72_22_cif.got.tgz:43131.got - 2010.04.16 14:54:00.
