data_PCOD8294951
_publ_section_title
;
Structure prediction by ZEFSAII (Michael W. Deem and Ramdas Pophale) SiO2 
 PCOD8294951
Probable space group: I B A M
;
_chemical_formula_sum "Si O2"
_cell_formula_units_Z 112
_cell_length_a 11.702123
_cell_length_b 19.677207
_cell_length_c 24.868663
_cell_angle_alpha 90.000000
_cell_angle_beta 90.000000
_cell_angle_gamma 90.000000
_cell_volume 5726.385088
_symmetry_space_group_name_H-M "I B A M"
_symmetry_group_IT_number 72
_symmetry_cell_setting 'orthorhombic'
loop_
_space_group_symop_operation_xyz
x,y,z
-x,-y,z
x,-y,1/2-z
-x,y,1/2-z
-x,-y,-z
x,y,-z
-x,y,1/2+z
x,-y,1/2+z
1/2+x,1/2+y,1/2+z
1/2-x,1/2-y,1/2+z
1/2+x,1/2-y,-z
1/2-x,1/2+y,-z
1/2-x,1/2-y,1/2-z
1/2+x,1/2+y,1/2-z
1/2-x,1/2+y,z
1/2+x,1/2-y,z
loop_
_atom_site_type_symbol
_atom_site_label
_atom_site_fract_x
_atom_site_fract_y
_atom_site_fract_z
Si Si1 0.757732 0.611914 0.634980
Si Si2 0.885055 0.211088 0.440092
Si Si3 0.580562 0.314652 0.368939
Si Si4 0.866391 0.504630 0.062824
Si Si5 0.536125 0.423345 0.806948
Si Si6 0.524313 0.179157 0.687311
Si Si7 0.332086 0.848038 0.105523
O O1 0.701056 0.672535 0.600315
O O2 0.796415 0.551448 0.595785
O O3 0.670223 0.584277 0.679895
O O4 0.862974 0.639815 0.668965
O O5 0.860410 0.184974 0.500000
O O6 0.872461 0.292695 0.437963
O O7 0.018397 0.198803 0.425928
O O8 0.538147 0.388357 0.352336
O O9 0.538759 0.258688 0.325769
O O10 0.714922 0.317400 0.372554
O O11 0.818939 0.579042 0.077635
O O12 0.000000 0.500000 0.077216
O O13 0.845460 0.490706 0.000000
O O14 0.500000 0.500000 0.807542
O O15 0.500000 0.390395 0.750000
O O16 0.500000 0.168771 0.750000
O O17 0.417910 0.147017 0.655589
#
# Coordination Sequence:
#
# PCOD8294951 Si02
#       7
#    16  16  16  16  16  16  16
#     4  11  22  44  61  92 130 163 213 264 313 388
#     4  10  22  40  64  91 123 163 207 262 321 369
#     4  10  22  40  61  92 125 159 210 266 306 384
#     4  11  23  40  63  92 131 170 205 257 327 383
#     4  10  22  40  63  89 119 166 207 254 314 369
#     4  11  24  40  62  94 128 173 211 264 327 371
#     4  11  22  41  62  94 128 160 215 261 308 388
#
# _framework density 19.558586999999999
#
# number of rings (size 3 to 8) (size 9 to 14) (size 15 to 20)
#    0.000    1.429    2.857    2.143    2.000    1.714 
#    0.000    0.714    0.000    4.714    0.000    0.000 
#    0.000    0.000    0.000    0.000    0.000    0.000 
#
# Total GULP energy -694345.056635 kJ/mol
# GULP energy per Si atom -12399.018868 kJ/mol
# Density = 1.951407 g / cm^3
# Si number density = 19.558587 Si / 1000 Ang^3
#
#
#
# Elastic Constant Matrix: (Units=GPa)
#
#
# Indices 1 2 3 4 5 6 
#
# 1 129.9701 24.2668 69.2785 0.0000 0.0000 0.0000
# 2 24.2668 94.3889 41.9249 0.0000 0.0000 0.0000
# 3 69.2785 41.9249 129.3273 0.0000 0.0000 0.0000
# 4 0.0000 0.0000 0.0000 16.6706 0.0000 0.0000
# 5 0.0000 0.0000 0.0000 0.0000 32.5755 0.0000
# 6 0.0000 0.0000 0.0000 0.0000 0.0000 -3.0682
#
#
#
# Elastic Compliance Matrix: (Units=1/GPa)
#
#
# Indices 1 2 3 4 5 6 
#
# 1 0.010774 -0.000241 -0.005693 0.000000 0.000000 0.000000
# 2 -0.000241 0.012382 -0.003885 0.000000 0.000000 0.000000
# 3 -0.005693 -0.003885 0.012041 0.000000 0.000000 0.000000
# 4 0.000000 0.000000 0.000000 0.059986 0.000000 0.000000
# 5 0.000000 0.000000 0.000000 0.000000 0.030698 0.000000
# 6 0.000000 0.000000 0.000000 0.000000 0.000000 -0.325920
#
#
# Mechanical properties :
#
#
# Convention : Reuss Voigt Hill
#
# Bulk Modulus (GPa) = 64.27145 69.40296 66.83720
# Shear Modulus (GPa) = -28.53652 23.78331 -2.37661
#
# Velocity S-wave (km/s) = -3.82387 3.49091 -1.10352
# Velocity P-wave (km/s) = 3.66557 7.19793 5.71168
#
# Compressibility (1/GPa) = 0.01555901
#
# Stress axis : x y z
#
# Youngs Moduli (GPa) = 92.81834 80.76257 83.04685
#
# Poissons Ratio (x) = 0.01947 0.47280
# Poissons Ratio (y) = 0.02238 0.32262
# Poissons Ratio (z) = 0.52843 0.31375
#
# Static dielectric constant tensor:
#      x y z
#    x 3.714570 0.000000 0.000000 
#    y 0.000000 3.612160 0.000000 
#    z 0.000000 0.000000 3.629640 
# 
# 
# High freq. dielectric constant tensor:
#      x y z
#    x 1.771790 0.000000 0.000000 
#    y 0.000000 1.773870 0.000000 
#    z 0.000000 0.000000 1.756090 
# 
# From -- ./inp_files/43535.got.cif
#   From: 2010.03.12/outbox.cif.g09.slc.cpg/sg72_22_cif.got.tgz:43535.got - 2010.04.16 14:54:00.
