data_PCOD8294338
_publ_section_title
;
Structure prediction by ZEFSAII (Michael W. Deem and Ramdas Pophale) SiO2 
 PCOD8294338
Probable space group: I B A M
;
_chemical_formula_sum "Si O2"
_cell_formula_units_Z 116
_cell_length_a 25.897142
_cell_length_b 9.202249
_cell_length_c 24.281549
_cell_angle_alpha 90.000000
_cell_angle_beta 90.000000
_cell_angle_gamma 90.000000
_cell_volume 5786.583269
_symmetry_space_group_name_H-M "I B A M"
_symmetry_group_IT_number 72
_symmetry_cell_setting 'orthorhombic'
loop_
_space_group_symop_operation_xyz
x,y,z
-x,-y,z
x,-y,1/2-z
-x,y,1/2-z
-x,-y,-z
x,y,-z
-x,y,1/2+z
x,-y,1/2+z
1/2+x,1/2+y,1/2+z
1/2-x,1/2-y,1/2+z
1/2+x,1/2-y,-z
1/2-x,1/2+y,-z
1/2-x,1/2-y,1/2-z
1/2+x,1/2+y,1/2-z
1/2-x,1/2+y,z
1/2+x,1/2-y,z
loop_
_atom_site_type_symbol
_atom_site_label
_atom_site_fract_x
_atom_site_fract_y
_atom_site_fract_z
Si Si1 0.459881 0.615372 0.130432
Si Si2 0.000000 0.500000 0.250000
Si Si3 0.627464 0.436748 0.691525
Si Si4 0.099569 0.643915 0.062783
Si Si5 0.111494 0.690721 0.563758
Si Si6 0.546830 0.785111 0.172550
Si Si7 0.693996 0.338645 0.402923
Si Si8 0.285698 0.344577 0.562856
O O1 0.500000 0.500000 0.101371
O O2 0.409704 0.542441 0.156825
O O3 0.440274 0.740841 0.089602
O O4 0.494499 0.690016 0.178043
O O5 0.960115 0.576408 0.290295
O O6 0.644940 0.500000 0.750000
O O7 0.595734 0.289984 0.700857
O O8 0.679064 0.396774 0.657810
O O9 0.118251 0.480222 0.076278
O O10 0.055650 0.682324 0.107386
O O11 0.145687 0.760090 0.067835
O O12 0.077762 0.652443 0.000000
O O13 0.106083 0.722049 0.500000
O O14 0.161635 0.775277 0.586484
O O15 0.712347 0.480578 0.436334
O O16 0.739779 0.220697 0.399748
O O17 0.275576 0.295520 0.500000
#
# Coordination Sequence:
#
# PCOD8294338 Si02
#       8
#    16   4  16  16  16  16  16  16
#     4  10  20  38  58  87 120 159 206 254 302 366
#     4  12  20  36  52  88 120 156 216 260 296 364
#     4  10  21  40  61  85 119 160 206 258 311 364
#     4  10  21  38  57  86 127 160 197 252 316 376
#     4  10  21  36  57  87 123 162 198 245 306 368
#     4  10  22  34  60  87 118 164 208 256 310 364
#     4  11  22  39  62  91 118 157 202 253 309 371
#     4  11  21  36  61  89 117 153 196 246 302 368
#
# _framework density 20.046371000000001
#
# number of rings (size 3 to 8) (size 9 to 14) (size 15 to 20)
#    0.000    1.655    1.379    3.724    0.000    3.862 
#    0.000    2.414    0.000    0.000    0.000    0.000 
#    0.000    0.000    0.000    0.000    0.000    0.000 
#
# Total GULP energy -718938.894703 kJ/mol
# GULP energy per Si atom -12395.498185 kJ/mol
# Density = 2.000074 g / cm^3
# Si number density = 20.046371 Si / 1000 Ang^3
#
#
#
# Elastic Constant Matrix: (Units=GPa)
#
#
# Indices 1 2 3 4 5 6 
#
# 1 93.5655 41.4281 46.6484 0.0000 0.0000 0.0000
# 2 41.4281 124.8358 44.7634 0.0000 0.0000 0.0000
# 3 46.6484 44.7634 103.6264 0.0000 0.0000 0.0000
# 4 0.0000 0.0000 0.0000 19.4385 0.0000 0.0000
# 5 0.0000 0.0000 0.0000 0.0000 19.4885 0.0000
# 6 0.0000 0.0000 0.0000 0.0000 0.0000 40.3067
#
#
#
# Elastic Compliance Matrix: (Units=1/GPa)
#
#
# Indices 1 2 3 4 5 6 
#
# 1 0.014647 -0.002954 -0.005317 0.000000 0.000000 0.000000
# 2 -0.002954 0.010074 -0.003022 0.000000 0.000000 0.000000
# 3 -0.005317 -0.003022 0.013349 0.000000 0.000000 0.000000
# 4 0.000000 0.000000 0.000000 0.051444 0.000000 0.000000
# 5 0.000000 0.000000 0.000000 0.000000 0.051312 0.000000
# 6 0.000000 0.000000 0.000000 0.000000 0.000000 0.024810
#
#
# Mechanical properties :
#
#
# Convention : Reuss Voigt Hill
#
# Bulk Modulus (GPa) = 64.58485 65.30085 64.94285
# Shear Modulus (GPa) = 25.85523 28.45927 27.15725
#
# Velocity S-wave (km/s) = 3.59523 3.77194 3.68465
# Velocity P-wave (km/s) = 7.03718 7.18440 7.11117
#
# Compressibility (1/GPa) = 0.01548351
#
# Stress axis : x y z
#
# Youngs Moduli (GPa) = 68.27500 99.26056 74.91120
#
# Poissons Ratio (x) = 0.29321 0.39832
# Poissons Ratio (y) = 0.20168 0.22639
# Poissons Ratio (z) = 0.36304 0.29998
#
# Static dielectric constant tensor:
#      x y z
#    x 3.632760 0.000000 0.000000 
#    y 0.000000 3.877930 0.000000 
#    z 0.000000 0.000000 3.436800 
# 
# 
# High freq. dielectric constant tensor:
#      x y z
#    x 1.774030 0.000000 0.000000 
#    y 0.000000 1.801180 0.000000 
#    z 0.000000 0.000000 1.759290 
# 
# From -- ./inp_files/45982.got.cif
#   From: 2010.03.12/outbox.cif.g09.slc.cpg/sg72_23_cif.got.tgz:45982.got - 2010.04.16 14:54:00.
