data_PCOD8294710
_publ_section_title
;
Structure prediction by ZEFSAII (Michael W. Deem and Ramdas Pophale) SiO2 
 PCOD8294710
Probable space group: I B A M
;
_chemical_formula_sum "Si O2"
_cell_formula_units_Z 68
_cell_length_a 16.244339
_cell_length_b 21.918279
_cell_length_c 8.858456
_cell_angle_alpha 90.000000
_cell_angle_beta 90.000000
_cell_angle_gamma 90.000000
_cell_volume 3154.035138
_symmetry_space_group_name_H-M "I B A M"
_symmetry_group_IT_number 72
_symmetry_cell_setting 'orthorhombic'
loop_
_space_group_symop_operation_xyz
x,y,z
-x,-y,z
x,-y,1/2-z
-x,y,1/2-z
-x,-y,-z
x,y,-z
-x,y,1/2+z
x,-y,1/2+z
1/2+x,1/2+y,1/2+z
1/2-x,1/2-y,1/2+z
1/2+x,1/2-y,-z
1/2-x,1/2+y,-z
1/2-x,1/2-y,1/2-z
1/2+x,1/2+y,1/2-z
1/2-x,1/2+y,z
1/2+x,1/2-y,z
loop_
_atom_site_type_symbol
_atom_site_label
_atom_site_fract_x
_atom_site_fract_y
_atom_site_fract_z
Si Si1 0.087351 0.200454 0.674152
Si Si2 0.411645 0.837369 0.673571
Si Si3 0.500000 0.500000 0.750000
Si Si4 0.353679 0.416141 0.330957
Si Si5 0.308586 0.059250 0.677411
O O1 0.081032 0.179094 0.500000
O O2 0.124220 0.268625 0.686401
O O3 0.139369 0.152476 0.769069
O O4 0.000000 0.202563 0.750000
O O5 0.500000 0.844851 0.750000
O O6 0.420989 0.857015 0.500000
O O7 0.345710 0.879203 0.756396
O O8 0.560402 0.545861 0.659609
O O9 0.317682 0.412651 0.500000
O O10 0.287831 0.446848 0.219851
O O11 0.320174 0.058272 0.500000
O O12 0.353644 0.000000 0.750000
#
# Coordination Sequence:
#
# PCOD8294710 Si02
#       5
#    16  16   4  16  16
#     4  10  21  38  63  94 129 168 214 266 317 378
#     4  10  22  43  69  97 129 167 213 265 324 383
#     4  12  26  40  68  98 132 176 216 256 306 376
#     4  12  25  41  65  95 132 173 218 265 315 379
#     4  12  26  44  66  94 130 168 213 267 323 384
#
# _framework density 21.559684000000001
#
# number of rings (size 3 to 8) (size 9 to 14) (size 15 to 20)
#    0.000    0.941    2.353    4.588    0.000    6.118 
#    0.000    2.353    0.000    0.000    0.000    0.000 
#    0.000    0.000    0.000    0.000    0.000    0.000 
#
# Total GULP energy -421483.591973 kJ/mol
# GULP energy per Si atom -12396.576234 kJ/mol
# Density = 2.151061 g / cm^3
# Si number density = 21.559684 Si / 1000 Ang^3
#
#
#
# Elastic Constant Matrix: (Units=GPa)
#
#
# Indices 1 2 3 4 5 6 
#
# 1 63.1817 35.9570 22.6956 0.0000 0.0000 0.0000
# 2 35.9570 139.4540 63.1499 0.0000 0.0000 0.0000
# 3 22.6956 63.1499 174.6142 0.0000 0.0000 0.0000
# 4 0.0000 0.0000 0.0000 24.5935 0.0000 0.0000
# 5 0.0000 0.0000 0.0000 0.0000 32.5911 0.0000
# 6 0.0000 0.0000 0.0000 0.0000 0.0000 41.4866
#
#
#
# Elastic Compliance Matrix: (Units=1/GPa)
#
#
# Indices 1 2 3 4 5 6 
#
# 1 0.018647 -0.004437 -0.000819 0.000000 0.000000 0.000000
# 2 -0.004437 0.009631 -0.002906 0.000000 0.000000 0.000000
# 3 -0.000819 -0.002906 0.006884 0.000000 0.000000 0.000000
# 4 0.000000 0.000000 0.000000 0.040661 0.000000 0.000000
# 5 0.000000 0.000000 0.000000 0.000000 0.030683 0.000000
# 6 0.000000 0.000000 0.000000 0.000000 0.000000 0.024104
#
#
# Mechanical properties :
#
#
# Convention : Reuss Voigt Hill
#
# Bulk Modulus (GPa) = 53.08586 68.98389 61.03487
# Shear Modulus (GPa) = 32.63399 36.76407 34.69903
#
# Velocity S-wave (km/s) = 3.89480 4.13391 4.01614
# Velocity P-wave (km/s) = 6.70090 7.40620 7.06236
#
# Compressibility (1/GPa) = 0.01883741
#
# Stress axis : x y z
#
# Youngs Moduli (GPa) = 53.62884 103.83143 145.25472
#
# Poissons Ratio (x) = 0.46070 0.11896
# Poissons Ratio (y) = 0.23795 0.42217
# Poissons Ratio (z) = 0.04392 0.30177
#
# Static dielectric constant tensor:
#      x y z
#    x 3.581000 0.000000 0.000000 
#    y 0.000000 4.814500 0.000000 
#    z 0.000000 0.000000 3.937940 
# 
# 
# High freq. dielectric constant tensor:
#      x y z
#    x 1.822980 0.000000 0.000000 
#    y 0.000000 1.872540 0.000000 
#    z 0.000000 0.000000 1.857490 
# 
# From -- ./inp_files/4400.got.cif
#   From: 2010.03.12/outbox.cif.g09.slc.cpg/sg72_3_cif.got.tgz:4400.got - 2010.04.16 14:54:00.
