data_PCOD8294017
_publ_section_title
;
Structure prediction by ZEFSAII (Michael W. Deem and Ramdas Pophale) SiO2 
 PCOD8294017
Probable space group: I B A M
;
_chemical_formula_sum "Si O2"
_cell_formula_units_Z 96
_cell_length_a 29.317490
_cell_length_b 17.377888
_cell_length_c 8.897248
_cell_angle_alpha 90.000000
_cell_angle_beta 90.000000
_cell_angle_gamma 90.000000
_cell_volume 4532.934835
_symmetry_space_group_name_H-M "I B A M"
_symmetry_group_IT_number 72
_symmetry_cell_setting 'orthorhombic'
loop_
_space_group_symop_operation_xyz
x,y,z
-x,-y,z
x,-y,1/2-z
-x,y,1/2-z
-x,-y,-z
x,y,-z
-x,y,1/2+z
x,-y,1/2+z
1/2+x,1/2+y,1/2+z
1/2-x,1/2-y,1/2+z
1/2+x,1/2-y,-z
1/2-x,1/2+y,-z
1/2-x,1/2-y,1/2-z
1/2+x,1/2+y,1/2-z
1/2-x,1/2+y,z
1/2+x,1/2-y,z
loop_
_atom_site_type_symbol
_atom_site_label
_atom_site_fract_x
_atom_site_fract_y
_atom_site_fract_z
Si Si1 0.456028 0.827886 0.665626
Si Si2 0.859522 0.684185 0.175273
Si Si3 0.042323 0.849303 0.165430
Si Si4 0.309180 0.328947 0.823029
Si Si5 0.277047 0.081065 0.327488
Si Si6 0.119682 0.923108 0.322824
O O1 0.500000 0.866247 0.750000
O O2 0.450889 0.866279 0.500000
O O3 0.408308 0.836025 0.753361
O O4 0.468277 0.739442 0.642236
O O5 0.831572 0.755393 0.244343
O O6 0.828603 0.608626 0.202605
O O7 0.866441 0.702349 0.000000
O O8 0.085611 0.854817 0.275452
O O9 0.000000 0.890119 0.250000
O O10 0.050252 0.887196 0.000000
O O11 0.256440 0.347285 0.780287
O O12 0.332839 0.405977 0.758962
O O13 0.317345 0.319310 0.000000
O O14 0.267446 0.064204 0.500000
O O15 0.267233 0.000000 0.250000
O O16 0.125456 0.928853 0.500000
O O17 0.098772 0.000000 0.250000
#
# Coordination Sequence:
#
# PCOD8294017 Si02
#       6
#    16  16  16  16  16  16
#     4  10  20  35  59  89 122 157 195 244 298 355
#     4  11  22  38  62  93 124 158 201 248 298 355
#     4  10  20  35  54  77 108 145 192 241 295 353
#     4  11  22  39  60  87 119 156 203 248 294 350
#     4  10  24  42  62  89 123 161 202 248 301 360
#     4  12  24  37  54  77 110 152 197 246 298 350
#
# _framework density 21.178331
#
# number of rings (size 3 to 8) (size 9 to 14) (size 15 to 20)
#    0.000    1.333    1.667    4.500    0.000    5.667 
#    0.000    1.667    0.000    0.500    0.000    3.500 
#    0.000    0.000    0.000    0.000    0.000    0.000 
#
# Total GULP energy -594893.340018 kJ/mol
# GULP energy per Si atom -12393.611250 kJ/mol
# Density = 2.113013 g / cm^3
# Si number density = 21.178331 Si / 1000 Ang^3
#
#
#
# Elastic Constant Matrix: (Units=GPa)
#
#
# Indices 1 2 3 4 5 6 
#
# 1 156.7532 22.2160 77.3809 0.0000 0.0000 0.0000
# 2 22.2160 39.3272 20.9977 0.0000 0.0000 0.0000
# 3 77.3809 20.9977 143.3909 0.0000 0.0000 0.0000
# 4 0.0000 0.0000 0.0000 19.8379 0.0000 0.0000
# 5 0.0000 0.0000 0.0000 0.0000 33.2574 0.0000
# 6 0.0000 0.0000 0.0000 0.0000 0.0000 15.1922
#
#
#
# Elastic Compliance Matrix: (Units=1/GPa)
#
#
# Indices 1 2 3 4 5 6 
#
# 1 0.008950 -0.002687 -0.004437 0.000000 0.000000 0.000000
# 2 -0.002687 0.028391 -0.002707 0.000000 0.000000 0.000000
# 3 -0.004437 -0.002707 0.009765 0.000000 0.000000 0.000000
# 4 0.000000 0.000000 0.000000 0.050409 0.000000 0.000000
# 5 0.000000 0.000000 0.000000 0.000000 0.030068 0.000000
# 6 0.000000 0.000000 0.000000 0.000000 0.000000 0.065823
#
#
# Mechanical properties :
#
#
# Convention : Reuss Voigt Hill
#
# Bulk Modulus (GPa) = 36.43803 64.51782 50.47792
# Shear Modulus (GPa) = 22.50052 28.24927 25.37489
#
# Velocity S-wave (km/s) = 3.26303 3.65619 3.46519
# Velocity P-wave (km/s) = 5.60707 6.95369 6.31637
#
# Compressibility (1/GPa) = 0.02744386
#
# Stress axis : x y z
#
# Youngs Moduli (GPa) = 111.72652 35.22214 102.41089
#
# Poissons Ratio (x) = 0.09465 0.45435
# Poissons Ratio (y) = 0.30024 0.27726
# Poissons Ratio (z) = 0.49568 0.09536
#
# Static dielectric constant tensor:
#      x y z
#    x 4.061900 0.000000 0.000000 
#    y 0.000000 3.402820 0.000000 
#    z 0.000000 0.000000 4.109150 
# 
# 
# High freq. dielectric constant tensor:
#      x y z
#    x 1.845240 0.000000 0.000000 
#    y 0.000000 1.789770 0.000000 
#    z 0.000000 0.000000 1.844450 
# 
# From -- ./inp_files/6010.got.cif
#   From: 2010.03.12/outbox.cif.g09.slc.cpg/sg72_4_cif.got.tgz:6010.got - 2010.04.16 14:54:00.
