data_PCOD8294844
_publ_section_title
;
Structure prediction by ZEFSAII (Michael W. Deem and Ramdas Pophale) SiO2 
 PCOD8294844
Probable space group: I B A M
;
_chemical_formula_sum "Si O2"
_cell_formula_units_Z 48
_cell_length_a 16.163868
_cell_length_b 9.888353
_cell_length_c 15.548444
_cell_angle_alpha 90.000000
_cell_angle_beta 90.000000
_cell_angle_gamma 90.000000
_cell_volume 2485.170506
_symmetry_space_group_name_H-M "I B A M"
_symmetry_group_IT_number 72
_symmetry_cell_setting 'orthorhombic'
loop_
_space_group_symop_operation_xyz
x,y,z
-x,-y,z
x,-y,1/2-z
-x,y,1/2-z
-x,-y,-z
x,y,-z
-x,y,1/2+z
x,-y,1/2+z
1/2+x,1/2+y,1/2+z
1/2-x,1/2-y,1/2+z
1/2+x,1/2-y,-z
1/2-x,1/2+y,-z
1/2-x,1/2-y,1/2-z
1/2+x,1/2+y,1/2-z
1/2-x,1/2+y,z
1/2+x,1/2-y,z
loop_
_atom_site_type_symbol
_atom_site_label
_atom_site_fract_x
_atom_site_fract_y
_atom_site_fract_z
Si Si1 0.186591 0.696340 0.405109
Si Si2 0.029765 0.347962 0.000000
Si Si3 0.188973 0.995060 0.654389
Si Si4 0.421634 0.595043 0.500000
O O1 0.228492 0.685143 0.500000
O O2 0.086881 0.679106 0.415099
O O3 0.224796 0.578927 0.345665
O O4 0.209172 0.841256 0.367360
O O5 0.000000 0.500000 0.000000
O O6 0.950077 0.251146 0.000000
O O7 0.127710 0.064184 0.586885
O O8 0.150207 0.000000 0.750000
O O9 0.500000 0.500000 0.500000
#
# Coordination Sequence:
#
# PCOD8294844 Si02
#       4
#    16   8  16   8
#     4  10  21  42  63  91 124 164 214 253 315 372
#     4  10  23  38  68  88 125 172 204 254 325 375
#     4  12  24  40  68  93 123 168 214 264 308 377
#     4  12  21  44  62  90 131 160 208 259 317 381
#
# _framework density 19.314568999999999
#
# number of rings (size 3 to 8) (size 9 to 14) (size 15 to 20)
#    1.000    0.000    6.667    1.000    4.667    0.667 
#    0.000    0.000    0.000    0.000    0.000    0.000 
#    0.000    0.000    0.000    0.000    0.000    0.000 
#
# Total GULP energy -297515.494317 kJ/mol
# GULP energy per Si atom -12396.478930 kJ/mol
# Density = 1.927061 g / cm^3
# Si number density = 19.314569 Si / 1000 Ang^3
#
#
#
# Elastic Constant Matrix: (Units=GPa)
#
#
# Indices 1 2 3 4 5 6 
#
# 1 72.8823 45.2228 40.5188 0.0000 0.0000 0.0000
# 2 45.2228 182.5066 39.2772 0.0000 0.0000 0.0000
# 3 40.5188 39.2772 133.9371 0.0000 0.0000 0.0000
# 4 0.0000 0.0000 0.0000 16.2653 0.0000 0.0000
# 5 0.0000 0.0000 0.0000 0.0000 13.0661 0.0000
# 6 0.0000 0.0000 0.0000 0.0000 0.0000 48.4685
#
#
#
# Elastic Compliance Matrix: (Units=1/GPa)
#
#
# Indices 1 2 3 4 5 6 
#
# 1 0.018476 -0.003603 -0.004533 0.000000 0.000000 0.000000
# 2 -0.003603 0.006551 -0.000831 0.000000 0.000000 0.000000
# 3 -0.004533 -0.000831 0.009081 0.000000 0.000000 0.000000
# 4 0.000000 0.000000 0.000000 0.061481 0.000000 0.000000
# 5 0.000000 0.000000 0.000000 0.000000 0.076534 0.000000
# 6 0.000000 0.000000 0.000000 0.000000 0.000000 0.020632
#
#
# Mechanical properties :
#
#
# Convention : Reuss Voigt Hill
#
# Bulk Modulus (GPa) = 61.82471 71.04041 66.43256
# Shear Modulus (GPa) = 23.13954 33.18044 28.15999
#
# Velocity S-wave (km/s) = 3.46502 4.14925 3.82247
# Velocity P-wave (km/s) = 6.93450 7.73405 7.34517
#
# Compressibility (1/GPa) = 0.01617476
#
# Stress axis : x y z
#
# Youngs Moduli (GPa) = 54.12354 152.65278 110.11695
#
# Poissons Ratio (x) = 0.54995 0.49916
# Poissons Ratio (y) = 0.19499 0.09152
# Poissons Ratio (z) = 0.24534 0.12688
#
# Static dielectric constant tensor:
#      x y z
#    x 3.950100 0.000000 0.000000 
#    y 0.000000 3.601780 0.000000 
#    z 0.000000 0.000000 3.539020 
# 
# 
# High freq. dielectric constant tensor:
#      x y z
#    x 1.739800 0.000000 0.000000 
#    y 0.000000 1.770850 0.000000 
#    z 0.000000 0.000000 1.734750 
# 
# From -- ./inp_files/18224.got.cif
#   From: 2010.03.12/outbox.cif.g09.slc.cpg/sg72_10_cif.got.tgz:18224.got - 2010.04.16 14:54:00.
