data_PCOD8294617
_publ_section_title
;
Structure prediction by ZEFSAII (Michael W. Deem and Ramdas Pophale) SiO2 
 PCOD8294617
Probable space group: I B A M
;
_chemical_formula_sum "Si O2"
_cell_formula_units_Z 112
_cell_length_a 23.140937
_cell_length_b 15.135329
_cell_length_c 15.149487
_cell_angle_alpha 90.000000
_cell_angle_beta 90.000000
_cell_angle_gamma 90.000000
_cell_volume 5306.042601
_symmetry_space_group_name_H-M "I B A M"
_symmetry_group_IT_number 72
_symmetry_cell_setting 'orthorhombic'
loop_
_space_group_symop_operation_xyz
x,y,z
-x,-y,z
x,-y,1/2-z
-x,y,1/2-z
-x,-y,-z
x,y,-z
-x,y,1/2+z
x,-y,1/2+z
1/2+x,1/2+y,1/2+z
1/2-x,1/2-y,1/2+z
1/2+x,1/2-y,-z
1/2-x,1/2+y,-z
1/2-x,1/2-y,1/2-z
1/2+x,1/2+y,1/2-z
1/2-x,1/2+y,z
1/2+x,1/2-y,z
loop_
_atom_site_type_symbol
_atom_site_label
_atom_site_fract_x
_atom_site_fract_y
_atom_site_fract_z
Si Si1 0.031306 0.414121 0.899341
Si Si2 0.335787 0.052678 0.401777
Si Si3 0.756797 0.100947 0.237100
Si Si4 0.686921 0.851825 0.101360
Si Si5 0.041513 0.230888 0.824530
Si Si6 0.524892 0.590441 0.099315
Si Si7 0.372083 0.695270 0.312630
O O1 0.099823 0.413389 0.892357
O O2 0.014359 0.326114 0.847637
O O3 0.000000 0.500000 0.856438
O O4 0.009916 0.406371 0.000000
O O5 0.311401 0.072684 0.500000
O O6 0.296650 0.103830 0.331252
O O7 0.340447 0.948229 0.385396
O O8 0.739979 0.151139 0.328495
O O9 0.810188 0.150471 0.194838
O O10 0.775710 0.000000 0.250000
O O11 0.637222 0.780572 0.124362
O O12 0.708460 0.837883 0.000000
O O13 0.106476 0.228380 0.784940
O O14 0.000000 0.190789 0.750000
O O15 0.028563 0.161592 0.902982
O O16 0.500000 0.500000 0.143066
O O17 0.582801 0.626275 0.146589
O O18 0.544034 0.569895 0.000000
#
# Coordination Sequence:
#
# PCOD8294617 Si02
#       7
#    16  16  16  16  16  16  16
#     4  10  21  37  60  88 122 164 203 250 316 384
#     4   9  20  38  61  89 129 166 206 263 320 378
#     4  10  22  40  64  91 125 167 213 269 325 390
#     4  10  21  39  60  90 126 164 208 263 318 382
#     4  10  23  38  56  88 122 157 204 261 314 377
#     4  10  23  42  63  89 123 164 212 270 329 388
#     4  11  23  38  65  90 122 168 218 264 325 398
#
# _framework density 21.108011000000001
#
# number of rings (size 3 to 8) (size 9 to 14) (size 15 to 20)
#    0.000    2.000    0.000    2.143    6.000    3.429 
#    0.000    2.857    0.000    0.000    0.000    0.000 
#    0.000    0.000    0.000    0.000    0.000    0.000 
#
# Total GULP energy -694004.717540 kJ/mol
# GULP energy per Si atom -12392.941385 kJ/mol
# Density = 2.105997 g / cm^3
# Si number density = 21.108011 Si / 1000 Ang^3
#
#
#
# Elastic Constant Matrix: (Units=GPa)
#
#
# Indices 1 2 3 4 5 6 
#
# 1 74.0310 42.5258 43.4173 0.0000 0.0000 0.0000
# 2 42.5258 125.0519 39.9607 0.0000 0.0000 0.0000
# 3 43.4173 39.9607 98.6668 0.0000 0.0000 0.0000
# 4 0.0000 0.0000 0.0000 21.9754 0.0000 0.0000
# 5 0.0000 0.0000 0.0000 0.0000 26.5370 0.0000
# 6 0.0000 0.0000 0.0000 0.0000 0.0000 28.6720
#
#
#
# Elastic Compliance Matrix: (Units=1/GPa)
#
#
# Indices 1 2 3 4 5 6 
#
# 1 0.020320 -0.004655 -0.007056 0.000000 0.000000 0.000000
# 2 -0.004655 0.010252 -0.002104 0.000000 0.000000 0.000000
# 3 -0.007056 -0.002104 0.014092 0.000000 0.000000 0.000000
# 4 0.000000 0.000000 0.000000 0.045505 0.000000 0.000000
# 5 0.000000 0.000000 0.000000 0.000000 0.037683 0.000000
# 6 0.000000 0.000000 0.000000 0.000000 0.000000 0.034877
#
#
# Mechanical properties :
#
#
# Convention : Reuss Voigt Hill
#
# Bulk Modulus (GPa) = 58.70615 61.06193 59.88404
# Shear Modulus (GPa) = 25.50514 26.89329 26.19921
#
# Velocity S-wave (km/s) = 3.47985 3.57330 3.52689
# Velocity P-wave (km/s) = 6.63464 6.78349 6.70948
#
# Compressibility (1/GPa) = 0.01703399
#
# Stress axis : x y z
#
# Youngs Moduli (GPa) = 49.21159 97.54173 70.96148
#
# Poissons Ratio (x) = 0.45410 0.50073
# Poissons Ratio (y) = 0.22910 0.14927
# Poissons Ratio (z) = 0.34725 0.20519
#
# Static dielectric constant tensor:
#      x y z
#    x 3.661740 0.000000 0.000000 
#    y 0.000000 3.933020 0.000000 
#    z 0.000000 0.000000 4.141370 
# 
# 
# High freq. dielectric constant tensor:
#      x y z
#    x 1.809530 0.000000 0.000000 
#    y 0.000000 1.838060 0.000000 
#    z 0.000000 0.000000 1.829670 
# 
# From -- ./inp_files/25181.got.cif
#   From: 2010.03.12/outbox.cif.g09.slc.cpg/sg72_13_cif.got.tgz:25181.got - 2010.04.16 14:54:00.
