data_PCOD8294399
_publ_section_title
;
Structure prediction by ZEFSAII (Michael W. Deem and Ramdas Pophale) SiO2 
 PCOD8294399
Probable space group: I B A M
;
_chemical_formula_sum "Si O2"
_cell_formula_units_Z 112
_cell_length_a 11.108893
_cell_length_b 30.739910
_cell_length_c 16.418057
_cell_angle_alpha 90.000000
_cell_angle_beta 90.000000
_cell_angle_gamma 90.000000
_cell_volume 5606.542704
_symmetry_space_group_name_H-M "I B A M"
_symmetry_group_IT_number 72
_symmetry_cell_setting 'orthorhombic'
loop_
_space_group_symop_operation_xyz
x,y,z
-x,-y,z
x,-y,1/2-z
-x,y,1/2-z
-x,-y,-z
x,y,-z
-x,y,1/2+z
x,-y,1/2+z
1/2+x,1/2+y,1/2+z
1/2-x,1/2-y,1/2+z
1/2+x,1/2-y,-z
1/2-x,1/2+y,-z
1/2-x,1/2-y,1/2-z
1/2+x,1/2+y,1/2-z
1/2-x,1/2+y,z
1/2+x,1/2-y,z
loop_
_atom_site_type_symbol
_atom_site_label
_atom_site_fract_x
_atom_site_fract_y
_atom_site_fract_z
Si Si1 0.092168 0.036945 0.407307
Si Si2 0.954463 0.435455 0.907884
Si Si3 0.472727 0.380085 0.655697
Si Si4 0.779593 0.639888 0.402876
Si Si5 0.662412 0.016073 0.839237
Si Si6 0.241861 0.265685 0.342362
Si Si7 0.005765 0.781459 0.153085
O O1 0.132000 0.028885 0.500000
O O2 0.204181 0.033580 0.347571
O O3 0.040554 0.085173 0.399498
O O4 0.000000 0.000000 0.378392
O O5 0.894175 0.389935 0.882656
O O6 0.861917 0.475898 0.900219
O O7 0.072561 0.443516 0.854001
O O8 0.998017 0.432469 0.000000
O O9 0.500000 0.389219 0.750000
O O10 0.332869 0.385957 0.634694
O O11 0.513872 0.331929 0.628756
O O12 0.764475 0.648213 0.500000
O O13 0.795322 0.684121 0.351909
O O14 0.636282 0.000000 0.750000
O O15 0.250000 0.250000 0.250000
O O16 0.128829 0.239833 0.383650
O O17 0.378203 0.260556 0.381165
O O18 0.000000 0.776305 0.250000
#
# Coordination Sequence:
#
# PCOD8294399 Si02
#       7
#    16  16  16  16  16  16  16
#     4  11  24  39  58  84 119 161 203 252 312 369
#     4  10  20  39  62  82 117 163 201 250 308 368
#     4  10  21  36  59  88 121 155 200 253 303 365
#     4  10  21  38  63  90 121 162 208 250 311 383
#     4  11  23  38  57  87 121 158 208 254 308 367
#     4   9  17  35  58  85 117 158 201 249 303 369
#     4   8  16  33  55  82 113 150 192 245 305 354
#
# _framework density 19.976661
#
# number of rings (size 3 to 8) (size 9 to 14) (size 15 to 20)
#    0.000    2.143    0.000    4.714    4.000    2.286 
#    2.571    6.429    0.000    0.000    0.000    0.000 
#    0.000    0.000    0.000    0.000    0.000    0.000 
#
# Total GULP energy -694020.936211 kJ/mol
# GULP energy per Si atom -12393.231004 kJ/mol
# Density = 1.993119 g / cm^3
# Si number density = 19.976661 Si / 1000 Ang^3
#
#
#
# Elastic Constant Matrix: (Units=GPa)
#
#
# Indices 1 2 3 4 5 6 
#
# 1 169.9668 83.6808 43.3904 -0.0001 0.0003 0.0000
# 2 83.6808 108.3222 34.2487 -0.0001 0.0002 0.0000
# 3 43.3904 34.2487 73.0550 -0.0007 0.0021 0.0001
# 4 -0.0001 -0.0001 -0.0007 29.0463 0.0009 0.0001
# 5 0.0003 0.0002 0.0021 0.0009 6.1486 -0.0002
# 6 0.0000 0.0000 0.0001 0.0001 -0.0002 41.8496
#
#
#
# Elastic Compliance Matrix: (Units=1/GPa)
#
#
# Indices 1 2 3 4 5 6 
#
# 1 0.009929 -0.006816 -0.002702 0.000000 0.000001 0.000000
# 2 -0.006816 0.015517 -0.003226 0.000000 0.000001 0.000000
# 3 -0.002702 -0.003226 0.016806 0.000000 -0.000006 0.000000
# 4 0.000000 0.000000 0.000000 0.034428 -0.000005 0.000000
# 5 0.000001 0.000001 -0.000006 -0.000005 0.162640 0.000001
# 6 0.000000 0.000000 0.000000 0.000000 0.000001 0.023895
#
#
# Mechanical properties :
#
#
# Convention : Reuss Voigt Hill
#
# Bulk Modulus (GPa) = 59.65338 74.88709 67.27023
# Shear Modulus (GPa) = 16.98998 28.07718 22.53358
#
# Velocity S-wave (km/s) = 2.91948 3.75307 3.36221
# Velocity P-wave (km/s) = 6.42580 7.50662 6.98714
#
# Compressibility (1/GPa) = 0.01676351
#
# Stress axis : x y z
#
# Youngs Moduli (GPa) = 100.71427 64.44392 59.50423
#
# Poissons Ratio (x) = 0.43926 0.16077
# Poissons Ratio (y) = 0.68648 0.19198
# Poissons Ratio (z) = 0.27211 0.20791
#
# Static dielectric constant tensor:
#      x y z
#    x 4.043130 0.000000 0.000000 
#    y 0.000000 3.672810 0.000000 
#    z 0.000000 0.000000 3.397020 
# 
# 
# High freq. dielectric constant tensor:
#      x y z
#    x 1.790390 0.000000 0.000000 
#    y 0.000000 1.774080 0.000000 
#    z 0.000000 0.000000 1.760240 
# 
# From -- ./inp_files/20739.got.cif
#   From: 2010.03.12/outbox.cif.g09.slc.cpg/sg72_11_cif.got.tgz:20739.got - 2010.04.16 14:54:00.
