data_PCOD8294603
_publ_section_title
;
Structure prediction by ZEFSAII (Michael W. Deem and Ramdas Pophale) SiO2 
 PCOD8294603
Probable space group: I B A M
;
_chemical_formula_sum "Si O2"
_cell_formula_units_Z 96
_cell_length_a 22.949669
_cell_length_b 11.184829
_cell_length_c 19.291411
_cell_angle_alpha 90.000000
_cell_angle_beta 90.000000
_cell_angle_gamma 90.000000
_cell_volume 4951.876087
_symmetry_space_group_name_H-M "I B A M"
_symmetry_group_IT_number 72
_symmetry_cell_setting 'orthorhombic'
loop_
_space_group_symop_operation_xyz
x,y,z
-x,-y,z
x,-y,1/2-z
-x,y,1/2-z
-x,-y,-z
x,y,-z
-x,y,1/2+z
x,-y,1/2+z
1/2+x,1/2+y,1/2+z
1/2-x,1/2-y,1/2+z
1/2+x,1/2-y,-z
1/2-x,1/2+y,-z
1/2-x,1/2-y,1/2-z
1/2+x,1/2+y,1/2-z
1/2-x,1/2+y,z
1/2+x,1/2-y,z
loop_
_atom_site_type_symbol
_atom_site_label
_atom_site_fract_x
_atom_site_fract_y
_atom_site_fract_z
Si Si1 0.713643 0.098586 0.688737
Si Si2 0.447775 0.230514 0.080075
Si Si3 0.862266 0.167984 0.810082
Si Si4 0.580709 0.241927 0.918669
Si Si5 0.128475 0.504158 0.079478
Si Si6 0.843879 0.908373 0.166043
O O1 0.679710 0.220744 0.704248
O O2 0.685885 0.044679 0.619442
O O3 0.778869 0.143891 0.673270
O O4 0.709766 0.000000 0.750000
O O5 0.413405 0.308366 0.135862
O O6 0.513858 0.248029 0.104949
O O7 0.426323 0.094010 0.086850
O O8 0.438451 0.274236 0.000000
O O9 0.883037 0.128258 0.733231
O O10 0.831605 0.050212 0.842236
O O11 0.619562 0.356082 0.897950
O O12 0.608345 0.121232 0.887302
O O13 0.581956 0.231053 0.000000
O O14 0.147713 0.492335 0.000000
#
# Coordination Sequence:
#
# PCOD8294603 Si02
#       6
#    16  16  16  16  16  16
#     4  11  21  37  63  82 113 151 192 237 288 343
#     4   9  19  38  61  84 114 150 188 236 287 336
#     4  10  22  38  57  85 112 150 190 235 285 342
#     4  10  21  37  59  86 116 151 192 234 284 342
#     4   9  19  36  60  89 114 145 190 241 288 331
#     4  11  23  36  56  81 117 152 191 231 282 341
#
# _framework density 19.386590999999999
#
# number of rings (size 3 to 8) (size 9 to 14) (size 15 to 20)
#    0.000    2.000    1.667    2.000    2.333    4.667 
#    0.000    3.333    0.000    3.000    0.000    0.000 
#    0.000    0.000    0.000    0.000    0.000    0.000 
#
# Total GULP energy -594772.660754 kJ/mol
# GULP energy per Si atom -12391.097099 kJ/mol
# Density = 1.934247 g / cm^3
# Si number density = 19.386591 Si / 1000 Ang^3
#
#
#
# Elastic Constant Matrix: (Units=GPa)
#
#
# Indices 1 2 3 4 5 6 
#
# 1 108.8833 45.8084 56.6008 0.0000 0.0000 0.0000
# 2 45.8084 106.0319 31.7733 0.0000 0.0000 0.0000
# 3 56.6008 31.7733 47.7294 0.0000 0.0000 0.0000
# 4 0.0000 0.0000 0.0000 36.4819 0.0000 0.0000
# 5 0.0000 0.0000 0.0000 0.0000 27.2280 0.0000
# 6 0.0000 0.0000 0.0000 0.0000 0.0000 17.6696
#
#
#
# Elastic Compliance Matrix: (Units=1/GPa)
#
#
# Indices 1 2 3 4 5 6 
#
# 1 0.024400 -0.002337 -0.027380 0.000000 0.000000 0.000000
# 2 -0.002337 0.012005 -0.005220 0.000000 0.000000 0.000000
# 3 -0.027380 -0.005220 0.056895 0.000000 0.000000 0.000000
# 4 0.000000 0.000000 0.000000 0.027411 0.000000 0.000000
# 5 0.000000 0.000000 0.000000 0.000000 0.036727 0.000000
# 6 0.000000 0.000000 0.000000 0.000000 0.000000 0.056594
#
#
# Mechanical properties :
#
#
# Convention : Reuss Voigt Hill
#
# Bulk Modulus (GPa) = 42.68677 59.00110 50.84393
# Shear Modulus (GPa) = 17.14002 24.84005 20.99004
#
# Velocity S-wave (km/s) = 2.97664 3.58341 3.29402
# Velocity P-wave (km/s) = 5.82068 6.90081 6.38363
#
# Compressibility (1/GPa) = 0.02342646
#
# Stress axis : x y z
#
# Youngs Moduli (GPa) = 40.98362 83.29805 17.57618
#
# Poissons Ratio (x) = 0.19466 0.48123
# Poissons Ratio (y) = 0.09577 0.09176
# Poissons Ratio (z) = 1.12211 0.43486
#
# Static dielectric constant tensor:
#      x y z
#    x 3.512020 0.000000 0.000000 
#    y 0.000000 3.774940 0.000000 
#    z 0.000000 0.000000 3.516220 
# 
# 
# High freq. dielectric constant tensor:
#      x y z
#    x 1.745220 0.000000 0.000000 
#    y 0.000000 1.766100 0.000000 
#    z 0.000000 0.000000 1.750970 
# 
# From -- ./inp_files/29483.got.cif
#   From: 2010.03.12/outbox.cif.g09.slc.cpg/sg72_15_cif.got.tgz:29483.got - 2010.04.16 14:54:00.
