data_PCOD8294631
_publ_section_title
;
Structure prediction by ZEFSAII (Michael W. Deem and Ramdas Pophale) SiO2 
 PCOD8294631
Probable space group: I B A M
;
_chemical_formula_sum "Si O2"
_cell_formula_units_Z 116
_cell_length_a 27.874692
_cell_length_b 22.447463
_cell_length_c 9.061620
_cell_angle_alpha 90.000000
_cell_angle_beta 90.000000
_cell_angle_gamma 90.000000
_cell_volume 5670.001683
_symmetry_space_group_name_H-M "I B A M"
_symmetry_group_IT_number 72
_symmetry_cell_setting 'orthorhombic'
loop_
_space_group_symop_operation_xyz
x,y,z
-x,-y,z
x,-y,1/2-z
-x,y,1/2-z
-x,-y,-z
x,y,-z
-x,y,1/2+z
x,-y,1/2+z
1/2+x,1/2+y,1/2+z
1/2-x,1/2-y,1/2+z
1/2+x,1/2-y,-z
1/2-x,1/2+y,-z
1/2-x,1/2-y,1/2-z
1/2+x,1/2+y,1/2-z
1/2-x,1/2+y,z
1/2+x,1/2-y,z
loop_
_atom_site_type_symbol
_atom_site_label
_atom_site_fract_x
_atom_site_fract_y
_atom_site_fract_z
Si Si1 0.359876 0.559759 0.830806
Si Si2 0.299953 0.240866 0.169219
Si Si3 0.247843 0.439820 0.671885
Si Si4 0.619275 0.326746 0.334255
Si Si5 0.332308 0.870547 0.176408
Si Si6 0.000000 0.500000 0.750000
Si Si7 0.452996 0.226205 0.173433
Si Si8 0.423255 0.096552 0.833320
O O1 0.376645 0.500000 0.750000
O O2 0.303838 0.571966 0.805691
O O3 0.388840 0.615880 0.767562
O O4 0.373203 0.551879 0.000000
O O5 0.250000 0.250000 0.250000
O O6 0.325655 0.305016 0.169936
O O7 0.335983 0.195888 0.256213
O O8 0.292120 0.218785 0.000000
O O9 0.231602 0.500000 0.750000
O O10 0.233739 0.441948 0.500000
O O11 0.219015 0.389471 0.758243
O O12 0.604470 0.344872 0.500000
O O13 0.588081 0.271472 0.276232
O O14 0.375778 0.914014 0.232276
O O15 0.331823 0.870092 0.000000
O O16 0.036667 0.456124 0.664231
O O17 0.500000 0.251334 0.250000
O O18 0.444281 0.158534 0.229044
O O19 0.459993 0.225527 0.000000
O O20 0.404914 0.104170 0.000000
#
# Coordination Sequence:
#
# PCOD8294631 Si02
#       8
#    16  16  16  16  16   4  16  16
#     4  10  21  37  61  91 123 160 201 246 295 357
#     4  11  22  38  59  88 126 166 207 258 315 378
#     4  10  21  38  58  82 117 160 206 255 306 366
#     4  10  21  38  60  86 120 161 201 246 309 371
#     4  12  25  39  58  85 119 164 212 260 317 377
#     4  12  26  44  72  98 118 160 222 282 342 404
#     4  10  21  41  65  90 120 159 200 254 317 376
#     4  11  24  44  65  88 121 159 206 267 331 386
#
# _framework density 20.458546999999999
#
# number of rings (size 3 to 8) (size 9 to 14) (size 15 to 20)
#    0.000    1.379    2.069    3.517    0.966    7.172 
#    0.000    0.000    0.000    0.414    0.000    2.897 
#    0.000    0.000    0.000    0.000    0.000    0.000 
#
# Total GULP energy -718993.209593 kJ/mol
# GULP energy per Si atom -12396.434648 kJ/mol
# Density = 2.041198 g / cm^3
# Si number density = 20.458547 Si / 1000 Ang^3
#
#
#
# Elastic Constant Matrix: (Units=GPa)
#
#
# Indices 1 2 3 4 5 6 
#
# 1 74.3625 39.3969 36.0377 0.0000 0.0000 0.0000
# 2 39.3969 131.4455 55.9598 0.0000 0.0000 0.0000
# 3 36.0377 55.9598 124.1806 0.0000 0.0000 0.0000
# 4 0.0000 0.0000 0.0000 34.8275 0.0000 0.0000
# 5 0.0000 0.0000 0.0000 0.0000 27.8478 0.0000
# 6 0.0000 0.0000 0.0000 0.0000 0.0000 27.0556
#
#
#
# Elastic Compliance Matrix: (Units=1/GPa)
#
#
# Indices 1 2 3 4 5 6 
#
# 1 0.016991 -0.003704 -0.003262 0.000000 0.000000 0.000000
# 2 -0.003704 0.010221 -0.003531 0.000000 0.000000 0.000000
# 3 -0.003262 -0.003531 0.010591 0.000000 0.000000 0.000000
# 4 0.000000 0.000000 0.000000 0.028713 0.000000 0.000000
# 5 0.000000 0.000000 0.000000 0.000000 0.035910 0.000000
# 6 0.000000 0.000000 0.000000 0.000000 0.000000 0.036961
#
#
# Mechanical properties :
#
#
# Convention : Reuss Voigt Hill
#
# Bulk Modulus (GPa) = 59.49175 65.86417 62.67796
# Shear Modulus (GPa) = 30.12377 31.18579 30.65478
#
# Velocity S-wave (km/s) = 3.84139 3.90852 3.87510
# Velocity P-wave (km/s) = 6.98694 7.25483 7.12214
#
# Compressibility (1/GPa) = 0.01680905
#
# Stress axis : x y z
#
# Youngs Moduli (GPa) = 58.85608 97.83671 94.42369
#
# Poissons Ratio (x) = 0.36237 0.30798
# Poissons Ratio (y) = 0.21799 0.33342
# Poissons Ratio (z) = 0.19197 0.34547
#
# Static dielectric constant tensor:
#      x y z
#    x 3.535660 0.000000 0.000000 
#    y 0.000000 1.748440 0.000000 
#    z 0.000000 0.000000 3.631670 
# 
# 
# High freq. dielectric constant tensor:
#      x y z
#    x 1.783340 0.000000 0.000000 
#    y 0.000000 1.801090 0.000000 
#    z 0.000000 0.000000 1.799960 
# 
# From -- ./inp_files/8400.got.cif
#   From: 2010.03.12/outbox.cif.g09.slc.cpg/sg72_5_cif.got.tgz:8400.got - 2010.04.16 14:54:00.
