data_PCOD8294234
_publ_section_title
;
Structure prediction by ZEFSAII (Michael W. Deem and Ramdas Pophale) SiO2 
 PCOD8294234
Probable space group: I B A M
;
_chemical_formula_sum "Si O2"
_cell_formula_units_Z 112
_cell_length_a 17.230458
_cell_length_b 16.185889
_cell_length_c 18.936843
_cell_angle_alpha 90.000000
_cell_angle_beta 90.000000
_cell_angle_gamma 90.000000
_cell_volume 5281.301458
_symmetry_space_group_name_H-M "I B A M"
_symmetry_group_IT_number 72
_symmetry_cell_setting 'orthorhombic'
loop_
_space_group_symop_operation_xyz
x,y,z
-x,-y,z
x,-y,1/2-z
-x,y,1/2-z
-x,-y,-z
x,y,-z
-x,y,1/2+z
x,-y,1/2+z
1/2+x,1/2+y,1/2+z
1/2-x,1/2-y,1/2+z
1/2+x,1/2-y,-z
1/2-x,1/2+y,-z
1/2-x,1/2-y,1/2-z
1/2+x,1/2+y,1/2-z
1/2-x,1/2+y,z
1/2+x,1/2-y,z
loop_
_atom_site_type_symbol
_atom_site_label
_atom_site_fract_x
_atom_site_fract_y
_atom_site_fract_z
Si Si1 0.569191 0.250549 0.578026
Si Si2 0.822068 0.004322 0.419663
Si Si3 0.728921 0.325678 0.419720
Si Si4 0.576055 0.152690 0.288373
Si Si5 0.765460 0.422629 0.202474
Si Si6 0.063610 0.134687 0.920469
Si Si7 0.832091 0.232629 0.686704
O O1 0.545731 0.217844 0.500000
O O2 0.661657 0.257768 0.582470
O O3 0.544498 0.183340 0.635735
O O4 0.526837 0.340498 0.590450
O O5 0.796399 0.014777 0.500000
O O6 0.812900 0.910265 0.396169
O O7 0.761681 0.061115 0.377078
O O8 0.911438 0.038004 0.407990
O O9 0.763553 0.330744 0.500000
O O10 0.791843 0.304305 0.360292
O O11 0.500000 0.116254 0.250000
O O12 0.641051 0.081636 0.295258
O O13 0.614200 0.229830 0.247526
O O14 0.736373 0.500000 0.250000
O O15 0.728312 0.332604 0.224007
O O16 0.112109 0.187411 0.866466
O O17 0.089170 0.158288 0.000000
#
# Coordination Sequence:
#
# PCOD8294234 Si02
#       7
#    16  16  16  16  16  16  16
#     4  10  21  37  59  89 120 153 200 247 294 361
#     4   9  20  37  59  88 123 157 194 242 300 364
#     4  10  20  36  63  94 120 156 203 247 295 355
#     4  12  24  40  62  88 118 159 208 253 304 360
#     4  11  24  39  60  87 120 160 197 248 304 359
#     4   9  18  35  56  85 122 158 192 237 300 359
#     4  11  21  37  62  87 118 154 201 256 295 359
#
# _framework density 21.206893999999998
#
# number of rings (size 3 to 8) (size 9 to 14) (size 15 to 20)
#    0.000    1.714    2.857    1.714    2.000    2.000 
#    0.000    2.857    0.000    0.429    0.000    4.000 
#    0.000    0.000    0.000    0.000    0.000    0.000 
#
# Total GULP energy -693893.334062 kJ/mol
# GULP energy per Si atom -12390.952394 kJ/mol
# Density = 2.115863 g / cm^3
# Si number density = 21.206894 Si / 1000 Ang^3
#
#
#
# Elastic Constant Matrix: (Units=GPa)
#
#
# Indices 1 2 3 4 5 6 
#
# 1 74.9209 5.1008 23.7018 0.0000 0.0000 0.0000
# 2 5.1008 56.2538 22.4701 0.0000 0.0000 0.0000
# 3 23.7018 22.4701 86.4267 0.0000 0.0000 0.0000
# 4 0.0000 0.0000 0.0000 27.0901 0.0000 0.0000
# 5 0.0000 0.0000 0.0000 0.0000 27.7311 0.0000
# 6 0.0000 0.0000 0.0000 0.0000 0.0000 23.7448
#
#
#
# Elastic Compliance Matrix: (Units=1/GPa)
#
#
# Indices 1 2 3 4 5 6 
#
# 1 0.014620 0.000308 -0.004090 0.000000 0.000000 0.000000
# 2 0.000308 0.019843 -0.005243 0.000000 0.000000 0.000000
# 3 -0.004090 -0.005243 0.014055 0.000000 0.000000 0.000000
# 4 0.000000 0.000000 0.000000 0.036914 0.000000 0.000000
# 5 0.000000 0.000000 0.000000 0.000000 0.036061 0.000000
# 6 0.000000 0.000000 0.000000 0.000000 0.000000 0.042115
#
#
# Mechanical properties :
#
#
# Convention : Reuss Voigt Hill
#
# Bulk Modulus (GPa) = 32.82094 35.57187 34.19640
# Shear Modulus (GPa) = 26.06694 26.80178 26.43436
#
# Velocity S-wave (km/s) = 3.50976 3.55889 3.53441
# Velocity P-wave (km/s) = 5.65108 5.80497 5.72854
#
# Compressibility (1/GPa) = 0.03046836
#
# Stress axis : x y z
#
# Youngs Moduli (GPa) = 68.39853 50.39533 71.14776
#
# Poissons Ratio (x) = -0.01551 0.29096
# Poissons Ratio (y) = -0.02106 0.37306
# Poissons Ratio (z) = 0.27972 0.26425
#
# Static dielectric constant tensor:
#      x y z
#    x 3.849630 0.000000 0.000000 
#    y 0.000000 3.730420 0.000000 
#    z 0.000000 0.000000 3.091080 
# 
# 
# High freq. dielectric constant tensor:
#      x y z
#    x 1.819430 0.000000 0.000000 
#    y 0.000000 1.808250 0.000000 
#    z 0.000000 0.000000 1.846140 
# 
# From -- ./inp_files/39230.got.cif
#   From: 2010.03.12/outbox.cif.g09.slc.cpg/sg72_20_cif.got.tgz:39230.got - 2010.04.16 14:54:00.
