data_PCOD8294454
_publ_section_title
;
Structure prediction by ZEFSAII (Michael W. Deem and Ramdas Pophale) SiO2 
 PCOD8294454
Probable space group: I B A M
;
_chemical_formula_sum "Si O2"
_cell_formula_units_Z 96
_cell_length_a 17.950153
_cell_length_b 25.922466
_cell_length_c 13.493311
_cell_angle_alpha 90.000000
_cell_angle_beta 90.000000
_cell_angle_gamma 90.000000
_cell_volume 6278.602643
_symmetry_space_group_name_H-M "I B A M"
_symmetry_group_IT_number 72
_symmetry_cell_setting 'orthorhombic'
loop_
_space_group_symop_operation_xyz
x,y,z
-x,-y,z
x,-y,1/2-z
-x,y,1/2-z
-x,-y,-z
x,y,-z
-x,y,1/2+z
x,-y,1/2+z
1/2+x,1/2+y,1/2+z
1/2-x,1/2-y,1/2+z
1/2+x,1/2-y,-z
1/2-x,1/2+y,-z
1/2-x,1/2-y,1/2-z
1/2+x,1/2+y,1/2-z
1/2-x,1/2+y,z
1/2+x,1/2-y,z
loop_
_atom_site_type_symbol
_atom_site_label
_atom_site_fract_x
_atom_site_fract_y
_atom_site_fract_z
Si Si1 0.590713 0.586322 0.500000
Si Si2 0.072776 0.246591 0.000000
Si Si3 0.917896 0.948740 0.209913
Si Si4 0.952524 0.835464 0.500000
Si Si5 0.708473 0.670408 0.500000
Si Si6 0.081350 0.268944 0.784721
Si Si7 0.727519 0.806015 0.786578
Si Si8 0.868227 0.158800 0.795504
O O1 0.585172 0.548097 0.592086
O O2 0.518746 0.623552 0.500000
O O3 0.672517 0.613360 0.500000
O O4 0.083387 0.280548 0.098044
O O5 0.990215 0.220877 0.000000
O O6 0.136490 0.204847 0.000000
O O7 0.887948 0.893521 0.241249
O O8 0.000000 0.952457 0.250000
O O9 0.874099 0.000000 0.250000
O O10 0.897812 0.841222 0.593203
O O11 0.757928 0.681775 0.402406
O O12 0.138787 0.308802 0.732314
O O13 0.097952 0.208021 0.764012
O O14 0.000000 0.284233 0.750000
O O15 0.750000 0.750000 0.750000
O O16 0.777961 0.841516 0.714032
#
# Coordination Sequence:
#
# PCOD8294454 Si02
#       8
#     8   8  16   8   8  16  16  16
#     4  11  20  34  54  68  95 141 169 199 253 294
#     4  11  18  28  47  67  89 131 161 203 247 286
#     4  11  22  33  50  71  98 127 172 209 245 286
#     4  11  20  27  53  66  92 136 174 197 251 295
#     4  11  18  32  51  66  93 134 172 199 242 295
#     4  11  21  33  48  69  98 126 168 205 249 296
#     4  10  21  31  49  69  94 125 170 209 245 288
#     4  11  19  34  46  70  94 131 167 210 239 290
#
# _framework density 15.290025999999999
#
# number of rings (size 3 to 8) (size 9 to 14) (size 15 to 20)
#    0.000    1.167    8.333    1.500    0.000    6.000 
#    0.000    0.000    0.000    0.000    0.000    0.000 
#    0.000    0.667    0.000    1.500    0.000    0.000 
#
# Total GULP energy -594627.772071 kJ/mol
# GULP energy per Si atom -12388.078585 kJ/mol
# Density = 1.525523 g / cm^3
# Si number density = 15.290026 Si / 1000 Ang^3
#
#
#
# Elastic Constant Matrix: (Units=GPa)
#
#
# Indices 1 2 3 4 5 6 
#
# 1 108.9600 32.8868 50.7719 0.0000 0.0002 0.0000
# 2 32.8868 49.5594 36.9684 0.0000 0.0002 0.0000
# 3 50.7719 36.9684 154.5594 0.0000 0.0036 0.0000
# 4 0.0000 0.0000 0.0000 24.9877 0.0013 0.0000
# 5 0.0002 0.0002 0.0036 0.0013 -302.9875 -0.0003
# 6 0.0000 0.0000 0.0000 0.0000 -0.0003 19.8015
#
#
#
# Elastic Compliance Matrix: (Units=1/GPa)
#
#
# Indices 1 2 3 4 5 6 
#
# 1 0.012238 -0.006234 -0.002529 0.000000 0.000000 0.000000
# 2 -0.006234 0.027736 -0.004586 0.000000 0.000000 0.000000
# 3 -0.002529 -0.004586 0.008398 0.000000 0.000000 0.000000
# 4 0.000000 0.000000 0.000000 0.040020 0.000000 0.000000
# 5 0.000000 0.000000 0.000000 0.000000 -0.003300 0.000000
# 6 0.000000 0.000000 0.000000 0.000000 0.000000 0.050501
#
#
# Mechanical properties :
#
#
# Convention : Reuss Voigt Hill
#
# Bulk Modulus (GPa) = 46.14129 61.59258 53.86693
# Shear Modulus (GPa) = 29.49603 -38.80956 -4.65676
#
# Velocity S-wave (km/s) = 4.39692 -5.04355 -1.74706
# Velocity P-wave (km/s) = 7.48466 2.54043 5.58900
#
# Compressibility (1/GPa) = 0.02167256
#
# Stress axis : x y z
#
# Youngs Moduli (GPa) = 81.71446 36.05456 119.08121
#
# Poissons Ratio (x) = 0.22478 0.30114
# Poissons Ratio (y) = 0.50944 0.54611
# Poissons Ratio (z) = 0.20664 0.16535
#
# Static dielectric constant tensor:
#      x y z
#    x 3.707620 0.000000 0.000000 
#    y 0.000000 1.968500 0.000000 
#    z 0.000000 0.000000 2.749860 
# 
# 
# High freq. dielectric constant tensor:
#      x y z
#    x 1.572150 0.000000 0.000000 
#    y 0.000000 1.538350 0.000000 
#    z 0.000000 0.000000 1.608370 
# 
# From -- ./inp_files/13953.got.cif
#   From: 2010.03.12/outbox.cif.g09.slc.cpg/sg72_7_cif.got.tgz:13953.got - 2010.04.16 14:54:00.
