data_PCOD8294515
_publ_section_title
;
Structure prediction by ZEFSAII (Michael W. Deem and Ramdas Pophale) SiO2 
 PCOD8294515
Probable space group: I B A M
;
_chemical_formula_sum "Si O2"
_cell_formula_units_Z 120
_cell_length_a 15.876059
_cell_length_b 33.240618
_cell_length_c 13.408998
_cell_angle_alpha 90.000000
_cell_angle_beta 90.000000
_cell_angle_gamma 90.000000
_cell_volume 7076.330683
_symmetry_space_group_name_H-M "I B A M"
_symmetry_group_IT_number 72
_symmetry_cell_setting 'orthorhombic'
loop_
_space_group_symop_operation_xyz
x,y,z
-x,-y,z
x,-y,1/2-z
-x,y,1/2-z
-x,-y,-z
x,y,-z
-x,y,1/2+z
x,-y,1/2+z
1/2+x,1/2+y,1/2+z
1/2-x,1/2-y,1/2+z
1/2+x,1/2-y,-z
1/2-x,1/2+y,-z
1/2-x,1/2-y,1/2-z
1/2+x,1/2+y,1/2-z
1/2-x,1/2+y,z
1/2+x,1/2-y,z
loop_
_atom_site_type_symbol
_atom_site_label
_atom_site_fract_x
_atom_site_fract_y
_atom_site_fract_z
Si Si1 0.397044 0.784343 0.384923
Si Si2 0.413441 0.944248 0.383389
Si Si3 0.739131 0.670912 0.883133
Si Si4 0.146785 0.393540 0.210443
Si Si5 0.792633 0.761402 0.886598
Si Si6 0.000000 0.343831 0.250000
Si Si7 0.912017 0.204606 0.218245
Si Si8 0.100168 0.468316 0.884482
O O1 0.419334 0.791262 0.500000
O O2 0.296717 0.782888 0.367063
O O3 0.438065 0.819528 0.321443
O O4 0.437831 0.742609 0.349576
O O5 0.401672 0.935137 0.500000
O O6 0.365794 0.907898 0.325795
O O7 0.510452 0.950010 0.349904
O O8 0.374507 0.987134 0.344911
O O9 0.777303 0.636879 0.811027
O O10 0.784497 0.713766 0.863768
O O11 0.641813 0.673989 0.849367
O O12 0.745085 0.659068 0.000000
O O13 0.060236 0.370748 0.179085
O O14 0.166081 0.433804 0.146268
O O15 0.860741 0.781171 0.815333
O O16 0.821994 0.767998 0.000000
O O17 0.000000 0.183598 0.250000
O O18 0.094895 0.475422 0.000000
#
# Coordination Sequence:
#
# PCOD8294515 Si02
#       8
#    16  16  16  16  16   8  16  16
#     4  10  21  36  50  68  96 129 166 213 257 301
#     4   9  18  32  49  69  99 136 177 211 237 284
#     4  10  22  36  50  71 101 130 158 209 265 308
#     4  12  20  31  47  70 106 138 168 207 252 295
#     4   9  19  37  55  69  94 127 163 208 262 308
#     4  12  22  30  43  76 100 130 176 218 245 292
#     4  11  20  36  57  73  90 122 171 213 256 314
#     4   9  17  31  49  70  97 136 177 209 240 285
#
# _framework density 16.957940000000001
#
# number of rings (size 3 to 8) (size 9 to 14) (size 15 to 20)
#    0.000    1.867    2.000    6.000    0.000    3.733 
#    0.000    0.667    0.000    0.000    0.000    0.000 
#    0.000    2.133    0.000    8.000    0.000    0.000 
#
# Total GULP energy -743416.162998 kJ/mol
# GULP energy per Si atom -12390.269383 kJ/mol
# Density = 1.691934 g / cm^3
# Si number density = 16.957940 Si / 1000 Ang^3
#
#
#
# Elastic Constant Matrix: (Units=GPa)
#
#
# Indices 1 2 3 4 5 6 
#
# 1 63.9704 35.4632 32.1026 -0.0218 -0.0001 0.0001
# 2 35.4632 94.5224 36.5690 -0.0323 0.0000 0.0002
# 3 32.1026 36.5690 88.8790 -0.3379 -0.0001 0.0006
# 4 -0.0218 -0.0323 -0.3379 36.1670 0.0065 0.0016
# 5 -0.0001 0.0000 -0.0001 0.0065 15.5521 0.0002
# 6 0.0001 0.0002 0.0006 0.0016 0.0002 20.3459
#
#
#
# Elastic Compliance Matrix: (Units=1/GPa)
#
#
# Indices 1 2 3 4 5 6 
#
# 1 0.021672 -0.006068 -0.005331 -0.000042 0.000000 0.000000
# 2 -0.006068 0.014282 -0.003684 -0.000025 0.000000 0.000000
# 3 -0.005331 -0.003684 0.014693 0.000131 0.000000 0.000000
# 4 -0.000042 -0.000025 0.000131 0.027651 -0.000012 -0.000002
# 5 0.000000 0.000000 0.000000 -0.000012 0.064300 -0.000001
# 6 0.000000 0.000000 0.000000 -0.000002 -0.000001 0.049150
#
#
# Mechanical properties :
#
#
# Convention : Reuss Voigt Hill
#
# Bulk Modulus (GPa) = 48.83061 50.62684 49.72873
# Shear Modulus (GPa) = 21.85878 23.96212 22.91045
#
# Velocity S-wave (km/s) = 3.59416 3.76311 3.67960
# Velocity P-wave (km/s) = 6.78834 6.98574 6.88775
#
# Compressibility (1/GPa) = 0.02047896
#
# Stress axis : x y z
#
# Youngs Moduli (GPa) = 46.14325 70.01985 68.05866
#
# Poissons Ratio (x) = 0.42491 0.36282
# Poissons Ratio (y) = 0.28001 0.25075
# Poissons Ratio (z) = 0.24599 0.25798
#
# Static dielectric constant tensor:
#      x y z
#    x 2.824060 0.000010 0.000000 
#    y 0.000010 3.259880 0.000000 
#    z 0.000000 0.000000 3.358140 
# 
# 
# High freq. dielectric constant tensor:
#      x y z
#    x 1.604180 0.000000 0.000000 
#    y 0.000000 1.642530 0.000000 
#    z 0.000000 0.000000 1.675930 
# 
# From -- ./inp_files/22486.got.cif
#   From: 2010.03.12/outbox.cif.g09.slc.cpg/sg72_12_cif.got.tgz:22486.got - 2010.04.16 14:54:00.
