data_PCOD8294886
_publ_section_title
;
Structure prediction by ZEFSAII (Michael W. Deem and Ramdas Pophale) SiO2 
 PCOD8294886
Probable space group: I B A M
;
_chemical_formula_sum "Si O2"
_cell_formula_units_Z 96
_cell_length_a 18.083750
_cell_length_b 10.466383
_cell_length_c 25.229016
_cell_angle_alpha 90.000000
_cell_angle_beta 90.000000
_cell_angle_gamma 90.000000
_cell_volume 4775.132531
_symmetry_space_group_name_H-M "I B A M"
_symmetry_group_IT_number 72
_symmetry_cell_setting 'orthorhombic'
loop_
_space_group_symop_operation_xyz
x,y,z
-x,-y,z
x,-y,1/2-z
-x,y,1/2-z
-x,-y,-z
x,y,-z
-x,y,1/2+z
x,-y,1/2+z
1/2+x,1/2+y,1/2+z
1/2-x,1/2-y,1/2+z
1/2+x,1/2-y,-z
1/2-x,1/2+y,-z
1/2-x,1/2-y,1/2-z
1/2+x,1/2+y,1/2-z
1/2-x,1/2+y,z
1/2+x,1/2-y,z
loop_
_atom_site_type_symbol
_atom_site_label
_atom_site_fract_x
_atom_site_fract_y
_atom_site_fract_z
Si Si1 0.067231 0.224022 0.640052
Si Si2 0.686608 0.802187 0.938242
Si Si3 0.603688 0.255888 0.155089
Si Si4 0.781312 0.580812 0.109748
Si Si5 0.414809 0.132666 0.239970
Si Si6 0.340203 0.511886 0.686362
O O1 0.107847 0.253944 0.584993
O O2 0.100027 0.330814 0.679621
O O3 0.087542 0.090736 0.668198
O O4 0.979212 0.228895 0.632837
O O5 0.745162 0.687974 0.928625
O O6 0.712445 0.940579 0.916077
O O7 0.674460 0.820663 0.000000
O O8 0.637689 0.135642 0.123881
O O9 0.609703 0.239144 0.218559
O O10 0.652114 0.383389 0.150975
O O11 0.734141 0.577851 0.164404
O O12 0.500000 0.109229 0.250000
O O13 0.371277 0.000000 0.250000
O O14 0.336473 0.500000 0.750000
#
# Coordination Sequence:
#
# PCOD8294886 Si02
#       6
#    16  16  16  16  16  16
#     4  10  22  37  63  93 126 167 211 264 316 379
#     4  11  24  45  67  91 124 168 221 275 327 376
#     4  11  21  38  62  93 130 163 208 256 321 389
#     4  11  24  42  66  93 128 170 215 269 321 388
#     4   9  17  30  52  86 122 158 191 240 306 373
#     4  11  22  38  64  95 133 175 212 252 316 398
#
# _framework density 20.104154000000001
#
# number of rings (size 3 to 8) (size 9 to 14) (size 15 to 20)
#    0.000    1.500    3.333    2.000    0.000    5.333 
#    0.000    2.500    0.000    2.000    0.000    0.000 
#    0.000    0.000    0.000    0.000    0.000    0.000 
#
# Total GULP energy -594748.236317 kJ/mol
# GULP energy per Si atom -12390.588257 kJ/mol
# Density = 2.005840 g / cm^3
# Si number density = 20.104154 Si / 1000 Ang^3
#
#
#
# Elastic Constant Matrix: (Units=GPa)
#
#
# Indices 1 2 3 4 5 6 
#
# 1 102.1899 25.5977 46.3553 0.0000 0.0000 0.0000
# 2 25.5977 114.3299 33.9803 0.0000 0.0000 0.0000
# 3 46.3553 33.9803 115.6754 0.0000 0.0000 0.0000
# 4 0.0000 0.0000 0.0000 27.2628 0.0000 0.0000
# 5 0.0000 0.0000 0.0000 0.0000 12.9983 0.0000
# 6 0.0000 0.0000 0.0000 0.0000 0.0000 37.2773
#
#
#
# Elastic Compliance Matrix: (Units=1/GPa)
#
#
# Indices 1 2 3 4 5 6 
#
# 1 0.012160 -0.001396 -0.004463 0.000000 0.000000 0.000000
# 2 -0.001396 0.009744 -0.002303 0.000000 0.000000 0.000000
# 3 -0.004463 -0.002303 0.011110 0.000000 0.000000 0.000000
# 4 0.000000 0.000000 0.000000 0.036680 0.000000 0.000000
# 5 0.000000 0.000000 0.000000 0.000000 0.076933 0.000000
# 6 0.000000 0.000000 0.000000 0.000000 0.000000 0.026826
#
#
# Mechanical properties :
#
#
# Convention : Reuss Voigt Hill
#
# Bulk Modulus (GPa) = 59.91661 60.45132 60.18397
# Shear Modulus (GPa) = 25.59658 30.59182 28.09420
#
# Velocity S-wave (km/s) = 3.57206 3.90509 3.74228
# Velocity P-wave (km/s) = 6.84694 7.10403 6.97667
#
# Compressibility (1/GPa) = 0.01668986
#
# Stress axis : x y z
#
# Youngs Moduli (GPa) = 82.23816 102.63136 90.01127
#
# Poissons Ratio (x) = 0.14328 0.40170
# Poissons Ratio (y) = 0.11481 0.20728
# Poissons Ratio (z) = 0.36701 0.23634
#
# Static dielectric constant tensor:
#      x y z
#    x 3.460220 0.000000 0.000000 
#    y 0.000000 4.229220 0.000000 
#    z 0.000000 0.000000 2.791080 
# 
# 
# High freq. dielectric constant tensor:
#      x y z
#    x 1.777890 0.000000 0.000000 
#    y 0.000000 1.810180 0.000000 
#    z 0.000000 0.000000 1.757680 
# 
# From -- ./inp_files/44813.got.cif
#   From: 2010.03.12/outbox.cif.g09.slc.cpg/sg72_23_cif.got.tgz:44813.got - 2010.04.16 14:54:00.
