data_PCOD8294401
_publ_section_title
;
Structure prediction by ZEFSAII (Michael W. Deem and Ramdas Pophale) SiO2 
 PCOD8294401
Probable space group: I B A M
;
_chemical_formula_sum "Si O2"
_cell_formula_units_Z 56
_cell_length_a 21.173734
_cell_length_b 8.374330
_cell_length_c 14.170936
_cell_angle_alpha 90.000000
_cell_angle_beta 90.000000
_cell_angle_gamma 90.000000
_cell_volume 2512.731362
_symmetry_space_group_name_H-M "I B A M"
_symmetry_group_IT_number 72
_symmetry_cell_setting 'orthorhombic'
loop_
_space_group_symop_operation_xyz
x,y,z
-x,-y,z
x,-y,1/2-z
-x,y,1/2-z
-x,-y,-z
x,y,-z
-x,y,1/2+z
x,-y,1/2+z
1/2+x,1/2+y,1/2+z
1/2-x,1/2-y,1/2+z
1/2+x,1/2-y,-z
1/2-x,1/2+y,-z
1/2-x,1/2-y,1/2-z
1/2+x,1/2+y,1/2-z
1/2-x,1/2+y,z
1/2+x,1/2-y,z
loop_
_atom_site_type_symbol
_atom_site_label
_atom_site_fract_x
_atom_site_fract_y
_atom_site_fract_z
Si Si1 0.434438 0.644026 0.304298
Si Si2 0.095877 0.981245 0.000000
Si Si3 0.783395 0.233116 0.000000
Si Si4 0.862337 0.339069 0.500000
Si Si5 0.154780 0.572732 0.843241
O O1 0.397192 0.500000 0.250000
O O2 0.500000 0.670595 0.250000
O O3 0.443687 0.585174 0.411761
O O4 0.397340 0.808296 0.301866
O O5 0.100727 0.172889 0.000000
O O6 0.167496 0.913587 0.000000
O O7 0.713276 0.170612 0.000000
O O8 0.793060 0.338092 0.905881
O O9 0.880935 0.438544 0.593722
O O10 0.188457 0.500000 0.750000
#
# Coordination Sequence:
#
# PCOD8294401 Si02
#       5
#    16   8   8   8  16
#     4  10  22  40  63  87 118 162 209 250 303 368
#     4  10  20  39  62  88 125 164 200 248 300 359
#     4   9  21  39  61  92 127 165 203 240 301 373
#     4  11  21  39  65  91 126 160 199 253 303 359
#     4  10  21  38  61  93 126 157 201 254 301 355
#
# _framework density 22.286505999999999
#
# number of rings (size 3 to 8) (size 9 to 14) (size 15 to 20)
#    0.000    2.000    0.000    4.286    0.000    4.000 
#    0.000   11.429    0.000   17.143    0.000    0.000 
#    0.000    0.000    0.000    0.000    0.000    0.000 
#
# Total GULP energy -347090.832463 kJ/mol
# GULP energy per Si atom -12396.101159 kJ/mol
# Density = 2.223578 g / cm^3
# Si number density = 22.286506 Si / 1000 Ang^3
#
#
#
# Elastic Constant Matrix: (Units=GPa)
#
#
# Indices 1 2 3 4 5 6 
#
# 1 91.0663 39.7167 35.4247 0.0000 0.0000 0.0000
# 2 39.7167 141.0183 59.5023 0.0000 0.0000 0.0000
# 3 35.4247 59.5023 185.8977 0.0000 0.0000 0.0000
# 4 0.0000 0.0000 0.0000 34.9987 0.0000 0.0000
# 5 0.0000 0.0000 0.0000 0.0000 15.1584 0.0000
# 6 0.0000 0.0000 0.0000 0.0000 0.0000 23.2606
#
#
#
# Elastic Compliance Matrix: (Units=1/GPa)
#
#
# Indices 1 2 3 4 5 6 
#
# 1 0.012868 -0.002994 -0.001494 0.000000 0.000000 0.000000
# 2 -0.002994 0.008895 -0.002277 0.000000 0.000000 0.000000
# 3 -0.001494 -0.002277 0.006393 0.000000 0.000000 0.000000
# 4 0.000000 0.000000 0.000000 0.028572 0.000000 0.000000
# 5 0.000000 0.000000 0.000000 0.000000 0.065970 0.000000
# 6 0.000000 0.000000 0.000000 0.000000 0.000000 0.042991
#
#
# Mechanical properties :
#
#
# Convention : Reuss Voigt Hill
#
# Bulk Modulus (GPa) = 68.36669 76.36330 72.36500
# Shear Modulus (GPa) = 27.16011 33.57279 30.36645
#
# Velocity S-wave (km/s) = 3.49475 3.88547 3.69528
# Velocity P-wave (km/s) = 6.85764 7.38024 7.12373
#
# Compressibility (1/GPa) = 0.01462701
#
# Stress axis : x y z
#
# Youngs Moduli (GPa) = 77.71341 112.42169 156.42892
#
# Poissons Ratio (x) = 0.33657 0.23368
# Poissons Ratio (y) = 0.23266 0.35613
# Poissons Ratio (z) = 0.11609 0.25594
#
# Static dielectric constant tensor:
#      x y z
#    x 3.384610 0.000000 0.000000 
#    y 0.000000 4.447390 0.000000 
#    z 0.000000 0.000000 4.357750 
# 
# 
# High freq. dielectric constant tensor:
#      x y z
#    x 1.830840 0.000000 0.000000 
#    y 0.000000 1.901820 0.000000 
#    z 0.000000 0.000000 1.903520 
# 
# From -- ./inp_files/15996.got.cif
#   From: 2010.03.12/outbox.cif.g09.slc.cpg/sg72_8_cif.got.tgz:15996.got - 2010.04.16 14:54:00.
