data_PCOD8294049
_publ_section_title
;
Structure prediction by ZEFSAII (Michael W. Deem and Ramdas Pophale) SiO2 
 PCOD8294049
Probable space group: I B A M
;
_chemical_formula_sum "Si O2"
_cell_formula_units_Z 96
_cell_length_a 11.305665
_cell_length_b 23.244089
_cell_length_c 17.290802
_cell_angle_alpha 90.000000
_cell_angle_beta 90.000000
_cell_angle_gamma 90.000000
_cell_volume 4543.847843
_symmetry_space_group_name_H-M "I B A M"
_symmetry_group_IT_number 72
_symmetry_cell_setting 'orthorhombic'
loop_
_space_group_symop_operation_xyz
x,y,z
-x,-y,z
x,-y,1/2-z
-x,y,1/2-z
-x,-y,-z
x,y,-z
-x,y,1/2+z
x,-y,1/2+z
1/2+x,1/2+y,1/2+z
1/2-x,1/2-y,1/2+z
1/2+x,1/2-y,-z
1/2-x,1/2+y,-z
1/2-x,1/2-y,1/2-z
1/2+x,1/2+y,1/2-z
1/2-x,1/2+y,z
1/2+x,1/2-y,z
loop_
_atom_site_type_symbol
_atom_site_label
_atom_site_fract_x
_atom_site_fract_y
_atom_site_fract_z
Si Si1 0.777326 0.399365 0.586559
Si Si2 0.881036 0.317365 0.700755
Si Si3 0.647708 0.377985 0.087246
Si Si4 0.734766 0.780066 0.153545
Si Si5 0.363302 0.495804 0.659039
Si Si6 0.428703 0.691253 0.586280
O O1 0.830998 0.410402 0.500000
O O2 0.874890 0.375568 0.648410
O O3 0.717471 0.457560 0.616677
O O4 0.683527 0.349289 0.580660
O O5 0.853873 0.260453 0.648066
O O6 0.772754 0.311434 0.762635
O O7 0.000000 0.317327 0.750000
O O8 0.752658 0.331007 0.090770
O O9 0.684714 0.433415 0.135688
O O10 0.533124 0.346289 0.125246
O O11 0.621278 0.397314 0.000000
O O12 0.611076 0.746960 0.135775
O O13 0.500000 0.500000 0.632309
O O14 0.349528 0.500000 0.750000
O O15 0.467598 0.710918 0.500000
#
# Coordination Sequence:
#
# PCOD8294049 Si02
#       6
#    16  16  16  16  16  16
#     4  10  20  37  59  84 118 158 202 248 302 365
#     4  10  21  38  59  85 117 159 203 251 304 359
#     4  11  21  34  57  87 123 160 195 245 305 364
#     4  10  20  35  55  85 118 157 201 252 297 359
#     4  11  22  36  57  91 123 158 197 251 312 371
#     4   9  18  32  52  81 118 156 193 241 301 361
#
# _framework density 21.127468
#
# number of rings (size 3 to 8) (size 9 to 14) (size 15 to 20)
#    0.000    1.833    1.667    3.000    0.000    1.333 
#    3.000    1.667    0.000    5.500    0.000    5.833 
#    0.000    0.000    0.000    0.000    0.000    0.000 
#
# Total GULP energy -594840.987056 kJ/mol
# GULP energy per Si atom -12392.520564 kJ/mol
# Density = 2.107938 g / cm^3
# Si number density = 21.127468 Si / 1000 Ang^3
#
#
#
# Elastic Constant Matrix: (Units=GPa)
#
#
# Indices 1 2 3 4 5 6 
#
# 1 52.7373 45.2152 30.9840 0.0000 0.0000 0.0000
# 2 45.2152 146.6920 71.7765 0.0000 0.0000 0.0000
# 3 30.9840 71.7765 111.1819 0.0000 0.0000 0.0000
# 4 0.0000 0.0000 0.0000 30.1251 0.0000 0.0000
# 5 0.0000 0.0000 0.0000 0.0000 22.7531 0.0000
# 6 0.0000 0.0000 0.0000 0.0000 0.0000 23.6975
#
#
#
# Elastic Compliance Matrix: (Units=1/GPa)
#
#
# Indices 1 2 3 4 5 6 
#
# 1 0.026477 -0.006652 -0.003084 0.000000 0.000000 0.000000
# 2 -0.006652 0.011636 -0.005658 0.000000 0.000000 0.000000
# 3 -0.003084 -0.005658 0.013507 0.000000 0.000000 0.000000
# 4 0.000000 0.000000 0.000000 0.033195 0.000000 0.000000
# 5 0.000000 0.000000 0.000000 0.000000 0.043950 0.000000
# 6 0.000000 0.000000 0.000000 0.000000 0.000000 0.042199
#
#
# Mechanical properties :
#
#
# Convention : Reuss Voigt Hill
#
# Bulk Modulus (GPa) = 48.00562 67.39582 57.70072
# Shear Modulus (GPa) = 23.95840 26.15753 25.05796
#
# Velocity S-wave (km/s) = 3.37113 3.52246 3.44763
# Velocity P-wave (km/s) = 6.15824 6.96509 6.57406
#
# Compressibility (1/GPa) = 0.02083089
#
# Stress axis : x y z
#
# Youngs Moduli (GPa) = 37.76849 85.94122 74.03841
#
# Poissons Ratio (x) = 0.57168 0.22835
# Poissons Ratio (y) = 0.25124 0.41892
# Poissons Ratio (z) = 0.11649 0.48626
#
# Static dielectric constant tensor:
#      x y z
#    x 3.450250 0.000000 0.000000 
#    y 0.000000 3.802800 0.000000 
#    z 0.000000 0.000000 4.167050 
# 
# 
# High freq. dielectric constant tensor:
#      x y z
#    x 1.791330 0.000000 0.000000 
#    y 0.000000 1.825090 0.000000 
#    z 0.000000 0.000000 1.835400 
# 
# From -- ./inp_files/29404.got.cif
#   From: 2010.03.12/outbox.cif.g09.slc.cpg/sg72_15_cif.got.tgz:29404.got - 2010.04.16 14:54:00.
