data_PCOD8294443
_publ_section_title
;
Structure prediction by ZEFSAII (Michael W. Deem and Ramdas Pophale) SiO2 
 PCOD8294443
Probable space group: I B A M
;
_chemical_formula_sum "Si O2"
_cell_formula_units_Z 48
_cell_length_a 26.292996
_cell_length_b 6.962796
_cell_length_c 10.367169
_cell_angle_alpha 90.000000
_cell_angle_beta 90.000000
_cell_angle_gamma 90.000000
_cell_volume 1897.946319
_symmetry_space_group_name_H-M "I B A M"
_symmetry_group_IT_number 72
_symmetry_cell_setting 'orthorhombic'
loop_
_space_group_symop_operation_xyz
x,y,z
-x,-y,z
x,-y,1/2-z
-x,y,1/2-z
-x,-y,-z
x,y,-z
-x,y,1/2+z
x,-y,1/2+z
1/2+x,1/2+y,1/2+z
1/2-x,1/2-y,1/2+z
1/2+x,1/2-y,-z
1/2-x,1/2+y,-z
1/2-x,1/2-y,1/2-z
1/2+x,1/2+y,1/2-z
1/2-x,1/2+y,z
1/2+x,1/2-y,z
loop_
_atom_site_type_symbol
_atom_site_label
_atom_site_fract_x
_atom_site_fract_y
_atom_site_fract_z
Si Si1 0.295826 0.836996 0.500000
Si Si2 0.470702 0.297492 0.861335
Si Si3 0.820555 0.773006 0.000000
Si Si4 0.361940 0.773372 0.268460
O O1 0.235490 0.862516 0.500000
O O2 0.316017 0.731789 0.370373
O O3 0.319523 0.045539 0.500000
O O4 0.500000 0.500000 0.871189
O O5 0.500000 0.175179 0.750000
O O6 0.412100 0.325835 0.824367
O O7 0.474297 0.191814 0.000000
O O8 0.849231 0.832944 0.867628
O O9 0.371111 0.000000 0.250000
#
# Coordination Sequence:
#
# PCOD8294443 Si02
#       4
#     8  16   8  16
#     4  10  20  42  60  93 129 165 217 268 316 385
#     4  10  22  42  63  90 128 161 213 265 316 384
#     4  10  22  38  64  93 127 167 215 266 320 383
#     4  10  21  40  64  89 129 172 214 262 324 382
#
# _framework density 25.290493000000001
#
# number of rings (size 3 to 8) (size 9 to 14) (size 15 to 20)
#    0.000    2.000    1.667    1.000    2.333    0.667 
#   12.000    1.667    0.000    0.000    0.000    0.000 
#    0.000    0.000    0.000    0.000    0.000    0.000 
#
# Total GULP energy -297396.840960 kJ/mol
# GULP energy per Si atom -12391.535040 kJ/mol
# Density = 2.523293 g / cm^3
# Si number density = 25.290493 Si / 1000 Ang^3
#
#
#
# Elastic Constant Matrix: (Units=GPa)
#
#
# Indices 1 2 3 4 5 6 
#
# 1 177.4994 4.0413 100.6644 0.0000 0.0000 0.0000
# 2 4.0413 34.7170 -12.0023 0.0000 0.0000 0.0000
# 3 100.6644 -12.0023 304.1160 0.0000 0.0000 0.0000
# 4 0.0000 0.0000 0.0000 -5.0207 0.0000 0.0000
# 5 0.0000 0.0000 0.0000 0.0000 50.9487 0.0000
# 6 0.0000 0.0000 0.0000 0.0000 0.0000 32.4562
#
#
#
# Elastic Compliance Matrix: (Units=1/GPa)
#
#
# Indices 1 2 3 4 5 6 
#
# 1 0.007027 -0.001645 -0.002391 0.000000 0.000000 0.000000
# 2 -0.001645 0.029588 0.001712 0.000000 0.000000 0.000000
# 3 -0.002391 0.001712 0.004147 0.000000 0.000000 0.000000
# 4 0.000000 0.000000 0.000000 -0.199176 0.000000 0.000000
# 5 0.000000 0.000000 0.000000 0.000000 0.019628 0.000000
# 6 0.000000 0.000000 0.000000 0.000000 0.000000 0.030811
#
#
# Mechanical properties :
#
#
# Convention : Reuss Voigt Hill
#
# Bulk Modulus (GPa) = 27.68922 77.97102 52.83012
# Shear Modulus (GPa) = -54.77015 43.91877 -5.42569
#
# Velocity S-wave (km/s) = -4.65869 4.17174 -1.46629
# Velocity P-wave (km/s) = 4.23859 7.35538 4.25065
#
# Compressibility (1/GPa) = 0.03611513
#
# Stress axis : x y z
#
# Youngs Moduli (GPa) = 142.30320 33.79787 241.12552
#
# Poissons Ratio (x) = 0.05558 0.57652
# Poissons Ratio (y) = 0.23403 -0.41283
# Poissons Ratio (z) = 0.34024 -0.05787
#
# Static dielectric constant tensor:
#      x y z
#    x 4.383860 0.000000 0.000000 
#    y 0.000000 4.069720 0.000000 
#    z 0.000000 0.000000 6.686090 
# 
# 
# High freq. dielectric constant tensor:
#      x y z
#    x 2.006360 0.000000 0.000000 
#    y 0.000000 1.986450 0.000000 
#    z 0.000000 0.000000 2.042270 
# 
# From -- ./inp_files/10220.got.cif
#   From: 2010.03.12/outbox.cif.g09.slc.cpg/sg72_6_cif.got.tgz:10220.got - 2010.04.16 14:54:00.
