data_PCOD8294437
_publ_section_title
;
Structure prediction by ZEFSAII (Michael W. Deem and Ramdas Pophale) SiO2 
 PCOD8294437
Probable space group: I B A M
;
_chemical_formula_sum "Si O2"
_cell_formula_units_Z 112
_cell_length_a 32.922473
_cell_length_b 10.295247
_cell_length_c 15.215452
_cell_angle_alpha 90.000000
_cell_angle_beta 90.000000
_cell_angle_gamma 90.000000
_cell_volume 5157.201247
_symmetry_space_group_name_H-M "I B A M"
_symmetry_group_IT_number 72
_symmetry_cell_setting 'orthorhombic'
loop_
_space_group_symop_operation_xyz
x,y,z
-x,-y,z
x,-y,1/2-z
-x,y,1/2-z
-x,-y,-z
x,y,-z
-x,y,1/2+z
x,-y,1/2+z
1/2+x,1/2+y,1/2+z
1/2-x,1/2-y,1/2+z
1/2+x,1/2-y,-z
1/2-x,1/2+y,-z
1/2-x,1/2-y,1/2-z
1/2+x,1/2+y,1/2-z
1/2-x,1/2+y,z
1/2+x,1/2-y,z
loop_
_atom_site_type_symbol
_atom_site_label
_atom_site_fract_x
_atom_site_fract_y
_atom_site_fract_z
Si Si1 0.427292 0.230517 0.097595
Si Si2 0.287647 0.048658 0.846889
Si Si3 0.144307 0.776919 0.599552
Si Si4 0.082754 0.861017 0.725951
Si Si5 0.512663 0.351449 0.099493
Si Si6 0.735370 0.220321 0.900421
Si Si7 0.123013 0.501205 0.854357
O O1 0.404856 0.291542 0.182575
O O2 0.475097 0.252898 0.111774
O O3 0.413592 0.080479 0.100027
O O4 0.415529 0.287945 0.000000
O O5 0.266913 0.190858 0.846113
O O6 0.333125 0.059069 0.886771
O O7 0.294315 0.000000 0.750000
O O8 0.259493 0.936598 0.892517
O O9 0.142424 0.829206 0.500000
O O10 0.123207 0.877148 0.666303
O O11 0.190247 0.755980 0.631443
O O12 0.119138 0.643804 0.608951
O O13 0.046635 0.798503 0.667358
O O14 0.065666 0.000000 0.750000
O O15 0.500000 0.500000 0.119868
O O16 0.529909 0.343661 0.000000
O O17 0.742839 0.261938 0.000000
O O18 0.117433 0.500000 0.750000
#
# Coordination Sequence:
#
# PCOD8294437 Si02
#       7
#    16  16  16  16  16  16  16
#     4  11  23  38  62  93 121 155 209 260 305 376
#     4  10  21  38  65  90 125 163 212 260 312 374
#     4  10  22  40  63  87 124 169 210 255 312 375
#     4  12  23  38  63  90 124 166 205 253 314 375
#     4  10  21  39  62  90 123 158 202 254 314 375
#     4  10  21  39  61  91 124 165 210 257 315 374
#     4  10  20  41  65  90 118 166 209 256 318 374
#
# _framework density 21.717203999999999
#
# number of rings (size 3 to 8) (size 9 to 14) (size 15 to 20)
#    0.000    1.571    2.857    2.143    0.000    2.857 
#    2.571    0.714    0.000    2.571    0.000    0.000 
#    0.000    0.000    0.000    0.000    0.000    0.000 
#
# Total GULP energy -693950.528094 kJ/mol
# GULP energy per Si atom -12391.973716 kJ/mol
# Density = 2.166778 g / cm^3
# Si number density = 21.717204 Si / 1000 Ang^3
#
#
#
# Elastic Constant Matrix: (Units=GPa)
#
#
# Indices 1 2 3 4 5 6 
#
# 1 74.8981 37.6206 23.4490 0.0000 0.0000 0.0000
# 2 37.6206 71.9219 9.0338 0.0000 0.0000 0.0000
# 3 23.4490 9.0338 113.1978 0.0000 0.0000 0.0000
# 4 0.0000 0.0000 0.0000 30.7560 0.0000 0.0000
# 5 0.0000 0.0000 0.0000 0.0000 38.6838 0.0000
# 6 0.0000 0.0000 0.0000 0.0000 0.0000 38.8333
#
#
#
# Elastic Compliance Matrix: (Units=1/GPa)
#
#
# Indices 1 2 3 4 5 6 
#
# 1 0.019197 -0.009639 -0.003207 0.000000 0.000000 0.000000
# 2 -0.009639 0.018884 0.000490 0.000000 0.000000 0.000000
# 3 -0.003207 0.000490 0.009459 0.000000 0.000000 0.000000
# 4 0.000000 0.000000 0.000000 0.032514 0.000000 0.000000
# 5 0.000000 0.000000 0.000000 0.000000 0.025851 0.000000
# 6 0.000000 0.000000 0.000000 0.000000 0.000000 0.025751
#
#
# Mechanical properties :
#
#
# Convention : Reuss Voigt Hill
#
# Bulk Modulus (GPa) = 43.80645 44.46939 44.13792
# Shear Modulus (GPa) = 30.49177 34.31558 32.40368
#
# Velocity S-wave (km/s) = 3.75111 3.97937 3.86693
# Velocity P-wave (km/s) = 6.24310 6.45251 6.34867
#
# Compressibility (1/GPa) = 0.02282769
#
# Stress axis : x y z
#
# Youngs Moduli (GPa) = 52.09130 52.95428 105.71445
#
# Poissons Ratio (x) = 0.51041 0.33907
# Poissons Ratio (y) = 0.50209 -0.05176
# Poissons Ratio (z) = 0.16708 -0.02593
#
# Static dielectric constant tensor:
#      x y z
#    x 3.794770 0.000000 0.000000 
#    y 0.000000 3.822390 0.000000 
#    z 0.000000 0.000000 4.286190 
# 
# 
# High freq. dielectric constant tensor:
#      x y z
#    x 1.837150 0.000000 0.000000 
#    y 0.000000 1.826740 0.000000 
#    z 0.000000 0.000000 1.873780 
# 
# From -- ./inp_files/26340.got.cif
#   From: 2010.03.12/outbox.cif.g09.slc.cpg/sg72_14_cif.got.tgz:26340.got - 2010.04.16 14:54:00.
