data_PCOD8294095
_publ_section_title
;
Structure prediction by ZEFSAII (Michael W. Deem and Ramdas Pophale) SiO2 
 PCOD8294095
Probable space group: I B A M
;
_chemical_formula_sum "Si O2"
_cell_formula_units_Z 116
_cell_length_a 11.777015
_cell_length_b 30.997764
_cell_length_c 17.619793
_cell_angle_alpha 90.000000
_cell_angle_beta 90.000000
_cell_angle_gamma 90.000000
_cell_volume 6432.301571
_symmetry_space_group_name_H-M "I B A M"
_symmetry_group_IT_number 72
_symmetry_cell_setting 'orthorhombic'
loop_
_space_group_symop_operation_xyz
x,y,z
-x,-y,z
x,-y,1/2-z
-x,y,1/2-z
-x,-y,-z
x,y,-z
-x,y,1/2+z
x,-y,1/2+z
1/2+x,1/2+y,1/2+z
1/2-x,1/2-y,1/2+z
1/2+x,1/2-y,-z
1/2-x,1/2+y,-z
1/2-x,1/2-y,1/2-z
1/2+x,1/2+y,1/2-z
1/2-x,1/2+y,z
1/2+x,1/2-y,z
loop_
_atom_site_type_symbol
_atom_site_label
_atom_site_fract_x
_atom_site_fract_y
_atom_site_fract_z
Si Si1 0.466359 0.311930 0.665157
Si Si2 0.733319 0.631492 0.707495
Si Si3 0.974730 0.355263 0.161654
Si Si4 0.094289 0.724495 0.587877
Si Si5 0.500000 0.500000 0.750000
Si Si6 0.340868 0.088622 0.584616
Si Si7 0.717472 0.541780 0.788036
Si Si8 0.788487 0.167751 0.870326
O O1 0.500000 0.298265 0.750000
O O2 0.378795 0.351886 0.664162
O O3 0.412425 0.271203 0.624499
O O4 0.577480 0.327014 0.619650
O O5 0.839939 0.637870 0.651186
O O6 0.721017 0.581643 0.729861
O O7 0.750461 0.659889 0.783455
O O8 0.000000 0.357827 0.250000
O O9 0.008833 0.309070 0.127595
O O10 0.041523 0.393972 0.120042
O O11 0.061953 0.726870 0.500000
O O12 0.224819 0.710224 0.599592
O O13 0.583411 0.529933 0.802328
O O14 0.363958 0.070897 0.500000
O O15 0.285420 0.050735 0.634691
O O16 0.250225 0.127352 0.579351
O O17 0.777718 0.500000 0.750000
#
# Coordination Sequence:
#
# PCOD8294095 Si02
#       8
#    16  16  16  16   4  16  16  16
#     4  10  23  34  56  80 110 148 198 252 293 346
#     4  10  20  35  58  87 111 146 200 247 298 342
#     4  11  18  36  59  83 111 152 203 245 287 353
#     4  11  23  36  51  75 111 156 198 246 302 350
#     4   8  20  32  66  90 120 148 194 240 290 336
#     4  10  20  36  60  89 119 156 190 239 303 359
#     4   9  19  35  63  93 117 150 193 244 293 365
#     4   9  19  34  54  77 108 143 190 244 287 350
#
# _framework density 18.033981000000001
#
# number of rings (size 3 to 8) (size 9 to 14) (size 15 to 20)
#    0.414    1.655    4.138    2.069    6.759    2.207 
#    0.000    2.414    0.000    3.310    0.000    0.000 
#    0.000    0.000    0.000    0.000    0.000    0.000 
#
# Total GULP energy -718951.847034 kJ/mol
# GULP energy per Si atom -12395.721501 kJ/mol
# Density = 1.799294 g / cm^3
# Si number density = 18.033981 Si / 1000 Ang^3
#
#
#
# Elastic Constant Matrix: (Units=GPa)
#
#
# Indices 1 2 3 4 5 6 
#
# 1 120.6544 50.2441 49.6671 0.0001 -0.0001 0.0000
# 2 50.2441 110.3696 51.0134 0.0001 -0.0001 0.0000
# 3 49.6671 51.0134 95.8963 0.0009 -0.0003 -0.0004
# 4 0.0001 0.0001 0.0009 13.7936 -0.0001 -0.0001
# 5 -0.0001 -0.0001 -0.0003 -0.0001 18.0938 0.0001
# 6 0.0000 0.0000 -0.0004 -0.0001 0.0001 23.7552
#
#
#
# Elastic Compliance Matrix: (Units=1/GPa)
#
#
# Indices 1 2 3 4 5 6 
#
# 1 0.011349 -0.003248 -0.004150 0.000000 0.000000 0.000000
# 2 -0.003248 0.012944 -0.005203 0.000000 0.000000 0.000000
# 3 -0.004150 -0.005203 0.015345 -0.000001 0.000000 0.000000
# 4 0.000000 0.000000 -0.000001 0.072497 0.000000 0.000000
# 5 0.000000 0.000000 0.000000 0.000000 0.055268 0.000000
# 6 0.000000 0.000000 0.000000 0.000000 0.000000 0.042096
#
#
# Mechanical properties :
#
#
# Convention : Reuss Voigt Hill
#
# Bulk Modulus (GPa) = 69.27542 69.86328 69.56935
# Shear Modulus (GPa) = 20.87549 22.86157 21.86853
#
# Velocity S-wave (km/s) = 3.40599 3.56433 3.48606
# Velocity P-wave (km/s) = 7.34608 7.46748 7.40703
#
# Compressibility (1/GPa) = 0.01443513
#
# Stress axis : x y z
#
# Youngs Moduli (GPa) = 88.11180 77.25393 65.16611
#
# Poissons Ratio (x) = 0.25095 0.27044
# Poissons Ratio (y) = 0.28622 0.33909
# Poissons Ratio (z) = 0.36567 0.40199
#
# Static dielectric constant tensor:
#      x y z
#    x 3.599610 0.000000 0.000000 
#    y 0.000000 3.225920 0.000000 
#    z 0.000000 0.000000 3.176370 
# 
# 
# High freq. dielectric constant tensor:
#      x y z
#    x 1.704920 0.000000 0.000000 
#    y 0.000000 1.686160 0.000000 
#    z 0.000000 0.000000 1.675960 
# 
# From -- ./inp_files/29780.got.cif
#   From: 2010.03.12/outbox.cif.g09.slc.cpg/sg72_15_cif.got.tgz:29780.got - 2010.04.16 14:54:00.
