data_PCOD8294214
_publ_section_title
;
Structure prediction by ZEFSAII (Michael W. Deem and Ramdas Pophale) SiO2 
 PCOD8294214
Probable space group: I B A M
;
_chemical_formula_sum "Si O2"
_cell_formula_units_Z 80
_cell_length_a 12.703170
_cell_length_b 24.009969
_cell_length_c 13.810350
_cell_angle_alpha 90.000000
_cell_angle_beta 90.000000
_cell_angle_gamma 90.000000
_cell_volume 4212.194285
_symmetry_space_group_name_H-M "I B A M"
_symmetry_group_IT_number 72
_symmetry_cell_setting 'orthorhombic'
loop_
_space_group_symop_operation_xyz
x,y,z
-x,-y,z
x,-y,1/2-z
-x,y,1/2-z
-x,-y,-z
x,y,-z
-x,y,1/2+z
x,-y,1/2+z
1/2+x,1/2+y,1/2+z
1/2-x,1/2-y,1/2+z
1/2+x,1/2-y,-z
1/2-x,1/2+y,-z
1/2-x,1/2-y,1/2-z
1/2+x,1/2+y,1/2-z
1/2-x,1/2+y,z
1/2+x,1/2-y,z
loop_
_atom_site_type_symbol
_atom_site_label
_atom_site_fract_x
_atom_site_fract_y
_atom_site_fract_z
Si Si1 0.999801 0.326281 0.891657
Si Si2 0.680575 0.195567 0.250481
Si Si3 0.735018 0.577220 0.265185
Si Si4 0.122389 0.998894 0.611978
Si Si5 0.569607 0.946741 0.890833
O O1 0.101982 0.301731 0.840004
O O2 0.889038 0.306103 0.847433
O O3 0.006487 0.393129 0.884474
O O4 0.002271 0.303574 0.000000
O O5 0.750000 0.250000 0.250000
O O6 0.759768 0.142851 0.243639
O O7 0.692867 0.544140 0.170571
O O8 0.656494 0.563180 0.354470
O O9 0.847859 0.555733 0.303230
O O10 0.144852 0.009784 0.500000
O O11 0.000000 0.000000 0.637213
O O12 0.500000 0.000000 0.871140
O O13 0.620491 0.948993 0.000000
#
# Coordination Sequence:
#
# PCOD8294214 Si02
#       5
#    16  16  16  16  16
#     4   9  20  39  58  85 119 148 185 234 283 333
#     4  10  22  40  59  84 115 151 194 239 278 332
#     4  10  20  36  61  84 111 152 192 227 286 335
#     4  10  22  40  57  83 119 148 187 239 285 337
#     4   9  18  32  57  90 121 148 177 220 280 348
#
# _framework density 18.992474999999999
#
# number of rings (size 3 to 8) (size 9 to 14) (size 15 to 20)
#    0.000    2.400    0.000    1.800    5.600    2.400 
#    7.200    0.000    0.000    0.600    0.000    0.000 
#    0.000    0.000    0.000    0.000    0.000    0.000 
#
# Total GULP energy -495729.751283 kJ/mol
# GULP energy per Si atom -12393.243782 kJ/mol
# Density = 1.894925 g / cm^3
# Si number density = 18.992475 Si / 1000 Ang^3
#
#
#
# Elastic Constant Matrix: (Units=GPa)
#
#
# Indices 1 2 3 4 5 6 
#
# 1 98.0386 68.0011 53.6418 0.0000 0.0000 0.0000
# 2 68.0011 135.0582 50.7848 0.0005 0.0000 0.0001
# 3 53.6418 50.7848 145.8507 0.0007 -0.0001 0.0001
# 4 0.0000 0.0005 0.0007 15.7368 -0.0001 0.0001
# 5 0.0000 0.0000 -0.0001 -0.0001 24.0568 0.0000
# 6 0.0000 0.0001 0.0001 0.0001 0.0000 35.5317
#
#
#
# Elastic Compliance Matrix: (Units=1/GPa)
#
#
# Indices 1 2 3 4 5 6 
#
# 1 0.017366 -0.007298 -0.003846 0.000000 0.000000 0.000000
# 2 -0.007298 0.011586 -0.001350 0.000000 0.000000 0.000000
# 3 -0.003846 -0.001350 0.008741 0.000000 0.000000 0.000000
# 4 0.000000 0.000000 0.000000 0.063545 0.000000 0.000000
# 5 0.000000 0.000000 0.000000 0.000000 0.041568 0.000000
# 6 0.000000 0.000000 0.000000 0.000000 0.000000 0.028144
#
#
# Mechanical properties :
#
#
# Convention : Reuss Voigt Hill
#
# Bulk Modulus (GPa) = 78.70596 80.42255 79.56426
# Shear Modulus (GPa) = 24.97828 28.83304 26.90566
#
# Velocity S-wave (km/s) = 3.63046 3.90055 3.76792
# Velocity P-wave (km/s) = 7.68793 7.91972 7.80469
#
# Compressibility (1/GPa) = 0.01270552
#
# Stress axis : x y z
#
# Youngs Moduli (GPa) = 57.58340 86.30913 114.40289
#
# Poissons Ratio (x) = 0.62985 0.44000
# Poissons Ratio (y) = 0.42022 0.15449
# Poissons Ratio (z) = 0.22147 0.11655
#
# Static dielectric constant tensor:
#      x y z
#    x 3.354940 0.000000 0.000000 
#    y 0.000000 3.342390 0.000000 
#    z 0.000000 0.000000 3.779100 
# 
# 
# High freq. dielectric constant tensor:
#      x y z
#    x 1.737290 0.000000 0.000000 
#    y 0.000000 1.714860 0.000000 
#    z 0.000000 0.000000 1.754490 
# 
# From -- ./inp_files/20189.got.cif
#   From: 2010.03.12/outbox.cif.g09.slc.cpg/sg72_11_cif.got.tgz:20189.got - 2010.04.16 14:54:00.
