data_PCOD8294269
_publ_section_title
;
Structure prediction by ZEFSAII (Michael W. Deem and Ramdas Pophale) SiO2 
 PCOD8294269
Probable space group: I B A M
;
_chemical_formula_sum "Si O2"
_cell_formula_units_Z 80
_cell_length_a 28.635206
_cell_length_b 8.611999
_cell_length_c 16.675558
_cell_angle_alpha 90.000000
_cell_angle_beta 90.000000
_cell_angle_gamma 90.000000
_cell_volume 4112.298750
_symmetry_space_group_name_H-M "I B A M"
_symmetry_group_IT_number 72
_symmetry_cell_setting 'orthorhombic'
loop_
_space_group_symop_operation_xyz
x,y,z
-x,-y,z
x,-y,1/2-z
-x,y,1/2-z
-x,-y,-z
x,y,-z
-x,y,1/2+z
x,-y,1/2+z
1/2+x,1/2+y,1/2+z
1/2-x,1/2-y,1/2+z
1/2+x,1/2-y,-z
1/2-x,1/2+y,-z
1/2-x,1/2-y,1/2-z
1/2+x,1/2+y,1/2-z
1/2-x,1/2+y,z
1/2+x,1/2-y,z
loop_
_atom_site_type_symbol
_atom_site_label
_atom_site_fract_x
_atom_site_fract_y
_atom_site_fract_z
Si Si1 0.048541 0.195350 0.404840
Si Si2 0.699309 0.682167 0.263699
Si Si3 0.373070 0.891452 0.324069
Si Si4 0.351644 0.814815 0.092767
Si Si5 0.945447 0.152558 0.594362
O O1 0.055552 0.216986 0.500000
O O2 0.080200 0.317776 0.358897
O O3 0.994873 0.224740 0.377474
O O4 0.062467 0.022921 0.374584
O O5 0.699262 0.500000 0.250000
O O6 0.750000 0.750000 0.250000
O O7 0.663509 0.759697 0.201320
O O8 0.685970 0.720123 0.355583
O O9 0.386961 0.000000 0.250000
O O10 0.348513 0.000596 0.391240
O O11 0.403130 0.760773 0.122320
O O12 0.342111 0.777268 0.000000
O O13 0.948089 0.139866 0.500000
#
# Coordination Sequence:
#
# PCOD8294269 Si02
#       5
#    16  16  16  16  16
#     4   9  16  31  53  79 110 148 188 228 271 323
#     4  11  23  43  64  82 111 146 180 229 290 338
#     4  10  21  35  54  80 112 148 184 227 280 330
#     4  10  20  37  59  86 115 148 189 230 270 330
#     4   8  16  30  53  81 110 144 186 229 272 318
#
# _framework density 19.453838999999999
#
# number of rings (size 3 to 8) (size 9 to 14) (size 15 to 20)
#    0.000    2.400    0.000    4.800    0.000    0.800 
#    0.000   16.000    0.000   10.800    0.000    0.000 
#    0.000    0.000    0.000    0.000    0.000    0.000 
#
# Total GULP energy -495915.697340 kJ/mol
# GULP energy per Si atom -12397.892434 kJ/mol
# Density = 1.940956 g / cm^3
# Si number density = 19.453839 Si / 1000 Ang^3
#
#
#
# Elastic Constant Matrix: (Units=GPa)
#
#
# Indices 1 2 3 4 5 6 
#
# 1 131.4075 74.9372 68.2582 0.0000 0.0000 0.0000
# 2 74.9372 148.5668 51.9032 0.0000 0.0000 0.0000
# 3 68.2582 51.9032 82.5784 0.0000 0.0000 0.0000
# 4 0.0000 0.0000 0.0000 25.7100 0.0000 0.0000
# 5 0.0000 0.0000 0.0000 0.0000 29.9946 0.0000
# 6 0.0000 0.0000 0.0000 0.0000 0.0000 39.6333
#
#
#
# Elastic Compliance Matrix: (Units=1/GPa)
#
#
# Indices 1 2 3 4 5 6 
#
# 1 0.015121 -0.004178 -0.009873 0.000000 0.000000 0.000000
# 2 -0.004178 0.009779 -0.002693 0.000000 0.000000 0.000000
# 3 -0.009873 -0.002693 0.021963 0.000000 0.000000 0.000000
# 4 0.000000 0.000000 0.000000 0.038895 0.000000 0.000000
# 5 0.000000 0.000000 0.000000 0.000000 0.033339 0.000000
# 6 0.000000 0.000000 0.000000 0.000000 0.000000 0.025231
#
#
# Mechanical properties :
#
#
# Convention : Reuss Voigt Hill
#
# Bulk Modulus (GPa) = 74.76310 83.63889 79.20100
# Shear Modulus (GPa) = 27.43114 30.23117 28.83116
#
# Velocity S-wave (km/s) = 3.75915 3.94635 3.85389
# Velocity P-wave (km/s) = 7.57338 7.99073 7.78485
#
# Compressibility (1/GPa) = 0.01337558
#
# Stress axis : x y z
#
# Youngs Moduli (GPa) = 66.13514 102.25846 45.53092
#
# Poissons Ratio (x) = 0.42721 0.44951
# Poissons Ratio (y) = 0.27629 0.12263
# Poissons Ratio (z) = 0.65293 0.27541
#
# Static dielectric constant tensor:
#      x y z
#    x 3.855900 0.000000 0.000000 
#    y 0.000000 3.892970 0.000000 
#    z 0.000000 0.000000 3.437160 
# 
# 
# High freq. dielectric constant tensor:
#      x y z
#    x 1.754050 0.000000 0.000000 
#    y 0.000000 1.766440 0.000000 
#    z 0.000000 0.000000 1.745950 
# 
# From -- ./inp_files/28309.got.cif
#   From: 2010.03.12/outbox.cif.g09.slc.cpg/sg72_15_cif.got.tgz:28309.got - 2010.04.16 14:54:00.
