data_PCOD8294013
_publ_section_title
;
Structure prediction by ZEFSAII (Michael W. Deem and Ramdas Pophale) SiO2 
 PCOD8294013
Probable space group: I B A M
;
_chemical_formula_sum "Si O2"
_cell_formula_units_Z 116
_cell_length_a 27.761746
_cell_length_b 24.952188
_cell_length_c 9.415567
_cell_angle_alpha 90.000000
_cell_angle_beta 90.000000
_cell_angle_gamma 90.000000
_cell_volume 6522.316785
_symmetry_space_group_name_H-M "I B A M"
_symmetry_group_IT_number 72
_symmetry_cell_setting 'orthorhombic'
loop_
_space_group_symop_operation_xyz
x,y,z
-x,-y,z
x,-y,1/2-z
-x,y,1/2-z
-x,-y,-z
x,y,-z
-x,y,1/2+z
x,-y,1/2+z
1/2+x,1/2+y,1/2+z
1/2-x,1/2-y,1/2+z
1/2+x,1/2-y,-z
1/2-x,1/2+y,-z
1/2-x,1/2-y,1/2-z
1/2+x,1/2+y,1/2-z
1/2-x,1/2+y,z
1/2+x,1/2-y,z
loop_
_atom_site_type_symbol
_atom_site_label
_atom_site_fract_x
_atom_site_fract_y
_atom_site_fract_z
Si Si1 0.543129 0.395503 0.658912
Si Si2 0.634892 0.947358 0.339018
Si Si3 0.597882 0.791162 0.840008
Si Si4 0.543961 0.871714 0.660827
Si Si5 0.775421 0.202405 0.336266
Si Si6 0.130444 0.174633 0.336570
Si Si7 0.685012 0.134562 0.341874
Si Si8 0.000000 0.000000 0.250000
O O1 0.500000 0.368663 0.750000
O O2 0.536798 0.374283 0.500000
O O3 0.596085 0.375432 0.711162
O O4 0.536296 0.460716 0.662054
O O5 0.649190 0.961371 0.500000
O O6 0.586034 0.914458 0.330772
O O7 0.677792 0.912922 0.270420
O O8 0.626245 0.000000 0.250000
O O9 0.559546 0.815547 0.731024
O O10 0.598245 0.727681 0.819729
O O11 0.651163 0.814370 0.806210
O O12 0.582492 0.806674 0.000000
O O13 0.500000 0.896334 0.750000
O O14 0.528105 0.860423 0.500000
O O15 0.784886 0.220635 0.500000
O O16 0.750000 0.250000 0.250000
O O17 0.823977 0.180110 0.265884
O O18 0.740088 0.151869 0.332729
O O19 0.148148 0.168151 0.500000
O O20 0.672809 0.113140 0.500000
#
# Coordination Sequence:
#
# PCOD8294013 Si02
#       8
#    16  16  16  16  16  16  16   4
#     4   9  19  34  57  81 108 142 184 232 280 334
#     4  10  21  36  56  79 101 132 178 226 272 324
#     4   9  17  32  51  71 104 142 173 213 265 320
#     4  10  21  35  51  74 103 137 177 217 269 324
#     4  11  21  34  55  84 115 151 185 223 269 327
#     4  10  20  35  53  83 116 144 182 229 277 329
#     4   9  18  34  54  75 104 141 180 216 264 321
#     4   8  18  36  62  80 106 144 194 228 292 336
#
# _framework density 17.785091000000001
#
# number of rings (size 3 to 8) (size 9 to 14) (size 15 to 20)
#    0.414    1.931    1.379    1.448    0.000    4.690 
#    0.000    2.759    1.517    0.000    0.000    0.000 
#    0.000    0.000    0.000    0.000    0.000    0.000 
#
# Total GULP energy -718871.962969 kJ/mol
# GULP energy per Si atom -12394.344189 kJ/mol
# Density = 1.774461 g / cm^3
# Si number density = 17.785091 Si / 1000 Ang^3
#
#
#
# Elastic Constant Matrix: (Units=GPa)
#
#
# Indices 1 2 3 4 5 6 
#
# 1 94.3679 34.5094 61.0532 0.0000 0.0000 0.0000
# 2 34.5094 77.2435 42.7339 0.0000 0.0000 0.0000
# 3 61.0532 42.7339 131.9103 0.0000 0.0000 0.0000
# 4 0.0000 0.0000 0.0000 25.6704 0.0000 0.0000
# 5 0.0000 0.0000 0.0000 0.0000 33.5012 0.0000
# 6 0.0000 0.0000 0.0000 0.0000 0.0000 21.1569
#
#
#
# Elastic Compliance Matrix: (Units=1/GPa)
#
#
# Indices 1 2 3 4 5 6 
#
# 1 0.015952 -0.003706 -0.006183 0.000000 0.000000 0.000000
# 2 -0.003706 0.016634 -0.003673 0.000000 0.000000 0.000000
# 3 -0.006183 -0.003673 0.011632 0.000000 0.000000 0.000000
# 4 0.000000 0.000000 0.000000 0.038955 0.000000 0.000000
# 5 0.000000 0.000000 0.000000 0.000000 0.029850 0.000000
# 6 0.000000 0.000000 0.000000 0.000000 0.000000 0.047266
#
#
# Mechanical properties :
#
#
# Convention : Reuss Voigt Hill
#
# Bulk Modulus (GPa) = 58.49949 64.45720 61.47834
# Shear Modulus (GPa) = 25.89166 27.08072 26.48619
#
# Velocity S-wave (km/s) = 3.81964 3.90637 3.86325
# Velocity P-wave (km/s) = 7.23994 7.52776 7.38525
#
# Compressibility (1/GPa) = 0.01709417
#
# Stress axis : x y z
#
# Youngs Moduli (GPa) = 62.68760 60.11710 85.96634
#
# Poissons Ratio (x) = 0.22282 0.53149
# Poissons Ratio (y) = 0.23235 0.31579
# Poissons Ratio (z) = 0.38757 0.22083
#
# Static dielectric constant tensor:
#      x y z
#    x 3.206910 0.000000 0.000000 
#    y 0.000000 3.119150 0.000000 
#    z 0.000000 0.000000 3.503660 
# 
# 
# High freq. dielectric constant tensor:
#      x y z
#    x 1.676850 0.000000 0.000000 
#    y 0.000000 1.669320 0.000000 
#    z 0.000000 0.000000 1.697470 
# 
# From -- ./inp_files/7537.got.cif
#   From: 2010.03.12/outbox.cif.g09.slc.cpg/sg72_4_cif.got.tgz:7537.got - 2010.04.16 14:54:00.
