data_PCOD8294871
_publ_section_title
;
Structure prediction by ZEFSAII (Michael W. Deem and Ramdas Pophale) SiO2 
 PCOD8294871
Probable space group: I B A M
;
_chemical_formula_sum "Si O2"
_cell_formula_units_Z 96
_cell_length_a 9.033181
_cell_length_b 24.173198
_cell_length_c 23.125497
_cell_angle_alpha 90.000000
_cell_angle_beta 90.000000
_cell_angle_gamma 90.000000
_cell_volume 5049.703711
_symmetry_space_group_name_H-M "I B A M"
_symmetry_group_IT_number 72
_symmetry_cell_setting 'orthorhombic'
loop_
_space_group_symop_operation_xyz
x,y,z
-x,-y,z
x,-y,1/2-z
-x,y,1/2-z
-x,-y,-z
x,y,-z
-x,y,1/2+z
x,-y,1/2+z
1/2+x,1/2+y,1/2+z
1/2-x,1/2-y,1/2+z
1/2+x,1/2-y,-z
1/2-x,1/2+y,-z
1/2-x,1/2-y,1/2-z
1/2+x,1/2+y,1/2-z
1/2-x,1/2+y,z
1/2+x,1/2-y,z
loop_
_atom_site_type_symbol
_atom_site_label
_atom_site_fract_x
_atom_site_fract_y
_atom_site_fract_z
Si Si1 0.863995 0.350592 0.288995
Si Si2 0.924777 0.791727 0.689949
Si Si3 0.561092 0.818189 0.121135
Si Si4 0.341200 0.437889 0.729096
Si Si5 0.907602 0.721551 0.500000
Si Si6 0.127078 0.870869 0.624244
Si Si7 0.409007 0.671019 0.000000
O O1 0.748554 0.300941 0.297439
O O2 0.789057 0.404085 0.260697
O O3 0.000000 0.328543 0.250000
O O4 0.941673 0.361515 0.351721
O O5 0.958794 0.741866 0.647833
O O6 0.000000 0.780534 0.750000
O O7 0.988538 0.845435 0.657654
O O8 0.524960 0.811823 0.053798
O O9 0.727478 0.835156 0.135120
O O10 0.316301 0.500000 0.750000
O O11 0.500000 0.415581 0.750000
O O12 0.339856 0.429489 0.658380
O O13 0.729293 0.713814 0.500000
O O14 0.949013 0.787349 0.500000
O O15 0.092660 0.871201 0.555237
#
# Coordination Sequence:
#
# PCOD8294871 Si02
#       7
#    16  16  16  16   8  16   8
#     4  12  22  37  56  88 117 152 196 245 301 357
#     4  12  21  33  54  83 121 159 187 231 289 354
#     4  11  23  34  54  82 127 156 201 235 283 355
#     4  11  23  43  65  84 112 147 196 262 323 361
#     4  10  22  36  50  83 117 177 195 231 276 345
#     4  11  20  40  55  86 117 160 200 233 297 355
#     4  10  22  36  60  82 125 164 205 238 280 353
#
# _framework density 19.011016999999999
#
# number of rings (size 3 to 8) (size 9 to 14) (size 15 to 20)
#    0.000    0.833    6.667    1.500    2.333    2.333 
#    0.000    0.000    0.000    3.000    0.000    3.500 
#    0.000    0.000    0.000    0.000    0.000    0.000 
#
# Total GULP energy -594651.795831 kJ/mol
# GULP energy per Si atom -12388.579080 kJ/mol
# Density = 1.896775 g / cm^3
# Si number density = 19.011017 Si / 1000 Ang^3
#
#
#
# Elastic Constant Matrix: (Units=GPa)
#
#
# Indices 1 2 3 4 5 6 
#
# 1 103.3389 17.3099 50.9022 0.0000 0.0000 0.0000
# 2 17.3099 65.7006 64.7330 0.0000 0.0000 0.0000
# 3 50.9022 64.7330 160.9381 0.0000 0.0000 0.0000
# 4 0.0000 0.0000 0.0000 22.7223 0.0000 0.0000
# 5 0.0000 0.0000 0.0000 0.0000 -0.4931 0.0000
# 6 0.0000 0.0000 0.0000 0.0000 0.0000 21.4213
#
#
#
# Elastic Compliance Matrix: (Units=1/GPa)
#
#
# Indices 1 2 3 4 5 6 
#
# 1 0.011496 0.000917 -0.004005 0.000000 0.000000 0.000000
# 2 0.000917 0.025285 -0.010460 0.000000 0.000000 0.000000
# 3 -0.004005 -0.010460 0.011688 0.000000 0.000000 0.000000
# 4 0.000000 0.000000 0.000000 0.044010 0.000000 0.000000
# 5 0.000000 0.000000 0.000000 0.000000 -2.027877 0.000000
# 6 0.000000 0.000000 0.000000 0.000000 0.000000 0.046682
#
#
# Mechanical properties :
#
#
# Convention : Reuss Voigt Hill
#
# Bulk Modulus (GPa) = 46.78894 66.20752 56.49823
# Shear Modulus (GPa) = -2.69615 21.86560 9.58472
#
# Velocity S-wave (km/s) = -1.19218 3.39507 2.24780
# Velocity P-wave (km/s) = 4.77178 7.09014 6.04318
#
# Compressibility (1/GPa) = 0.02137257
#
# Stress axis : x y z
#
# Youngs Moduli (GPa) = 86.98688 39.54875 85.56042
#
# Poissons Ratio (x) = -0.03627 0.34266
# Poissons Ratio (y) = -0.07977 0.89499
# Poissons Ratio (z) = 0.34837 0.41369
#
# Static dielectric constant tensor:
#      x y z
#    x 3.892220 0.000000 0.000000 
#    y 0.000000 3.074150 0.000000 
#    z 0.000000 0.000000 4.219410 
# 
# 
# High freq. dielectric constant tensor:
#      x y z
#    x 1.754780 0.000000 0.000000 
#    y 0.000000 1.686830 0.000000 
#    z 0.000000 0.000000 1.752480 
# 
# From -- ./inp_files/42497.got.cif
#   From: 2010.03.12/outbox.cif.g09.slc.cpg/sg72_22_cif.got.tgz:42497.got - 2010.04.16 14:54:00.
