data_PCOD8294727
_publ_section_title
;
Structure prediction by ZEFSAII (Michael W. Deem and Ramdas Pophale) SiO2 
 PCOD8294727
Probable space group: I B A M
;
_chemical_formula_sum "Si O2"
_cell_formula_units_Z 116
_cell_length_a 13.646418
_cell_length_b 17.727581
_cell_length_c 22.992937
_cell_angle_alpha 90.000000
_cell_angle_beta 90.000000
_cell_angle_gamma 90.000000
_cell_volume 5562.404884
_symmetry_space_group_name_H-M "I B A M"
_symmetry_group_IT_number 72
_symmetry_cell_setting 'orthorhombic'
loop_
_space_group_symop_operation_xyz
x,y,z
-x,-y,z
x,-y,1/2-z
-x,y,1/2-z
-x,-y,-z
x,y,-z
-x,y,1/2+z
x,-y,1/2+z
1/2+x,1/2+y,1/2+z
1/2-x,1/2-y,1/2+z
1/2+x,1/2-y,-z
1/2-x,1/2+y,-z
1/2-x,1/2-y,1/2-z
1/2+x,1/2+y,1/2-z
1/2-x,1/2+y,z
1/2+x,1/2-y,z
loop_
_atom_site_type_symbol
_atom_site_label
_atom_site_fract_x
_atom_site_fract_y
_atom_site_fract_z
Si Si1 0.713183 0.397387 0.332600
Si Si2 0.693983 0.744194 0.642654
Si Si3 0.515531 0.580978 0.114354
Si Si4 0.657817 0.153665 0.567780
Si Si5 0.658780 0.034209 0.660122
Si Si6 0.354532 0.606346 0.793400
Si Si7 0.475634 0.740991 0.934688
Si Si8 0.500000 0.000000 0.750000
O O1 0.739250 0.309673 0.332076
O O2 0.632759 0.412135 0.381432
O O3 0.813412 0.445113 0.344382
O O4 0.652734 0.416294 0.273863
O O5 0.745672 0.688143 0.596693
O O6 0.655029 0.696617 0.697855
O O7 0.602306 0.779665 0.608221
O O8 0.500000 0.500000 0.082835
O O9 0.454992 0.578871 0.175811
O O10 0.479622 0.650864 0.075806
O O11 0.675352 0.135289 0.500000
O O12 0.626688 0.074926 0.599875
O O13 0.577507 0.218132 0.577335
O O14 0.760694 0.069315 0.677908
O O15 0.571976 0.048292 0.707595
O O16 0.440540 0.755249 0.000000
#
# Coordination Sequence:
#
# PCOD8294727 Si02
#       8
#    16  16  16  16  16  16  16   4
#     4  12  21  39  60  95 127 161 210 255 314 386
#     4  10  22  38  63  89 122 162 211 258 308 373
#     4  11  22  37  63  93 127 161 201 259 319 386
#     4  10  22  44  64  86 122 164 213 261 316 378
#     4  11  24  39  63  91 125 170 209 257 319 375
#     4  10  21  39  59  90 127 166 201 252 316 379
#     4  10  22  42  64  87 119 165 212 262 317 369
#     4  12  24  44  62  90 128 168 210 254 320 374
#
# _framework density 20.854289000000001
#
# number of rings (size 3 to 8) (size 9 to 14) (size 15 to 20)
#    0.000    1.379    4.138    1.241    1.931    0.828 
#    0.000    2.414    0.000    0.000    0.000    0.000 
#    0.000    0.000    0.000    0.000    0.000    0.000 
#
# Total GULP energy -718737.573179 kJ/mol
# GULP energy per Si atom -12392.027124 kJ/mol
# Density = 2.080682 g / cm^3
# Si number density = 20.854289 Si / 1000 Ang^3
#
#
#
# Elastic Constant Matrix: (Units=GPa)
#
#
# Indices 1 2 3 4 5 6 
#
# 1 70.3966 21.3364 6.0938 0.0000 0.0000 0.0000
# 2 21.3364 90.7182 22.1648 0.0000 0.0000 0.0000
# 3 6.0938 22.1648 64.7615 0.0000 0.0000 0.0000
# 4 0.0000 0.0000 0.0000 27.2358 0.0000 0.0000
# 5 0.0000 0.0000 0.0000 0.0000 25.7483 0.0000
# 6 0.0000 0.0000 0.0000 0.0000 0.0000 25.7822
#
#
#
# Elastic Compliance Matrix: (Units=1/GPa)
#
#
# Indices 1 2 3 4 5 6 
#
# 1 0.015299 -0.003543 -0.000227 0.000000 0.000000 0.000000
# 2 -0.003543 0.012849 -0.004064 0.000000 0.000000 0.000000
# 3 -0.000227 -0.004064 0.016854 0.000000 0.000000 0.000000
# 4 0.000000 0.000000 0.000000 0.036716 0.000000 0.000000
# 5 0.000000 0.000000 0.000000 0.000000 0.038838 0.000000
# 6 0.000000 0.000000 0.000000 0.000000 0.000000 0.038786
#
#
# Mechanical properties :
#
#
# Convention : Reuss Voigt Hill
#
# Bulk Modulus (GPa) = 34.09072 36.11847 35.10460
# Shear Modulus (GPa) = 27.05803 27.50536 27.28169
#
# Velocity S-wave (km/s) = 3.60596 3.63565 3.62084
# Velocity P-wave (km/s) = 5.80688 5.91447 5.86092
#
# Compressibility (1/GPa) = 0.02933349
#
# Stress axis : x y z
#
# Youngs Moduli (GPa) = 65.36535 77.82462 59.33420
#
# Poissons Ratio (x) = 0.27571 0.01347
# Poissons Ratio (y) = 0.23157 0.24116
# Poissons Ratio (z) = 0.01484 0.31631
#
# Static dielectric constant tensor:
#      x y z
#    x 3.864250 0.000000 0.000000 
#    y 0.000000 4.046980 0.000000 
#    z 0.000000 0.000000 3.716890 
# 
# 
# High freq. dielectric constant tensor:
#      x y z
#    x 1.825110 0.000000 0.000000 
#    y 0.000000 1.816080 0.000000 
#    z 0.000000 0.000000 1.795200 
# 
# From -- ./inp_files/44538.got.cif
#   From: 2010.03.12/outbox.cif.g09.slc.cpg/sg72_23_cif.got.tgz:44538.got - 2010.04.16 14:54:00.
