data_PCOD8294614
_publ_section_title
;
Structure prediction by ZEFSAII (Michael W. Deem and Ramdas Pophale) SiO2 
 PCOD8294614
Probable space group: I B A M
;
_chemical_formula_sum "Si O2"
_cell_formula_units_Z 116
_cell_length_a 21.464218
_cell_length_b 31.158339
_cell_length_c 8.855690
_cell_angle_alpha 90.000000
_cell_angle_beta 90.000000
_cell_angle_gamma 90.000000
_cell_volume 5922.591432
_symmetry_space_group_name_H-M "I B A M"
_symmetry_group_IT_number 72
_symmetry_cell_setting 'orthorhombic'
loop_
_space_group_symop_operation_xyz
x,y,z
-x,-y,z
x,-y,1/2-z
-x,y,1/2-z
-x,-y,-z
x,y,-z
-x,y,1/2+z
x,-y,1/2+z
1/2+x,1/2+y,1/2+z
1/2-x,1/2-y,1/2+z
1/2+x,1/2-y,-z
1/2-x,1/2+y,-z
1/2-x,1/2-y,1/2-z
1/2+x,1/2+y,1/2-z
1/2-x,1/2+y,z
1/2+x,1/2-y,z
loop_
_atom_site_type_symbol
_atom_site_label
_atom_site_fract_x
_atom_site_fract_y
_atom_site_fract_z
Si Si1 0.725312 0.043692 0.177706
Si Si2 0.435483 0.455014 0.677549
Si Si3 0.000000 0.500000 0.750000
Si Si4 0.665019 0.781334 0.324900
Si Si5 0.100776 0.436052 0.666553
Si Si6 0.306984 0.694999 0.675077
Si Si7 0.064055 0.658673 0.177730
Si Si8 0.820974 0.894393 0.822998
O O1 0.652343 0.047930 0.215600
O O2 0.761914 0.084441 0.241313
O O3 0.752461 0.000000 0.250000
O O4 0.734148 0.041098 0.000000
O O5 0.414713 0.500000 0.750000
O O6 0.500000 0.438741 0.750000
O O7 0.444635 0.461446 0.500000
O O8 0.383220 0.420327 0.715931
O O9 0.955861 0.530467 0.650478
O O10 0.648123 0.776804 0.500000
O O11 0.657222 0.735200 0.247116
O O12 0.733584 0.800066 0.300445
O O13 0.619902 0.814220 0.244621
O O14 0.131323 0.431631 0.500000
O O15 0.074767 0.390667 0.723471
O O16 0.324711 0.691746 0.500000
O O17 0.330930 0.653107 0.760778
O O18 0.000000 0.675041 0.250000
O O19 0.060861 0.665391 0.000000
O O20 0.807132 0.893069 0.000000
#
# Coordination Sequence:
#
# PCOD8294614 Si02
#       8
#    16  16   4  16  16  16  16  16
#     4  12  25  39  58  84 118 159 203 251 301 352
#     4  10  21  37  60  87 117 156 196 236 282 339
#     4  12  22  40  64  86 118 164 212 252 306 352
#     4  10  21  39  62  88 117 151 192 240 293 353
#     4  11  24  40  60  86 118 160 207 255 302 354
#     4  10  21  38  63  92 118 151 190 237 295 352
#     4  11  23  39  59  86 117 153 197 245 296 351
#     4  11  23  39  60  89 123 156 194 242 296 352
#
# _framework density 19.586020999999999
#
# number of rings (size 3 to 8) (size 9 to 14) (size 15 to 20)
#    0.000    1.241    1.379    5.172    0.000    8.828 
#    0.000    0.690    0.000    1.655    0.000    0.000 
#    0.000    0.000    0.000    0.000    0.000    0.000 
#
# Total GULP energy -719514.059139 kJ/mol
# GULP energy per Si atom -12405.414813 kJ/mol
# Density = 1.954144 g / cm^3
# Si number density = 19.586021 Si / 1000 Ang^3
#
#
#
# Elastic Constant Matrix: (Units=GPa)
#
#
# Indices 1 2 3 4 5 6 
#
# 1 80.6824 60.0135 51.0276 0.0000 0.0000 0.0000
# 2 60.0135 138.3818 63.9483 0.0000 0.0000 0.0000
# 3 51.0276 63.9483 137.2822 0.0000 0.0000 0.0000
# 4 0.0000 0.0000 0.0000 32.6725 0.0000 0.0000
# 5 0.0000 0.0000 0.0000 0.0000 30.5107 0.0000
# 6 0.0000 0.0000 0.0000 0.0000 0.0000 25.0767
#
#
#
# Elastic Compliance Matrix: (Units=1/GPa)
#
#
# Indices 1 2 3 4 5 6 
#
# 1 0.020154 -0.006726 -0.004358 0.000000 0.000000 0.000000
# 2 -0.006726 0.011454 -0.002835 0.000000 0.000000 0.000000
# 3 -0.004358 -0.002835 0.010225 0.000000 0.000000 0.000000
# 4 0.000000 0.000000 0.000000 0.030607 0.000000 0.000000
# 5 0.000000 0.000000 0.000000 0.000000 0.032775 0.000000
# 6 0.000000 0.000000 0.000000 0.000000 0.000000 0.039878
#
#
# Mechanical properties :
#
#
# Convention : Reuss Voigt Hill
#
# Bulk Modulus (GPa) = 71.46265 78.48059 74.97162
# Shear Modulus (GPa) = 28.15398 29.74246 28.94822
#
# Velocity S-wave (km/s) = 3.79549 3.90109 3.84865
# Velocity P-wave (km/s) = 7.46816 7.77483 7.62304
#
# Compressibility (1/GPa) = 0.01399332
#
# Stress axis : x y z
#
# Youngs Moduli (GPa) = 49.61879 87.30842 97.80257
#
# Poissons Ratio (x) = 0.58728 0.42620
# Poissons Ratio (y) = 0.33376 0.27728
# Poissons Ratio (z) = 0.21623 0.24753
#
# Static dielectric constant tensor:
#      x y z
#    x 3.482250 0.000000 0.000000 
#    y 0.000000 3.649350 0.000000 
#    z 0.000000 0.000000 3.636110 
# 
# 
# High freq. dielectric constant tensor:
#      x y z
#    x 1.756460 0.000000 0.000000 
#    y 0.000000 1.769800 0.000000 
#    z 0.000000 0.000000 1.777480 
# 
# From -- ./inp_files/7538.got.cif
#   From: 2010.03.12/outbox.cif.g09.slc.cpg/sg72_4_cif.got.tgz:7538.got - 2010.04.16 14:54:00.
