data_PCOD8294001
_publ_section_title
;
Structure prediction by ZEFSAII (Michael W. Deem and Ramdas Pophale) SiO2 
 PCOD8294001
Probable space group: I B A M
;
_chemical_formula_sum "Si O2"
_cell_formula_units_Z 116
_cell_length_a 31.057504
_cell_length_b 22.132824
_cell_length_c 9.105985
_cell_angle_alpha 90.000000
_cell_angle_beta 90.000000
_cell_angle_gamma 90.000000
_cell_volume 6259.365487
_symmetry_space_group_name_H-M "I B A M"
_symmetry_group_IT_number 72
_symmetry_cell_setting 'orthorhombic'
loop_
_space_group_symop_operation_xyz
x,y,z
-x,-y,z
x,-y,1/2-z
-x,y,1/2-z
-x,-y,-z
x,y,-z
-x,y,1/2+z
x,-y,1/2+z
1/2+x,1/2+y,1/2+z
1/2-x,1/2-y,1/2+z
1/2+x,1/2-y,-z
1/2-x,1/2+y,-z
1/2-x,1/2-y,1/2-z
1/2+x,1/2+y,1/2-z
1/2-x,1/2+y,z
1/2+x,1/2-y,z
loop_
_atom_site_type_symbol
_atom_site_label
_atom_site_fract_x
_atom_site_fract_y
_atom_site_fract_z
Si Si1 0.659103 0.560090 0.174362
Si Si2 0.306771 0.209798 0.668860
Si Si3 0.500000 0.500000 0.750000
Si Si4 0.933053 0.096422 0.163960
Si Si5 0.456782 0.727322 0.325139
Si Si6 0.400683 0.177368 0.331140
Si Si7 0.955254 0.438798 0.325826
Si Si8 0.214339 0.172416 0.327881
O O1 0.676579 0.500000 0.250000
O O2 0.611092 0.573776 0.239074
O O3 0.691781 0.611668 0.227741
O O4 0.658681 0.551385 0.000000
O O5 0.301856 0.228230 0.500000
O O6 0.349560 0.170536 0.696373
O O7 0.264747 0.171593 0.718862
O O8 0.310569 0.271534 0.758029
O O9 0.469327 0.544166 0.656965
O O10 0.949334 0.158921 0.236661
O O11 0.920352 0.114411 0.000000
O O12 0.500000 0.752478 0.250000
O O13 0.461725 0.730147 0.500000
O O14 0.417995 0.769889 0.273854
O O15 0.410744 0.194668 0.500000
O O16 0.421067 0.113172 0.290442
O O17 0.937911 0.500000 0.250000
O O18 0.961814 0.448451 0.500000
O O19 0.000000 0.419947 0.250000
O O20 0.208296 0.178668 0.500000
#
# Coordination Sequence:
#
# PCOD8294001 Si02
#       8
#    16  16   4  16  16  16  16  16
#     4  10  20  35  52  74 102 135 174 216 263 311
#     4   9  18  34  56  80 104 134 171 212 262 317
#     4  12  18  36  52  66 100 140 184 220 258 304
#     4  10  21  34  50  72 101 139 181 222 263 308
#     4  11  22  36  53  77 108 142 181 223 267 312
#     4  10  21  36  54  80 110 139 173 216 265 316
#     4  10  20  35  55  77 104 137 174 211 251 307
#     4   9  18  34  56  78 104 135 170 216 266 314
#
# _framework density 18.532229999999998
#
# number of rings (size 3 to 8) (size 9 to 14) (size 15 to 20)
#    0.000    2.069    1.379    2.690    0.000    4.414 
#    0.000    2.069    0.000    0.000    0.000    0.000 
#    0.000    0.000    0.000    0.000    0.000    0.000 
#
# Total GULP energy -719096.146041 kJ/mol
# GULP energy per Si atom -12398.209414 kJ/mol
# Density = 1.849005 g / cm^3
# Si number density = 18.532230 Si / 1000 Ang^3
#
#
#
# Elastic Constant Matrix: (Units=GPa)
#
#
# Indices 1 2 3 4 5 6 
#
# 1 127.0185 83.3286 34.5809 0.0000 0.0000 0.0000
# 2 83.3286 136.3431 40.3840 0.0000 0.0000 0.0000
# 3 34.5809 40.3840 54.6475 0.0000 0.0000 0.0000
# 4 0.0000 0.0000 0.0000 28.1022 0.0000 0.0000
# 5 0.0000 0.0000 0.0000 0.0000 21.5632 0.0000
# 6 0.0000 0.0000 0.0000 0.0000 0.0000 28.5444
#
#
#
# Elastic Compliance Matrix: (Units=1/GPa)
#
#
# Indices 1 2 3 4 5 6 
#
# 1 0.013551 -0.007351 -0.003143 0.000000 0.000000 0.000000
# 2 -0.007351 0.013378 -0.005234 0.000000 0.000000 0.000000
# 3 -0.003143 -0.005234 0.024156 0.000000 0.000000 0.000000
# 4 0.000000 0.000000 0.000000 0.035584 0.000000 0.000000
# 5 0.000000 0.000000 0.000000 0.000000 0.046375 0.000000
# 6 0.000000 0.000000 0.000000 0.000000 0.000000 0.035033
#
#
# Mechanical properties :
#
#
# Convention : Reuss Voigt Hill
#
# Bulk Modulus (GPa) = 50.94629 70.51066 60.72847
# Shear Modulus (GPa) = 24.26292 26.28967 25.27629
#
# Velocity S-wave (km/s) = 3.62225 3.77051 3.69712
# Velocity P-wave (km/s) = 6.71153 7.55551 7.14599
#
# Compressibility (1/GPa) = 0.01962852
#
# Stress axis : x y z
#
# Youngs Moduli (GPa) = 73.79487 74.75224 41.39813
#
# Poissons Ratio (x) = 0.54951 0.13010
# Poissons Ratio (y) = 0.54248 0.21668
# Poissons Ratio (z) = 0.23191 0.39126
#
# Static dielectric constant tensor:
#      x y z
#    x 3.556430 0.000000 0.000000 
#    y 0.000000 3.421830 0.000000 
#    z 0.000000 0.000000 3.250250 
# 
# 
# High freq. dielectric constant tensor:
#      x y z
#    x 1.723010 0.000000 0.000000 
#    y 0.000000 1.716530 0.000000 
#    z 0.000000 0.000000 1.707230 
# 
# From -- ./inp_files/7508.got.cif
#   From: 2010.03.12/outbox.cif.g09.slc.cpg/sg72_4_cif.got.tgz:7508.got - 2010.04.16 14:54:00.
