data_PCOD8294289
_publ_section_title
;
Structure prediction by ZEFSAII (Michael W. Deem and Ramdas Pophale) SiO2 
 PCOD8294289
Probable space group: I B A M
;
_chemical_formula_sum "Si O2"
_cell_formula_units_Z 68
_cell_length_a 18.411668
_cell_length_b 10.013731
_cell_length_c 18.776768
_cell_angle_alpha 90.000000
_cell_angle_beta 90.000000
_cell_angle_gamma 90.000000
_cell_volume 3461.863152
_symmetry_space_group_name_H-M "I B A M"
_symmetry_group_IT_number 72
_symmetry_cell_setting 'orthorhombic'
loop_
_space_group_symop_operation_xyz
x,y,z
-x,-y,z
x,-y,1/2-z
-x,y,1/2-z
-x,-y,-z
x,y,-z
-x,y,1/2+z
x,-y,1/2+z
1/2+x,1/2+y,1/2+z
1/2-x,1/2-y,1/2+z
1/2+x,1/2-y,-z
1/2-x,1/2+y,-z
1/2-x,1/2-y,1/2-z
1/2+x,1/2+y,1/2-z
1/2-x,1/2+y,z
1/2+x,1/2-y,z
loop_
_atom_site_type_symbol
_atom_site_label
_atom_site_fract_x
_atom_site_fract_y
_atom_site_fract_z
Si Si1 0.582378 0.484526 0.584510
Si Si2 0.633197 0.039016 0.176314
Si Si3 0.000000 0.500000 0.750000
Si Si4 0.352474 0.205180 0.081062
Si Si5 0.182934 0.774168 0.581092
O O1 0.500000 0.500000 0.613998
O O2 0.582225 0.485978 0.500000
O O3 0.619679 0.347576 0.611217
O O4 0.632513 0.606994 0.611191
O O5 0.675801 0.146155 0.130909
O O6 0.676811 0.000000 0.250000
O O7 0.553294 0.092495 0.201162
O O8 0.614246 0.908760 0.129936
O O9 0.266212 0.184810 0.084726
O O10 0.379630 0.186918 0.000000
O O11 0.161142 0.736157 0.500000
#
# Coordination Sequence:
#
# PCOD8294289 Si02
#       5
#    16  16   4  16  16
#     4   9  19  32  52  83 115 140 180 239 296 344
#     4  10  22  38  58  78 119 155 197 235 283 339
#     4   8  24  40  50  78 124 156 200 246 268 340
#     4  10  20  37  61  87 113 148 194 245 299 354
#     4  10  20  37  61  87 113 148 194 245 299 354
#
# _framework density 19.642603000000001
#
# number of rings (size 3 to 8) (size 9 to 14) (size 15 to 20)
#    0.706    1.647    0.000    2.118    3.294    4.706 
#    0.000    2.353    0.000    2.824    0.000    0.000 
#    0.000    0.000    0.000    0.000    0.000    0.000 
#
# Total GULP energy -421257.061912 kJ/mol
# GULP energy per Si atom -12389.913586 kJ/mol
# Density = 1.959790 g / cm^3
# Si number density = 19.642603 Si / 1000 Ang^3
#
#
#
# Elastic Constant Matrix: (Units=GPa)
#
#
# Indices 1 2 3 4 5 6 
#
# 1 94.6477 31.7945 16.7828 0.0000 0.0000 0.0000
# 2 31.7945 128.6008 50.4742 0.0000 0.0000 0.0000
# 3 16.7828 50.4742 83.8831 0.0000 0.0000 0.0000
# 4 0.0000 0.0000 0.0000 3.6863 0.0000 0.0000
# 5 0.0000 0.0000 0.0000 0.0000 12.8164 0.0000
# 6 0.0000 0.0000 0.0000 0.0000 0.0000 34.6011
#
#
#
# Elastic Compliance Matrix: (Units=1/GPa)
#
#
# Indices 1 2 3 4 5 6 
#
# 1 0.011561 -0.002553 -0.000777 0.000000 0.000000 0.000000
# 2 -0.002553 0.010744 -0.005954 0.000000 0.000000 0.000000
# 3 -0.000777 -0.005954 0.015659 0.000000 0.000000 0.000000
# 4 0.000000 0.000000 0.000000 0.271272 0.000000 0.000000
# 5 0.000000 0.000000 0.000000 0.000000 0.078025 0.000000
# 6 0.000000 0.000000 0.000000 0.000000 0.000000 0.028901
#
#
# Mechanical properties :
#
#
# Convention : Reuss Voigt Hill
#
# Bulk Modulus (GPa) = 51.55628 56.13720 53.84674
# Shear Modulus (GPa) = 11.33281 24.09277 17.71279
#
# Velocity S-wave (km/s) = 2.40459 3.50602 3.00618
# Velocity P-wave (km/s) = 5.83211 6.71051 6.28667
#
# Compressibility (1/GPa) = 0.01939628
#
# Stress axis : x y z
#
# Youngs Moduli (GPa) = 86.49793 93.07314 63.85920
#
# Poissons Ratio (x) = 0.23766 0.04959
# Poissons Ratio (y) = 0.22087 0.38023
# Poissons Ratio (z) = 0.06717 0.55417
#
# Static dielectric constant tensor:
#      x y z
#    x 3.561990 0.000000 0.000000 
#    y 0.000000 3.476400 0.000000 
#    z 0.000000 0.000000 3.481660 
# 
# 
# High freq. dielectric constant tensor:
#      x y z
#    x 1.764200 0.000000 0.000000 
#    y 0.000000 1.756570 0.000000 
#    z 0.000000 0.000000 1.744980 
# 
# From -- ./inp_files/38703.got.cif
#   From: 2010.03.12/outbox.cif.g09.slc.cpg/sg72_20_cif.got.tgz:38703.got - 2010.04.16 14:54:00.
