data_PCOD8294785
_publ_section_title
;
Structure prediction by ZEFSAII (Michael W. Deem and Ramdas Pophale) SiO2 
 PCOD8294785
Probable space group: I B A M
;
_chemical_formula_sum "Si O2"
_cell_formula_units_Z 96
_cell_length_a 9.691304
_cell_length_b 24.904320
_cell_length_c 19.326080
_cell_angle_alpha 90.000000
_cell_angle_beta 90.000000
_cell_angle_gamma 90.000000
_cell_volume 4664.452533
_symmetry_space_group_name_H-M "I B A M"
_symmetry_group_IT_number 72
_symmetry_cell_setting 'orthorhombic'
loop_
_space_group_symop_operation_xyz
x,y,z
-x,-y,z
x,-y,1/2-z
-x,y,1/2-z
-x,-y,-z
x,y,-z
-x,y,1/2+z
x,-y,1/2+z
1/2+x,1/2+y,1/2+z
1/2-x,1/2-y,1/2+z
1/2+x,1/2-y,-z
1/2-x,1/2+y,-z
1/2-x,1/2-y,1/2-z
1/2+x,1/2+y,1/2-z
1/2-x,1/2+y,z
1/2+x,1/2-y,z
loop_
_atom_site_type_symbol
_atom_site_label
_atom_site_fract_x
_atom_site_fract_y
_atom_site_fract_z
Si Si1 0.726063 0.481637 0.581227
Si Si2 0.053715 0.080525 0.080616
Si Si3 0.721461 0.749701 0.858533
Si Si4 0.348506 0.050922 0.283413
Si Si5 0.837231 0.668438 0.757851
Si Si6 0.539984 0.301065 0.077876
O O1 0.771972 0.477496 0.500000
O O2 0.682459 0.542528 0.603024
O O3 0.592826 0.445641 0.596907
O O4 0.846319 0.459330 0.632593
O O5 0.057863 0.140165 0.113588
O O6 0.072219 0.087937 0.000000
O O7 0.795182 0.697109 0.828712
O O8 0.728694 0.799204 0.805194
O O9 0.566881 0.735020 0.879135
O O10 0.813568 0.770205 0.922616
O O11 0.500000 0.050818 0.250000
O O12 0.278330 0.107537 0.263017
O O13 0.266407 0.000000 0.250000
O O14 0.000000 0.667334 0.750000
O O15 0.484447 0.306251 0.000000
#
# Coordination Sequence:
#
# PCOD8294785 Si02
#       6
#    16  16  16  16  16  16
#     4   9  17  36  62  88 117 160 202 247 311 375
#     4   8  17  33  59  89 120 150 194 254 308 362
#     4  11  22  38  62  86 117 166 206 246 310 370
#     4  10  22  38  58  84 123 160 197 255 306 354
#     4  10  21  40  60  82 116 163 208 251 301 371
#     4  11  22  37  59  92 125 156 202 258 305 365
#
# _framework density 20.581192999999999
#
# number of rings (size 3 to 8) (size 9 to 14) (size 15 to 20)
#    0.000    2.167    1.667    2.500    2.333    0.000 
#    0.000    4.167    0.000    0.000    0.000    0.000 
#    0.000    0.000    0.000    0.000    0.000    0.000 
#
# Total GULP energy -594657.187711 kJ/mol
# GULP energy per Si atom -12388.691411 kJ/mol
# Density = 2.053435 g / cm^3
# Si number density = 20.581193 Si / 1000 Ang^3
#
#
#
# Elastic Constant Matrix: (Units=GPa)
#
#
# Indices 1 2 3 4 5 6 
#
# 1 66.1371 36.5332 24.0829 0.0000 0.0000 0.0000
# 2 36.5332 183.1508 47.0713 0.0000 0.0000 0.0000
# 3 24.0829 47.0713 87.4050 -0.0001 0.0000 0.0000
# 4 0.0000 0.0000 -0.0001 20.6580 0.0000 0.0000
# 5 0.0000 0.0000 0.0000 0.0000 23.1037 0.0000
# 6 0.0000 0.0000 0.0000 0.0000 0.0000 18.0125
#
#
#
# Elastic Compliance Matrix: (Units=1/GPa)
#
#
# Indices 1 2 3 4 5 6 
#
# 1 0.017863 -0.002667 -0.003485 0.000000 0.000000 0.000000
# 2 -0.002667 0.006735 -0.002892 0.000000 0.000000 0.000000
# 3 -0.003485 -0.002892 0.013959 0.000000 0.000000 0.000000
# 4 0.000000 0.000000 0.000000 0.048407 0.000000 0.000000
# 5 0.000000 0.000000 0.000000 0.000000 0.043283 0.000000
# 6 0.000000 0.000000 0.000000 0.000000 0.000000 0.055517
#
#
# Mechanical properties :
#
#
# Convention : Reuss Voigt Hill
#
# Bulk Modulus (GPa) = 48.85901 61.34086 55.09994
# Shear Modulus (GPa) = 23.73305 27.62188 25.67747
#
# Velocity S-wave (km/s) = 3.39948 3.66743 3.53600
# Velocity P-wave (km/s) = 6.26097 6.91393 6.59554
#
# Compressibility (1/GPa) = 0.02046706
#
# Stress axis : x y z
#
# Youngs Moduli (GPa) = 55.98292 148.46941 71.63865
#
# Poissons Ratio (x) = 0.39602 0.24968
# Poissons Ratio (y) = 0.14932 0.20720
# Poissons Ratio (z) = 0.19511 0.42943
#
# Static dielectric constant tensor:
#      x y z
#    x 3.403730 0.000000 0.000000 
#    y 0.000000 4.776590 0.000000 
#    z 0.000000 0.000000 3.560810 
# 
# 
# High freq. dielectric constant tensor:
#      x y z
#    x 1.774420 0.000000 0.000000 
#    y 0.000000 1.829710 0.000000 
#    z 0.000000 0.000000 1.789540 
# 
# From -- ./inp_files/36012.got.cif
#   From: 2010.03.12/outbox.cif.g09.slc.cpg/sg72_19_cif.got.tgz:36012.got - 2010.04.16 14:54:00.
