data_PCOD8294926
_publ_section_title
;
Structure prediction by ZEFSAII (Michael W. Deem and Ramdas Pophale) SiO2 
 PCOD8294926
Probable space group: I B A M
;
_chemical_formula_sum "Si O2"
_cell_formula_units_Z 64
_cell_length_a 8.946419
_cell_length_b 21.037014
_cell_length_c 15.881405
_cell_angle_alpha 90.000000
_cell_angle_beta 90.000000
_cell_angle_gamma 90.000000
_cell_volume 2988.974784
_symmetry_space_group_name_H-M "I B A M"
_symmetry_group_IT_number 72
_symmetry_cell_setting 'orthorhombic'
loop_
_space_group_symop_operation_xyz
x,y,z
-x,-y,z
x,-y,1/2-z
-x,y,1/2-z
-x,-y,-z
x,y,-z
-x,y,1/2+z
x,-y,1/2+z
1/2+x,1/2+y,1/2+z
1/2-x,1/2-y,1/2+z
1/2+x,1/2-y,-z
1/2-x,1/2+y,-z
1/2-x,1/2-y,1/2-z
1/2+x,1/2+y,1/2-z
1/2-x,1/2+y,z
1/2+x,1/2-y,z
loop_
_atom_site_type_symbol
_atom_site_label
_atom_site_fract_x
_atom_site_fract_y
_atom_site_fract_z
Si Si1 0.434482 0.690750 0.842571
Si Si2 0.115336 0.305596 0.405584
Si Si3 0.068279 0.437268 0.342749
Si Si4 0.106681 0.943049 0.402066
O O1 0.500000 0.694323 0.750000
O O2 0.254836 0.699760 0.841498
O O3 0.503321 0.747417 0.896918
O O4 0.478119 0.623550 0.885133
O O5 0.180331 0.307311 0.500000
O O6 0.025478 0.371520 0.389305
O O7 0.247440 0.445435 0.343092
O O8 0.000000 0.500000 0.388558
O O9 0.000000 0.433411 0.250000
O O10 0.152232 0.948663 0.500000
O O11 0.000000 0.000000 0.373935
#
# Coordination Sequence:
#
# PCOD8294926 Si02
#       4
#    16  16  16  16
#     4  11  23  39  62  90 122 157 200 252 304 360
#     4  11  23  41  62  87 122 160 203 250 301 362
#     4  10  22  39  61  91 125 159 201 250 304 363
#     4  10  23  43  65  91 124 162 206 254 305 363
#
# _framework density 21.412025
#
# number of rings (size 3 to 8) (size 9 to 14) (size 15 to 20)
#    0.000    1.500    0.000    6.000    0.000   14.500 
#    0.000    2.500    0.000    0.000    0.000    0.000 
#    0.000    0.000    0.000    0.000    0.000    0.000 
#
# Total GULP energy -396764.798549 kJ/mol
# GULP energy per Si atom -12398.899955 kJ/mol
# Density = 2.136329 g / cm^3
# Si number density = 21.412025 Si / 1000 Ang^3
#
#
#
# Elastic Constant Matrix: (Units=GPa)
#
#
# Indices 1 2 3 4 5 6 
#
# 1 92.1024 80.0652 46.0071 0.0000 0.0000 0.0000
# 2 80.0652 226.9013 30.5822 0.0000 0.0000 0.0000
# 3 46.0071 30.5822 105.8145 0.0000 0.0000 0.0000
# 4 0.0000 0.0000 0.0000 31.6888 0.0000 0.0000
# 5 0.0000 0.0000 0.0000 0.0000 31.5284 0.0000
# 6 0.0000 0.0000 0.0000 0.0000 0.0000 45.6903
#
#
#
# Elastic Compliance Matrix: (Units=1/GPa)
#
#
# Indices 1 2 3 4 5 6 
#
# 1 0.019359 -0.005928 -0.006704 0.000000 0.000000 0.000000
# 2 -0.005928 0.006401 0.000727 0.000000 0.000000 0.000000
# 3 -0.006704 0.000727 0.012155 0.000000 0.000000 0.000000
# 4 0.000000 0.000000 0.000000 0.031557 0.000000 0.000000
# 5 0.000000 0.000000 0.000000 0.000000 0.031717 0.000000
# 6 0.000000 0.000000 0.000000 0.000000 0.000000 0.021886
#
#
# Mechanical properties :
#
#
# Convention : Reuss Voigt Hill
#
# Bulk Modulus (GPa) = 70.88899 82.01413 76.45156
# Shear Modulus (GPa) = 32.98450 39.65910 36.32180
#
# Velocity S-wave (km/s) = 3.92914 4.30837 4.12312
# Velocity P-wave (km/s) = 7.33233 7.94578 7.64521
#
# Compressibility (1/GPa) = 0.01410656
#
# Stress axis : x y z
#
# Youngs Moduli (GPa) = 51.65532 156.23080 82.26985
#
# Poissons Ratio (x) = 0.92606 0.55153
# Poissons Ratio (y) = 0.30619 -0.05983
# Poissons Ratio (z) = 0.34630 -0.11363
#
# Static dielectric constant tensor:
#      x y z
#    x 3.694540 0.000000 0.000000 
#    y 0.000000 4.575330 0.000000 
#    z 0.000000 0.000000 3.666340 
# 
# 
# High freq. dielectric constant tensor:
#      x y z
#    x 1.823950 0.000000 0.000000 
#    y 0.000000 1.872210 0.000000 
#    z 0.000000 0.000000 1.832370 
# 
# From -- ./inp_files/18650.got.cif
#   From: 2010.03.12/outbox.cif.g09.slc.cpg/sg72_10_cif.got.tgz:18650.got - 2010.04.16 14:54:00.
