data_PCOD8294366
_publ_section_title
;
Structure prediction by ZEFSAII (Michael W. Deem and Ramdas Pophale) SiO2 
 PCOD8294366
Probable space group: I B A M
;
_chemical_formula_sum "Si O2"
_cell_formula_units_Z 80
_cell_length_a 18.170224
_cell_length_b 25.449178
_cell_length_c 8.481054
_cell_angle_alpha 90.000000
_cell_angle_beta 90.000000
_cell_angle_gamma 90.000000
_cell_volume 3921.785794
_symmetry_space_group_name_H-M "I B A M"
_symmetry_group_IT_number 72
_symmetry_cell_setting 'orthorhombic'
loop_
_space_group_symop_operation_xyz
x,y,z
-x,-y,z
x,-y,1/2-z
-x,y,1/2-z
-x,-y,-z
x,y,-z
-x,y,1/2+z
x,-y,1/2+z
1/2+x,1/2+y,1/2+z
1/2-x,1/2-y,1/2+z
1/2+x,1/2-y,-z
1/2-x,1/2+y,-z
1/2-x,1/2-y,1/2-z
1/2+x,1/2+y,1/2-z
1/2-x,1/2+y,z
1/2+x,1/2-y,z
loop_
_atom_site_type_symbol
_atom_site_label
_atom_site_fract_x
_atom_site_fract_y
_atom_site_fract_z
Si Si1 0.579994 0.343462 0.185533
Si Si2 0.418187 0.151681 0.686135
Si Si3 0.668601 0.750094 0.815445
Si Si4 0.847102 0.943849 0.313043
Si Si5 0.821139 0.444308 0.685834
O O1 0.500000 0.329978 0.250000
O O2 0.636600 0.306793 0.277649
O O3 0.600795 0.402992 0.224766
O O4 0.583479 0.332706 0.000000
O O5 0.500000 0.148463 0.750000
O O6 0.420662 0.148998 0.500000
O O7 0.380765 0.205795 0.734631
O O8 0.371500 0.102528 0.754688
O O9 0.750000 0.750000 0.750000
O O10 0.669748 0.760531 0.000000
O O11 0.857623 0.939647 0.500000
O O12 0.762722 0.933755 0.261046
O O13 0.873328 0.000000 0.250000
O O14 0.850191 0.500000 0.750000
O O15 0.826415 0.446338 0.500000
#
# Coordination Sequence:
#
# PCOD8294366 Si02
#       5
#    16  16  16  16  16
#     4  12  25  42  63  90 123 161 201 249 304 361
#     4  11  23  40  60  88 123 161 201 248 301 357
#     4  12  25  43  66  92 120 156 199 247 299 360
#     4  10  20  38  62  90 121 158 203 253 304 361
#     4   9  20  37  60  86 118 156 199 247 297 351
#
# _framework density 20.398869000000001
#
# number of rings (size 3 to 8) (size 9 to 14) (size 15 to 20)
#    0.000    1.200    0.000    6.600    0.000    4.800 
#    0.000    4.000    0.000    0.000    0.000    0.000 
#    0.000    0.000    0.000    0.000    0.000    0.000 
#
# Total GULP energy -496245.166147 kJ/mol
# GULP energy per Si atom -12406.129154 kJ/mol
# Density = 2.035244 g / cm^3
# Si number density = 20.398869 Si / 1000 Ang^3
#
#
#
# Elastic Constant Matrix: (Units=GPa)
#
#
# Indices 1 2 3 4 5 6 
#
# 1 105.8833 34.0982 27.2432 0.0000 0.0000 0.0000
# 2 34.0982 101.2684 13.6868 0.0000 0.0000 0.0000
# 3 27.2432 13.6868 65.4072 0.0000 0.0000 0.0000
# 4 0.0000 0.0000 0.0000 38.4691 0.0000 0.0000
# 5 0.0000 0.0000 0.0000 0.0000 34.5787 0.0000
# 6 0.0000 0.0000 0.0000 0.0000 0.0000 -22.4548
#
#
#
# Elastic Compliance Matrix: (Units=1/GPa)
#
#
# Indices 1 2 3 4 5 6 
#
# 1 0.011582 -0.003342 -0.004125 0.000000 0.000000 0.000000
# 2 -0.003342 0.011127 -0.000936 0.000000 0.000000 0.000000
# 3 -0.004125 -0.000936 0.017203 0.000000 0.000000 0.000000
# 4 0.000000 0.000000 0.000000 0.025995 0.000000 0.000000
# 5 0.000000 0.000000 0.000000 0.000000 0.028919 0.000000
# 6 0.000000 0.000000 0.000000 0.000000 0.000000 -0.044534
#
#
# Mechanical properties :
#
#
# Convention : Reuss Voigt Hill
#
# Bulk Modulus (GPa) = 43.28067 46.95726 45.11897
# Shear Modulus (GPa) = 66.84511 23.28733 45.06622
#
# Velocity S-wave (km/s) = 5.73063 3.38242 4.70537
# Velocity P-wave (km/s) = 8.06537 6.19063 7.18937
#
# Compressibility (1/GPa) = 0.02310500
#
# Stress axis : x y z
#
# Youngs Moduli (GPa) = 86.34124 89.87420 58.13030
#
# Poissons Ratio (x) = 0.30039 0.23977
# Poissons Ratio (y) = 0.28858 0.05442
# Poissons Ratio (z) = 0.35613 0.08414
#
# Static dielectric constant tensor:
#      x y z
#    x 3.853050 0.000000 0.000000 
#    y 0.000000 4.010050 0.000000 
#    z 0.000000 0.000000 3.744520 
# 
# 
# High freq. dielectric constant tensor:
#      x y z
#    x 1.803730 0.000000 0.000000 
#    y 0.000000 1.814190 0.000000 
#    z 0.000000 0.000000 1.806000 
# 
# From -- ./inp_files/4788.got.cif
#   From: 2010.03.12/outbox.cif.g09.slc.cpg/sg72_3_cif.got.tgz:4788.got - 2010.04.16 14:54:00.
