data_PCOD8294636
_publ_section_title
;
Structure prediction by ZEFSAII (Michael W. Deem and Ramdas Pophale) SiO2 
 PCOD8294636
Probable space group: I B A M
;
_chemical_formula_sum "Si O2"
_cell_formula_units_Z 104
_cell_length_a 9.151189
_cell_length_b 19.367389
_cell_length_c 27.547627
_cell_angle_alpha 90.000000
_cell_angle_beta 90.000000
_cell_angle_gamma 90.000000
_cell_volume 4882.393676
_symmetry_space_group_name_H-M "I B A M"
_symmetry_group_IT_number 72
_symmetry_cell_setting 'orthorhombic'
loop_
_space_group_symop_operation_xyz
x,y,z
-x,-y,z
x,-y,1/2-z
-x,y,1/2-z
-x,-y,-z
x,y,-z
-x,y,1/2+z
x,-y,1/2+z
1/2+x,1/2+y,1/2+z
1/2-x,1/2-y,1/2+z
1/2+x,1/2-y,-z
1/2-x,1/2+y,-z
1/2-x,1/2-y,1/2-z
1/2+x,1/2+y,1/2-z
1/2-x,1/2+y,z
1/2+x,1/2-y,z
loop_
_atom_site_type_symbol
_atom_site_label
_atom_site_fract_x
_atom_site_fract_y
_atom_site_fract_z
Si Si1 0.500000 0.500000 0.891312
Si Si2 0.461351 0.873222 0.943685
Si Si3 0.692285 0.620528 0.116552
Si Si4 0.763682 0.893718 0.097163
Si Si5 0.357605 0.808621 0.801318
Si Si6 0.184203 0.671380 0.194620
Si Si7 0.972395 0.211967 0.442985
O O1 0.406421 0.442710 0.863093
O O2 0.377996 0.546269 0.919712
O O3 0.325915 0.908126 0.915773
O O4 0.608609 0.911183 0.926649
O O5 0.467060 0.792366 0.930045
O O6 0.437513 0.885875 0.000000
O O7 0.745778 0.653055 0.165179
O O8 0.605516 0.676084 0.084701
O O9 0.745223 0.885856 0.156299
O O10 0.819475 0.821036 0.074888
O O11 0.306549 0.729855 0.799999
O O12 0.344490 0.850896 0.750472
O O13 0.521986 0.805949 0.823357
O O14 0.994796 0.199822 0.500000
#
# Coordination Sequence:
#
# PCOD8294636 Si02
#       7
#     8  16  16  16  16  16  16
#     4  10  28  44  58  78 116 168 216 244 286 352
#     4  11  21  36  64  95 117 147 197 253 310 368
#     4  11  22  41  60  85 124 164 199 248 295 348
#     4  11  22  41  60  85 124 164 199 248 295 348
#     4  10  21  37  63  99 129 153 188 241 307 369
#     4  10  21  37  63  99 129 153 188 241 307 369
#     4  10  21  37  61  95 127 153 190 243 312 371
#
# _framework density 21.301027999999999
#
# number of rings (size 3 to 8) (size 9 to 14) (size 15 to 20)
#    0.000    1.538    1.538    3.692    4.308    3.077 
#    0.000   16.154    0.000    1.846    0.000    0.000 
#    0.000    0.000    0.000    0.000    0.000    0.000 
#
# Total GULP energy -644231.882058 kJ/mol
# GULP energy per Si atom -12389.074655 kJ/mol
# Density = 2.125255 g / cm^3
# Si number density = 21.301028 Si / 1000 Ang^3
#
#
#
# Elastic Constant Matrix: (Units=GPa)
#
#
# Indices 1 2 3 4 5 6 
#
# 1 130.9232 19.3707 26.2199 0.0000 0.0000 0.0000
# 2 19.3707 37.9931 19.9200 0.0000 0.0000 0.0000
# 3 26.2199 19.9200 93.8409 0.0000 0.0000 0.0000
# 4 0.0000 0.0000 0.0000 24.1792 0.0000 0.0000
# 5 0.0000 0.0000 0.0000 0.0000 54.6121 0.0000
# 6 0.0000 0.0000 0.0000 0.0000 0.0000 0.2827
#
#
#
# Elastic Compliance Matrix: (Units=1/GPa)
#
#
# Indices 1 2 3 4 5 6 
#
# 1 0.008478 -0.003466 -0.001633 0.000000 0.000000 0.000000
# 2 -0.003466 0.031034 -0.005619 0.000000 0.000000 -0.000001
# 3 -0.001633 -0.005619 0.012305 0.000000 0.000000 0.000000
# 4 0.000000 0.000000 0.000000 0.041358 0.000000 0.000000
# 5 0.000000 0.000000 0.000000 0.000000 0.018311 0.000000
# 6 0.000000 -0.000001 0.000000 0.000000 0.000000 3.537244
#
#
# Mechanical properties :
#
#
# Convention : Reuss Voigt Hill
#
# Bulk Modulus (GPa) = 32.91593 43.75315 38.33454
# Shear Modulus (GPa) = 1.35859 28.96460 15.16159
#
# Velocity S-wave (km/s) = 0.79949 3.69151 2.67081
# Velocity P-wave (km/s) = 4.04210 6.22532 5.24849
#
# Compressibility (1/GPa) = 0.03038042
#
# Stress axis : x y z
#
# Youngs Moduli (GPa) = 117.95293 32.22272 81.26502
#
# Poissons Ratio (x) = 0.11169 0.13271
# Poissons Ratio (y) = 0.40886 0.45664
# Poissons Ratio (z) = 0.19262 0.18107
#
# Static dielectric constant tensor:
#      x y z
#    x 4.307160 0.000000 0.000000 
#    y 0.000000 3.722800 0.000000 
#    z 0.000000 0.000000 3.893390 
# 
# 
# High freq. dielectric constant tensor:
#      x y z
#    x 1.867370 0.000000 0.000000 
#    y 0.000000 1.796850 0.000000 
#    z 0.000000 0.000000 1.829740 
# 
# From -- ./inp_files/49415.got.cif
#   From: 2010.03.12/outbox.cif.g09.slc.cpg/sg72_25_cif.got.tgz:49415.got - 2010.04.16 14:54:00.
