data_PCOD8294352
_publ_section_title
;
Structure prediction by ZEFSAII (Michael W. Deem and Ramdas Pophale) SiO2 
 PCOD8294352
Probable space group: I B A M
;
_chemical_formula_sum "Si O2"
_cell_formula_units_Z 80
_cell_length_a 12.677856
_cell_length_b 12.984336
_cell_length_c 25.874332
_cell_angle_alpha 90.000000
_cell_angle_beta 90.000000
_cell_angle_gamma 90.000000
_cell_volume 4259.265439
_symmetry_space_group_name_H-M "I B A M"
_symmetry_group_IT_number 72
_symmetry_cell_setting 'orthorhombic'
loop_
_space_group_symop_operation_xyz
x,y,z
-x,-y,z
x,-y,1/2-z
-x,y,1/2-z
-x,-y,-z
x,y,-z
-x,y,1/2+z
x,-y,1/2+z
1/2+x,1/2+y,1/2+z
1/2-x,1/2-y,1/2+z
1/2+x,1/2-y,-z
1/2-x,1/2+y,-z
1/2-x,1/2-y,1/2-z
1/2+x,1/2+y,1/2-z
1/2-x,1/2+y,z
1/2+x,1/2-y,z
loop_
_atom_site_type_symbol
_atom_site_label
_atom_site_fract_x
_atom_site_fract_y
_atom_site_fract_z
Si Si1 0.766270 0.064864 0.699216
Si Si2 0.425759 0.785391 0.701054
Si Si3 0.019294 0.118816 0.557071
Si Si4 0.801246 0.131299 0.139074
Si Si5 0.109968 0.772166 0.362568
O O1 0.649855 0.114964 0.705884
O O2 0.852547 0.152276 0.684686
O O3 0.797519 0.000000 0.750000
O O4 0.766031 0.984510 0.651880
O O5 0.500000 0.771604 0.750000
O O6 0.354368 0.683757 0.690222
O O7 0.508027 0.795148 0.653839
O O8 0.031642 0.169237 0.500000
O O9 0.123582 0.137128 0.590124
O O10 0.917701 0.164638 0.586152
O O11 0.000000 0.000000 0.550511
O O12 0.700321 0.194501 0.121555
#
# Coordination Sequence:
#
# PCOD8294352 Si02
#       5
#    16  16  16  16  16
#     4  11  21  34  55  80 112 152 183 217 267 317
#     4  10  21  35  52  80 113 149 184 220 259 319
#     4  10  20  38  61  80 103 139 183 227 275 326
#     4  10  21  36  56  82 111 141 183 225 269 319
#     4  10  21  37  55  83 111 141 182 226 267 323
#
# _framework density 18.782582000000001
#
# number of rings (size 3 to 8) (size 9 to 14) (size 15 to 20)
#    0.000    1.800    2.000    2.400    0.000    6.800 
#    0.000    3.000    0.000    0.000    0.000    5.600 
#    0.000    0.000    0.000    0.000    0.000    0.000 
#
# Total GULP energy -495780.220320 kJ/mol
# GULP energy per Si atom -12394.505508 kJ/mol
# Density = 1.873983 g / cm^3
# Si number density = 18.782582 Si / 1000 Ang^3
#
#
#
# Elastic Constant Matrix: (Units=GPa)
#
#
# Indices 1 2 3 4 5 6 
#
# 1 84.4759 32.1430 15.8682 0.0000 0.0000 0.0000
# 2 32.1430 60.3320 10.3503 0.0000 0.0000 0.0000
# 3 15.8682 10.3503 77.7557 0.0000 0.0000 0.0000
# 4 0.0000 0.0000 0.0000 15.9053 0.0000 0.0000
# 5 0.0000 0.0000 0.0000 0.0000 32.3890 0.0000
# 6 0.0000 0.0000 0.0000 0.0000 0.0000 24.9335
#
#
#
# Elastic Compliance Matrix: (Units=1/GPa)
#
#
# Indices 1 2 3 4 5 6 
#
# 1 0.015165 -0.007725 -0.002067 0.000000 0.000000 0.000000
# 2 -0.007725 0.020897 -0.001205 0.000000 0.000000 0.000000
# 3 -0.002067 -0.001205 0.013443 0.000000 0.000000 0.000000
# 4 0.000000 0.000000 0.000000 0.062872 0.000000 0.000000
# 5 0.000000 0.000000 0.000000 0.000000 0.030875 0.000000
# 6 0.000000 0.000000 0.000000 0.000000 0.000000 0.040107
#
#
# Mechanical properties :
#
#
# Convention : Reuss Voigt Hill
#
# Bulk Modulus (GPa) = 36.34786 37.69849 37.02317
# Shear Modulus (GPa) = 23.30749 25.59237 24.44993
#
# Velocity S-wave (km/s) = 3.52648 3.69529 3.61187
# Velocity P-wave (km/s) = 5.99794 6.19043 6.09495
#
# Compressibility (1/GPa) = 0.02751194
#
# Stress axis : x y z
#
# Youngs Moduli (GPa) = 65.94019 47.85295 74.38839
#
# Poissons Ratio (x) = 0.36967 0.15373
# Poissons Ratio (y) = 0.50939 0.08965
# Poissons Ratio (z) = 0.13627 0.05767
#
# Static dielectric constant tensor:
#      x y z
#    x 3.599960 0.000000 0.000000 
#    y 0.000000 3.533450 0.000000 
#    z 0.000000 0.000000 3.601910 
# 
# 
# High freq. dielectric constant tensor:
#      x y z
#    x 1.739070 0.000000 0.000000 
#    y 0.000000 1.725340 0.000000 
#    z 0.000000 0.000000 1.713770 
# 
# From -- ./inp_files/43106.got.cif
#   From: 2010.03.12/outbox.cif.g09.slc.cpg/sg72_22_cif.got.tgz:43106.got - 2010.04.16 14:54:00.
