data_PCOD8294735
_publ_section_title
;
Structure prediction by ZEFSAII (Michael W. Deem and Ramdas Pophale) SiO2 
 PCOD8294735
Probable space group: I B A M
;
_chemical_formula_sum "Si O2"
_cell_formula_units_Z 112
_cell_length_a 24.079727
_cell_length_b 11.202523
_cell_length_c 21.109845
_cell_angle_alpha 90.000000
_cell_angle_beta 90.000000
_cell_angle_gamma 90.000000
_cell_volume 5694.458701
_symmetry_space_group_name_H-M "I B A M"
_symmetry_group_IT_number 72
_symmetry_cell_setting 'orthorhombic'
loop_
_space_group_symop_operation_xyz
x,y,z
-x,-y,z
x,-y,1/2-z
-x,y,1/2-z
-x,-y,-z
x,y,-z
-x,y,1/2+z
x,-y,1/2+z
1/2+x,1/2+y,1/2+z
1/2-x,1/2-y,1/2+z
1/2+x,1/2-y,-z
1/2-x,1/2+y,-z
1/2-x,1/2-y,1/2-z
1/2+x,1/2+y,1/2-z
1/2-x,1/2+y,z
1/2+x,1/2-y,z
loop_
_atom_site_type_symbol
_atom_site_label
_atom_site_fract_x
_atom_site_fract_y
_atom_site_fract_z
Si Si1 0.587928 0.271794 0.858146
Si Si2 0.018644 0.366524 0.385957
Si Si3 0.696923 0.367252 0.574471
Si Si4 0.625286 0.523150 0.822327
Si Si5 0.442917 0.264382 0.774336
Si Si6 0.827198 0.381748 0.573129
Si Si7 0.136515 0.366455 0.429511
O O1 0.532669 0.225932 0.895604
O O2 0.587549 0.414689 0.848664
O O3 0.591074 0.218337 0.786703
O O4 0.642859 0.228900 0.893389
O O5 0.042944 0.353347 0.315015
O O6 0.070582 0.338242 0.431624
O O7 0.000000 0.500000 0.399592
O O8 0.681196 0.394585 0.500000
O O9 0.673354 0.464000 0.624502
O O10 0.762321 0.365197 0.583387
O O11 0.671637 0.242194 0.599699
O O12 0.647945 0.500000 0.750000
O O13 0.587955 0.641614 0.819582
O O14 0.500000 0.326063 0.750000
O O15 0.843988 0.375369 0.500000
O O16 0.848746 0.506957 0.604009
O O17 0.159582 0.379201 0.500000
#
# Coordination Sequence:
#
# PCOD8294735 Si02
#       7
#    16  16  16  16  16  16  16
#     4  10  22  35  57  88 114 152 198 242 299 353
#     4  11  20  36  58  86 120 155 195 246 296 362
#     4  10  22  41  65  87 118 160 206 252 299 357
#     4  10  21  40  61  88 121 160 203 246 301 359
#     4   9  20  37  58  83 117 161 198 242 295 364
#     4  10  22  40  61  87 118 157 202 249 301 362
#     4  10  21  39  61  86 118 158 197 242 306 358
#
# _framework density 19.668243
#
# number of rings (size 3 to 8) (size 9 to 14) (size 15 to 20)
#    0.000    2.000    2.857    0.000    2.000   10.571 
#    0.000    4.286    0.000    1.714    0.000    0.000 
#    0.000    0.000    0.000    0.000    0.000    0.000 
#
# Total GULP energy -693819.885377 kJ/mol
# GULP energy per Si atom -12389.640810 kJ/mol
# Density = 1.962348 g / cm^3
# Si number density = 19.668243 Si / 1000 Ang^3
#
#
#
# Elastic Constant Matrix: (Units=GPa)
#
#
# Indices 1 2 3 4 5 6 
#
# 1 115.2158 43.1198 43.5229 0.0000 0.0000 0.0000
# 2 43.1198 71.1710 28.8449 0.0000 0.0000 0.0000
# 3 43.5229 28.8449 71.4532 0.0000 0.0000 0.0000
# 4 0.0000 0.0000 0.0000 26.5380 0.0000 0.0000
# 5 0.0000 0.0000 0.0000 0.0000 36.3694 0.0000
# 6 0.0000 0.0000 0.0000 0.0000 0.0000 31.2303
#
#
#
# Elastic Compliance Matrix: (Units=1/GPa)
#
#
# Indices 1 2 3 4 5 6 
#
# 1 0.012864 -0.005521 -0.005606 0.000000 0.000000 0.000000
# 2 -0.005521 0.019169 -0.004375 0.000000 0.000000 0.000000
# 3 -0.005606 -0.004375 0.019176 0.000000 0.000000 0.000000
# 4 0.000000 0.000000 0.000000 0.037682 0.000000 0.000000
# 5 0.000000 0.000000 0.000000 0.000000 0.027496 0.000000
# 6 0.000000 0.000000 0.000000 0.000000 0.000000 0.032020
#
#
# Mechanical properties :
#
#
# Convention : Reuss Voigt Hill
#
# Bulk Modulus (GPa) = 49.49764 54.31280 51.90522
# Shear Modulus (GPa) = 26.86050 28.31771 27.58910
#
# Velocity S-wave (km/s) = 3.69952 3.79854 3.74936
# Velocity P-wave (km/s) = 6.59314 6.84931 6.72244
#
# Compressibility (1/GPa) = 0.02020298
#
# Stress axis : x y z
#
# Youngs Moduli (GPa) = 77.73891 52.16738 52.14753
#
# Poissons Ratio (x) = 0.28803 0.29236
# Poissons Ratio (y) = 0.42922 0.22816
# Poissons Ratio (z) = 0.43584 0.22825
#
# Static dielectric constant tensor:
#      x y z
#    x 3.527550 0.000000 0.000000 
#    y 0.000000 3.619810 0.000000 
#    z 0.000000 0.000000 3.676990 
# 
# 
# High freq. dielectric constant tensor:
#      x y z
#    x 1.762380 0.000000 0.000000 
#    y 0.000000 1.762780 0.000000 
#    z 0.000000 0.000000 1.756210 
# 
# From -- ./inp_files/40863.got.cif
#   From: 2010.03.12/outbox.cif.g09.slc.cpg/sg72_21_cif.got.tgz:40863.got - 2010.04.16 14:54:00.
