data_PCOD8294183
_publ_section_title
;
Structure prediction by ZEFSAII (Michael W. Deem and Ramdas Pophale) SiO2 
 PCOD8294183
Probable space group: I B A M
;
_chemical_formula_sum "Si O2"
_cell_formula_units_Z 96
_cell_length_a 9.822402
_cell_length_b 21.414425
_cell_length_c 24.410255
_cell_angle_alpha 90.000000
_cell_angle_beta 90.000000
_cell_angle_gamma 90.000000
_cell_volume 5134.479667
_symmetry_space_group_name_H-M "I B A M"
_symmetry_group_IT_number 72
_symmetry_cell_setting 'orthorhombic'
loop_
_space_group_symop_operation_xyz
x,y,z
-x,-y,z
x,-y,1/2-z
-x,y,1/2-z
-x,-y,-z
x,y,-z
-x,y,1/2+z
x,-y,1/2+z
1/2+x,1/2+y,1/2+z
1/2-x,1/2-y,1/2+z
1/2+x,1/2-y,-z
1/2-x,1/2+y,-z
1/2-x,1/2-y,1/2-z
1/2+x,1/2+y,1/2-z
1/2-x,1/2+y,z
1/2+x,1/2-y,z
loop_
_atom_site_type_symbol
_atom_site_label
_atom_site_fract_x
_atom_site_fract_y
_atom_site_fract_z
Si Si1 0.156020 0.482496 0.062681
Si Si2 0.765507 0.366878 0.367439
Si Si3 0.041044 0.699959 0.118603
Si Si4 0.863764 0.213442 0.783862
Si Si5 0.029860 0.180019 0.561987
Si Si6 0.238300 0.117042 0.937028
O O1 0.209918 0.437322 0.111192
O O2 0.251807 0.542721 0.067537
O O3 0.000000 0.500000 0.074507
O O4 0.167027 0.454919 0.000000
O O5 0.690374 0.353584 0.308640
O O6 0.675949 0.334559 0.413563
O O7 0.908862 0.334003 0.359642
O O8 0.104695 0.740575 0.166564
O O9 0.998960 0.746494 0.069341
O O10 0.143874 0.647534 0.098574
O O11 0.750000 0.250000 0.750000
O O12 0.000000 0.198649 0.750000
O O13 0.039354 0.160561 0.500000
O O14 0.906678 0.139094 0.587908
O O15 0.254348 0.139206 0.000000
#
# Coordination Sequence:
#
# PCOD8294183 Si02
#       6
#    16  16  16  16  16  16
#     4  10  20  36  59  87 122 166 204 236 285 364
#     4  11  22  36  58  87 113 154 204 243 296 356
#     4  11  21  35  59  89 114 152 194 243 303 366
#     4  11  23  41  62  90 115 149 196 257 317 367
#     4  10  21  33  51  85 125 156 188 238 297 354
#     4  10  21  36  56  87 127 164 197 237 288 360
#
# _framework density 18.697123000000001
#
# number of rings (size 3 to 8) (size 9 to 14) (size 15 to 20)
#    0.000    1.500    3.333    3.000    2.333    4.000 
#    0.000    2.500    0.000    1.000    4.333    0.000 
#    0.000    0.000    0.000    0.000    0.000    0.000 
#
# Total GULP energy -594824.633539 kJ/mol
# GULP energy per Si atom -12392.179865 kJ/mol
# Density = 1.865457 g / cm^3
# Si number density = 18.697123 Si / 1000 Ang^3
#
#
#
# Elastic Constant Matrix: (Units=GPa)
#
#
# Indices 1 2 3 4 5 6 
#
# 1 92.7904 32.0089 54.9416 0.0000 0.0000 0.0000
# 2 32.0089 94.2598 44.5524 0.0000 0.0000 0.0000
# 3 54.9416 44.5524 76.3197 0.0000 0.0000 0.0000
# 4 0.0000 0.0000 0.0000 47.2209 0.0000 0.0000
# 5 0.0000 0.0000 0.0000 0.0000 25.2905 0.0000
# 6 0.0000 0.0000 0.0000 0.0000 0.0000 31.2855
#
#
#
# Elastic Compliance Matrix: (Units=1/GPa)
#
#
# Indices 1 2 3 4 5 6 
#
# 1 0.018783 0.000018 -0.013532 0.000000 0.000000 0.000000
# 2 0.000018 0.014652 -0.008566 0.000000 0.000000 0.000000
# 3 -0.013532 -0.008566 0.027845 0.000000 0.000000 0.000000
# 4 0.000000 0.000000 0.000000 0.021177 0.000000 0.000000
# 5 0.000000 0.000000 0.000000 0.000000 0.039541 0.000000
# 6 0.000000 0.000000 0.000000 0.000000 0.000000 0.031964
#
#
# Mechanical properties :
#
#
# Convention : Reuss Voigt Hill
#
# Bulk Modulus (GPa) = 58.41414 58.48621 58.45017
# Shear Modulus (GPa) = 24.53047 29.55051 27.04049
#
# Velocity S-wave (km/s) = 3.62607 3.97984 3.80707
# Velocity P-wave (km/s) = 6.98866 7.24345 7.11720
#
# Compressibility (1/GPa) = 0.01711914
#
# Stress axis : x y z
#
# Youngs Moduli (GPa) = 53.23853 68.25177 35.91338
#
# Poissons Ratio (x) = -0.00120 0.48599
# Poissons Ratio (y) = -0.00094 0.30762
# Poissons Ratio (z) = 0.72043 0.58462
#
# Static dielectric constant tensor:
#      x y z
#    x 3.188260 0.000000 0.000000 
#    y 0.000000 3.536150 0.000000 
#    z 0.000000 0.000000 3.537310 
# 
# 
# High freq. dielectric constant tensor:
#      x y z
#    x 1.747310 0.000000 0.000000 
#    y 0.000000 1.711990 0.000000 
#    z 0.000000 0.000000 1.709280 
# 
# From -- ./inp_files/42401.got.cif
#   From: 2010.03.12/outbox.cif.g09.slc.cpg/sg72_22_cif.got.tgz:42401.got - 2010.04.16 14:54:00.
