data_PCOD8294197
_publ_section_title
;
Structure prediction by ZEFSAII (Michael W. Deem and Ramdas Pophale) SiO2 
 PCOD8294197
Probable space group: I B A M
;
_chemical_formula_sum "Si O2"
_cell_formula_units_Z 96
_cell_length_a 18.572052
_cell_length_b 30.557410
_cell_length_c 8.822810
_cell_angle_alpha 90.000000
_cell_angle_beta 90.000000
_cell_angle_gamma 90.000000
_cell_volume 5007.066496
_symmetry_space_group_name_H-M "I B A M"
_symmetry_group_IT_number 72
_symmetry_cell_setting 'orthorhombic'
loop_
_space_group_symop_operation_xyz
x,y,z
-x,-y,z
x,-y,1/2-z
-x,y,1/2-z
-x,-y,-z
x,y,-z
-x,y,1/2+z
x,-y,1/2+z
1/2+x,1/2+y,1/2+z
1/2-x,1/2-y,1/2+z
1/2+x,1/2-y,-z
1/2-x,1/2+y,-z
1/2-x,1/2-y,1/2-z
1/2+x,1/2+y,1/2-z
1/2-x,1/2+y,z
1/2+x,1/2-y,z
loop_
_atom_site_type_symbol
_atom_site_label
_atom_site_fract_x
_atom_site_fract_y
_atom_site_fract_z
Si Si1 0.160497 0.954564 0.179167
Si Si2 0.172921 0.793271 0.675486
Si Si3 0.662067 0.796009 0.176666
Si Si4 0.576195 0.375760 0.177987
Si Si5 0.577909 0.125523 0.179560
Si Si6 0.824697 0.454723 0.321658
O O1 0.108664 0.918271 0.245392
O O2 0.242739 0.944847 0.228478
O O3 0.134430 0.000000 0.250000
O O4 0.152046 0.956449 0.000000
O O5 0.167184 0.779959 0.500000
O O6 0.254900 0.804866 0.718816
O O7 0.142373 0.753281 0.774455
O O8 0.126926 0.835270 0.717236
O O9 0.612517 0.829124 0.268514
O O10 0.646205 0.802140 0.000000
O O11 0.500000 0.364833 0.250000
O O12 0.568813 0.383709 0.000000
O O13 0.500000 0.119445 0.250000
O O14 0.626730 0.085201 0.237874
O O15 0.571647 0.125797 0.000000
O O16 0.852706 0.500000 0.250000
O O17 0.830643 0.459954 0.500000
#
# Coordination Sequence:
#
# PCOD8294197 Si02
#       6
#    16  16  16  16  16  16
#     4  10  20  37  60  85 111 142 182 227 275 325
#     4   9  20  38  59  83 112 146 185 229 276 328
#     4  10  20  36  60  86 110 143 186 231 278 326
#     4  11  23  38  56  81 113 148 184 224 273 327
#     4  11  23  38  55  80 114 150 186 226 276 331
#     4   9  20  37  59  84 110 143 183 228 275 325
#
# _framework density 19.172903999999999
#
# number of rings (size 3 to 8) (size 9 to 14) (size 15 to 20)
#    0.000    2.000    0.000    3.000    0.000    5.333 
#    0.000    5.000    0.000    0.000    0.000    0.000 
#    0.000    0.000    0.000    0.000    0.000    0.000 
#
# Total GULP energy -595439.672722 kJ/mol
# GULP energy per Si atom -12404.993182 kJ/mol
# Density = 1.912927 g / cm^3
# Si number density = 19.172904 Si / 1000 Ang^3
#
#
#
# Elastic Constant Matrix: (Units=GPa)
#
#
# Indices 1 2 3 4 5 6 
#
# 1 68.5583 40.6138 28.2193 0.0005 -0.0008 0.0006
# 2 40.6138 103.6598 39.3545 -0.0004 -0.0005 0.0007
# 3 28.2193 39.3545 68.6210 -0.0091 0.0043 0.0060
# 4 0.0005 -0.0004 -0.0091 36.8141 0.0008 0.0015
# 5 -0.0008 -0.0005 0.0043 0.0008 30.5229 0.0020
# 6 0.0006 0.0007 0.0060 0.0015 0.0020 -4.6970
#
#
#
# Elastic Compliance Matrix: (Units=1/GPa)
#
#
# Indices 1 2 3 4 5 6 
#
# 1 0.020164 -0.006075 -0.004808 -0.000002 0.000001 -0.000005
# 2 -0.006075 0.014162 -0.005624 -0.000001 0.000001 -0.000006
# 3 -0.004808 -0.005624 0.019775 0.000005 -0.000003 0.000024
# 4 -0.000002 -0.000001 0.000005 0.027163 -0.000001 0.000009
# 5 0.000001 0.000001 -0.000003 -0.000001 0.032762 0.000014
# 6 -0.000005 -0.000006 0.000024 0.000009 0.000014 -0.212901
#
#
# Mechanical properties :
#
#
# Convention : Reuss Voigt Hill
#
# Bulk Modulus (GPa) = 47.42087 50.80161 49.11124
# Shear Modulus (GPa) = -84.98899 21.37143 -31.80878
#
# Velocity S-wave (km/s) = -6.66512 3.34229 -4.07756
# Velocity P-wave (km/s) = 5.86898 6.43806 1.87133
#
# Compressibility (1/GPa) = 0.02108776
#
# Stress axis : x y z
#
# Youngs Moduli (GPa) = 49.59361 70.61074 50.56785
#
# Poissons Ratio (x) = 0.42894 0.24314
# Poissons Ratio (y) = 0.30127 0.28439
# Poissons Ratio (z) = 0.23845 0.39711
#
# Static dielectric constant tensor:
#      x y z
#    x 3.541540 0.000010 0.000000 
#    y 0.000010 3.491700 0.000000 
#    z 0.000000 0.000000 3.533270 
# 
# 
# High freq. dielectric constant tensor:
#      x y z
#    x 1.744110 0.000000 0.000000 
#    y 0.000000 1.757710 0.000000 
#    z 0.000000 0.000000 1.752980 
# 
# From -- ./inp_files/5998.got.cif
#   From: 2010.03.12/outbox.cif.g09.slc.cpg/sg72_3_cif.got.tgz:5998.got - 2010.04.16 14:54:00.
