data_PCOD8294259
_publ_section_title
;
Structure prediction by ZEFSAII (Michael W. Deem and Ramdas Pophale) SiO2 
 PCOD8294259
Probable space group: I B A M
;
_chemical_formula_sum "Si O2"
_cell_formula_units_Z 112
_cell_length_a 27.689709
_cell_length_b 10.696172
_cell_length_c 18.068241
_cell_angle_alpha 90.000000
_cell_angle_beta 90.000000
_cell_angle_gamma 90.000000
_cell_volume 5351.341224
_symmetry_space_group_name_H-M "I B A M"
_symmetry_group_IT_number 72
_symmetry_cell_setting 'orthorhombic'
loop_
_space_group_symop_operation_xyz
x,y,z
-x,-y,z
x,-y,1/2-z
-x,y,1/2-z
-x,-y,-z
x,y,-z
-x,y,1/2+z
x,-y,1/2+z
1/2+x,1/2+y,1/2+z
1/2-x,1/2-y,1/2+z
1/2+x,1/2-y,-z
1/2-x,1/2+y,-z
1/2-x,1/2-y,1/2-z
1/2+x,1/2+y,1/2-z
1/2-x,1/2+y,z
1/2+x,1/2-y,z
loop_
_atom_site_type_symbol
_atom_site_label
_atom_site_fract_x
_atom_site_fract_y
_atom_site_fract_z
Si Si1 0.726779 0.745305 0.169276
Si Si2 0.442544 0.503372 0.079221
Si Si3 0.456724 0.224936 0.415642
Si Si4 0.269355 0.008043 0.584032
Si Si5 0.128046 0.316175 0.718889
Si Si6 0.964278 0.188100 0.809791
Si Si7 0.871204 0.442063 0.633422
O O1 0.750000 0.750000 0.250000
O O2 0.741729 0.622432 0.123781
O O3 0.668949 0.731497 0.180518
O O4 0.739011 0.876426 0.127050
O O5 0.500000 0.500000 0.073243
O O6 0.427433 0.645078 0.098306
O O7 0.430345 0.408508 0.144707
O O8 0.419648 0.461988 0.000000
O O9 0.475970 0.219779 0.500000
O O10 0.504050 0.219927 0.362684
O O11 0.418635 0.114487 0.404502
O O12 0.249922 0.993744 0.500000
O O13 0.325949 0.044436 0.578506
O O14 0.076290 0.256662 0.737973
O O15 0.113002 0.423595 0.661964
O O16 0.148942 0.362734 0.797026
O O17 0.000000 0.123194 0.750000
#
# Coordination Sequence:
#
# PCOD8294259 Si02
#       7
#    16  16  16  16  16  16  16
#     4  11  22  44  71  94 129 173 210 265 325 399
#     4   8  17  34  53  73 109 159 200 242 299 354
#     4  10  20  37  58  84 118 163 206 248 306 366
#     4  11  23  42  70 101 131 165 214 271 329 386
#     4  10  22  39  60  91 120 158 207 255 314 366
#     4  11  20  35  56  85 121 158 205 257 295 360
#     4  10  20  40  62  87 123 161 205 254 308 376
#
# _framework density 20.929331999999999
#
# number of rings (size 3 to 8) (size 9 to 14) (size 15 to 20)
#    0.000    1.857    2.857    2.571    0.000    3.143 
#    2.571    9.286    0.000    0.000    0.000    0.000 
#    0.000    0.000    0.000    0.000    0.000    0.000 
#
# Total GULP energy -693763.938930 kJ/mol
# GULP energy per Si atom -12388.641767 kJ/mol
# Density = 2.088170 g / cm^3
# Si number density = 20.929332 Si / 1000 Ang^3
#
#
#
# Elastic Constant Matrix: (Units=GPa)
#
#
# Indices 1 2 3 4 5 6 
#
# 1 66.7403 36.1710 33.8495 0.0000 0.0000 0.0000
# 2 36.1710 86.4019 38.3054 0.0000 0.0000 0.0000
# 3 33.8495 38.3054 117.7128 0.0000 0.0000 0.0000
# 4 0.0000 0.0000 0.0000 31.0555 0.0000 0.0000
# 5 0.0000 0.0000 0.0000 0.0000 24.5942 0.0000
# 6 0.0000 0.0000 0.0000 0.0000 0.0000 30.3202
#
#
#
# Elastic Compliance Matrix: (Units=1/GPa)
#
#
# Indices 1 2 3 4 5 6 
#
# 1 0.020641 -0.007023 -0.003650 0.000000 0.000000 0.000000
# 2 -0.007023 0.015914 -0.003159 0.000000 0.000000 0.000000
# 3 -0.003650 -0.003159 0.010573 0.000000 0.000000 0.000000
# 4 0.000000 0.000000 0.000000 0.032200 0.000000 0.000000
# 5 0.000000 0.000000 0.000000 0.000000 0.040660 0.000000
# 6 0.000000 0.000000 0.000000 0.000000 0.000000 0.032981
#
#
# Mechanical properties :
#
#
# Convention : Reuss Voigt Hill
#
# Bulk Modulus (GPa) = 51.37746 54.16741 52.77243
# Shear Modulus (GPa) = 26.72048 28.02926 27.37487
#
# Velocity S-wave (km/s) = 3.57697 3.66352 3.62051
# Velocity P-wave (km/s) = 6.45453 6.62061 6.53810
#
# Compressibility (1/GPa) = 0.01946379
#
# Stress axis : x y z
#
# Youngs Moduli (GPa) = 48.44763 62.83597 94.58063
#
# Poissons Ratio (x) = 0.44128 0.34524
# Poissons Ratio (y) = 0.34024 0.29881
# Poissons Ratio (z) = 0.17684 0.19852
#
# Static dielectric constant tensor:
#      x y z
#    x 3.499230 0.000000 0.000000 
#    y 0.000000 4.040030 0.000000 
#    z 0.000000 0.000000 4.071600 
# 
# 
# High freq. dielectric constant tensor:
#      x y z
#    x 1.792900 0.000000 0.000000 
#    y 0.000000 1.810160 0.000000 
#    z 0.000000 0.000000 1.836080 
# 
# From -- ./inp_files/26358.got.cif
#   From: 2010.03.12/outbox.cif.g09.slc.cpg/sg72_14_cif.got.tgz:26358.got - 2010.04.16 14:54:00.
