data_PCOD8294360
_publ_section_title
;
Structure prediction by ZEFSAII (Michael W. Deem and Ramdas Pophale) SiO2 
 PCOD8294360
Probable space group: I B A M
;
_chemical_formula_sum "Si O2"
_cell_formula_units_Z 80
_cell_length_a 23.430151
_cell_length_b 8.242247
_cell_length_c 17.190877
_cell_angle_alpha 90.000000
_cell_angle_beta 90.000000
_cell_angle_gamma 90.000000
_cell_volume 3319.852172
_symmetry_space_group_name_H-M "I B A M"
_symmetry_group_IT_number 72
_symmetry_cell_setting 'orthorhombic'
loop_
_space_group_symop_operation_xyz
x,y,z
-x,-y,z
x,-y,1/2-z
-x,y,1/2-z
-x,-y,-z
x,y,-z
-x,y,1/2+z
x,-y,1/2+z
1/2+x,1/2+y,1/2+z
1/2-x,1/2-y,1/2+z
1/2+x,1/2-y,-z
1/2-x,1/2+y,-z
1/2-x,1/2-y,1/2-z
1/2+x,1/2+y,1/2-z
1/2-x,1/2+y,z
1/2+x,1/2-y,z
loop_
_atom_site_type_symbol
_atom_site_label
_atom_site_fract_x
_atom_site_fract_y
_atom_site_fract_z
Si Si1 0.035655 0.165326 0.413768
Si Si2 0.365967 0.500522 0.160438
Si Si3 0.229982 0.185672 0.591008
Si Si4 0.923037 0.312756 0.408714
Si Si5 0.670775 0.999049 0.341630
O O1 0.060884 0.200106 0.500000
O O2 0.088158 0.146053 0.354072
O O3 0.991234 0.309322 0.389795
O O4 0.000000 0.000000 0.415944
O O5 0.347674 0.500000 0.250000
O O6 0.309853 0.470706 0.108089
O O7 0.392610 0.670662 0.138628
O O8 0.238518 0.213455 0.500000
O O9 0.291240 0.154670 0.630620
O O10 0.199494 0.337894 0.629450
O O11 0.913950 0.285247 0.500000
O O12 0.892587 0.478996 0.380196
O O13 0.664711 0.000000 0.250000
#
# Coordination Sequence:
#
# PCOD8294360 Si02
#       5
#    16  16  16  16  16
#     4   8  16  32  56  85 117 156 203 252 303 366
#     4  11  21  36  60  94 128 164 209 264 317 368
#     4  12  24  40  63  90 124 169 217 261 317 388
#     4  10  20  38  62  87 121 166 212 257 311 378
#     4  12  25  43  63  92 127 163 210 268 326 375
#
# _framework density 24.097459000000001
#
# number of rings (size 3 to 8) (size 9 to 14) (size 15 to 20)
#    0.000    1.400    0.000    8.400    0.000    3.600 
#    0.000    1.000    0.000    4.800    0.000    0.000 
#    0.000    0.000    0.000    0.000    0.000    0.000 
#
# Total GULP energy -496020.070683 kJ/mol
# GULP energy per Si atom -12400.501767 kJ/mol
# Density = 2.404261 g / cm^3
# Si number density = 24.097459 Si / 1000 Ang^3
#
#
#
# Elastic Constant Matrix: (Units=GPa)
#
#
# Indices 1 2 3 4 5 6 
#
# 1 89.8231 -21.4465 24.2185 0.0000 0.0000 0.0000
# 2 -21.4465 20.3874 -8.6038 0.0000 0.0000 0.0000
# 3 24.2185 -8.6038 131.9579 0.0000 0.0000 0.0000
# 4 0.0000 0.0000 0.0000 25.9817 0.0000 0.0000
# 5 0.0000 0.0000 0.0000 0.0000 -18.5927 0.0000
# 6 0.0000 0.0000 0.0000 0.0000 0.0000 20.9254
#
#
#
# Elastic Compliance Matrix: (Units=1/GPa)
#
#
# Indices 1 2 3 4 5 6 
#
# 1 0.015274 0.015306 -0.001805 0.000000 0.000000 0.000000
# 2 0.015306 0.065775 0.001480 0.000000 0.000000 0.000000
# 3 -0.001805 0.001480 0.008006 0.000000 0.000000 0.000000
# 4 0.000000 0.000000 0.000000 0.038489 0.000000 0.000000
# 5 0.000000 0.000000 0.000000 0.000000 -0.053784 0.000000
# 6 0.000000 0.000000 0.000000 0.000000 0.000000 0.047789
#
#
# Mechanical properties :
#
#
# Convention : Reuss Voigt Hill
#
# Bulk Modulus (GPa) = 8.40227 25.61165 17.00696
# Shear Modulus (GPa) = 38.09226 22.19622 30.14424
#
# Velocity S-wave (km/s) = 3.98019 3.03826 3.54069
# Velocity P-wave (km/s) = 4.96154 4.79160 4.87731
#
# Compressibility (1/GPa) = 0.11901552
#
# Stress axis : x y z
#
# Youngs Moduli (GPa) = 65.46972 15.20327 124.90663
#
# Poissons Ratio (x) = -0.23270 0.22550
# Poissons Ratio (y) = -1.00207 -0.18480
# Poissons Ratio (z) = 0.11820 -0.02249
#
# Static dielectric constant tensor:
#      x y z
#    x 5.055810 0.000000 0.000000 
#    y 0.000000 4.302280 0.000000 
#    z 0.000000 0.000000 4.192230 
# 
# 
# High freq. dielectric constant tensor:
#      x y z
#    x 1.972820 0.000000 0.000000 
#    y 0.000000 1.949100 0.000000 
#    z 0.000000 0.000000 1.946850 
# 
# From -- ./inp_files/33759.got.cif
#   From: 2010.03.12/outbox.cif.g09.slc.cpg/sg72_17_cif.got.tgz:33759.got - 2010.04.16 14:54:00.
