data_PCOD8294929
_publ_section_title
;
Structure prediction by ZEFSAII (Michael W. Deem and Ramdas Pophale) SiO2 
 PCOD8294929
Probable space group: I B A M
;
_chemical_formula_sum "Si O2"
_cell_formula_units_Z 80
_cell_length_a 9.215553
_cell_length_b 17.110111
_cell_length_c 24.308129
_cell_angle_alpha 90.000000
_cell_angle_beta 90.000000
_cell_angle_gamma 90.000000
_cell_volume 3832.884748
_symmetry_space_group_name_H-M "I B A M"
_symmetry_group_IT_number 72
_symmetry_cell_setting 'orthorhombic'
loop_
_space_group_symop_operation_xyz
x,y,z
-x,-y,z
x,-y,1/2-z
-x,y,1/2-z
-x,-y,-z
x,y,-z
-x,y,1/2+z
x,-y,1/2+z
1/2+x,1/2+y,1/2+z
1/2-x,1/2-y,1/2+z
1/2+x,1/2-y,-z
1/2-x,1/2+y,-z
1/2-x,1/2-y,1/2-z
1/2+x,1/2+y,1/2-z
1/2-x,1/2+y,z
1/2+x,1/2-y,z
loop_
_atom_site_type_symbol
_atom_site_label
_atom_site_fract_x
_atom_site_fract_y
_atom_site_fract_z
Si Si1 0.031535 0.158505 0.686575
Si Si2 0.756971 0.774106 0.865800
Si Si3 0.142811 0.647599 0.440451
Si Si4 0.655843 0.088990 0.436381
Si Si5 0.642165 0.538320 0.897750
O O1 0.137876 0.232561 0.674077
O O2 0.101194 0.079019 0.660765
O O3 0.000000 0.145370 0.750000
O O4 0.867670 0.169877 0.665547
O O5 0.864139 0.710552 0.892624
O O6 0.681875 0.822604 0.914814
O O7 0.125397 0.687993 0.500000
O O8 0.299439 0.605283 0.438301
O O9 0.019102 0.580800 0.432806
O O10 0.708960 0.079216 0.500000
O O11 0.734005 0.028708 0.394701
O O12 0.500000 0.500000 0.924537
#
# Coordination Sequence:
#
# PCOD8294929 Si02
#       5
#    16  16  16  16  16
#     4  11  24  43  68  88 119 166 214 270 321 362
#     4  11  21  42  63  95 123 158 214 264 311 379
#     4  10  22  39  62  91 129 169 201 245 313 387
#     4  11  22  39  61  91 134 172 200 249 322 389
#     4  11  23  40  60  92 126 162 208 258 305 383
#
# _framework density 20.872007
#
# number of rings (size 3 to 8) (size 9 to 14) (size 15 to 20)
#    0.000    1.200    4.000    2.400    0.000    3.600 
#    0.000    0.000    0.000    0.000    5.200    0.000 
#    0.000    0.000    0.000    0.000    0.000    0.000 
#
# Total GULP energy -495567.742596 kJ/mol
# GULP energy per Si atom -12389.193565 kJ/mol
# Density = 2.082450 g / cm^3
# Si number density = 20.872007 Si / 1000 Ang^3
#
#
#
# Elastic Constant Matrix: (Units=GPa)
#
#
# Indices 1 2 3 4 5 6 
#
# 1 109.0373 31.8322 63.7115 0.0000 0.0000 0.0000
# 2 31.8322 80.3696 46.6357 0.0000 0.0000 0.0000
# 3 63.7115 46.6357 120.4591 0.0000 0.0000 0.0000
# 4 0.0000 0.0000 0.0000 25.5292 0.0000 0.0000
# 5 0.0000 0.0000 0.0000 0.0000 29.0874 0.0000
# 6 0.0000 0.0000 0.0000 0.0000 0.0000 36.0257
#
#
#
# Elastic Compliance Matrix: (Units=1/GPa)
#
#
# Indices 1 2 3 4 5 6 
#
# 1 0.013420 -0.001543 -0.006500 0.000000 0.000000 0.000000
# 2 -0.001543 0.016225 -0.005465 0.000000 0.000000 0.000000
# 3 -0.006500 -0.005465 0.013856 0.000000 0.000000 0.000000
# 4 0.000000 0.000000 0.000000 0.039171 0.000000 0.000000
# 5 0.000000 0.000000 0.000000 0.000000 0.034379 0.000000
# 6 0.000000 0.000000 0.000000 0.000000 0.000000 0.027758
#
#
# Mechanical properties :
#
#
# Convention : Reuss Voigt Hill
#
# Bulk Modulus (GPa) = 60.66996 66.02499 63.34747
# Shear Modulus (GPa) = 28.19749 29.30757 28.75253
#
# Velocity S-wave (km/s) = 3.67954 3.75127 3.71558
# Velocity P-wave (km/s) = 6.86897 7.10385 6.98740
#
# Compressibility (1/GPa) = 0.01648262
#
# Stress axis : x y z
#
# Youngs Moduli (GPa) = 74.51586 61.63297 72.17330
#
# Poissons Ratio (x) = 0.09512 0.46915
# Poissons Ratio (y) = 0.11500 0.39445
# Poissons Ratio (z) = 0.48438 0.33684
#
# Static dielectric constant tensor:
#      x y z
#    x 4.001850 0.000000 0.000000 
#    y 0.000000 3.864920 0.000000 
#    z 0.000000 0.000000 3.456270 
# 
# 
# High freq. dielectric constant tensor:
#      x y z
#    x 1.835640 0.000000 0.000000 
#    y 0.000000 1.822400 0.000000 
#    z 0.000000 0.000000 1.785390 
# 
# From -- ./inp_files/47138.got.cif
#   From: 2010.03.12/outbox.cif.g09.slc.cpg/sg72_24_cif.got.tgz:47138.got - 2010.04.16 14:54:00.
