data_PCOD8294743
_publ_section_title
;
Structure prediction by ZEFSAII (Michael W. Deem and Ramdas Pophale) SiO2 
 PCOD8294743
Probable space group: I B A M
;
_chemical_formula_sum "Si O2"
_cell_formula_units_Z 88
_cell_length_a 10.855480
_cell_length_b 27.419479
_cell_length_c 13.851220
_cell_angle_alpha 90.000000
_cell_angle_beta 90.000000
_cell_angle_gamma 90.000000
_cell_volume 4122.837877
_symmetry_space_group_name_H-M "I B A M"
_symmetry_group_IT_number 72
_symmetry_cell_setting 'orthorhombic'
loop_
_space_group_symop_operation_xyz
x,y,z
-x,-y,z
x,-y,1/2-z
-x,y,1/2-z
-x,-y,-z
x,y,-z
-x,y,1/2+z
x,-y,1/2+z
1/2+x,1/2+y,1/2+z
1/2-x,1/2-y,1/2+z
1/2+x,1/2-y,-z
1/2-x,1/2+y,-z
1/2-x,1/2-y,1/2-z
1/2+x,1/2+y,1/2-z
1/2-x,1/2+y,z
1/2+x,1/2-y,z
loop_
_atom_site_type_symbol
_atom_site_label
_atom_site_fract_x
_atom_site_fract_y
_atom_site_fract_z
Si Si1 0.574794 0.572943 0.385251
Si Si2 0.678677 0.474977 0.387356
Si Si3 0.689157 0.659462 0.723330
Si Si4 0.500000 0.742420 0.250000
Si Si5 0.170362 0.387198 0.111776
Si Si6 0.561917 0.826030 0.887531
O O1 0.587860 0.582546 0.500000
O O2 0.671035 0.530509 0.345985
O O3 0.438174 0.556881 0.354081
O O4 0.596413 0.622035 0.326594
O O5 0.663080 0.483493 0.500000
O O6 0.804451 0.444868 0.363293
O O7 0.622512 0.711116 0.733429
O O8 0.731415 0.644875 0.830137
O O9 0.806951 0.661174 0.654971
O O10 0.509717 0.776155 0.155932
O O11 0.030918 0.371169 0.136428
O O12 0.200546 0.377398 0.000000
O O13 0.575572 0.817759 0.000000
#
# Coordination Sequence:
#
# PCOD8294743 Si02
#       6
#    16  16  16   8  16  16
#     4   9  18  34  59  93 130 164 204 264 322 377
#     4   8  16  34  59  91 128 165 210 257 317 384
#     4  12  23  40  63  92 124 157 211 262 315 388
#     4  12  26  44  62  93 121 162 212 264 326 386
#     4  10  21  39  62  87 122 169 208 256 316 375
#     4  11  25  44  64  87 123 164 210 266 319 382
#
# _framework density 21.344521
#
# number of rings (size 3 to 8) (size 9 to 14) (size 15 to 20)
#    0.000    1.818    1.818    3.273    0.000    2.909 
#    0.000    2.727    0.000    6.545    0.000    0.000 
#    0.000    0.000    0.000    0.000    0.000    0.000 
#
# Total GULP energy -545409.264792 kJ/mol
# GULP energy per Si atom -12395.665109 kJ/mol
# Density = 2.129594 g / cm^3
# Si number density = 21.344521 Si / 1000 Ang^3
#
#
#
# Elastic Constant Matrix: (Units=GPa)
#
#
# Indices 1 2 3 4 5 6 
#
# 1 84.4886 36.8648 27.3254 -0.0003 0.0002 -0.0001
# 2 36.8648 100.6201 28.0875 -0.0008 0.0004 0.0000
# 3 27.3254 28.0875 69.8574 -0.0017 0.0006 -0.0013
# 4 -0.0003 -0.0008 -0.0017 28.3345 0.0004 0.0001
# 5 0.0002 0.0004 0.0006 0.0004 29.3838 -0.0001
# 6 -0.0001 0.0000 -0.0013 0.0001 -0.0001 34.8849
#
#
#
# Elastic Compliance Matrix: (Units=1/GPa)
#
#
# Indices 1 2 3 4 5 6 
#
# 1 0.015082 -0.004369 -0.004143 0.000000 0.000000 0.000000
# 2 -0.004369 0.012461 -0.003301 0.000000 0.000000 0.000000
# 3 -0.004143 -0.003301 0.017263 0.000001 0.000000 0.000001
# 4 0.000000 0.000000 0.000001 0.035293 -0.000001 0.000000
# 5 0.000000 0.000000 0.000000 -0.000001 0.034032 0.000000
# 6 0.000000 0.000000 0.000001 0.000000 0.000000 0.028666
#
#
# Mechanical properties :
#
#
# Convention : Reuss Voigt Hill
#
# Bulk Modulus (GPa) = 47.21584 48.83573 48.02579
# Shear Modulus (GPa) = 28.82142 29.36653 29.09398
#
# Velocity S-wave (km/s) = 3.67862 3.71325 3.69598
# Velocity P-wave (km/s) = 6.34128 6.42757 6.38457
#
# Compressibility (1/GPa) = 0.02117933
#
# Stress axis : x y z
#
# Youngs Moduli (GPa) = 66.30309 80.25283 57.92883
#
# Poissons Ratio (x) = 0.35065 0.23999
# Poissons Ratio (y) = 0.28970 0.19122
# Poissons Ratio (z) = 0.27468 0.26491
#
# Static dielectric constant tensor:
#      x y z
#    x 3.899210 0.000000 0.000000 
#    y 0.000000 4.022860 0.000000 
#    z 0.000000 0.000000 3.952870 
# 
# 
# High freq. dielectric constant tensor:
#      x y z
#    x 1.823530 0.000000 0.000000 
#    y 0.000000 1.836650 0.000000 
#    z 0.000000 0.000000 1.853120 
# 
# From -- ./inp_files/20295.got.cif
#   From: 2010.03.12/outbox.cif.g09.slc.cpg/sg72_11_cif.got.tgz:20295.got - 2010.04.16 14:54:00.
