data_PCOD8294310
_publ_section_title
;
Structure prediction by ZEFSAII (Michael W. Deem and Ramdas Pophale) SiO2 
 PCOD8294310
Probable space group: I B A M
;
_chemical_formula_sum "Si O2"
_cell_formula_units_Z 104
_cell_length_a 8.883593
_cell_length_b 26.727546
_cell_length_c 21.514254
_cell_angle_alpha 90.000000
_cell_angle_beta 90.000000
_cell_angle_gamma 90.000000
_cell_volume 5108.272194
_symmetry_space_group_name_H-M "I B A M"
_symmetry_group_IT_number 72
_symmetry_cell_setting 'orthorhombic'
loop_
_space_group_symop_operation_xyz
x,y,z
-x,-y,z
x,-y,1/2-z
-x,y,1/2-z
-x,-y,-z
x,y,-z
-x,y,1/2+z
x,-y,1/2+z
1/2+x,1/2+y,1/2+z
1/2-x,1/2-y,1/2+z
1/2+x,1/2-y,-z
1/2-x,1/2+y,-z
1/2-x,1/2-y,1/2-z
1/2+x,1/2+y,1/2-z
1/2-x,1/2+y,z
1/2+x,1/2-y,z
loop_
_atom_site_type_symbol
_atom_site_label
_atom_site_fract_x
_atom_site_fract_y
_atom_site_fract_z
Si Si1 0.042964 0.239087 0.628007
Si Si2 0.664101 0.898886 0.570085
Si Si3 0.000000 0.384088 0.250000
Si Si4 0.141301 0.413228 0.375216
Si Si5 0.689518 0.816834 0.671203
Si Si6 0.770800 0.814899 0.071611
Si Si7 0.324294 0.501581 0.572102
O O1 0.145695 0.207931 0.677310
O O2 0.153378 0.269944 0.582647
O O3 0.939462 0.275114 0.668401
O O4 0.940419 0.202363 0.586729
O O5 0.706306 0.885267 0.500000
O O6 0.490669 0.915922 0.573881
O O7 0.692049 0.848760 0.608175
O O8 0.767695 0.944234 0.594204
O O9 0.937059 0.416747 0.192842
O O10 0.854847 0.351282 0.270642
O O11 0.232005 0.361597 0.383980
O O12 0.250097 0.460016 0.384071
O O13 0.762788 0.831786 0.000000
O O14 0.500000 0.500000 0.583786
O O15 0.283084 0.491540 0.500000
#
# Coordination Sequence:
#
# PCOD8294310 Si02
#       7
#    16  16   8  16  16  16  16
#     4  10  22  38  57  90 124 165 205 255 313 369
#     4  10  20  37  62  90 126 163 199 252 313 382
#     4  10  22  44  65  86 120 168 224 261 294 352
#     4  11  22  40  63  89 122 163 214 255 301 372
#     4  10  22  40  60  89 124 165 214 254 308 362
#     4  11  21  36  59  91 127 161 200 256 315 379
#     4  10  22  39  65  99 130 157 193 255 329 391
#
# _framework density 20.359134999999998
#
# number of rings (size 3 to 8) (size 9 to 14) (size 15 to 20)
#    0.000    1.692    3.077    2.308    2.154    4.923 
#    0.000    6.154    0.000    3.692    0.000    0.000 
#    0.000    0.000    0.000    0.000    0.000    0.000 
#
# Total GULP energy -644862.672644 kJ/mol
# GULP energy per Si atom -12401.205243 kJ/mol
# Density = 2.031280 g / cm^3
# Si number density = 20.359135 Si / 1000 Ang^3
#
#
#
# Elastic Constant Matrix: (Units=GPa)
#
#
# Indices 1 2 3 4 5 6 
#
# 1 124.7154 48.2473 19.4606 0.0000 0.0000 0.0000
# 2 48.2473 85.2683 25.7119 0.0000 0.0000 0.0000
# 3 19.4606 25.7119 69.6667 0.0000 0.0000 0.0000
# 4 0.0000 0.0000 0.0000 19.4699 0.0000 0.0000
# 5 0.0000 0.0000 0.0000 0.0000 23.7818 0.0000
# 6 0.0000 0.0000 0.0000 0.0000 0.0000 32.4659
#
#
#
# Elastic Compliance Matrix: (Units=1/GPa)
#
#
# Indices 1 2 3 4 5 6 
#
# 1 0.010307 -0.005585 -0.000818 0.000000 0.000000 0.000000
# 2 -0.005585 0.016223 -0.004427 0.000000 0.000000 0.000000
# 3 -0.000818 -0.004427 0.016216 0.000000 0.000000 0.000000
# 4 0.000000 0.000000 0.000000 0.051361 0.000000 0.000000
# 5 0.000000 0.000000 0.000000 0.000000 0.042049 0.000000
# 6 0.000000 0.000000 0.000000 0.000000 0.000000 0.030802
#
#
# Mechanical properties :
#
#
# Convention : Reuss Voigt Hill
#
# Bulk Modulus (GPa) = 47.42556 51.83224 49.62890
# Shear Modulus (GPa) = 25.55630 27.55890 26.55760
#
# Velocity S-wave (km/s) = 3.54683 3.68317 3.61564
# Velocity P-wave (km/s) = 6.33391 6.60317 6.46994
#
# Compressibility (1/GPa) = 0.02108567
#
# Stress axis : x y z
#
# Youngs Moduli (GPa) = 97.02590 61.64113 61.66584
#
# Poissons Ratio (x) = 0.34428 0.05042
# Poissons Ratio (y) = 0.54191 0.27301
# Poissons Ratio (z) = 0.07934 0.27290
#
# Static dielectric constant tensor:
#      x y z
#    x 3.855800 0.000000 0.000000 
#    y 0.000000 3.690600 0.000000 
#    z 0.000000 0.000000 3.421660 
# 
# 
# High freq. dielectric constant tensor:
#      x y z
#    x 1.804120 0.000000 0.000000 
#    y 0.000000 1.796320 0.000000 
#    z 0.000000 0.000000 1.775300 
# 
# From -- ./inp_files/36135.got.cif
#   From: 2010.03.12/outbox.cif.g09.slc.cpg/sg72_19_cif.got.tgz:36135.got - 2010.04.16 14:54:00.
