data_PCOD8294642
_publ_section_title
;
Structure prediction by ZEFSAII (Michael W. Deem and Ramdas Pophale) SiO2 
 PCOD8294642
Probable space group: I B A M
;
_chemical_formula_sum "Si O2"
_cell_formula_units_Z 92
_cell_length_a 14.405496
_cell_length_b 14.012716
_cell_length_c 20.912235
_cell_angle_alpha 90.000000
_cell_angle_beta 90.000000
_cell_angle_gamma 90.000000
_cell_volume 4221.346356
_symmetry_space_group_name_H-M "I B A M"
_symmetry_group_IT_number 72
_symmetry_cell_setting 'orthorhombic'
loop_
_space_group_symop_operation_xyz
x,y,z
-x,-y,z
x,-y,1/2-z
-x,y,1/2-z
-x,-y,-z
x,y,-z
-x,y,1/2+z
x,-y,1/2+z
1/2+x,1/2+y,1/2+z
1/2-x,1/2-y,1/2+z
1/2+x,1/2-y,-z
1/2-x,1/2+y,-z
1/2-x,1/2-y,1/2-z
1/2+x,1/2+y,1/2-z
1/2-x,1/2+y,z
1/2+x,1/2-y,z
loop_
_atom_site_type_symbol
_atom_site_label
_atom_site_fract_x
_atom_site_fract_y
_atom_site_fract_z
Si Si1 0.121579 0.086044 0.136982
Si Si2 0.946729 0.589736 0.390421
Si Si3 0.296166 0.013936 0.680324
Si Si4 0.821012 0.667332 0.500000
Si Si5 0.855422 0.951844 0.000000
Si Si6 0.000000 0.000000 0.750000
Si Si7 0.236168 0.642783 0.500000
Si Si8 0.371357 0.807362 0.874268
O O1 0.059115 0.063748 0.199641
O O2 0.147463 0.197449 0.140913
O O3 0.214517 0.022377 0.134341
O O4 0.080946 0.059801 0.065262
O O5 0.890449 0.547004 0.329958
O O6 0.872007 0.631916 0.437625
O O7 0.000000 0.500000 0.422788
O O8 0.017957 0.672798 0.369943
O O9 0.315878 0.126967 0.675733
O O10 0.255705 0.000000 0.750000
O O11 0.713246 0.638828 0.500000
O O12 0.820472 0.781822 0.500000
O O13 0.787978 0.042528 0.000000
O O14 0.166751 0.655409 0.441328
#
# Coordination Sequence:
#
# PCOD8294642 Si02
#       8
#    16  16  16   8   8   4   8  16
#     4  12  25  49  71 102 143 191 235 297 359 439
#     4  10  21  37  63  99 135 168 220 293 352 404
#     4  11  23  43  69  97 132 182 238 292 353 427
#     4  12  20  37  65  98 128 174 219 270 350 423
#     4  12  22  42  75  99 138 176 240 289 355 424
#     4  12  32  50  68  96 152 194 248 292 356 426
#     4  12  21  38  69 107 135 180 230 290 358 431
#     4  11  23  41  70 103 143 179 236 297 360 428
#
# _framework density 21.793996
#
# number of rings (size 3 to 8) (size 9 to 14) (size 15 to 20)
#    0.000    0.696    6.087    1.826    0.000    6.957 
#    3.130    0.000    0.000    0.000    0.000    0.000 
#    0.000    0.000    0.000    0.000    0.000    0.000 
#
# Total GULP energy -569988.687295 kJ/mol
# GULP energy per Si atom -12391.058419 kJ/mol
# Density = 2.174439 g / cm^3
# Si number density = 21.793996 Si / 1000 Ang^3
#
#
#
# Elastic Constant Matrix: (Units=GPa)
#
#
# Indices 1 2 3 4 5 6 
#
# 1 69.3643 27.6230 22.7646 0.0000 0.0000 0.0000
# 2 27.6230 121.0476 43.3207 0.0000 0.0000 0.0000
# 3 22.7646 43.3207 139.2203 0.0000 0.0000 0.0000
# 4 0.0000 0.0000 0.0000 6.2166 0.0000 0.0000
# 5 0.0000 0.0000 0.0000 0.0000 35.7924 0.0000
# 6 0.0000 0.0000 0.0000 0.0000 0.0000 32.3537
#
#
#
# Elastic Compliance Matrix: (Units=1/GPa)
#
#
# Indices 1 2 3 4 5 6 
#
# 1 0.016202 -0.003094 -0.001687 0.000000 0.000000 0.000000
# 2 -0.003094 0.009887 -0.002571 0.000000 0.000000 0.000000
# 3 -0.001687 -0.002571 0.008259 0.000000 0.000000 0.000000
# 4 0.000000 0.000000 0.000000 0.160859 0.000000 0.000000
# 5 0.000000 0.000000 0.000000 0.000000 0.027939 0.000000
# 6 0.000000 0.000000 0.000000 0.000000 0.000000 0.030908
#
#
# Mechanical properties :
#
#
# Convention : Reuss Voigt Hill
#
# Bulk Modulus (GPa) = 50.90133 57.44986 54.17559
# Shear Modulus (GPa) = 18.16167 30.60081 24.38124
#
# Velocity S-wave (km/s) = 2.88988 3.75119 3.34835
# Velocity P-wave (km/s) = 5.87721 6.72157 6.31352
#
# Compressibility (1/GPa) = 0.01964585
#
# Stress axis : x y z
#
# Youngs Moduli (GPa) = 61.72008 101.14087 121.08639
#
# Poissons Ratio (x) = 0.31290 0.20423
# Poissons Ratio (y) = 0.19094 0.31128
# Poissons Ratio (z) = 0.10410 0.26000
#
# Static dielectric constant tensor:
#      x y z
#    x 3.888320 0.000000 0.000000 
#    y 0.000000 4.007900 0.000000 
#    z 0.000000 0.000000 4.033650 
# 
# 
# High freq. dielectric constant tensor:
#      x y z
#    x 1.848770 0.000000 0.000000 
#    y 0.000000 1.860810 0.000000 
#    z 0.000000 0.000000 1.858570 
# 
# From -- ./inp_files/38104.got.cif
#   From: 2010.03.12/outbox.cif.g09.slc.cpg/sg72_20_cif.got.tgz:38104.got - 2010.04.16 14:54:00.
