data_PCOD8294968
_publ_section_title
;
Structure prediction by ZEFSAII (Michael W. Deem and Ramdas Pophale) SiO2 
 PCOD8294968
Probable space group: I B A M
;
_chemical_formula_sum "Si O2"
_cell_formula_units_Z 80
_cell_length_a 9.770072
_cell_length_b 16.800592
_cell_length_c 22.989097
_cell_angle_alpha 90.000000
_cell_angle_beta 90.000000
_cell_angle_gamma 90.000000
_cell_volume 3773.499199
_symmetry_space_group_name_H-M "I B A M"
_symmetry_group_IT_number 72
_symmetry_cell_setting 'orthorhombic'
loop_
_space_group_symop_operation_xyz
x,y,z
-x,-y,z
x,-y,1/2-z
-x,y,1/2-z
-x,-y,-z
x,y,-z
-x,y,1/2+z
x,-y,1/2+z
1/2+x,1/2+y,1/2+z
1/2-x,1/2-y,1/2+z
1/2+x,1/2-y,-z
1/2-x,1/2+y,-z
1/2-x,1/2-y,1/2-z
1/2+x,1/2+y,1/2-z
1/2-x,1/2+y,z
1/2+x,1/2-y,z
loop_
_atom_site_type_symbol
_atom_site_label
_atom_site_fract_x
_atom_site_fract_y
_atom_site_fract_z
Si Si1 0.430026 0.339711 0.000000
Si Si2 0.385752 0.811905 0.000000
Si Si3 0.009905 0.140303 0.877992
Si Si4 0.463777 0.172912 0.375729
Si Si5 0.279964 0.916449 0.674800
Si Si6 0.236828 0.096899 0.693342
O O1 0.551311 0.275506 0.000000
O O2 0.453372 0.390302 0.940837
O O3 0.278455 0.302097 0.000000
O O4 0.437280 0.857201 0.941961
O O5 0.920283 0.100862 0.827052
O O6 0.994117 0.235263 0.874515
O O7 0.164610 0.110977 0.870597
O O8 0.577818 0.119302 0.346005
O O9 0.323901 0.163940 0.339694
O O10 0.241929 0.883961 0.738485
O O11 0.297831 0.011027 0.677276
#
# Coordination Sequence:
#
# PCOD8294968 Si02
#       6
#     8   8  16  16  16  16
#     4  10  22  40  65  93 128 164 202 261 322 370
#     4  10  22  40  65  93 128 164 202 261 322 370
#     4  11  23  40  66  93 124 161 213 262 305 372
#     4  11  23  40  66  93 124 161 213 262 305 372
#     4  11  25  40  63  92 126 175 200 253 326 371
#     4  11  23  44  61  88 134 165 208 253 316 383
#
# _framework density 21.200479999999999
#
# number of rings (size 3 to 8) (size 9 to 14) (size 15 to 20)
#    0.000    1.200    2.000    3.600    8.400    8.000 
#    0.000    6.000    0.000    0.000    0.000    0.000 
#    0.000    0.000    0.000    0.000    0.000    0.000 
#
# Total GULP energy -496129.239474 kJ/mol
# GULP energy per Si atom -12403.230987 kJ/mol
# Density = 2.115223 g / cm^3
# Si number density = 21.200480 Si / 1000 Ang^3
#
#
#
# Elastic Constant Matrix: (Units=GPa)
#
#
# Indices 1 2 3 4 5 6 
#
# 1 89.3739 3.1250 31.2804 0.0000 0.0000 0.0000
# 2 3.1250 48.2701 22.5712 0.0000 0.0000 0.0000
# 3 31.2804 22.5712 151.0876 0.0000 0.0000 0.0000
# 4 0.0000 0.0000 0.0000 6.4176 0.0000 0.0000
# 5 0.0000 0.0000 0.0000 0.0000 44.0491 0.0000
# 6 0.0000 0.0000 0.0000 0.0000 0.0000 33.2457
#
#
#
# Elastic Compliance Matrix: (Units=1/GPa)
#
#
# Indices 1 2 3 4 5 6 
#
# 1 0.012071 0.000416 -0.002561 0.000000 0.000000 0.000000
# 2 0.000416 0.022287 -0.003416 0.000000 0.000000 0.000000
# 3 -0.002561 -0.003416 0.007659 0.000000 0.000000 0.000000
# 4 0.000000 0.000000 0.000000 0.155822 0.000000 0.000000
# 5 0.000000 0.000000 0.000000 0.000000 0.022702 0.000000
# 6 0.000000 0.000000 0.000000 0.000000 0.000000 0.030079
#
#
# Mechanical properties :
#
#
# Convention : Reuss Voigt Hill
#
# Bulk Modulus (GPa) = 32.36709 44.74276 38.55493
# Shear Modulus (GPa) = 18.37966 32.19282 25.28624
#
# Velocity S-wave (km/s) = 2.94759 3.90101 3.45732
# Velocity P-wave (km/s) = 5.18504 6.43747 5.84490
#
# Compressibility (1/GPa) = 0.03089558
#
# Stress axis : x y z
#
# Youngs Moduli (GPa) = 82.84443 44.86927 130.56171
#
# Poissons Ratio (x) = -0.01867 0.33440
# Poissons Ratio (y) = -0.03448 0.44595
# Poissons Ratio (z) = 0.21219 0.15326
#
# Static dielectric constant tensor:
#      x y z
#    x 3.755550 0.000000 0.000000 
#    y 0.000000 3.522240 0.000000 
#    z 0.000000 0.000000 4.385880 
# 
# 
# High freq. dielectric constant tensor:
#      x y z
#    x 1.845680 0.000000 0.000000 
#    y 0.000000 1.804620 0.000000 
#    z 0.000000 0.000000 1.851270 
# 
# From -- ./inp_files/47232.got.cif
#   From: 2010.03.12/outbox.cif.g09.slc.cpg/sg72_24_cif.got.tgz:47232.got - 2010.04.16 14:54:00.
