data_PCOD8294791
_publ_section_title
;
Structure prediction by ZEFSAII (Michael W. Deem and Ramdas Pophale) SiO2 
 PCOD8294791
Probable space group: I B A M
;
_chemical_formula_sum "Si O2"
_cell_formula_units_Z 96
_cell_length_a 23.032233
_cell_length_b 11.149529
_cell_length_c 18.501977
_cell_angle_alpha 90.000000
_cell_angle_beta 90.000000
_cell_angle_gamma 90.000000
_cell_volume 4751.280861
_symmetry_space_group_name_H-M "I B A M"
_symmetry_group_IT_number 72
_symmetry_cell_setting 'orthorhombic'
loop_
_space_group_symop_operation_xyz
x,y,z
-x,-y,z
x,-y,1/2-z
-x,y,1/2-z
-x,-y,-z
x,y,-z
-x,y,1/2+z
x,-y,1/2+z
1/2+x,1/2+y,1/2+z
1/2-x,1/2-y,1/2+z
1/2+x,1/2-y,-z
1/2-x,1/2+y,-z
1/2-x,1/2-y,1/2-z
1/2+x,1/2+y,1/2-z
1/2-x,1/2+y,z
1/2+x,1/2-y,z
loop_
_atom_site_type_symbol
_atom_site_label
_atom_site_fract_x
_atom_site_fract_y
_atom_site_fract_z
Si Si1 0.118576 0.936076 0.323353
Si Si2 0.335574 0.870715 0.582239
Si Si3 0.259568 0.374389 0.705123
Si Si4 0.021192 0.247039 0.174465
Si Si5 0.063756 0.553515 0.581148
Si Si6 0.914773 0.848229 0.581921
O O1 0.177736 0.860350 0.335047
O O2 0.059834 0.866534 0.306797
O O3 0.134464 0.000000 0.250000
O O4 0.105942 0.023616 0.389839
O O5 0.314483 0.898611 0.500000
O O6 0.284957 0.885829 0.639240
O O7 0.358656 0.735594 0.586783
O O8 0.388558 0.957437 0.604692
O O9 0.252976 0.500000 0.750000
O O10 0.250000 0.250000 0.750000
O O11 0.066127 0.334638 0.134592
O O12 0.000000 0.304738 0.250000
O O13 0.967283 0.209777 0.125704
O O14 0.075368 0.598729 0.500000
O O15 0.000000 0.500000 0.588381
O O16 0.936768 0.862473 0.500000
#
# Coordination Sequence:
#
# PCOD8294791 Si02
#       6
#    16  16  16  16  16  16
#     4  11  24  43  62  92 130 166 215 265 326 381
#     4  10  22  43  68  93 128 173 217 266 329 392
#     4  11  26  45  70  95 133 177 225 281 331 389
#     4  12  24  37  65  95 130 164 212 265 329 396
#     4  10  21  40  62  90 129 168 211 268 323 384
#     4  11  23  42  67  94 130 171 208 260 334 399
#
# _framework density 20.205078
#
# number of rings (size 3 to 8) (size 9 to 14) (size 15 to 20)
#    0.000    1.167    3.333    3.000    2.333    3.000 
#    0.000    0.833    0.000    0.000    0.000    0.000 
#    0.000    0.000    0.000    0.000    0.000    0.000 
#
# Total GULP energy -594981.350081 kJ/mol
# GULP energy per Si atom -12395.444793 kJ/mol
# Density = 2.015909 g / cm^3
# Si number density = 20.205078 Si / 1000 Ang^3
#
#
#
# Elastic Constant Matrix: (Units=GPa)
#
#
# Indices 1 2 3 4 5 6 
#
# 1 84.2477 15.5497 57.7561 0.0000 0.0000 0.0000
# 2 15.5497 87.6193 35.1155 0.0000 0.0000 0.0000
# 3 57.7561 35.1155 119.5551 0.0000 0.0000 0.0000
# 4 0.0000 0.0000 0.0000 34.9297 0.0000 0.0000
# 5 0.0000 0.0000 0.0000 0.0000 38.1604 0.0000
# 6 0.0000 0.0000 0.0000 0.0000 0.0000 25.1482
#
#
#
# Elastic Compliance Matrix: (Units=1/GPa)
#
#
# Indices 1 2 3 4 5 6 
#
# 1 0.017756 0.000325 -0.008673 0.000000 0.000000 0.000000
# 2 0.000325 0.012942 -0.003958 0.000000 0.000000 0.000000
# 3 -0.008673 -0.003958 0.013717 0.000000 0.000000 0.000000
# 4 0.000000 0.000000 0.000000 0.028629 0.000000 0.000000
# 5 0.000000 0.000000 0.000000 0.000000 0.026205 0.000000
# 6 0.000000 0.000000 0.000000 0.000000 0.000000 0.039764
#
#
# Mechanical properties :
#
#
# Convention : Reuss Voigt Hill
#
# Bulk Modulus (GPa) = 50.50130 56.47384 53.48757
# Shear Modulus (GPa) = 29.37281 31.84772 30.61027
#
# Velocity S-wave (km/s) = 3.81692 3.97448 3.89650
# Velocity P-wave (km/s) = 6.66887 7.00521 6.83911
#
# Compressibility (1/GPa) = 0.01980147
#
# Stress axis : x y z
#
# Youngs Moduli (GPa) = 56.32034 77.26978 72.90352
#
# Poissons Ratio (x) = -0.02510 0.63229
# Poissons Ratio (y) = -0.01830 0.28856
# Poissons Ratio (z) = 0.48847 0.30584
#
# Static dielectric constant tensor:
#      x y z
#    x 3.835970 0.000000 0.000000 
#    y 0.000000 0.885400 0.000000 
#    z 0.000000 0.000000 3.804620 
# 
# 
# High freq. dielectric constant tensor:
#      x y z
#    x 1.796040 0.000000 0.000000 
#    y 0.000000 1.788300 0.000000 
#    z 0.000000 0.000000 1.796120 
# 
# From -- ./inp_files/33271.got.cif
#   From: 2010.03.12/outbox.cif.g09.slc.cpg/sg72_17_cif.got.tgz:33271.got - 2010.04.16 14:54:00.
