data_PCOD8294861
_publ_section_title
;
Structure prediction by ZEFSAII (Michael W. Deem and Ramdas Pophale) SiO2 
 PCOD8294861
Probable space group: I B A M
;
_chemical_formula_sum "Si O2"
_cell_formula_units_Z 68
_cell_length_a 9.886148
_cell_length_b 15.820523
_cell_length_c 19.852550
_cell_angle_alpha 90.000000
_cell_angle_beta 90.000000
_cell_angle_gamma 90.000000
_cell_volume 3105.018862
_symmetry_space_group_name_H-M "I B A M"
_symmetry_group_IT_number 72
_symmetry_cell_setting 'orthorhombic'
loop_
_space_group_symop_operation_xyz
x,y,z
-x,-y,z
x,-y,1/2-z
-x,y,1/2-z
-x,-y,-z
x,y,-z
-x,y,1/2+z
x,-y,1/2+z
1/2+x,1/2+y,1/2+z
1/2-x,1/2-y,1/2+z
1/2+x,1/2-y,-z
1/2-x,1/2+y,-z
1/2-x,1/2-y,1/2-z
1/2+x,1/2+y,1/2-z
1/2-x,1/2+y,z
1/2+x,1/2-y,z
loop_
_atom_site_type_symbol
_atom_site_label
_atom_site_fract_x
_atom_site_fract_y
_atom_site_fract_z
Si Si1 0.933091 0.796030 0.500000
Si Si2 0.976488 0.903251 0.370317
Si Si3 0.379108 0.268834 0.294454
Si Si4 0.864547 0.353014 0.500000
Si Si5 0.328371 0.893098 0.143571
Si Si6 0.000000 0.500000 0.250000
O O1 0.985887 0.847393 0.436331
O O2 0.769019 0.792082 0.500000
O O3 0.997554 0.702143 0.500000
O O4 0.829335 0.898133 0.335932
O O5 0.091317 0.865141 0.319474
O O6 0.000000 0.000000 0.388312
O O7 0.500000 0.234836 0.250000
O O8 0.250000 0.250000 0.250000
O O9 0.372019 0.205570 0.357675
O O10 0.858009 0.416855 0.565155
O O11 0.408092 0.945289 0.199814
#
# Coordination Sequence:
#
# PCOD8294861 Si02
#       6
#     8  16  16   8  16   4
#     4  10  21  44  70 104 136 185 236 295 356 435
#     4  11  25  43  71 102 142 181 245 300 359 422
#     4  12  24  41  66  97 137 184 235 282 357 428
#     4  10  22  45  74 102 140 183 246 288 359 439
#     4  11  25  45  70 105 140 192 237 301 358 437
#     4  12  28  46  70 100 162 178 246 296 368 422
#
# _framework density 21.900029
#
# number of rings (size 3 to 8) (size 9 to 14) (size 15 to 20)
#    0.000    0.941    5.882    0.353    3.294    0.941 
#    4.235    0.000    0.000    0.000    0.000    0.000 
#    0.000    0.000    0.000    0.000    0.000    0.000 
#
# Total GULP energy -421219.533169 kJ/mol
# GULP energy per Si atom -12388.809799 kJ/mol
# Density = 2.185018 g / cm^3
# Si number density = 21.900029 Si / 1000 Ang^3
#
#
#
# Elastic Constant Matrix: (Units=GPa)
#
#
# Indices 1 2 3 4 5 6 
#
# 1 129.4670 33.3253 53.6574 0.0000 0.0000 0.0000
# 2 33.3253 87.8938 35.0767 0.0000 0.0000 0.0000
# 3 53.6574 35.0767 139.5410 0.0000 0.0000 0.0000
# 4 0.0000 0.0000 0.0000 -27.5348 0.0000 0.0000
# 5 0.0000 0.0000 0.0000 0.0000 33.4839 0.0000
# 6 0.0000 0.0000 0.0000 0.0000 0.0000 13.5206
#
#
#
# Elastic Compliance Matrix: (Units=1/GPa)
#
#
# Indices 1 2 3 4 5 6 
#
# 1 0.009629 -0.002415 -0.003095 0.000000 0.000000 0.000000
# 2 -0.002415 0.013252 -0.002402 0.000000 0.000000 0.000000
# 3 -0.003095 -0.002402 0.008960 0.000000 0.000000 0.000000
# 4 0.000000 0.000000 0.000000 -0.036318 0.000000 0.000000
# 5 0.000000 0.000000 0.000000 0.000000 0.029865 0.000000
# 6 0.000000 0.000000 0.000000 0.000000 0.000000 0.073961
#
#
# Mechanical properties :
#
#
# Convention : Reuss Voigt Hill
#
# Bulk Modulus (GPa) = 62.44229 66.78007 64.61118
# Shear Modulus (GPa) = 41.48891 19.55009 30.51950
#
# Velocity S-wave (km/s) = 4.35727 2.99105 3.73712
# Velocity P-wave (km/s) = 7.34090 6.51827 6.94178
#
# Compressibility (1/GPa) = 0.01601479
#
# Stress axis : x y z
#
# Youngs Moduli (GPa) = 103.85780 75.46078 111.60142
#
# Poissons Ratio (x) = 0.18227 0.34544
# Poissons Ratio (y) = 0.25086 0.26811
# Poissons Ratio (z) = 0.32147 0.18128
#
# Static dielectric constant tensor:
#      x y z
#    x 3.976960 0.000000 0.000000 
#    y 0.000000 3.847240 0.000000 
#    z 0.000000 0.000000 4.290820 
# 
# 
# High freq. dielectric constant tensor:
#      x y z
#    x 1.865120 0.000000 0.000000 
#    y 0.000000 1.838050 0.000000 
#    z 0.000000 0.000000 1.887170 
# 
# From -- ./inp_files/35522.got.cif
#   From: 2010.03.12/outbox.cif.g09.slc.cpg/sg72_18_cif.got.tgz:35522.got - 2010.04.16 14:54:00.
