data_PCOD8294740
_publ_section_title
;
Structure prediction by ZEFSAII (Michael W. Deem and Ramdas Pophale) SiO2 
 PCOD8294740
Probable space group: I B A M
;
_chemical_formula_sum "Si O2"
_cell_formula_units_Z 80
_cell_length_a 10.112733
_cell_length_b 16.371298
_cell_length_c 27.003455
_cell_angle_alpha 90.000000
_cell_angle_beta 90.000000
_cell_angle_gamma 90.000000
_cell_volume 4470.653274
_symmetry_space_group_name_H-M "I B A M"
_symmetry_group_IT_number 72
_symmetry_cell_setting 'orthorhombic'
loop_
_space_group_symop_operation_xyz
x,y,z
-x,-y,z
x,-y,1/2-z
-x,y,1/2-z
-x,-y,-z
x,y,-z
-x,y,1/2+z
x,-y,1/2+z
1/2+x,1/2+y,1/2+z
1/2-x,1/2-y,1/2+z
1/2+x,1/2-y,-z
1/2-x,1/2+y,-z
1/2-x,1/2-y,1/2-z
1/2+x,1/2+y,1/2-z
1/2-x,1/2+y,z
1/2+x,1/2-y,z
loop_
_atom_site_type_symbol
_atom_site_label
_atom_site_fract_x
_atom_site_fract_y
_atom_site_fract_z
Si Si1 0.487500 0.762099 0.888254
Si Si2 0.591518 0.068051 0.387784
Si Si3 0.781243 0.995996 0.193146
Si Si4 0.268618 0.800771 0.557595
Si Si5 0.011394 0.869484 0.193413
O O1 0.495809 0.856972 0.871006
O O2 0.602121 0.746341 0.929423
O O3 0.349920 0.739287 0.912549
O O4 0.512825 0.710697 0.839334
O O5 0.703823 0.104980 0.424816
O O6 0.500000 0.000000 0.415070
O O7 0.655053 0.021306 0.340988
O O8 0.853822 0.081547 0.181433
O O9 0.734346 0.000000 0.250000
O O10 0.884539 0.924261 0.181962
O O11 0.236325 0.799069 0.500000
O O12 0.000000 0.840977 0.250000
#
# Coordination Sequence:
#
# PCOD8294740 Si02
#       5
#    16  16  16  16  16
#     4  10  21  39  62  86 119 154 202 247 293 356
#     4  10  23  37  56  85 119 155 194 244 298 347
#     4   9  18  36  57  83 119 155 193 240 295 353
#     4  10  22  40  62  86 115 155 201 247 299 347
#     4   9  17  34  62  85 111 156 197 241 296 355
#
# _framework density 17.894476000000001
#
# number of rings (size 3 to 8) (size 9 to 14) (size 15 to 20)
#    1.200    1.200    2.000    1.800    2.800    0.800 
#    3.600    3.000    0.000    1.200    0.000    0.000 
#    0.000    0.000    0.000    0.000    0.000    0.000 
#
# Total GULP energy -495587.475440 kJ/mol
# GULP energy per Si atom -12389.686886 kJ/mol
# Density = 1.785375 g / cm^3
# Si number density = 17.894476 Si / 1000 Ang^3
#
#
#
# Elastic Constant Matrix: (Units=GPa)
#
#
# Indices 1 2 3 4 5 6 
#
# 1 94.3915 40.2941 27.0833 0.0000 0.0000 0.0000
# 2 40.2941 113.3015 46.9438 0.0000 0.0000 0.0000
# 3 27.0833 46.9438 76.1949 0.0000 0.0000 0.0000
# 4 0.0000 0.0000 0.0000 23.1563 0.0000 0.0000
# 5 0.0000 0.0000 0.0000 0.0000 20.7272 0.0000
# 6 0.0000 0.0000 0.0000 0.0000 0.0000 20.2453
#
#
#
# Elastic Compliance Matrix: (Units=1/GPa)
#
#
# Indices 1 2 3 4 5 6 
#
# 1 0.012794 -0.003580 -0.002342 0.000000 0.000000 0.000000
# 2 -0.003580 0.012853 -0.006646 0.000000 0.000000 0.000000
# 3 -0.002342 -0.006646 0.018052 0.000000 0.000000 0.000000
# 4 0.000000 0.000000 0.000000 0.043185 0.000000 0.000000
# 5 0.000000 0.000000 0.000000 0.000000 0.048246 0.000000
# 6 0.000000 0.000000 0.000000 0.000000 0.000000 0.049394
#
#
# Mechanical properties :
#
#
# Convention : Reuss Voigt Hill
#
# Bulk Modulus (GPa) = 53.87260 56.94781 55.41021
# Shear Modulus (GPa) = 23.16455 24.13021 23.64738
#
# Velocity S-wave (km/s) = 3.60183 3.67614 3.63917
# Velocity P-wave (km/s) = 6.88975 7.06484 6.97785
#
# Compressibility (1/GPa) = 0.01856231
#
# Stress axis : x y z
#
# Youngs Moduli (GPa) = 78.15959 77.80423 55.39697
#
# Poissons Ratio (x) = 0.27851 0.12976
# Poissons Ratio (y) = 0.27979 0.36818
# Poissons Ratio (z) = 0.18307 0.51710
#
# Static dielectric constant tensor:
#      x y z
#    x 3.267000 0.000000 0.000000 
#    y 0.000000 3.192870 0.000000 
#    z 0.000000 0.000000 3.103450 
# 
# 
# High freq. dielectric constant tensor:
#      x y z
#    x 1.695210 0.000000 0.000000 
#    y 0.000000 1.685600 0.000000 
#    z 0.000000 0.000000 1.677600 
# 
# From -- ./inp_files/47983.got.cif
#   From: 2010.03.12/outbox.cif.g09.slc.cpg/sg72_24_cif.got.tgz:47983.got - 2010.04.16 14:54:00.
