data_PCOD8294718
_publ_section_title
;
Structure prediction by ZEFSAII (Michael W. Deem and Ramdas Pophale) SiO2 
 PCOD8294718
Probable space group: I B A M
;
_chemical_formula_sum "Si O2"
_cell_formula_units_Z 96
_cell_length_a 19.974866
_cell_length_b 14.223012
_cell_length_c 15.358879
_cell_angle_alpha 90.000000
_cell_angle_beta 90.000000
_cell_angle_gamma 90.000000
_cell_volume 4363.499896
_symmetry_space_group_name_H-M "I B A M"
_symmetry_group_IT_number 72
_symmetry_cell_setting 'orthorhombic'
loop_
_space_group_symop_operation_xyz
x,y,z
-x,-y,z
x,-y,1/2-z
-x,y,1/2-z
-x,-y,-z
x,y,-z
-x,y,1/2+z
x,-y,1/2+z
1/2+x,1/2+y,1/2+z
1/2-x,1/2-y,1/2+z
1/2+x,1/2-y,-z
1/2-x,1/2+y,-z
1/2-x,1/2-y,1/2-z
1/2+x,1/2+y,1/2-z
1/2-x,1/2+y,z
1/2+x,1/2-y,z
loop_
_atom_site_type_symbol
_atom_site_label
_atom_site_fract_x
_atom_site_fract_y
_atom_site_fract_z
Si Si1 0.213368 0.988439 0.396953
Si Si2 0.932940 0.053946 0.103183
Si Si3 0.393135 0.759012 0.598040
Si Si4 0.248442 0.714799 0.151295
Si Si5 0.572759 0.889905 0.749668
Si Si6 0.329473 0.868745 0.903766
O O1 0.212530 0.974280 0.500000
O O2 0.243222 0.896998 0.350061
O O3 0.137381 0.009226 0.362403
O O4 0.266232 0.069581 0.370447
O O5 0.933384 0.165167 0.128986
O O6 0.932966 0.046164 0.000000
O O7 0.000000 0.000000 0.140260
O O8 0.416110 0.787437 0.500000
O O9 0.314263 0.740310 0.599173
O O10 0.394891 0.847631 0.663528
O O11 0.250000 0.750000 0.250000
O O12 0.309275 0.759437 0.097057
O O13 0.500000 0.843141 0.750000
O O14 0.608499 0.867716 0.660276
O O15 0.568965 0.000000 0.750000
O O16 0.353204 0.900170 0.000000
#
# Coordination Sequence:
#
# PCOD8294718 Si02
#       6
#    16  16  16  16  16  16
#     4  10  21  38  65  98 132 173 226 280 342 411
#     4   9  19  38  66 100 137 178 224 277 340 416
#     4  11  22  43  70  98 137 182 226 279 352 421
#     4  12  23  38  65  98 135 174 221 283 343 403
#     4  11  26  45  65  95 133 173 229 288 342 415
#     4  11  23  42  68  97 129 172 228 286 340 406
#
# _framework density 22.000688
#
# number of rings (size 3 to 8) (size 9 to 14) (size 15 to 20)
#    0.000    1.333    3.333    2.500    0.000    4.000 
#    0.000    3.333    0.000    0.000    0.000    0.000 
#    0.000    0.667    0.000    0.000    0.000    0.000 
#
# Total GULP energy -594689.902966 kJ/mol
# GULP energy per Si atom -12389.372978 kJ/mol
# Density = 2.195061 g / cm^3
# Si number density = 22.000688 Si / 1000 Ang^3
#
#
#
# Elastic Constant Matrix: (Units=GPa)
#
#
# Indices 1 2 3 4 5 6 
#
# 1 141.5772 43.2659 47.6981 0.0000 0.0000 0.0000
# 2 43.2659 113.7580 43.9882 0.0000 0.0000 0.0000
# 3 47.6981 43.9882 110.6652 0.0000 0.0000 0.0000
# 4 0.0000 0.0000 0.0000 -207.9591 0.0000 0.0000
# 5 0.0000 0.0000 0.0000 0.0000 27.1189 0.0000
# 6 0.0000 0.0000 0.0000 0.0000 0.0000 34.4971
#
#
#
# Elastic Compliance Matrix: (Units=1/GPa)
#
#
# Indices 1 2 3 4 5 6 
#
# 1 0.008705 -0.002198 -0.002878 0.000000 0.000000 0.000000
# 2 -0.002198 0.010942 -0.003402 0.000000 0.000000 0.000000
# 3 -0.002878 -0.003402 0.011629 0.000000 0.000000 0.000000
# 4 0.000000 0.000000 0.000000 -0.004809 0.000000 0.000000
# 5 0.000000 0.000000 0.000000 0.000000 0.036875 0.000000
# 6 0.000000 0.000000 0.000000 0.000000 0.000000 0.028988
#
#
# Mechanical properties :
#
#
# Convention : Reuss Voigt Hill
#
# Bulk Modulus (GPa) = 69.83399 70.65607 70.24503
# Shear Modulus (GPa) = 43.83704 -13.86540 14.98582
#
# Velocity S-wave (km/s) = 4.46862 -2.51315 2.61272
# Velocity P-wave (km/s) = 7.64430 4.87482 6.41090
#
# Compressibility (1/GPa) = 0.01431967
#
# Stress axis : x y z
#
# Youngs Moduli (GPa) = 114.88199 91.39121 85.99112
#
# Poissons Ratio (x) = 0.20085 0.24750
# Poissons Ratio (y) = 0.25247 0.29255
# Poissons Ratio (z) = 0.33066 0.31092
#
# Static dielectric constant tensor:
#      x y z
#    x 8.082490 0.000000 0.000000 
#    y 0.000000 4.002170 0.000000 
#    z 0.000000 0.000000 2.782260 
# 
# 
# High freq. dielectric constant tensor:
#      x y z
#    x 1.862940 0.000000 0.000000 
#    y 0.000000 1.870970 0.000000 
#    z 0.000000 0.000000 1.856560 
# 
# From -- ./inp_files/24161.got.cif
#   From: 2010.03.12/outbox.cif.g09.slc.cpg/sg72_13_cif.got.tgz:24161.got - 2010.04.16 14:54:00.
