data_PCOD8294447
_publ_section_title
;
Structure prediction by ZEFSAII (Michael W. Deem and Ramdas Pophale) SiO2 
 PCOD8294447
Probable space group: I B A M
;
_chemical_formula_sum "Si O2"
_cell_formula_units_Z 72
_cell_length_a 14.991593
_cell_length_b 8.755302
_cell_length_c 25.925623
_cell_angle_alpha 90.000000
_cell_angle_beta 90.000000
_cell_angle_gamma 90.000000
_cell_volume 3402.891607
_symmetry_space_group_name_H-M "I B A M"
_symmetry_group_IT_number 72
_symmetry_cell_setting 'orthorhombic'
loop_
_space_group_symop_operation_xyz
x,y,z
-x,-y,z
x,-y,1/2-z
-x,y,1/2-z
-x,-y,-z
x,y,-z
-x,y,1/2+z
x,-y,1/2+z
1/2+x,1/2+y,1/2+z
1/2-x,1/2-y,1/2+z
1/2+x,1/2-y,-z
1/2-x,1/2+y,-z
1/2-x,1/2-y,1/2-z
1/2+x,1/2+y,1/2-z
1/2-x,1/2+y,z
1/2+x,1/2-y,z
loop_
_atom_site_type_symbol
_atom_site_label
_atom_site_fract_x
_atom_site_fract_y
_atom_site_fract_z
Si Si1 0.000000 0.000000 0.250000
Si Si2 0.128959 0.733262 0.611401
Si Si3 0.628046 0.866938 0.000000
Si Si4 0.063992 0.289700 0.000000
Si Si5 0.500000 0.000000 0.250000
Si Si6 0.694314 0.113582 0.391089
Si Si7 0.550378 0.248921 0.322990
O O1 0.062483 0.102388 0.287117
O O2 0.103475 0.779246 0.552821
O O3 0.205693 0.852499 0.628795
O O4 0.165013 0.560491 0.617150
O O5 0.045692 0.752924 0.649235
O O6 0.542211 0.755327 0.000000
O O7 0.690776 0.839417 0.048942
O O8 0.585258 0.032789 0.000000
O O9 0.437741 0.896616 0.285912
O O10 0.628186 0.234693 0.364315
#
# Coordination Sequence:
#
# PCOD8294447 Si02
#       7
#     4  16   8   8   4  16  16
#     4  10  28  42  70  88 120 160 204 286 310 360
#     4  11  22  38  65  95 129 166 204 249 302 373
#     4   9  17  34  61  94 127 166 203 238 297 370
#     4   9  17  34  61  94 127 166 203 238 297 370
#     4  10  20  42  70  84 108 164 216 254 306 372
#     4  11  22  38  65  95 129 166 204 249 302 373
#     4  11  22  45  65  88 123 162 208 256 324 363
#
# _framework density 21.158476
#
# number of rings (size 3 to 8) (size 9 to 14) (size 15 to 20)
#    0.000    1.556    4.444    0.667    3.111    0.000 
#    0.000    6.667    0.000    2.667    0.000    0.000 
#    0.000    0.000    0.000    0.000    0.000    0.000 
#
# Total GULP energy -446258.064178 kJ/mol
# GULP energy per Si atom -12396.057338 kJ/mol
# Density = 2.111032 g / cm^3
# Si number density = 21.158476 Si / 1000 Ang^3
#
#
#
# Elastic Constant Matrix: (Units=GPa)
#
#
# Indices 1 2 3 4 5 6 
#
# 1 114.7277 12.0924 32.9802 0.0000 0.0000 0.0000
# 2 12.0924 70.4481 38.0601 0.0000 0.0000 0.0000
# 3 32.9802 38.0601 120.3830 0.0000 0.0000 0.0000
# 4 0.0000 0.0000 0.0000 17.5548 0.0000 0.0000
# 5 0.0000 0.0000 0.0000 0.0000 -1.1518 0.0000
# 6 0.0000 0.0000 0.0000 0.0000 0.0000 23.9395
#
#
#
# Elastic Compliance Matrix: (Units=1/GPa)
#
#
# Indices 1 2 3 4 5 6 
#
# 1 0.009466 -0.000270 -0.002508 0.000000 0.000000 0.000000
# 2 -0.000270 0.017127 -0.005341 0.000000 0.000000 0.000000
# 3 -0.002508 -0.005341 0.010682 0.000000 0.000000 0.000000
# 4 0.000000 0.000000 0.000000 0.056964 0.000000 0.000000
# 5 0.000000 0.000000 0.000000 0.000000 -0.868193 0.000000
# 6 0.000000 0.000000 0.000000 0.000000 0.000000 0.041772
#
#
# Mechanical properties :
#
#
# Convention : Reuss Voigt Hill
#
# Bulk Modulus (GPa) = 47.53402 52.42492 49.97947
# Shear Modulus (GPa) = -7.05286 22.89691 7.92203
#
# Velocity S-wave (km/s) = -1.82773 3.29319 1.93708
# Velocity P-wave (km/s) = 4.24975 6.26827 5.35498
#
# Compressibility (1/GPa) = 0.02103756
#
# Stress axis : x y z
#
# Youngs Moduli (GPa) = 105.64501 58.38879 93.61181
#
# Poissons Ratio (x) = 0.01576 0.23477
# Poissons Ratio (y) = 0.02851 0.49996
# Poissons Ratio (z) = 0.26495 0.31184
#
# Static dielectric constant tensor:
#      x y z
#    x 3.640610 0.000000 0.000000 
#    y 0.000000 3.653470 0.000000 
#    z 0.000000 0.000000 4.131510 
# 
# 
# High freq. dielectric constant tensor:
#      x y z
#    x 1.814680 0.000000 0.000000 
#    y 0.000000 1.811650 0.000000 
#    z 0.000000 0.000000 1.842700 
# 
# From -- ./inp_files/51680.got.cif
#   From: 2010.03.12/outbox.cif.g09.slc.cpg/sg72_26_cif.got.tgz:51680.got - 2010.04.16 14:54:00.
