data_PCOD8294541
_publ_section_title
;
Structure prediction by ZEFSAII (Michael W. Deem and Ramdas Pophale) SiO2 
 PCOD8294541
Probable space group: I B A M
;
_chemical_formula_sum "Si O2"
_cell_formula_units_Z 96
_cell_length_a 8.638186
_cell_length_b 25.590057
_cell_length_c 22.495523
_cell_angle_alpha 90.000000
_cell_angle_beta 90.000000
_cell_angle_gamma 90.000000
_cell_volume 4972.672974
_symmetry_space_group_name_H-M "I B A M"
_symmetry_group_IT_number 72
_symmetry_cell_setting 'orthorhombic'
loop_
_space_group_symop_operation_xyz
x,y,z
-x,-y,z
x,-y,1/2-z
-x,y,1/2-z
-x,-y,-z
x,y,-z
-x,y,1/2+z
x,-y,1/2+z
1/2+x,1/2+y,1/2+z
1/2-x,1/2-y,1/2+z
1/2+x,1/2-y,-z
1/2-x,1/2+y,-z
1/2-x,1/2-y,1/2-z
1/2+x,1/2+y,1/2-z
1/2-x,1/2+y,z
1/2+x,1/2-y,z
loop_
_atom_site_type_symbol
_atom_site_label
_atom_site_fract_x
_atom_site_fract_y
_atom_site_fract_z
Si Si1 0.089959 0.281665 0.311748
Si Si2 0.674808 0.000282 0.566796
Si Si3 0.719611 0.817991 0.647559
Si Si4 0.859394 0.895864 0.566847
Si Si5 0.094218 0.948046 0.652211
Si Si6 0.328732 0.359910 0.262043
O O1 0.168249 0.229267 0.334748
O O2 0.229990 0.323120 0.306076
O O3 0.000000 0.271988 0.250000
O O4 0.960341 0.301321 0.358542
O O5 0.693332 0.022843 0.500000
O O6 0.735397 0.941690 0.569152
O O7 0.500000 0.000000 0.588167
O O8 0.761336 0.037769 0.611831
O O9 0.773739 0.842217 0.585174
O O10 0.737670 0.862520 0.699121
O O11 0.925865 0.889569 0.500000
O O12 0.995331 0.907471 0.613242
O O13 0.153982 0.918319 0.711083
O O14 0.000000 0.000000 0.670648
O O15 0.500000 0.336302 0.250000
#
# Coordination Sequence:
#
# PCOD8294541 Si02
#       6
#    16  16  16  16  16  16
#     4  10  22  36  61  83 114 149 192 235 280 352
#     4   9  19  37  59  82 112 153 196 234 276 337
#     4  11  21  38  58  87 112 150 192 241 288 345
#     4  10  21  37  59  82 112 152 194 237 284 346
#     4  10  21  36  58  84 118 152 192 236 288 349
#     4  11  20  36  59  86 115 148 189 230 290 343
#
# _framework density 19.305512
#
# number of rings (size 3 to 8) (size 9 to 14) (size 15 to 20)
#    0.000    1.833    1.667    4.000    2.333    2.333 
#    0.000    0.833    0.000    1.000    0.000    0.000 
#    0.000    0.000    0.000    0.000    0.000    0.000 
#
# Total GULP energy -595079.357099 kJ/mol
# GULP energy per Si atom -12397.486606 kJ/mol
# Density = 1.926157 g / cm^3
# Si number density = 19.305512 Si / 1000 Ang^3
#
#
#
# Elastic Constant Matrix: (Units=GPa)
#
#
# Indices 1 2 3 4 5 6 
#
# 1 126.8535 46.4761 25.2365 0.0000 0.0000 0.0000
# 2 46.4761 92.3766 45.8413 0.0000 0.0000 0.0000
# 3 25.2365 45.8413 53.3009 0.0001 0.0000 0.0000
# 4 0.0000 0.0000 0.0001 -25.4148 0.0000 0.0000
# 5 0.0000 0.0000 0.0000 0.0000 8.6376 0.0000
# 6 0.0000 0.0000 0.0000 0.0000 0.0000 20.6772
#
#
#
# Elastic Compliance Matrix: (Units=1/GPa)
#
#
# Indices 1 2 3 4 5 6 
#
# 1 0.009679 -0.004528 -0.000688 0.000000 0.000000 0.000000
# 2 -0.004528 0.021004 -0.015920 0.000000 0.000000 0.000000
# 3 -0.000688 -0.015920 0.032780 0.000000 0.000000 0.000000
# 4 0.000000 0.000000 0.000000 -0.039347 0.000000 0.000000
# 5 0.000000 0.000000 0.000000 0.000000 0.115773 0.000000
# 6 0.000000 0.000000 0.000000 0.000000 0.000000 0.048362
#
#
# Mechanical properties :
#
#
# Convention : Reuss Voigt Hill
#
# Bulk Modulus (GPa) = 47.19473 56.40431 51.79952
# Shear Modulus (GPa) = 21.04490 11.11180 16.07835
#
# Velocity S-wave (km/s) = 3.30525 2.40172 2.88902
# Velocity P-wave (km/s) = 6.25024 6.08039 6.16590
#
# Compressibility (1/GPa) = 0.02118881
#
# Stress axis : x y z
#
# Youngs Moduli (GPa) = 103.31617 47.61062 30.50678
#
# Poissons Ratio (x) = 0.21558 0.02100
# Poissons Ratio (y) = 0.46782 0.48568
# Poissons Ratio (z) = 0.07113 0.75798
#
# Static dielectric constant tensor:
#      x y z
#    x 3.797170 0.000000 0.000000 
#    y 0.000000 3.444260 0.000000 
#    z 0.000000 0.000000 3.469980 
# 
# 
# High freq. dielectric constant tensor:
#      x y z
#    x 1.761090 0.000000 0.000000 
#    y 0.000000 1.743400 0.000000 
#    z 0.000000 0.000000 1.728490 
# 
# From -- ./inp_files/40669.got.cif
#   From: 2010.03.12/outbox.cif.g09.slc.cpg/sg72_21_cif.got.tgz:40669.got - 2010.04.16 14:54:00.
