data_PCOD8294028
_publ_section_title
;
Structure prediction by ZEFSAII (Michael W. Deem and Ramdas Pophale) SiO2 
 PCOD8294028
Probable space group: I B A M
;
_chemical_formula_sum "Si O2"
_cell_formula_units_Z 68
_cell_length_a 19.991048
_cell_length_b 20.341791
_cell_length_c 9.068538
_cell_angle_alpha 90.000000
_cell_angle_beta 90.000000
_cell_angle_gamma 90.000000
_cell_volume 3687.754715
_symmetry_space_group_name_H-M "I B A M"
_symmetry_group_IT_number 72
_symmetry_cell_setting 'orthorhombic'
loop_
_space_group_symop_operation_xyz
x,y,z
-x,-y,z
x,-y,1/2-z
-x,y,1/2-z
-x,-y,-z
x,y,-z
-x,y,1/2+z
x,-y,1/2+z
1/2+x,1/2+y,1/2+z
1/2-x,1/2-y,1/2+z
1/2+x,1/2-y,-z
1/2-x,1/2+y,-z
1/2-x,1/2-y,1/2-z
1/2+x,1/2+y,1/2-z
1/2-x,1/2+y,z
1/2+x,1/2-y,z
loop_
_atom_site_type_symbol
_atom_site_label
_atom_site_fract_x
_atom_site_fract_y
_atom_site_fract_z
Si Si1 0.174936 0.183300 0.329137
Si Si2 0.500000 0.500000 0.750000
Si Si3 0.069711 0.568311 0.324042
Si Si4 0.372868 0.560447 0.837530
Si Si5 0.170385 0.684613 0.670013
O O1 0.157784 0.181679 0.500000
O O2 0.132987 0.127630 0.249801
O O3 0.149926 0.253010 0.267364
O O4 0.252548 0.168162 0.297254
O O5 0.452226 0.545370 0.851700
O O6 0.093169 0.500000 0.250000
O O7 0.060908 0.559501 0.500000
O O8 0.125474 0.622423 0.285164
O O9 0.000000 0.590776 0.250000
O O10 0.336781 0.500000 0.750000
O O11 0.340871 0.566547 0.000000
O O12 0.159687 0.703555 0.500000
#
# Coordination Sequence:
#
# PCOD8294028 Si02
#       5
#    16   4  16  16  16
#     4  10  20  35  57  82 110 143 182 224 271 320
#     4   8  22  36  58  76 110 148 182 220 266 312
#     4  10  20  36  57  80 108 139 176 221 270 323
#     4  10  20  35  55  78 108 144 183 224 267 314
#     4   9  20  38  56  79 110 144 180 223 271 322
#
# _framework density 18.439405000000001
#
# number of rings (size 3 to 8) (size 9 to 14) (size 15 to 20)
#    0.706    1.647    0.000    3.176    0.000    3.765 
#    2.118    2.353    0.000    0.000    0.000    0.000 
#    0.000    0.000    0.000    0.000    0.000    0.000 
#
# Total GULP energy -421448.097483 kJ/mol
# GULP energy per Si atom -12395.532279 kJ/mol
# Density = 1.839744 g / cm^3
# Si number density = 18.439405 Si / 1000 Ang^3
#
#
#
# Elastic Constant Matrix: (Units=GPa)
#
#
# Indices 1 2 3 4 5 6 
#
# 1 71.4387 68.7252 40.7780 0.0000 0.0000 0.0000
# 2 68.7252 152.6946 83.0961 0.0000 0.0000 0.0000
# 3 40.7780 83.0961 123.6737 0.0000 0.0000 0.0000
# 4 0.0000 0.0000 0.0000 37.4590 0.0000 0.0000
# 5 0.0000 0.0000 0.0000 0.0000 21.1163 0.0000
# 6 0.0000 0.0000 0.0000 0.0000 0.0000 37.4553
#
#
#
# Elastic Compliance Matrix: (Units=1/GPa)
#
#
# Indices 1 2 3 4 5 6 
#
# 1 0.024776 -0.010571 -0.001067 0.000000 0.000000 0.000000
# 2 -0.010571 0.014834 -0.006481 0.000000 0.000000 0.000000
# 3 -0.001067 -0.006481 0.012792 0.000000 0.000000 0.000000
# 4 0.000000 0.000000 0.000000 0.026696 0.000000 0.000000
# 5 0.000000 0.000000 0.000000 0.000000 0.047357 0.000000
# 6 0.000000 0.000000 0.000000 0.000000 0.000000 0.026699
#
#
# Mechanical properties :
#
#
# Convention : Reuss Voigt Hill
#
# Bulk Modulus (GPa) = 61.86400 81.44507 71.65453
# Shear Modulus (GPa) = 25.66998 29.55329 27.61164
#
# Velocity S-wave (km/s) = 3.73517 4.00775 3.87386
# Velocity P-wave (km/s) = 7.22667 8.10438 7.67808
#
# Compressibility (1/GPa) = 0.01616449
#
# Stress axis : x y z
#
# Youngs Moduli (GPa) = 40.36129 67.41286 78.17126
#
# Poissons Ratio (x) = 0.71261 0.08339
# Poissons Ratio (y) = 0.42665 0.50667
# Poissons Ratio (z) = 0.04306 0.43694
#
# Static dielectric constant tensor:
#      x y z
#    x 3.203240 0.000000 0.000000 
#    y 0.000000 3.369520 0.000000 
#    z 0.000000 0.000000 3.443250 
# 
# 
# High freq. dielectric constant tensor:
#      x y z
#    x 1.693680 0.000000 0.000000 
#    y 0.000000 1.719240 0.000000 
#    z 0.000000 0.000000 1.727510 
# 
# From -- ./inp_files/4423.got.cif
#   From: 2010.03.12/outbox.cif.g09.slc.cpg/sg72_3_cif.got.tgz:4423.got - 2010.04.16 14:54:00.
