data_PCOD8294639
_publ_section_title
;
Structure prediction by ZEFSAII (Michael W. Deem and Ramdas Pophale) SiO2 
 PCOD8294639
Probable space group: I B A M
;
_chemical_formula_sum "Si O2"
_cell_formula_units_Z 64
_cell_length_a 5.181148
_cell_length_b 14.060972
_cell_length_c 36.484146
_cell_angle_alpha 90.000000
_cell_angle_beta 90.000000
_cell_angle_gamma 90.000000
_cell_volume 2657.942164
_symmetry_space_group_name_H-M "I B A M"
_symmetry_group_IT_number 72
_symmetry_cell_setting 'orthorhombic'
loop_
_space_group_symop_operation_xyz
x,y,z
-x,-y,z
x,-y,1/2-z
-x,y,1/2-z
-x,-y,-z
x,y,-z
-x,y,1/2+z
x,-y,1/2+z
1/2+x,1/2+y,1/2+z
1/2-x,1/2-y,1/2+z
1/2+x,1/2-y,-z
1/2-x,1/2+y,-z
1/2-x,1/2-y,1/2-z
1/2+x,1/2+y,1/2-z
1/2-x,1/2+y,z
1/2+x,1/2-y,z
loop_
_atom_site_type_symbol
_atom_site_label
_atom_site_fract_x
_atom_site_fract_y
_atom_site_fract_z
Si Si1 0.025835 0.387660 0.081528
Si Si2 0.746239 0.106173 0.233872
Si Si3 0.522172 0.386993 0.041271
Si Si4 0.119174 0.310593 0.160796
O O1 0.245027 0.347191 0.054117
O O2 0.124587 0.357770 0.121264
O O3 0.000000 0.500000 0.080145
O O4 0.748593 0.346747 0.068168
O O5 0.500000 0.162383 0.250000
O O6 0.709461 0.108558 0.189907
O O7 0.000000 0.158446 0.250000
O O8 0.748594 0.000000 0.250000
O O9 0.500000 0.500000 0.043393
O O10 0.582483 0.353445 0.000000
O O11 0.326984 0.226160 0.166085
#
# Coordination Sequence:
#
# PCOD8294639 Si02
#       4
#    16  16  16  16
#     4  10  21  37  62  93 123 171 213 259 314 373
#     4  10  23  43  67  94 121 165 206 265 308 378
#     4   9  17  33  59  94 127 160 214 272 311 352
#     4  12  26  43  65  94 131 169 205 260 321 382
#
# _framework density 24.078779000000001
#
# number of rings (size 3 to 8) (size 9 to 14) (size 15 to 20)
#    0.000    1.750    0.000    3.750    3.500    6.000 
#    9.000    0.000    0.000   15.000    0.000    0.000 
#    0.000    0.000    0.000    0.000    0.000    0.000 
#
# Total GULP energy -396501.846744 kJ/mol
# GULP energy per Si atom -12390.682711 kJ/mol
# Density = 2.402397 g / cm^3
# Si number density = 24.078779 Si / 1000 Ang^3
#
#
#
# Elastic Constant Matrix: (Units=GPa)
#
#
# Indices 1 2 3 4 5 6 
#
# 1 216.1352 14.2265 77.2932 0.0000 0.0000 0.0000
# 2 14.2265 40.1136 26.5317 0.0000 0.0000 0.0000
# 3 77.2932 26.5317 207.9261 0.0000 0.0000 0.0000
# 4 0.0000 0.0000 0.0000 30.5759 0.0000 0.0000
# 5 0.0000 0.0000 0.0000 0.0000 52.1911 0.0000
# 6 0.0000 0.0000 0.0000 0.0000 0.0000 1.4180
#
#
#
# Elastic Compliance Matrix: (Units=1/GPa)
#
#
# Indices 1 2 3 4 5 6 
#
# 1 0.005351 -0.000636 -0.001908 0.000000 0.000000 0.000000
# 2 -0.000636 0.027303 -0.003248 0.000000 0.000000 0.000000
# 3 -0.001908 -0.003248 0.005933 0.000000 0.000000 0.000000
# 4 0.000000 0.000000 0.000000 0.032706 0.000000 0.000000
# 5 0.000000 0.000000 0.000000 0.000000 0.019160 0.000000
# 6 0.000000 0.000000 0.000000 0.000000 0.000000 0.705209
#
#
# Mechanical properties :
#
#
# Convention : Reuss Voigt Hill
#
# Bulk Modulus (GPa) = 37.03151 77.80864 57.42008
# Shear Modulus (GPa) = 6.12561 39.91190 23.01875
#
# Velocity S-wave (km/s) = 1.59672 4.07573 3.09524
# Velocity P-wave (km/s) = 4.33729 7.38465 6.05579
#
# Compressibility (1/GPa) = 0.02700403
#
# Stress axis : x y z
#
# Youngs Moduli (GPa) = 186.88422 36.62651 168.54722
#
# Poissons Ratio (x) = 0.02329 0.32159
# Poissons Ratio (y) = 0.11881 0.54736
# Poissons Ratio (z) = 0.35657 0.11895
#
# Static dielectric constant tensor:
#      x y z
#    x 14.772430 0.000000 0.000000 
#    y 0.000000 3.776170 0.000000 
#    z 0.000000 0.000000 4.446520 
# 
# 
# High freq. dielectric constant tensor:
#      x y z
#    x 1.984340 0.000000 0.000000 
#    y 0.000000 1.934870 0.000000 
#    z 0.000000 0.000000 1.960110 
# 
# From -- ./inp_files/50150.got.cif
#   From: 2010.03.12/outbox.cif.g09.slc.cpg/sg72_26_cif.got.tgz:50150.got - 2010.04.16 14:54:00.
