data_PCOD8294132
_publ_section_title
;
Structure prediction by ZEFSAII (Michael W. Deem and Ramdas Pophale) SiO2 
 PCOD8294132
Probable space group: I B A M
;
_chemical_formula_sum "Si O2"
_cell_formula_units_Z 112
_cell_length_a 12.603453
_cell_length_b 16.619010
_cell_length_c 28.765483
_cell_angle_alpha 90.000000
_cell_angle_beta 90.000000
_cell_angle_gamma 90.000000
_cell_volume 6025.129225
_symmetry_space_group_name_H-M "I B A M"
_symmetry_group_IT_number 72
_symmetry_cell_setting 'orthorhombic'
loop_
_space_group_symop_operation_xyz
x,y,z
-x,-y,z
x,-y,1/2-z
-x,y,1/2-z
-x,-y,-z
x,y,-z
-x,y,1/2+z
x,-y,1/2+z
1/2+x,1/2+y,1/2+z
1/2-x,1/2-y,1/2+z
1/2+x,1/2-y,-z
1/2-x,1/2+y,-z
1/2-x,1/2-y,1/2-z
1/2+x,1/2+y,1/2-z
1/2-x,1/2+y,z
1/2+x,1/2-y,z
loop_
_atom_site_type_symbol
_atom_site_label
_atom_site_fract_x
_atom_site_fract_y
_atom_site_fract_z
Si Si1 0.110228 0.817009 0.127066
Si Si2 0.799790 0.701351 0.554304
Si Si3 0.790434 0.292599 0.797222
Si Si4 0.880832 0.465160 0.796417
Si Si5 0.112257 0.528019 0.053364
Si Si6 0.274588 0.516258 0.376600
Si Si7 0.866126 0.849518 0.126160
O O1 0.142883 0.776342 0.078450
O O2 0.142664 0.769954 0.172991
O O3 0.164115 0.902752 0.132207
O O4 0.985221 0.821660 0.126621
O O5 0.779400 0.719292 0.500000
O O6 0.874408 0.623426 0.561725
O O7 0.688334 0.687994 0.580285
O O8 0.750000 0.250000 0.750000
O O9 0.870640 0.368300 0.790907
O O10 0.687688 0.319697 0.826246
O O11 0.827710 0.500000 0.750000
O O12 0.815514 0.498542 0.839155
O O13 0.000000 0.500000 0.801291
O O14 0.210495 0.479541 0.075139
O O15 0.000000 0.500000 0.075411
O O16 0.115121 0.503951 0.000000
O O17 0.361588 0.445901 0.376833
#
# Coordination Sequence:
#
# PCOD8294132 Si02
#       7
#    16  16  16  16  16  16  16
#     4  11  22  35  57  82 107 145 185 221 273 333
#     4   9  20  37  54  79 112 139 175 229 277 318
#     4  10  22  39  57  83 116 143 178 232 287 330
#     4  10  21  36  57  82 108 143 186 228 273 328
#     4   9  18  34  56  79 105 140 179 221 271 323
#     4  10  20  36  54  76 110 145 183 223 265 325
#     4   9  21  38  55  78 109 145 181 223 273 328
#
# _framework density 18.588812999999998
#
# number of rings (size 3 to 8) (size 9 to 14) (size 15 to 20)
#    0.000    2.286    0.000    2.571    0.000    8.571 
#    0.000    1.429    0.000    6.857    0.000    0.000 
#    0.000    0.000    0.000    0.000    0.000    0.000 
#
# Total GULP energy -694239.924183 kJ/mol
# GULP energy per Si atom -12397.141503 kJ/mol
# Density = 1.854650 g / cm^3
# Si number density = 18.588813 Si / 1000 Ang^3
#
#
#
# Elastic Constant Matrix: (Units=GPa)
#
#
# Indices 1 2 3 4 5 6 
#
# 1 120.9670 79.9654 45.3733 0.0000 0.0000 0.0000
# 2 79.9654 129.9001 58.4278 0.0000 0.0000 0.0000
# 3 45.3733 58.4278 116.1357 0.0000 0.0000 0.0000
# 4 0.0000 0.0000 0.0000 30.6131 0.0000 0.0000
# 5 0.0000 0.0000 0.0000 0.0000 27.7540 0.0000
# 6 0.0000 0.0000 0.0000 0.0000 0.0000 -16.5295
#
#
#
# Elastic Compliance Matrix: (Units=1/GPa)
#
#
# Indices 1 2 3 4 5 6 
#
# 1 0.014133 -0.008035 -0.001479 0.000000 0.000000 0.000000
# 2 -0.008035 0.014518 -0.004165 0.000000 0.000000 0.000000
# 3 -0.001479 -0.004165 0.011284 0.000000 0.000000 0.000000
# 4 0.000000 0.000000 0.000000 0.032666 0.000000 0.000000
# 5 0.000000 0.000000 0.000000 0.000000 0.036031 0.000000
# 6 0.000000 0.000000 0.000000 0.000000 0.000000 -0.060498
#
#
# Mechanical properties :
#
#
# Convention : Reuss Voigt Hill
#
# Bulk Modulus (GPa) = 79.51129 81.61508 80.56319
# Shear Modulus (GPa) = 62.74876 20.58328 41.66602
#
# Velocity S-wave (km/s) = 5.81631 3.33121 4.73954
# Velocity P-wave (km/s) = 9.37937 7.66791 8.56649
#
# Compressibility (1/GPa) = 0.01257683
#
# Stress axis : x y z
#
# Youngs Moduli (GPa) = 70.75643 68.88203 88.62230
#
# Poissons Ratio (x) = 0.55345 0.13111
# Poissons Ratio (y) = 0.56851 0.36908
# Poissons Ratio (z) = 0.10467 0.28687
#
# Static dielectric constant tensor:
#      x y z
#    x 3.282290 0.000000 0.000000 
#    y 0.000000 3.546880 0.000000 
#    z 0.000000 0.000000 3.647850 
# 
# 
# High freq. dielectric constant tensor:
#      x y z
#    x 1.715350 0.000000 0.000000 
#    y 0.000000 1.728450 0.000000 
#    z 0.000000 0.000000 1.733500 
# 
# From -- ./inp_files/51475.got.cif
#   From: 2010.03.12/outbox.cif.g09.slc.cpg/sg72_26_cif.got.tgz:51475.got - 2010.04.16 14:54:00.
