data_PCOD8294312
_publ_section_title
;
Structure prediction by ZEFSAII (Michael W. Deem and Ramdas Pophale) SiO2 
 PCOD8294312
Probable space group: I B A M
;
_chemical_formula_sum "Si O2"
_cell_formula_units_Z 116
_cell_length_a 20.945873
_cell_length_b 26.958763
_cell_length_c 9.502474
_cell_angle_alpha 90.000000
_cell_angle_beta 90.000000
_cell_angle_gamma 90.000000
_cell_volume 5365.807853
_symmetry_space_group_name_H-M "I B A M"
_symmetry_group_IT_number 72
_symmetry_cell_setting 'orthorhombic'
loop_
_space_group_symop_operation_xyz
x,y,z
-x,-y,z
x,-y,1/2-z
-x,y,1/2-z
-x,-y,-z
x,y,-z
-x,y,1/2+z
x,-y,1/2+z
1/2+x,1/2+y,1/2+z
1/2-x,1/2-y,1/2+z
1/2+x,1/2-y,-z
1/2-x,1/2+y,-z
1/2-x,1/2-y,1/2-z
1/2+x,1/2+y,1/2-z
1/2-x,1/2+y,z
1/2+x,1/2-y,z
loop_
_atom_site_type_symbol
_atom_site_label
_atom_site_fract_x
_atom_site_fract_y
_atom_site_fract_z
Si Si1 0.641887 0.957640 0.654298
Si Si2 0.500000 0.500000 0.250000
Si Si3 0.113752 0.186579 0.155881
Si Si4 0.776159 0.077729 0.158713
Si Si5 0.758085 0.331311 0.845178
Si Si6 0.940870 0.632663 0.166731
Si Si7 0.606440 0.573525 0.341715
Si Si8 0.612952 0.221692 0.335116
O O1 0.615380 0.969193 0.500000
O O2 0.718796 0.961675 0.658235
O O3 0.619221 0.902850 0.697937
O O4 0.611348 0.000000 0.750000
O O5 0.545142 0.537174 0.338360
O O6 0.189631 0.194454 0.149222
O O7 0.091359 0.130785 0.200033
O O8 0.091484 0.224438 0.276581
O O9 0.085713 0.198959 0.000000
O O10 0.746282 0.126441 0.228459
O O11 0.837114 0.054631 0.239765
O O12 0.798089 0.090470 0.000000
O O13 0.812187 0.290606 0.808709
O O14 0.773528 0.354537 0.000000
O O15 0.928747 0.684400 0.243389
O O16 0.000000 0.608020 0.250000
O O17 0.953584 0.640077 0.000000
O O18 0.633618 0.573282 0.500000
O O19 0.595163 0.219077 0.500000
#
# Coordination Sequence:
#
# PCOD8294312 Si02
#       8
#    16   4  16  16  16  16  16  16
#     4  10  23  40  62  93 127 165 209 260 319 376
#     4  12  26  48  76  98 122 172 226 274 328 392
#     4   9  19  37  59  89 129 168 206 260 319 378
#     4  10  20  37  62  95 129 165 211 264 320 381
#     4   9  18  33  57  90 129 170 210 256 318 383
#     4  11  24  44  64  89 124 167 217 265 317 383
#     4  10  24  45  67  94 127 166 213 265 323 384
#     4  11  21  35  60  94 127 169 214 259 319 384
#
# _framework density 21.618366999999999
#
# number of rings (size 3 to 8) (size 9 to 14) (size 15 to 20)
#    0.000    1.931    1.379    2.690    0.966    6.345 
#    1.241    1.379    0.000    0.000    0.000    0.000 
#    0.000    0.000    0.000    0.000    0.000    0.000 
#
# Total GULP energy -718768.500362 kJ/mol
# GULP energy per Si atom -12392.560351 kJ/mol
# Density = 2.156916 g / cm^3
# Si number density = 21.618367 Si / 1000 Ang^3
#
#
#
# Elastic Constant Matrix: (Units=GPa)
#
#
# Indices 1 2 3 4 5 6 
#
# 1 82.2566 37.2811 45.1013 0.0000 0.0000 0.0000
# 2 37.2811 111.9956 64.7691 0.0000 0.0000 0.0000
# 3 45.1013 64.7691 147.8473 0.0000 0.0000 0.0000
# 4 0.0000 0.0000 0.0000 32.3918 0.0000 0.0000
# 5 0.0000 0.0000 0.0000 0.0000 27.6767 0.0000
# 6 0.0000 0.0000 0.0000 0.0000 0.0000 27.5354
#
#
#
# Elastic Compliance Matrix: (Units=1/GPa)
#
#
# Indices 1 2 3 4 5 6 
#
# 1 0.015426 -0.003233 -0.003290 0.000000 0.000000 0.000000
# 2 -0.003233 0.012636 -0.004550 0.000000 0.000000 0.000000
# 3 -0.003290 -0.004550 0.009760 0.000000 0.000000 0.000000
# 4 0.000000 0.000000 0.000000 0.030872 0.000000 0.000000
# 5 0.000000 0.000000 0.000000 0.000000 0.036132 0.000000
# 6 0.000000 0.000000 0.000000 0.000000 0.000000 0.036317
#
#
# Mechanical properties :
#
#
# Convention : Reuss Voigt Hill
#
# Bulk Modulus (GPa) = 63.78001 70.71141 67.24571
# Shear Modulus (GPa) = 29.67146 30.51731 30.09439
#
# Velocity S-wave (km/s) = 3.70876 3.76125 3.73510
# Velocity P-wave (km/s) = 6.92146 7.18628 7.05511
#
# Compressibility (1/GPa) = 0.01567889
#
# Stress axis : x y z
#
# Youngs Moduli (GPa) = 64.82634 79.13871 102.45592
#
# Poissons Ratio (x) = 0.25582 0.33704
# Poissons Ratio (y) = 0.20955 0.46613
# Poissons Ratio (z) = 0.21325 0.36004
#
# Static dielectric constant tensor:
#      x y z
#    x 3.844840 0.000000 0.000000 
#    y 0.000000 3.645340 0.000000 
#    z 0.000000 0.000000 4.097750 
# 
# 
# High freq. dielectric constant tensor:
#      x y z
#    x 1.835170 0.000000 0.000000 
#    y 0.000000 1.837490 0.000000 
#    z 0.000000 0.000000 1.856180 
# 
# From -- ./inp_files/7270.got.cif
#   From: 2010.03.12/outbox.cif.g09.slc.cpg/sg72_4_cif.got.tgz:7270.got - 2010.04.16 14:54:00.
