data_PCOD8294330
_publ_section_title
;
Structure prediction by ZEFSAII (Michael W. Deem and Ramdas Pophale) SiO2 
 PCOD8294330
Probable space group: I B A M
;
_chemical_formula_sum "Si O2"
_cell_formula_units_Z 112
_cell_length_a 29.759483
_cell_length_b 15.826426
_cell_length_c 13.367455
_cell_angle_alpha 90.000000
_cell_angle_beta 90.000000
_cell_angle_gamma 90.000000
_cell_volume 6295.887576
_symmetry_space_group_name_H-M "I B A M"
_symmetry_group_IT_number 72
_symmetry_cell_setting 'orthorhombic'
loop_
_space_group_symop_operation_xyz
x,y,z
-x,-y,z
x,-y,1/2-z
-x,y,1/2-z
-x,-y,-z
x,y,-z
-x,y,1/2+z
x,-y,1/2+z
1/2+x,1/2+y,1/2+z
1/2-x,1/2-y,1/2+z
1/2+x,1/2-y,-z
1/2-x,1/2+y,-z
1/2-x,1/2-y,1/2-z
1/2+x,1/2+y,1/2-z
1/2-x,1/2+y,z
1/2+x,1/2-y,z
loop_
_atom_site_type_symbol
_atom_site_label
_atom_site_fract_x
_atom_site_fract_y
_atom_site_fract_z
Si Si1 0.214907 0.591044 0.287089
Si Si2 0.306748 0.554040 0.383560
Si Si3 0.159584 0.728286 0.386777
Si Si4 0.035307 0.874193 0.111012
Si Si5 0.616397 0.649313 0.760477
Si Si6 0.441279 0.430962 0.389402
Si Si7 0.271763 0.623973 0.889196
O O1 0.197586 0.500000 0.250000
O O2 0.256860 0.588614 0.363338
O O3 0.174615 0.637590 0.344000
O O4 0.230296 0.638864 0.185620
O O5 0.319355 0.562582 0.500000
O O6 0.342489 0.611690 0.324113
O O7 0.304368 0.453875 0.351274
O O8 0.139311 0.718267 0.500000
O O9 0.125979 0.766832 0.304663
O O10 0.202090 0.789231 0.392421
O O11 0.072877 0.824134 0.173511
O O12 0.983911 0.876168 0.153064
O O13 0.049326 0.971130 0.106445
O O14 0.034913 0.834961 0.000000
O O15 0.601532 0.577973 0.681457
O O16 0.428908 0.397874 0.500000
O O17 0.253490 0.600693 0.000000
#
# Coordination Sequence:
#
# PCOD8294330 Si02
#       7
#    16  16  16  16  16  16  16
#     4  10  20  38  56  67  89 133 174 210 258 313
#     4  10  21  33  47  71 101 136 177 213 247 289
#     4  11  23  35  50  74 103 127 163 216 262 302
#     4   9  19  33  47  66  96 136 180 214 239 284
#     4  12  21  29  48  73 103 137 171 209 252 293
#     4   9  19  33  47  66  95 137 180 211 243 285
#     4   9  19  33  49  72  97 126 165 211 254 296
#
# _framework density 17.789390000000001
#
# number of rings (size 3 to 8) (size 9 to 14) (size 15 to 20)
#    0.000    2.000    1.429    3.429    4.000    1.714 
#    0.000    0.714    0.000    0.000    0.000    0.000 
#    0.000    2.286    0.000    8.571    0.000    0.000 
#
# Total GULP energy -693849.916297 kJ/mol
# GULP energy per Si atom -12390.177077 kJ/mol
# Density = 1.774890 g / cm^3
# Si number density = 17.789390 Si / 1000 Ang^3
#
#
#
# Elastic Constant Matrix: (Units=GPa)
#
#
# Indices 1 2 3 4 5 6 
#
# 1 56.8448 27.8335 38.4307 0.0000 0.0000 0.0000
# 2 27.8335 54.0248 29.0454 0.0000 0.0000 0.0000
# 3 38.4307 29.0454 92.8488 0.0000 0.0000 0.0000
# 4 0.0000 0.0000 0.0000 22.3409 0.0000 0.0000
# 5 0.0000 0.0000 0.0000 0.0000 21.3209 0.0000
# 6 0.0000 0.0000 0.0000 0.0000 0.0000 20.3403
#
#
#
# Elastic Compliance Matrix: (Units=1/GPa)
#
#
# Indices 1 2 3 4 5 6 
#
# 1 0.028269 -0.009946 -0.008589 0.000000 0.000000 0.000000
# 2 -0.009946 0.025752 -0.003939 0.000000 0.000000 0.000000
# 3 -0.008589 -0.003939 0.015558 0.000000 0.000000 0.000000
# 4 0.000000 0.000000 0.000000 0.044761 0.000000 0.000000
# 5 0.000000 0.000000 0.000000 0.000000 0.046902 0.000000
# 6 0.000000 0.000000 0.000000 0.000000 0.000000 0.049164
#
#
# Mechanical properties :
#
#
# Convention : Reuss Voigt Hill
#
# Bulk Modulus (GPa) = 40.60190 43.81531 42.20861
# Shear Modulus (GPa) = 18.97074 20.02765 19.49920
#
# Velocity S-wave (km/s) = 3.26913 3.35896 3.31435
# Velocity P-wave (km/s) = 6.09285 6.30294 6.19878
#
# Compressibility (1/GPa) = 0.02462939
#
# Stress axis : x y z
#
# Youngs Moduli (GPa) = 35.37495 38.83181 64.27747
#
# Poissons Ratio (x) = 0.38623 0.55209
# Poissons Ratio (y) = 0.35184 0.25320
# Poissons Ratio (z) = 0.30384 0.15296
#
# Static dielectric constant tensor:
#      x y z
#    x 3.370670 0.000000 0.000000 
#    y 0.000000 2.864040 0.000000 
#    z 0.000000 0.000000 3.946180 
# 
# 
# High freq. dielectric constant tensor:
#      x y z
#    x 1.658370 0.000000 0.000000 
#    y 0.000000 1.625870 0.000000 
#    z 0.000000 0.000000 1.723220 
# 
# From -- ./inp_files/25938.got.cif
#   From: 2010.03.12/outbox.cif.g09.slc.cpg/sg72_13_cif.got.tgz:25938.got - 2010.04.16 14:54:00.
