data_PCOD8294371
_publ_section_title
;
Structure prediction by ZEFSAII (Michael W. Deem and Ramdas Pophale) SiO2 
 PCOD8294371
Probable space group: I B A M
;
_chemical_formula_sum "Si O2"
_cell_formula_units_Z 104
_cell_length_a 26.416241
_cell_length_b 21.596415
_cell_length_c 9.206517
_cell_angle_alpha 90.000000
_cell_angle_beta 90.000000
_cell_angle_gamma 90.000000
_cell_volume 5252.282074
_symmetry_space_group_name_H-M "I B A M"
_symmetry_group_IT_number 72
_symmetry_cell_setting 'orthorhombic'
loop_
_space_group_symop_operation_xyz
x,y,z
-x,-y,z
x,-y,1/2-z
-x,y,1/2-z
-x,-y,-z
x,y,-z
-x,y,1/2+z
x,-y,1/2+z
1/2+x,1/2+y,1/2+z
1/2-x,1/2-y,1/2+z
1/2+x,1/2-y,-z
1/2-x,1/2+y,-z
1/2-x,1/2-y,1/2-z
1/2+x,1/2+y,1/2-z
1/2-x,1/2+y,z
1/2+x,1/2-y,z
loop_
_atom_site_type_symbol
_atom_site_label
_atom_site_fract_x
_atom_site_fract_y
_atom_site_fract_z
Si Si1 0.448288 0.195703 0.329204
Si Si2 0.289879 0.572935 0.154885
Si Si3 0.614004 0.558017 0.831009
Si Si4 0.649359 0.877017 0.661857
Si Si5 0.552979 0.679552 0.174473
Si Si6 0.302302 0.000000 0.250000
Si Si7 0.268624 0.192344 0.837225
O O1 0.500000 0.175680 0.250000
O O2 0.458005 0.210007 0.500000
O O3 0.409610 0.138497 0.309622
O O4 0.426480 0.257299 0.248694
O O5 0.326335 0.555451 0.288277
O O6 0.236372 0.536509 0.145346
O O7 0.277643 0.644862 0.170629
O O8 0.317852 0.561142 0.000000
O O9 0.586715 0.500000 0.750000
O O10 0.590604 0.623587 0.784408
O O11 0.608095 0.547133 0.000000
O O12 0.664488 0.855914 0.500000
O O13 0.680686 0.836362 0.772927
O O14 0.660492 0.950482 0.674054
O O15 0.500000 0.663076 0.250000
O O16 0.547581 0.687248 0.000000
O O17 0.250000 0.250000 0.750000
O O18 0.281539 0.212931 0.000000
#
# Coordination Sequence:
#
# PCOD8294371 Si02
#       7
#    16  16  16  16  16   8  16
#     4  10  21  39  64  91 120 155 194 245 300 357
#     4  10  21  36  56  81 112 152 197 237 287 344
#     4  11  24  38  57  84 115 152 197 243 292 348
#     4  10  22  39  61  89 120 157 202 248 300 358
#     4  10  22  40  61  87 115 151 193 242 299 356
#     4  10  20  38  63  86 117 156 200 242 294 350
#     4  10  22  37  55  84 118 154 195 242 295 350
#
# _framework density 19.800916999999998
#
# number of rings (size 3 to 8) (size 9 to 14) (size 15 to 20)
#    0.000    1.846    0.769    3.231    2.154    7.692 
#    0.000    1.923    0.000    1.846    0.000    0.000 
#    0.000    0.000    0.000    0.000    0.000    0.000 
#
# Total GULP energy -644433.609534 kJ/mol
# GULP energy per Si atom -12392.954029 kJ/mol
# Density = 1.975585 g / cm^3
# Si number density = 19.800917 Si / 1000 Ang^3
#
#
#
# Elastic Constant Matrix: (Units=GPa)
#
#
# Indices 1 2 3 4 5 6 
#
# 1 85.0510 57.7442 40.2254 0.0000 0.0000 0.0000
# 2 57.7442 129.2131 52.7331 0.0000 0.0000 0.0000
# 3 40.2254 52.7331 137.9394 0.0000 0.0000 0.0000
# 4 0.0000 0.0000 0.0000 30.0709 0.0000 0.0000
# 5 0.0000 0.0000 0.0000 0.0000 25.7600 0.0000
# 6 0.0000 0.0000 0.0000 0.0000 0.0000 34.3360
#
#
#
# Elastic Compliance Matrix: (Units=1/GPa)
#
#
# Indices 1 2 3 4 5 6 
#
# 1 0.017587 -0.006832 -0.002517 0.000000 0.000000 0.000000
# 2 -0.006832 0.011824 -0.002528 0.000000 0.000000 0.000000
# 3 -0.002517 -0.002528 0.008950 0.000000 0.000000 0.000000
# 4 0.000000 0.000000 0.000000 0.033255 0.000000 0.000000
# 5 0.000000 0.000000 0.000000 0.000000 0.038820 0.000000
# 6 0.000000 0.000000 0.000000 0.000000 0.000000 0.029124
#
#
# Mechanical properties :
#
#
# Convention : Reuss Voigt Hill
#
# Bulk Modulus (GPa) = 68.46015 72.62319 70.54167
# Shear Modulus (GPa) = 29.72982 31.46677 30.59829
#
# Velocity S-wave (km/s) = 3.87904 3.99075 3.93529
# Velocity P-wave (km/s) = 7.39675 7.61519 7.50676
#
# Compressibility (1/GPa) = 0.01460704
#
# Stress axis : x y z
#
# Youngs Moduli (GPa) = 56.86172 84.57344 111.73403
#
# Poissons Ratio (x) = 0.57782 0.28119
# Poissons Ratio (y) = 0.38849 0.28245
# Poissons Ratio (z) = 0.14310 0.21379
#
# Static dielectric constant tensor:
#      x y z
#    x 3.494680 0.000000 0.000000 
#    y 0.000000 3.996960 0.000000 
#    z 0.000000 0.000000 3.724480 
# 
# 
# High freq. dielectric constant tensor:
#      x y z
#    x 1.752200 0.000000 0.000000 
#    y 0.000000 1.781420 0.000000 
#    z 0.000000 0.000000 1.785280 
# 
# From -- ./inp_files/8165.got.cif
#   From: 2010.03.12/outbox.cif.g09.slc.cpg/sg72_5_cif.got.tgz:8165.got - 2010.04.16 14:54:00.
