data_PCOD8294379
_publ_section_title
;
Structure prediction by ZEFSAII (Michael W. Deem and Ramdas Pophale) SiO2 
 PCOD8294379
Probable space group: I B A M
;
_chemical_formula_sum "Si O2"
_cell_formula_units_Z 72
_cell_length_a 8.615839
_cell_length_b 14.153808
_cell_length_c 27.952390
_cell_angle_alpha 90.000000
_cell_angle_beta 90.000000
_cell_angle_gamma 90.000000
_cell_volume 3408.708174
_symmetry_space_group_name_H-M "I B A M"
_symmetry_group_IT_number 72
_symmetry_cell_setting 'orthorhombic'
loop_
_space_group_symop_operation_xyz
x,y,z
-x,-y,z
x,-y,1/2-z
-x,y,1/2-z
-x,-y,-z
x,y,-z
-x,y,1/2+z
x,-y,1/2+z
1/2+x,1/2+y,1/2+z
1/2-x,1/2-y,1/2+z
1/2+x,1/2-y,-z
1/2-x,1/2+y,-z
1/2-x,1/2-y,1/2-z
1/2+x,1/2+y,1/2-z
1/2-x,1/2+y,z
1/2+x,1/2-y,z
loop_
_atom_site_type_symbol
_atom_site_label
_atom_site_fract_x
_atom_site_fract_y
_atom_site_fract_z
Si Si1 0.180678 0.977796 0.111493
Si Si2 0.151718 0.673167 0.554001
Si Si3 0.500000 0.245602 0.250000
Si Si4 0.170122 0.321242 0.397033
Si Si5 0.752205 0.824646 0.314254
O O1 0.232057 0.912506 0.066934
O O2 0.222162 0.925432 0.160962
O O3 0.275785 0.073285 0.110726
O O4 0.000000 0.000000 0.107087
O O5 0.091210 0.659578 0.500000
O O6 0.243702 0.772304 0.557894
O O7 0.012960 0.675139 0.592476
O O8 0.421599 0.181749 0.291966
O O9 0.371637 0.316124 0.229228
O O10 0.211839 0.260185 0.350726
#
# Coordination Sequence:
#
# PCOD8294379 Si02
#       5
#    16  16   8  16  16
#     4  11  23  40  63  89 125 168 207 252 312 379
#     4  11  24  40  63  94 124 163 213 261 310 368
#     4  10  20  38  64  88 122 156 198 260 304 362
#     4  11  22  41  64  87 125 166 205 257 316 376
#     4  10  21  40  61  89 121 159 203 249 310 369
#
# _framework density 21.122371999999999
#
# number of rings (size 3 to 8) (size 9 to 14) (size 15 to 20)
#    0.000    1.333    0.000    8.000    0.000    3.111 
#    0.000   11.667    0.000    0.000    0.000    0.000 
#    0.000    0.000    0.000    0.000    0.000    0.000 
#
# Total GULP energy -446459.601849 kJ/mol
# GULP energy per Si atom -12401.655607 kJ/mol
# Density = 2.107430 g / cm^3
# Si number density = 21.122372 Si / 1000 Ang^3
#
#
#
# Elastic Constant Matrix: (Units=GPa)
#
#
# Indices 1 2 3 4 5 6 
#
# 1 137.2046 53.4324 37.0957 0.0000 0.0000 0.0000
# 2 53.4324 161.9330 43.3594 0.0000 0.0000 0.0000
# 3 37.0957 43.3594 111.7404 0.0000 0.0000 0.0000
# 4 0.0000 0.0000 0.0000 21.5446 0.0000 0.0000
# 5 0.0000 0.0000 0.0000 0.0000 39.3435 0.0000
# 6 0.0000 0.0000 0.0000 0.0000 0.0000 35.7754
#
#
#
# Elastic Compliance Matrix: (Units=1/GPa)
#
#
# Indices 1 2 3 4 5 6 
#
# 1 0.008742 -0.002352 -0.001990 0.000000 0.000000 0.000000
# 2 -0.002352 0.007524 -0.002139 0.000000 0.000000 0.000000
# 3 -0.001990 -0.002139 0.010440 0.000000 0.000000 0.000000
# 4 0.000000 0.000000 0.000000 0.046415 0.000000 0.000000
# 5 0.000000 0.000000 0.000000 0.000000 0.025417 0.000000
# 6 0.000000 0.000000 0.000000 0.000000 0.000000 0.027952
#
#
# Mechanical properties :
#
#
# Convention : Reuss Voigt Hill
#
# Bulk Modulus (GPa) = 72.75167 75.40590 74.07878
# Shear Modulus (GPa) = 34.71415 37.79873 36.25644
#
# Velocity S-wave (km/s) = 4.05838 4.23485 4.14755
# Velocity P-wave (km/s) = 7.51521 7.72587 7.62126
#
# Compressibility (1/GPa) = 0.01374539
#
# Stress axis : x y z
#
# Youngs Moduli (GPa) = 114.38729 132.90547 95.78733
#
# Poissons Ratio (x) = 0.31258 0.19058
# Poissons Ratio (y) = 0.26903 0.20488
# Poissons Ratio (z) = 0.22759 0.28427
#
# Static dielectric constant tensor:
#      x y z
#    x 4.398330 0.000000 0.000000 
#    y 0.000000 3.843410 0.000000 
#    z 0.000000 0.000000 3.868250 
# 
# 
# High freq. dielectric constant tensor:
#      x y z
#    x 1.847920 0.000000 0.000000 
#    y 0.000000 1.818750 0.000000 
#    z 0.000000 0.000000 1.830800 
# 
# From -- ./inp_files/50704.got.cif
#   From: 2010.03.12/outbox.cif.g09.slc.cpg/sg72_26_cif.got.tgz:50704.got - 2010.04.16 14:54:00.
