data_PCOD8294105
_publ_section_title
;
Structure prediction by ZEFSAII (Michael W. Deem and Ramdas Pophale) SiO2 
 PCOD8294105
Probable space group: I B A M
;
_chemical_formula_sum "Si O2"
_cell_formula_units_Z 104
_cell_length_a 30.435460
_cell_length_b 18.199679
_cell_length_c 9.743902
_cell_angle_alpha 90.000000
_cell_angle_beta 90.000000
_cell_angle_gamma 90.000000
_cell_volume 5397.299344
_symmetry_space_group_name_H-M "I B A M"
_symmetry_group_IT_number 72
_symmetry_cell_setting 'orthorhombic'
loop_
_space_group_symop_operation_xyz
x,y,z
-x,-y,z
x,-y,1/2-z
-x,y,1/2-z
-x,-y,-z
x,y,-z
-x,y,1/2+z
x,-y,1/2+z
1/2+x,1/2+y,1/2+z
1/2-x,1/2-y,1/2+z
1/2+x,1/2-y,-z
1/2-x,1/2+y,-z
1/2-x,1/2-y,1/2-z
1/2+x,1/2+y,1/2-z
1/2-x,1/2+y,z
1/2+x,1/2-y,z
loop_
_atom_site_type_symbol
_atom_site_label
_atom_site_fract_x
_atom_site_fract_y
_atom_site_fract_z
Si Si1 0.532240 0.192465 0.150489
Si Si2 0.221332 0.068191 0.842476
Si Si3 0.614970 0.798073 0.158131
Si Si4 0.820770 0.431458 0.842941
Si Si5 0.079792 0.907364 0.500000
Si Si6 0.362229 0.357450 0.749625
Si Si7 0.505125 0.677473 0.000000
Si Si8 0.406888 0.578834 0.500000
O O1 0.500000 0.144482 0.250000
O O2 0.577524 0.200114 0.228603
O O3 0.505405 0.270103 0.131189
O O4 0.540308 0.155704 0.000000
O O5 0.270960 0.094294 0.810631
O O6 0.187085 0.131767 0.805656
O O7 0.208099 0.000000 0.750000
O O8 0.215991 0.044594 0.000000
O O9 0.647883 0.863932 0.190253
O O10 0.640021 0.722670 0.183462
O O11 0.597304 0.801712 0.000000
O O12 0.834961 0.500000 0.750000
O O13 0.825279 0.456960 0.000000
O O14 0.102670 0.869077 0.370536
O O15 0.028476 0.889726 0.500000
O O16 0.077961 0.995006 0.500000
O O17 0.376260 0.413809 0.867653
O O18 0.553952 0.640996 0.000000
#
# Coordination Sequence:
#
# PCOD8294105 Si02
#       8
#    16  16  16  16   8  16   8   8
#     4  10  20  35  59  87 119 155 204 247 304 355
#     4  10  21  38  61  86 122 160 206 257 307 370
#     4  11  22  40  63  86 126 162 201 254 307 372
#     4   9  21  42  66  95 121 156 197 248 315 382
#     4  12  23  38  54  83 115 159 213 265 304 347
#     4  12  23  38  57  84 118 160 211 255 307 360
#     4  10  23  36  56  77 115 154 210 254 298 343
#     4  12  25  38  56  80 116 165 208 258 310 352
#
# _framework density 19.268896000000002
#
# number of rings (size 3 to 8) (size 9 to 14) (size 15 to 20)
#    0.462    0.923    3.077    3.000    1.077    1.231 
#    0.000    1.538    0.000    0.462    0.000    3.231 
#    0.000    0.000    0.000    0.000    0.000    0.000 
#
# Total GULP energy -644373.709972 kJ/mol
# GULP energy per Si atom -12391.802115 kJ/mol
# Density = 1.922504 g / cm^3
# Si number density = 19.268896 Si / 1000 Ang^3
#
#
#
# Elastic Constant Matrix: (Units=GPa)
#
#
# Indices 1 2 3 4 5 6 
#
# 1 88.2306 34.1989 48.0941 0.0000 0.0000 0.0000
# 2 34.1989 51.9958 31.1076 0.0000 0.0000 0.0000
# 3 48.0941 31.1076 136.5060 0.0000 0.0000 0.0000
# 4 0.0000 0.0000 0.0000 21.1968 0.0000 0.0000
# 5 0.0000 0.0000 0.0000 0.0000 36.0882 0.0000
# 6 0.0000 0.0000 0.0000 0.0000 0.0000 10.8655
#
#
#
# Elastic Compliance Matrix: (Units=1/GPa)
#
#
# Indices 1 2 3 4 5 6 
#
# 1 0.016875 -0.008733 -0.003955 0.000000 0.000000 0.000000
# 2 -0.008733 0.026787 -0.003028 0.000000 0.000000 0.000000
# 3 -0.003955 -0.003028 0.009409 0.000000 0.000000 0.000000
# 4 0.000000 0.000000 0.000000 0.047177 0.000000 0.000000
# 5 0.000000 0.000000 0.000000 0.000000 0.027710 0.000000
# 6 0.000000 0.000000 0.000000 0.000000 0.000000 0.092034
#
#
# Mechanical properties :
#
#
# Convention : Reuss Voigt Hill
#
# Bulk Modulus (GPa) = 46.21064 55.94817 51.07940
# Shear Modulus (GPa) = 19.33211 24.51890 21.92551
#
# Velocity S-wave (km/s) = 3.17090 3.57103 3.37689
# Velocity P-wave (km/s) = 6.11884 6.78981 6.46304
#
# Compressibility (1/GPa) = 0.02164004
#
# Stress axis : x y z
#
# Youngs Moduli (GPa) = 59.25996 37.33097 106.27879
#
# Poissons Ratio (x) = 0.32600 0.42037
# Poissons Ratio (y) = 0.51749 0.32178
# Poissons Ratio (z) = 0.23439 0.11303
#
# Static dielectric constant tensor:
#      x y z
#    x 3.556210 0.000000 0.000000 
#    y 0.000000 3.206860 0.000000 
#    z 0.000000 0.000000 3.822350 
# 
# 
# High freq. dielectric constant tensor:
#      x y z
#    x 1.756600 0.000000 0.000000 
#    y 0.000000 1.713280 0.000000 
#    z 0.000000 0.000000 1.775410 
# 
# From -- ./inp_files/9232.got.cif
#   From: 2010.03.12/outbox.cif.g09.slc.cpg/sg72_5_cif.got.tgz:9232.got - 2010.04.16 14:54:00.
