data_PCOD8294591
_publ_section_title
;
Structure prediction by ZEFSAII (Michael W. Deem and Ramdas Pophale) SiO2 
 PCOD8294591
Probable space group: I B A M
;
_chemical_formula_sum "Si O2"
_cell_formula_units_Z 72
_cell_length_a 24.460186
_cell_length_b 7.551467
_cell_length_c 19.731098
_cell_angle_alpha 90.000000
_cell_angle_beta 90.000000
_cell_angle_gamma 90.000000
_cell_volume 3644.536782
_symmetry_space_group_name_H-M "I B A M"
_symmetry_group_IT_number 72
_symmetry_cell_setting 'orthorhombic'
loop_
_space_group_symop_operation_xyz
x,y,z
-x,-y,z
x,-y,1/2-z
-x,y,1/2-z
-x,-y,-z
x,y,-z
-x,y,1/2+z
x,-y,1/2+z
1/2+x,1/2+y,1/2+z
1/2-x,1/2-y,1/2+z
1/2+x,1/2-y,-z
1/2-x,1/2+y,-z
1/2-x,1/2-y,1/2-z
1/2+x,1/2+y,1/2-z
1/2-x,1/2+y,z
1/2+x,1/2-y,z
loop_
_atom_site_type_symbol
_atom_site_label
_atom_site_fract_x
_atom_site_fract_y
_atom_site_fract_z
Si Si1 0.440422 0.679737 0.218515
Si Si2 0.634582 0.000000 0.250000
Si Si3 0.188455 0.477240 0.888552
Si Si4 0.195321 0.130528 0.575098
Si Si5 0.889947 0.839251 0.922411
O O1 0.416913 0.500000 0.250000
O O2 0.500000 0.713405 0.250000
O O3 0.437933 0.678712 0.135072
O O4 0.402606 0.829485 0.247580
O O5 0.673983 0.981121 0.187570
O O6 0.181264 0.661819 0.927978
O O7 0.250159 0.406286 0.882678
O O8 0.149029 0.332383 0.922371
O O9 0.209000 0.062534 0.500000
O O10 0.144182 0.012967 0.600568
O O11 0.913623 0.858203 0.000000
#
# Coordination Sequence:
#
# PCOD8294591 Si02
#       5
#    16   8  16  16  16
#     4  10  21  41  64  83 110 149 191 241 298 341
#     4  10  23  38  56  84 114 150 189 234 280 344
#     4  11  21  34  53  82 118 156 190 226 274 335
#     4  11  20  33  53  80 116 156 188 223 273 330
#     4  10  21  37  58  86 116 151 193 235 278 338
#
# _framework density 19.755596000000001
#
# number of rings (size 3 to 8) (size 9 to 14) (size 15 to 20)
#    0.000    1.556    2.222    3.667    0.000    0.889 
#    2.000    2.222    0.000   13.333    0.000    0.000 
#    0.000    0.000    0.000    0.000    0.000    0.000 
#
# Total GULP energy -446206.326022 kJ/mol
# GULP energy per Si atom -12394.620167 kJ/mol
# Density = 1.971063 g / cm^3
# Si number density = 19.755596 Si / 1000 Ang^3
#
#
#
# Elastic Constant Matrix: (Units=GPa)
#
#
# Indices 1 2 3 4 5 6 
#
# 1 89.3592 23.0177 60.4767 0.0000 0.0000 0.0000
# 2 23.0177 89.5731 25.8009 0.0000 0.0000 0.0000
# 3 60.4767 25.8009 133.9379 0.0000 0.0000 0.0000
# 4 0.0000 0.0000 0.0000 24.1792 0.0000 0.0000
# 5 0.0000 0.0000 0.0000 0.0000 -8.8253 0.0000
# 6 0.0000 0.0000 0.0000 0.0000 0.0000 16.8786
#
#
#
# Elastic Compliance Matrix: (Units=1/GPa)
#
#
# Indices 1 2 3 4 5 6 
#
# 1 0.016522 -0.002220 -0.007033 0.000000 0.000000 0.000000
# 2 -0.002220 0.012118 -0.001332 0.000000 0.000000 0.000000
# 3 -0.007033 -0.001332 0.010898 0.000000 0.000000 0.000000
# 4 0.000000 0.000000 0.000000 0.041358 0.000000 0.000000
# 5 0.000000 0.000000 0.000000 0.000000 -0.113311 0.000000
# 6 0.000000 0.000000 0.000000 0.000000 0.000000 0.059246
#
#
# Mechanical properties :
#
#
# Convention : Reuss Voigt Hill
#
# Bulk Modulus (GPa) = 54.43842 59.05118 56.74480
# Shear Modulus (GPa) = 92.37968 20.01818 56.19893
#
# Velocity S-wave (km/s) = 6.84564 3.18668 5.33937
# Velocity P-wave (km/s) = 9.49208 6.59512 8.17298
#
# Compressibility (1/GPa) = 0.01836938
#
# Stress axis : x y z
#
# Youngs Moduli (GPa) = 60.52484 82.52041 91.75895
#
# Poissons Ratio (x) = 0.18320 0.64530
# Poissons Ratio (y) = 0.13437 0.12222
# Poissons Ratio (z) = 0.42564 0.10991
#
# Static dielectric constant tensor:
#      x y z
#    x 3.329950 0.000000 0.000000 
#    y 0.000000 3.894380 0.000000 
#    z 0.000000 0.000000 3.788490 
# 
# 
# High freq. dielectric constant tensor:
#      x y z
#    x 1.741380 0.000000 0.000000 
#    y 0.000000 1.793110 0.000000 
#    z 0.000000 0.000000 1.778470 
# 
# From -- ./inp_files/27972.got.cif
#   From: 2010.03.12/outbox.cif.g09.slc.cpg/sg72_14_cif.got.tgz:27972.got - 2010.04.16 14:54:00.
