data_PCOD8294681
_publ_section_title
;
Structure prediction by ZEFSAII (Michael W. Deem and Ramdas Pophale) SiO2 
 PCOD8294681
Probable space group: I B A M
;
_chemical_formula_sum "Si O2"
_cell_formula_units_Z 80
_cell_length_a 14.983319
_cell_length_b 29.912146
_cell_length_c 8.887877
_cell_angle_alpha 90.000000
_cell_angle_beta 90.000000
_cell_angle_gamma 90.000000
_cell_volume 3983.397382
_symmetry_space_group_name_H-M "I B A M"
_symmetry_group_IT_number 72
_symmetry_cell_setting 'orthorhombic'
loop_
_space_group_symop_operation_xyz
x,y,z
-x,-y,z
x,-y,1/2-z
-x,y,1/2-z
-x,-y,-z
x,y,-z
-x,y,1/2+z
x,-y,1/2+z
1/2+x,1/2+y,1/2+z
1/2-x,1/2-y,1/2+z
1/2+x,1/2-y,-z
1/2-x,1/2+y,-z
1/2-x,1/2-y,1/2-z
1/2+x,1/2+y,1/2-z
1/2-x,1/2+y,z
1/2+x,1/2-y,z
loop_
_atom_site_type_symbol
_atom_site_label
_atom_site_fract_x
_atom_site_fract_y
_atom_site_fract_z
Si Si1 0.596027 0.957893 0.325479
Si Si2 0.594994 0.359821 0.175227
Si Si3 0.096864 0.641010 0.676713
Si Si4 0.755319 0.701597 0.320744
Si Si5 0.403742 0.541876 0.824693
O O1 0.500000 0.956251 0.250000
O O2 0.586263 0.968236 0.500000
O O3 0.639087 0.908874 0.298078
O O4 0.649909 0.000000 0.250000
O O5 0.500000 0.350701 0.250000
O O6 0.666637 0.324221 0.233658
O O7 0.636975 0.409156 0.209644
O O8 0.577498 0.354550 0.000000
O O9 0.089480 0.651785 0.500000
O O10 0.158438 0.676873 0.757542
O O11 0.000000 0.644847 0.750000
O O12 0.761914 0.704098 0.500000
O O13 0.750000 0.750000 0.250000
O O14 0.349158 0.500000 0.750000
O O15 0.500000 0.542644 0.750000
O O16 0.411446 0.532463 0.000000
#
# Coordination Sequence:
#
# PCOD8294681 Si02
#       5
#    16  16  16  16  16
#     4   9  16  27  48  78 112 147 185 225 270 327
#     4   9  20  37  58  83 112 146 184 225 274 328
#     4  10  21  38  60  87 116 151 192 234 283 340
#     4  11  24  42  61  83 112 146 187 240 293 344
#     4   9  15  26  46  75 108 142 178 216 260 315
#
# _framework density 20.083359000000002
#
# number of rings (size 3 to 8) (size 9 to 14) (size 15 to 20)
#    0.000    2.400    0.000    3.600    0.000    5.600 
#    0.000    3.000    0.000    4.800    0.000    0.000 
#    0.000    0.000    0.000    0.000    0.000    0.000 
#
# Total GULP energy -495600.814500 kJ/mol
# GULP energy per Si atom -12390.020362 kJ/mol
# Density = 2.003765 g / cm^3
# Si number density = 20.083359 Si / 1000 Ang^3
#
#
#
# Elastic Constant Matrix: (Units=GPa)
#
#
# Indices 1 2 3 4 5 6 
#
# 1 83.5795 70.5319 42.8074 0.0008 -0.0002 -0.0758
# 2 70.5319 203.3157 80.8450 -0.0008 -0.0004 0.1224
# 3 42.8074 80.8450 118.1939 -0.0029 -0.0035 0.5250
# 4 0.0008 -0.0008 -0.0029 38.7824 -0.0013 0.2854
# 5 -0.0002 -0.0004 -0.0035 -0.0013 23.7671 -0.0527
# 6 -0.0758 0.1224 0.5250 0.2854 -0.0527 1640.4531
#
#
#
# Elastic Compliance Matrix: (Units=1/GPa)
#
#
# Indices 1 2 3 4 5 6 
#
# 1 0.017674 -0.004926 -0.003032 -0.000001 0.000000 0.000002
# 2 -0.004926 0.008129 -0.003776 0.000000 0.000000 0.000000
# 3 -0.003032 -0.003776 0.012142 0.000001 0.000002 -0.000004
# 4 -0.000001 0.000000 0.000001 0.025785 0.000001 -0.000004
# 5 0.000000 0.000000 0.000002 0.000001 0.042075 0.000001
# 6 0.000002 0.000000 -0.000004 -0.000004 0.000001 0.000610
#
#
# Mechanical properties :
#
#
# Convention : Reuss Voigt Hill
#
# Bulk Modulus (GPa) = 69.07504 88.16196 78.61850
# Shear Modulus (GPa) = 37.11736 354.66084 195.88910
#
# Velocity S-wave (km/s) = 4.30369 13.30330 9.88685
# Velocity P-wave (km/s) = 7.69185 16.73211 13.02168
#
# Compressibility (1/GPa) = 0.01447701
#
# Stress axis : x y z
#
# Youngs Moduli (GPa) = 56.57903 123.02052 82.36079
#
# Poissons Ratio (x) = 0.60597 0.24973
# Poissons Ratio (y) = 0.27869 0.31100
# Poissons Ratio (z) = 0.17155 0.46453
#
# Static dielectric constant tensor:
#      x y z
#    x 3.278940 -0.000020 0.000040 
#    y -0.000020 5.045220 -0.000150 
#    z 0.000040 -0.000150 3.358320 
# 
# 
# High freq. dielectric constant tensor:
#      x y z
#    x 1.746930 0.000000 0.000000 
#    y 0.000000 1.806030 0.000000 
#    z 0.000000 0.000000 1.795510 
# 
# From -- ./inp_files/5004.got.cif
#   From: 2010.03.12/outbox.cif.g09.slc.cpg/sg72_3_cif.got.tgz:5004.got - 2010.04.16 14:54:00.
