data_PCOD8294449
_publ_section_title
;
Structure prediction by ZEFSAII (Michael W. Deem and Ramdas Pophale) SiO2 
 PCOD8294449
Probable space group: I B A M
;
_chemical_formula_sum "Si O2"
_cell_formula_units_Z 92
_cell_length_a 17.624631
_cell_length_b 19.846593
_cell_length_c 13.915364
_cell_angle_alpha 90.000000
_cell_angle_beta 90.000000
_cell_angle_gamma 90.000000
_cell_volume 4867.439564
_symmetry_space_group_name_H-M "I B A M"
_symmetry_group_IT_number 72
_symmetry_cell_setting 'orthorhombic'
loop_
_space_group_symop_operation_xyz
x,y,z
-x,-y,z
x,-y,1/2-z
-x,y,1/2-z
-x,-y,-z
x,y,-z
-x,y,1/2+z
x,-y,1/2+z
1/2+x,1/2+y,1/2+z
1/2-x,1/2-y,1/2+z
1/2+x,1/2-y,-z
1/2-x,1/2+y,-z
1/2-x,1/2-y,1/2-z
1/2+x,1/2+y,1/2-z
1/2-x,1/2+y,z
1/2+x,1/2-y,z
loop_
_atom_site_type_symbol
_atom_site_label
_atom_site_fract_x
_atom_site_fract_y
_atom_site_fract_z
Si Si1 0.774653 0.066776 0.307842
Si Si2 0.391518 0.081899 0.111291
Si Si3 0.331829 0.381566 0.500000
Si Si4 0.500000 0.000000 0.750000
Si Si5 0.949599 0.276838 0.162357
Si Si6 0.722954 0.762702 0.500000
Si Si7 0.442565 0.270607 0.500000
Si Si8 0.699746 0.300274 0.690915
O O1 0.687913 0.065806 0.339792
O O2 0.823842 0.072962 0.405171
O O3 0.793945 0.126372 0.235347
O O4 0.796545 0.000000 0.250000
O O5 0.452392 0.045469 0.177501
O O6 0.407149 0.161595 0.111148
O O7 0.393713 0.056659 0.000000
O O8 0.268521 0.319813 0.500000
O O9 0.415225 0.348332 0.500000
O O10 0.887771 0.222000 0.194783
O O11 0.000000 0.303929 0.250000
O O12 0.007880 0.240552 0.092915
O O13 0.632169 0.778546 0.500000
O O14 0.765285 0.799624 0.414200
O O15 0.750000 0.250000 0.750000
#
# Coordination Sequence:
#
# PCOD8294449 Si02
#       8
#    16  16   8   4  16   8   8  16
#     4  12  25  42  67  92 132 178 221 270 331 398
#     4  12  24  41  62  88 129 180 218 257 324 391
#     4  10  20  43  66  91 126 168 219 280 331 386
#     4  12  26  44  56  90 144 184 210 260 308 414
#     4  12  22  37  64  95 129 162 212 277 334 386
#     4  10  21  38  65  95 127 163 215 283 323 388
#     4  10  23  39  63 100 123 165 206 276 341 383
#     4  12  22  39  66  96 126 171 228 276 326 395
#
# _framework density 18.901107
#
# number of rings (size 3 to 8) (size 9 to 14) (size 15 to 20)
#    0.522    0.000    6.957    2.870    0.000    0.696 
#    0.000    0.000    0.000    5.739    0.000    0.000 
#    0.000    0.000    0.000    0.000    0.000    0.000 
#
# Total GULP energy -570329.535141 kJ/mol
# GULP energy per Si atom -12398.468155 kJ/mol
# Density = 1.885809 g / cm^3
# Si number density = 18.901107 Si / 1000 Ang^3
#
#
#
# Elastic Constant Matrix: (Units=GPa)
#
#
# Indices 1 2 3 4 5 6 
#
# 1 59.3128 19.3827 32.6714 0.0000 0.0000 0.0000
# 2 19.3827 117.8833 58.7068 0.0000 0.0000 0.0000
# 3 32.6714 58.7068 151.4534 0.0000 0.0000 0.0000
# 4 0.0000 0.0000 0.0000 32.2389 0.0000 0.0000
# 5 0.0000 0.0000 0.0000 0.0000 40.3845 0.0000
# 6 0.0000 0.0000 0.0000 0.0000 0.0000 79.0103
#
#
#
# Elastic Compliance Matrix: (Units=1/GPa)
#
#
# Indices 1 2 3 4 5 6 
#
# 1 0.019309 -0.001364 -0.003637 0.000000 0.000000 0.000000
# 2 -0.001364 0.010609 -0.003818 0.000000 0.000000 0.000000
# 3 -0.003637 -0.003818 0.008867 0.000000 0.000000 0.000000
# 4 0.000000 0.000000 0.000000 0.031018 0.000000 0.000000
# 5 0.000000 0.000000 0.000000 0.000000 0.024762 0.000000
# 6 0.000000 0.000000 0.000000 0.000000 0.000000 0.012657
#
#
# Mechanical properties :
#
#
# Convention : Reuss Voigt Hill
#
# Bulk Modulus (GPa) = 47.28647 61.13013 54.20830
# Shear Modulus (GPa) = 37.90552 44.85267 41.37910
#
# Velocity S-wave (km/s) = 4.48310 4.87665 4.68401
# Velocity P-wave (km/s) = 7.20206 8.00757 7.61548
#
# Compressibility (1/GPa) = 0.02114770
#
# Stress axis : x y z
#
# Youngs Moduli (GPa) = 51.79047 94.26361 112.77645
#
# Poissons Ratio (x) = 0.12855 0.41013
# Poissons Ratio (y) = 0.07063 0.43057
# Poissons Ratio (z) = 0.18834 0.35989
#
# Static dielectric constant tensor:
#      x y z
#    x 3.591870 0.000000 0.000000 
#    y 0.000000 3.266240 0.000000 
#    z 0.000000 0.000000 3.551070 
# 
# 
# High freq. dielectric constant tensor:
#      x y z
#    x 1.736370 0.000000 0.000000 
#    y 0.000000 1.710270 0.000000 
#    z 0.000000 0.000000 1.759830 
# 
# From -- ./inp_files/13835.got.cif
#   From: 2010.03.12/outbox.cif.g09.slc.cpg/sg72_7_cif.got.tgz:13835.got - 2010.04.16 14:54:00.
