data_PCOD8294828
_publ_section_title
;
Structure prediction by ZEFSAII (Michael W. Deem and Ramdas Pophale) SiO2 
 PCOD8294828
Probable space group: I B A M
;
_chemical_formula_sum "Si O2"
_cell_formula_units_Z 80
_cell_length_a 16.751192
_cell_length_b 15.675016
_cell_length_c 14.198062
_cell_angle_alpha 90.000000
_cell_angle_beta 90.000000
_cell_angle_gamma 90.000000
_cell_volume 3728.059006
_symmetry_space_group_name_H-M "I B A M"
_symmetry_group_IT_number 72
_symmetry_cell_setting 'orthorhombic'
loop_
_space_group_symop_operation_xyz
x,y,z
-x,-y,z
x,-y,1/2-z
-x,y,1/2-z
-x,-y,-z
x,y,-z
-x,y,1/2+z
x,-y,1/2+z
1/2+x,1/2+y,1/2+z
1/2-x,1/2-y,1/2+z
1/2+x,1/2-y,-z
1/2-x,1/2+y,-z
1/2-x,1/2-y,1/2-z
1/2+x,1/2+y,1/2-z
1/2-x,1/2+y,z
1/2+x,1/2-y,z
loop_
_atom_site_type_symbol
_atom_site_label
_atom_site_fract_x
_atom_site_fract_y
_atom_site_fract_z
Si Si1 0.315644 0.492492 0.500000
Si Si2 0.571656 0.239217 0.500000
Si Si3 0.068409 0.144054 0.000000
Si Si4 0.166096 0.233896 0.840139
Si Si5 0.263273 0.925773 0.682522
Si Si6 0.762774 0.182934 0.000000
Si Si7 0.424152 0.847418 0.305498
O O1 0.408386 0.457895 0.500000
O O2 0.266694 0.449771 0.418185
O O3 0.308797 0.593451 0.500000
O O4 0.525560 0.331363 0.500000
O O5 0.667230 0.247215 0.500000
O O6 0.546659 0.187016 0.406939
O O7 0.106048 0.182768 0.093843
O O8 0.228810 0.168242 0.790729
O O9 0.210667 0.305281 0.905000
O O10 0.114609 0.272231 0.756141
O O11 0.359500 0.922483 0.682516
O O12 0.231366 0.000000 0.750000
O O13 0.500000 0.885295 0.250000
#
# Coordination Sequence:
#
# PCOD8294828 Si02
#       7
#     8   8   8  16  16   8  16
#     4  10  23  41  60  96 131 162 205 280 319 380
#     4  12  23  39  65  96 122 171 217 260 321 383
#     4   9  20  40  60  92 133 157 207 268 325 370
#     4  10  21  41  65  95 120 167 221 264 306 393
#     4  11  23  40  64  93 130 162 211 268 327 373
#     4  11  22  40  73  93 126 170 217 258 325 382
#     4  12  24  40  66  93 129 172 221 262 315 391
#
# _framework density 21.458886
#
# number of rings (size 3 to 8) (size 9 to 14) (size 15 to 20)
#    0.000    1.200    4.000    3.000    2.800    0.800 
#    0.000    0.000    0.000    4.200    0.000    0.000 
#    0.000    0.000    0.000    0.000    0.000    0.000 
#
# Total GULP energy -495865.495314 kJ/mol
# GULP energy per Si atom -12396.637383 kJ/mol
# Density = 2.141005 g / cm^3
# Si number density = 21.458886 Si / 1000 Ang^3
#
#
#
# Elastic Constant Matrix: (Units=GPa)
#
#
# Indices 1 2 3 4 5 6 
#
# 1 84.2362 -1.9518 29.0241 0.0000 0.0000 0.0000
# 2 -1.9518 70.1542 19.5413 0.0000 0.0000 0.0000
# 3 29.0241 19.5413 124.9013 0.0000 0.0000 0.0000
# 4 0.0000 0.0000 0.0000 21.8113 0.0000 0.0000
# 5 0.0000 0.0000 0.0000 0.0000 29.5095 0.0000
# 6 0.0000 0.0000 0.0000 0.0000 0.0000 23.2442
#
#
#
# Elastic Compliance Matrix: (Units=1/GPa)
#
#
# Indices 1 2 3 4 5 6 
#
# 1 0.013010 0.001259 -0.003220 0.000000 0.000000 0.000000
# 2 0.001259 0.015026 -0.002643 0.000000 0.000000 0.000000
# 3 -0.003220 -0.002643 0.009168 0.000000 0.000000 0.000000
# 4 0.000000 0.000000 0.000000 0.045848 0.000000 0.000000
# 5 0.000000 0.000000 0.000000 0.000000 0.033887 0.000000
# 6 0.000000 0.000000 0.000000 0.000000 0.000000 0.043022
#
#
# Mechanical properties :
#
#
# Convention : Reuss Voigt Hill
#
# Bulk Modulus (GPa) = 35.72107 41.39096 38.55602
# Shear Modulus (GPa) = 28.01096 30.42486 29.21791
#
# Velocity S-wave (km/s) = 3.61686 3.76948 3.69396
# Velocity P-wave (km/s) = 5.84163 6.18673 6.01666
#
# Compressibility (1/GPa) = 0.02799468
#
# Stress axis : x y z
#
# Youngs Moduli (GPa) = 76.86343 66.55289 109.07282
#
# Poissons Ratio (x) = -0.08379 0.35124
# Poissons Ratio (y) = -0.09677 0.28832
# Poissons Ratio (z) = 0.24752 0.17592
#
# Static dielectric constant tensor:
#      x y z
#    x 3.986430 0.000000 0.000000 
#    y 0.000000 3.946050 0.000000 
#    z 0.000000 0.000000 4.014740 
# 
# 
# High freq. dielectric constant tensor:
#      x y z
#    x 1.841930 0.000000 0.000000 
#    y 0.000000 1.822060 0.000000 
#    z 0.000000 0.000000 1.860320 
# 
# From -- ./inp_files/23179.got.cif
#   From: 2010.03.12/outbox.cif.g09.slc.cpg/sg72_12_cif.got.tgz:23179.got - 2010.04.16 14:54:00.
