data_PCOD8294524
_publ_section_title
;
Structure prediction by ZEFSAII (Michael W. Deem and Ramdas Pophale) SiO2 
 PCOD8294524
Probable space group: I B A M
;
_chemical_formula_sum "Si O2"
_cell_formula_units_Z 104
_cell_length_a 24.463484
_cell_length_b 9.594222
_cell_length_c 23.241879
_cell_angle_alpha 90.000000
_cell_angle_beta 90.000000
_cell_angle_gamma 90.000000
_cell_volume 5455.057177
_symmetry_space_group_name_H-M "I B A M"
_symmetry_group_IT_number 72
_symmetry_cell_setting 'orthorhombic'
loop_
_space_group_symop_operation_xyz
x,y,z
-x,-y,z
x,-y,1/2-z
-x,y,1/2-z
-x,-y,-z
x,y,-z
-x,y,1/2+z
x,-y,1/2+z
1/2+x,1/2+y,1/2+z
1/2-x,1/2-y,1/2+z
1/2+x,1/2-y,-z
1/2-x,1/2+y,-z
1/2-x,1/2-y,1/2-z
1/2+x,1/2+y,1/2-z
1/2-x,1/2+y,z
1/2+x,1/2-y,z
loop_
_atom_site_type_symbol
_atom_site_label
_atom_site_fract_x
_atom_site_fract_y
_atom_site_fract_z
Si Si1 0.814271 0.268425 0.754204
Si Si2 0.438907 0.556012 0.865126
Si Si3 0.864236 0.296589 0.370732
Si Si4 0.833670 0.597175 0.629422
Si Si5 0.219467 0.902493 0.433919
Si Si6 0.122964 0.000000 0.750000
Si Si7 0.635909 0.363537 0.434676
O O1 0.750000 0.250000 0.750000
O O2 0.841450 0.304849 0.693851
O O3 0.829048 0.386053 0.801485
O O4 0.838609 0.121279 0.774629
O O5 0.500000 0.500000 0.864640
O O6 0.424043 0.720640 0.877422
O O7 0.415278 0.540116 0.802052
O O8 0.411386 0.466095 0.914562
O O9 0.867249 0.458484 0.389027
O O10 0.821383 0.214237 0.410168
O O11 0.773407 0.594049 0.603569
O O12 0.866716 0.726008 0.603609
O O13 0.233326 0.865498 0.500000
O O14 0.193672 0.056697 0.428758
O O15 0.624297 0.320750 0.500000
#
# Coordination Sequence:
#
# PCOD8294524 Si02
#       7
#    16  16  16  16  16   8  16
#     4  11  22  32  55  85 123 155 185 227 282 348
#     4  10  21  42  65  84 107 148 201 252 295 347
#     4  10  23  36  55  87 117 151 196 240 295 344
#     4  12  21  34  55  85 123 157 189 235 292 349
#     4  10  21  36  54  80 119 164 201 228 273 355
#     4  10  21  38  60  88 112 154 201 230 280 352
#     4  10  22  39  58  85 117 153 197 241 287 347
#
# _framework density 19.064876999999999
#
# number of rings (size 3 to 8) (size 9 to 14) (size 15 to 20)
#    0.000    1.538    3.077    2.077    2.154    2.769 
#    0.000    0.769    0.000    0.923    0.000    0.000 
#    0.000    0.000    0.000    0.000    0.000    0.000 
#
# Total GULP energy -644515.451136 kJ/mol
# GULP energy per Si atom -12394.527906 kJ/mol
# Density = 1.902148 g / cm^3
# Si number density = 19.064877 Si / 1000 Ang^3
#
#
#
# Elastic Constant Matrix: (Units=GPa)
#
#
# Indices 1 2 3 4 5 6 
#
# 1 95.8114 34.5414 19.1973 0.0000 0.0000 0.0000
# 2 34.5414 127.8800 25.8414 0.0000 0.0000 0.0000
# 3 19.1973 25.8414 92.2283 0.0000 0.0000 0.0000
# 4 0.0000 0.0000 0.0000 24.3163 0.0000 0.0000
# 5 0.0000 0.0000 0.0000 0.0000 10.7262 0.0000
# 6 0.0000 0.0000 0.0000 0.0000 0.0000 15.4885
#
#
#
# Elastic Compliance Matrix: (Units=1/GPa)
#
#
# Indices 1 2 3 4 5 6 
#
# 1 0.011797 -0.002852 -0.001657 0.000000 0.000000 0.000000
# 2 -0.002852 0.008979 -0.001922 0.000000 0.000000 0.000000
# 3 -0.001657 -0.001922 0.011726 0.000000 0.000000 0.000000
# 4 0.000000 0.000000 0.000000 0.041125 0.000000 0.000000
# 5 0.000000 0.000000 0.000000 0.000000 0.093230 0.000000
# 6 0.000000 0.000000 0.000000 0.000000 0.000000 0.064564
#
#
# Mechanical properties :
#
#
# Convention : Reuss Voigt Hill
#
# Bulk Modulus (GPa) = 50.91410 52.78664 51.85037
# Shear Modulus (GPa) = 19.93399 25.86217 22.89808
#
# Velocity S-wave (km/s) = 3.23706 3.68711 3.46939
# Velocity P-wave (km/s) = 6.38241 6.77306 6.58063
#
# Compressibility (1/GPa) = 0.01964092
#
# Stress axis : x y z
#
# Youngs Moduli (GPa) = 84.76589 111.37686 85.28042
#
# Poissons Ratio (x) = 0.31762 0.14127
# Poissons Ratio (y) = 0.24173 0.16392
# Poissons Ratio (z) = 0.14042 0.21408
#
# Static dielectric constant tensor:
#      x y z
#    x 3.403250 0.000000 0.000000 
#    y 0.000000 3.651900 0.000000 
#    z 0.000000 0.000000 3.495610 
# 
# 
# High freq. dielectric constant tensor:
#      x y z
#    x 1.701950 0.000000 0.000000 
#    y 0.000000 1.751120 0.000000 
#    z 0.000000 0.000000 1.758210 
# 
# From -- ./inp_files/45949.got.cif
#   From: 2010.03.12/outbox.cif.g09.slc.cpg/sg72_23_cif.got.tgz:45949.got - 2010.04.16 14:54:00.
