data_PCOD8295966
_publ_section_title
;
Structure prediction by ZEFSAII (Michael W. Deem and Ramdas Pophale) SiO2 
 PCOD8295966
Probable space group: I B C A 
;
_chemical_formula_sum "Si O2"
_cell_formula_units_Z 72
_cell_length_a 8.584683
_cell_length_b 27.707231
_cell_length_c 14.024242
_cell_angle_alpha 90.000000
_cell_angle_beta 90.000000
_cell_angle_gamma 90.000000
_cell_volume 3335.775278
_symmetry_space_group_name_H-M "I B C A "
_symmetry_group_IT_number 73
_symmetry_cell_setting 'orthorhombic'
loop_
_space_group_symop_operation_xyz
x,y,z
-x,1/2-y,z
x,-y,1/2-z
1/2-x,y,-z
-x,-y,-z
x,1/2+y,-z
-x,y,1/2+z
1/2+x,-y,z
1/2+x,1/2+y,1/2+z
1/2-x,-y,1/2+z
1/2+x,1/2-y,-z
-x,1/2+y,1/2-z
1/2-x,1/2-y,1/2-z
1/2+x,y,1/2-z
1/2-x,1/2+y,z
x,1/2-y,1/2+z
loop_
_atom_site_type_symbol
_atom_site_label
_atom_site_fract_x
_atom_site_fract_y
_atom_site_fract_z
Si Si1 0.913741 0.300746 0.661174
Si Si2 0.079099 0.636379 0.990098
Si Si3 0.122736 0.066668 0.172982
Si Si4 0.595188 0.651323 0.818463
Si Si5 0.133947 0.500000 0.250000
O O1 0.725481 0.307128 0.658357
O O2 0.000000 0.250000 0.648745
O O3 0.969329 0.330814 0.572072
O O4 0.958790 0.321565 0.763402
O O5 0.108678 0.586402 0.934200
O O6 0.250000 0.661099 0.000000
O O7 0.987341 0.628073 0.088826
O O8 0.160915 0.108155 0.252051
O O9 0.260611 0.027768 0.172791
O O10 0.962245 0.040168 0.194683
#
# Coordination Sequence:
#
# PCOD8295966 Si02
#       5
#    16  16  16  16   8
#     4  11  24  40  63  94 122 161 210 260 314 374
#     4  11  23  40  62  90 126 167 208 254 313 379
#     4  10  21  40  61  90 123 165 210 257 318 373
#     4  11  22  42  65  88 127 170 208 259 319 382
#     4  10  20  38  64  88 124 160 208 270 310 368
#
# _framework density 21.584187
#
# number of rings (size 3 to 8) (size 9 to 14) (size 15 to 20)
#    0.000    1.333    0.000    8.000    0.000    2.667 
#    0.000   12.222    0.000    0.000    0.000    0.000 
#    0.000    0.000    0.000    0.000    0.000    0.000 
#
# Total GULP energy -446129.943142 kJ/mol
# GULP energy per Si atom -12392.498421 kJ/mol
# Density = 2.153506 g / cm^3
# Si number density = 21.584187 Si / 1000 Ang^3
#
#
#
# Elastic Constant Matrix: (Units=GPa)
#
#
# Indices 1 2 3 4 5 6 
#
# 1 121.2319 19.8307 35.9941 0.0030 0.0002 0.0026
# 2 19.8307 52.2670 3.2130 0.0060 0.0019 0.0104
# 3 35.9941 3.2130 109.3412 0.0130 0.0024 0.0137
# 4 0.0030 0.0060 0.0130 -44.0077 0.0005 0.0041
# 5 0.0002 0.0019 0.0024 0.0005 27.6131 0.0026
# 6 0.0026 0.0104 0.0137 0.0041 0.0026 68.8519
#
#
#
# Elastic Compliance Matrix: (Units=1/GPa)
#
#
# Indices 1 2 3 4 5 6 
#
# 1 0.009744 -0.003506 -0.003105 -0.000001 0.000000 0.000001
# 2 -0.003506 0.020429 0.000554 0.000003 -0.000001 -0.000003
# 3 -0.003105 0.000554 0.010151 0.000003 -0.000001 -0.000002
# 4 -0.000001 0.000003 0.000003 -0.022723 0.000000 0.000001
# 5 0.000000 -0.000001 -0.000001 0.000000 0.036215 -0.000001
# 6 0.000001 -0.000003 -0.000002 0.000001 -0.000001 0.014524
#
#
# Mechanical properties :
#
#
# Convention : Reuss Voigt Hill
#
# Bulk Modulus (GPa) = 35.44784 44.54617 39.99701
# Shear Modulus (GPa) = 55.64427 25.41161 40.52794
#
# Velocity S-wave (km/s) = 5.08292 3.43494 4.33791
# Velocity P-wave (km/s) = 7.13490 6.03448 6.60764
#
# Compressibility (1/GPa) = 0.02821046
#
# Stress axis : x y z
#
# Youngs Moduli (GPa) = 102.62793 48.95062 98.50845
#
# Poissons Ratio (x) = 0.17163 0.30583
# Poissons Ratio (y) = 0.35983 -0.05456
# Poissons Ratio (z) = 0.31862 -0.02711
#
# Static dielectric constant tensor:
#      x y z
#    x 4.163940 0.000000 -0.000010 
#    y 0.000000 4.118210 0.000020 
#    z -0.000010 0.000020 4.250240 
# 
# 
# High freq. dielectric constant tensor:
#      x y z
#    x 1.868310 0.000000 0.000000 
#    y 0.000000 1.836830 0.000000 
#    z 0.000000 0.000000 1.846090 
# 
# From -- ./inp_files/4798.got.cif
#   From: 2010.03.12/outbox.cif.g09.slc.cpg/sg73_3_cif.got.tgz:4798.got - 2010.04.16 15:25:48.
