data_PCOD8295440
_publ_section_title
;
Structure prediction by ZEFSAII (Michael W. Deem and Ramdas Pophale) SiO2 
 PCOD8295440
Probable space group: I B A M
;
_chemical_formula_sum "Si O2"
_cell_formula_units_Z 88
_cell_length_a 13.789863
_cell_length_b 19.423069
_cell_length_c 13.470507
_cell_angle_alpha 90.000000
_cell_angle_beta 90.000000
_cell_angle_gamma 90.000000
_cell_volume 3607.960269
_symmetry_space_group_name_H-M "I B A M"
_symmetry_group_IT_number 72
_symmetry_cell_setting 'orthorhombic'
loop_
_space_group_symop_operation_xyz
x,y,z
-x,-y,z
x,-y,1/2-z
-x,y,1/2-z
-x,-y,-z
x,y,-z
-x,y,1/2+z
x,-y,1/2+z
1/2+x,1/2+y,1/2+z
1/2-x,1/2-y,1/2+z
1/2+x,1/2-y,-z
1/2-x,1/2+y,-z
1/2-x,1/2-y,1/2-z
1/2+x,1/2+y,1/2-z
1/2-x,1/2+y,z
1/2+x,1/2-y,z
loop_
_atom_site_type_symbol
_atom_site_label
_atom_site_fract_x
_atom_site_fract_y
_atom_site_fract_z
Si Si1 0.627284 0.011455 0.500000
Si Si2 0.680350 0.777202 0.000000
Si Si3 0.089941 0.139504 0.500000
Si Si4 0.496715 0.851801 0.000000
Si Si5 0.555810 0.399741 0.840795
Si Si6 0.909028 0.593638 0.177722
Si Si7 0.844368 0.987865 0.000000
Si Si8 0.253326 0.325067 0.295273
O O1 0.616661 0.970380 0.604856
O O2 0.549146 0.072600 0.500000
O O3 0.735555 0.041344 0.500000
O O4 0.680207 0.694061 0.000000
O O5 0.725924 0.817050 0.909097
O O6 0.565276 0.787188 0.000000
O O7 0.019813 0.145881 0.404790
O O8 0.152200 0.069696 0.500000
O O9 0.435167 0.844792 0.101188
O O10 0.500000 0.434622 0.750000
O O11 0.600386 0.461706 0.903253
O O12 0.637361 0.351252 0.792415
O O13 0.817507 0.619438 0.242149
O O14 0.000000 0.576108 0.250000
O O15 0.250000 0.250000 0.250000
#
# Coordination Sequence:
#
# PCOD8295440 Si02
#       8
#     8   8   8   8  16  16   8  16
#     4  11  27  48  77 112 156 191 258 320 381 455
#     4  12  25  48  78 105 154 194 248 321 380 455
#     4  11  27  48  76 104 149 201 255 313 381 450
#     4  11  24  49  75 106 154 193 241 317 382 448
#     4  11  25  50  77 108 151 201 251 314 376 449
#     4  11  25  47  74 110 149 200 248 305 379 462
#     4  11  27  51  74 113 150 196 259 316 384 435
#     4  12  28  46  78 116 152 200 259 308 387 458
#
# _framework density 24.390512000000001
#
# number of rings (size 3 to 8) (size 9 to 14) (size 15 to 20)
#    0.000    0.727    1.818    5.455    7.636    4.364 
#    0.000    0.000    0.000    0.000    0.000    0.000 
#    0.000    0.000    0.000    0.000    0.000    0.000 
#
# Total GULP energy -545411.307388 kJ/mol
# GULP energy per Si atom -12395.711532 kJ/mol
# Density = 2.433500 g / cm^3
# Si number density = 24.390512 Si / 1000 Ang^3
#
#
#
# Elastic Constant Matrix: (Units=GPa)
#
#
# Indices 1 2 3 4 5 6 
#
# 1 104.3935 15.6840 63.7224 0.0000 0.0000 0.0000
# 2 15.6840 95.5553 34.7054 0.0001 0.0001 0.0000
# 3 63.7224 34.7054 190.2113 0.0005 0.0008 0.0000
# 4 0.0000 0.0001 0.0005 3.1963 0.0006 0.0000
# 5 0.0000 0.0001 0.0008 0.0006 90.5413 0.0000
# 6 0.0000 0.0000 0.0000 0.0000 0.0000 33.3942
#
#
#
# Elastic Compliance Matrix: (Units=1/GPa)
#
#
# Indices 1 2 3 4 5 6 
#
# 1 0.012068 -0.000549 -0.003943 0.000001 0.000000 0.000000
# 2 -0.000549 0.011233 -0.001866 0.000000 0.000000 0.000000
# 3 -0.003943 -0.001866 0.006919 -0.000001 0.000000 0.000000
# 4 0.000001 0.000000 -0.000001 0.312858 -0.000002 0.000000
# 5 0.000000 0.000000 0.000000 -0.000002 0.011045 0.000000
# 6 0.000000 0.000000 0.000000 0.000000 0.000000 0.029945
#
#
# Mechanical properties :
#
#
# Convention : Reuss Voigt Hill
#
# Bulk Modulus (GPa) = 57.12613 68.70930 62.91771
# Shear Modulus (GPa) = 12.41872 43.82960 28.12416
#
# Velocity S-wave (km/s) = 2.25891 4.24370 3.39938
# Velocity P-wave (km/s) = 5.50235 7.22797 6.42337
#
# Compressibility (1/GPa) = 0.01750513
#
# Stress axis : x y z
#
# Youngs Moduli (GPa) = 82.86147 89.02483 144.53786
#
# Poissons Ratio (x) = 0.04886 0.56989
# Poissons Ratio (y) = 0.04547 0.26966
# Poissons Ratio (z) = 0.32671 0.16609
#
# Static dielectric constant tensor:
#      x y z
#    x 5.059850 0.000000 -0.000040 
#    y 0.000000 4.080610 0.000000 
#    z -0.000040 0.000000 0.908460 
# 
# 
# High freq. dielectric constant tensor:
#      x y z
#    x 1.979020 0.000000 0.000000 
#    y 0.000000 1.959700 0.000000 
#    z 0.000000 0.000000 1.995970 
# 
# From -- ./inp_files/12898.got.cif
#   From: 2010.03.12/outbox.cif.g09.slc.cpg/sg72_7_cif.got.tgz:12898.got - 2010.04.16 14:54:00.
