data_PCOD8295129
_publ_section_title
;
Structure prediction by ZEFSAII (Michael W. Deem and Ramdas Pophale) SiO2 
 PCOD8295129
Probable space group: I B A M
;
_chemical_formula_sum "Si O2"
_cell_formula_units_Z 80
_cell_length_a 28.324218
_cell_length_b 7.653272
_cell_length_c 16.575475
_cell_angle_alpha 90.000000
_cell_angle_beta 90.000000
_cell_angle_gamma 90.000000
_cell_volume 3593.114523
_symmetry_space_group_name_H-M "I B A M"
_symmetry_group_IT_number 72
_symmetry_cell_setting 'orthorhombic'
loop_
_space_group_symop_operation_xyz
x,y,z
-x,-y,z
x,-y,1/2-z
-x,y,1/2-z
-x,-y,-z
x,y,-z
-x,y,1/2+z
x,-y,1/2+z
1/2+x,1/2+y,1/2+z
1/2-x,1/2-y,1/2+z
1/2+x,1/2-y,-z
1/2-x,1/2+y,-z
1/2-x,1/2-y,1/2-z
1/2+x,1/2+y,1/2-z
1/2-x,1/2+y,z
1/2+x,1/2-y,z
loop_
_atom_site_type_symbol
_atom_site_label
_atom_site_fract_x
_atom_site_fract_y
_atom_site_fract_z
Si Si1 0.706146 0.911641 0.163627
Si Si2 0.203202 0.234705 0.909176
Si Si3 0.446495 0.957535 0.157890
Si Si4 0.900870 0.875299 0.906381
Si Si5 0.118901 0.745958 0.092594
O O1 0.757530 0.825396 0.155241
O O2 0.665491 0.767401 0.148670
O O3 0.699756 0.000000 0.250000
O O4 0.699195 0.056502 0.094447
O O5 0.153577 0.153897 0.883098
O O6 0.216978 0.178211 0.000000
O O7 0.435134 0.752863 0.143641
O O8 0.500000 0.000000 0.134799
O O9 0.435283 0.000000 0.250000
O O10 0.413712 0.076440 0.101842
O O11 0.910627 0.078581 0.883902
O O12 0.910231 0.835873 0.000000
O O13 0.135473 0.763008 0.000000
#
# Coordination Sequence:
#
# PCOD8295129 Si02
#       5
#    16  16  16  16  16
#     4  12  24  40  61  97 141 183 232 286 338 404
#     4  11  22  39  62  90 132 180 229 279 335 404
#     4  11  25  46  69  98 134 173 220 283 353 417
#     4  10  23  42  67  99 131 173 228 280 336 406
#     4  11  23  42  68  97 134 180 230 283 341 406
#
# _framework density 22.264806
#
# number of rings (size 3 to 8) (size 9 to 14) (size 15 to 20)
#    0.000    1.000    2.000    4.800    0.000    4.800 
#    0.000    4.000    0.000    0.000    0.000    0.000 
#    0.000    0.000    0.000    0.000    0.000    0.000 
#
# Total GULP energy -496168.584582 kJ/mol
# GULP energy per Si atom -12404.214615 kJ/mol
# Density = 2.221413 g / cm^3
# Si number density = 22.264806 Si / 1000 Ang^3
#
#
#
# Elastic Constant Matrix: (Units=GPa)
#
#
# Indices 1 2 3 4 5 6 
#
# 1 102.7185 32.0851 46.9921 0.0000 0.0000 0.0000
# 2 32.0851 121.9182 31.7625 0.0000 0.0000 0.0000
# 3 46.9921 31.7625 88.4660 0.0000 0.0000 0.0000
# 4 0.0000 0.0000 0.0000 37.1527 0.0000 0.0000
# 5 0.0000 0.0000 0.0000 0.0000 26.3240 0.0000
# 6 0.0000 0.0000 0.0000 0.0000 0.0000 34.6518
#
#
#
# Elastic Compliance Matrix: (Units=1/GPa)
#
#
# Indices 1 2 3 4 5 6 
#
# 1 0.013217 -0.001819 -0.006367 0.000000 0.000000 0.000000
# 2 -0.001819 0.009299 -0.002372 0.000000 0.000000 0.000000
# 3 -0.006367 -0.002372 0.015538 0.000000 0.000000 0.000000
# 4 0.000000 0.000000 0.000000 0.026916 0.000000 0.000000
# 5 0.000000 0.000000 0.000000 0.000000 0.037988 0.000000
# 6 0.000000 0.000000 0.000000 0.000000 0.000000 0.028859
#
#
# Mechanical properties :
#
#
# Convention : Reuss Voigt Hill
#
# Bulk Modulus (GPa) = 59.04744 59.42023 59.23383
# Shear Modulus (GPa) = 31.53002 33.10989 32.31995
#
# Velocity S-wave (km/s) = 3.76724 3.86047 3.81414
# Velocity P-wave (km/s) = 6.74544 6.82766 6.78667
#
# Compressibility (1/GPa) = 0.01693554
#
# Stress axis : x y z
#
# Youngs Moduli (GPa) = 75.66259 107.53785 64.35949
#
# Poissons Ratio (x) = 0.19565 0.40979
# Poissons Ratio (y) = 0.13766 0.15268
# Poissons Ratio (z) = 0.48176 0.25511
#
# Static dielectric constant tensor:
#      x y z
#    x 3.862910 0.000000 0.000000 
#    y 0.000000 4.295140 0.000000 
#    z 0.000000 0.000000 3.788510 
# 
# 
# High freq. dielectric constant tensor:
#      x y z
#    x 1.864370 0.000000 0.000000 
#    y 0.000000 1.890400 0.000000 
#    z 0.000000 0.000000 1.871750 
# 
# From -- ./inp_files/34181.got.cif
#   From: 2010.03.12/outbox.cif.g09.slc.cpg/sg72_18_cif.got.tgz:34181.got - 2010.04.16 14:54:00.
