data_PCOD8295145
_publ_section_title
;
Structure prediction by ZEFSAII (Michael W. Deem and Ramdas Pophale) SiO2 
 PCOD8295145
Probable space group: I B A M
;
_chemical_formula_sum "Si O2"
_cell_formula_units_Z 36
_cell_length_a 9.525749
_cell_length_b 11.815609
_cell_length_c 13.576640
_cell_angle_alpha 90.000000
_cell_angle_beta 90.000000
_cell_angle_gamma 90.000000
_cell_volume 1528.085121
_symmetry_space_group_name_H-M "I B A M"
_symmetry_group_IT_number 72
_symmetry_cell_setting 'orthorhombic'
loop_
_space_group_symop_operation_xyz
x,y,z
-x,-y,z
x,-y,1/2-z
-x,y,1/2-z
-x,-y,-z
x,y,-z
-x,y,1/2+z
x,-y,1/2+z
1/2+x,1/2+y,1/2+z
1/2-x,1/2-y,1/2+z
1/2+x,1/2-y,-z
1/2-x,1/2+y,-z
1/2-x,1/2-y,1/2-z
1/2+x,1/2+y,1/2-z
1/2-x,1/2+y,z
1/2+x,1/2-y,z
loop_
_atom_site_type_symbol
_atom_site_label
_atom_site_fract_x
_atom_site_fract_y
_atom_site_fract_z
Si Si1 0.339309 0.171916 0.884374
Si Si2 0.021635 0.876431 0.613831
Si Si3 0.500000 0.000000 0.750000
O O1 0.173456 0.177164 0.866537
O O2 0.405386 0.289641 0.843906
O O3 0.400942 0.070510 0.821562
O O4 0.374830 0.152503 0.000000
O O5 0.989973 0.890704 0.500000
O O6 0.000000 0.000000 0.663909
#
# Coordination Sequence:
#
# PCOD8295145 Si02
#       3
#    16  16   4
#     4  10  23  43  67  94 130 171 216 267 321 381
#     4   9  20  41  69  96 128 171 215 264 324 382
#     4  12  26  40  64  98 132 172 220 262 320 386
#
# _framework density 23.558896000000001
#
# number of rings (size 3 to 8) (size 9 to 14) (size 15 to 20)
#    0.000    2.222    0.000    0.667    6.222    1.778 
#    0.000    0.000    0.000    0.000    0.000    0.000 
#    0.000    0.000    0.000    0.000    0.000    0.000 
#
# Total GULP energy -223170.998654 kJ/mol
# GULP energy per Si atom -12398.388814 kJ/mol
# Density = 2.350527 g / cm^3
# Si number density = 23.558896 Si / 1000 Ang^3
#
#
#
# Elastic Constant Matrix: (Units=GPa)
#
#
# Indices 1 2 3 4 5 6 
#
# 1 122.1926 107.5656 21.2075 0.0000 0.0000 0.0000
# 2 107.5656 222.2995 31.8404 0.0000 0.0000 0.0000
# 3 21.2075 31.8404 92.6540 0.0000 0.0000 0.0000
# 4 0.0000 0.0000 0.0000 -87.4351 0.0000 0.0000
# 5 0.0000 0.0000 0.0000 0.0000 10.4106 0.0000
# 6 0.0000 0.0000 0.0000 0.0000 0.0000 48.8924
#
#
#
# Elastic Compliance Matrix: (Units=1/GPa)
#
#
# Indices 1 2 3 4 5 6 
#
# 1 0.014334 -0.006801 -0.000944 0.000000 0.000000 0.000000
# 2 -0.006801 0.007958 -0.001178 0.000000 0.000000 0.000000
# 3 -0.000944 -0.001178 0.011414 0.000000 0.000000 0.000000
# 4 0.000000 0.000000 0.000000 -0.011437 0.000000 0.000000
# 5 0.000000 0.000000 0.000000 0.000000 0.096056 0.000000
# 6 0.000000 0.000000 0.000000 0.000000 0.000000 0.020453
#
#
# Mechanical properties :
#
#
# Convention : Reuss Voigt Hill
#
# Bulk Modulus (GPa) = 63.05014 84.26368 73.65691
# Shear Modulus (GPa) = 30.88117 12.80908 21.84512
#
# Velocity S-wave (km/s) = 3.62443 2.33428 3.04839
# Velocity P-wave (km/s) = 6.65855 6.56582 6.61235
#
# Compressibility (1/GPa) = 0.01586039
#
# Stress axis : x y z
#
# Youngs Moduli (GPa) = 69.76212 125.66005 87.61373
#
# Poissons Ratio (x) = 0.85460 0.08270
# Poissons Ratio (y) = 0.47445 0.10322
# Poissons Ratio (z) = 0.06585 0.14804
#
# Static dielectric constant tensor:
#      x y z
#    x 4.184350 0.000000 0.000000 
#    y 0.000000 4.719290 0.000000 
#    z 0.000000 0.000000 4.270680 
# 
# 
# High freq. dielectric constant tensor:
#      x y z
#    x 1.933080 0.000000 0.000000 
#    y 0.000000 1.940430 0.000000 
#    z 0.000000 0.000000 1.949560 
# 
# From -- ./inp_files/17819.got.cif
#   From: 2010.03.12/outbox.cif.g09.slc.cpg/sg72_9_cif.got.tgz:17819.got - 2010.04.16 14:54:00.
