data_PCOD8295788
_publ_section_title
;
Structure prediction by ZEFSAII (Michael W. Deem and Ramdas Pophale) SiO2 
 PCOD8295788
Probable space group: I B C A 
;
_chemical_formula_sum "Si O2"
_cell_formula_units_Z 112
_cell_length_a 15.736958
_cell_length_b 28.875044
_cell_length_c 11.357268
_cell_angle_alpha 90.000000
_cell_angle_beta 90.000000
_cell_angle_gamma 90.000000
_cell_volume 5160.803394
_symmetry_space_group_name_H-M "I B C A "
_symmetry_group_IT_number 73
_symmetry_cell_setting 'orthorhombic'
loop_
_space_group_symop_operation_xyz
x,y,z
-x,1/2-y,z
x,-y,1/2-z
1/2-x,y,-z
-x,-y,-z
x,1/2+y,-z
-x,y,1/2+z
1/2+x,-y,z
1/2+x,1/2+y,1/2+z
1/2-x,-y,1/2+z
1/2+x,1/2-y,-z
-x,1/2+y,1/2-z
1/2-x,1/2-y,1/2-z
1/2+x,y,1/2-z
1/2-x,1/2+y,z
x,1/2-y,1/2+z
loop_
_atom_site_type_symbol
_atom_site_label
_atom_site_fract_x
_atom_site_fract_y
_atom_site_fract_z
Si Si1 0.649500 0.966020 0.012939
Si Si2 0.798087 0.238562 0.124517
Si Si3 0.831127 0.900571 0.784009
Si Si4 0.909802 0.848753 0.371946
Si Si5 0.347984 0.068277 0.524815
Si Si6 0.092422 0.176874 0.080605
Si Si7 0.139360 0.117550 0.862122
O O1 0.632711 0.942764 0.138620
O O2 0.609320 0.017422 0.005860
O O3 0.750000 0.968372 0.000000
O O4 0.609199 0.932316 0.912956
O O5 0.750000 0.250000 0.250000
O O6 0.829009 0.185544 0.127256
O O7 0.879618 0.271430 0.111999
O O8 0.750000 0.245816 0.000000
O O9 0.857321 0.914140 0.655163
O O10 0.882748 0.854087 0.808289
O O11 0.732133 0.889205 0.805061
O O12 0.893344 0.895855 0.440662
O O13 0.925634 0.864537 0.237042
O O14 0.990453 0.823559 0.430369
O O15 0.250000 0.063580 0.500000
O O16 0.140133 0.156180 0.965312
#
# Coordination Sequence:
#
# PCOD8295788 Si02
#       7
#    16  16  16  16  16  16  16
#     4   8  18  35  64  93 126 171 222 269 317 373
#     4  12  27  47  73  99 128 169 225 276 334 400
#     4  10  19  39  66  91 127 173 227 268 317 385
#     4  12  26  40  65  99 135 168 213 277 332 395
#     4  11  21  36  62 100 131 164 223 280 316 371
#     4  11  25  43  66  92 133 177 211 265 337 407
#     4  10  21  43  65  93 132 182 220 261 332 393
#
# _framework density 21.702045999999999
#
# number of rings (size 3 to 8) (size 9 to 14) (size 15 to 20)
#    0.000    1.429    1.429    5.143    4.000    0.571 
#    0.000    5.714    6.286    0.000    0.000    0.000 
#    0.000    0.000    0.000    0.000    0.000    0.000 
#
# Total GULP energy -694046.063708 kJ/mol
# GULP energy per Si atom -12393.679709 kJ/mol
# Density = 2.165265 g / cm^3
# Si number density = 21.702046 Si / 1000 Ang^3
#
#
#
# Elastic Constant Matrix: (Units=GPa)
#
#
# Indices 1 2 3 4 5 6 
#
# 1 27.0231 0.1352 8.6446 0.0012 -0.0001 -0.0001
# 2 0.1352 114.4703 45.4928 0.0013 -0.0001 -0.0001
# 3 8.6446 45.4928 129.2457 0.0020 0.0001 -0.0001
# 4 0.0012 0.0013 0.0020 19.8385 0.0000 0.0000
# 5 -0.0001 -0.0001 0.0001 0.0000 17.9080 -0.0001
# 6 -0.0001 -0.0001 -0.0001 0.0000 -0.0001 24.3292
#
#
#
# Elastic Compliance Matrix: (Units=1/GPa)
#
#
# Indices 1 2 3 4 5 6 
#
# 1 0.037938 0.001120 -0.002932 -0.000002 0.000000 0.000000
# 2 0.001120 0.010190 -0.003662 0.000000 0.000000 0.000000
# 3 -0.002932 -0.003662 0.009222 -0.000001 0.000000 0.000000
# 4 -0.000002 0.000000 -0.000001 0.050407 0.000000 0.000000
# 5 0.000000 0.000000 0.000000 0.000000 0.055841 0.000000
# 6 0.000000 0.000000 0.000000 0.000000 0.000000 0.041103
#
#
# Mechanical properties :
#
#
# Convention : Reuss Voigt Hill
#
# Bulk Modulus (GPa) = 21.55015 42.14271 31.84643
# Shear Modulus (GPa) = 21.63432 26.84623 24.24027
#
# Velocity S-wave (km/s) = 3.16076 3.52097 3.34572
# Velocity P-wave (km/s) = 4.82412 5.99921 5.44347
#
# Compressibility (1/GPa) = 0.04640339
#
# Stress axis : x y z
#
# Youngs Moduli (GPa) = 26.35906 98.13770 108.43476
#
# Poissons Ratio (x) = -0.10995 0.31791
# Poissons Ratio (y) = -0.02953 0.39704
# Poissons Ratio (z) = 0.07728 0.35934
#
# Static dielectric constant tensor:
#      x y z
#    x 3.770020 0.000000 0.000000 
#    y 0.000000 4.303990 0.000000 
#    z 0.000000 0.000000 4.199740 
# 
# 
# High freq. dielectric constant tensor:
#      x y z
#    x 1.824500 0.000000 0.000000 
#    y 0.000000 1.868170 0.000000 
#    z 0.000000 0.000000 1.861500 
# 
# From -- ./inp_files/11260.got.cif
#   From: 2010.03.12/outbox.cif.g09.slc.cpg/sg73_6_cif.got.tgz:11260.got - 2010.04.16 15:25:48.
