data_PCOD8295022
_publ_section_title
;
Structure prediction by ZEFSAII (Michael W. Deem and Ramdas Pophale) SiO2 
 PCOD8295022
Probable space group: I B A M
;
_chemical_formula_sum "Si O2"
_cell_formula_units_Z 96
_cell_length_a 22.169985
_cell_length_b 11.257346
_cell_length_c 17.714594
_cell_angle_alpha 90.000000
_cell_angle_beta 90.000000
_cell_angle_gamma 90.000000
_cell_volume 4421.123198
_symmetry_space_group_name_H-M "I B A M"
_symmetry_group_IT_number 72
_symmetry_cell_setting 'orthorhombic'
loop_
_space_group_symop_operation_xyz
x,y,z
-x,-y,z
x,-y,1/2-z
-x,y,1/2-z
-x,-y,-z
x,y,-z
-x,y,1/2+z
x,-y,1/2+z
1/2+x,1/2+y,1/2+z
1/2-x,1/2-y,1/2+z
1/2+x,1/2-y,-z
1/2-x,1/2+y,-z
1/2-x,1/2-y,1/2-z
1/2+x,1/2+y,1/2-z
1/2-x,1/2+y,z
1/2+x,1/2-y,z
loop_
_atom_site_type_symbol
_atom_site_label
_atom_site_fract_x
_atom_site_fract_y
_atom_site_fract_z
Si Si1 0.268349 0.124824 0.209134
Si Si2 0.565521 0.464681 0.337722
Si Si3 0.603735 0.047226 0.673769
Si Si4 0.400255 0.827425 0.917867
Si Si5 0.532211 0.766974 0.089566
Si Si6 0.173948 0.900449 0.583440
O O1 0.250000 0.250000 0.250000
O O2 0.339876 0.132096 0.194084
O O3 0.235066 0.108432 0.129891
O O4 0.251963 0.000000 0.250000
O O5 0.500000 0.500000 0.371928
O O6 0.569432 0.500000 0.250000
O O7 0.568413 0.324924 0.356752
O O8 0.621744 0.521956 0.379093
O O9 0.557305 0.105933 0.615745
O O10 0.571049 0.000000 0.750000
O O11 0.627842 0.928444 0.634140
O O12 0.461747 0.765726 0.887580
O O13 0.348139 0.732804 0.923413
O O14 0.415625 0.881259 0.000000
O O15 0.543033 0.743907 0.000000
O O16 0.188064 0.952354 0.500000
#
# Coordination Sequence:
#
# PCOD8295022 Si02
#       6
#    16  16  16  16  16  16
#     4  11  26  48  70  94 135 180 229 295 346 404
#     4  11  24  39  65  98 136 176 221 276 338 409
#     4  11  25  41  67  95 128 174 227 278 334 408
#     4  10  22  42  65  94 138 174 208 271 345 406
#     4  11  24  42  66  99 138 176 218 273 342 415
#     4  11  23  41  69  97 132 177 223 277 340 409
#
# _framework density 21.713939
#
# number of rings (size 3 to 8) (size 9 to 14) (size 15 to 20)
#    0.000    1.167    1.667    4.000    7.000    4.667 
#    0.000    0.833    0.000    0.000    0.000    0.000 
#    0.000    0.000    0.000    0.000    0.000    0.000 
#
# Total GULP energy -594861.021189 kJ/mol
# GULP energy per Si atom -12392.937941 kJ/mol
# Density = 2.166452 g / cm^3
# Si number density = 21.713939 Si / 1000 Ang^3
#
#
#
# Elastic Constant Matrix: (Units=GPa)
#
#
# Indices 1 2 3 4 5 6 
#
# 1 49.9031 5.4473 37.7185 0.0000 0.0000 0.0000
# 2 5.4473 93.6222 40.1605 0.0000 0.0000 0.0000
# 3 37.7185 40.1605 127.5001 0.0000 0.0000 0.0000
# 4 0.0000 0.0000 0.0000 39.2613 0.0000 0.0000
# 5 0.0000 0.0000 0.0000 0.0000 32.4007 0.0000
# 6 0.0000 0.0000 0.0000 0.0000 0.0000 35.1844
#
#
#
# Elastic Compliance Matrix: (Units=1/GPa)
#
#
# Indices 1 2 3 4 5 6 
#
# 1 0.026155 0.002078 -0.008392 0.000000 0.000000 0.000000
# 2 0.002078 0.012515 -0.004557 0.000000 0.000000 0.000000
# 3 -0.008392 -0.004557 0.011761 0.000000 0.000000 0.000000
# 4 0.000000 0.000000 0.000000 0.025470 0.000000 0.000000
# 5 0.000000 0.000000 0.000000 0.000000 0.030864 0.000000
# 6 0.000000 0.000000 0.000000 0.000000 0.000000 0.028422
#
#
# Mechanical properties :
#
#
# Convention : Reuss Voigt Hill
#
# Bulk Modulus (GPa) = 34.85583 48.63087 41.74335
# Shear Modulus (GPa) = 30.03160 33.88256 31.95708
#
# Velocity S-wave (km/s) = 3.72298 3.95448 3.84048
# Velocity P-wave (km/s) = 5.87945 6.57992 6.23952
#
# Compressibility (1/GPa) = 0.02868960
#
# Stress axis : x y z
#
# Youngs Moduli (GPa) = 38.23364 79.90402 85.02626
#
# Poissons Ratio (x) = -0.16605 0.71354
# Poissons Ratio (y) = -0.07945 0.38745
# Poissons Ratio (z) = 0.32086 0.36411
#
# Static dielectric constant tensor:
#      x y z
#    x 3.782350 0.000000 0.000000 
#    y 0.000000 3.974910 0.000000 
#    z 0.000000 0.000000 4.297400 
# 
# 
# High freq. dielectric constant tensor:
#      x y z
#    x 1.845930 0.000000 0.000000 
#    y 0.000000 1.859970 0.000000 
#    z 0.000000 0.000000 1.862350 
# 
# From -- ./inp_files/33294.got.cif
#   From: 2010.03.12/outbox.cif.g09.slc.cpg/sg72_17_cif.got.tgz:33294.got - 2010.04.16 14:54:00.
