data_PCOD8295423
_publ_section_title
;
Structure prediction by ZEFSAII (Michael W. Deem and Ramdas Pophale) SiO2 
 PCOD8295423
Probable space group: I B A M
;
_chemical_formula_sum "Si O2"
_cell_formula_units_Z 56
_cell_length_a 8.242630
_cell_length_b 12.576694
_cell_length_c 21.117508
_cell_angle_alpha 90.000000
_cell_angle_beta 90.000000
_cell_angle_gamma 90.000000
_cell_volume 2189.147212
_symmetry_space_group_name_H-M "I B A M"
_symmetry_group_IT_number 72
_symmetry_cell_setting 'orthorhombic'
loop_
_space_group_symop_operation_xyz
x,y,z
-x,-y,z
x,-y,1/2-z
-x,y,1/2-z
-x,-y,-z
x,y,-z
-x,y,1/2+z
x,-y,1/2+z
1/2+x,1/2+y,1/2+z
1/2-x,1/2-y,1/2+z
1/2+x,1/2-y,-z
1/2-x,1/2+y,-z
1/2-x,1/2-y,1/2-z
1/2+x,1/2+y,1/2-z
1/2-x,1/2+y,z
1/2+x,1/2-y,z
loop_
_atom_site_type_symbol
_atom_site_label
_atom_site_fract_x
_atom_site_fract_y
_atom_site_fract_z
Si Si1 0.000000 0.000000 0.101150
Si Si2 0.691491 0.596000 0.000000
Si Si3 0.066421 0.617445 0.862119
Si Si4 0.096743 0.813626 0.684720
Si Si5 0.450227 0.180892 0.000000
O O1 0.837597 0.018515 0.059744
O O2 0.003887 0.104604 0.141601
O O3 0.863336 0.649047 0.000000
O O4 0.559281 0.691545 0.000000
O O5 0.213426 0.650715 0.813821
O O6 0.125299 0.630810 0.935537
O O7 0.000000 0.500000 0.847735
O O8 0.917432 0.697068 0.846983
O O9 0.000000 0.817842 0.750000
#
# Coordination Sequence:
#
# PCOD8295423 Si02
#       5
#     8   8  16  16   8
#     4  11  25  46  76 108 155 211 270 320 410 459
#     4  11  24  42  77 111 158 206 255 332 404 474
#     4  12  28  49  82 120 162 210 269 328 408 472
#     4  12  28  52  78 111 163 212 275 330 391 478
#     4  12  23  46  73 116 166 194 265 331 398 474
#
# _framework density 25.580736999999999
#
# number of rings (size 3 to 8) (size 9 to 14) (size 15 to 20)
#    0.000    0.286    2.857    5.143    4.000    1.714 
#    5.143    0.000    0.000    0.000    0.000    0.000 
#    0.000    0.000    0.000    0.000    0.000    0.000 
#
# Total GULP energy -347069.918267 kJ/mol
# GULP energy per Si atom -12395.354224 kJ/mol
# Density = 2.552251 g / cm^3
# Si number density = 25.580737 Si / 1000 Ang^3
#
#
#
# Elastic Constant Matrix: (Units=GPa)
#
#
# Indices 1 2 3 4 5 6 
#
# 1 115.8043 54.2449 46.2025 0.0000 0.0000 0.0000
# 2 54.2449 211.0507 73.4219 0.0000 0.0000 0.0000
# 3 46.2025 73.4219 130.7628 0.0000 0.0000 0.0000
# 4 0.0000 0.0000 0.0000 7.4774 0.0000 0.0000
# 5 0.0000 0.0000 0.0000 0.0000 8.2311 0.0000
# 6 0.0000 0.0000 0.0000 0.0000 0.0000 42.3903
#
#
#
# Elastic Compliance Matrix: (Units=1/GPa)
#
#
# Indices 1 2 3 4 5 6 
#
# 1 0.010553 -0.001759 -0.002741 0.000000 0.000000 0.000000
# 2 -0.001759 0.006182 -0.002849 0.000000 0.000000 0.000000
# 3 -0.002741 -0.002849 0.010216 0.000000 0.000000 0.000000
# 4 0.000000 0.000000 0.000000 0.133737 0.000000 0.000000
# 5 0.000000 0.000000 0.000000 0.000000 0.121491 0.000000
# 6 0.000000 0.000000 0.000000 0.000000 0.000000 0.023590
#
#
# Mechanical properties :
#
#
# Convention : Reuss Voigt Hill
#
# Bulk Modulus (GPa) = 81.62206 89.48406 85.55306
# Shear Modulus (GPa) = 15.40591 30.53630 22.97111
#
# Velocity S-wave (km/s) = 2.45673 3.45878 2.99989
# Velocity P-wave (km/s) = 6.32647 7.14198 6.74656
#
# Compressibility (1/GPa) = 0.01225159
#
# Stress axis : x y z
#
# Youngs Moduli (GPa) = 94.76265 161.77275 97.88672
#
# Poissons Ratio (x) = 0.28451 0.26832
# Poissons Ratio (y) = 0.16666 0.27892
# Poissons Ratio (z) = 0.25975 0.46096
#
# Static dielectric constant tensor:
#      x y z
#    x 4.391140 0.000000 0.000000 
#    y 0.000000 4.842120 0.000000 
#    z 0.000000 0.000000 4.898330 
# 
# 
# High freq. dielectric constant tensor:
#      x y z
#    x 2.018000 0.000000 0.000000 
#    y 0.000000 2.046570 0.000000 
#    z 0.000000 0.000000 2.025760 
# 
# From -- ./inp_files/35269.got.cif
#   From: 2010.03.12/outbox.cif.g09.slc.cpg/sg72_18_cif.got.tgz:35269.got - 2010.04.16 14:54:00.
