data_PCOD8295888
_publ_section_title
;
Structure prediction by ZEFSAII (Michael W. Deem and Ramdas Pophale) SiO2 
 PCOD8295888
Probable space group: I B C A 
;
_chemical_formula_sum "Si O2"
_cell_formula_units_Z 120
_cell_length_a 10.209291
_cell_length_b 29.624964
_cell_length_c 20.037368
_cell_angle_alpha 90.000000
_cell_angle_beta 90.000000
_cell_angle_gamma 90.000000
_cell_volume 6060.299514
_symmetry_space_group_name_H-M "I B C A "
_symmetry_group_IT_number 73
_symmetry_cell_setting 'orthorhombic'
loop_
_space_group_symop_operation_xyz
x,y,z
-x,1/2-y,z
x,-y,1/2-z
1/2-x,y,-z
-x,-y,-z
x,1/2+y,-z
-x,y,1/2+z
1/2+x,-y,z
1/2+x,1/2+y,1/2+z
1/2-x,-y,1/2+z
1/2+x,1/2-y,-z
-x,1/2+y,1/2-z
1/2-x,1/2-y,1/2-z
1/2+x,y,1/2-z
1/2-x,1/2+y,z
x,1/2-y,1/2+z
loop_
_atom_site_type_symbol
_atom_site_label
_atom_site_fract_x
_atom_site_fract_y
_atom_site_fract_z
Si Si1 0.388494 0.000000 0.750000
Si Si2 0.381731 0.778530 0.738921
Si Si3 0.683457 0.660971 0.853033
Si Si4 0.221170 0.559243 0.638021
Si Si5 0.401102 0.291122 0.014516
Si Si6 0.484427 0.568749 0.146837
Si Si7 0.872837 0.491822 0.041457
Si Si8 0.516927 0.829010 0.625594
O O1 0.293984 0.975094 0.801200
O O2 0.473713 0.959367 0.716442
O O3 0.500000 0.750000 0.768403
O O4 0.250000 0.750000 0.750000
O O5 0.382611 0.822195 0.785479
O O6 0.418902 0.793029 0.662099
O O7 0.662506 0.607865 0.847385
O O8 0.609019 0.678085 0.919431
O O9 0.835183 0.676061 0.847778
O O10 0.371651 0.562021 0.617930
O O11 0.147576 0.540639 0.573854
O O12 0.500000 0.250000 0.029585
O O13 0.250000 0.275232 0.000000
O O14 0.469868 0.319521 0.954059
O O15 0.382900 0.547555 0.095545
O O16 0.457586 0.622414 0.147246
O O17 0.750000 0.475265 0.000000
O O18 0.000000 0.500000 0.000000
#
# Coordination Sequence:
#
# PCOD8295888 Si02
#       8
#     8  16  16  16  16  16  16  16
#     4  10  20  36  58  94 126 164 204 256 324 370
#     4  12  23  41  67  96 130 167 213 265 325 383
#     4  10  22  39  63  95 120 169 217 261 311 393
#     4  10  21  37  62  88 124 165 208 255 316 378
#     4  10  22  40  65  88 125 165 212 264 325 380
#     4  10  21  38  62  88 127 165 205 261 311 377
#     4  11  22  38  62  90 124 163 212 254 313 373
#     4  10  22  40  64  93 127 169 210 263 320 381
#
# _framework density 19.801000999999999
#
# number of rings (size 3 to 8) (size 9 to 14) (size 15 to 20)
#    0.000    1.600    2.667    2.000    3.733    0.533 
#    0.000    2.000    0.000    0.000    0.000    0.000 
#    0.000    0.000    0.000    0.000    0.000    0.000 
#
# Total GULP energy -743426.642354 kJ/mol
# GULP energy per Si atom -12390.444039 kJ/mol
# Density = 1.975593 g / cm^3
# Si number density = 19.801001 Si / 1000 Ang^3
#
#
#
# Elastic Constant Matrix: (Units=GPa)
#
#
# Indices 1 2 3 4 5 6 
#
# 1 95.0192 51.8706 38.9732 0.0000 0.0000 0.0000
# 2 51.8706 128.2655 46.1780 0.0001 0.0000 0.0000
# 3 38.9732 46.1780 111.5015 0.0004 -0.0001 0.0000
# 4 0.0000 0.0001 0.0004 29.8298 0.0000 0.0000
# 5 0.0000 0.0000 -0.0001 0.0000 35.8100 0.0000
# 6 0.0000 0.0000 0.0000 0.0000 0.0000 33.7603
#
#
#
# Elastic Compliance Matrix: (Units=1/GPa)
#
#
# Indices 1 2 3 4 5 6 
#
# 1 0.014347 -0.004697 -0.003070 0.000000 0.000000 0.000000
# 2 -0.004697 0.010700 -0.002790 0.000000 0.000000 0.000000
# 3 -0.003070 -0.002790 0.011197 0.000000 0.000000 0.000000
# 4 0.000000 0.000000 0.000000 0.033524 0.000000 0.000000
# 5 0.000000 0.000000 0.000000 0.000000 0.027925 0.000000
# 6 0.000000 0.000000 0.000000 0.000000 0.000000 0.029621
#
#
# Mechanical properties :
#
#
# Convention : Reuss Voigt Hill
#
# Bulk Modulus (GPa) = 66.08648 67.64776 66.86712
# Shear Modulus (GPa) = 32.57971 33.06430 32.82200
#
# Velocity S-wave (km/s) = 4.06070 4.09079 4.07577
# Velocity P-wave (km/s) = 7.44537 7.52002 7.48279
#
# Compressibility (1/GPa) = 0.01513169
#
# Stress axis : x y z
#
# Youngs Moduli (GPa) = 69.69975 93.45701 89.31161
#
# Poissons Ratio (x) = 0.43896 0.27415
# Poissons Ratio (y) = 0.32737 0.24915
# Poissons Ratio (z) = 0.21395 0.26072
#
# Static dielectric constant tensor:
#      x y z
#    x 3.505530 0.000000 0.000000 
#    y 0.000000 3.590760 0.000000 
#    z 0.000000 0.000000 3.725300 
# 
# 
# High freq. dielectric constant tensor:
#      x y z
#    x 1.763470 0.000000 0.000000 
#    y 0.000000 1.780240 0.000000 
#    z 0.000000 0.000000 1.778810 
# 
# From -- ./inp_files/25705.got.cif
#   From: 2010.03.12/outbox.cif.g09.slc.cpg/sg73_13_cif.got.tgz:25705.got - 2010.04.16 15:25:48.
