data_PCOD8295844
_publ_section_title
;
Structure prediction by ZEFSAII (Michael W. Deem and Ramdas Pophale) SiO2 
 PCOD8295844
Probable space group: I B C A 
;
_chemical_formula_sum "Si O2"
_cell_formula_units_Z 80
_cell_length_a 33.669521
_cell_length_b 23.942411
_cell_length_c 4.878168
_cell_angle_alpha 90.000000
_cell_angle_beta 90.000000
_cell_angle_gamma 90.000000
_cell_volume 3932.435179
_symmetry_space_group_name_H-M "I B C A "
_symmetry_group_IT_number 73
_symmetry_cell_setting 'orthorhombic'
loop_
_space_group_symop_operation_xyz
x,y,z
-x,1/2-y,z
x,-y,1/2-z
1/2-x,y,-z
-x,-y,-z
x,1/2+y,-z
-x,y,1/2+z
1/2+x,-y,z
1/2+x,1/2+y,1/2+z
1/2-x,-y,1/2+z
1/2+x,1/2-y,-z
-x,1/2+y,1/2-z
1/2-x,1/2-y,1/2-z
1/2+x,y,1/2-z
1/2-x,1/2+y,z
x,1/2-y,1/2+z
loop_
_atom_site_type_symbol
_atom_site_label
_atom_site_fract_x
_atom_site_fract_y
_atom_site_fract_z
Si Si1 0.104376 0.714075 0.901611
Si Si2 0.585618 0.438949 0.142558
Si Si3 0.369765 0.399132 0.157853
Si Si4 0.294031 0.959734 0.998988
Si Si5 0.973261 0.152146 0.488939
O O1 0.114851 0.766610 0.708326
O O2 0.130001 0.661272 0.802982
O O3 0.057691 0.699023 0.911770
O O4 0.574274 0.500000 0.250000
O O5 0.600099 0.401538 0.400230
O O6 0.547889 0.408749 0.001443
O O7 0.618616 0.443326 0.899683
O O8 0.326159 0.410738 0.035379
O O9 0.296584 0.000000 0.750000
O O10 0.250000 0.932139 0.000000
O O11 0.304155 0.000000 0.250000
O O12 0.011808 0.158189 0.678436
#
# Coordination Sequence:
#
# PCOD8295844 Si02
#       5
#    16  16  16  16  16
#     4  11  23  39  58  79 104 143 192 241 290 332
#     4  11  22  36  57  83 114 154 190 226 282 351
#     4  11  21  37  58  83 116 150 193 238 279 340
#     4  10  20  34  57  90 123 153 184 224 280 342
#     4  11  23  38  55  80 109 139 184 236 287 342
#
# _framework density 20.343627999999999
#
# number of rings (size 3 to 8) (size 9 to 14) (size 15 to 20)
#    0.000    1.200    0.000    9.600    0.000    3.200 
#    0.000    0.000    0.000    1.200    0.000    0.000 
#    0.000    0.000    0.000    0.000    0.000    0.000 
#
# Total GULP energy -495803.146499 kJ/mol
# GULP energy per Si atom -12395.078662 kJ/mol
# Density = 2.029733 g / cm^3
# Si number density = 20.343628 Si / 1000 Ang^3
#
#
#
# Elastic Constant Matrix: (Units=GPa)
#
#
# Indices 1 2 3 4 5 6 
#
# 1 83.7438 30.2315 29.9662 0.0000 0.0000 0.0000
# 2 30.2315 86.0924 25.9462 0.0000 0.0000 0.0000
# 3 29.9662 25.9462 118.5063 0.0000 0.0000 0.0000
# 4 0.0000 0.0000 0.0000 44.9612 0.0000 0.0000
# 5 0.0000 0.0000 0.0000 0.0000 29.0163 0.0000
# 6 0.0000 0.0000 0.0000 0.0000 0.0000 19.0069
#
#
#
# Elastic Compliance Matrix: (Units=1/GPa)
#
#
# Indices 1 2 3 4 5 6 
#
# 1 0.014451 -0.004254 -0.002723 0.000000 0.000000 0.000000
# 2 -0.004254 0.013688 -0.001921 0.000000 0.000000 0.000000
# 3 -0.002723 -0.001921 0.009548 0.000000 0.000000 0.000000
# 4 0.000000 0.000000 0.000000 0.022241 0.000000 0.000000
# 5 0.000000 0.000000 0.000000 0.000000 0.034463 0.000000
# 6 0.000000 0.000000 0.000000 0.000000 0.000000 0.052612
#
#
# Mechanical properties :
#
#
# Convention : Reuss Voigt Hill
#
# Bulk Modulus (GPa) = 50.27446 51.18116 50.72781
# Shear Modulus (GPa) = 29.16634 32.07679 30.62156
#
# Velocity S-wave (km/s) = 3.79051 3.97514 3.88392
# Velocity P-wave (km/s) = 6.62749 6.80308 6.71586
#
# Compressibility (1/GPa) = 0.01989081
#
# Stress axis : x y z
#
# Youngs Moduli (GPa) = 69.19852 73.05536 104.73914
#
# Poissons Ratio (x) = 0.31078 0.28519
# Poissons Ratio (y) = 0.29437 0.20123
# Poissons Ratio (z) = 0.18842 0.14036
#
# Static dielectric constant tensor:
#      x y z
#    x 3.090220 0.000000 0.000000 
#    y 0.000000 3.487210 0.000000 
#    z 0.000000 0.000000 4.031480 
# 
# 
# High freq. dielectric constant tensor:
#      x y z
#    x 1.767880 0.000000 0.000000 
#    y 0.000000 1.776370 0.000000 
#    z 0.000000 0.000000 1.828480 
# 
# From -- ./inp_files/3066.got.cif
#   From: 2010.03.12/outbox.cif.g09.slc.cpg/sg73_2_cif.got.tgz:3066.got - 2010.04.16 15:25:48.
