data_PCOD8295827
_publ_section_title
;
Structure prediction by ZEFSAII (Michael W. Deem and Ramdas Pophale) SiO2 
 PCOD8295827
Probable space group: I B C A 
;
_chemical_formula_sum "Si O2"
_cell_formula_units_Z 88
_cell_length_a 9.156438
_cell_length_b 20.775736
_cell_length_c 24.355916
_cell_angle_alpha 90.000000
_cell_angle_beta 90.000000
_cell_angle_gamma 90.000000
_cell_volume 4633.268246
_symmetry_space_group_name_H-M "I B C A "
_symmetry_group_IT_number 73
_symmetry_cell_setting 'orthorhombic'
loop_
_space_group_symop_operation_xyz
x,y,z
-x,1/2-y,z
x,-y,1/2-z
1/2-x,y,-z
-x,-y,-z
x,1/2+y,-z
-x,y,1/2+z
1/2+x,-y,z
1/2+x,1/2+y,1/2+z
1/2-x,-y,1/2+z
1/2+x,1/2-y,-z
-x,1/2+y,1/2-z
1/2-x,1/2-y,1/2-z
1/2+x,y,1/2-z
1/2-x,1/2+y,z
x,1/2-y,1/2+z
loop_
_atom_site_type_symbol
_atom_site_label
_atom_site_fract_x
_atom_site_fract_y
_atom_site_fract_z
Si Si1 0.103872 0.192147 0.610756
Si Si2 0.071132 0.816462 0.065369
Si Si3 0.975459 0.586185 0.965579
Si Si4 0.788801 0.180653 0.228363
Si Si5 0.496092 0.172660 0.182568
Si Si6 0.250000 0.486808 0.500000
O O1 0.263627 0.200214 0.583520
O O2 0.031844 0.126491 0.589835
O O3 0.103846 0.188305 0.676502
O O4 0.000000 0.250000 0.591376
O O5 0.983316 0.845382 0.118272
O O6 0.000000 0.750000 0.044079
O O7 0.062242 0.869715 0.018421
O O8 0.139179 0.557954 0.965836
O O9 0.852937 0.530473 0.961102
O O10 0.750000 0.250000 0.250000
O O11 0.644682 0.143144 0.208406
O O12 0.866007 0.144008 0.279704
O O13 0.500000 0.250000 0.186389
#
# Coordination Sequence:
#
# PCOD8295827 Si02
#       6
#    16  16  16  16  16   8
#     4  11  21  32  54  86 119 144 178 227 287 349
#     4  10  20  33  53  82 117 142 174 224 290 346
#     4  11  22  41  57  81 104 145 188 240 286 332
#     4   9  16  29  46  74 116 147 175 203 259 342
#     4   8  15  27  44  70 106 145 171 205 256 330
#     4  10  24  42  60  70 106 146 206 238 274 342
#
# _framework density 18.993072000000002
#
# number of rings (size 3 to 8) (size 9 to 14) (size 15 to 20)
#    0.000    2.182    1.818    3.273    2.545    0.000 
#    0.000    0.000    0.000    0.000    0.000    7.636 
#    0.000    0.000    0.000    0.000    0.000    0.000 
#
# Total GULP energy -545225.080664 kJ/mol
# GULP energy per Si atom -12391.479106 kJ/mol
# Density = 1.894984 g / cm^3
# Si number density = 18.993072 Si / 1000 Ang^3
#
#
#
# Elastic Constant Matrix: (Units=GPa)
#
#
# Indices 1 2 3 4 5 6 
#
# 1 102.4991 37.7094 33.6445 0.0000 0.0000 0.0000
# 2 37.7094 67.4866 35.3346 0.0000 0.0000 0.0000
# 3 33.6445 35.3346 116.5781 0.0000 0.0000 0.0000
# 4 0.0000 0.0000 0.0000 4.5101 0.0000 0.0000
# 5 0.0000 0.0000 0.0000 0.0000 28.0218 0.0000
# 6 0.0000 0.0000 0.0000 0.0000 0.0000 26.8064
#
#
#
# Elastic Compliance Matrix: (Units=1/GPa)
#
#
# Indices 1 2 3 4 5 6 
#
# 1 0.012585 -0.006098 -0.001784 0.000000 0.000000 0.000000
# 2 -0.006098 0.020568 -0.004474 0.000000 0.000000 0.000000
# 3 -0.001784 -0.004474 0.010449 0.000000 0.000000 0.000000
# 4 0.000000 0.000000 0.000000 0.221726 0.000000 0.000000
# 5 0.000000 0.000000 0.000000 0.000000 0.035686 0.000000
# 6 0.000000 0.000000 0.000000 0.000000 0.000000 0.037305
#
#
# Mechanical properties :
#
#
# Convention : Reuss Voigt Hill
#
# Bulk Modulus (GPa) = 52.93906 55.54896 54.24401
# Shear Modulus (GPa) = 13.53810 23.85933 18.69872
#
# Velocity S-wave (km/s) = 2.67271 3.54815 3.14108
# Velocity P-wave (km/s) = 6.12028 6.78943 6.46352
#
# Compressibility (1/GPa) = 0.01888964
#
# Stress axis : x y z
#
# Youngs Moduli (GPa) = 79.45811 48.61953 95.70460
#
# Poissons Ratio (x) = 0.29650 0.17071
# Poissons Ratio (y) = 0.48456 0.42819
# Poissons Ratio (z) = 0.14173 0.21753
#
# Static dielectric constant tensor:
#      x y z
#    x 4.065240 0.000000 0.000000 
#    y 0.000000 3.132780 0.000000 
#    z 0.000000 0.000000 3.798720 
# 
# 
# High freq. dielectric constant tensor:
#      x y z
#    x 1.757110 0.000000 0.000000 
#    y 0.000000 1.680200 0.000000 
#    z 0.000000 0.000000 1.739460 
# 
# From -- ./inp_files/28327.got.cif
#   From: 2010.03.12/outbox.cif.g09.slc.cpg/sg73_15_cif.got.tgz:28327.got - 2010.04.16 15:25:48.
