data_PCOD8295895
_publ_section_title
;
Structure prediction by ZEFSAII (Michael W. Deem and Ramdas Pophale) SiO2 
 PCOD8295895
Probable space group: I B C A 
;
_chemical_formula_sum "Si O2"
_cell_formula_units_Z 80
_cell_length_a 11.720263
_cell_length_b 21.305312
_cell_length_c 15.363524
_cell_angle_alpha 90.000000
_cell_angle_beta 90.000000
_cell_angle_gamma 90.000000
_cell_volume 3836.331245
_symmetry_space_group_name_H-M "I B C A "
_symmetry_group_IT_number 73
_symmetry_cell_setting 'orthorhombic'
loop_
_space_group_symop_operation_xyz
x,y,z
-x,1/2-y,z
x,-y,1/2-z
1/2-x,y,-z
-x,-y,-z
x,1/2+y,-z
-x,y,1/2+z
1/2+x,-y,z
1/2+x,1/2+y,1/2+z
1/2-x,-y,1/2+z
1/2+x,1/2-y,-z
-x,1/2+y,1/2-z
1/2-x,1/2-y,1/2-z
1/2+x,y,1/2-z
1/2-x,1/2+y,z
x,1/2-y,1/2+z
loop_
_atom_site_type_symbol
_atom_site_label
_atom_site_fract_x
_atom_site_fract_y
_atom_site_fract_z
Si Si1 0.480802 0.676598 0.669128
Si Si2 0.484542 0.895702 0.846347
Si Si3 0.597446 0.000000 0.750000
Si Si4 0.719407 0.904995 0.641207
Si Si5 0.626739 0.382141 0.981410
Si Si6 0.750000 0.498915 0.500000
O O1 0.500000 0.750000 0.669268
O O2 0.491705 0.650955 0.766556
O O3 0.354571 0.658877 0.632922
O O4 0.573536 0.646155 0.605454
O O5 0.516837 0.968269 0.823836
O O6 0.351034 0.889364 0.864593
O O7 0.548743 0.872662 0.933135
O O8 0.679826 0.941899 0.727031
O O9 0.685022 0.954448 0.567186
O O10 0.750000 0.349151 0.000000
O O11 0.650772 0.456085 0.960401
#
# Coordination Sequence:
#
# PCOD8295895 Si02
#       6
#    16  16   8  16  16   8
#     4  11  28  48  67 102 142 193 249 285 342 422
#     4  11  24  41  70 104 139 186 229 296 355 420
#     4  10  20  36  60 104 140 170 218 282 360 430
#     4  11  23  38  68 100 140 177 228 287 361 413
#     4  10  24  46  71 101 145 185 225 297 363 415
#     4  10  22  40  68 104 142 168 236 286 364 428
#
# _framework density 20.853255999999998
#
# number of rings (size 3 to 8) (size 9 to 14) (size 15 to 20)
#    0.600    0.800    2.000    1.800   14.000    3.200 
#    5.400    0.000    0.000    0.000    0.000    0.000 
#    0.000    0.000    0.000    0.000    0.000    0.000 
#
# Total GULP energy -495590.378495 kJ/mol
# GULP energy per Si atom -12389.759462 kJ/mol
# Density = 2.080579 g / cm^3
# Si number density = 20.853256 Si / 1000 Ang^3
#
#
#
# Elastic Constant Matrix: (Units=GPa)
#
#
# Indices 1 2 3 4 5 6 
#
# 1 156.9375 53.6259 26.4437 -0.0003 0.0000 0.0000
# 2 53.6259 138.9022 48.0540 -0.0005 0.0000 0.0000
# 3 26.4437 48.0540 79.8085 -0.0011 0.0000 0.0001
# 4 -0.0003 -0.0005 -0.0011 13.1435 0.0000 0.0001
# 5 0.0000 0.0000 0.0000 0.0000 33.2312 0.0000
# 6 0.0000 0.0000 0.0001 0.0001 0.0000 47.5671
#
#
#
# Elastic Compliance Matrix: (Units=1/GPa)
#
#
# Indices 1 2 3 4 5 6 
#
# 1 0.007394 -0.002535 -0.000923 0.000000 0.000000 0.000000
# 2 -0.002535 0.009963 -0.005159 0.000000 0.000000 0.000000
# 3 -0.000923 -0.005159 0.015942 0.000001 0.000000 0.000000
# 4 0.000000 0.000000 0.000001 0.076083 0.000000 0.000000
# 5 0.000000 0.000000 0.000000 0.000000 0.030092 0.000000
# 6 0.000000 0.000000 0.000000 0.000000 0.000000 0.021023
#
#
# Mechanical properties :
#
#
# Convention : Reuss Voigt Hill
#
# Bulk Modulus (GPa) = 62.25050 70.21060 66.23055
# Shear Modulus (GPa) = 27.30952 35.29001 31.29976
#
# Velocity S-wave (km/s) = 3.62277 4.11822 3.87842
# Velocity P-wave (km/s) = 6.88591 7.50700 7.20315
#
# Compressibility (1/GPa) = 0.01606413
#
# Stress axis : x y z
#
# Youngs Moduli (GPa) = 135.24857 100.37431 62.72683
#
# Poissons Ratio (x) = 0.25445 0.05793
# Poissons Ratio (y) = 0.34286 0.32359
# Poissons Ratio (z) = 0.12490 0.51781
#
# Static dielectric constant tensor:
#      x y z
#    x 3.972720 0.000000 0.000000 
#    y 0.000000 3.569650 0.000000 
#    z 0.000000 0.000000 4.649700 
# 
# 
# High freq. dielectric constant tensor:
#      x y z
#    x 1.828080 0.000000 0.000000 
#    y 0.000000 1.789950 0.000000 
#    z 0.000000 0.000000 1.821300 
# 
# From -- ./inp_files/21242.got.cif
#   From: 2010.03.12/outbox.cif.g09.slc.cpg/sg73_11_cif.got.tgz:21242.got - 2010.04.16 15:25:48.
