data_PCOD8295954
_publ_section_title
;
Structure prediction by ZEFSAII (Michael W. Deem and Ramdas Pophale) SiO2 
 PCOD8295954
Probable space group: I B C A 
;
_chemical_formula_sum "Si O2"
_cell_formula_units_Z 120
_cell_length_a 25.987043
_cell_length_b 18.975950
_cell_length_c 12.247586
_cell_angle_alpha 90.000000
_cell_angle_beta 90.000000
_cell_angle_gamma 90.000000
_cell_volume 6039.637738
_symmetry_space_group_name_H-M "I B C A "
_symmetry_group_IT_number 73
_symmetry_cell_setting 'orthorhombic'
loop_
_space_group_symop_operation_xyz
x,y,z
-x,1/2-y,z
x,-y,1/2-z
1/2-x,y,-z
-x,-y,-z
x,1/2+y,-z
-x,y,1/2+z
1/2+x,-y,z
1/2+x,1/2+y,1/2+z
1/2-x,-y,1/2+z
1/2+x,1/2-y,-z
-x,1/2+y,1/2-z
1/2-x,1/2-y,1/2-z
1/2+x,y,1/2-z
1/2-x,1/2+y,z
x,1/2-y,1/2+z
loop_
_atom_site_type_symbol
_atom_site_label
_atom_site_fract_x
_atom_site_fract_y
_atom_site_fract_z
Si Si1 0.193652 0.874662 0.263666
Si Si2 0.801629 0.421204 0.851072
Si Si3 0.950664 0.532383 0.869084
Si Si4 0.444245 0.429251 0.436961
Si Si5 0.379318 0.000000 0.750000
Si Si6 0.644489 0.327987 0.973321
Si Si7 0.839845 0.577934 0.875922
Si Si8 0.196540 0.694678 0.537695
O O1 0.242061 0.910976 0.322157
O O2 0.155755 0.934218 0.216880
O O3 0.165508 0.825108 0.350711
O O4 0.206689 0.824559 0.163001
O O5 0.811852 0.502496 0.879008
O O6 0.834105 0.392910 0.747339
O O7 0.819390 0.379190 0.956768
O O8 0.945097 0.500000 0.750000
O O9 0.900263 0.575994 0.901884
O O10 0.000267 0.584138 0.879646
O O11 0.955628 0.466144 0.948758
O O12 0.412456 0.480539 0.356550
O O13 0.414278 0.356606 0.465496
O O14 0.648951 0.249375 0.023578
O O15 0.812429 0.625721 0.965205
O O16 0.250000 0.731348 0.500000
#
# Coordination Sequence:
#
# PCOD8295954 Si02
#       8
#    16  16  16  16   8  16  16  16
#     4  11  24  38  61  90 126 171 213 262 316 376
#     4  11  21  40  62  88 127 162 214 266 324 373
#     4  11  19  37  65  97 117 157 208 280 328 377
#     4  10  21  38  63  90 126 155 209 263 333 380
#     4  10  20  38  60  94 128 158 200 270 316 374
#     4  11  25  42  60  87 128 173 210 260 319 399
#     4  11  22  38  63  97 123 159 217 276 320 378
#     4  12  26  40  61  91 132 176 218 252 313 397
#
# _framework density 19.868742000000001
#
# number of rings (size 3 to 8) (size 9 to 14) (size 15 to 20)
#    0.000    1.067    4.667    2.800    3.733    1.067 
#    0.000    0.667    0.000    0.000    0.000    0.000 
#    0.000    0.000    0.000    0.000    0.000    0.000 
#
# Total GULP energy -743922.804200 kJ/mol
# GULP energy per Si atom -12398.713403 kJ/mol
# Density = 1.982352 g / cm^3
# Si number density = 19.868742 Si / 1000 Ang^3
#
#
#
# Elastic Constant Matrix: (Units=GPa)
#
#
# Indices 1 2 3 4 5 6 
#
# 1 120.0764 31.7235 8.0495 0.0000 0.0000 0.0000
# 2 31.7235 71.1118 29.8999 0.0000 0.0000 0.0000
# 3 8.0495 29.8999 90.1551 0.0000 0.0000 0.0000
# 4 0.0000 0.0000 0.0000 20.3262 0.0000 0.0000
# 5 0.0000 0.0000 0.0000 0.0000 26.0386 0.0000
# 6 0.0000 0.0000 0.0000 0.0000 0.0000 28.3880
#
#
#
# Elastic Compliance Matrix: (Units=1/GPa)
#
#
# Indices 1 2 3 4 5 6 
#
# 1 0.009473 -0.004497 0.000646 0.000000 0.000000 0.000000
# 2 -0.004497 0.018476 -0.005726 0.000000 0.000000 0.000000
# 3 0.000646 -0.005726 0.012933 0.000000 0.000000 0.000000
# 4 0.000000 0.000000 0.000000 0.049198 0.000000 0.000000
# 5 0.000000 0.000000 0.000000 0.000000 0.038405 0.000000
# 6 0.000000 0.000000 0.000000 0.000000 0.000000 0.035226
#
#
# Mechanical properties :
#
#
# Convention : Reuss Voigt Hill
#
# Bulk Modulus (GPa) = 46.02550 46.74324 46.38437
# Shear Modulus (GPa) = 26.30071 29.06192 27.68132
#
# Velocity S-wave (km/s) = 3.64225 3.82867 3.73662
# Velocity P-wave (km/s) = 6.39555 6.56674 6.48171
#
# Compressibility (1/GPa) = 0.02172709
#
# Stress axis : x y z
#
# Youngs Moduli (GPa) = 105.56371 54.12326 77.31924
#
# Poissons Ratio (x) = 0.24342 -0.04993
# Poissons Ratio (y) = 0.47477 0.44274
# Poissons Ratio (z) = -0.06817 0.30992
#
# Static dielectric constant tensor:
#      x y z
#    x 3.866370 0.000000 0.000000 
#    y 0.000000 3.332450 0.000000 
#    z 0.000000 0.000000 3.824400 
# 
# 
# High freq. dielectric constant tensor:
#      x y z
#    x 1.776600 0.000000 0.000000 
#    y 0.000000 1.742010 0.000000 
#    z 0.000000 0.000000 1.798200 
# 
# From -- ./inp_files/14350.got.cif
#   From: 2010.03.12/outbox.cif.g09.slc.cpg/sg73_8_cif.got.tgz:14350.got - 2010.04.16 15:25:48.
