data_PCOD8295629
_publ_section_title
;
Structure prediction by ZEFSAII (Michael W. Deem and Ramdas Pophale) SiO2 
 PCOD8295629
Probable space group: I B C A 
;
_chemical_formula_sum "Si O2"
_cell_formula_units_Z 96
_cell_length_a 20.507579
_cell_length_b 30.101911
_cell_length_c 8.517332
_cell_angle_alpha 90.000000
_cell_angle_beta 90.000000
_cell_angle_gamma 90.000000
_cell_volume 5257.896546
_symmetry_space_group_name_H-M "I B C A "
_symmetry_group_IT_number 73
_symmetry_cell_setting 'orthorhombic'
loop_
_space_group_symop_operation_xyz
x,y,z
-x,1/2-y,z
x,-y,1/2-z
1/2-x,y,-z
-x,-y,-z
x,1/2+y,-z
-x,y,1/2+z
1/2+x,-y,z
1/2+x,1/2+y,1/2+z
1/2-x,-y,1/2+z
1/2+x,1/2-y,-z
-x,1/2+y,1/2-z
1/2-x,1/2-y,1/2-z
1/2+x,y,1/2-z
1/2-x,1/2+y,z
x,1/2-y,1/2+z
loop_
_atom_site_type_symbol
_atom_site_label
_atom_site_fract_x
_atom_site_fract_y
_atom_site_fract_z
Si Si1 0.472890 0.897721 0.523737
Si Si2 0.179331 0.396257 0.060101
Si Si3 0.080742 0.645129 0.675716
Si Si4 0.924274 0.447922 0.731765
Si Si5 0.662871 0.724752 0.866050
Si Si6 0.300476 0.195741 0.298718
O O1 0.515544 0.861961 0.426860
O O2 0.427079 0.872036 0.646522
O O3 0.428424 0.925218 0.402666
O O4 0.517879 0.931905 0.619022
O O5 0.144852 0.436618 0.150399
O O6 0.182986 0.356158 0.187237
O O7 0.250000 0.411587 0.000000
O O8 0.139918 0.381292 0.906174
O O9 0.097474 0.697681 0.680910
O O10 0.930096 0.500000 0.750000
O O11 0.657800 0.777911 0.833299
O O12 0.723354 0.702526 0.770066
O O13 0.676665 0.721238 0.047469
#
# Coordination Sequence:
#
# PCOD8295629 Si02
#       6
#    16  16  16  16  16  16
#     4   9  19  34  56  79 102 136 180 219 265 317
#     4  10  18  35  54  73 109 145 168 216 283 317
#     4   9  17  33  54  77 105 138 173 217 266 315
#     4  10  20  35  57  79 102 134 179 225 267 321
#     4   9  16  28  50  74 101 131 174 213 247 300
#     4   9  16  29  49  76 100 134 173 206 258 307
#
# _framework density 18.258251000000001
#
# number of rings (size 3 to 8) (size 9 to 14) (size 15 to 20)
#    0.000    2.667    3.333    0.500    0.000    1.333 
#    0.000    2.500    0.000   34.000    0.000    0.000 
#    0.000    0.000    0.000    0.000    0.000    0.000 
#
# Total GULP energy -594905.507386 kJ/mol
# GULP energy per Si atom -12393.864737 kJ/mol
# Density = 1.821669 g / cm^3
# Si number density = 18.258251 Si / 1000 Ang^3
#
#
#
# Elastic Constant Matrix: (Units=GPa)
#
#
# Indices 1 2 3 4 5 6 
#
# 1 76.3774 29.3035 30.8065 0.0000 0.0000 0.0000
# 2 29.3035 73.5436 26.3925 0.0000 0.0000 0.0000
# 3 30.8065 26.3925 71.1786 0.0000 -0.0001 0.0000
# 4 0.0000 0.0000 0.0000 23.6127 0.0000 0.0000
# 5 0.0000 0.0000 -0.0001 0.0000 22.5618 0.0000
# 6 0.0000 0.0000 0.0000 0.0000 0.0000 17.6773
#
#
#
# Elastic Compliance Matrix: (Units=1/GPa)
#
#
# Indices 1 2 3 4 5 6 
#
# 1 0.017233 -0.004833 -0.005666 0.000000 0.000000 0.000000
# 2 -0.004833 0.017040 -0.004227 0.000000 0.000000 0.000000
# 3 -0.005666 -0.004227 0.018069 0.000000 0.000000 0.000000
# 4 0.000000 0.000000 0.000000 0.042350 0.000000 0.000000
# 5 0.000000 0.000000 0.000000 0.000000 0.044323 0.000000
# 6 0.000000 0.000000 0.000000 0.000000 0.000000 0.056570
#
#
# Mechanical properties :
#
#
# Convention : Reuss Voigt Hill
#
# Bulk Modulus (GPa) = 43.68792 43.78940 43.73866
# Shear Modulus (GPa) = 21.49012 21.74351 21.61681
#
# Velocity S-wave (km/s) = 3.43448 3.45467 3.44459
# Velocity P-wave (km/s) = 6.30137 6.32047 6.31093
#
# Compressibility (1/GPa) = 0.02288962
#
# Stress axis : x y z
#
# Youngs Moduli (GPa) = 58.02956 58.68611 55.34412
#
# Poissons Ratio (x) = 0.28362 0.31360
# Poissons Ratio (y) = 0.28045 0.23391
# Poissons Ratio (z) = 0.32882 0.24804
#
# Static dielectric constant tensor:
#      x y z
#    x 3.371350 0.000000 0.000000 
#    y 0.000000 3.243830 0.000000 
#    z 0.000000 0.000000 3.445690 
# 
# 
# High freq. dielectric constant tensor:
#      x y z
#    x 1.692280 0.000000 0.000000 
#    y 0.000000 1.689380 0.000000 
#    z 0.000000 0.000000 1.708190 
# 
# From -- ./inp_files/6447.got.cif
#   From: 2010.03.12/outbox.cif.g09.slc.cpg/sg73_4_cif.got.tgz:6447.got - 2010.04.16 15:25:48.
