data_PCOD8295878
_publ_section_title
;
Structure prediction by ZEFSAII (Michael W. Deem and Ramdas Pophale) SiO2 
 PCOD8295878
Probable space group: I B C A 
;
_chemical_formula_sum "Si O2"
_cell_formula_units_Z 96
_cell_length_a 18.661248
_cell_length_b 16.535156
_cell_length_c 16.421554
_cell_angle_alpha 90.000000
_cell_angle_beta 90.000000
_cell_angle_gamma 90.000000
_cell_volume 5067.143854
_symmetry_space_group_name_H-M "I B C A "
_symmetry_group_IT_number 73
_symmetry_cell_setting 'orthorhombic'
loop_
_space_group_symop_operation_xyz
x,y,z
-x,1/2-y,z
x,-y,1/2-z
1/2-x,y,-z
-x,-y,-z
x,1/2+y,-z
-x,y,1/2+z
1/2+x,-y,z
1/2+x,1/2+y,1/2+z
1/2-x,-y,1/2+z
1/2+x,1/2-y,-z
-x,1/2+y,1/2-z
1/2-x,1/2-y,1/2-z
1/2+x,y,1/2-z
1/2-x,1/2+y,z
x,1/2-y,1/2+z
loop_
_atom_site_type_symbol
_atom_site_label
_atom_site_fract_x
_atom_site_fract_y
_atom_site_fract_z
Si Si1 0.923189 0.723033 0.199573
Si Si2 0.672316 0.324801 0.846852
Si Si3 0.672417 0.341032 0.107055
Si Si4 0.055488 0.109154 0.454342
Si Si5 0.678628 0.700792 0.025597
Si Si6 0.093829 0.927204 0.479908
O O1 0.867888 0.680069 0.260919
O O2 0.887258 0.805754 0.167758
O O3 0.937515 0.656195 0.130395
O O4 0.000000 0.750000 0.238050
O O5 0.754147 0.359051 0.842800
O O6 0.678288 0.233788 0.882314
O O7 0.625221 0.382177 0.902714
O O8 0.682817 0.276852 0.035194
O O9 0.646017 0.422955 0.059942
O O10 0.108997 0.146827 0.519677
O O11 0.977058 0.120461 0.491336
O O12 0.076097 0.015626 0.446804
O O13 0.750000 0.649430 0.000000
#
# Coordination Sequence:
#
# PCOD8295878 Si02
#       6
#    16  16  16  16  16  16
#     4  11  21  35  57  86 116 150 185 240 290 337
#     4  10  21  33  59  85 110 149 189 230 288 346
#     4   9  18  37  56  82 113 143 184 236 280 333
#     4  10  21  35  55  80 113 146 189 235 280 336
#     4   8  17  32  53  80 107 138 185 232 268 328
#     4  10  20  36  56  81 109 151 190 234 279 338
#
# _framework density 18.945584
#
# number of rings (size 3 to 8) (size 9 to 14) (size 15 to 20)
#    0.000    2.333    1.667    2.000    2.333    2.000 
#    0.000    0.000    0.000    3.000    0.000    0.000 
#    0.000    0.000    0.000    0.000    0.000    0.000 
#
# Total GULP energy -594744.462922 kJ/mol
# GULP energy per Si atom -12390.509644 kJ/mol
# Density = 1.890246 g / cm^3
# Si number density = 18.945584 Si / 1000 Ang^3
#
#
#
# Elastic Constant Matrix: (Units=GPa)
#
#
# Indices 1 2 3 4 5 6 
#
# 1 139.9392 28.9002 34.3256 0.0000 0.0000 0.0000
# 2 28.9002 41.2846 9.0976 0.0000 0.0000 0.0000
# 3 34.3256 9.0976 39.5782 0.0000 0.0000 0.0000
# 4 0.0000 0.0000 0.0000 26.2741 0.0000 0.0000
# 5 0.0000 0.0000 0.0000 0.0000 36.8333 0.0000
# 6 0.0000 0.0000 0.0000 0.0000 0.0000 14.9936
#
#
#
# Elastic Compliance Matrix: (Units=1/GPa)
#
#
# Indices 1 2 3 4 5 6 
#
# 1 0.010111 -0.005420 -0.007523 0.000000 0.000000 0.000000
# 2 -0.005420 0.028420 -0.001832 0.000000 0.000000 0.000000
# 3 -0.007523 -0.001832 0.032212 0.000000 0.000000 0.000000
# 4 0.000000 0.000000 0.000000 0.038060 0.000000 0.000000
# 5 0.000000 0.000000 0.000000 0.000000 0.027149 0.000000
# 6 0.000000 0.000000 0.000000 0.000000 0.000000 0.066695
#
#
# Mechanical properties :
#
#
# Convention : Reuss Voigt Hill
#
# Bulk Modulus (GPa) = 24.27614 40.60541 32.44077
# Shear Modulus (GPa) = 20.33116 25.51878 22.92497
#
# Velocity S-wave (km/s) = 3.27943 3.67407 3.48234
# Velocity P-wave (km/s) = 5.21354 6.28311 5.77315
#
# Compressibility (1/GPa) = 0.04119270
#
# Stress axis : x y z
#
# Youngs Moduli (GPa) = 98.90652 35.18669 31.04425
#
# Poissons Ratio (x) = 0.19071 0.23354
# Poissons Ratio (y) = 0.53606 0.05688
# Poissons Ratio (z) = 0.74406 0.06447
#
# Static dielectric constant tensor:
#      x y z
#    x 4.011660 0.000000 0.000000 
#    y 0.000000 3.206800 0.000000 
#    z 0.000000 0.000000 3.355210 
# 
# 
# High freq. dielectric constant tensor:
#      x y z
#    x 1.768190 0.000000 0.000000 
#    y 0.000000 1.702800 0.000000 
#    z 0.000000 0.000000 1.716130 
# 
# From -- ./inp_files/18623.got.cif
#   From: 2010.03.12/outbox.cif.g09.slc.cpg/sg73_10_cif.got.tgz:18623.got - 2010.04.16 15:25:48.
