data_PCOD8295873
_publ_section_title
;
Structure prediction by ZEFSAII (Michael W. Deem and Ramdas Pophale) SiO2 
 PCOD8295873
Probable space group: I B C A 
;
_chemical_formula_sum "Si O2"
_cell_formula_units_Z 88
_cell_length_a 14.413895
_cell_length_b 19.702170
_cell_length_c 14.217420
_cell_angle_alpha 90.000000
_cell_angle_beta 90.000000
_cell_angle_gamma 90.000000
_cell_volume 4037.534156
_symmetry_space_group_name_H-M "I B C A "
_symmetry_group_IT_number 73
_symmetry_cell_setting 'orthorhombic'
loop_
_space_group_symop_operation_xyz
x,y,z
-x,1/2-y,z
x,-y,1/2-z
1/2-x,y,-z
-x,-y,-z
x,1/2+y,-z
-x,y,1/2+z
1/2+x,-y,z
1/2+x,1/2+y,1/2+z
1/2-x,-y,1/2+z
1/2+x,1/2-y,-z
-x,1/2+y,1/2-z
1/2-x,1/2-y,1/2-z
1/2+x,y,1/2-z
1/2-x,1/2+y,z
x,1/2-y,1/2+z
loop_
_atom_site_type_symbol
_atom_site_label
_atom_site_fract_x
_atom_site_fract_y
_atom_site_fract_z
Si Si1 0.284426 0.634197 0.398320
Si Si2 0.988084 0.174361 0.860247
Si Si3 0.525285 0.422312 0.977217
Si Si4 0.704224 0.973835 0.095428
Si Si5 0.407353 0.870258 0.178395
Si Si6 0.663363 0.500000 0.250000
O O1 0.250000 0.660480 0.500000
O O2 0.377095 0.666922 0.357409
O O3 0.309813 0.554662 0.403317
O O4 0.199932 0.653848 0.327672
O O5 0.000000 0.250000 0.899995
O O6 0.032946 0.170301 0.755360
O O7 0.041119 0.118240 0.924732
O O8 0.610600 0.429173 0.903664
O O9 0.451587 0.372442 0.926108
O O10 0.500000 0.500000 0.000000
O O11 0.770585 0.954696 0.182056
O O12 0.750000 0.949811 0.000000
O O13 0.406474 0.950650 0.197702
#
# Coordination Sequence:
#
# PCOD8295873 Si02
#       6
#    16  16  16  16  16   8
#     4  10  20  45  67  94 137 186 218 281 356 407
#     4  12  27  45  67 100 138 181 240 281 341 424
#     4  12  22  41  71  99 132 174 228 286 340 406
#     4  10  20  35  63  99 135 166 217 281 345 401
#     4  11  24  40  68  97 136 180 221 277 348 411
#     4  10  22  36  62 104 134 164 224 280 360 404
#
# _framework density 21.795482
#
# number of rings (size 3 to 8) (size 9 to 14) (size 15 to 20)
#    0.000    1.091    3.636    4.364    5.091    1.455 
#    0.000    2.727    0.000    0.000    0.000    0.000 
#    0.000    0.000    0.000    0.000    0.000    0.000 
#
# Total GULP energy -545120.365372 kJ/mol
# GULP energy per Si atom -12389.099213 kJ/mol
# Density = 2.174587 g / cm^3
# Si number density = 21.795482 Si / 1000 Ang^3
#
#
#
# Elastic Constant Matrix: (Units=GPa)
#
#
# Indices 1 2 3 4 5 6 
#
# 1 136.4636 29.2504 30.2699 0.0000 0.0000 0.0000
# 2 29.2504 77.5650 19.0746 0.0001 0.0000 0.0000
# 3 30.2699 19.0746 96.1341 0.0000 0.0001 0.0001
# 4 0.0000 0.0001 0.0000 22.1033 0.0001 0.0001
# 5 0.0000 0.0000 0.0001 0.0001 42.8176 0.0000
# 6 0.0000 0.0000 0.0001 0.0001 0.0000 21.5964
#
#
#
# Elastic Compliance Matrix: (Units=1/GPa)
#
#
# Indices 1 2 3 4 5 6 
#
# 1 0.008361 -0.002634 -0.002110 0.000000 0.000000 0.000000
# 2 -0.002634 0.014384 -0.002025 0.000000 0.000000 0.000000
# 3 -0.002110 -0.002025 0.011468 0.000000 0.000000 0.000000
# 4 0.000000 0.000000 0.000000 0.045242 0.000000 0.000000
# 5 0.000000 0.000000 0.000000 0.000000 0.023355 0.000000
# 6 0.000000 0.000000 0.000000 0.000000 0.000000 0.046304
#
#
# Mechanical properties :
#
#
# Convention : Reuss Voigt Hill
#
# Bulk Modulus (GPa) = 48.36652 51.92807 50.14729
# Shear Modulus (GPa) = 29.49122 32.74132 31.11627
#
# Velocity S-wave (km/s) = 3.68243 3.88004 3.78252
# Velocity P-wave (km/s) = 6.34977 6.62946 6.49112
#
# Compressibility (1/GPa) = 0.02067546
#
# Stress axis : x y z
#
# Youngs Moduli (GPa) = 119.60937 69.52373 87.19773
#
# Poissons Ratio (x) = 0.18312 0.18398
# Poissons Ratio (y) = 0.31505 0.17654
# Poissons Ratio (z) = 0.25236 0.14076
#
# Static dielectric constant tensor:
#      x y z
#    x 4.391070 0.000000 0.000000 
#    y 0.000000 3.446400 0.000000 
#    z 0.000000 0.000000 3.990830 
# 
# 
# High freq. dielectric constant tensor:
#      x y z
#    x 1.869870 0.000000 0.000000 
#    y 0.000000 1.806210 0.000000 
#    z 0.000000 0.000000 1.866800 
# 
# From -- ./inp_files/16949.got.cif
#   From: 2010.03.12/outbox.cif.g09.slc.cpg/sg73_9_cif.got.tgz:16949.got - 2010.04.16 15:25:48.
