data_PCOD8295198
_publ_section_title
;
Structure prediction by ZEFSAII (Michael W. Deem and Ramdas Pophale) SiO2 
 PCOD8295198
Probable space group: I B A M
;
_chemical_formula_sum "Si O2"
_cell_formula_units_Z 96
_cell_length_a 19.110696
_cell_length_b 14.337376
_cell_length_c 16.682479
_cell_angle_alpha 90.000000
_cell_angle_beta 90.000000
_cell_angle_gamma 90.000000
_cell_volume 4570.953105
_symmetry_space_group_name_H-M "I B A M"
_symmetry_group_IT_number 72
_symmetry_cell_setting 'orthorhombic'
loop_
_space_group_symop_operation_xyz
x,y,z
-x,-y,z
x,-y,1/2-z
-x,y,1/2-z
-x,-y,-z
x,y,-z
-x,y,1/2+z
x,-y,1/2+z
1/2+x,1/2+y,1/2+z
1/2-x,1/2-y,1/2+z
1/2+x,1/2-y,-z
1/2-x,1/2+y,-z
1/2-x,1/2-y,1/2-z
1/2+x,1/2+y,1/2-z
1/2-x,1/2+y,z
1/2+x,1/2-y,z
loop_
_atom_site_type_symbol
_atom_site_label
_atom_site_fract_x
_atom_site_fract_y
_atom_site_fract_z
Si Si1 0.687518 0.740317 0.308058
Si Si2 0.935973 0.062458 0.908004
Si Si3 0.558244 0.256174 0.306744
Si Si4 0.318829 0.088596 0.593887
Si Si5 0.304173 0.529189 0.840003
Si Si6 0.977158 0.604816 0.909890
O O1 0.750000 0.750000 0.250000
O O2 0.621221 0.768643 0.253373
O O3 0.707349 0.809552 0.380711
O O4 0.686719 0.639420 0.348398
O O5 0.924363 0.163079 0.868897
O O6 0.861955 0.011147 0.899865
O O7 0.953247 0.081327 0.000000
O O8 0.000000 0.000000 0.871380
O O9 0.500000 0.300054 0.250000
O O10 0.528019 0.164697 0.352443
O O11 0.312362 0.071345 0.500000
O O12 0.398791 0.094358 0.624089
O O13 0.273642 0.007053 0.636942
O O14 0.322805 0.500000 0.750000
O O15 0.000000 0.500000 0.914167
O O16 0.977747 0.648993 0.000000
#
# Coordination Sequence:
#
# PCOD8295198 Si02
#       6
#    16  16  16  16  16  16
#     4  12  25  43  68 103 135 178 230 286 346 418
#     4  11  25  42  67  99 133 179 230 286 358 427
#     4  12  23  41  68 100 134 175 224 291 352 406
#     4  11  25  46  69  99 140 181 228 286 348 418
#     4  12  24  43  69  98 138 179 232 290 349 426
#     4  10  24  44  67  99 137 182 234 284 342 416
#
# _framework density 21.002184
#
# number of rings (size 3 to 8) (size 9 to 14) (size 15 to 20)
#    0.000    0.667    5.000    2.000    2.333    1.667 
#    0.000    0.833    0.000    0.000    0.000    0.000 
#    0.000    0.000    0.000    0.000    0.000    0.000 
#
# Total GULP energy -594856.796046 kJ/mol
# GULP energy per Si atom -12392.849918 kJ/mol
# Density = 2.095438 g / cm^3
# Si number density = 21.002184 Si / 1000 Ang^3
#
#
#
# Elastic Constant Matrix: (Units=GPa)
#
#
# Indices 1 2 3 4 5 6 
#
# 1 120.5544 36.0016 24.0017 0.0000 0.0000 0.0000
# 2 36.0016 94.2177 31.7043 0.0000 0.0000 0.0000
# 3 24.0017 31.7043 69.1918 0.0000 0.0000 0.0000
# 4 0.0000 0.0000 0.0000 27.8444 0.0000 0.0000
# 5 0.0000 0.0000 0.0000 0.0000 56.9456 0.0000
# 6 0.0000 0.0000 0.0000 0.0000 0.0000 34.4694
#
#
#
# Elastic Compliance Matrix: (Units=1/GPa)
#
#
# Indices 1 2 3 4 5 6 
#
# 1 0.009580 -0.003006 -0.001946 0.000000 0.000000 0.000000
# 2 -0.003006 0.013492 -0.005139 0.000000 0.000000 0.000000
# 3 -0.001946 -0.005139 0.017482 0.000000 0.000000 0.000000
# 4 0.000000 0.000000 0.000000 0.035914 0.000000 0.000000
# 5 0.000000 0.000000 0.000000 0.000000 0.017561 0.000000
# 6 0.000000 0.000000 0.000000 0.000000 0.000000 0.029011
#
#
# Mechanical properties :
#
#
# Convention : Reuss Voigt Hill
#
# Bulk Modulus (GPa) = 49.08678 51.93103 50.50890
# Shear Modulus (GPa) = 33.33049 36.66897 34.99973
#
# Velocity S-wave (km/s) = 3.98804 4.18300 4.08668
# Velocity P-wave (km/s) = 6.68049 6.93615 6.80952
#
# Compressibility (1/GPa) = 0.02037208
#
# Stress axis : x y z
#
# Youngs Moduli (GPa) = 104.38335 74.11984 57.20013
#
# Poissons Ratio (x) = 0.22279 0.11131
# Poissons Ratio (y) = 0.31376 0.29397
# Poissons Ratio (z) = 0.20312 0.38093
#
# Static dielectric constant tensor:
#      x y z
#    x 3.193580 0.000000 0.000000 
#    y 0.000000 4.507270 0.000000 
#    z 0.000000 0.000000 3.950470 
# 
# 
# High freq. dielectric constant tensor:
#      x y z
#    x 1.837430 0.000000 0.000000 
#    y 0.000000 1.826380 0.000000 
#    z 0.000000 0.000000 1.827750 
# 
# From -- ./inp_files/24106.got.cif
#   From: 2010.03.12/outbox.cif.g09.slc.cpg/sg72_13_cif.got.tgz:24106.got - 2010.04.16 14:54:00.
