data_PCOD8295532
_publ_section_title
;
Structure prediction by ZEFSAII (Michael W. Deem and Ramdas Pophale) SiO2 
 PCOD8295532
Probable space group: I B C A 
;
_chemical_formula_sum "Si O2"
_cell_formula_units_Z 88
_cell_length_a 5.266681
_cell_length_b 31.462712
_cell_length_c 23.965029
_cell_angle_alpha 90.000000
_cell_angle_beta 90.000000
_cell_angle_gamma 90.000000
_cell_volume 3971.102783
_symmetry_space_group_name_H-M "I B C A "
_symmetry_group_IT_number 73
_symmetry_cell_setting 'orthorhombic'
loop_
_space_group_symop_operation_xyz
x,y,z
-x,1/2-y,z
x,-y,1/2-z
1/2-x,y,-z
-x,-y,-z
x,1/2+y,-z
-x,y,1/2+z
1/2+x,-y,z
1/2+x,1/2+y,1/2+z
1/2-x,-y,1/2+z
1/2+x,1/2-y,-z
-x,1/2+y,1/2-z
1/2-x,1/2-y,1/2-z
1/2+x,y,1/2-z
1/2-x,1/2+y,z
x,1/2-y,1/2+z
loop_
_atom_site_type_symbol
_atom_site_label
_atom_site_fract_x
_atom_site_fract_y
_atom_site_fract_z
Si Si1 0.880322 0.678237 0.776316
Si Si2 0.250000 0.275949 0.000000
Si Si3 0.649024 0.839126 0.598052
Si Si4 0.537928 0.517740 0.437972
Si Si5 0.650385 0.916230 0.771119
Si Si6 0.155480 0.606698 0.101683
O O1 0.627342 0.700390 0.751519
O O2 0.898523 0.683500 0.842726
O O3 0.883634 0.628611 0.760852
O O4 0.500000 0.250000 0.019290
O O5 0.151211 0.303476 0.051442
O O6 0.418286 0.871157 0.583596
O O7 0.921434 0.861407 0.598580
O O8 0.500000 0.500000 0.500000
O O9 0.271054 0.507063 0.407073
O O10 0.597117 0.567788 0.439810
O O11 0.390461 0.941163 0.755725
O O12 0.685312 0.911610 0.836600
#
# Coordination Sequence:
#
# PCOD8295532 Si02
#       6
#    16   8  16  16  16  16
#     4  10  16  32  59 100 129 145 188 276 342 360
#     4  12  30  52  64  88 142 186 206 250 322 390
#     4  12  23  40  71 101 119 167 224 272 308 383
#     4  10  23  41  57  80 129 178 201 263 334 369
#     4  10  16  30  54  96 129 147 183 273 346 360
#     4  12  21  36  68 101 119 160 226 276 312 384
#
# _framework density 22.160091999999999
#
# number of rings (size 3 to 8) (size 9 to 14) (size 15 to 20)
#    0.000    1.091    7.273    2.182    0.000    4.364 
#    0.000    0.000    0.000    6.545    0.000    0.000 
#    0.000    0.000    0.000    0.000    0.000    0.000 
#
# Total GULP energy -545376.660391 kJ/mol
# GULP energy per Si atom -12394.924100 kJ/mol
# Density = 2.210965 g / cm^3
# Si number density = 22.160092 Si / 1000 Ang^3
#
#
#
# Elastic Constant Matrix: (Units=GPa)
#
#
# Indices 1 2 3 4 5 6 
#
# 1 223.0546 35.5324 28.2901 0.0000 0.0000 0.0000
# 2 35.5324 53.7224 45.2020 0.0000 0.0000 0.0000
# 3 28.2901 45.2020 119.1254 0.0000 0.0000 0.0000
# 4 0.0000 0.0000 0.0000 -8.4192 0.0000 0.0000
# 5 0.0000 0.0000 0.0000 0.0000 27.8788 0.0000
# 6 0.0000 0.0000 0.0000 0.0000 0.0000 22.9519
#
#
#
# Elastic Compliance Matrix: (Units=1/GPa)
#
#
# Indices 1 2 3 4 5 6 
#
# 1 0.005012 -0.003399 0.000099 0.000000 0.000000 0.000000
# 2 -0.003399 0.029649 -0.010443 0.000000 0.000000 0.000000
# 3 0.000099 -0.010443 0.012334 0.000000 0.000000 0.000000
# 4 0.000000 0.000000 0.000000 -0.118777 0.000000 0.000000
# 5 0.000000 0.000000 0.000000 0.000000 0.035870 0.000000
# 6 0.000000 0.000000 0.000000 0.000000 0.000000 0.043569
#
#
# Mechanical properties :
#
#
# Convention : Reuss Voigt Hill
#
# Bulk Modulus (GPa) = 51.25649 68.21682 59.73665
# Shear Modulus (GPa) = 120.06257 27.60749 73.83503
#
# Velocity S-wave (km/s) = 7.36867 3.53345 5.77852
# Velocity P-wave (km/s) = 9.77633 6.89184 8.45796
#
# Compressibility (1/GPa) = 0.01950972
#
# Stress axis : x y z
#
# Youngs Moduli (GPa) = 199.52141 33.72803 81.07944
#
# Poissons Ratio (x) = 0.11463 -0.00805
# Poissons Ratio (y) = 0.67808 0.84673
# Poissons Ratio (z) = -0.01982 0.35223
#
# Static dielectric constant tensor:
#      x y z
#    x 5.463080 0.000000 0.000000 
#    y 0.000000 3.515670 0.000000 
#    z 0.000000 0.000000 3.884950 
# 
# 
# High freq. dielectric constant tensor:
#      x y z
#    x 1.919940 0.000000 0.000000 
#    y 0.000000 1.819140 0.000000 
#    z 0.000000 0.000000 1.863610 
# 
# From -- ./inp_files/28076.got.cif
#   From: 2010.03.12/outbox.cif.g09.slc.cpg/sg73_15_cif.got.tgz:28076.got - 2010.04.16 15:25:48.
