data_PCOD8295249
_publ_section_title
;
Structure prediction by ZEFSAII (Michael W. Deem and Ramdas Pophale) SiO2 
 PCOD8295249
Probable space group: I B A M
;
_chemical_formula_sum "Si O2"
_cell_formula_units_Z 64
_cell_length_a 4.954173
_cell_length_b 32.125093
_cell_length_c 19.566167
_cell_angle_alpha 90.000000
_cell_angle_beta 90.000000
_cell_angle_gamma 90.000000
_cell_volume 3114.019427
_symmetry_space_group_name_H-M "I B A M"
_symmetry_group_IT_number 72
_symmetry_cell_setting 'orthorhombic'
loop_
_space_group_symop_operation_xyz
x,y,z
-x,-y,z
x,-y,1/2-z
-x,y,1/2-z
-x,-y,-z
x,y,-z
-x,y,1/2+z
x,-y,1/2+z
1/2+x,1/2+y,1/2+z
1/2-x,1/2-y,1/2+z
1/2+x,1/2-y,-z
1/2-x,1/2+y,-z
1/2-x,1/2-y,1/2-z
1/2+x,1/2+y,1/2-z
1/2-x,1/2+y,z
1/2+x,1/2-y,z
loop_
_atom_site_type_symbol
_atom_site_label
_atom_site_fract_x
_atom_site_fract_y
_atom_site_fract_z
Si Si1 0.098952 0.834673 0.617315
Si Si2 0.912645 0.384674 0.420378
Si Si3 0.786804 0.276345 0.000000
Si Si4 0.236233 0.973023 0.077259
Si Si5 0.500000 0.719208 0.250000
O O1 0.324836 0.871233 0.624322
O O2 0.236103 0.801669 0.568024
O O3 0.021308 0.812080 0.686910
O O4 0.824117 0.851244 0.584899
O O5 0.001692 0.389242 0.500000
O O6 0.801310 0.428269 0.388915
O O7 0.601282 0.235439 0.000000
O O8 0.500000 0.000000 0.079322
O O9 0.138800 0.963628 0.000000
O O10 0.000000 0.000000 0.114603
O O11 0.250000 0.750000 0.250000
#
# Coordination Sequence:
#
# PCOD8295249 Si02
#       5
#    16  16   8  16   8
#     4  12  23  39  60  86 115 157 197 250 304 353
#     4  11  20  36  58  89 123 154 195 248 295 354
#     4  12  22  36  56  82 108 142 190 242 306 358
#     4   9  17  29  49  81 121 158 186 224 285 345
#     4  12  26  46  62  82 117 156 205 254 302 370
#
# _framework density 20.552216999999999
#
# number of rings (size 3 to 8) (size 9 to 14) (size 15 to 20)
#    0.000    1.000    2.500    6.000    0.000    4.000 
#    0.000    0.000    0.000    0.000    0.000   13.125 
#    0.000    0.000    0.000    0.000    0.000    0.000 
#
# Total GULP energy -396719.204754 kJ/mol
# GULP energy per Si atom -12397.475149 kJ/mol
# Density = 2.050544 g / cm^3
# Si number density = 20.552217 Si / 1000 Ang^3
#
#
#
# Elastic Constant Matrix: (Units=GPa)
#
#
# Indices 1 2 3 4 5 6 
#
# 1 118.7008 41.5411 18.1437 0.0000 0.0000 0.0000
# 2 41.5411 124.6281 46.8613 0.0000 0.0000 0.0000
# 3 18.1437 46.8613 71.1659 0.0000 0.0000 0.0000
# 4 0.0000 0.0000 0.0000 55.6707 0.0000 0.0000
# 5 0.0000 0.0000 0.0000 0.0000 19.6058 0.0000
# 6 0.0000 0.0000 0.0000 0.0000 0.0000 56.5247
#
#
#
# Elastic Compliance Matrix: (Units=1/GPa)
#
#
# Indices 1 2 3 4 5 6 
#
# 1 0.009548 -0.003013 -0.000450 0.000000 0.000000 0.000000
# 2 -0.003013 0.011615 -0.006880 0.000000 0.000000 0.000000
# 3 -0.000450 -0.006880 0.018697 0.000000 0.000000 0.000000
# 4 0.000000 0.000000 0.000000 0.017963 0.000000 0.000000
# 5 0.000000 0.000000 0.000000 0.000000 0.051005 0.000000
# 6 0.000000 0.000000 0.000000 0.000000 0.000000 0.017691
#
#
# Mechanical properties :
#
#
# Convention : Reuss Voigt Hill
#
# Bulk Modulus (GPa) = 52.15668 58.62078 55.38873
# Shear Modulus (GPa) = 32.55261 40.22349 36.38805
#
# Velocity S-wave (km/s) = 3.98414 4.42875 4.21232
# Velocity P-wave (km/s) = 6.82622 7.39842 7.11807
#
# Compressibility (1/GPa) = 0.01917300
#
# Stress axis : x y z
#
# Youngs Moduli (GPa) = 104.73534 86.09345 53.48484
#
# Poissons Ratio (x) = 0.25942 0.02407
# Poissons Ratio (y) = 0.31560 0.36799
# Poissons Ratio (z) = 0.04714 0.59234
#
# Static dielectric constant tensor:
#      x y z
#    x 4.066850 0.000000 0.000000 
#    y 0.000000 4.015970 0.000000 
#    z 0.000000 0.000000 3.239970 
# 
# 
# High freq. dielectric constant tensor:
#      x y z
#    x 1.829400 0.000000 0.000000 
#    y 0.000000 1.826860 0.000000 
#    z 0.000000 0.000000 1.738680 
# 
# From -- ./inp_files/27043.got.cif
#   From: 2010.03.12/outbox.cif.g09.slc.cpg/sg72_14_cif.got.tgz:27043.got - 2010.04.16 14:54:00.
