data_PCOD8295665
_publ_section_title
;
Structure prediction by ZEFSAII (Michael W. Deem and Ramdas Pophale) SiO2 
 PCOD8295665
Probable space group: I B C A 
;
_chemical_formula_sum "Si O2"
_cell_formula_units_Z 96
_cell_length_a 10.162203
_cell_length_b 20.565876
_cell_length_c 25.090137
_cell_angle_alpha 90.000000
_cell_angle_beta 90.000000
_cell_angle_gamma 90.000000
_cell_volume 5243.703316
_symmetry_space_group_name_H-M "I B C A "
_symmetry_group_IT_number 73
_symmetry_cell_setting 'orthorhombic'
loop_
_space_group_symop_operation_xyz
x,y,z
-x,1/2-y,z
x,-y,1/2-z
1/2-x,y,-z
-x,-y,-z
x,1/2+y,-z
-x,y,1/2+z
1/2+x,-y,z
1/2+x,1/2+y,1/2+z
1/2-x,-y,1/2+z
1/2+x,1/2-y,-z
-x,1/2+y,1/2-z
1/2-x,1/2-y,1/2-z
1/2+x,y,1/2-z
1/2-x,1/2+y,z
x,1/2-y,1/2+z
loop_
_atom_site_type_symbol
_atom_site_label
_atom_site_fract_x
_atom_site_fract_y
_atom_site_fract_z
Si Si1 0.875411 0.990356 0.962150
Si Si2 0.516493 0.380477 0.890499
Si Si3 0.222562 0.888567 0.099282
Si Si4 0.121866 0.797632 0.304180
Si Si5 0.365282 0.287938 0.182328
Si Si6 0.500000 0.250000 0.455768
Si Si7 0.750000 0.704274 0.000000
O O1 0.893599 0.926877 0.926159
O O2 0.859191 0.049180 0.920344
O O3 0.750000 0.982448 0.000000
O O4 0.000000 0.000000 0.000000
O O5 0.369678 0.409744 0.881612
O O6 0.590131 0.365570 0.834452
O O7 0.501221 0.312154 0.919018
O O8 0.143986 0.852472 0.146379
O O9 0.231777 0.840277 0.050548
O O10 0.247536 0.762254 0.330772
O O11 0.148291 0.813930 0.242607
O O12 0.000000 0.750000 0.309730
O O13 0.500000 0.250000 0.171313
O O14 0.625499 0.248898 0.494245
#
# Coordination Sequence:
#
# PCOD8295665 Si02
#       7
#    16  16  16  16  16   8   8
#     4  12  24  42  61  88 122 171 208 246 307 373
#     4  11  21  39  65  83 119 165 207 246 310 377
#     4  11  21  42  58  84 123 168 202 249 308 361
#     4  10  18  39  63  92 122 162 197 247 325 366
#     4  10  22  35  64  96 127 153 202 263 305 371
#     4  10  20  34  54  86 110 152 190 252 302 354
#     4  10  20  34  54  80 120 150 192 248 298 352
#
# _framework density 18.307670999999999
#
# number of rings (size 3 to 8) (size 9 to 14) (size 15 to 20)
#    0.000    1.333    5.000    2.000    2.333    1.333 
#    0.000    0.833    0.000    2.000    0.000    0.000 
#    0.000    0.000    0.000    0.000    0.000    0.000 
#
# Total GULP energy -595203.994539 kJ/mol
# GULP energy per Si atom -12400.083220 kJ/mol
# Density = 1.826600 g / cm^3
# Si number density = 18.307671 Si / 1000 Ang^3
#
#
#
# Elastic Constant Matrix: (Units=GPa)
#
#
# Indices 1 2 3 4 5 6 
#
# 1 121.1487 42.7044 40.8678 0.0000 0.0000 0.0000
# 2 42.7044 93.7198 53.6806 0.0000 0.0000 0.0000
# 3 40.8678 53.6806 105.1658 0.0000 0.0000 0.0000
# 4 0.0000 0.0000 0.0000 42.1002 0.0000 0.0000
# 5 0.0000 0.0000 0.0000 0.0000 30.5257 0.0000
# 6 0.0000 0.0000 0.0000 0.0000 0.0000 33.8160
#
#
#
# Elastic Compliance Matrix: (Units=1/GPa)
#
#
# Indices 1 2 3 4 5 6 
#
# 1 0.010197 -0.003358 -0.002248 0.000000 0.000000 0.000000
# 2 -0.003358 0.016185 -0.006956 0.000000 0.000000 0.000000
# 3 -0.002248 -0.006956 0.013933 0.000000 0.000000 0.000000
# 4 0.000000 0.000000 0.000000 0.023753 0.000000 0.000000
# 5 0.000000 0.000000 0.000000 0.000000 0.032759 0.000000
# 6 0.000000 0.000000 0.000000 0.000000 0.000000 0.029572
#
#
# Mechanical properties :
#
#
# Convention : Reuss Voigt Hill
#
# Bulk Modulus (GPa) = 65.83780 66.05999 65.94890
# Shear Modulus (GPa) = 31.93114 33.47381 32.70248
#
# Velocity S-wave (km/s) = 4.18082 4.28062 4.23102
# Velocity P-wave (km/s) = 7.70361 7.78416 7.74399
#
# Compressibility (1/GPa) = 0.01518884
#
# Stress axis : x y z
#
# Youngs Moduli (GPa) = 98.07246 61.78641 71.77143
#
# Poissons Ratio (x) = 0.20751 0.16135
# Poissons Ratio (y) = 0.32938 0.49926
# Poissons Ratio (z) = 0.22048 0.42980
#
# Static dielectric constant tensor:
#      x y z
#    x 4.177830 0.000000 0.000000 
#    y 0.000000 3.311530 0.000000 
#    z 0.000000 0.000000 3.626930 
# 
# 
# High freq. dielectric constant tensor:
#      x y z
#    x 1.726200 0.000000 0.000000 
#    y 0.000000 1.686400 0.000000 
#    z 0.000000 0.000000 1.714500 
# 
# From -- ./inp_files/6474.got.cif
#   From: 2010.03.12/outbox.cif.g09.slc.cpg/sg73_4_cif.got.tgz:6474.got - 2010.04.16 15:25:48.
