data_PCOD8295401
_publ_section_title
;
Structure prediction by ZEFSAII (Michael W. Deem and Ramdas Pophale) SiO2 
 PCOD8295401
Probable space group: I B A M
;
_chemical_formula_sum "Si O2"
_cell_formula_units_Z 72
_cell_length_a 26.562996
_cell_length_b 9.278443
_cell_length_c 14.349334
_cell_angle_alpha 90.000000
_cell_angle_beta 90.000000
_cell_angle_gamma 90.000000
_cell_volume 3536.583411
_symmetry_space_group_name_H-M "I B A M"
_symmetry_group_IT_number 72
_symmetry_cell_setting 'orthorhombic'
loop_
_space_group_symop_operation_xyz
x,y,z
-x,-y,z
x,-y,1/2-z
-x,y,1/2-z
-x,-y,-z
x,y,-z
-x,y,1/2+z
x,-y,1/2+z
1/2+x,1/2+y,1/2+z
1/2-x,1/2-y,1/2+z
1/2+x,1/2-y,-z
1/2-x,1/2+y,-z
1/2-x,1/2-y,1/2-z
1/2+x,1/2+y,1/2-z
1/2-x,1/2+y,z
1/2+x,1/2-y,z
loop_
_atom_site_type_symbol
_atom_site_label
_atom_site_fract_x
_atom_site_fract_y
_atom_site_fract_z
Si Si1 0.700172 0.275522 0.500000
Si Si2 0.454549 0.604232 0.609663
Si Si3 0.316015 0.277283 0.500000
Si Si4 0.869758 0.516629 0.500000
Si Si5 0.655827 0.510948 0.856289
Si Si6 0.450778 0.925555 0.348370
O O1 0.759856 0.282200 0.500000
O O2 0.680756 0.111954 0.500000
O O3 0.680136 0.351177 0.593652
O O4 0.500000 0.500000 0.638107
O O5 0.453999 0.639497 0.500000
O O6 0.404291 0.521081 0.638914
O O7 0.460169 0.754819 0.664357
O O8 0.325572 0.367477 0.593032
O O9 0.355492 0.148942 0.500000
O O10 0.901561 0.551251 0.591083
O O11 0.674307 0.500000 0.750000
O O12 0.500000 0.000000 0.394840
O O13 0.440561 0.000000 0.250000
#
# Coordination Sequence:
#
# PCOD8295401 Si02
#       6
#     8  16   8   8  16  16
#     4  11  23  52  64  94 136 171 223 286 337 383
#     4  11  23  43  71  97 136 183 222 268 324 394
#     4  11  27  42  72  97 124 180 220 282 336 395
#     4  12  23  42  71  92 134 175 218 268 336 389
#     4  11  24  44  69 100 134 170 225 273 330 402
#     4  11  25  40  63 100 140 171 212 266 325 392
#
# _framework density 20.358632
#
# number of rings (size 3 to 8) (size 9 to 14) (size 15 to 20)
#    0.000    0.889    5.556    1.667    6.222    3.111 
#    0.000    2.222    0.000    0.000    0.000    0.000 
#    0.000    0.000    0.000    0.000    0.000    0.000 
#
# Total GULP energy -446589.552915 kJ/mol
# GULP energy per Si atom -12405.265359 kJ/mol
# Density = 2.031230 g / cm^3
# Si number density = 20.358632 Si / 1000 Ang^3
#
#
#
# Elastic Constant Matrix: (Units=GPa)
#
#
# Indices 1 2 3 4 5 6 
#
# 1 119.8809 38.1046 29.6518 0.0000 0.0000 0.0000
# 2 38.1046 121.5606 58.4608 0.0000 0.0000 0.0000
# 3 29.6518 58.4608 140.3801 0.0000 0.0000 0.0000
# 4 0.0000 0.0000 0.0000 -328.1154 0.0000 0.0000
# 5 0.0000 0.0000 0.0000 0.0000 12.4471 0.0000
# 6 0.0000 0.0000 0.0000 0.0000 0.0000 38.9033
#
#
#
# Elastic Compliance Matrix: (Units=1/GPa)
#
#
# Indices 1 2 3 4 5 6 
#
# 1 0.009364 -0.002481 -0.000945 0.000000 0.000000 0.000000
# 2 -0.002481 0.010944 -0.004033 0.000000 0.000000 0.000000
# 3 -0.000945 -0.004033 0.009003 0.000000 0.000000 0.000000
# 4 0.000000 0.000000 0.000000 -0.003048 0.000000 0.000000
# 5 0.000000 0.000000 0.000000 0.000000 0.080340 0.000000
# 6 0.000000 0.000000 0.000000 0.000000 0.000000 0.025705
#
#
# Mechanical properties :
#
#
# Convention : Reuss Voigt Hill
#
# Bulk Modulus (GPa) = 69.48176 70.47289 69.97733
# Shear Modulus (GPa) = 32.88978 -38.31269 -2.71146
#
# Velocity S-wave (km/s) = 4.02371 -4.34278 -1.15531
# Velocity P-wave (km/s) = 7.46927 3.08943 5.71553
#
# Compressibility (1/GPa) = 0.01439227
#
# Stress axis : x y z
#
# Youngs Moduli (GPa) = 106.79383 91.37612 111.07661
#
# Poissons Ratio (x) = 0.22669 0.10494
# Poissons Ratio (y) = 0.26494 0.44803
# Poissons Ratio (z) = 0.10089 0.36856
#
# Static dielectric constant tensor:
#      x y z
#    x 3.725680 0.000000 0.000000 
#    y 0.000000 3.824210 0.000000 
#    z 0.000000 0.000000 3.753930 
# 
# 
# High freq. dielectric constant tensor:
#      x y z
#    x 1.800060 0.000000 0.000000 
#    y 0.000000 1.809360 0.000000 
#    z 0.000000 0.000000 1.795870 
# 
# From -- ./inp_files/18951.got.cif
#   From: 2010.03.12/outbox.cif.g09.slc.cpg/sg72_10_cif.got.tgz:18951.got - 2010.04.16 14:54:00.
