data_PCOD8295164
_publ_section_title
;
Structure prediction by ZEFSAII (Michael W. Deem and Ramdas Pophale) SiO2 
 PCOD8295164
Probable space group: I B A M
;
_chemical_formula_sum "Si O2"
_cell_formula_units_Z 88
_cell_length_a 11.102753
_cell_length_b 26.247916
_cell_length_c 14.366439
_cell_angle_alpha 90.000000
_cell_angle_beta 90.000000
_cell_angle_gamma 90.000000
_cell_volume 4186.726960
_symmetry_space_group_name_H-M "I B A M"
_symmetry_group_IT_number 72
_symmetry_cell_setting 'orthorhombic'
loop_
_space_group_symop_operation_xyz
x,y,z
-x,-y,z
x,-y,1/2-z
-x,y,1/2-z
-x,-y,-z
x,y,-z
-x,y,1/2+z
x,-y,1/2+z
1/2+x,1/2+y,1/2+z
1/2-x,1/2-y,1/2+z
1/2+x,1/2-y,-z
1/2-x,1/2+y,-z
1/2-x,1/2-y,1/2-z
1/2+x,1/2+y,1/2-z
1/2-x,1/2+y,z
1/2+x,1/2-y,z
loop_
_atom_site_type_symbol
_atom_site_label
_atom_site_fract_x
_atom_site_fract_y
_atom_site_fract_z
Si Si1 0.868660 0.976354 0.000000
Si Si2 0.234255 0.840078 0.259775
Si Si3 0.616800 0.963484 0.500000
Si Si4 0.369334 0.446743 0.293862
Si Si5 0.411170 0.202639 0.897365
Si Si6 0.434988 0.884408 0.155102
Si Si7 0.500000 0.724057 0.250000
O O1 0.869889 0.944405 0.905498
O O2 0.000000 0.000000 0.000000
O O3 0.748459 0.010855 0.000000
O O4 0.218965 0.900683 0.272475
O O5 0.284162 0.806654 0.345780
O O6 0.332144 0.841773 0.177310
O O7 0.112208 0.812753 0.233559
O O8 0.613787 0.931023 0.405388
O O9 0.500000 0.000000 0.500000
O O10 0.319426 0.500000 0.250000
O O11 0.500000 0.436494 0.250000
O O12 0.469924 0.146821 0.906287
O O13 0.499952 0.240606 0.841357
O O14 0.387103 0.225072 0.000000
O O15 0.500000 0.904053 0.250000
#
# Coordination Sequence:
#
# PCOD8295164 Si02
#       7
#     8  16   8  16  16  16   8
#     4  12  26  44  68  99 143 183 233 292 348 415
#     4  11  24  44  71  99 137 182 228 291 347 424
#     4  12  28  44  72 109 141 187 245 290 351 438
#     4  11  23  43  69  98 139 180 229 282 351 423
#     4  11  24  44  70  98 138 178 227 289 352 410
#     4  10  23  45  71  97 140 181 226 287 352 409
#     4  12  24  48  69 104 133 180 240 290 354 412
#
# _framework density 21.018803999999999
#
# number of rings (size 3 to 8) (size 9 to 14) (size 15 to 20)
#    0.000    0.909    6.364    1.636    6.364    1.091 
#    1.636    0.000    0.000    0.000    0.000    0.000 
#    0.000    0.000    0.000    0.000    0.000    0.000 
#
# Total GULP energy -545105.966903 kJ/mol
# GULP energy per Si atom -12388.771975 kJ/mol
# Density = 2.097096 g / cm^3
# Si number density = 21.018804 Si / 1000 Ang^3
#
#
#
# Elastic Constant Matrix: (Units=GPa)
#
#
# Indices 1 2 3 4 5 6 
#
# 1 121.5596 31.8364 28.1079 0.0000 0.0000 0.0000
# 2 31.8364 80.1138 32.5937 -0.0006 -0.0001 0.0001
# 3 28.1079 32.5937 148.3115 -0.0010 -0.0003 0.0001
# 4 0.0000 -0.0006 -0.0010 18.3885 0.0000 0.0002
# 5 0.0000 -0.0001 -0.0003 0.0000 16.0608 0.0000
# 6 0.0000 0.0001 0.0001 0.0002 0.0000 28.4996
#
#
#
# Elastic Compliance Matrix: (Units=1/GPa)
#
#
# Indices 1 2 3 4 5 6 
#
# 1 0.009328 -0.003281 -0.001047 0.000000 0.000000 0.000000
# 2 -0.003281 0.014862 -0.002644 0.000000 0.000000 0.000000
# 3 -0.001047 -0.002644 0.007522 0.000000 0.000000 0.000000
# 4 0.000000 0.000000 0.000000 0.054382 0.000000 0.000000
# 5 0.000000 0.000000 0.000000 0.000000 0.062263 0.000000
# 6 0.000000 0.000000 0.000000 0.000000 0.000000 0.035088
#
#
# Mechanical properties :
#
#
# Convention : Reuss Voigt Hill
#
# Bulk Modulus (GPa) = 56.28182 59.45120 57.86651
# Shear Modulus (GPa) = 24.59278 29.75289 27.17284
#
# Velocity S-wave (km/s) = 3.42429 3.76644 3.59944
# Velocity P-wave (km/s) = 6.51685 6.87466 6.69815
#
# Compressibility (1/GPa) = 0.01776773
#
# Stress axis : x y z
#
# Youngs Moduli (GPa) = 107.20739 67.28636 132.94196
#
# Poissons Ratio (x) = 0.22076 0.13916
# Poissons Ratio (y) = 0.35173 0.35154
# Poissons Ratio (z) = 0.11222 0.17793
#
# Static dielectric constant tensor:
#      x y z
#    x 3.864390 0.000000 0.000000 
#    y 0.000000 3.796460 0.000000 
#    z 0.000000 0.000000 3.940860 
# 
# 
# High freq. dielectric constant tensor:
#      x y z
#    x 1.835840 0.000000 0.000000 
#    y 0.000000 1.818920 0.000000 
#    z 0.000000 0.000000 1.821950 
# 
# From -- ./inp_files/20557.got.cif
#   From: 2010.03.12/outbox.cif.g09.slc.cpg/sg72_11_cif.got.tgz:20557.got - 2010.04.16 14:54:00.
