data_PCOD8295800
_publ_section_title
;
Structure prediction by ZEFSAII (Michael W. Deem and Ramdas Pophale) SiO2 
 PCOD8295800
Probable space group: I B C A 
;
_chemical_formula_sum "Si O2"
_cell_formula_units_Z 120
_cell_length_a 18.963256
_cell_length_b 12.330767
_cell_length_c 24.502097
_cell_angle_alpha 90.000000
_cell_angle_beta 90.000000
_cell_angle_gamma 90.000000
_cell_volume 5729.361881
_symmetry_space_group_name_H-M "I B C A "
_symmetry_group_IT_number 73
_symmetry_cell_setting 'orthorhombic'
loop_
_space_group_symop_operation_xyz
x,y,z
-x,1/2-y,z
x,-y,1/2-z
1/2-x,y,-z
-x,-y,-z
x,1/2+y,-z
-x,y,1/2+z
1/2+x,-y,z
1/2+x,1/2+y,1/2+z
1/2-x,-y,1/2+z
1/2+x,1/2-y,-z
-x,1/2+y,1/2-z
1/2-x,1/2-y,1/2-z
1/2+x,y,1/2-z
1/2-x,1/2+y,z
x,1/2-y,1/2+z
loop_
_atom_site_type_symbol
_atom_site_label
_atom_site_fract_x
_atom_site_fract_y
_atom_site_fract_z
Si Si1 0.323826 0.168080 0.680042
Si Si2 0.927693 0.554311 0.019113
Si Si3 0.180695 0.033474 0.577778
Si Si4 0.000000 0.750000 0.563318
Si Si5 0.099877 0.859110 0.640961
Si Si6 0.676936 0.772321 0.652581
Si Si7 0.171025 0.532285 0.892729
Si Si8 0.921187 0.781289 0.254307
O O1 0.355276 0.248008 0.632965
O O2 0.245316 0.213409 0.691268
O O3 0.322821 0.045104 0.659985
O O4 0.372744 0.178768 0.734159
O O5 0.943178 0.683663 0.026658
O O6 0.899954 0.497163 0.074267
O O7 0.864840 0.533796 0.976719
O O8 0.000000 0.500000 0.000000
O O9 0.186401 0.156194 0.598436
O O10 0.259331 0.984385 0.569140
O O11 0.143527 0.963884 0.625000
O O12 0.033011 0.844519 0.601274
O O13 0.078645 0.870990 0.705339
O O14 0.664360 0.651601 0.631371
O O15 0.611607 0.818440 0.688248
O O16 0.000000 0.750000 0.267673
#
# Coordination Sequence:
#
# PCOD8295800 Si02
#       8
#    16  16  16   8  16  16  16  16
#     4   9  20  40  66  86 121 173 212 251 317 393
#     4  12  26  40  66  95 126 175 216 263 333 381
#     4  11  25  43  64  96 128 168 218 276 324 377
#     4  12  22  44  68  94 130 176 222 262 316 412
#     4  10  19  42  67  89 126 168 218 253 318 396
#     4  11  24  40  63  96 131 160 211 278 325 370
#     4  11  23  44  64  94 130 168 217 271 325 391
#     4  10  21  39  64  96 125 168 213 261 322 391
#
# _framework density 20.944739999999999
#
# number of rings (size 3 to 8) (size 9 to 14) (size 15 to 20)
#    0.800    0.533    4.667    0.800    1.867    2.133 
#    0.000    5.333    0.000    0.000    0.000    0.000 
#    0.000    0.000    0.000    0.000    0.000    0.000 
#
# Total GULP energy -743596.102104 kJ/mol
# GULP energy per Si atom -12393.268368 kJ/mol
# Density = 2.089707 g / cm^3
# Si number density = 20.944740 Si / 1000 Ang^3
#
#
#
# Elastic Constant Matrix: (Units=GPa)
#
#
# Indices 1 2 3 4 5 6 
#
# 1 129.2236 13.2562 30.4216 0.0000 0.0000 0.0000
# 2 13.2562 92.5178 16.5566 0.0000 0.0000 0.0000
# 3 30.4216 16.5566 62.6261 0.0000 0.0000 0.0000
# 4 0.0000 0.0000 0.0000 14.0729 0.0000 0.0000
# 5 0.0000 0.0000 0.0000 0.0000 37.2887 0.0000
# 6 0.0000 0.0000 0.0000 0.0000 0.0000 28.6059
#
#
#
# Elastic Compliance Matrix: (Units=1/GPa)
#
#
# Indices 1 2 3 4 5 6 
#
# 1 0.008761 -0.000518 -0.004119 0.000000 0.000000 0.000000
# 2 -0.000518 0.011376 -0.002756 0.000000 0.000000 0.000000
# 3 -0.004119 -0.002756 0.018697 0.000000 0.000000 0.000000
# 4 0.000000 0.000000 0.000000 0.071059 0.000000 0.000000
# 5 0.000000 0.000000 0.000000 0.000000 0.026818 0.000000
# 6 0.000000 0.000000 0.000000 0.000000 0.000000 0.034958
#
#
# Mechanical properties :
#
#
# Convention : Reuss Voigt Hill
#
# Bulk Modulus (GPa) = 41.58226 44.98180 43.28203
# Shear Modulus (GPa) = 25.71074 30.93570 28.32322
#
# Velocity S-wave (km/s) = 3.50744 3.84736 3.68133
# Velocity P-wave (km/s) = 6.02489 6.42334 6.22730
#
# Compressibility (1/GPa) = 0.02404872
#
# Stress axis : x y z
#
# Youngs Moduli (GPa) = 114.13745 87.90315 53.48394
#
# Poissons Ratio (x) = 0.04555 0.22030
# Poissons Ratio (y) = 0.05915 0.14739
# Poissons Ratio (z) = 0.47013 0.24224
#
# Static dielectric constant tensor:
#      x y z
#    x 3.939140 0.000000 0.000000 
#    y 0.000000 3.505240 0.000000 
#    z 0.000000 0.000000 3.525570 
# 
# 
# High freq. dielectric constant tensor:
#      x y z
#    x 1.833940 0.000000 0.000000 
#    y 0.000000 1.803290 0.000000 
#    z 0.000000 0.000000 1.806230 
# 
# From -- ./inp_files/32443.got.cif
#   From: 2010.03.12/outbox.cif.g09.slc.cpg/sg73_17_cif.got.tgz:32443.got - 2010.04.16 15:25:48.
