data_PCOD8295910
_publ_section_title
;
Structure prediction by ZEFSAII (Michael W. Deem and Ramdas Pophale) SiO2 
 PCOD8295910
Probable space group: I B C A 
;
_chemical_formula_sum "Si O2"
_cell_formula_units_Z 72
_cell_length_a 8.962467
_cell_length_b 29.939180
_cell_length_c 13.374496
_cell_angle_alpha 90.000000
_cell_angle_beta 90.000000
_cell_angle_gamma 90.000000
_cell_volume 3588.763970
_symmetry_space_group_name_H-M "I B C A "
_symmetry_group_IT_number 73
_symmetry_cell_setting 'orthorhombic'
loop_
_space_group_symop_operation_xyz
x,y,z
-x,1/2-y,z
x,-y,1/2-z
1/2-x,y,-z
-x,-y,-z
x,1/2+y,-z
-x,y,1/2+z
1/2+x,-y,z
1/2+x,1/2+y,1/2+z
1/2-x,-y,1/2+z
1/2+x,1/2-y,-z
-x,1/2+y,1/2-z
1/2-x,1/2-y,1/2-z
1/2+x,y,1/2-z
1/2-x,1/2+y,z
x,1/2-y,1/2+z
loop_
_atom_site_type_symbol
_atom_site_label
_atom_site_fract_x
_atom_site_fract_y
_atom_site_fract_z
Si Si1 0.250000 0.008576 0.500000
Si Si2 0.973115 0.870497 0.887542
Si Si3 0.353040 0.366016 0.695755
Si Si4 0.483307 0.439552 0.560241
Si Si5 0.089071 0.794952 0.539729
O O1 0.351400 0.039574 0.572803
O O2 0.359918 0.978530 0.433151
O O3 0.822010 0.871929 0.823077
O O4 0.114551 0.866525 0.813881
O O5 0.975037 0.915584 0.952095
O O6 0.985915 0.827938 0.959636
O O7 0.450884 0.405671 0.648891
O O8 0.403945 0.319220 0.647065
O O9 0.250000 0.781337 0.500000
O O10 0.000000 0.750000 0.554783
#
# Coordination Sequence:
#
# PCOD8295910 Si02
#       5
#     8  16  16  16  16
#     4  10  20  36  64  78 110 150 188 234 276 332
#     4  10  21  38  58  82 116 149 184 228 279 332
#     4  10  21  38  58  82 116 149 184 228 279 332
#     4  10  20  40  57  81 113 150 187 228 284 324
#     4   9  20  39  59  82 113 148 183 228 275 327
#
# _framework density 20.062616999999999
#
# number of rings (size 3 to 8) (size 9 to 14) (size 15 to 20)
#    0.000    2.222    2.222    1.333    3.111    2.667 
#    4.000   11.111    0.000    0.000    0.000    0.000 
#    0.000    0.000    0.000    0.000    0.000    0.000 
#
# Total GULP energy -446393.736196 kJ/mol
# GULP energy per Si atom -12399.826005 kJ/mol
# Density = 2.001695 g / cm^3
# Si number density = 20.062617 Si / 1000 Ang^3
#
#
#
# Elastic Constant Matrix: (Units=GPa)
#
#
# Indices 1 2 3 4 5 6 
#
# 1 72.6197 36.7986 4.9923 0.0001 -0.0001 0.0003
# 2 36.7986 104.8753 4.2756 0.0000 -0.0001 0.0003
# 3 4.9923 4.2756 66.8006 0.0004 -0.0002 0.0003
# 4 0.0001 0.0000 0.0004 6.9061 -0.0001 0.0003
# 5 -0.0001 -0.0001 -0.0002 -0.0001 27.9269 0.0000
# 6 0.0003 0.0003 0.0003 0.0003 0.0000 29.9463
#
#
#
# Elastic Compliance Matrix: (Units=1/GPa)
#
#
# Indices 1 2 3 4 5 6 
#
# 1 0.016800 -0.005859 -0.000881 0.000000 0.000000 0.000000
# 2 -0.005859 0.011603 -0.000305 0.000000 0.000000 0.000000
# 3 -0.000881 -0.000305 0.015055 -0.000001 0.000000 0.000000
# 4 0.000000 0.000000 -0.000001 0.144800 0.000001 -0.000002
# 5 0.000000 0.000000 0.000000 0.000001 0.035808 0.000000
# 6 0.000000 0.000000 0.000000 -0.000002 0.000000 0.033393
#
#
# Mechanical properties :
#
#
# Convention : Reuss Voigt Hill
#
# Bulk Modulus (GPa) = 34.04835 37.38096 35.71466
# Shear Modulus (GPa) = 17.77229 26.17115 21.97172
#
# Velocity S-wave (km/s) = 2.97954 3.61567 3.31291
# Velocity P-wave (km/s) = 5.37073 6.00860 5.69860
#
# Compressibility (1/GPa) = 0.02937000
#
# Stress axis : x y z
#
# Youngs Moduli (GPa) = 59.52484 86.18252 66.42206
#
# Poissons Ratio (x) = 0.50492 0.05849
# Poissons Ratio (y) = 0.34874 0.02025
# Poissons Ratio (z) = 0.05241 0.02627
#
# Static dielectric constant tensor:
#      x y z
#    x 3.666480 0.000000 0.000000 
#    y 0.000000 3.700270 0.000000 
#    z 0.000000 0.000000 3.354710 
# 
# 
# High freq. dielectric constant tensor:
#      x y z
#    x 1.789510 0.000000 0.000000 
#    y 0.000000 1.792140 0.000000 
#    z 0.000000 0.000000 1.756890 
# 
# From -- ./inp_files/4889.got.cif
#   From: 2010.03.12/outbox.cif.g09.slc.cpg/sg73_3_cif.got.tgz:4889.got - 2010.04.16 15:25:48.
