data_PCOD8295338
_publ_section_title
;
Structure prediction by ZEFSAII (Michael W. Deem and Ramdas Pophale) SiO2 
 PCOD8295338
Probable space group: I B A M
;
_chemical_formula_sum "Si O2"
_cell_formula_units_Z 64
_cell_length_a 8.625585
_cell_length_b 19.999247
_cell_length_c 16.045324
_cell_angle_alpha 90.000000
_cell_angle_beta 90.000000
_cell_angle_gamma 90.000000
_cell_volume 2767.901905
_symmetry_space_group_name_H-M "I B A M"
_symmetry_group_IT_number 72
_symmetry_cell_setting 'orthorhombic'
loop_
_space_group_symop_operation_xyz
x,y,z
-x,-y,z
x,-y,1/2-z
-x,y,1/2-z
-x,-y,-z
x,y,-z
-x,y,1/2+z
x,-y,1/2+z
1/2+x,1/2+y,1/2+z
1/2-x,1/2-y,1/2+z
1/2+x,1/2-y,-z
1/2-x,1/2+y,-z
1/2-x,1/2-y,1/2-z
1/2+x,1/2+y,1/2-z
1/2-x,1/2+y,z
1/2+x,1/2-y,z
loop_
_atom_site_type_symbol
_atom_site_label
_atom_site_fract_x
_atom_site_fract_y
_atom_site_fract_z
Si Si1 0.086724 0.671792 0.337437
Si Si2 0.216426 0.281708 0.404755
Si Si3 0.221770 0.944499 0.098813
Si Si4 0.621191 0.413451 0.901160
O O1 0.238800 0.718918 0.346115
O O2 0.139221 0.595874 0.356993
O O3 0.000000 0.674785 0.250000
O O4 0.966396 0.702697 0.403954
O O5 0.264112 0.266620 0.500000
O O6 0.302152 0.346557 0.365685
O O7 0.055797 0.916349 0.129654
O O8 0.223910 0.022332 0.127109
O O9 0.241847 0.936506 0.000000
O O10 0.621212 0.413067 0.000000
#
# Coordination Sequence:
#
# PCOD8295338 Si02
#       4
#    16  16  16  16
#     4  12  25  39  58  88 129 167 203 259 323 380
#     4  11  22  39  61  86 115 161 215 262 309 373
#     4   9  17  36  62  89 118 157 205 260 317 377
#     4   8  17  34  62  91 115 147 204 267 313 362
#
# _framework density 23.122205999999998
#
# number of rings (size 3 to 8) (size 9 to 14) (size 15 to 20)
#    0.000    2.000    0.000    6.000    0.000    3.000 
#    0.000    6.250    0.000    3.000    0.000    0.000 
#    0.000    0.000    0.000    0.000    0.000    0.000 
#
# Total GULP energy -396688.586431 kJ/mol
# GULP energy per Si atom -12396.518326 kJ/mol
# Density = 2.306958 g / cm^3
# Si number density = 23.122206 Si / 1000 Ang^3
#
#
#
# Elastic Constant Matrix: (Units=GPa)
#
#
# Indices 1 2 3 4 5 6 
#
# 1 80.3964 29.0559 27.0014 0.0000 0.0000 0.0000
# 2 29.0559 108.5491 39.1275 0.0000 0.0000 0.0000
# 3 27.0014 39.1275 63.8333 0.0000 0.0000 0.0000
# 4 0.0000 0.0000 0.0000 23.6999 0.0000 0.0000
# 5 0.0000 0.0000 0.0000 0.0000 29.3194 0.0000
# 6 0.0000 0.0000 0.0000 0.0000 0.0000 58.9527
#
#
#
# Elastic Compliance Matrix: (Units=1/GPa)
#
#
# Indices 1 2 3 4 5 6 
#
# 1 0.014897 -0.002203 -0.004951 0.000000 0.000000 0.000000
# 2 -0.002203 0.012151 -0.006516 0.000000 0.000000 0.000000
# 3 -0.004951 -0.006516 0.021754 0.000000 0.000000 0.000000
# 4 0.000000 0.000000 0.000000 0.042194 0.000000 0.000000
# 5 0.000000 0.000000 0.000000 0.000000 0.034107 0.000000
# 6 0.000000 0.000000 0.000000 0.000000 0.000000 0.016963
#
#
# Mechanical properties :
#
#
# Convention : Reuss Voigt Hill
#
# Bulk Modulus (GPa) = 46.59428 49.23871 47.91649
# Shear Modulus (GPa) = 28.31871 32.90067 30.60969
#
# Velocity S-wave (km/s) = 3.50343 3.77623 3.64238
# Velocity P-wave (km/s) = 6.04652 6.35252 6.20140
#
# Compressibility (1/GPa) = 0.02146186
#
# Stress axis : x y z
#
# Youngs Moduli (GPa) = 67.12563 82.29831 45.96770
#
# Poissons Ratio (x) = 0.18130 0.22760
# Poissons Ratio (y) = 0.14787 0.29954
# Poissons Ratio (z) = 0.33236 0.53627
#
# Static dielectric constant tensor:
#      x y z
#    x 4.355890 0.000000 0.000000 
#    y 0.000000 4.608240 0.000000 
#    z 0.000000 0.000000 3.618820 
# 
# 
# High freq. dielectric constant tensor:
#      x y z
#    x 1.912060 0.000000 0.000000 
#    y 0.000000 1.925730 0.000000 
#    z 0.000000 0.000000 1.877420 
# 
# From -- ./inp_files/27644.got.cif
#   From: 2010.03.12/outbox.cif.g09.slc.cpg/sg72_14_cif.got.tgz:27644.got - 2010.04.16 14:54:00.
