data_PCOD8295587
_publ_section_title
;
Structure prediction by ZEFSAII (Michael W. Deem and Ramdas Pophale) SiO2 
 PCOD8295587
Probable space group: I B C A 
;
_chemical_formula_sum "Si O2"
_cell_formula_units_Z 88
_cell_length_a 9.724760
_cell_length_b 25.961531
_cell_length_c 16.476876
_cell_angle_alpha 90.000000
_cell_angle_beta 90.000000
_cell_angle_gamma 90.000000
_cell_volume 4159.911252
_symmetry_space_group_name_H-M "I B C A "
_symmetry_group_IT_number 73
_symmetry_cell_setting 'orthorhombic'
loop_
_space_group_symop_operation_xyz
x,y,z
-x,1/2-y,z
x,-y,1/2-z
1/2-x,y,-z
-x,-y,-z
x,1/2+y,-z
-x,y,1/2+z
1/2+x,-y,z
1/2+x,1/2+y,1/2+z
1/2-x,-y,1/2+z
1/2+x,1/2-y,-z
-x,1/2+y,1/2-z
1/2-x,1/2-y,1/2-z
1/2+x,y,1/2-z
1/2-x,1/2+y,z
x,1/2-y,1/2+z
loop_
_atom_site_type_symbol
_atom_site_label
_atom_site_fract_x
_atom_site_fract_y
_atom_site_fract_z
Si Si1 0.686862 0.829161 0.417278
Si Si2 0.058767 0.518405 0.343309
Si Si3 0.916222 0.610685 0.280011
Si Si4 0.500000 0.750000 0.343729
Si Si5 0.158864 0.440948 0.878120
Si Si6 0.326575 0.824369 0.253218
O O1 0.750000 0.806866 0.500000
O O2 0.548955 0.796995 0.399868
O O3 0.650442 0.889418 0.432366
O O4 0.792387 0.822175 0.342462
O O5 0.080338 0.500000 0.250000
O O6 0.201458 0.526297 0.391340
O O7 0.974546 0.572708 0.348861
O O8 0.973924 0.476344 0.394756
O O9 0.834917 0.575426 0.215904
O O10 0.801513 0.653055 0.306935
O O11 0.040641 0.639383 0.234779
O O12 0.370901 0.768329 0.287742
#
# Coordination Sequence:
#
# PCOD8295587 Si02
#       6
#    16  16  16   8  16  16
#     4  11  25  44  62  92 135 169 206 269 337 385
#     4  10  18  30  56  92 124 157 209 259 308 364
#     4  10  18  33  58  92 126 158 206 269 314 359
#     4  12  24  44  68  94 120 166 228 270 314 390
#     4  10  20  34  56  87 124 165 202 260 310 378
#     4  11  21  39  66  93 122 165 216 269 319 376
#
# _framework density 21.154298000000001
#
# number of rings (size 3 to 8) (size 9 to 14) (size 15 to 20)
#    0.000    1.455    7.273    2.182    2.545    0.727 
#    0.000    0.909    0.000    0.000    0.000    0.000 
#    0.000    0.000    0.000    0.000    0.000    0.000 
#
# Total GULP energy -545365.955562 kJ/mol
# GULP energy per Si atom -12394.680808 kJ/mol
# Density = 2.110615 g / cm^3
# Si number density = 21.154298 Si / 1000 Ang^3
#
#
#
# Elastic Constant Matrix: (Units=GPa)
#
#
# Indices 1 2 3 4 5 6 
#
# 1 138.5445 57.2838 20.3601 0.0000 0.0000 0.0000
# 2 57.2838 103.1685 29.1823 0.0001 0.0000 0.0000
# 3 20.3601 29.1823 51.2858 0.0002 -0.0001 -0.0001
# 4 0.0000 0.0001 0.0002 10.1190 0.0000 0.0000
# 5 0.0000 0.0000 -0.0001 0.0000 18.0457 0.0000
# 6 0.0000 0.0000 -0.0001 0.0000 0.0000 53.0389
#
#
#
# Elastic Compliance Matrix: (Units=1/GPa)
#
#
# Indices 1 2 3 4 5 6 
#
# 1 0.009404 -0.004965 -0.000908 0.000000 0.000000 0.000000
# 2 -0.004965 0.014173 -0.006094 0.000000 0.000000 0.000000
# 3 -0.000908 -0.006094 0.023327 0.000000 0.000000 0.000000
# 4 0.000000 0.000000 0.000000 0.098824 0.000000 0.000000
# 5 0.000000 0.000000 0.000000 0.000000 0.055415 0.000000
# 6 0.000000 0.000000 0.000000 0.000000 0.000000 0.018854
#
#
# Mechanical properties :
#
#
# Convention : Reuss Voigt Hill
#
# Bulk Modulus (GPa) = 43.53458 56.29457 49.91457
# Shear Modulus (GPa) = 19.87384 28.65222 24.26303
#
# Velocity S-wave (km/s) = 3.06840 3.68426 3.39035
# Velocity P-wave (km/s) = 5.76001 6.69086 6.24281
#
# Compressibility (1/GPa) = 0.02297025
#
# Stress axis : x y z
#
# Youngs Moduli (GPa) = 106.33640 70.55579 42.86936
#
# Poissons Ratio (x) = 0.35028 0.03894
# Poissons Ratio (y) = 0.52792 0.26124
# Poissons Ratio (z) = 0.09660 0.42995
#
# Static dielectric constant tensor:
#      x y z
#    x 3.967910 0.000000 0.000000 
#    y 0.000000 4.231740 0.000000 
#    z 0.000000 0.000000 3.121430 
# 
# 
# High freq. dielectric constant tensor:
#      x y z
#    x 1.841070 0.000000 0.000000 
#    y 0.000000 1.848830 0.000000 
#    z 0.000000 0.000000 1.755340 
# 
# From -- ./inp_files/20824.got.cif
#   From: 2010.03.12/outbox.cif.g09.slc.cpg/sg73_11_cif.got.tgz:20824.got - 2010.04.16 15:25:48.
