data_PCOD8295933
_publ_section_title
;
Structure prediction by ZEFSAII (Michael W. Deem and Ramdas Pophale) SiO2 
 PCOD8295933
Probable space group: I B C A 
;
_chemical_formula_sum "Si O2"
_cell_formula_units_Z 80
_cell_length_a 26.776711
_cell_length_b 16.077233
_cell_length_c 8.769758
_cell_angle_alpha 90.000000
_cell_angle_beta 90.000000
_cell_angle_gamma 90.000000
_cell_volume 3775.340669
_symmetry_space_group_name_H-M "I B C A "
_symmetry_group_IT_number 73
_symmetry_cell_setting 'orthorhombic'
loop_
_space_group_symop_operation_xyz
x,y,z
-x,1/2-y,z
x,-y,1/2-z
1/2-x,y,-z
-x,-y,-z
x,1/2+y,-z
-x,y,1/2+z
1/2+x,-y,z
1/2+x,1/2+y,1/2+z
1/2-x,-y,1/2+z
1/2+x,1/2-y,-z
-x,1/2+y,1/2-z
1/2-x,1/2-y,1/2-z
1/2+x,y,1/2-z
1/2-x,1/2+y,z
x,1/2-y,1/2+z
loop_
_atom_site_type_symbol
_atom_site_label
_atom_site_fract_x
_atom_site_fract_y
_atom_site_fract_z
Si Si1 0.649016 0.198226 0.962760
Si Si2 0.045583 0.408207 0.554189
Si Si3 0.250000 0.391242 0.000000
Si Si4 0.207284 0.500000 0.250000
Si Si5 0.638847 0.639027 0.373177
Si Si6 0.945436 0.895490 0.602647
O O1 0.641488 0.189051 0.783527
O O2 0.700620 0.162004 0.025218
O O3 0.654288 0.296178 0.995419
O O4 0.603469 0.149065 0.038979
O O5 0.083493 0.387361 0.418230
O O6 0.052518 0.505869 0.580122
O O7 0.053353 0.367349 0.720261
O O8 0.994130 0.368560 0.492335
O O9 0.244305 0.445851 0.150295
O O10 0.173263 0.443172 0.361981
#
# Coordination Sequence:
#
# PCOD8295933 Si02
#       6
#    16  16   8   8  16  16
#     4  11  24  40  60  90 125 161 210 261 316 370
#     4  10  20  37  63  91 127 165 204 251 308 375
#     4  10  24  42  64  92 122 162 208 260 312 374
#     4  10  24  42  66  90 120 164 210 258 314 382
#     4  11  23  41  63  91 126 165 208 262 318 382
#     4  10  21  37  61  93 125 165 207 252 307 372
#
# _framework density 21.19014
#
# number of rings (size 3 to 8) (size 9 to 14) (size 15 to 20)
#    0.000    1.600    0.000    4.800    0.000   12.800 
#    0.000    4.000    0.000    0.000    0.000    0.000 
#    0.000    0.000    0.000    0.000    0.000    0.000 
#
# Total GULP energy -495684.796438 kJ/mol
# GULP energy per Si atom -12392.119911 kJ/mol
# Density = 2.114191 g / cm^3
# Si number density = 21.190140 Si / 1000 Ang^3
#
#
#
# Elastic Constant Matrix: (Units=GPa)
#
#
# Indices 1 2 3 4 5 6 
#
# 1 154.2477 34.1165 41.0021 0.0000 0.0000 0.0000
# 2 34.1165 51.6286 14.3532 0.0000 0.0000 0.0000
# 3 41.0021 14.3532 88.7396 0.0000 0.0000 0.0000
# 4 0.0000 0.0000 0.0000 32.2339 0.0000 0.0000
# 5 0.0000 0.0000 0.0000 0.0000 38.6305 0.0000
# 6 0.0000 0.0000 0.0000 0.0000 0.0000 16.5926
#
#
#
# Elastic Compliance Matrix: (Units=1/GPa)
#
#
# Indices 1 2 3 4 5 6 
#
# 1 0.008335 -0.004646 -0.003100 0.000000 0.000000 0.000000
# 2 -0.004646 0.022871 -0.001553 0.000000 0.000000 0.000000
# 3 -0.003100 -0.001553 0.012952 0.000000 0.000000 0.000000
# 4 0.000000 0.000000 0.000000 0.031023 0.000000 0.000000
# 5 0.000000 0.000000 0.000000 0.000000 0.025886 0.000000
# 6 0.000000 0.000000 0.000000 0.000000 0.000000 0.060268
#
#
# Mechanical properties :
#
#
# Convention : Reuss Voigt Hill
#
# Bulk Modulus (GPa) = 39.12132 52.61771 45.86952
# Shear Modulus (GPa) = 26.53203 31.16767 28.84985
#
# Velocity S-wave (km/s) = 3.54233 3.83934 3.69382
# Velocity P-wave (km/s) = 5.93573 6.67376 6.31554
#
# Compressibility (1/GPa) = 0.02556151
#
# Stress axis : x y z
#
# Youngs Moduli (GPa) = 119.98227 43.72401 77.20697
#
# Poissons Ratio (x) = 0.20313 0.23931
# Poissons Ratio (y) = 0.55742 0.11987
# Poissons Ratio (z) = 0.37189 0.06789
#
# Static dielectric constant tensor:
#      x y z
#    x 3.893190 0.000000 0.000000 
#    y 0.000000 3.887600 0.000000 
#    z 0.000000 0.000000 4.035390 
# 
# 
# High freq. dielectric constant tensor:
#      x y z
#    x 1.836060 0.000000 0.000000 
#    y 0.000000 1.831640 0.000000 
#    z 0.000000 0.000000 1.843630 
# 
# From -- ./inp_files/7751.got.cif
#   From: 2010.03.12/outbox.cif.g09.slc.cpg/sg73_4_cif.got.tgz:7751.got - 2010.04.16 15:25:48.
