data_PCOD8295254
_publ_section_title
;
Structure prediction by ZEFSAII (Michael W. Deem and Ramdas Pophale) SiO2 
 PCOD8295254
Probable space group: I B A M
;
_chemical_formula_sum "Si O2"
_cell_formula_units_Z 96
_cell_length_a 15.126816
_cell_length_b 14.345958
_cell_length_c 22.084092
_cell_angle_alpha 90.000000
_cell_angle_beta 90.000000
_cell_angle_gamma 90.000000
_cell_volume 4792.439367
_symmetry_space_group_name_H-M "I B A M"
_symmetry_group_IT_number 72
_symmetry_cell_setting 'orthorhombic'
loop_
_space_group_symop_operation_xyz
x,y,z
-x,-y,z
x,-y,1/2-z
-x,y,1/2-z
-x,-y,-z
x,y,-z
-x,y,1/2+z
x,-y,1/2+z
1/2+x,1/2+y,1/2+z
1/2-x,1/2-y,1/2+z
1/2+x,1/2-y,-z
1/2-x,1/2+y,-z
1/2-x,1/2-y,1/2-z
1/2+x,1/2+y,1/2-z
1/2-x,1/2+y,z
1/2+x,1/2-y,z
loop_
_atom_site_type_symbol
_atom_site_label
_atom_site_fract_x
_atom_site_fract_y
_atom_site_fract_z
Si Si1 0.837950 0.285859 0.366483
Si Si2 0.675335 0.830745 0.133387
Si Si3 0.905837 0.239723 0.755519
Si Si4 0.069347 0.080511 0.342946
Si Si5 0.261639 0.978072 0.177625
Si Si6 0.516264 0.255158 0.570850
O O1 0.752124 0.235422 0.395540
O O2 0.863971 0.221050 0.309623
O O3 0.821166 0.388417 0.338944
O O4 0.918756 0.284289 0.413634
O O5 0.660553 0.795408 0.201837
O O6 0.587680 0.821191 0.092806
O O7 0.699320 0.938375 0.137619
O O8 0.926750 0.137984 0.781156
O O9 0.000000 0.294556 0.750000
O O10 0.165910 0.037163 0.351820
O O11 0.039913 0.146513 0.398335
O O12 0.000000 0.000000 0.335613
O O13 0.261561 0.000000 0.250000
O O14 0.522761 0.270402 0.500000
#
# Coordination Sequence:
#
# PCOD8295254 Si02
#       6
#    16  16  16  16  16  16
#     4  12  22  43  64  99 139 176 218 271 338 409
#     4  11  23  42  64  98 137 169 218 272 339 404
#     4  11  20  38  63  95 139 173 203 264 334 413
#     4  11  24  39  65 103 135 168 220 274 341 403
#     4  12  24  35  68 106 137 172 209 266 348 426
#     4  11  26  48  68  86 128 185 234 285 328 380
#
# _framework density 20.031552999999999
#
# number of rings (size 3 to 8) (size 9 to 14) (size 15 to 20)
#    0.000    0.667    8.333    2.500    2.333    1.667 
#    0.000    4.167    0.000    0.000    0.000    0.000 
#    0.000    0.000    0.000    0.000    0.000    0.000 
#
# Total GULP energy -595095.695516 kJ/mol
# GULP energy per Si atom -12397.826990 kJ/mol
# Density = 1.998596 g / cm^3
# Si number density = 20.031553 Si / 1000 Ang^3
#
#
#
# Elastic Constant Matrix: (Units=GPa)
#
#
# Indices 1 2 3 4 5 6 
#
# 1 132.8581 46.7905 23.9985 0.0000 0.0000 0.0000
# 2 46.7905 134.4755 40.0701 0.0000 0.0000 0.0000
# 3 23.9985 40.0701 68.6678 0.0000 0.0000 0.0000
# 4 0.0000 0.0000 0.0000 13.8503 0.0000 0.0000
# 5 0.0000 0.0000 0.0000 0.0000 14.7408 0.0000
# 6 0.0000 0.0000 0.0000 0.0000 0.0000 37.1147
#
#
#
# Elastic Compliance Matrix: (Units=1/GPa)
#
#
# Indices 1 2 3 4 5 6 
#
# 1 0.008711 -0.002571 -0.001544 0.000000 0.000000 0.000000
# 2 -0.002571 0.009760 -0.004797 0.000000 0.000000 0.000000
# 3 -0.001544 -0.004797 0.017902 0.000000 0.000000 0.000000
# 4 0.000000 0.000000 0.000000 0.072201 0.000000 0.000000
# 5 0.000000 0.000000 0.000000 0.000000 0.067839 0.000000
# 6 0.000000 0.000000 0.000000 0.000000 0.000000 0.026944
#
#
# Mechanical properties :
#
#
# Convention : Reuss Voigt Hill
#
# Bulk Modulus (GPa) = 53.91127 61.96885 57.94006
# Shear Modulus (GPa) = 21.99126 28.15065 25.07096
#
# Velocity S-wave (km/s) = 3.31695 3.75282 3.54160
# Velocity P-wave (km/s) = 6.45299 7.05556 6.76100
#
# Compressibility (1/GPa) = 0.01854900
#
# Stress axis : x y z
#
# Youngs Moduli (GPa) = 114.79480 102.45698 55.86046
#
# Poissons Ratio (x) = 0.26341 0.08626
# Poissons Ratio (y) = 0.29513 0.26796
# Poissons Ratio (z) = 0.17727 0.49148
#
# Static dielectric constant tensor:
#      x y z
#    x 4.164180 0.000000 0.000000 
#    y 0.000000 3.632470 0.000000 
#    z 0.000000 0.000000 3.302910 
# 
# 
# High freq. dielectric constant tensor:
#      x y z
#    x 1.810340 0.000000 0.000000 
#    y 0.000000 1.779180 0.000000 
#    z 0.000000 0.000000 1.745780 
# 
# From -- ./inp_files/38004.got.cif
#   From: 2010.03.12/outbox.cif.g09.slc.cpg/sg72_20_cif.got.tgz:38004.got - 2010.04.16 14:54:00.
