data_PCOD8295484
_publ_section_title
;
Structure prediction by ZEFSAII (Michael W. Deem and Ramdas Pophale) SiO2 
 PCOD8295484
Probable space group: I B A M
;
_chemical_formula_sum "Si O2"
_cell_formula_units_Z 56
_cell_length_a 13.602125
_cell_length_b 9.347270
_cell_length_c 19.156026
_cell_angle_alpha 90.000000
_cell_angle_beta 90.000000
_cell_angle_gamma 90.000000
_cell_volume 2435.549536
_symmetry_space_group_name_H-M "I B A M"
_symmetry_group_IT_number 72
_symmetry_cell_setting 'orthorhombic'
loop_
_space_group_symop_operation_xyz
x,y,z
-x,-y,z
x,-y,1/2-z
-x,y,1/2-z
-x,-y,-z
x,y,-z
-x,y,1/2+z
x,-y,1/2+z
1/2+x,1/2+y,1/2+z
1/2-x,1/2-y,1/2+z
1/2+x,1/2-y,-z
1/2-x,1/2+y,-z
1/2-x,1/2-y,1/2-z
1/2+x,1/2+y,1/2-z
1/2-x,1/2+y,z
1/2+x,1/2-y,z
loop_
_atom_site_type_symbol
_atom_site_label
_atom_site_fract_x
_atom_site_fract_y
_atom_site_fract_z
Si Si1 0.461699 0.255974 0.821371
Si Si2 0.361850 0.236134 0.422141
Si Si3 0.661994 0.500000 0.750000
Si Si4 0.707664 0.931257 0.871825
O O1 0.500000 0.181132 0.750000
O O2 0.552736 0.295513 0.871586
O O3 0.404956 0.399725 0.798859
O O4 0.396514 0.146469 0.865013
O O5 0.403799 0.208097 0.500000
O O6 0.275710 0.354230 0.429276
O O7 0.311969 0.094087 0.391404
O O8 0.733804 0.590605 0.700631
#
# Coordination Sequence:
#
# PCOD8295484 Si02
#       4
#    16  16   8  16
#     4  12  25  45  76 108 146 184 249 312 368 444
#     4  12  28  47  73 108 148 201 249 306 380 452
#     4  12  23  46  75 112 140 192 245 312 373 440
#     4  12  25  48  73 105 149 192 248 309 372 451
#
# _framework density 22.992756
#
# number of rings (size 3 to 8) (size 9 to 14) (size 15 to 20)
#    0.000    0.000    5.714    4.714    0.000    4.571 
#    0.000    1.429    0.000    0.000    0.000    0.000 
#    0.000    0.000    0.000    0.000    0.000    0.000 
#
# Total GULP energy -347263.644383 kJ/mol
# GULP energy per Si atom -12402.273014 kJ/mol
# Density = 2.294042 g / cm^3
# Si number density = 22.992756 Si / 1000 Ang^3
#
#
#
# Elastic Constant Matrix: (Units=GPa)
#
#
# Indices 1 2 3 4 5 6 
#
# 1 114.3128 22.4322 41.8207 0.0000 0.0000 0.0000
# 2 22.4322 81.7316 5.1799 0.0000 0.0000 0.0000
# 3 41.8207 5.1799 126.2245 0.0000 0.0000 0.0000
# 4 0.0000 0.0000 0.0000 20.0142 0.0000 0.0000
# 5 0.0000 0.0000 0.0000 0.0000 30.7598 0.0000
# 6 0.0000 0.0000 0.0000 0.0000 0.0000 38.0116
#
#
#
# Elastic Compliance Matrix: (Units=1/GPa)
#
#
# Indices 1 2 3 4 5 6 
#
# 1 0.010505 -0.002670 -0.003371 0.000000 0.000000 0.000000
# 2 -0.002670 0.012945 0.000353 0.000000 0.000000 0.000000
# 3 -0.003371 0.000353 0.009025 0.000000 0.000000 0.000000
# 4 0.000000 0.000000 0.000000 0.049965 0.000000 0.000000
# 5 0.000000 0.000000 0.000000 0.000000 0.032510 0.000000
# 6 0.000000 0.000000 0.000000 0.000000 0.000000 0.026308
#
#
# Mechanical properties :
#
#
# Convention : Reuss Voigt Hill
#
# Bulk Modulus (GPa) = 47.39192 51.23717 49.31455
# Shear Modulus (GPa) = 31.31542 34.61285 32.96414
#
# Velocity S-wave (km/s) = 3.69449 3.88413 3.79050
# Velocity P-wave (km/s) = 6.23341 6.51519 6.37586
#
# Compressibility (1/GPa) = 0.02110064
#
# Stress axis : x y z
#
# Youngs Moduli (GPa) = 95.19229 77.24701 110.80610
#
# Poissons Ratio (x) = 0.20622 0.37353
# Poissons Ratio (y) = 0.25413 -0.03914
# Poissons Ratio (z) = 0.32089 -0.02729
#
# Static dielectric constant tensor:
#      x y z
#    x 4.427710 0.000000 0.000000 
#    y 0.000000 3.939790 0.000000 
#    z 0.000000 0.000000 4.100250 
# 
# 
# High freq. dielectric constant tensor:
#      x y z
#    x 1.928530 0.000000 0.000000 
#    y 0.000000 1.906330 0.000000 
#    z 0.000000 0.000000 1.903380 
# 
# From -- ./inp_files/35216.got.cif
#   From: 2010.03.12/outbox.cif.g09.slc.cpg/sg72_18_cif.got.tgz:35216.got - 2010.04.16 14:54:00.
