data_PCOD8295138
_publ_section_title
;
Structure prediction by ZEFSAII (Michael W. Deem and Ramdas Pophale) SiO2 
 PCOD8295138
Probable space group: I B A M
;
_chemical_formula_sum "Si O2"
_cell_formula_units_Z 116
_cell_length_a 16.682922
_cell_length_b 17.925102
_cell_length_c 18.548139
_cell_angle_alpha 90.000000
_cell_angle_beta 90.000000
_cell_angle_gamma 90.000000
_cell_volume 5546.692587
_symmetry_space_group_name_H-M "I B A M"
_symmetry_group_IT_number 72
_symmetry_cell_setting 'orthorhombic'
loop_
_space_group_symop_operation_xyz
x,y,z
-x,-y,z
x,-y,1/2-z
-x,y,1/2-z
-x,-y,-z
x,y,-z
-x,y,1/2+z
x,-y,1/2+z
1/2+x,1/2+y,1/2+z
1/2-x,1/2-y,1/2+z
1/2+x,1/2-y,-z
1/2-x,1/2+y,-z
1/2-x,1/2-y,1/2-z
1/2+x,1/2+y,1/2-z
1/2-x,1/2+y,z
1/2+x,1/2-y,z
loop_
_atom_site_type_symbol
_atom_site_label
_atom_site_fract_x
_atom_site_fract_y
_atom_site_fract_z
Si Si1 0.247837 0.826751 0.578381
Si Si2 0.324020 0.792959 0.718629
Si Si3 0.411428 0.527071 0.669592
Si Si4 0.454554 0.315086 0.816451
Si Si5 0.414025 0.244441 0.584915
Si Si6 0.258978 0.500386 0.919201
Si Si7 0.000000 0.500000 0.750000
Si Si8 0.129907 0.595264 0.330888
O O1 0.265421 0.791262 0.500000
O O2 0.313724 0.796803 0.632979
O O3 0.158797 0.801175 0.602487
O O4 0.264103 0.913961 0.575606
O O5 0.250000 0.750000 0.750000
O O6 0.406118 0.748282 0.727304
O O7 0.329158 0.872492 0.758239
O O8 0.500000 0.500000 0.646474
O O9 0.389534 0.500000 0.750000
O O10 0.401654 0.616205 0.655368
O O11 0.346803 0.495010 0.614949
O O12 0.500000 0.354830 0.750000
O O13 0.507128 0.280009 0.879925
O O14 0.429235 0.235839 0.500000
O O15 0.396617 0.162890 0.617495
O O16 0.194411 0.456196 0.871216
O O17 0.261011 0.465506 0.000000
O O18 0.946907 0.451073 0.695183
#
# Coordination Sequence:
#
# PCOD8295138 Si02
#       8
#    16  16  16  16  16  16   4  16
#     4  10  23  43  64  94 134 171 216 271 335 396
#     4  12  23  39  69  99 124 170 220 279 334 383
#     4  11  24  39  67  99 138 176 221 276 337 409
#     4  12  22  41  61  96 130 166 222 274 329 393
#     4  11  24  43  68  94 133 178 219 274 337 396
#     4  11  26  44  67  99 138 181 222 278 345 411
#     4  12  28  44  70 108 134 184 228 284 344 400
#     4  12  24  45  68 101 136 175 234 283 333 408
#
# _framework density 20.913363
#
# number of rings (size 3 to 8) (size 9 to 14) (size 15 to 20)
#    0.000    0.690    4.138    3.724    4.828    1.379 
#    0.000    2.759    0.000    0.000    0.000    0.000 
#    0.000    0.000    0.000    0.000    0.000    0.000 
#
# Total GULP energy -719019.910161 kJ/mol
# GULP energy per Si atom -12396.895003 kJ/mol
# Density = 2.086576 g / cm^3
# Si number density = 20.913363 Si / 1000 Ang^3
#
#
#
# Elastic Constant Matrix: (Units=GPa)
#
#
# Indices 1 2 3 4 5 6 
#
# 1 88.7692 35.8208 55.3269 0.0000 0.0000 0.0000
# 2 35.8208 107.2683 42.7786 0.0000 0.0000 0.0000
# 3 55.3269 42.7786 130.9278 0.0000 0.0000 0.0000
# 4 0.0000 0.0000 0.0000 31.8052 0.0000 0.0000
# 5 0.0000 0.0000 0.0000 0.0000 37.8015 0.0000
# 6 0.0000 0.0000 0.0000 0.0000 0.0000 34.2318
#
#
#
# Elastic Compliance Matrix: (Units=1/GPa)
#
#
# Indices 1 2 3 4 5 6 
#
# 1 0.016125 -0.003067 -0.005812 0.000000 0.000000 0.000000
# 2 -0.003067 0.011302 -0.002397 0.000000 0.000000 0.000000
# 3 -0.005812 -0.002397 0.010877 0.000000 0.000000 0.000000
# 4 0.000000 0.000000 0.000000 0.031441 0.000000 0.000000
# 5 0.000000 0.000000 0.000000 0.000000 0.026454 0.000000
# 6 0.000000 0.000000 0.000000 0.000000 0.000000 0.029213
#
#
# Mechanical properties :
#
#
# Convention : Reuss Voigt Hill
#
# Bulk Modulus (GPa) = 63.48040 66.09086 64.78563
# Shear Modulus (GPa) = 32.63380 33.63697 33.13539
#
# Velocity S-wave (km/s) = 3.95451 4.01483 3.98479
# Velocity P-wave (km/s) = 7.16036 7.29127 7.22611
#
# Compressibility (1/GPa) = 0.01575289
#
# Stress axis : x y z
#
# Youngs Moduli (GPa) = 62.01461 88.47624 91.93744
#
# Poissons Ratio (x) = 0.27135 0.53434
# Poissons Ratio (y) = 0.19020 0.22036
# Poissons Ratio (z) = 0.36043 0.21207
#
# Static dielectric constant tensor:
#      x y z
#    x 3.790150 0.000000 0.000000 
#    y 0.000000 3.722580 0.000000 
#    z 0.000000 0.000000 4.682610 
# 
# 
# High freq. dielectric constant tensor:
#      x y z
#    x 1.815420 0.000000 0.000000 
#    y 0.000000 1.830430 0.000000 
#    z 0.000000 0.000000 1.831570 
# 
# From -- ./inp_files/31731.got.cif
#   From: 2010.03.12/outbox.cif.g09.slc.cpg/sg72_16_cif.got.tgz:31731.got - 2010.04.16 14:54:00.
