data_PCOD8295209
_publ_section_title
;
Structure prediction by ZEFSAII (Michael W. Deem and Ramdas Pophale) SiO2 
 PCOD8295209
Probable space group: I B A M
;
_chemical_formula_sum "Si O2"
_cell_formula_units_Z 48
_cell_length_a 7.446177
_cell_length_b 15.792395
_cell_length_c 17.409630
_cell_angle_alpha 90.000000
_cell_angle_beta 90.000000
_cell_angle_gamma 90.000000
_cell_volume 2047.250071
_symmetry_space_group_name_H-M "I B A M"
_symmetry_group_IT_number 72
_symmetry_cell_setting 'orthorhombic'
loop_
_space_group_symop_operation_xyz
x,y,z
-x,-y,z
x,-y,1/2-z
-x,y,1/2-z
-x,-y,-z
x,y,-z
-x,y,1/2+z
x,-y,1/2+z
1/2+x,1/2+y,1/2+z
1/2-x,1/2-y,1/2+z
1/2+x,1/2-y,-z
1/2-x,1/2+y,-z
1/2-x,1/2-y,1/2-z
1/2+x,1/2+y,1/2-z
1/2-x,1/2+y,z
1/2+x,1/2-y,z
loop_
_atom_site_type_symbol
_atom_site_label
_atom_site_fract_x
_atom_site_fract_y
_atom_site_fract_z
Si Si1 0.406648 0.809680 0.000000
Si Si2 0.813115 0.878652 0.000000
Si Si3 0.703482 0.652160 0.843363
Si Si4 0.500000 0.776597 0.250000
Si Si5 0.000000 0.000000 0.382395
O O1 0.430482 0.707927 0.000000
O O2 0.291435 0.838749 0.073251
O O3 0.601003 0.855803 0.000000
O O4 0.870980 0.935186 0.928048
O O5 0.547511 0.721794 0.826721
O O6 0.628630 0.557964 0.831333
O O7 0.838453 0.662622 0.772641
#
# Coordination Sequence:
#
# PCOD8295209 Si02
#       5
#     8   8  16   8   8
#     4  12  23  44  74  94 124 182 231 262 320 408
#     4  11  23  39  66 103 134 165 219 283 330 378
#     4  11  24  44  70  98 132 174 223 273 326 390
#     4  10  24  47  70  95 134 182 220 260 330 408
#     4  11  24  41  62 100 140 166 214 284 332 374
#
# _framework density 23.446086000000001
#
# number of rings (size 3 to 8) (size 9 to 14) (size 15 to 20)
#    0.000    1.000    0.000    8.000    0.000    6.000 
#    0.000    3.333    0.000    2.000    0.000    0.000 
#    0.000    0.000    0.000    0.000    0.000    0.000 
#
# Total GULP energy -297525.258469 kJ/mol
# GULP energy per Si atom -12396.885770 kJ/mol
# Density = 2.339272 g / cm^3
# Si number density = 23.446086 Si / 1000 Ang^3
#
#
#
# Elastic Constant Matrix: (Units=GPa)
#
#
# Indices 1 2 3 4 5 6 
#
# 1 149.3519 96.0190 49.5637 0.0000 0.0000 0.0000
# 2 96.0190 207.2283 65.0491 0.0000 0.0000 0.0000
# 3 49.5637 65.0491 88.4870 0.0000 0.0000 0.0000
# 4 0.0000 0.0000 0.0000 20.6331 0.0000 0.0000
# 5 0.0000 0.0000 0.0000 0.0000 7.0412 0.0000
# 6 0.0000 0.0000 0.0000 0.0000 0.0000 55.2358
#
#
#
# Elastic Compliance Matrix: (Units=1/GPa)
#
#
# Indices 1 2 3 4 5 6 
#
# 1 0.010069 -0.003763 -0.002873 0.000000 0.000000 0.000000
# 2 -0.003763 0.007680 -0.003538 0.000000 0.000000 0.000000
# 3 -0.002873 -0.003538 0.015511 0.000000 0.000000 0.000000
# 4 0.000000 0.000000 0.000000 0.048466 0.000000 0.000000
# 5 0.000000 0.000000 0.000000 0.000000 0.142021 0.000000
# 6 0.000000 0.000000 0.000000 0.000000 0.000000 0.018104
#
#
# Mechanical properties :
#
#
# Convention : Reuss Voigt Hill
#
# Bulk Modulus (GPa) = 77.45265 96.25898 86.85581
# Shear Modulus (GPa) = 18.76155 32.21105 25.48630
#
# Velocity S-wave (km/s) = 2.83185 3.71055 3.30057
# Velocity P-wave (km/s) = 6.61805 7.71376 7.18682
#
# Compressibility (1/GPa) = 0.01291111
#
# Stress axis : x y z
#
# Youngs Moduli (GPa) = 99.31910 130.21104 64.47032
#
# Poissons Ratio (x) = 0.49004 0.18523
# Poissons Ratio (y) = 0.37378 0.22808
# Poissons Ratio (z) = 0.28535 0.46064
#
# Static dielectric constant tensor:
#      x y z
#    x 4.532050 0.000000 0.000000 
#    y 0.000000 4.410890 0.000000 
#    z 0.000000 0.000000 4.077600 
# 
# 
# High freq. dielectric constant tensor:
#      x y z
#    x 1.944800 0.000000 0.000000 
#    y 0.000000 1.927680 0.000000 
#    z 0.000000 0.000000 1.927530 
# 
# From -- ./inp_files/27341.got.cif
#   From: 2010.03.12/outbox.cif.g09.slc.cpg/sg72_14_cif.got.tgz:27341.got - 2010.04.16 14:54:00.
