data_PCOD8295456
_publ_section_title
;
Structure prediction by ZEFSAII (Michael W. Deem and Ramdas Pophale) SiO2 
 PCOD8295456
Probable space group: I B A M
;
_chemical_formula_sum "Si O2"
_cell_formula_units_Z 68
_cell_length_a 18.713417
_cell_length_b 7.617702
_cell_length_c 20.319968
_cell_angle_alpha 90.000000
_cell_angle_beta 90.000000
_cell_angle_gamma 90.000000
_cell_volume 2896.677155
_symmetry_space_group_name_H-M "I B A M"
_symmetry_group_IT_number 72
_symmetry_cell_setting 'orthorhombic'
loop_
_space_group_symop_operation_xyz
x,y,z
-x,-y,z
x,-y,1/2-z
-x,y,1/2-z
-x,-y,-z
x,y,-z
-x,y,1/2+z
x,-y,1/2+z
1/2+x,1/2+y,1/2+z
1/2-x,1/2-y,1/2+z
1/2+x,1/2-y,-z
1/2-x,1/2+y,-z
1/2-x,1/2-y,1/2-z
1/2+x,1/2+y,1/2-z
1/2-x,1/2+y,z
1/2+x,1/2-y,z
loop_
_atom_site_type_symbol
_atom_site_label
_atom_site_fract_x
_atom_site_fract_y
_atom_site_fract_z
Si Si1 0.157175 0.171042 0.623725
Si Si2 0.900745 0.307459 0.740476
Si Si3 0.566482 0.761875 0.000000
Si Si4 0.686127 0.722940 0.376461
Si Si5 0.907107 0.328197 0.500000
Si Si6 0.500000 0.500000 0.250000
O O1 0.123707 0.259108 0.687087
O O2 0.101511 0.176744 0.564147
O O3 0.231385 0.261318 0.603065
O O4 0.173669 0.975022 0.643112
O O5 0.937855 0.500000 0.750000
O O6 0.835287 0.332779 0.689153
O O7 0.951126 0.146492 0.711115
O O8 0.481723 0.721295 0.000000
O O9 0.578773 0.967360 0.000000
O O10 0.637318 0.782308 0.436062
#
# Coordination Sequence:
#
# PCOD8295456 Si02
#       6
#    16  16   8  16   8   4
#     4  12  25  46  71 103 140 186 239 293 354 422
#     4  12  26  46  74 107 145 186 236 292 348 421
#     4  11  26  45  68 101 139 185 236 291 361 425
#     4  12  25  46  71 103 140 186 239 293 354 422
#     4  11  26  45  68 101 139 185 236 291 361 425
#     4  12  26  48  68 112 148 184 232 282 368 414
#
# _framework density 23.475175
#
# number of rings (size 3 to 8) (size 9 to 14) (size 15 to 20)
#    0.000    0.235    2.353    6.706    3.294    1.882 
#    0.000    0.000    0.000    0.000    0.000    0.000 
#    0.000    0.000    0.000    0.000    0.000    0.000 
#
# Total GULP energy -421369.241060 kJ/mol
# GULP energy per Si atom -12393.212972 kJ/mol
# Density = 2.342174 g / cm^3
# Si number density = 23.475175 Si / 1000 Ang^3
#
#
#
# Elastic Constant Matrix: (Units=GPa)
#
#
# Indices 1 2 3 4 5 6 
#
# 1 146.9513 11.8587 57.5601 0.0000 0.0000 0.0000
# 2 11.8587 133.0877 7.9483 0.0000 0.0000 0.0000
# 3 57.5601 7.9483 162.6322 0.0000 0.0000 0.0000
# 4 0.0000 0.0000 0.0000 38.2744 0.0000 0.0000
# 5 0.0000 0.0000 0.0000 0.0000 26.1739 0.0000
# 6 0.0000 0.0000 0.0000 0.0000 0.0000 35.3142
#
#
#
# Elastic Compliance Matrix: (Units=1/GPa)
#
#
# Indices 1 2 3 4 5 6 
#
# 1 0.007939 -0.000541 -0.002783 0.000000 0.000000 0.000000
# 2 -0.000541 0.007573 -0.000179 0.000000 0.000000 0.000000
# 3 -0.002783 -0.000179 0.007143 0.000000 0.000000 0.000000
# 4 0.000000 0.000000 0.000000 0.026127 0.000000 0.000000
# 5 0.000000 0.000000 0.000000 0.000000 0.038206 0.000000
# 6 0.000000 0.000000 0.000000 0.000000 0.000000 0.028317
#
#
# Mechanical properties :
#
#
# Convention : Reuss Voigt Hill
#
# Bulk Modulus (GPa) = 63.90541 66.37838 65.14189
# Shear Modulus (GPa) = 39.20747 44.30612 41.75680
#
# Velocity S-wave (km/s) = 4.09120 4.34909 4.22212
# Velocity P-wave (km/s) = 7.04265 7.31825 7.18177
#
# Compressibility (1/GPa) = 0.01564813
#
# Stress axis : x y z
#
# Youngs Moduli (GPa) = 125.96264 132.05282 140.00365
#
# Poissons Ratio (x) = 0.07146 0.38968
# Poissons Ratio (y) = 0.06817 0.02500
# Poissons Ratio (z) = 0.35060 0.02358
#
# Static dielectric constant tensor:
#      x y z
#    x 5.072750 0.000000 0.000000 
#    y 0.000000 4.699390 0.000000 
#    z 0.000000 0.000000 4.044480 
# 
# 
# High freq. dielectric constant tensor:
#      x y z
#    x 1.943060 0.000000 0.000000 
#    y 0.000000 1.953860 0.000000 
#    z 0.000000 0.000000 1.922810 
# 
# From -- ./inp_files/38718.got.cif
#   From: 2010.03.12/outbox.cif.g09.slc.cpg/sg72_20_cif.got.tgz:38718.got - 2010.04.16 14:54:00.
