data_PCOD8295635
_publ_section_title
;
Structure prediction by ZEFSAII (Michael W. Deem and Ramdas Pophale) SiO2 
 PCOD8295635
Probable space group: I B C A 
;
_chemical_formula_sum "Si O2"
_cell_formula_units_Z 120
_cell_length_a 8.409011
_cell_length_b 29.769868
_cell_length_c 22.442051
_cell_angle_alpha 90.000000
_cell_angle_beta 90.000000
_cell_angle_gamma 90.000000
_cell_volume 5618.034147
_symmetry_space_group_name_H-M "I B C A "
_symmetry_group_IT_number 73
_symmetry_cell_setting 'orthorhombic'
loop_
_space_group_symop_operation_xyz
x,y,z
-x,1/2-y,z
x,-y,1/2-z
1/2-x,y,-z
-x,-y,-z
x,1/2+y,-z
-x,y,1/2+z
1/2+x,-y,z
1/2+x,1/2+y,1/2+z
1/2-x,-y,1/2+z
1/2+x,1/2-y,-z
-x,1/2+y,1/2-z
1/2-x,1/2-y,1/2-z
1/2+x,y,1/2-z
1/2-x,1/2+y,z
x,1/2-y,1/2+z
loop_
_atom_site_type_symbol
_atom_site_label
_atom_site_fract_x
_atom_site_fract_y
_atom_site_fract_z
Si Si1 0.132246 0.712562 0.052238
Si Si2 0.274775 0.000000 0.250000
Si Si3 0.092624 0.880892 0.304095
Si Si4 0.044413 0.562693 0.408066
Si Si5 0.933099 0.148294 0.018098
Si Si6 0.868681 0.977560 0.625233
Si Si7 0.069612 0.797458 0.374545
Si Si8 0.927849 0.418006 0.802127
O O1 0.242716 0.705059 0.109660
O O2 0.000000 0.750000 0.065236
O O3 0.250000 0.729663 0.000000
O O4 0.046093 0.665064 0.035968
O O5 0.170871 0.002579 0.309707
O O6 0.382449 0.043731 0.245471
O O7 0.985671 0.912622 0.345727
O O8 0.051631 0.829301 0.317345
O O9 0.059302 0.889201 0.234033
O O10 0.277149 0.888398 0.319686
O O11 0.933075 0.518715 0.414971
O O12 0.017983 0.597520 0.462605
O O13 0.225404 0.545540 0.409437
O O14 0.963665 0.183305 0.071431
O O15 0.750000 0.150321 0.000000
O O16 0.002496 0.939285 0.636829
O O17 0.000000 0.750000 0.355265
#
# Coordination Sequence:
#
# PCOD8295635 Si02
#       8
#    16   8  16  16  16  16  16  16
#     4  10  18  35  64  91 110 140 184 239 296 354
#     4  12  18  28  58  80 112 144 200 242 272 312
#     4  11  21  36  55  87 117 151 191 242 286 334
#     4  11  21  35  53  84 116 150 195 247 283 332
#     4  10  21  37  60  85 116 146 188 237 300 345
#     4  12  20  33  56  83 117 157 198 240 284 322
#     4  10  22  39  62  88 116 144 188 241 290 351
#     4  12  20  33  56  84 119 156 198 237 283 330
#
# _framework density 21.359786
#
# number of rings (size 3 to 8) (size 9 to 14) (size 15 to 20)
#    0.000    1.067    5.333    3.200    0.000    1.067 
#    0.000    5.333    0.000    0.000    0.000    0.000 
#    0.000    0.000    0.000    0.000    0.000    0.000 
#
# Total GULP energy -743913.343269 kJ/mol
# GULP energy per Si atom -12398.555721 kJ/mol
# Density = 2.131117 g / cm^3
# Si number density = 21.359786 Si / 1000 Ang^3
#
#
#
# Elastic Constant Matrix: (Units=GPa)
#
#
# Indices 1 2 3 4 5 6 
#
# 1 118.3994 60.7921 22.3060 0.0000 0.0000 0.0000
# 2 60.7921 156.9441 40.9626 0.0000 0.0000 0.0000
# 3 22.3060 40.9626 30.7965 -0.0003 0.0000 -0.0001
# 4 0.0000 0.0000 -0.0003 21.5261 0.0000 0.0000
# 5 0.0000 0.0000 0.0000 0.0000 14.4485 0.0000
# 6 0.0000 0.0000 -0.0001 0.0000 0.0000 19.8352
#
#
#
# Elastic Compliance Matrix: (Units=1/GPa)
#
#
# Indices 1 2 3 4 5 6 
#
# 1 0.010777 -0.003274 -0.003452 0.000000 0.000000 0.000000
# 2 -0.003274 0.010754 -0.011933 0.000000 0.000000 0.000000
# 3 -0.003452 -0.011933 0.050844 0.000001 0.000000 0.000000
# 4 0.000000 0.000000 0.000001 0.046455 0.000000 0.000000
# 5 0.000000 0.000000 0.000000 0.000000 0.069211 0.000000
# 6 0.000000 0.000000 0.000000 0.000000 0.000000 0.050415
#
#
# Mechanical properties :
#
#
# Convention : Reuss Voigt Hill
#
# Bulk Modulus (GPa) = 28.52411 61.58460 45.05435
# Shear Modulus (GPa) = 17.39371 23.30058 20.34714
#
# Velocity S-wave (km/s) = 2.85673 3.30640 3.08976
# Velocity P-wave (km/s) = 4.92588 6.59326 5.81959
#
# Compressibility (1/GPa) = 0.03505806
#
# Stress axis : x y z
#
# Youngs Moduli (GPa) = 92.78932 92.98588 19.66811
#
# Poissons Ratio (x) = 0.30440 0.06789
# Poissons Ratio (y) = 0.30376 0.23470
# Poissons Ratio (z) = 0.32028 1.10963
#
# Static dielectric constant tensor:
#      x y z
#    x 4.033980 0.000000 0.000000 
#    y 0.000000 3.957780 0.000000 
#    z 0.000000 0.000000 3.396320 
# 
# 
# High freq. dielectric constant tensor:
#      x y z
#    x 1.851210 0.000000 0.000000 
#    y 0.000000 1.837630 0.000000 
#    z 0.000000 0.000000 1.787040 
# 
# From -- ./inp_files/28594.got.cif
#   From: 2010.03.12/outbox.cif.g09.slc.cpg/sg73_15_cif.got.tgz:28594.got - 2010.04.16 15:25:48.
