data_PCOD8295268
_publ_section_title
;
Structure prediction by ZEFSAII (Michael W. Deem and Ramdas Pophale) SiO2 
 PCOD8295268
Probable space group: I B A M
;
_chemical_formula_sum "Si O2"
_cell_formula_units_Z 80
_cell_length_a 27.513303
_cell_length_b 18.010096
_cell_length_c 9.078923
_cell_angle_alpha 90.000000
_cell_angle_beta 90.000000
_cell_angle_gamma 90.000000
_cell_volume 4498.762761
_symmetry_space_group_name_H-M "I B A M"
_symmetry_group_IT_number 72
_symmetry_cell_setting 'orthorhombic'
loop_
_space_group_symop_operation_xyz
x,y,z
-x,-y,z
x,-y,1/2-z
-x,y,1/2-z
-x,-y,-z
x,y,-z
-x,y,1/2+z
x,-y,1/2+z
1/2+x,1/2+y,1/2+z
1/2-x,1/2-y,1/2+z
1/2+x,1/2-y,-z
1/2-x,1/2+y,-z
1/2-x,1/2-y,1/2-z
1/2+x,1/2+y,1/2-z
1/2-x,1/2+y,z
1/2+x,1/2-y,z
loop_
_atom_site_type_symbol
_atom_site_label
_atom_site_fract_x
_atom_site_fract_y
_atom_site_fract_z
Si Si1 0.548011 0.273026 0.328943
Si Si2 0.406870 0.425777 0.174044
Si Si3 0.149517 0.702686 0.172932
Si Si4 0.308337 0.356700 0.174392
Si Si5 0.793468 0.578681 0.824385
O O1 0.500000 0.242459 0.250000
O O2 0.537160 0.272740 0.500000
O O3 0.559629 0.356926 0.276520
O O4 0.593226 0.219633 0.292740
O O5 0.426859 0.500000 0.250000
O O6 0.351901 0.409603 0.230286
O O7 0.408262 0.436307 0.000000
O O8 0.182539 0.772170 0.226787
O O9 0.163570 0.631964 0.270105
O O10 0.157444 0.686502 0.000000
O O11 0.257459 0.387557 0.234851
O O12 0.309365 0.356475 0.000000
O O13 0.802002 0.500000 0.750000
O O14 0.794500 0.570945 0.000000
#
# Coordination Sequence:
#
# PCOD8295268 Si02
#       5
#    16  16  16  16  16
#     4   9  19  34  52  71  94 125 162 203 249 293
#     4   9  17  30  46  68  99 134 166 199 237 280
#     4   9  18  35  54  72  97 129 162 202 245 286
#     4   8  16  31  50  71  99 133 168 199 233 278
#     4  11  21  32  49  75 103 132 163 198 238 285
#
# _framework density 17.782665999999999
#
# number of rings (size 3 to 8) (size 9 to 14) (size 15 to 20)
#    0.000    2.800    0.000    4.200    0.000    2.000 
#    0.000    7.000    0.000    0.600    0.000    4.200 
#    0.000    0.000    0.000    0.000    0.000    0.000 
#
# Total GULP energy -495927.390562 kJ/mol
# GULP energy per Si atom -12398.184764 kJ/mol
# Density = 1.774219 g / cm^3
# Si number density = 17.782666 Si / 1000 Ang^3
#
#
#
# Elastic Constant Matrix: (Units=GPa)
#
#
# Indices 1 2 3 4 5 6 
#
# 1 102.2888 47.1876 37.8574 0.0000 0.0000 0.0000
# 2 47.1876 105.8785 36.7700 0.0000 0.0000 0.0000
# 3 37.8574 36.7700 47.0567 0.0000 0.0000 0.0000
# 4 0.0000 0.0000 0.0000 27.0168 0.0000 0.0000
# 5 0.0000 0.0000 0.0000 0.0000 26.8538 0.0000
# 6 0.0000 0.0000 0.0000 0.0000 0.0000 13.8912
#
#
#
# Elastic Compliance Matrix: (Units=1/GPa)
#
#
# Indices 1 2 3 4 5 6 
#
# 1 0.014746 -0.003365 -0.009234 0.000000 0.000000 0.000000
# 2 -0.003365 0.013730 -0.008021 0.000000 0.000000 0.000000
# 3 -0.009234 -0.008021 0.034947 0.000000 0.000000 0.000000
# 4 0.000000 0.000000 0.000000 0.037014 0.000000 0.000000
# 5 0.000000 0.000000 0.000000 0.000000 0.037239 0.000000
# 6 0.000000 0.000000 0.000000 0.000000 0.000000 0.071988
#
#
# Mechanical properties :
#
#
# Convention : Reuss Voigt Hill
#
# Bulk Modulus (GPa) = 45.07953 55.42821 50.25387
# Shear Modulus (GPa) = 19.35736 22.44630 20.90183
#
# Velocity S-wave (km/s) = 3.30290 3.55668 3.43214
# Velocity P-wave (km/s) = 6.32067 6.93571 6.63532
#
# Compressibility (1/GPa) = 0.02218302
#
# Stress axis : x y z
#
# Youngs Moduli (GPa) = 67.81445 72.83146 28.61440
#
# Poissons Ratio (x) = 0.24510 0.26422
# Poissons Ratio (y) = 0.22821 0.22953
# Poissons Ratio (z) = 0.62618 0.58421
#
# Static dielectric constant tensor:
#      x y z
#    x 3.382450 0.000000 0.000000 
#    y 0.000000 3.201150 0.000000 
#    z 0.000000 0.000000 2.984070 
# 
# 
# High freq. dielectric constant tensor:
#      x y z
#    x 1.683670 0.000000 0.000000 
#    y 0.000000 1.678490 0.000000 
#    z 0.000000 0.000000 1.668200 
# 
# From -- ./inp_files/4775.got.cif
#   From: 2010.03.12/outbox.cif.g09.slc.cpg/sg72_3_cif.got.tgz:4775.got - 2010.04.16 14:54:00.
