data_PCOD8295078
_publ_section_title
;
Structure prediction by ZEFSAII (Michael W. Deem and Ramdas Pophale) SiO2 
 PCOD8295078
Probable space group: I B A M
;
_chemical_formula_sum "Si O2"
_cell_formula_units_Z 72
_cell_length_a 23.637926
_cell_length_b 9.773084
_cell_length_c 16.193498
_cell_angle_alpha 90.000000
_cell_angle_beta 90.000000
_cell_angle_gamma 90.000000
_cell_volume 3740.948007
_symmetry_space_group_name_H-M "I B A M"
_symmetry_group_IT_number 72
_symmetry_cell_setting 'orthorhombic'
loop_
_space_group_symop_operation_xyz
x,y,z
-x,-y,z
x,-y,1/2-z
-x,y,1/2-z
-x,-y,-z
x,y,-z
-x,y,1/2+z
x,-y,1/2+z
1/2+x,1/2+y,1/2+z
1/2-x,1/2-y,1/2+z
1/2+x,1/2-y,-z
1/2-x,1/2+y,-z
1/2-x,1/2-y,1/2-z
1/2+x,1/2+y,1/2-z
1/2-x,1/2+y,z
1/2+x,1/2-y,z
loop_
_atom_site_type_symbol
_atom_site_label
_atom_site_fract_x
_atom_site_fract_y
_atom_site_fract_z
Si Si1 0.633216 0.500000 0.250000
Si Si2 0.297918 0.060901 0.088704
Si Si3 0.531969 0.639577 0.328817
Si Si4 0.483438 0.208254 0.500000
Si Si5 0.592863 0.944159 0.000000
Si Si6 0.270771 0.667364 0.672285
O O1 0.596364 0.606375 0.303536
O O2 0.670903 0.411791 0.312672
O O3 0.366794 0.057100 0.081648
O O4 0.279278 0.217211 0.103674
O O5 0.276640 0.947125 0.152651
O O6 0.270766 0.021862 0.000000
O O7 0.500000 0.500000 0.347251
O O8 0.500000 0.713447 0.250000
O O9 0.533018 0.719385 0.414548
O O10 0.551200 0.186441 0.500000
O O11 0.447231 0.072838 0.500000
O O12 0.250000 0.750000 0.750000
#
# Coordination Sequence:
#
# PCOD8295078 Si02
#       6
#     8  16  16   8   8  16
#     4  10  23  38  62  96 126 167 216 262 328 394
#     4  10  24  41  62  91 128 169 213 266 322 388
#     4   9  22  40  64  95 125 162 218 265 317 389
#     4  11  21  46  62  92 128 166 219 267 329 386
#     4   9  26  38  64  90 123 165 214 263 325 392
#     4  12  22  42  63  94 131 170 216 264 325 391
#
# _framework density 19.246458000000001
#
# number of rings (size 3 to 8) (size 9 to 14) (size 15 to 20)
#    0.667    1.333    2.222    1.000    9.333    0.000 
#    4.000    2.222    0.000    0.000    0.000    0.000 
#    0.000    0.000    0.000    0.000    0.000    0.000 
#
# Total GULP energy -445987.314170 kJ/mol
# GULP energy per Si atom -12388.536505 kJ/mol
# Density = 1.920265 g / cm^3
# Si number density = 19.246458 Si / 1000 Ang^3
#
#
#
# Elastic Constant Matrix: (Units=GPa)
#
#
# Indices 1 2 3 4 5 6 
#
# 1 136.5609 45.5711 45.1690 0.0000 0.0000 0.0000
# 2 45.5711 94.2433 43.0460 0.0000 0.0000 0.0000
# 3 45.1690 43.0460 120.7504 0.0000 0.0000 0.0000
# 4 0.0000 0.0000 0.0000 37.6962 0.0000 0.0000
# 5 0.0000 0.0000 0.0000 0.0000 28.4143 0.0000
# 6 0.0000 0.0000 0.0000 0.0000 0.0000 26.3091
#
#
#
# Elastic Compliance Matrix: (Units=1/GPa)
#
#
# Indices 1 2 3 4 5 6 
#
# 1 0.009203 -0.003437 -0.002217 0.000000 0.000000 0.000000
# 2 -0.003437 0.013959 -0.003690 0.000000 0.000000 0.000000
# 3 -0.002217 -0.003690 0.010426 0.000000 0.000000 0.000000
# 4 0.000000 0.000000 0.000000 0.026528 0.000000 0.000000
# 5 0.000000 0.000000 0.000000 0.000000 0.035194 0.000000
# 6 0.000000 0.000000 0.000000 0.000000 0.000000 0.038010
#
#
# Mechanical properties :
#
#
# Convention : Reuss Voigt Hill
#
# Bulk Modulus (GPa) = 67.12119 68.79187 67.95653
# Shear Modulus (GPa) = 31.85219 33.00183 32.42701
#
# Velocity S-wave (km/s) = 4.07254 4.14538 4.10912
# Velocity P-wave (km/s) = 7.55410 7.66371 7.60910
#
# Compressibility (1/GPa) = 0.01489842
#
# Stress axis : x y z
#
# Youngs Moduli (GPa) = 108.65779 71.64091 95.90996
#
# Poissons Ratio (x) = 0.24626 0.21265
# Poissons Ratio (y) = 0.37351 0.35393
# Poissons Ratio (z) = 0.24092 0.26437
#
# Static dielectric constant tensor:
#      x y z
#    x 3.886630 0.000000 0.000000 
#    y 0.000000 2.324830 0.000000 
#    z 0.000000 0.000000 3.752760 
# 
# 
# High freq. dielectric constant tensor:
#      x y z
#    x 1.753790 0.000000 0.000000 
#    y 0.000000 1.746860 0.000000 
#    z 0.000000 0.000000 1.748000 
# 
# From -- ./inp_files/33154.got.cif
#   From: 2010.03.12/outbox.cif.g09.slc.cpg/sg72_17_cif.got.tgz:33154.got - 2010.04.16 14:54:00.
