data_PCOD8295426
_publ_section_title
;
Structure prediction by ZEFSAII (Michael W. Deem and Ramdas Pophale) SiO2 
 PCOD8295426
Probable space group: I B A M
;
_chemical_formula_sum "Si O2"
_cell_formula_units_Z 64
_cell_length_a 17.910074
_cell_length_b 18.030748
_cell_length_c 9.202974
_cell_angle_alpha 90.000000
_cell_angle_beta 90.000000
_cell_angle_gamma 90.000000
_cell_volume 2971.935085
_symmetry_space_group_name_H-M "I B A M"
_symmetry_group_IT_number 72
_symmetry_cell_setting 'orthorhombic'
loop_
_space_group_symop_operation_xyz
x,y,z
-x,-y,z
x,-y,1/2-z
-x,y,1/2-z
-x,-y,-z
x,y,-z
-x,y,1/2+z
x,-y,1/2+z
1/2+x,1/2+y,1/2+z
1/2-x,1/2-y,1/2+z
1/2+x,1/2-y,-z
1/2-x,1/2+y,-z
1/2-x,1/2-y,1/2-z
1/2+x,1/2+y,1/2-z
1/2-x,1/2+y,z
1/2+x,1/2-y,z
loop_
_atom_site_type_symbol
_atom_site_label
_atom_site_fract_x
_atom_site_fract_y
_atom_site_fract_z
Si Si1 0.159883 0.340695 0.250022
Si Si2 0.435711 0.894189 0.000000
Si Si3 0.106766 0.436070 0.500000
Si Si4 0.175328 0.823193 0.841649
Si Si5 0.923244 0.074006 0.327404
O O1 0.153179 0.409437 0.360476
O O2 0.156732 0.263592 0.335644
O O3 0.237567 0.342949 0.164531
O O4 0.090776 0.348025 0.139604
O O5 0.524779 0.899165 0.000000
O O6 0.398025 0.975423 0.000000
O O7 0.135430 0.861595 0.705319
O O8 0.146740 0.851194 0.000000
O O9 0.933291 0.063412 0.500000
O O10 0.000000 0.096614 0.250000
O O11 0.892639 0.000000 0.250000
#
# Coordination Sequence:
#
# PCOD8295426 Si02
#       5
#    16   8   8  16  16
#     4  11  24  43  68  94 134 173 218 277 336 392
#     4  11  24  43  66  98 136 177 222 275 334 404
#     4  11  24  43  66  98 136 177 222 275 334 404
#     4  11  24  44  67  96 134 175 224 276 331 397
#     4  11  24  43  68  97 135 171 216 272 331 395
#
# _framework density 21.534790000000001
#
# number of rings (size 3 to 8) (size 9 to 14) (size 15 to 20)
#    0.000    1.000    2.500    4.500    3.500    6.000 
#    0.000    0.000    0.000    0.000    0.000    0.000 
#    0.000    0.000    0.000    0.000    0.000    0.000 
#
# Total GULP energy -396821.065510 kJ/mol
# GULP energy per Si atom -12400.658297 kJ/mol
# Density = 2.148578 g / cm^3
# Si number density = 21.534790 Si / 1000 Ang^3
#
#
#
# Elastic Constant Matrix: (Units=GPa)
#
#
# Indices 1 2 3 4 5 6 
#
# 1 55.4912 52.2084 33.4879 0.0000 0.0000 0.0000
# 2 52.2084 68.8689 25.0829 0.0000 0.0000 0.0000
# 3 33.4879 25.0829 163.5633 0.0000 0.0000 0.0000
# 4 0.0000 0.0000 0.0000 19.7802 0.0000 0.0000
# 5 0.0000 0.0000 0.0000 0.0000 19.9072 0.0000
# 6 0.0000 0.0000 0.0000 0.0000 0.0000 41.1547
#
#
#
# Elastic Compliance Matrix: (Units=1/GPa)
#
#
# Indices 1 2 3 4 5 6 
#
# 1 0.068698 -0.049734 -0.006438 0.000000 0.000000 0.000000
# 2 -0.049734 0.051384 0.002303 0.000000 0.000000 0.000000
# 3 -0.006438 0.002303 0.007079 0.000000 0.000000 0.000000
# 4 0.000000 0.000000 0.000000 0.050555 0.000000 0.000000
# 5 0.000000 0.000000 0.000000 0.000000 0.050233 0.000000
# 6 0.000000 0.000000 0.000000 0.000000 0.000000 0.024299
#
#
# Mechanical properties :
#
#
# Convention : Reuss Voigt Hill
#
# Bulk Modulus (GPa) = 51.48870 56.60908 54.04889
# Shear Modulus (GPa) = 13.64397 27.97803 20.81100
#
# Velocity S-wave (km/s) = 2.51983 3.60835 3.11205
# Velocity P-wave (km/s) = 5.69451 6.61095 6.16977
#
# Compressibility (1/GPa) = 0.01942174
#
# Stress axis : x y z
#
# Youngs Moduli (GPa) = 14.55642 19.46118 141.26441
#
# Poissons Ratio (x) = 0.96788 0.90951
# Poissons Ratio (y) = 0.72395 -0.32528
# Poissons Ratio (z) = 0.09372 -0.04481
#
# Static dielectric constant tensor:
#      x y z
#    x 3.768650 0.000000 0.000000 
#    y 0.000000 3.819200 0.000000 
#    z 0.000000 0.000000 4.050420 
# 
# 
# High freq. dielectric constant tensor:
#      x y z
#    x 1.840920 0.000000 0.000000 
#    y 0.000000 1.843350 0.000000 
#    z 0.000000 0.000000 1.864110 
# 
# From -- ./inp_files/4353.got.cif
#   From: 2010.03.12/outbox.cif.g09.slc.cpg/sg72_3_cif.got.tgz:4353.got - 2010.04.16 14:54:00.
