data_PCOD8295175
_publ_section_title
;
Structure prediction by ZEFSAII (Michael W. Deem and Ramdas Pophale) SiO2 
 PCOD8295175
Probable space group: I B A M
;
_chemical_formula_sum "Si O2"
_cell_formula_units_Z 88
_cell_length_a 9.834506
_cell_length_b 29.255624
_cell_length_c 14.536965
_cell_angle_alpha 90.000000
_cell_angle_beta 90.000000
_cell_angle_gamma 90.000000
_cell_volume 4182.497212
_symmetry_space_group_name_H-M "I B A M"
_symmetry_group_IT_number 72
_symmetry_cell_setting 'orthorhombic'
loop_
_space_group_symop_operation_xyz
x,y,z
-x,-y,z
x,-y,1/2-z
-x,y,1/2-z
-x,-y,-z
x,y,-z
-x,y,1/2+z
x,-y,1/2+z
1/2+x,1/2+y,1/2+z
1/2-x,1/2-y,1/2+z
1/2+x,1/2-y,-z
1/2-x,1/2+y,-z
1/2-x,1/2-y,1/2-z
1/2+x,1/2+y,1/2-z
1/2-x,1/2+y,z
1/2+x,1/2-y,z
loop_
_atom_site_type_symbol
_atom_site_label
_atom_site_fract_x
_atom_site_fract_y
_atom_site_fract_z
Si Si1 0.000000 0.664073 0.750000
Si Si2 0.620780 0.437537 0.897110
Si Si3 0.123643 0.805589 0.893111
Si Si4 0.729288 0.385701 0.268227
Si Si5 0.591784 0.233684 0.105544
Si Si6 0.692004 0.536494 0.102311
O O1 0.869522 0.633627 0.731432
O O2 0.983204 0.693894 0.840691
O O3 0.643991 0.397999 0.822676
O O4 0.465003 0.450649 0.892987
O O5 0.708900 0.482915 0.872306
O O6 0.658514 0.420099 0.000000
O O7 0.144267 0.850041 0.830512
O O8 0.245552 0.768325 0.875161
O O9 0.978734 0.782104 0.866587
O O10 0.125037 0.821134 0.000000
O O11 0.769135 0.430818 0.326559
O O12 0.558835 0.223966 0.000000
O O13 0.749923 0.545188 0.000000
#
# Coordination Sequence:
#
# PCOD8295175 Si02
#       6
#     8  16  16  16  16  16
#     4  10  24  38  53  78 114 154 187 220 276 336
#     4   9  19  36  57  83 114 145 179 226 282 334
#     4   9  19  37  60  82 109 147 192 233 279 333
#     4  11  20  34  56  83 113 144 184 231 271 324
#     4   9  19  39  59  77 108 151 189 233 285 332
#     4   9  18  36  59  82 112 145 180 226 284 334
#
# _framework density 21.040061000000001
#
# number of rings (size 3 to 8) (size 9 to 14) (size 15 to 20)
#    0.000    2.545    0.000    2.727    0.000    5.818 
#    9.818    1.818    0.000    2.182    0.000    0.000 
#    0.000    0.000    0.000    0.000    0.000    0.000 
#
# Total GULP energy -545424.467578 kJ/mol
# GULP energy per Si atom -12396.010627 kJ/mol
# Density = 2.099217 g / cm^3
# Si number density = 21.040061 Si / 1000 Ang^3
#
#
#
# Elastic Constant Matrix: (Units=GPa)
#
#
# Indices 1 2 3 4 5 6 
#
# 1 29.0783 26.0272 18.0803 0.0001 0.0000 0.0000
# 2 26.0272 90.3458 52.1150 0.0000 -0.0001 0.0000
# 3 18.0803 52.1150 94.4456 0.0001 -0.0002 -0.0001
# 4 0.0001 0.0000 0.0001 38.4111 -0.0002 -0.0001
# 5 0.0000 -0.0001 -0.0002 -0.0002 23.4138 0.0000
# 6 0.0000 0.0000 -0.0001 -0.0001 0.0000 28.5837
#
#
#
# Elastic Compliance Matrix: (Units=1/GPa)
#
#
# Indices 1 2 3 4 5 6 
#
# 1 0.046654 -0.012158 -0.002222 0.000000 0.000000 0.000000
# 2 -0.012158 0.019405 -0.008380 0.000000 0.000000 0.000000
# 3 -0.002222 -0.008380 0.015638 0.000000 0.000000 0.000000
# 4 0.000000 0.000000 0.000000 0.026034 0.000000 0.000000
# 5 0.000000 0.000000 0.000000 0.000000 0.042710 0.000000
# 6 0.000000 0.000000 0.000000 0.000000 0.000000 0.034985
#
#
# Mechanical properties :
#
#
# Convention : Reuss Voigt Hill
#
# Bulk Modulus (GPa) = 27.64313 45.14607 36.39460
# Shear Modulus (GPa) = 20.57555 25.92486 23.25021
#
# Velocity S-wave (km/s) = 3.13057 3.51403 3.32783
# Velocity P-wave (km/s) = 5.12193 6.16184 5.66579
#
# Compressibility (1/GPa) = 0.03617536
#
# Stress axis : x y z
#
# Youngs Moduli (GPa) = 21.43426 51.53227 63.94776
#
# Poissons Ratio (x) = 0.62655 0.14211
# Poissons Ratio (y) = 0.26061 0.53590
# Poissons Ratio (z) = 0.04763 0.43186
#
# Static dielectric constant tensor:
#      x y z
#    x 3.670500 0.000000 0.000000 
#    y 0.000000 4.152480 0.000000 
#    z 0.000000 0.000000 4.099200 
# 
# 
# High freq. dielectric constant tensor:
#      x y z
#    x 1.789690 0.000000 0.000000 
#    y 0.000000 1.822450 0.000000 
#    z 0.000000 0.000000 1.840140 
# 
# From -- ./inp_files/20318.got.cif
#   From: 2010.03.12/outbox.cif.g09.slc.cpg/sg72_11_cif.got.tgz:20318.got - 2010.04.16 14:54:00.
