data_PCOD8295974
_publ_section_title
;
Structure prediction by ZEFSAII (Michael W. Deem and Ramdas Pophale) SiO2 
 PCOD8295974
Probable space group: I B C A 
;
_chemical_formula_sum "Si O2"
_cell_formula_units_Z 112
_cell_length_a 13.723736
_cell_length_b 11.799949
_cell_length_c 31.358446
_cell_angle_alpha 90.000000
_cell_angle_beta 90.000000
_cell_angle_gamma 90.000000
_cell_volume 5078.167456
_symmetry_space_group_name_H-M "I B C A "
_symmetry_group_IT_number 73
_symmetry_cell_setting 'orthorhombic'
loop_
_space_group_symop_operation_xyz
x,y,z
-x,1/2-y,z
x,-y,1/2-z
1/2-x,y,-z
-x,-y,-z
x,1/2+y,-z
-x,y,1/2+z
1/2+x,-y,z
1/2+x,1/2+y,1/2+z
1/2-x,-y,1/2+z
1/2+x,1/2-y,-z
-x,1/2+y,1/2-z
1/2-x,1/2-y,1/2-z
1/2+x,y,1/2-z
1/2-x,1/2+y,z
x,1/2-y,1/2+z
loop_
_atom_site_type_symbol
_atom_site_label
_atom_site_fract_x
_atom_site_fract_y
_atom_site_fract_z
Si Si1 0.340301 0.747521 0.127513
Si Si2 0.381952 0.000000 0.250000
Si Si3 0.978120 0.375023 0.306331
Si Si4 0.495482 0.436016 0.874798
Si Si5 0.258236 0.332581 0.209710
Si Si6 0.000000 0.250000 0.497942
Si Si7 0.315226 0.842829 0.539471
Si Si8 0.436750 0.037198 0.539915
O O1 0.414419 0.645510 0.136523
O O2 0.395856 0.865938 0.121668
O O3 0.265579 0.761023 0.166748
O O4 0.281051 0.715529 0.083724
O O5 0.450804 0.897718 0.266348
O O6 0.314425 0.939515 0.214419
O O7 0.010937 0.471232 0.338538
O O8 0.865582 0.385316 0.293456
O O9 0.000000 0.250000 0.324554
O O10 0.505453 0.506330 0.917762
O O11 0.250000 0.250000 0.250000
O O12 0.072013 0.311080 0.531059
O O13 0.066489 0.172762 0.466402
O O14 0.250000 0.804008 0.500000
O O15 0.327317 0.980864 0.541862
O O16 0.500000 0.000000 0.500000
#
# Coordination Sequence:
#
# PCOD8295974 Si02
#       8
#    16   8  16  16  16   8  16  16
#     4  10  22  44  70  98 134 187 235 283 353 419
#     4  12  26  50  72 100 138 186 228 300 352 422
#     4  12  27  44  69 105 140 180 236 289 360 421
#     4  10  22  42  70  97 137 183 233 286 349 419
#     4  12  27  46  71 101 139 181 236 290 351 428
#     4  10  20  38  66  94 134 182 228 278 342 412
#     4  10  21  40  67 100 136 179 234 286 345 418
#     4   9  19  38  60  94 130 179 223 278 339 406
#
# _framework density 22.055199999999999
#
# number of rings (size 3 to 8) (size 9 to 14) (size 15 to 20)
#    0.000    1.429    2.857    3.000    5.000    1.714 
#    2.571    4.286    0.000    0.000    0.000    0.000 
#    0.000    0.000    0.000    0.000    0.000    0.000 
#
# Total GULP energy -694067.353882 kJ/mol
# GULP energy per Si atom -12394.059891 kJ/mol
# Density = 2.200500 g / cm^3
# Si number density = 22.055200 Si / 1000 Ang^3
#
#
#
# Elastic Constant Matrix: (Units=GPa)
#
#
# Indices 1 2 3 4 5 6 
#
# 1 89.8319 15.4484 40.9077 0.0000 0.0000 0.0000
# 2 15.4484 101.8193 36.9306 0.0000 0.0000 0.0000
# 3 40.9077 36.9306 133.5138 0.0000 0.0000 0.0000
# 4 0.0000 0.0000 0.0000 31.8099 0.0000 0.0000
# 5 0.0000 0.0000 0.0000 0.0000 34.7386 0.0000
# 6 0.0000 0.0000 0.0000 0.0000 0.0000 25.4385
#
#
#
# Elastic Compliance Matrix: (Units=1/GPa)
#
#
# Indices 1 2 3 4 5 6 
#
# 1 0.012968 -0.000585 -0.003812 0.000000 0.000000 0.000000
# 2 -0.000585 0.010943 -0.002848 0.000000 0.000000 0.000000
# 3 -0.003812 -0.002848 0.009445 0.000000 0.000000 0.000000
# 4 0.000000 0.000000 0.000000 0.031437 0.000000 0.000000
# 5 0.000000 0.000000 0.000000 0.000000 0.028786 0.000000
# 6 0.000000 0.000000 0.000000 0.000000 0.000000 0.039310
#
#
# Mechanical properties :
#
#
# Convention : Reuss Voigt Hill
#
# Bulk Modulus (GPa) = 52.99974 56.85985 54.92979
# Shear Modulus (GPa) = 32.53769 33.85596 33.19682
#
# Velocity S-wave (km/s) = 3.84511 3.92223 3.88386
# Velocity P-wave (km/s) = 6.61784 6.80797 6.71358
#
# Compressibility (1/GPa) = 0.01886802
#
# Stress axis : x y z
#
# Youngs Moduli (GPa) = 77.11159 91.38313 105.87223
#
# Poissons Ratio (x) = 0.05347 0.40354
# Poissons Ratio (y) = 0.04512 0.30148
# Poissons Ratio (z) = 0.29391 0.26022
#
# Static dielectric constant tensor:
#      x y z
#    x 3.759920 0.000000 0.000000 
#    y 0.000000 4.473670 0.000000 
#    z 0.000000 0.000000 3.873780 
# 
# 
# High freq. dielectric constant tensor:
#      x y z
#    x 1.850090 0.000000 0.000000 
#    y 0.000000 1.880540 0.000000 
#    z 0.000000 0.000000 1.870440 
# 
# From -- ./inp_files/34337.got.cif
#   From: 2010.03.12/outbox.cif.g09.slc.cpg/sg73_18_cif.got.tgz:34337.got - 2010.04.16 15:25:48.
