data_PCOD8295541
_publ_section_title
;
Structure prediction by ZEFSAII (Michael W. Deem and Ramdas Pophale) SiO2 
 PCOD8295541
Probable space group: I B C A 
;
_chemical_formula_sum "Si O2"
_cell_formula_units_Z 120
_cell_length_a 16.174957
_cell_length_b 18.749144
_cell_length_c 19.043392
_cell_angle_alpha 90.000000
_cell_angle_beta 90.000000
_cell_angle_gamma 90.000000
_cell_volume 5775.224706
_symmetry_space_group_name_H-M "I B C A "
_symmetry_group_IT_number 73
_symmetry_cell_setting 'orthorhombic'
loop_
_space_group_symop_operation_xyz
x,y,z
-x,1/2-y,z
x,-y,1/2-z
1/2-x,y,-z
-x,-y,-z
x,1/2+y,-z
-x,y,1/2+z
1/2+x,-y,z
1/2+x,1/2+y,1/2+z
1/2-x,-y,1/2+z
1/2+x,1/2-y,-z
-x,1/2+y,1/2-z
1/2-x,1/2-y,1/2-z
1/2+x,y,1/2-z
1/2-x,1/2+y,z
x,1/2-y,1/2+z
loop_
_atom_site_type_symbol
_atom_site_label
_atom_site_fract_x
_atom_site_fract_y
_atom_site_fract_z
Si Si1 0.372446 0.162922 0.012264
Si Si2 0.798038 0.076414 0.278359
Si Si3 0.666159 0.921188 0.530966
Si Si4 0.777017 0.324452 0.116954
Si Si5 0.429090 0.956750 0.393056
Si Si6 0.913037 0.884886 0.612068
Si Si7 0.238391 0.663645 0.348868
Si Si8 0.000000 0.250000 0.920179
O O1 0.290174 0.166025 0.057262
O O2 0.421229 0.092611 0.037427
O O3 0.423018 0.233498 0.030052
O O4 0.361226 0.164996 0.927563
O O5 0.726701 0.112024 0.326266
O O6 0.881200 0.070008 0.323868
O O7 0.815924 0.129448 0.213397
O O8 0.767199 0.000000 0.250000
O O9 0.750000 0.960970 0.500000
O O10 0.610827 0.889805 0.469522
O O11 0.699192 0.854572 0.575998
O O12 0.609606 0.968434 0.582826
O O13 0.763962 0.249268 0.157128
O O14 0.527781 0.954403 0.371820
O O15 0.830295 0.872964 0.658167
O O16 0.973058 0.817193 0.627305
#
# Coordination Sequence:
#
# PCOD8295541 Si02
#       8
#    16  16  16  16  16  16  16   8
#     4   9  19  31  61  88 120 147 196 247 311 354
#     4  11  23  40  59  82 118 171 204 243 293 365
#     4  10  21  34  62  93 121 149 203 252 303 358
#     4  10  20  35  59  88 117 154 202 253 297 354
#     4  10  21  38  59  86 122 163 196 247 311 362
#     4  10  21  35  60  90 115 158 194 254 308 362
#     4  11  21  38  62  90 120 154 211 248 296 365
#     4  10  16  34  54  88 124 146 182 244 324 352
#
# _framework density 20.778411999999999
#
# number of rings (size 3 to 8) (size 9 to 14) (size 15 to 20)
#    0.000    1.867    2.667    1.600    7.467    0.000 
#    0.000    0.667    8.800    0.000    0.000    0.000 
#    0.000    0.000    0.000    0.000    0.000    0.000 
#
# Total GULP energy -743306.329164 kJ/mol
# GULP energy per Si atom -12388.438819 kJ/mol
# Density = 2.073112 g / cm^3
# Si number density = 20.778412 Si / 1000 Ang^3
#
#
#
# Elastic Constant Matrix: (Units=GPa)
#
#
# Indices 1 2 3 4 5 6 
#
# 1 58.8384 22.5878 13.5743 0.0000 0.0000 0.0000
# 2 22.5878 92.3302 27.7309 0.0000 0.0000 0.0000
# 3 13.5743 27.7309 89.6559 0.0000 0.0000 0.0000
# 4 0.0000 0.0000 0.0000 56.8068 0.0000 0.0000
# 5 0.0000 0.0000 0.0000 0.0000 17.5157 0.0000
# 6 0.0000 0.0000 0.0000 0.0000 0.0000 22.2884
#
#
#
# Elastic Compliance Matrix: (Units=1/GPa)
#
#
# Indices 1 2 3 4 5 6 
#
# 1 0.018959 -0.004163 -0.001583 0.000000 0.000000 0.000000
# 2 -0.004163 0.012854 -0.003345 0.000000 0.000000 0.000000
# 3 -0.001583 -0.003345 0.012428 0.000000 0.000000 0.000000
# 4 0.000000 0.000000 0.000000 0.017604 0.000000 0.000000
# 5 0.000000 0.000000 0.000000 0.000000 0.057092 0.000000
# 6 0.000000 0.000000 0.000000 0.000000 0.000000 0.044866
#
#
# Mechanical properties :
#
#
# Convention : Reuss Voigt Hill
#
# Bulk Modulus (GPa) = 38.37488 40.95672 39.66580
# Shear Modulus (GPa) = 26.22314 31.11760 28.67037
#
# Velocity S-wave (km/s) = 3.55637 3.87407 3.71862
# Velocity P-wave (km/s) = 5.94747 6.30597 6.12934
#
# Compressibility (1/GPa) = 0.02605872
#
# Stress axis : x y z
#
# Youngs Moduli (GPa) = 52.74556 77.79755 80.46220
#
# Poissons Ratio (x) = 0.32385 0.12737
# Poissons Ratio (y) = 0.21957 0.26919
# Poissons Ratio (z) = 0.08349 0.26027
#
# Static dielectric constant tensor:
#      x y z
#    x 3.954300 0.000000 0.000000 
#    y 0.000000 3.671880 0.000000 
#    z 0.000000 0.000000 3.820250 
# 
# 
# High freq. dielectric constant tensor:
#      x y z
#    x 1.801390 0.000000 0.000000 
#    y 0.000000 1.808140 0.000000 
#    z 0.000000 0.000000 1.796240 
# 
# From -- ./inp_files/26674.got.cif
#   From: 2010.03.12/outbox.cif.g09.slc.cpg/sg73_14_cif.got.tgz:26674.got - 2010.04.16 15:25:48.
