data_PCOD8295529
_publ_section_title
;
Structure prediction by ZEFSAII (Michael W. Deem and Ramdas Pophale) SiO2 
 PCOD8295529
Probable space group: I B C A 
;
_chemical_formula_sum "Si O2"
_cell_formula_units_Z 112
_cell_length_a 16.678996
_cell_length_b 17.678515
_cell_length_c 22.131601
_cell_angle_alpha 90.000000
_cell_angle_beta 90.000000
_cell_angle_gamma 90.000000
_cell_volume 6525.721237
_symmetry_space_group_name_H-M "I B C A "
_symmetry_group_IT_number 73
_symmetry_cell_setting 'orthorhombic'
loop_
_space_group_symop_operation_xyz
x,y,z
-x,1/2-y,z
x,-y,1/2-z
1/2-x,y,-z
-x,-y,-z
x,1/2+y,-z
-x,y,1/2+z
1/2+x,-y,z
1/2+x,1/2+y,1/2+z
1/2-x,-y,1/2+z
1/2+x,1/2-y,-z
-x,1/2+y,1/2-z
1/2-x,1/2-y,1/2-z
1/2+x,y,1/2-z
1/2-x,1/2+y,z
x,1/2-y,1/2+z
loop_
_atom_site_type_symbol
_atom_site_label
_atom_site_fract_x
_atom_site_fract_y
_atom_site_fract_z
Si Si1 0.297574 0.535060 0.941058
Si Si2 0.000000 0.750000 0.982624
Si Si3 0.822338 0.095364 0.651845
Si Si4 0.262726 0.000000 0.250000
Si Si5 0.534186 0.401742 0.027213
Si Si6 0.590601 0.247765 0.866344
Si Si7 0.976738 0.472239 0.101141
Si Si8 0.135583 0.919897 0.850508
O O1 0.248816 0.591045 0.896957
O O2 0.372538 0.584058 0.962728
O O3 0.322126 0.456337 0.909303
O O4 0.250000 0.509744 0.000000
O O5 0.920762 0.749709 0.939368
O O6 0.991113 0.815720 0.031319
O O7 0.856829 0.180795 0.656900
O O8 0.890637 0.038371 0.629721
O O9 0.791860 0.061857 0.715430
O O10 0.319836 0.049604 0.292004
O O11 0.483920 0.440925 0.080810
O O12 0.507795 0.424288 0.959512
O O13 0.500000 0.250000 0.837172
O O14 0.638354 0.171395 0.849465
O O15 0.043042 0.446958 0.150015
#
# Coordination Sequence:
#
# PCOD8295529 Si02
#       8
#    16   8  16   8  16  16  16  16
#     4  10  19  32  53  81 120 145 172 219 281 334
#     4  10  16  30  50  86 114 138 188 218 262 332
#     4  11  20  38  56  82 110 144 189 226 277 331
#     4  10  26  38  54  80 108 146 188 234 284 326
#     4  10  18  29  53  82 111 146 174 221 270 322
#     4  10  18  33  58  79 102 139 185 232 264 318
#     4  10  17  32  56  78 102 143 185 216 259 330
#     4  10  20  37  55  80 105 142 189 227 272 322
#
# _framework density 17.162853999999999
#
# number of rings (size 3 to 8) (size 9 to 14) (size 15 to 20)
#    0.429    1.429    5.714    0.000    0.000    1.143 
#    0.000    5.000    0.000    1.714    0.000    0.000 
#    0.000    0.000    0.000    0.000    0.000    0.000 
#
# Total GULP energy -694010.628496 kJ/mol
# GULP energy per Si atom -12393.046937 kJ/mol
# Density = 1.712379 g / cm^3
# Si number density = 17.162854 Si / 1000 Ang^3
#
#
#
# Elastic Constant Matrix: (Units=GPa)
#
#
# Indices 1 2 3 4 5 6 
#
# 1 76.6209 61.3104 31.4535 0.0000 0.0000 0.0000
# 2 61.3104 160.4410 51.9388 0.0000 0.0000 0.0000
# 3 31.4535 51.9388 70.9937 0.0000 0.0000 0.0000
# 4 0.0000 0.0000 0.0000 20.7967 0.0000 0.0000
# 5 0.0000 0.0000 0.0000 0.0000 29.7998 0.0000
# 6 0.0000 0.0000 0.0000 0.0000 0.0000 27.3626
#
#
#
# Elastic Compliance Matrix: (Units=1/GPa)
#
#
# Indices 1 2 3 4 5 6 
#
# 1 0.019722 -0.006169 -0.004225 0.000000 0.000000 0.000000
# 2 -0.006169 0.010097 -0.004654 0.000000 0.000000 0.000000
# 3 -0.004225 -0.004654 0.019362 0.000000 0.000000 0.000000
# 4 0.000000 0.000000 0.000000 0.048085 0.000000 0.000000
# 5 0.000000 0.000000 0.000000 0.000000 0.033557 0.000000
# 6 0.000000 0.000000 0.000000 0.000000 0.000000 0.036546
#
#
# Mechanical properties :
#
#
# Convention : Reuss Voigt Hill
#
# Bulk Modulus (GPa) = 52.39333 66.38454 59.38894
# Shear Modulus (GPa) = 24.53094 26.48202 25.50648
#
# Velocity S-wave (km/s) = 3.78472 3.93235 3.85924
# Velocity P-wave (km/s) = 7.04927 7.70590 7.38489
#
# Compressibility (1/GPa) = 0.01908640
#
# Stress axis : x y z
#
# Youngs Moduli (GPa) = 50.70590 99.04304 51.64756
#
# Poissons Ratio (x) = 0.61097 0.21819
# Poissons Ratio (y) = 0.31279 0.24035
# Poissons Ratio (z) = 0.21421 0.46091
#
# Static dielectric constant tensor:
#      x y z
#    x 3.280220 0.000000 0.000000 
#    y 0.000000 3.283030 0.000000 
#    z 0.000000 0.000000 3.102330 
# 
# 
# High freq. dielectric constant tensor:
#      x y z
#    x 1.665250 0.000000 0.000000 
#    y 0.000000 1.660030 0.000000 
#    z 0.000000 0.000000 1.638780 
# 
# From -- ./inp_files/26641.got.cif
#   From: 2010.03.12/outbox.cif.g09.slc.cpg/sg73_14_cif.got.tgz:26641.got - 2010.04.16 15:25:48.
