data_PCOD8295496
_publ_section_title
;
Structure prediction by ZEFSAII (Michael W. Deem and Ramdas Pophale) SiO2 
 PCOD8295496
Probable space group: I B A M
;
_chemical_formula_sum "Si O2"
_cell_formula_units_Z 60
_cell_length_a 25.894625
_cell_length_b 5.376406
_cell_length_c 18.298303
_cell_angle_alpha 90.000000
_cell_angle_beta 90.000000
_cell_angle_gamma 90.000000
_cell_volume 2547.490059
_symmetry_space_group_name_H-M "I B A M"
_symmetry_group_IT_number 72
_symmetry_cell_setting 'orthorhombic'
loop_
_space_group_symop_operation_xyz
x,y,z
-x,-y,z
x,-y,1/2-z
-x,y,1/2-z
-x,-y,-z
x,y,-z
-x,y,1/2+z
x,-y,1/2+z
1/2+x,1/2+y,1/2+z
1/2-x,1/2-y,1/2+z
1/2+x,1/2-y,-z
1/2-x,1/2+y,-z
1/2-x,1/2-y,1/2-z
1/2+x,1/2+y,1/2-z
1/2-x,1/2+y,z
1/2+x,1/2-y,z
loop_
_atom_site_type_symbol
_atom_site_label
_atom_site_fract_x
_atom_site_fract_y
_atom_site_fract_z
Si Si1 0.000000 0.500000 0.250000
Si Si2 0.397617 0.800556 0.500000
Si Si3 0.948127 0.157031 0.856420
Si Si4 0.832639 0.202899 0.500000
Si Si5 0.362756 0.500000 0.250000
Si Si6 0.781918 0.753428 0.157080
O O1 0.959002 0.357917 0.203337
O O2 0.435244 0.787737 0.431564
O O3 0.358165 0.570430 0.500000
O O4 0.373308 0.072809 0.500000
O O5 0.897370 0.028754 0.823132
O O6 0.000000 0.000000 0.866883
O O7 0.799441 0.228844 0.427025
O O8 0.326336 0.276768 0.280344
O O9 0.756806 0.484662 0.169719
#
# Coordination Sequence:
#
# PCOD8295496 Si02
#       6
#     4   8  16   8   8  16
#     4  12  26  42  82 106 152 208 254 312 386 450
#     4  12  29  48  82 112 154 206 258 309 383 466
#     4  12  27  51  74 117 155 208 254 323 386 465
#     4  12  26  51  78 110 148 208 251 319 387 457
#     4  12  25  48  77 110 158 193 265 314 396 462
#     4  12  27  49  77 111 151 199 256 320 388 462
#
# _framework density 23.552595
#
# number of rings (size 3 to 8) (size 9 to 14) (size 15 to 20)
#    0.000    0.000    5.333    3.600    7.467    0.533 
#    0.000    0.000    0.000    0.000    0.000    0.000 
#    0.000    0.000    0.000    0.000    0.000    0.000 
#
# Total GULP energy -371650.976157 kJ/mol
# GULP energy per Si atom -12388.365872 kJ/mol
# Density = 2.349899 g / cm^3
# Si number density = 23.552595 Si / 1000 Ang^3
#
#
#
# Elastic Constant Matrix: (Units=GPa)
#
#
# Indices 1 2 3 4 5 6 
#
# 1 113.7085 17.9050 41.8863 0.0000 0.0000 0.0000
# 2 17.9050 68.3578 -7.4263 0.0000 0.0000 0.0000
# 3 41.8863 -7.4263 136.0822 0.0000 0.0000 0.0000
# 4 0.0000 0.0000 0.0000 26.5436 0.0000 0.0000
# 5 0.0000 0.0000 0.0000 0.0000 58.9682 0.0000
# 6 0.0000 0.0000 0.0000 0.0000 0.0000 49.7241
#
#
#
# Elastic Compliance Matrix: (Units=1/GPa)
#
#
# Indices 1 2 3 4 5 6 
#
# 1 0.010547 -0.003134 -0.003417 0.000000 0.000000 0.000000
# 2 -0.003134 0.015647 0.001818 0.000000 0.000000 0.000000
# 3 -0.003417 0.001818 0.008500 0.000000 0.000000 0.000000
# 4 0.000000 0.000000 0.000000 0.037674 0.000000 0.000000
# 5 0.000000 0.000000 0.000000 0.000000 0.016958 0.000000
# 6 0.000000 0.000000 0.000000 0.000000 0.000000 0.020111
#
#
# Mechanical properties :
#
#
# Convention : Reuss Voigt Hill
#
# Bulk Modulus (GPa) = 39.63785 46.98651 43.31218
# Shear Modulus (GPa) = 39.27382 44.76607 42.01994
#
# Velocity S-wave (km/s) = 4.08793 4.36441 4.22843
# Velocity P-wave (km/s) = 6.25680 6.73724 6.50146
#
# Compressibility (1/GPa) = 0.02522841
#
# Stress axis : x y z
#
# Youngs Moduli (GPa) = 94.81654 63.90886 117.65276
#
# Poissons Ratio (x) = 0.20027 0.40205
# Poissons Ratio (y) = 0.29713 -0.21395
# Poissons Ratio (z) = 0.32402 -0.11622
#
# Static dielectric constant tensor:
#      x y z
#    x 4.417350 0.000000 0.000000 
#    y 0.000000 4.048360 0.000000 
#    z 0.000000 0.000000 4.774080 
# 
# 
# High freq. dielectric constant tensor:
#      x y z
#    x 1.950610 0.000000 0.000000 
#    y 0.000000 1.929950 0.000000 
#    z 0.000000 0.000000 1.968500 
# 
# From -- ./inp_files/33679.got.cif
#   From: 2010.03.12/outbox.cif.g09.slc.cpg/sg72_17_cif.got.tgz:33679.got - 2010.04.16 14:54:00.
