data_PCOD8295911
_publ_section_title
;
Structure prediction by ZEFSAII (Michael W. Deem and Ramdas Pophale) SiO2 
 PCOD8295911
Probable space group: I B C A 
;
_chemical_formula_sum "Si O2"
_cell_formula_units_Z 64
_cell_length_a 8.670992
_cell_length_b 17.537717
_cell_length_c 19.431300
_cell_angle_alpha 90.000000
_cell_angle_beta 90.000000
_cell_angle_gamma 90.000000
_cell_volume 2954.906206
_symmetry_space_group_name_H-M "I B C A "
_symmetry_group_IT_number 73
_symmetry_cell_setting 'orthorhombic'
loop_
_space_group_symop_operation_xyz
x,y,z
-x,1/2-y,z
x,-y,1/2-z
1/2-x,y,-z
-x,-y,-z
x,1/2+y,-z
-x,y,1/2+z
1/2+x,-y,z
1/2+x,1/2+y,1/2+z
1/2-x,-y,1/2+z
1/2+x,1/2-y,-z
-x,1/2+y,1/2-z
1/2-x,1/2-y,1/2-z
1/2+x,y,1/2-z
1/2-x,1/2+y,z
x,1/2-y,1/2+z
loop_
_atom_site_type_symbol
_atom_site_label
_atom_site_fract_x
_atom_site_fract_y
_atom_site_fract_z
Si Si1 0.697315 0.607840 0.570191
Si Si2 0.357168 0.936330 0.798438
Si Si3 0.858657 0.699633 0.297020
Si Si4 0.404078 0.973602 0.112530
O O1 0.750000 0.651753 0.500000
O O2 0.725468 0.662831 0.636095
O O3 0.804725 0.532713 0.568234
O O4 0.518402 0.580217 0.568335
O O5 0.420679 0.866399 0.753506
O O6 0.216303 0.915421 0.850041
O O7 0.280350 0.000000 0.750000
O O8 0.501834 0.974111 0.835099
O O9 0.750000 0.750000 0.250000
O O10 0.000000 0.750000 0.324183
#
# Coordination Sequence:
#
# PCOD8295911 Si02
#       4
#    16  16  16  16
#     4  11  23  40  61  90 131 168 211 259 324 387
#     4  11  20  36  67  92 126 157 212 274 319 360
#     4  12  25  39  61  95 128 165 211 262 320 383
#     4  10  20  36  65  96 118 161 210 271 318 369
#
# _framework density 21.658894
#
# number of rings (size 3 to 8) (size 9 to 14) (size 15 to 20)
#    0.000    1.000    5.000    4.500    0.000    0.000 
#    0.000    3.750    0.000    3.000    0.000    0.000 
#    0.000    0.000    0.000    0.000    0.000    0.000 
#
# Total GULP energy -396540.789808 kJ/mol
# GULP energy per Si atom -12391.899682 kJ/mol
# Density = 2.160960 g / cm^3
# Si number density = 21.658894 Si / 1000 Ang^3
#
#
#
# Elastic Constant Matrix: (Units=GPa)
#
#
# Indices 1 2 3 4 5 6 
#
# 1 93.1851 17.5425 37.2041 0.0000 0.0000 0.0000
# 2 17.5425 81.1779 34.8486 0.0000 0.0000 0.0000
# 3 37.2041 34.8486 121.7201 0.0000 0.0000 0.0000
# 4 0.0000 0.0000 0.0000 23.3375 0.0000 0.0000
# 5 0.0000 0.0000 0.0000 0.0000 28.9334 0.0000
# 6 0.0000 0.0000 0.0000 0.0000 0.0000 36.7795
#
#
#
# Elastic Compliance Matrix: (Units=1/GPa)
#
#
# Indices 1 2 3 4 5 6 
#
# 1 0.012323 -0.001193 -0.003425 0.000000 0.000000 0.000000
# 2 -0.001193 0.014160 -0.003690 0.000000 0.000000 0.000000
# 3 -0.003425 -0.003690 0.010319 0.000000 0.000000 0.000000
# 4 0.000000 0.000000 0.000000 0.042849 0.000000 0.000000
# 5 0.000000 0.000000 0.000000 0.000000 0.034562 0.000000
# 6 0.000000 0.000000 0.000000 0.000000 0.000000 0.027189
#
#
# Mechanical properties :
#
#
# Convention : Reuss Voigt Hill
#
# Bulk Modulus (GPa) = 49.53547 52.80816 51.17181
# Shear Modulus (GPa) = 30.34955 31.57594 30.96275
#
# Velocity S-wave (km/s) = 3.74739 3.82235 3.78506
# Velocity P-wave (km/s) = 6.45324 6.62685 6.54062
#
# Compressibility (1/GPa) = 0.02018756
#
# Stress axis : x y z
#
# Youngs Moduli (GPa) = 81.14665 70.62031 96.91037
#
# Poissons Ratio (x) = 0.08423 0.33194
# Poissons Ratio (y) = 0.09678 0.35755
# Poissons Ratio (z) = 0.27794 0.26056
#
# Static dielectric constant tensor:
#      x y z
#    x 4.024600 0.000000 0.000000 
#    y 0.000000 3.559610 0.000000 
#    z 0.000000 0.000000 3.815080 
# 
# 
# High freq. dielectric constant tensor:
#      x y z
#    x 1.862130 0.000000 0.000000 
#    y 0.000000 1.824970 0.000000 
#    z 0.000000 0.000000 1.843290 
# 
# From -- ./inp_files/5215.got.cif
#   From: 2010.03.12/outbox.cif.g09.slc.cpg/sg73_3_cif.got.tgz:5215.got - 2010.04.16 15:25:48.
