data_PCOD8295661
_publ_section_title
;
Structure prediction by ZEFSAII (Michael W. Deem and Ramdas Pophale) SiO2 
 PCOD8295661
Probable space group: I B C A 
;
_chemical_formula_sum "Si O2"
_cell_formula_units_Z 96
_cell_length_a 31.735018
_cell_length_b 14.279769
_cell_length_c 10.219371
_cell_angle_alpha 90.000000
_cell_angle_beta 90.000000
_cell_angle_gamma 90.000000
_cell_volume 4631.099339
_symmetry_space_group_name_H-M "I B C A "
_symmetry_group_IT_number 73
_symmetry_cell_setting 'orthorhombic'
loop_
_space_group_symop_operation_xyz
x,y,z
-x,1/2-y,z
x,-y,1/2-z
1/2-x,y,-z
-x,-y,-z
x,1/2+y,-z
-x,y,1/2+z
1/2+x,-y,z
1/2+x,1/2+y,1/2+z
1/2-x,-y,1/2+z
1/2+x,1/2-y,-z
-x,1/2+y,1/2-z
1/2-x,1/2-y,1/2-z
1/2+x,y,1/2-z
1/2-x,1/2+y,z
x,1/2-y,1/2+z
loop_
_atom_site_type_symbol
_atom_site_label
_atom_site_fract_x
_atom_site_fract_y
_atom_site_fract_z
Si Si1 0.554481 0.099339 0.790259
Si Si2 0.205911 0.203105 0.717819
Si Si3 0.500000 0.750000 0.091787
Si Si4 0.180216 0.500000 0.250000
Si Si5 0.381064 0.473906 0.983870
Si Si6 0.842117 0.207285 0.952187
Si Si7 0.583206 0.838233 0.977561
O O1 0.516909 0.170290 0.813368
O O2 0.582425 0.088859 0.919333
O O3 0.584639 0.136695 0.675678
O O4 0.533990 0.000000 0.750000
O O5 0.250000 0.250000 0.750000
O O6 0.209639 0.091771 0.742154
O O7 0.193084 0.218033 0.566053
O O8 0.172122 0.249213 0.815423
O O9 0.536636 0.800062 0.008864
O O10 0.151092 0.512772 0.123916
O O11 0.355077 0.401761 0.076235
O O12 0.402581 0.565005 0.053942
O O13 0.883062 0.259234 0.009063
#
# Coordination Sequence:
#
# PCOD8295661 Si02
#       7
#    16  16   8   8  16  16  16
#     4  10  21  39  58  82 124 168 216 253 319 386
#     4  11  24  44  69 101 129 165 214 266 322 394
#     4  12  24  36  58  94 122 162 222 284 310 352
#     4  10  18  40  72  86 124 184 204 238 328 418
#     4  10  18  38  66  88 120 177 219 247 315 399
#     4  11  22  42  70  93 132 171 213 262 324 386
#     4  11  21  39  62  89 123 170 217 264 318 378
#
# _framework density 20.729420000000001
#
# number of rings (size 3 to 8) (size 9 to 14) (size 15 to 20)
#    0.000    1.333    5.833    2.000    0.000    2.667 
#    6.000    1.667    0.000    0.000    0.000    0.000 
#    0.000    0.000    0.000    0.000    0.000    0.000 
#
# Total GULP energy -594880.394942 kJ/mol
# GULP energy per Si atom -12393.341561 kJ/mol
# Density = 2.068224 g / cm^3
# Si number density = 20.729420 Si / 1000 Ang^3
#
#
#
# Elastic Constant Matrix: (Units=GPa)
#
#
# Indices 1 2 3 4 5 6 
#
# 1 103.5060 58.9455 0.5088 0.0000 0.0000 0.0000
# 2 58.9455 145.4997 21.4672 0.0000 0.0000 0.0000
# 3 0.5088 21.4672 32.2988 0.0000 0.0000 0.0000
# 4 0.0000 0.0000 0.0000 30.4335 0.0000 0.0000
# 5 0.0000 0.0000 0.0000 0.0000 18.9207 0.0000
# 6 0.0000 0.0000 0.0000 0.0000 0.0000 48.6228
#
#
#
# Elastic Compliance Matrix: (Units=1/GPa)
#
#
# Indices 1 2 3 4 5 6 
#
# 1 0.012933 -0.005776 0.003635 0.000000 0.000000 0.000000
# 2 -0.005776 0.010199 -0.006688 0.000000 0.000000 0.000000
# 3 0.003635 -0.006688 0.035349 0.000000 0.000000 0.000000
# 4 0.000000 0.000000 0.000000 0.032859 0.000000 0.000000
# 5 0.000000 0.000000 0.000000 0.000000 0.052852 0.000000
# 6 0.000000 0.000000 0.000000 0.000000 0.000000 0.020566
#
#
# Mechanical properties :
#
#
# Convention : Reuss Voigt Hill
#
# Bulk Modulus (GPa) = 24.49568 49.23861 36.86715
# Shear Modulus (GPa) = 25.50719 32.95426 29.23073
#
# Velocity S-wave (km/s) = 3.51163 3.99147 3.75921
# Velocity P-wave (km/s) = 5.31832 6.71171 6.05523
#
# Compressibility (1/GPa) = 0.04082352
#
# Stress axis : x y z
#
# Youngs Moduli (GPa) = 77.32428 98.04437 28.28951
#
# Poissons Ratio (x) = 0.56627 -0.10283
# Poissons Ratio (y) = 0.44659 0.18920
# Poissons Ratio (z) = -0.28107 0.65572
#
# Static dielectric constant tensor:
#      x y z
#    x 3.659150 0.000000 0.000000 
#    y 0.000000 4.362100 0.000000 
#    z 0.000000 0.000000 3.429140 
# 
# 
# High freq. dielectric constant tensor:
#      x y z
#    x 1.803450 0.000000 0.000000 
#    y 0.000000 1.837820 0.000000 
#    z 0.000000 0.000000 1.777150 
# 
# From -- ./inp_files/14766.got.cif
#   From: 2010.03.12/outbox.cif.g09.slc.cpg/sg73_8_cif.got.tgz:14766.got - 2010.04.16 15:25:48.
