data_PCOD8295599
_publ_section_title
;
Structure prediction by ZEFSAII (Michael W. Deem and Ramdas Pophale) SiO2 
 PCOD8295599
Probable space group: I B C A 
;
_chemical_formula_sum "Si O2"
_cell_formula_units_Z 48
_cell_length_a 5.300579
_cell_length_b 24.845467
_cell_length_c 12.350053
_cell_angle_alpha 90.000000
_cell_angle_beta 90.000000
_cell_angle_gamma 90.000000
_cell_volume 1626.444684
_symmetry_space_group_name_H-M "I B C A "
_symmetry_group_IT_number 73
_symmetry_cell_setting 'orthorhombic'
loop_
_space_group_symop_operation_xyz
x,y,z
-x,1/2-y,z
x,-y,1/2-z
1/2-x,y,-z
-x,-y,-z
x,1/2+y,-z
-x,y,1/2+z
1/2+x,-y,z
1/2+x,1/2+y,1/2+z
1/2-x,-y,1/2+z
1/2+x,1/2-y,-z
-x,1/2+y,1/2-z
1/2-x,1/2-y,1/2-z
1/2+x,y,1/2-z
1/2-x,1/2+y,z
x,1/2-y,1/2+z
loop_
_atom_site_type_symbol
_atom_site_label
_atom_site_fract_x
_atom_site_fract_y
_atom_site_fract_z
Si Si1 0.599948 0.689755 0.867163
Si Si2 0.605213 0.145562 0.373141
Si Si3 0.827507 0.022844 0.618932
O O1 0.500000 0.750000 0.856953
O O2 0.663947 0.665276 0.749107
O O3 0.380242 0.656102 0.930277
O O4 0.874838 0.681502 0.925018
O O5 0.554698 0.082326 0.377289
O O6 0.750000 0.002031 0.500000
O O7 0.545478 0.015945 0.673374
#
# Coordination Sequence:
#
# PCOD8295599 Si02
#       3
#    16  16  16
#     4  10  19  33  53  80 109 136 166 208 263 318
#     4  10  18  32  53  77 102 137 174 208 257 315
#     4  10  21  37  54  73 101 139 180 220 260 304
#
# _framework density 29.512225000000001
#
# number of rings (size 3 to 8) (size 9 to 14) (size 15 to 20)
#    0.000    2.000    0.000    7.000    0.000    0.000 
#    0.000   20.000    0.000    6.000    0.000    0.000 
#    0.000    0.000    0.000    0.000    0.000    0.000 
#
# Total GULP energy -297352.530564 kJ/mol
# GULP energy per Si atom -12389.688773 kJ/mol
# Density = 2.944505 g / cm^3
# Si number density = 29.512225 Si / 1000 Ang^3
#
#
#
# Elastic Constant Matrix: (Units=GPa)
#
#
# Indices 1 2 3 4 5 6 
#
# 1 345.1623 85.2500 16.0773 0.0000 -0.0008 0.0000
# 2 85.2500 176.3023 0.5034 -0.0001 -0.0038 0.0000
# 3 16.0773 0.5034 68.6151 -0.0006 -0.0075 0.0000
# 4 0.0000 -0.0001 -0.0006 33.8188 -0.0041 0.0000
# 5 -0.0008 -0.0038 -0.0075 -0.0041-3742.8684 -0.0004
# 6 0.0000 0.0000 0.0000 0.0000 -0.0004 68.2457
#
#
#
# Elastic Compliance Matrix: (Units=1/GPa)
#
#
# Indices 1 2 3 4 5 6 
#
# 1 0.003330 -0.001608 -0.000768 0.000000 0.000000 0.000000
# 2 -0.001608 0.006449 0.000329 0.000000 0.000000 0.000000
# 3 -0.000768 0.000329 0.014752 0.000000 0.000000 0.000000
# 4 0.000000 0.000000 0.000000 0.029569 0.000000 0.000000
# 5 0.000000 0.000000 0.000000 0.000000 -0.000267 0.000000
# 6 0.000000 0.000000 0.000000 0.000000 0.000000 0.014653
#
#
# Mechanical properties :
#
#
# Convention : Reuss Voigt Hill
#
# Bulk Modulus (GPa) = 48.93234 88.19342 68.56288
# Shear Modulus (GPa) = 62.97867 -695.61084 -316.31608
#
# Velocity S-wave (km/s) = 4.62452 -15.36926 -10.36408
# Velocity P-wave (km/s) = 6.71798 16.88206 10.95154
#
# Compressibility (1/GPa) = 0.02043638
#
# Stress axis : x y z
#
# Youngs Moduli (GPa) = 300.28619 155.06962 67.78880
#
# Poissons Ratio (x) = 0.24936 0.05210
# Poissons Ratio (y) = 0.48289 -0.02234
# Poissons Ratio (z) = 0.23077 -0.05109
#
# Static dielectric constant tensor:
#      x y z
#    x 7.051580 0.000000 0.000000 
#    y 0.000000 4.585340 0.000000 
#    z 0.000000 0.000000 5.963100 
# 
# 
# High freq. dielectric constant tensor:
#      x y z
#    x 2.263990 0.000000 0.000000 
#    y 0.000000 2.156100 0.000000 
#    z 0.000000 0.000000 2.270480 
# 
# From -- ./inp_files/943.got.cif
#   From: 2010.03.12/outbox.cif.g09.slc.cpg/sg73_1_cif.got.tgz:943.got - 2010.04.16 15:25:48.
