data_PCOD8295670
_publ_section_title
;
Structure prediction by ZEFSAII (Michael W. Deem and Ramdas Pophale) SiO2 
 PCOD8295670
Probable space group: I B C A 
;
_chemical_formula_sum "Si O2"
_cell_formula_units_Z 64
_cell_length_a 8.919743
_cell_length_b 30.628956
_cell_length_c 11.950819
_cell_angle_alpha 90.000000
_cell_angle_beta 90.000000
_cell_angle_gamma 90.000000
_cell_volume 3264.992623
_symmetry_space_group_name_H-M "I B C A "
_symmetry_group_IT_number 73
_symmetry_cell_setting 'orthorhombic'
loop_
_space_group_symop_operation_xyz
x,y,z
-x,1/2-y,z
x,-y,1/2-z
1/2-x,y,-z
-x,-y,-z
x,1/2+y,-z
-x,y,1/2+z
1/2+x,-y,z
1/2+x,1/2+y,1/2+z
1/2-x,-y,1/2+z
1/2+x,1/2-y,-z
-x,1/2+y,1/2-z
1/2-x,1/2-y,1/2-z
1/2+x,y,1/2-z
1/2-x,1/2+y,z
x,1/2-y,1/2+z
loop_
_atom_site_type_symbol
_atom_site_label
_atom_site_fract_x
_atom_site_fract_y
_atom_site_fract_z
Si Si1 0.130527 0.694748 0.337467
Si Si2 0.211742 0.711345 0.877443
Si Si3 0.750000 0.375760 0.500000
Si Si4 0.816360 0.541130 0.111095
Si Si5 0.426250 0.000000 0.250000
O O1 0.177003 0.686654 0.208217
O O2 0.231709 0.735929 0.378027
O O3 0.153126 0.653547 0.417177
O O4 0.955622 0.702880 0.338822
O O5 0.250000 0.692887 0.000000
O O6 0.850007 0.407982 0.420735
O O7 0.683198 0.537978 0.203343
O O8 0.970216 0.519596 0.151991
O O9 0.750000 0.516736 0.000000
#
# Coordination Sequence:
#
# PCOD8295670 Si02
#       5
#    16  16   8  16   8
#     4  10  22  38  60  85 120 149 209 246 294 354
#     4  10  22  38  63  82 110 169 202 243 293 351
#     4  10  22  38  58  88 130 144 188 260 300 328
#     4   9  21  36  64  87 118 151 185 241 285 343
#     4  10  18  40  64  88 112 154 200 212 288 378
#
# _framework density 19.601882
#
# number of rings (size 3 to 8) (size 9 to 14) (size 15 to 20)
#    0.750    1.500    1.250    0.750    3.500    4.000 
#    0.000    0.000    0.000    0.000    0.000    0.000 
#    0.000    0.000    0.000    0.000    0.000    0.000 
#
# Total GULP energy -396455.547813 kJ/mol
# GULP energy per Si atom -12389.235869 kJ/mol
# Density = 1.955727 g / cm^3
# Si number density = 19.601882 Si / 1000 Ang^3
#
#
#
# Elastic Constant Matrix: (Units=GPa)
#
#
# Indices 1 2 3 4 5 6 
#
# 1 92.7979 27.8847 58.3085 -0.0011 -0.0006 -0.0001
# 2 27.8847 96.7056 41.4041 -0.0013 -0.0006 0.0000
# 3 58.3085 41.4041 150.1655 -0.0043 -0.0006 0.0001
# 4 -0.0011 -0.0013 -0.0043 37.8358 -0.0005 0.0001
# 5 -0.0006 -0.0006 -0.0006 -0.0005 25.1304 -0.0007
# 6 -0.0001 0.0000 0.0001 0.0001 -0.0007 14.0391
#
#
#
# Elastic Compliance Matrix: (Units=1/GPa)
#
#
# Indices 1 2 3 4 5 6 
#
# 1 0.014594 -0.002020 -0.005110 0.000000 0.000000 0.000000
# 2 -0.002020 0.012004 -0.002525 0.000000 0.000000 0.000000
# 3 -0.005110 -0.002525 0.009340 0.000001 0.000000 0.000000
# 4 0.000000 0.000000 0.000001 0.026430 0.000001 0.000000
# 5 0.000000 0.000000 0.000000 0.000001 0.039792 0.000002
# 6 0.000000 0.000000 0.000000 0.000000 0.000002 0.071230
#
#
# Mechanical properties :
#
#
# Convention : Reuss Voigt Hill
#
# Bulk Modulus (GPa) = 60.14283 66.09597 63.11940
# Shear Modulus (GPa) = 25.22155 29.53917 27.38036
#
# Velocity S-wave (km/s) = 3.59094 3.88616 3.74146
# Velocity P-wave (km/s) = 6.92401 7.34362 7.13690
#
# Compressibility (1/GPa) = 0.01662709
#
# Stress axis : x y z
#
# Youngs Moduli (GPa) = 68.52233 83.30224 107.07016
#
# Poissons Ratio (x) = 0.16830 0.54709
# Poissons Ratio (y) = 0.13844 0.27040
# Poissons Ratio (z) = 0.35012 0.21037
#
# Static dielectric constant tensor:
#      x y z
#    x 3.299540 0.000000 0.000000 
#    y 0.000000 3.389550 0.000000 
#    z 0.000000 0.000000 3.775080 
# 
# 
# High freq. dielectric constant tensor:
#      x y z
#    x 1.753930 0.000000 0.000000 
#    y 0.000000 1.729630 0.000000 
#    z 0.000000 0.000000 1.780880 
# 
# From -- ./inp_files/9065.got.cif
#   From: 2010.03.12/outbox.cif.g09.slc.cpg/sg73_5_cif.got.tgz:9065.got - 2010.04.16 15:25:48.
