data_PCOD8295632
_publ_section_title
;
Structure prediction by ZEFSAII (Michael W. Deem and Ramdas Pophale) SiO2 
 PCOD8295632
Probable space group: I B C A 
;
_chemical_formula_sum "Si O2"
_cell_formula_units_Z 112
_cell_length_a 12.852282
_cell_length_b 19.284235
_cell_length_c 24.965566
_cell_angle_alpha 90.000000
_cell_angle_beta 90.000000
_cell_angle_gamma 90.000000
_cell_volume 6187.626316
_symmetry_space_group_name_H-M "I B C A "
_symmetry_group_IT_number 73
_symmetry_cell_setting 'orthorhombic'
loop_
_space_group_symop_operation_xyz
x,y,z
-x,1/2-y,z
x,-y,1/2-z
1/2-x,y,-z
-x,-y,-z
x,1/2+y,-z
-x,y,1/2+z
1/2+x,-y,z
1/2+x,1/2+y,1/2+z
1/2-x,-y,1/2+z
1/2+x,1/2-y,-z
-x,1/2+y,1/2-z
1/2-x,1/2-y,1/2-z
1/2+x,y,1/2-z
1/2-x,1/2+y,z
x,1/2-y,1/2+z
loop_
_atom_site_type_symbol
_atom_site_label
_atom_site_fract_x
_atom_site_fract_y
_atom_site_fract_z
Si Si1 0.582563 0.053709 0.977514
Si Si2 0.428855 0.087130 0.892552
Si Si3 0.886436 0.769577 0.856033
Si Si4 0.924680 0.807186 0.736843
Si Si5 0.048481 0.070461 0.716810
Si Si6 0.705857 0.042458 0.075550
Si Si7 0.259767 0.144820 0.334557
O O1 0.517150 0.103947 0.937959
O O2 0.677042 0.021717 0.942213
O O3 0.640645 0.085348 0.029860
O O4 0.500000 0.000000 0.000000
O O5 0.359939 0.156420 0.882939
O O6 0.485480 0.060279 0.838559
O O7 0.348994 0.029812 0.911989
O O8 0.883785 0.775294 0.792151
O O9 0.811037 0.705809 0.871042
O O10 0.000000 0.750000 0.876799
O O11 0.826444 0.818271 0.700218
O O12 0.000000 0.750000 0.709507
O O13 0.984469 0.879307 0.744477
O O14 0.158944 0.105456 0.703759
O O15 0.066017 0.000000 0.750000
O O16 0.704902 0.089901 0.127364
#
# Coordination Sequence:
#
# PCOD8295632 Si02
#       7
#    16  16  16  16  16  16  16
#     4   9  18  36  60  82 113 145 189 239 296 351
#     4  10  19  37  57  86 115 148 193 241 283 346
#     4  10  18  35  59  80 110 155 195 225 281 350
#     4  10  21  38  54  78 114 158 197 226 279 352
#     4  11  22  35  55  87 118 148 194 242 285 335
#     4  10  20  34  60  88 108 149 190 241 303 341
#     4  12  21  37  57  81 118 154 192 236 295 341
#
# _framework density 18.100639999999999
#
# number of rings (size 3 to 8) (size 9 to 14) (size 15 to 20)
#    0.000    1.714    5.714    1.286    0.000    2.857 
#    0.000    0.000    0.000   19.714    0.000    0.000 
#    0.000    0.000    0.000    0.000    0.000    0.000 
#
# Total GULP energy -693865.908916 kJ/mol
# GULP energy per Si atom -12390.462659 kJ/mol
# Density = 1.805944 g / cm^3
# Si number density = 18.100640 Si / 1000 Ang^3
#
#
#
# Elastic Constant Matrix: (Units=GPa)
#
#
# Indices 1 2 3 4 5 6 
#
# 1 84.1352 29.5349 18.1376 0.0000 0.0000 0.0000
# 2 29.5349 96.2270 22.9047 0.0000 0.0000 0.0000
# 3 18.1376 22.9047 38.0467 0.0000 0.0000 0.0000
# 4 0.0000 0.0000 0.0000 18.5966 0.0000 0.0000
# 5 0.0000 0.0000 0.0000 0.0000 13.1232 0.0000
# 6 0.0000 0.0000 0.0000 0.0000 0.0000 24.2369
#
#
#
# Elastic Compliance Matrix: (Units=1/GPa)
#
#
# Indices 1 2 3 4 5 6 
#
# 1 0.014028 -0.003168 -0.004780 0.000000 0.000000 0.000000
# 2 -0.003168 0.012846 -0.006223 0.000000 0.000000 0.000000
# 3 -0.004780 -0.006223 0.032309 0.000000 0.000000 0.000000
# 4 0.000000 0.000000 0.000000 0.053773 0.000000 0.000000
# 5 0.000000 0.000000 0.000000 0.000000 0.076201 0.000000
# 6 0.000000 0.000000 0.000000 0.000000 0.000000 0.041259
#
#
# Mechanical properties :
#
#
# Convention : Reuss Voigt Hill
#
# Bulk Modulus (GPa) = 32.42549 39.95148 36.18849
# Shear Modulus (GPa) = 18.58468 21.04679 19.81573
#
# Velocity S-wave (km/s) = 3.20776 3.41363 3.31230
# Velocity P-wave (km/s) = 5.62783 6.13653 5.88768
#
# Compressibility (1/GPa) = 0.03083993
#
# Stress axis : x y z
#
# Youngs Moduli (GPa) = 71.28492 77.84728 30.95131
#
# Poissons Ratio (x) = 0.24660 0.14796
# Poissons Ratio (y) = 0.22582 0.19261
# Poissons Ratio (z) = 0.34077 0.48445
#
# Static dielectric constant tensor:
#      x y z
#    x 3.527710 0.000000 0.000000 
#    y 0.000000 3.389900 0.000000 
#    z 0.000000 0.000000 3.484790 
# 
# 
# High freq. dielectric constant tensor:
#      x y z
#    x 1.710330 0.000000 0.000000 
#    y 0.000000 1.688980 0.000000 
#    z 0.000000 0.000000 1.691860 
# 
# From -- ./inp_files/29035.got.cif
#   From: 2010.03.12/outbox.cif.g09.slc.cpg/sg73_15_cif.got.tgz:29035.got - 2010.04.16 15:25:48.
