data_PCOD8295831
_publ_section_title
;
Structure prediction by ZEFSAII (Michael W. Deem and Ramdas Pophale) SiO2 
 PCOD8295831
Probable space group: I B C A 
;
_chemical_formula_sum "Si O2"
_cell_formula_units_Z 112
_cell_length_a 20.963222
_cell_length_b 12.003554
_cell_length_c 21.899005
_cell_angle_alpha 90.000000
_cell_angle_beta 90.000000
_cell_angle_gamma 90.000000
_cell_volume 5510.515989
_symmetry_space_group_name_H-M "I B C A "
_symmetry_group_IT_number 73
_symmetry_cell_setting 'orthorhombic'
loop_
_space_group_symop_operation_xyz
x,y,z
-x,1/2-y,z
x,-y,1/2-z
1/2-x,y,-z
-x,-y,-z
x,1/2+y,-z
-x,y,1/2+z
1/2+x,-y,z
1/2+x,1/2+y,1/2+z
1/2-x,-y,1/2+z
1/2+x,1/2-y,-z
-x,1/2+y,1/2-z
1/2-x,1/2-y,1/2-z
1/2+x,y,1/2-z
1/2-x,1/2+y,z
x,1/2-y,1/2+z
loop_
_atom_site_type_symbol
_atom_site_label
_atom_site_fract_x
_atom_site_fract_y
_atom_site_fract_z
Si Si1 0.690233 0.455667 0.392009
Si Si2 0.013007 0.121117 0.071914
Si Si3 0.335174 0.243677 0.311710
Si Si4 0.835402 0.608276 0.115232
Si Si5 0.196976 0.671390 0.180480
Si Si6 0.897231 0.480645 0.499274
Si Si7 0.922340 0.551259 0.312881
O O1 0.655227 0.343868 0.367308
O O2 0.764850 0.433709 0.400172
O O3 0.676208 0.552254 0.343881
O O4 0.663347 0.497750 0.457007
O O5 0.020970 0.059542 0.137490
O O6 0.000000 0.250000 0.080462
O O7 0.953253 0.068770 0.039169
O O8 0.077708 0.095930 0.032189
O O9 0.273083 0.318283 0.324121
O O10 0.326069 0.174698 0.249928
O O11 0.396165 0.322970 0.306043
O O12 0.836656 0.733039 0.140545
O O13 0.864773 0.528815 0.166912
O O14 0.877628 0.605450 0.053979
O O15 0.950267 0.500000 0.250000
#
# Coordination Sequence:
#
# PCOD8295831 Si02
#       7
#    16  16  16  16  16  16  16
#     4  11  21  36  58  96 128 159 198 247 309 373
#     4  10  23  43  64  84 113 165 211 259 306 355
#     4  10  20  34  57  90 127 161 191 252 301 369
#     4  10  21  37  60  91 124 158 200 242 308 375
#     4  10  20  33  57  89 128 161 194 239 308 374
#     4  10  23  41  60  85 122 159 207 255 302 364
#     4  11  20  39  66  87 119 159 209 254 304 374
#
# _framework density 20.324776
#
# number of rings (size 3 to 8) (size 9 to 14) (size 15 to 20)
#    0.000    1.714    2.857    1.714    2.000    0.000 
#    0.000    4.286    0.000    0.000    0.000    0.000 
#    0.000    0.000    0.000    0.000    0.000    0.000 
#
# Total GULP energy -694370.126740 kJ/mol
# GULP energy per Si atom -12399.466549 kJ/mol
# Density = 2.027852 g / cm^3
# Si number density = 20.324776 Si / 1000 Ang^3
#
#
#
# Elastic Constant Matrix: (Units=GPa)
#
#
# Indices 1 2 3 4 5 6 
#
# 1 48.8918 36.2246 31.5160 0.0000 0.0000 0.0000
# 2 36.2246 79.7878 50.6093 0.0000 0.0000 0.0000
# 3 31.5160 50.6093 123.3875 0.0000 0.0000 0.0000
# 4 0.0000 0.0000 0.0000 24.8324 0.0000 0.0000
# 5 0.0000 0.0000 0.0000 0.0000 26.8314 0.0000
# 6 0.0000 0.0000 0.0000 0.0000 0.0000 25.7318
#
#
#
# Elastic Compliance Matrix: (Units=1/GPa)
#
#
# Indices 1 2 3 4 5 6 
#
# 1 0.031599 -0.012471 -0.002956 0.000000 0.000000 0.000000
# 2 -0.012471 0.021863 -0.005782 0.000000 0.000000 0.000000
# 3 -0.002956 -0.005782 0.011231 0.000000 0.000000 0.000000
# 4 0.000000 0.000000 0.000000 0.040270 0.000000 0.000000
# 5 0.000000 0.000000 0.000000 0.000000 0.037270 0.000000
# 6 0.000000 0.000000 0.000000 0.000000 0.000000 0.038862
#
#
# Mechanical properties :
#
#
# Convention : Reuss Voigt Hill
#
# Bulk Modulus (GPa) = 44.89407 54.30741 49.60074
# Shear Modulus (GPa) = 21.65084 24.39359 23.02221
#
# Velocity S-wave (km/s) = 3.26735 3.46813 3.36924
# Velocity P-wave (km/s) = 6.03079 6.54332 6.29228
#
# Compressibility (1/GPa) = 0.02227465
#
# Stress axis : x y z
#
# Youngs Moduli (GPa) = 31.64675 45.73966 89.03888
#
# Poissons Ratio (x) = 0.57044 0.26317
# Poissons Ratio (y) = 0.39468 0.51481
# Poissons Ratio (z) = 0.09354 0.26446
#
# Static dielectric constant tensor:
#      x y z
#    x 3.596660 0.000000 0.000000 
#    y 0.000000 3.633080 0.000000 
#    z 0.000000 0.000000 3.859960 
# 
# 
# High freq. dielectric constant tensor:
#      x y z
#    x 1.778140 0.000000 0.000000 
#    y 0.000000 1.789720 0.000000 
#    z 0.000000 0.000000 1.806770 
# 
# From -- ./inp_files/13779.got.cif
#   From: 2010.03.12/outbox.cif.g09.slc.cpg/sg73_7_cif.got.tgz:13779.got - 2010.04.16 15:25:48.
