data_PCOD8295596
_publ_section_title
;
Structure prediction by ZEFSAII (Michael W. Deem and Ramdas Pophale) SiO2 
 PCOD8295596
Probable space group: I B C A 
;
_chemical_formula_sum "Si O2"
_cell_formula_units_Z 96
_cell_length_a 9.688723
_cell_length_b 31.510360
_cell_length_c 15.013233
_cell_angle_alpha 90.000000
_cell_angle_beta 90.000000
_cell_angle_gamma 90.000000
_cell_volume 4583.467216
_symmetry_space_group_name_H-M "I B C A "
_symmetry_group_IT_number 73
_symmetry_cell_setting 'orthorhombic'
loop_
_space_group_symop_operation_xyz
x,y,z
-x,1/2-y,z
x,-y,1/2-z
1/2-x,y,-z
-x,-y,-z
x,1/2+y,-z
-x,y,1/2+z
1/2+x,-y,z
1/2+x,1/2+y,1/2+z
1/2-x,-y,1/2+z
1/2+x,1/2-y,-z
-x,1/2+y,1/2-z
1/2-x,1/2-y,1/2-z
1/2+x,y,1/2-z
1/2-x,1/2+y,z
x,1/2-y,1/2+z
loop_
_atom_site_type_symbol
_atom_site_label
_atom_site_fract_x
_atom_site_fract_y
_atom_site_fract_z
Si Si1 0.586073 0.089034 0.240495
Si Si2 0.250000 0.562600 0.000000
Si Si3 0.521501 0.878141 0.074706
Si Si4 0.713714 0.177548 0.186782
Si Si5 0.250000 0.154624 0.500000
Si Si6 0.664310 0.460848 0.188838
Si Si7 0.515072 0.203177 0.327551
O O1 0.506066 0.098148 0.331852
O O2 0.658396 0.130235 0.200705
O O3 0.467068 0.070337 0.176893
O O4 0.708394 0.056117 0.254533
O O5 0.375058 0.595408 0.014103
O O6 0.216534 0.532453 0.085792
O O7 0.572005 0.829404 0.096736
O O8 0.373308 0.876696 0.027856
O O9 0.704222 0.185905 0.080478
O O10 0.621152 0.209135 0.245249
O O11 0.873676 0.183737 0.213516
O O12 0.612595 0.500000 0.250000
O O13 0.500000 0.250000 0.370192
#
# Coordination Sequence:
#
# PCOD8295596 Si02
#       7
#    16   8  16  16   8  16  16
#     4  10  20  38  60  81 113 157 201 244 294 372
#     4  10  22  40  62  86 120 158 200 246 304 382
#     4   9  20  36  58  85 114 157 202 241 299 362
#     4  10  20  35  57  81 112 157 201 239 295 357
#     4  10  18  32  52  84 110 136 196 252 284 342
#     4  11  22  39  60  88 119 153 196 252 312 369
#     4  10  20  36  56  83 117 157 204 250 294 349
#
# _framework density 20.944842000000001
#
# number of rings (size 3 to 8) (size 9 to 14) (size 15 to 20)
#    0.000    2.000    0.000    5.000    0.000    2.667 
#    0.000   17.500    0.000    0.000    0.000    0.000 
#    0.000    0.000    0.000    0.000    0.000    0.000 
#
# Total GULP energy -594672.148555 kJ/mol
# GULP energy per Si atom -12389.003095 kJ/mol
# Density = 2.089717 g / cm^3
# Si number density = 20.944842 Si / 1000 Ang^3
#
#
#
# Elastic Constant Matrix: (Units=GPa)
#
#
# Indices 1 2 3 4 5 6 
#
# 1 97.9845 11.3535 27.0689 0.0011 0.0001 0.0001
# 2 11.3535 81.3699 22.3175 0.0013 0.0002 0.0002
# 3 27.0689 22.3175 95.1641 0.0047 0.0006 0.0005
# 4 0.0011 0.0013 0.0047 23.9707 0.0002 0.0002
# 5 0.0001 0.0002 0.0006 0.0002 38.2246 0.0006
# 6 0.0001 0.0002 0.0005 0.0002 0.0006 23.8504
#
#
#
# Elastic Compliance Matrix: (Units=1/GPa)
#
#
# Indices 1 2 3 4 5 6 
#
# 1 0.011117 -0.000731 -0.002991 0.000000 0.000000 0.000000
# 2 -0.000731 0.013182 -0.002884 0.000000 0.000000 0.000000
# 3 -0.002991 -0.002884 0.012035 -0.000002 0.000000 0.000000
# 4 0.000000 0.000000 -0.000002 0.041718 0.000000 0.000000
# 5 0.000000 0.000000 0.000000 0.000000 0.026161 -0.000001
# 6 0.000000 0.000000 0.000000 0.000000 -0.000001 0.041928
#
#
# Mechanical properties :
#
#
# Convention : Reuss Voigt Hill
#
# Bulk Modulus (GPa) = 43.24533 43.99983 43.62258
# Shear Modulus (GPa) = 29.92951 31.46102 30.69526
#
# Velocity S-wave (km/s) = 3.78427 3.87988 3.83238
# Velocity P-wave (km/s) = 6.30764 6.41283 6.36045
#
# Compressibility (1/GPa) = 0.02312388
#
# Stress axis : x y z
#
# Youngs Moduli (GPa) = 89.95585 75.85855 83.09030
#
# Poissons Ratio (x) = 0.05544 0.24849
# Poissons Ratio (y) = 0.06574 0.23960
# Poissons Ratio (z) = 0.26903 0.21875
#
# Static dielectric constant tensor:
#      x y z
#    x 3.910610 0.000000 0.000000 
#    y 0.000000 3.628700 0.000000 
#    z 0.000000 0.000000 3.961390 
# 
# 
# High freq. dielectric constant tensor:
#      x y z
#    x 1.834170 0.000000 0.000000 
#    y 0.000000 1.796370 0.000000 
#    z 0.000000 0.000000 1.813490 
# 
# From -- ./inp_files/16288.got.cif
#   From: 2010.03.12/outbox.cif.g09.slc.cpg/sg73_9_cif.got.tgz:16288.got - 2010.04.16 15:25:48.
