data_PCOD8295365
_publ_section_title
;
Structure prediction by ZEFSAII (Michael W. Deem and Ramdas Pophale) SiO2 
 PCOD8295365
Probable space group: I B A M
;
_chemical_formula_sum "Si O2"
_cell_formula_units_Z 68
_cell_length_a 17.226618
_cell_length_b 9.736533
_cell_length_c 17.884751
_cell_angle_alpha 90.000000
_cell_angle_beta 90.000000
_cell_angle_gamma 90.000000
_cell_volume 2999.765193
_symmetry_space_group_name_H-M "I B A M"
_symmetry_group_IT_number 72
_symmetry_cell_setting 'orthorhombic'
loop_
_space_group_symop_operation_xyz
x,y,z
-x,-y,z
x,-y,1/2-z
-x,y,1/2-z
-x,-y,-z
x,y,-z
-x,y,1/2+z
x,-y,1/2+z
1/2+x,1/2+y,1/2+z
1/2-x,1/2-y,1/2+z
1/2+x,1/2-y,-z
1/2-x,1/2+y,-z
1/2-x,1/2-y,1/2-z
1/2+x,1/2+y,1/2-z
1/2-x,1/2+y,z
1/2+x,1/2-y,z
loop_
_atom_site_type_symbol
_atom_site_label
_atom_site_fract_x
_atom_site_fract_y
_atom_site_fract_z
Si Si1 0.928021 0.813197 0.867995
Si Si2 0.190104 0.982572 0.839585
Si Si3 0.092211 0.756132 0.915573
Si Si4 0.367693 0.015859 0.337963
Si Si5 0.000000 0.000000 0.750000
O O1 0.909809 0.655198 0.859443
O O2 0.005829 0.824707 0.917904
O O3 0.943576 0.897211 0.792432
O O4 0.850328 0.897288 0.891500
O O5 0.149462 0.839415 0.861300
O O6 0.279092 0.980207 0.865312
O O7 0.187824 0.000000 0.750000
O O8 0.086962 0.604182 0.881153
O O9 0.124111 0.753237 0.000000
O O10 0.375839 0.000000 0.250000
#
# Coordination Sequence:
#
# PCOD8295365 Si02
#       5
#    16  16  16  16   4
#     4  12  22  40  68  94 138 178 225 278 337 398
#     4  11  22  44  72 103 136 178 234 287 340 411
#     4  12  27  45  67 103 143 183 230 282 344 408
#     4  11  25  42  71 105 137 180 230 287 345 404
#     4  12  20  40  68 104 132 176 230 288 324 412
#
# _framework density 22.668441000000001
#
# number of rings (size 3 to 8) (size 9 to 14) (size 15 to 20)
#    0.000    0.471    3.529    4.941    0.000    9.412 
#    0.000    2.353    0.000    0.000    0.000    0.000 
#    0.000    0.000    0.000    0.000    0.000    0.000 
#
# Total GULP energy -421321.758670 kJ/mol
# GULP energy per Si atom -12391.816431 kJ/mol
# Density = 2.261685 g / cm^3
# Si number density = 22.668441 Si / 1000 Ang^3
#
#
#
# Elastic Constant Matrix: (Units=GPa)
#
#
# Indices 1 2 3 4 5 6 
#
# 1 114.6528 17.4436 23.6569 0.0000 0.0000 0.0000
# 2 17.4436 146.7918 36.9522 0.0000 0.0000 0.0000
# 3 23.6569 36.9522 95.7125 0.0000 0.0000 0.0000
# 4 0.0000 0.0000 0.0000 21.6093 0.0000 0.0000
# 5 0.0000 0.0000 0.0000 0.0000 6.1966 0.0000
# 6 0.0000 0.0000 0.0000 0.0000 0.0000 97.7355
#
#
#
# Elastic Compliance Matrix: (Units=1/GPa)
#
#
# Indices 1 2 3 4 5 6 
#
# 1 0.009235 -0.000579 -0.002059 0.000000 0.000000 0.000000
# 2 -0.000579 0.007582 -0.002784 0.000000 0.000000 0.000000
# 3 -0.002059 -0.002784 0.012032 0.000000 0.000000 0.000000
# 4 0.000000 0.000000 0.000000 0.046276 0.000000 0.000000
# 5 0.000000 0.000000 0.000000 0.000000 0.161378 0.000000
# 6 0.000000 0.000000 0.000000 0.000000 0.000000 0.010232
#
#
# Mechanical properties :
#
#
# Convention : Reuss Voigt Hill
#
# Bulk Modulus (GPa) = 55.54218 57.02918 56.28568
# Shear Modulus (GPa) = 18.96952 43.71523 31.34238
#
# Velocity S-wave (km/s) = 2.89593 4.39619 3.72243
# Velocity P-wave (km/s) = 5.97805 7.14011 6.58477
#
# Compressibility (1/GPa) = 0.01800433
#
# Stress axis : x y z
#
# Youngs Moduli (GPa) = 108.28445 131.89078 83.11345
#
# Poissons Ratio (x) = 0.07638 0.17113
# Poissons Ratio (y) = 0.06271 0.23140
# Poissons Ratio (z) = 0.22296 0.36720
#
# Static dielectric constant tensor:
#      x y z
#    x 5.188410 0.000000 0.000000 
#    y 0.000000 4.274660 0.000000 
#    z 0.000000 0.000000 3.337610 
# 
# 
# High freq. dielectric constant tensor:
#      x y z
#    x 1.920720 0.000000 0.000000 
#    y 0.000000 1.909400 0.000000 
#    z 0.000000 0.000000 1.855140 
# 
# From -- ./inp_files/32270.got.cif
#   From: 2010.03.12/outbox.cif.g09.slc.cpg/sg72_17_cif.got.tgz:32270.got - 2010.04.16 14:54:00.
