data_PCOD8295748
_publ_section_title
;
Structure prediction by ZEFSAII (Michael W. Deem and Ramdas Pophale) SiO2 
 PCOD8295748
Probable space group: I B C A 
;
_chemical_formula_sum "Si O2"
_cell_formula_units_Z 120
_cell_length_a 15.242592
_cell_length_b 27.631385
_cell_length_c 13.601031
_cell_angle_alpha 90.000000
_cell_angle_beta 90.000000
_cell_angle_gamma 90.000000
_cell_volume 5728.399650
_symmetry_space_group_name_H-M "I B C A "
_symmetry_group_IT_number 73
_symmetry_cell_setting 'orthorhombic'
loop_
_space_group_symop_operation_xyz
x,y,z
-x,1/2-y,z
x,-y,1/2-z
1/2-x,y,-z
-x,-y,-z
x,1/2+y,-z
-x,y,1/2+z
1/2+x,-y,z
1/2+x,1/2+y,1/2+z
1/2-x,-y,1/2+z
1/2+x,1/2-y,-z
-x,1/2+y,1/2-z
1/2-x,1/2-y,1/2-z
1/2+x,y,1/2-z
1/2-x,1/2+y,z
x,1/2-y,1/2+z
loop_
_atom_site_type_symbol
_atom_site_label
_atom_site_fract_x
_atom_site_fract_y
_atom_site_fract_z
Si Si1 0.666423 0.368474 0.447879
Si Si2 0.428866 0.873095 0.378278
Si Si3 0.222623 0.500000 0.250000
Si Si4 0.991887 0.306767 0.036186
Si Si5 0.624924 0.026248 0.945863
Si Si6 0.760638 0.608147 0.742350
Si Si7 0.575537 0.135840 0.290766
Si Si8 0.435842 0.944725 0.551976
O O1 0.750000 0.343922 0.500000
O O2 0.584786 0.334183 0.468868
O O3 0.655707 0.422728 0.492252
O O4 0.677711 0.377310 0.332946
O O5 0.434859 0.823758 0.442272
O O6 0.326934 0.879289 0.346878
O O7 0.499980 0.872150 0.289761
O O8 0.454333 0.916700 0.450065
O O9 0.166795 0.506992 0.347218
O O10 0.272670 0.448239 0.260778
O O11 0.000000 0.250000 0.027090
O O12 0.947401 0.318191 0.141267
O O13 0.523697 0.028591 0.915296
O O14 0.638447 0.985981 0.032348
O O15 0.674005 0.642194 0.752226
O O16 0.591291 0.090077 0.361054
#
# Coordination Sequence:
#
# PCOD8295748 Si02
#       8
#    16  16   8  16  16  16  16  16
#     4  11  22  43  66  93 131 170 219 268 326 392
#     4  11  21  45  66  91 136 171 215 274 334 386
#     4  10  20  36  56  92 140 176 222 262 304 394
#     4  11  25  47  71  95 124 170 221 280 343 400
#     4  10  19  36  58  92 129 180 214 269 308 384
#     4  11  23  39  64  99 136 177 217 265 328 392
#     4  11  23  44  67  94 135 174 215 276 333 387
#     4  10  21  34  62  94 127 176 225 252 321 392
#
# _framework density 20.948259
#
# number of rings (size 3 to 8) (size 9 to 14) (size 15 to 20)
#    0.000    1.333    5.333    1.600    0.000    4.800 
#    4.800    0.667    0.000    0.000    0.000    0.000 
#    0.000    0.000    0.000    0.000    0.000    0.000 
#
# Total GULP energy -743332.339939 kJ/mol
# GULP energy per Si atom -12388.872332 kJ/mol
# Density = 2.090058 g / cm^3
# Si number density = 20.948259 Si / 1000 Ang^3
#
#
#
# Elastic Constant Matrix: (Units=GPa)
#
#
# Indices 1 2 3 4 5 6 
#
# 1 89.8250 22.1092 12.3816 -0.0001 0.0000 0.0000
# 2 22.1092 125.5371 30.0014 -0.0001 -0.0001 0.0000
# 3 12.3816 30.0014 65.4451 -0.0006 -0.0001 0.0001
# 4 -0.0001 -0.0001 -0.0006 16.0237 -0.0001 0.0000
# 5 0.0000 -0.0001 -0.0001 -0.0001 34.9436 0.0000
# 6 0.0000 0.0000 0.0001 0.0000 0.0000 25.2671
#
#
#
# Elastic Compliance Matrix: (Units=1/GPa)
#
#
# Indices 1 2 3 4 5 6 
#
# 1 0.011755 -0.001728 -0.001432 0.000000 0.000000 0.000000
# 2 -0.001728 0.009200 -0.003890 0.000000 0.000000 0.000000
# 3 -0.001432 -0.003890 0.017334 0.000001 0.000000 0.000000
# 4 0.000000 0.000000 0.000001 0.062408 0.000000 0.000000
# 5 0.000000 0.000000 0.000000 0.000000 0.028618 0.000000
# 6 0.000000 0.000000 0.000000 0.000000 0.000000 0.039577
#
#
# Mechanical properties :
#
#
# Convention : Reuss Voigt Hill
#
# Bulk Modulus (GPa) = 41.34137 45.53240 43.43689
# Shear Modulus (GPa) = 26.17035 29.66788 27.91912
#
# Velocity S-wave (km/s) = 3.53836 3.76739 3.65467
# Velocity P-wave (km/s) = 6.03913 6.38021 6.21201
#
# Compressibility (1/GPa) = 0.02418884
#
# Stress axis : x y z
#
# Youngs Moduli (GPa) = 85.06671 108.69697 57.68897
#
# Poissons Ratio (x) = 0.18785 0.08260
# Poissons Ratio (y) = 0.14701 0.22444
# Poissons Ratio (z) = 0.12180 0.42288
#
# Static dielectric constant tensor:
#      x y z
#    x 3.769540 0.000000 0.000000 
#    y 0.000000 3.729820 0.000000 
#    z 0.000000 0.000000 3.969130 
# 
# 
# High freq. dielectric constant tensor:
#      x y z
#    x 1.821860 0.000000 0.000000 
#    y 0.000000 1.793600 0.000000 
#    z 0.000000 0.000000 1.831410 
# 
# From -- ./inp_files/17492.got.cif
#   From: 2010.03.12/outbox.cif.g09.slc.cpg/sg73_9_cif.got.tgz:17492.got - 2010.04.16 15:25:48.
