data_PCOD8295350
_publ_section_title
;
Structure prediction by ZEFSAII (Michael W. Deem and Ramdas Pophale) SiO2 
 PCOD8295350
Probable space group: I B A M
;
_chemical_formula_sum "Si O2"
_cell_formula_units_Z 40
_cell_length_a 24.180284
_cell_length_b 4.984760
_cell_length_c 15.242686
_cell_angle_alpha 90.000000
_cell_angle_beta 90.000000
_cell_angle_gamma 90.000000
_cell_volume 1837.245337
_symmetry_space_group_name_H-M "I B A M"
_symmetry_group_IT_number 72
_symmetry_cell_setting 'orthorhombic'
loop_
_space_group_symop_operation_xyz
x,y,z
-x,-y,z
x,-y,1/2-z
-x,y,1/2-z
-x,-y,-z
x,y,-z
-x,y,1/2+z
x,-y,1/2+z
1/2+x,1/2+y,1/2+z
1/2-x,1/2-y,1/2+z
1/2+x,1/2-y,-z
1/2-x,1/2+y,-z
1/2-x,1/2-y,1/2-z
1/2+x,1/2+y,1/2-z
1/2-x,1/2+y,z
1/2+x,1/2-y,z
loop_
_atom_site_type_symbol
_atom_site_label
_atom_site_fract_x
_atom_site_fract_y
_atom_site_fract_z
Si Si1 0.713418 0.073474 0.000000
Si Si2 0.061757 0.945308 0.897129
Si Si3 0.372296 0.056142 0.347402
O O1 0.678282 0.015638 0.086745
O O2 0.733630 0.379665 0.000000
O O3 0.104240 0.143365 0.849220
O O4 0.077755 0.641832 0.873876
O O5 0.066133 0.001722 0.000000
O O6 0.000000 0.000000 0.862756
O O7 0.349884 0.000000 0.250000
#
# Coordination Sequence:
#
# PCOD8295350 Si02
#       3
#     8  16  16
#     4  12  26  46  69  90 127 168 218 278 332 372
#     4  11  22  41  68  98 137 177 210 252 317 391
#     4  12  25  43  68  99 131 168 218 266 321 385
#
# _framework density 21.771726999999998
#
# number of rings (size 3 to 8) (size 9 to 14) (size 15 to 20)
#    0.000    0.400    4.000    4.800    0.000    9.600 
#    0.000    0.000    0.000    0.000    0.000    0.000 
#    0.000    0.000    0.000    0.000    0.000    0.000 
#
# Total GULP energy -248206.764711 kJ/mol
# GULP energy per Si atom -12410.338236 kJ/mol
# Density = 2.172217 g / cm^3
# Si number density = 21.771727 Si / 1000 Ang^3
#
#
#
# Elastic Constant Matrix: (Units=GPa)
#
#
# Indices 1 2 3 4 5 6 
#
# 1 94.4341 14.0465 43.6906 0.0000 0.0000 0.0000
# 2 14.0465 82.2588 1.0147 0.0000 0.0000 0.0000
# 3 43.6906 1.0147 146.6380 0.0000 0.0000 0.0000
# 4 0.0000 0.0000 0.0000 31.3728 0.0000 0.0000
# 5 0.0000 0.0000 0.0000 0.0000 0.0444 0.0000
# 6 0.0000 0.0000 0.0000 0.0000 0.0000 45.4745
#
#
#
# Elastic Compliance Matrix: (Units=1/GPa)
#
#
# Indices 1 2 3 4 5 6 
#
# 1 0.012639 -0.002112 -0.003751 0.000000 0.000000 0.000000
# 2 -0.002112 0.012511 0.000543 0.000000 0.000000 0.000000
# 3 -0.003751 0.000543 0.007933 0.000000 0.000000 0.000000
# 4 0.000000 0.000000 0.000000 0.031875 0.000000 0.000000
# 5 0.000000 0.000000 0.000000 0.000000 22.509203 0.000000
# 6 0.000000 0.000000 0.000000 0.000000 0.000000 0.021990
#
#
# Mechanical properties :
#
#
# Convention : Reuss Voigt Hill
#
# Bulk Modulus (GPa) = 44.55882 48.98162 46.77022
# Shear Modulus (GPa) = 0.22110 33.01694 16.61902
#
# Velocity S-wave (km/s) = 0.31902 3.89846 2.76584
# Velocity P-wave (km/s) = 4.54384 6.54298 5.63281
#
# Compressibility (1/GPa) = 0.02244225
#
# Stress axis : x y z
#
# Youngs Moduli (GPa) = 79.11990 79.93158 126.04908
#
# Poissons Ratio (x) = 0.16881 0.47283
# Poissons Ratio (y) = 0.16710 -0.06841
# Poissons Ratio (z) = 0.29679 -0.04338
#
# Static dielectric constant tensor:
#      x y z
#    x 3.775120 0.000000 0.000000 
#    y 0.000000 3.969870 0.000000 
#    z 0.000000 0.000000 3.994020 
# 
# 
# High freq. dielectric constant tensor:
#      x y z
#    x 1.846180 0.000000 0.000000 
#    y 0.000000 1.870760 0.000000 
#    z 0.000000 0.000000 1.865080 
# 
# From -- ./inp_files/17278.got.cif
#   From: 2010.03.12/outbox.cif.g09.slc.cpg/sg72_9_cif.got.tgz:17278.got - 2010.04.16 14:54:00.
