data_PCOD8295783
_publ_section_title
;
Structure prediction by ZEFSAII (Michael W. Deem and Ramdas Pophale) SiO2 
 PCOD8295783
Probable space group: I B C A 
;
_chemical_formula_sum "Si O2"
_cell_formula_units_Z 80
_cell_length_a 13.724302
_cell_length_b 22.760950
_cell_length_c 13.047485
_cell_angle_alpha 90.000000
_cell_angle_beta 90.000000
_cell_angle_gamma 90.000000
_cell_volume 4075.749247
_symmetry_space_group_name_H-M "I B C A "
_symmetry_group_IT_number 73
_symmetry_cell_setting 'orthorhombic'
loop_
_space_group_symop_operation_xyz
x,y,z
-x,1/2-y,z
x,-y,1/2-z
1/2-x,y,-z
-x,-y,-z
x,1/2+y,-z
-x,y,1/2+z
1/2+x,-y,z
1/2+x,1/2+y,1/2+z
1/2-x,-y,1/2+z
1/2+x,1/2-y,-z
-x,1/2+y,1/2-z
1/2-x,1/2-y,1/2-z
1/2+x,y,1/2-z
1/2-x,1/2+y,z
x,1/2-y,1/2+z
loop_
_atom_site_type_symbol
_atom_site_label
_atom_site_fract_x
_atom_site_fract_y
_atom_site_fract_z
Si Si1 0.987383 0.831129 0.335581
Si Si2 0.142118 0.328663 0.964754
Si Si3 0.143831 0.463120 0.967371
Si Si4 0.363687 0.743980 0.264965
Si Si5 0.499220 0.035337 0.845774
O O1 0.937124 0.822117 0.445713
O O2 0.913363 0.808478 0.245528
O O3 0.087788 0.793891 0.328009
O O4 0.016922 0.897681 0.313361
O O5 0.145554 0.396192 0.925984
O O6 0.109906 0.286272 0.872587
O O7 0.250000 0.309529 0.000000
O O8 0.103357 0.506119 0.879398
O O9 0.250000 0.484975 0.000000
O O10 0.078162 0.469113 0.066640
O O11 0.250000 0.750000 0.250000
O O12 0.542087 0.000000 0.750000
#
# Coordination Sequence:
#
# PCOD8295783 Si02
#       5
#    16  16  16  16  16
#     4  10  23  39  62  90 122 159 207 253 316 366
#     4  10  19  39  64  85 123 164 201 261 312 367
#     4   9  20  37  61  90 121 161 203 245 314 375
#     4  11  22  39  62  89 121 163 213 247 308 379
#     4  10  20  39  62  89 124 156 201 254 306 368
#
# _framework density 19.628292999999999
#
# number of rings (size 3 to 8) (size 9 to 14) (size 15 to 20)
#    0.000    2.000    2.000    1.200    0.000    4.000 
#    3.600    0.000    0.000    0.000    0.000    0.000 
#    0.000    0.000    0.000    0.000    0.000    0.000 
#
# Total GULP energy -495893.847087 kJ/mol
# GULP energy per Si atom -12397.346177 kJ/mol
# Density = 1.958362 g / cm^3
# Si number density = 19.628293 Si / 1000 Ang^3
#
#
#
# Elastic Constant Matrix: (Units=GPa)
#
#
# Indices 1 2 3 4 5 6 
#
# 1 129.2301 48.5692 28.1645 0.0002 0.0000 0.0000
# 2 48.5692 128.7675 55.9732 -0.0001 0.0000 -0.0001
# 3 28.1645 55.9732 83.9102 0.0001 0.0000 -0.0001
# 4 0.0002 -0.0001 0.0001 36.1677 0.0000 -0.0001
# 5 0.0000 0.0000 0.0000 0.0000 22.7739 0.0000
# 6 0.0000 -0.0001 -0.0001 -0.0001 0.0000 31.2702
#
#
#
# Elastic Compliance Matrix: (Units=1/GPa)
#
#
# Indices 1 2 3 4 5 6 
#
# 1 0.009085 -0.002959 -0.001075 0.000000 0.000000 0.000000
# 2 -0.002959 0.011901 -0.006946 0.000000 0.000000 0.000000
# 3 -0.001075 -0.006946 0.016912 0.000000 0.000000 0.000000
# 4 0.000000 0.000000 0.000000 0.027649 0.000000 0.000000
# 5 0.000000 0.000000 0.000000 0.000000 0.043910 0.000000
# 6 0.000000 0.000000 0.000000 0.000000 0.000000 0.031979
#
#
# Mechanical properties :
#
#
# Convention : Reuss Voigt Hill
#
# Bulk Modulus (GPa) = 62.74598 67.48018 65.11308
# Shear Modulus (GPa) = 29.63698 31.98911 30.81305
#
# Velocity S-wave (km/s) = 3.88997 4.04139 3.96640
# Velocity P-wave (km/s) = 7.22581 7.49872 7.36353
#
# Compressibility (1/GPa) = 0.01593728
#
# Stress axis : x y z
#
# Youngs Moduli (GPa) = 110.07582 84.02489 59.13109
#
# Poissons Ratio (x) = 0.24864 0.06358
# Poissons Ratio (y) = 0.32573 0.41070
# Poissons Ratio (z) = 0.11837 0.58360
#
# Static dielectric constant tensor:
#      x y z
#    x 3.645360 0.000000 0.000000 
#    y 0.000000 3.907000 0.000000 
#    z 0.000000 0.000000 3.596440 
# 
# 
# High freq. dielectric constant tensor:
#      x y z
#    x 1.766730 0.000000 0.000000 
#    y 0.000000 1.769830 0.000000 
#    z 0.000000 0.000000 1.758170 
# 
# From -- ./inp_files/10832.got.cif
#   From: 2010.03.12/outbox.cif.g09.slc.cpg/sg73_6_cif.got.tgz:10832.got - 2010.04.16 15:25:48.
