data_PCOD8295327
_publ_section_title
;
Structure prediction by ZEFSAII (Michael W. Deem and Ramdas Pophale) SiO2 
 PCOD8295327
Probable space group: I B A M
;
_chemical_formula_sum "Si O2"
_cell_formula_units_Z 56
_cell_length_a 9.798002
_cell_length_b 14.018480
_cell_length_c 18.488207
_cell_angle_alpha 90.000000
_cell_angle_beta 90.000000
_cell_angle_gamma 90.000000
_cell_volume 2539.412454
_symmetry_space_group_name_H-M "I B A M"
_symmetry_group_IT_number 72
_symmetry_cell_setting 'orthorhombic'
loop_
_space_group_symop_operation_xyz
x,y,z
-x,-y,z
x,-y,1/2-z
-x,y,1/2-z
-x,-y,-z
x,y,-z
-x,y,1/2+z
x,-y,1/2+z
1/2+x,1/2+y,1/2+z
1/2-x,1/2-y,1/2+z
1/2+x,1/2-y,-z
1/2-x,1/2+y,-z
1/2-x,1/2-y,1/2-z
1/2+x,1/2+y,1/2-z
1/2-x,1/2+y,z
1/2+x,1/2-y,z
loop_
_atom_site_type_symbol
_atom_site_label
_atom_site_fract_x
_atom_site_fract_y
_atom_site_fract_z
Si Si1 0.323056 0.000000 0.750000
Si Si2 0.886821 0.608451 0.000000
Si Si3 0.925050 0.330891 0.345539
Si Si4 0.240628 0.337141 0.653282
Si Si5 0.709871 0.912663 0.000000
O O1 0.412750 0.931116 0.802792
O O2 0.230480 0.932645 0.699755
O O3 0.863678 0.666210 0.926380
O O4 0.768492 0.526724 0.000000
O O5 0.046010 0.582130 0.000000
O O6 0.836414 0.244771 0.312071
O O7 0.083518 0.303947 0.340984
O O8 0.274548 0.361385 0.569708
#
# Coordination Sequence:
#
# PCOD8295327 Si02
#       5
#     8   8  16  16   8
#     4  12  23  38  61  84 113 154 195 226 269 344
#     4   9  17  34  61  84 107 146 193 231 270 330
#     4  11  22  38  60  86 113 147 190 234 279 331
#     4  11  22  38  60  86 113 147 190 234 279 331
#     4   9  17  34  61  84 107 146 193 231 270 330
#
# _framework density 22.052344999999999
#
# number of rings (size 3 to 8) (size 9 to 14) (size 15 to 20)
#    0.000    1.429    2.857    4.286    0.000    0.000 
#    0.000    2.857    0.000    1.714    0.000    0.000 
#    0.000    0.000    0.000    0.000    0.000    0.000 
#
# Total GULP energy -346935.082199 kJ/mol
# GULP energy per Si atom -12390.538650 kJ/mol
# Density = 2.200215 g / cm^3
# Si number density = 22.052345 Si / 1000 Ang^3
#
#
#
# Elastic Constant Matrix: (Units=GPa)
#
#
# Indices 1 2 3 4 5 6 
#
# 1 56.9037 64.4805 36.5396 0.0000 0.0000 0.0000
# 2 64.4805 144.2569 52.4505 0.0000 0.0000 0.0000
# 3 36.5396 52.4505 138.8835 0.0000 0.0000 0.0000
# 4 0.0000 0.0000 0.0000 23.1435 0.0000 0.0000
# 5 0.0000 0.0000 0.0000 0.0000 -16.2251 0.0000
# 6 0.0000 0.0000 0.0000 0.0000 0.0000 24.7205
#
#
#
# Elastic Compliance Matrix: (Units=1/GPa)
#
#
# Indices 1 2 3 4 5 6 
#
# 1 0.037522 -0.015281 -0.004101 0.000000 0.000000 0.000000
# 2 -0.015281 0.014259 -0.001365 0.000000 0.000000 0.000000
# 3 -0.004101 -0.001365 0.008795 0.000000 0.000000 0.000000
# 4 0.000000 0.000000 0.000000 0.043209 0.000000 0.000000
# 5 0.000000 0.000000 0.000000 0.000000 -0.061633 0.000000
# 6 0.000000 0.000000 0.000000 0.000000 0.000000 0.040452
#
#
# Mechanical properties :
#
#
# Convention : Reuss Voigt Hill
#
# Bulk Modulus (GPa) = 52.40344 71.88726 62.14535
# Shear Modulus (GPa) = 38.32662 18.76599 28.54631
#
# Velocity S-wave (km/s) = 4.17344 2.92031 3.60179
# Velocity P-wave (km/s) = 6.85844 6.63628 6.74827
#
# Compressibility (1/GPa) = 0.01908272
#
# Stress axis : x y z
#
# Youngs Moduli (GPa) = 26.65068 70.13355 113.70652
#
# Poissons Ratio (x) = 1.07170 0.46632
# Poissons Ratio (y) = 0.40725 0.15516
# Poissons Ratio (z) = 0.10930 0.09570
#
# Static dielectric constant tensor:
#      x y z
#    x 3.244130 0.000000 0.000000 
#    y 0.000000 3.932690 0.000000 
#    z 0.000000 0.000000 4.530550 
# 
# 
# High freq. dielectric constant tensor:
#      x y z
#    x 1.808140 0.000000 0.000000 
#    y 0.000000 1.871400 0.000000 
#    z 0.000000 0.000000 1.901350 
# 
# From -- ./inp_files/35262.got.cif
#   From: 2010.03.12/outbox.cif.g09.slc.cpg/sg72_18_cif.got.tgz:35262.got - 2010.04.16 14:54:00.
