data_PCOD8295979
_publ_section_title
;
Structure prediction by ZEFSAII (Michael W. Deem and Ramdas Pophale) SiO2 
 PCOD8295979
Probable space group: I B C A 
;
_chemical_formula_sum "Si O2"
_cell_formula_units_Z 96
_cell_length_a 14.321082
_cell_length_b 20.868565
_cell_length_c 13.698583
_cell_angle_alpha 90.000000
_cell_angle_beta 90.000000
_cell_angle_gamma 90.000000
_cell_volume 4093.964414
_symmetry_space_group_name_H-M "I B C A "
_symmetry_group_IT_number 73
_symmetry_cell_setting 'orthorhombic'
loop_
_space_group_symop_operation_xyz
x,y,z
-x,1/2-y,z
x,-y,1/2-z
1/2-x,y,-z
-x,-y,-z
x,1/2+y,-z
-x,y,1/2+z
1/2+x,-y,z
1/2+x,1/2+y,1/2+z
1/2-x,-y,1/2+z
1/2+x,1/2-y,-z
-x,1/2+y,1/2-z
1/2-x,1/2-y,1/2-z
1/2+x,y,1/2-z
1/2-x,1/2+y,z
x,1/2-y,1/2+z
loop_
_atom_site_type_symbol
_atom_site_label
_atom_site_fract_x
_atom_site_fract_y
_atom_site_fract_z
Si Si1 0.650603 0.781915 0.949782
Si Si2 0.721402 0.861686 0.783884
Si Si3 0.176698 0.647122 0.585619
Si Si4 0.099812 0.611903 0.906345
Si Si5 0.062234 0.560277 0.305319
Si Si6 0.857415 0.519547 0.009583
O O1 0.664185 0.806318 0.839368
O O2 0.610170 0.708768 0.940164
O O3 0.750000 0.773425 0.000000
O O4 0.588231 0.829583 0.016407
O O5 0.769346 0.835962 0.685585
O O6 0.799202 0.889122 0.856766
O O7 0.645743 0.915973 0.763346
O O8 0.250000 0.634478 0.500000
O O9 0.123007 0.578496 0.587629
O O10 0.017223 0.614959 0.825132
O O11 0.084921 0.543163 0.958238
O O12 0.015836 0.500000 0.250000
O O13 0.107493 0.541928 0.406357
O O14 0.750000 0.498996 0.000000
#
# Coordination Sequence:
#
# PCOD8295979 Si02
#       6
#    16  16  16  16  16  16
#     4   9  20  42  69  94 127 176 225 284 342 419
#     4  11  22  42  69 100 133 183 233 283 354 420
#     4  10  20  38  71  96 130 176 223 274 349 412
#     4  11  25  42  66  97 142 177 233 286 352 409
#     4  12  25  39  65 101 138 185 237 290 344 424
#     4  11  21  41  66  96 132 180 223 280 349 418
#
# _framework density 23.449154
#
# number of rings (size 3 to 8) (size 9 to 14) (size 15 to 20)
#    0.000    1.333    3.333    4.500    2.333    0.000 
#    0.000    0.833    0.000    0.000    0.000    0.000 
#    0.000    0.000    0.000    0.000    0.000    0.000 
#
# Total GULP energy -594921.726772 kJ/mol
# GULP energy per Si atom -12394.202641 kJ/mol
# Density = 2.339578 g / cm^3
# Si number density = 23.449154 Si / 1000 Ang^3
#
#
#
# Elastic Constant Matrix: (Units=GPa)
#
#
# Indices 1 2 3 4 5 6 
#
# 1 49.8748 19.1158 -0.8230 0.0005 0.0000 0.0000
# 2 19.1158 148.5166 28.4221 -0.0015 -0.0001 -0.0001
# 3 -0.8230 28.4221 87.8420 -0.0030 -0.0001 -0.0001
# 4 0.0005 -0.0015 -0.0030 -70.9211 -0.0003 0.0003
# 5 0.0000 -0.0001 -0.0001 -0.0003 23.1584 0.0000
# 6 0.0000 -0.0001 -0.0001 0.0003 0.0000 19.2628
#
#
#
# Elastic Compliance Matrix: (Units=1/GPa)
#
#
# Indices 1 2 3 4 5 6 
#
# 1 0.021200 -0.002949 0.001153 0.000000 0.000000 0.000000
# 2 -0.002949 0.007588 -0.002483 0.000000 0.000000 0.000000
# 3 0.001153 -0.002483 0.012198 0.000000 0.000000 0.000000
# 4 0.000000 0.000000 0.000000 -0.014100 0.000000 0.000000
# 5 0.000000 0.000000 0.000000 0.000000 0.043181 0.000000
# 6 0.000000 0.000000 0.000000 0.000000 0.000000 0.051914
#
#
# Mechanical properties :
#
#
# Convention : Reuss Voigt Hill
#
# Bulk Modulus (GPa) = 30.83807 42.18481 36.51144
# Shear Modulus (GPa) = 35.37378 10.26791 22.82084
#
# Velocity S-wave (km/s) = 3.88819 2.09483 3.12301
# Velocity P-wave (km/s) = 5.77382 4.88672 5.34869
#
# Compressibility (1/GPa) = 0.03242745
#
# Stress axis : x y z
#
# Youngs Moduli (GPa) = 47.17066 131.78702 81.97919
#
# Poissons Ratio (x) = 0.38868 -0.09451
# Poissons Ratio (y) = 0.13912 0.20354
# Poissons Ratio (z) = -0.05438 0.32720
#
# Static dielectric constant tensor:
#      x y z
#    x 4.625330 0.000000 0.000000 
#    y 0.000000 4.733680 0.000000 
#    z 0.000000 0.000000 4.416110 
# 
# 
# High freq. dielectric constant tensor:
#      x y z
#    x 1.902340 0.000000 0.000000 
#    y 0.000000 1.933180 0.000000 
#    z 0.000000 0.000000 1.934750 
# 
# From -- ./inp_files/17028.got.cif
#   From: 2010.03.12/outbox.cif.g09.slc.cpg/sg73_9_cif.got.tgz:17028.got - 2010.04.16 15:25:48.
