data_PCOD8295818
_publ_section_title
;
Structure prediction by ZEFSAII (Michael W. Deem and Ramdas Pophale) SiO2 
 PCOD8295818
Probable space group: I B C A 
;
_chemical_formula_sum "Si O2"
_cell_formula_units_Z 104
_cell_length_a 19.951322
_cell_length_b 25.517611
_cell_length_c 9.676955
_cell_angle_alpha 90.000000
_cell_angle_beta 90.000000
_cell_angle_gamma 90.000000
_cell_volume 4926.635274
_symmetry_space_group_name_H-M "I B C A "
_symmetry_group_IT_number 73
_symmetry_cell_setting 'orthorhombic'
loop_
_space_group_symop_operation_xyz
x,y,z
-x,1/2-y,z
x,-y,1/2-z
1/2-x,y,-z
-x,-y,-z
x,1/2+y,-z
-x,y,1/2+z
1/2+x,-y,z
1/2+x,1/2+y,1/2+z
1/2-x,-y,1/2+z
1/2+x,1/2-y,-z
-x,1/2+y,1/2-z
1/2-x,1/2-y,1/2-z
1/2+x,y,1/2-z
1/2-x,1/2+y,z
x,1/2-y,1/2+z
loop_
_atom_site_type_symbol
_atom_site_label
_atom_site_fract_x
_atom_site_fract_y
_atom_site_fract_z
Si Si1 0.699795 0.511335 0.108194
Si Si2 0.882362 0.633422 0.178652
Si Si3 0.354228 0.382526 0.864451
Si Si4 0.531964 0.610011 0.329338
Si Si5 0.760654 0.299991 0.342405
Si Si6 0.977981 0.500000 0.250000
Si Si7 0.390487 0.437198 0.435933
O O1 0.740582 0.500000 0.250000
O O2 0.649715 0.555492 0.167377
O O3 0.750000 0.538049 0.000000
O O4 0.667417 0.459849 0.035591
O O5 0.837068 0.684871 0.199660
O O6 0.863067 0.591468 0.297657
O O7 0.962824 0.643043 0.174754
O O8 0.861533 0.614816 0.027943
O O9 0.418738 0.361564 0.780165
O O10 0.290515 0.348254 0.813970
O O11 0.522387 0.549799 0.285843
O O12 0.565510 0.606637 0.481603
O O13 0.750000 0.282182 0.500000
O O14 0.750000 0.250000 0.250000
O O15 0.933711 0.512964 0.385785
#
# Coordination Sequence:
#
# PCOD8295818 Si02
#       7
#    16  16  16  16  16   8  16
#     4  12  25  37  56  88 135 178 225 264 322 381
#     4  10  22  39  66  91 129 166 216 262 331 383
#     4  11  23  42  63  90 132 169 210 274 326 385
#     4  11  20  37  59  93 126 176 216 268 315 389
#     4  10  24  47  72  95 121 166 214 278 339 393
#     4  10  20  32  56  80 130 170 224 250 314 368
#     4  11  22  35  56  89 131 178 221 263 308 388
#
# _framework density 21.109741
#
# number of rings (size 3 to 8) (size 9 to 14) (size 15 to 20)
#    0.000    1.231    1.538    6.462    5.385    1.231 
#    0.000    0.769    0.000    3.692    0.000    0.000 
#    0.000    0.000    0.000    0.000    0.000    0.000 
#
# Total GULP energy -644182.901195 kJ/mol
# GULP energy per Si atom -12388.132715 kJ/mol
# Density = 2.106169 g / cm^3
# Si number density = 21.109741 Si / 1000 Ang^3
#
#
#
# Elastic Constant Matrix: (Units=GPa)
#
#
# Indices 1 2 3 4 5 6 
#
# 1 129.7448 49.3948 56.0873 0.0000 0.0000 0.0000
# 2 49.3948 78.6082 49.2467 0.0000 0.0000 0.0000
# 3 56.0873 49.2467 129.3877 0.0000 0.0000 0.0000
# 4 0.0000 0.0000 0.0000 30.0655 0.0000 0.0000
# 5 0.0000 0.0000 0.0000 0.0000 35.0460 0.0000
# 6 0.0000 0.0000 0.0000 0.0000 0.0000 24.2924
#
#
#
# Elastic Compliance Matrix: (Units=1/GPa)
#
#
# Indices 1 2 3 4 5 6 
#
# 1 0.010835 -0.005076 -0.002765 0.000000 0.000000 0.000000
# 2 -0.005076 0.019083 -0.005063 0.000000 0.000000 0.000000
# 3 -0.002765 -0.005063 0.010854 0.000000 0.000000 0.000000
# 4 0.000000 0.000000 0.000000 0.033261 0.000000 0.000000
# 5 0.000000 0.000000 0.000000 0.000000 0.028534 0.000000
# 6 0.000000 0.000000 0.000000 0.000000 0.000000 0.041165
#
#
# Mechanical properties :
#
#
# Convention : Reuss Voigt Hill
#
# Bulk Modulus (GPa) = 66.82465 71.91094 69.36779
# Shear Modulus (GPa) = 28.64873 30.08156 29.36515
#
# Velocity S-wave (km/s) = 3.68793 3.77902 3.73375
# Velocity P-wave (km/s) = 7.06109 7.29250 7.17773
#
# Compressibility (1/GPa) = 0.01496454
#
# Stress axis : x y z
#
# Youngs Moduli (GPa) = 92.29140 52.40307 92.13121
#
# Poissons Ratio (x) = 0.26602 0.25472
# Poissons Ratio (y) = 0.46851 0.46643
# Poissons Ratio (z) = 0.25516 0.26530
#
# Static dielectric constant tensor:
#      x y z
#    x 4.185150 0.000000 0.000000 
#    y 0.000000 3.436940 0.000000 
#    z 0.000000 0.000000 4.107710 
# 
# 
# High freq. dielectric constant tensor:
#      x y z
#    x 1.833410 0.000000 0.000000 
#    y 0.000000 1.770280 0.000000 
#    z 0.000000 0.000000 1.855030 
# 
# From -- ./inp_files/6691.got.cif
#   From: 2010.03.12/outbox.cif.g09.slc.cpg/sg73_4_cif.got.tgz:6691.got - 2010.04.16 15:25:48.
