data_PCOD8295026
_publ_section_title
;
Structure prediction by ZEFSAII (Michael W. Deem and Ramdas Pophale) SiO2 
 PCOD8295026
Probable space group: I B A M
;
_chemical_formula_sum "Si O2"
_cell_formula_units_Z 116
_cell_length_a 12.869594
_cell_length_b 24.911607
_cell_length_c 17.595794
_cell_angle_alpha 90.000000
_cell_angle_beta 90.000000
_cell_angle_gamma 90.000000
_cell_volume 5641.251463
_symmetry_space_group_name_H-M "I B A M"
_symmetry_group_IT_number 72
_symmetry_cell_setting 'orthorhombic'
loop_
_space_group_symop_operation_xyz
x,y,z
-x,-y,z
x,-y,1/2-z
-x,y,1/2-z
-x,-y,-z
x,y,-z
-x,y,1/2+z
x,-y,1/2+z
1/2+x,1/2+y,1/2+z
1/2-x,1/2-y,1/2+z
1/2+x,1/2-y,-z
1/2-x,1/2+y,-z
1/2-x,1/2-y,1/2-z
1/2+x,1/2+y,1/2-z
1/2-x,1/2+y,z
1/2+x,1/2-y,z
loop_
_atom_site_type_symbol
_atom_site_label
_atom_site_fract_x
_atom_site_fract_y
_atom_site_fract_z
Si Si1 0.990952 0.386136 0.839780
Si Si2 0.385392 0.790306 0.409964
Si Si3 0.347901 0.585302 0.694528
Si Si4 0.688601 0.054826 0.089946
Si Si5 0.968428 0.192301 0.827132
Si Si6 0.827255 0.843689 0.912909
Si Si7 0.000000 0.000000 0.250000
Si Si8 0.774497 0.438753 0.154574
O O1 0.978558 0.327069 0.876472
O O2 0.890335 0.419660 0.860787
O O3 0.000000 0.380591 0.750000
O O4 0.085064 0.418336 0.877685
O O5 0.393569 0.791740 0.500000
O O6 0.399074 0.729879 0.380436
O O7 0.272533 0.810587 0.381801
O O8 0.287587 0.591003 0.613680
O O9 0.403498 0.641907 0.704893
O O10 0.431416 0.537066 0.694477
O O11 0.262642 0.573336 0.759857
O O12 0.720695 0.000742 0.133885
O O13 0.679059 0.046877 0.000000
O O14 0.000000 0.224086 0.750000
O O15 0.069811 0.173298 0.870663
O O16 0.804759 0.906975 0.900805
O O17 0.846298 0.830812 0.000000
#
# Coordination Sequence:
#
# PCOD8295026 Si02
#       8
#    16  16  16  16  16  16   4  16
#     4  11  23  41  70 101 133 181 228 277 341 423
#     4  10  24  44  66  95 138 180 224 288 352 411
#     4  12  24  42  68  97 130 175 230 277 333 404
#     4  12  26  41  66 105 144 178 224 290 351 411
#     4  12  24  41  68 101 128 177 234 285 339 410
#     4  10  22  42  66  94 131 177 226 279 350 419
#     4  12  20  44  70  86 124 184 222 284 330 398
#     4  11  21  43  67  95 135 181 223 275 340 414
#
# _framework density 20.562812999999998
#
# number of rings (size 3 to 8) (size 9 to 14) (size 15 to 20)
#    0.000    0.828    4.828    2.069    0.000    5.517 
#    0.000    1.724    0.000    0.000    0.000    0.000 
#    0.000    0.000    0.000    0.000    0.000    0.000 
#
# Total GULP energy -719072.139147 kJ/mol
# GULP energy per Si atom -12397.795503 kJ/mol
# Density = 2.051601 g / cm^3
# Si number density = 20.562813 Si / 1000 Ang^3
#
#
#
# Elastic Constant Matrix: (Units=GPa)
#
#
# Indices 1 2 3 4 5 6 
#
# 1 101.5354 41.1219 38.2665 0.0000 0.0000 0.0000
# 2 41.1219 101.2564 35.4299 -0.0001 0.0000 0.0000
# 3 38.2665 35.4299 109.1499 -0.0001 0.0000 0.0000
# 4 0.0000 -0.0001 -0.0001 29.0874 0.0000 0.0000
# 5 0.0000 0.0000 0.0000 0.0000 25.4570 0.0000
# 6 0.0000 0.0000 0.0000 0.0000 0.0000 20.2985
#
#
#
# Elastic Compliance Matrix: (Units=1/GPa)
#
#
# Indices 1 2 3 4 5 6 
#
# 1 0.012667 -0.004051 -0.003126 0.000000 0.000000 0.000000
# 2 -0.004051 0.012437 -0.002617 0.000000 0.000000 0.000000
# 3 -0.003126 -0.002617 0.011107 0.000000 0.000000 0.000000
# 4 0.000000 0.000000 0.000000 0.034379 0.000000 0.000000
# 5 0.000000 0.000000 0.000000 0.000000 0.039282 0.000000
# 6 0.000000 0.000000 0.000000 0.000000 0.000000 0.049265
#
#
# Mechanical properties :
#
#
# Convention : Reuss Voigt Hill
#
# Bulk Modulus (GPa) = 60.15427 60.17534 60.16481
# Shear Modulus (GPa) = 27.13475 28.11014 27.62244
#
# Velocity S-wave (km/s) = 3.63657 3.70136 3.66911
# Velocity P-wave (km/s) = 6.85203 6.89887 6.87549
#
# Compressibility (1/GPa) = 0.01662392
#
# Stress axis : x y z
#
# Youngs Moduli (GPa) = 78.94229 80.40809 90.03219
#
# Poissons Ratio (x) = 0.32570 0.28146
# Poissons Ratio (y) = 0.31976 0.23560
# Poissons Ratio (z) = 0.24679 0.21041
#
# Static dielectric constant tensor:
#      x y z
#    x 3.954290 0.000000 0.000000 
#    y 0.000000 3.857610 0.000000 
#    z 0.000000 0.000000 3.774520 
# 
# 
# High freq. dielectric constant tensor:
#      x y z
#    x 1.816880 0.000000 0.000000 
#    y 0.000000 1.804860 0.000000 
#    z 0.000000 0.000000 1.807200 
# 
# From -- ./inp_files/29718.got.cif
#   From: 2010.03.12/outbox.cif.g09.slc.cpg/sg72_15_cif.got.tgz:29718.got - 2010.04.16 14:54:00.
