data_PCOD8295358
_publ_section_title
;
Structure prediction by ZEFSAII (Michael W. Deem and Ramdas Pophale) SiO2 
 PCOD8295358
Probable space group: I B A M
;
_chemical_formula_sum "Si O2"
_cell_formula_units_Z 88
_cell_length_a 17.407025
_cell_length_b 17.471223
_cell_length_c 14.307825
_cell_angle_alpha 90.000000
_cell_angle_beta 90.000000
_cell_angle_gamma 90.000000
_cell_volume 4351.324577
_symmetry_space_group_name_H-M "I B A M"
_symmetry_group_IT_number 72
_symmetry_cell_setting 'orthorhombic'
loop_
_space_group_symop_operation_xyz
x,y,z
-x,-y,z
x,-y,1/2-z
-x,y,1/2-z
-x,-y,-z
x,y,-z
-x,y,1/2+z
x,-y,1/2+z
1/2+x,1/2+y,1/2+z
1/2-x,1/2-y,1/2+z
1/2+x,1/2-y,-z
1/2-x,1/2+y,-z
1/2-x,1/2-y,1/2-z
1/2+x,1/2+y,1/2-z
1/2-x,1/2+y,z
1/2+x,1/2-y,z
loop_
_atom_site_type_symbol
_atom_site_label
_atom_site_fract_x
_atom_site_fract_y
_atom_site_fract_z
Si Si1 0.468479 0.737085 0.000000
Si Si2 0.773215 0.451930 0.500000
Si Si3 0.951141 0.333590 0.841983
Si Si4 0.779645 0.306472 0.174706
Si Si5 0.210616 0.728633 0.500000
Si Si6 0.938942 0.931807 0.000000
Si Si7 0.185416 0.960460 0.345935
Si Si8 0.425620 0.952194 0.500000
O O1 0.503005 0.773003 0.094419
O O2 0.377377 0.747081 0.000000
O O3 0.487270 0.646892 0.000000
O O4 0.784332 0.361994 0.500000
O O5 0.728879 0.475819 0.593324
O O6 0.854824 0.491597 0.500000
O O7 0.870387 0.302455 0.806702
O O8 0.926963 0.405201 0.904689
O O9 0.000000 0.356483 0.750000
O O10 0.750000 0.250000 0.250000
O O11 0.758926 0.266559 0.080079
O O12 0.742959 0.391102 0.178701
O O13 0.887759 0.932512 0.905712
O O14 0.000000 0.000000 0.000000
O O15 0.157267 0.000000 0.250000
O O16 0.500000 0.000000 0.500000
#
# Coordination Sequence:
#
# PCOD8295358 Si02
#       8
#     8   8  16  16   8   8  16   8
#     4  11  23  45  71  97 141 179 226 288 349 419
#     4  11  22  43  66 101 136 172 230 277 344 414
#     4  11  25  43  67 104 137 177 230 282 349 419
#     4  12  24  43  70  97 134 180 227 282 340 409
#     4  12  22  42  71  97 130 181 224 275 340 416
#     4  11  26  47  68  96 142 181 227 294 348 402
#     4  11  24  44  70 100 135 178 234 285 339 414
#     4  11  23  43  66  93 142 183 212 279 351 406
#
# _framework density 20.223725999999999
#
# number of rings (size 3 to 8) (size 9 to 14) (size 15 to 20)
#    0.000    0.727    3.636    4.909    0.000    6.545 
#    0.000    0.000    0.000    0.000    0.000    0.000 
#    0.000    0.000    0.000    0.000    0.000    0.000 
#
# Total GULP energy -545480.837116 kJ/mol
# GULP energy per Si atom -12397.291753 kJ/mol
# Density = 2.017770 g / cm^3
# Si number density = 20.223726 Si / 1000 Ang^3
#
#
#
# Elastic Constant Matrix: (Units=GPa)
#
#
# Indices 1 2 3 4 5 6 
#
# 1 71.5750 -19.1695 -8.2966 0.0000 0.0000 0.0000
# 2 -19.1695 85.6442 1.0936 0.0000 0.0000 0.0000
# 3 -8.2966 1.0936 105.8632 0.0000 0.0000 0.0000
# 4 0.0000 0.0000 0.0000 28.7747 0.0000 0.0000
# 5 0.0000 0.0000 0.0000 0.0000 32.3392 0.0000
# 6 0.0000 0.0000 0.0000 0.0000 0.0000 18.9061
#
#
#
# Elastic Compliance Matrix: (Units=1/GPa)
#
#
# Indices 1 2 3 4 5 6 
#
# 1 0.014999 0.003343 0.001141 0.000000 0.000000 0.000000
# 2 0.003343 0.012423 0.000134 0.000000 0.000000 0.000000
# 3 0.001141 0.000134 0.009534 0.000000 0.000000 0.000000
# 4 0.000000 0.000000 0.000000 0.034753 0.000000 0.000000
# 5 0.000000 0.000000 0.000000 0.000000 0.030922 0.000000
# 6 0.000000 0.000000 0.000000 0.000000 0.000000 0.052893
#
#
# Mechanical properties :
#
#
# Convention : Reuss Voigt Hill
#
# Bulk Modulus (GPa) = 21.64973 23.37084 22.51029
# Shear Modulus (GPa) = 30.92413 35.30099 33.11256
#
# Velocity S-wave (km/s) = 3.91461 4.18248 4.05076
# Velocity P-wave (km/s) = 5.58217 5.90808 5.74744
#
# Compressibility (1/GPa) = 0.04618994
#
# Stress axis : x y z
#
# Youngs Moduli (GPa) = 66.67190 80.49805 104.88568
#
# Poissons Ratio (x) = -0.26907 -0.11967
# Poissons Ratio (y) = -0.22286 -0.01402
# Poissons Ratio (z) = -0.07607 -0.01076
#
# Static dielectric constant tensor:
#      x y z
#    x 3.165430 0.000000 0.000000 
#    y 0.000000 3.826260 0.000000 
#    z 0.000000 0.000000 3.903700 
# 
# 
# High freq. dielectric constant tensor:
#      x y z
#    x 1.802150 0.000000 0.000000 
#    y 0.000000 1.800610 0.000000 
#    z 0.000000 0.000000 1.806180 
# 
# From -- ./inp_files/23251.got.cif
#   From: 2010.03.12/outbox.cif.g09.slc.cpg/sg72_12_cif.got.tgz:23251.got - 2010.04.16 14:54:00.
