data_PCOD8295616
_publ_section_title
;
Structure prediction by ZEFSAII (Michael W. Deem and Ramdas Pophale) SiO2 
 PCOD8295616
Probable space group: I B C A 
;
_chemical_formula_sum "Si O2"
_cell_formula_units_Z 120
_cell_length_a 26.654669
_cell_length_b 29.986342
_cell_length_c 7.928439
_cell_angle_alpha 90.000000
_cell_angle_beta 90.000000
_cell_angle_gamma 90.000000
_cell_volume 6337.011173
_symmetry_space_group_name_H-M "I B C A "
_symmetry_group_IT_number 73
_symmetry_cell_setting 'orthorhombic'
loop_
_space_group_symop_operation_xyz
x,y,z
-x,1/2-y,z
x,-y,1/2-z
1/2-x,y,-z
-x,-y,-z
x,1/2+y,-z
-x,y,1/2+z
1/2+x,-y,z
1/2+x,1/2+y,1/2+z
1/2-x,-y,1/2+z
1/2+x,1/2-y,-z
-x,1/2+y,1/2-z
1/2-x,1/2-y,1/2-z
1/2+x,y,1/2-z
1/2-x,1/2+y,z
x,1/2-y,1/2+z
loop_
_atom_site_type_symbol
_atom_site_label
_atom_site_fract_x
_atom_site_fract_y
_atom_site_fract_z
Si Si1 0.759454 0.674112 0.186808
Si Si2 0.250000 0.611198 0.000000
Si Si3 0.985721 0.896320 0.490326
Si Si4 0.357576 0.602039 0.946014
Si Si5 0.071277 0.856899 0.299477
Si Si6 0.150957 0.305962 0.245928
Si Si7 0.557663 0.050462 0.695477
Si Si8 0.365973 0.713656 0.372524
O O1 0.764584 0.638387 0.333665
O O2 0.710491 0.703960 0.228011
O O3 0.810031 0.702715 0.191984
O O4 0.750000 0.652417 0.000000
O O5 0.199297 0.583536 0.034695
O O6 0.947554 0.880613 0.631122
O O7 0.951965 0.913062 0.338625
O O8 0.024490 0.856653 0.432307
O O9 0.018187 0.939296 0.547341
O O10 0.359543 0.646237 0.828830
O O11 0.385853 0.560182 0.864269
O O12 0.382756 0.614320 0.124908
O O13 0.092152 0.808214 0.250381
O O14 0.127540 0.267158 0.363343
O O15 0.124988 0.303808 0.062065
O O16 0.552012 0.000000 0.750000
#
# Coordination Sequence:
#
# PCOD8295616 Si02
#       8
#    16   8  16  16  16  16  16  16
#     4   9  19  31  48  80 112 147 191 233 272 318
#     4  10  18  34  56  78 118 150 190 232 276 340
#     4   9  20  35  57  86 110 136 180 233 290 334
#     4  10  20  35  55  81 110 150 186 223 291 335
#     4  10  19  35  57  79 110 146 179 230 276 339
#     4  10  21  31  50  78 112 149 184 231 267 320
#     4  10  19  35  60  86 110 138 177 233 291 347
#     4  11  19  32  51  77 111 147 189 225 277 324
#
# _framework density 18.936371000000001
#
# number of rings (size 3 to 8) (size 9 to 14) (size 15 to 20)
#    0.000    2.133    1.333    2.400    1.867    0.000 
#    1.200    0.000    0.000   28.800    0.000    0.000 
#    0.000    0.000    0.000    0.000    0.000    0.000 
#
# Total GULP energy -743510.365014 kJ/mol
# GULP energy per Si atom -12391.839417 kJ/mol
# Density = 1.889327 g / cm^3
# Si number density = 18.936371 Si / 1000 Ang^3
#
#
#
# Elastic Constant Matrix: (Units=GPa)
#
#
# Indices 1 2 3 4 5 6 
#
# 1 91.0942 25.1570 28.4695 0.0000 0.0000 0.0000
# 2 25.1570 49.8220 6.1326 0.0000 0.0000 0.0000
# 3 28.4695 6.1326 73.6977 0.0000 0.0000 0.0000
# 4 0.0000 0.0000 0.0000 20.5783 0.0000 0.0000
# 5 0.0000 0.0000 0.0000 0.0000 31.4939 0.0000
# 6 0.0000 0.0000 0.0000 0.0000 0.0000 11.9465
#
#
#
# Elastic Compliance Matrix: (Units=1/GPa)
#
#
# Indices 1 2 3 4 5 6 
#
# 1 0.014375 -0.006643 -0.005000 0.000000 0.000000 0.000000
# 2 -0.006643 0.023349 0.000623 0.000000 0.000000 0.000000
# 3 -0.005000 0.000623 0.015449 0.000000 0.000000 0.000000
# 4 0.000000 0.000000 0.000000 0.048595 0.000000 0.000000
# 5 0.000000 0.000000 0.000000 0.000000 0.031752 0.000000
# 6 0.000000 0.000000 0.000000 0.000000 0.000000 0.083706
#
#
# Mechanical properties :
#
#
# Convention : Reuss Voigt Hill
#
# Bulk Modulus (GPa) = 32.12061 37.12580 34.62320
# Shear Modulus (GPa) = 20.02857 23.12741 21.57799
#
# Velocity S-wave (km/s) = 3.25572 3.49853 3.37931
# Velocity P-wave (km/s) = 5.57962 5.99731 5.79223
#
# Compressibility (1/GPa) = 0.03113266
#
# Stress axis : x y z
#
# Youngs Moduli (GPa) = 69.56559 42.82834 64.73033
#
# Poissons Ratio (x) = 0.28451 0.32367
# Poissons Ratio (y) = 0.46212 -0.04034
# Poissons Ratio (z) = 0.34785 -0.02669
#
# Static dielectric constant tensor:
#      x y z
#    x 3.705140 0.000000 0.000000 
#    y 0.000000 2.942510 0.000000 
#    z 0.000000 0.000000 3.722840 
# 
# 
# High freq. dielectric constant tensor:
#      x y z
#    x 1.742280 0.000000 0.000000 
#    y 0.000000 1.681500 0.000000 
#    z 0.000000 0.000000 1.755590 
# 
# From -- ./inp_files/8143.got.cif
#   From: 2010.03.12/outbox.cif.g09.slc.cpg/sg73_5_cif.got.tgz:8143.got - 2010.04.16 15:25:48.
