data_PCOD8295807
_publ_section_title
;
Structure prediction by ZEFSAII (Michael W. Deem and Ramdas Pophale) SiO2 
 PCOD8295807
Probable space group: I B C A 
;
_chemical_formula_sum "Si O2"
_cell_formula_units_Z 80
_cell_length_a 8.679411
_cell_length_b 21.927834
_cell_length_c 20.444637
_cell_angle_alpha 90.000000
_cell_angle_beta 90.000000
_cell_angle_gamma 90.000000
_cell_volume 3891.037290
_symmetry_space_group_name_H-M "I B C A "
_symmetry_group_IT_number 73
_symmetry_cell_setting 'orthorhombic'
loop_
_space_group_symop_operation_xyz
x,y,z
-x,1/2-y,z
x,-y,1/2-z
1/2-x,y,-z
-x,-y,-z
x,1/2+y,-z
-x,y,1/2+z
1/2+x,-y,z
1/2+x,1/2+y,1/2+z
1/2-x,-y,1/2+z
1/2+x,1/2-y,-z
-x,1/2+y,1/2-z
1/2-x,1/2-y,1/2-z
1/2+x,y,1/2-z
1/2-x,1/2+y,z
x,1/2-y,1/2+z
loop_
_atom_site_type_symbol
_atom_site_label
_atom_site_fract_x
_atom_site_fract_y
_atom_site_fract_z
Si Si1 0.500000 0.750000 0.238005
Si Si2 0.003103 0.000000 0.250000
Si Si3 0.695236 0.080580 0.569179
Si Si4 0.254739 0.080022 0.694830
Si Si5 0.739218 0.170538 0.692687
Si Si6 0.663362 0.049670 0.065352
O O1 0.420481 0.797516 0.287902
O O2 0.377702 0.719554 0.187460
O O3 0.907370 0.948631 0.286479
O O4 0.108836 0.969978 0.195234
O O5 0.750000 0.110133 0.500000
O O6 0.717886 0.129457 0.627958
O O7 0.519142 0.059474 0.560724
O O8 0.797941 0.020829 0.583789
O O9 0.295261 0.133070 0.744148
O O10 0.260145 0.096793 0.618295
O O11 0.750000 0.068834 0.000000
#
# Coordination Sequence:
#
# PCOD8295807 Si02
#       6
#     8   8  16  16  16  16
#     4  10  24  42  62  86 108 144 206 270 300 328
#     4  10  20  30  52  88 118 144 192 226 266 354
#     4  11  23  39  59  88 125 160 191 231 290 359
#     4  11  20  34  56  85 118 156 188 228 283 345
#     4  11  23  41  63  85 115 152 201 253 301 343
#     4  11  22  35  55  90 131 160 190 226 276 360
#
# _framework density 20.560071000000001
#
# number of rings (size 3 to 8) (size 9 to 14) (size 15 to 20)
#    0.000    1.200    0.000    9.600    0.000    4.800 
#    0.000    1.000    0.000    4.800    0.000    0.000 
#    0.000    0.000    0.000    0.000    0.000    0.000 
#
# Total GULP energy -495670.745400 kJ/mol
# GULP energy per Si atom -12391.768635 kJ/mol
# Density = 2.051328 g / cm^3
# Si number density = 20.560071 Si / 1000 Ang^3
#
#
#
# Elastic Constant Matrix: (Units=GPa)
#
#
# Indices 1 2 3 4 5 6 
#
# 1 133.7112 44.8470 53.3518 0.0000 0.0000 0.0000
# 2 44.8470 65.2975 56.1960 0.0000 0.0000 0.0000
# 3 53.3518 56.1960 170.4268 0.0000 0.0000 0.0000
# 4 0.0000 0.0000 0.0000 27.9133 0.0000 0.0000
# 5 0.0000 0.0000 0.0000 0.0000 7.8256 0.0000
# 6 0.0000 0.0000 0.0000 0.0000 0.0000 37.4052
#
#
#
# Elastic Compliance Matrix: (Units=1/GPa)
#
#
# Indices 1 2 3 4 5 6 
#
# 1 0.009889 -0.005763 -0.001195 0.000000 0.000000 0.000000
# 2 -0.005763 0.024741 -0.006354 0.000000 0.000000 0.000000
# 3 -0.001195 -0.006354 0.008337 0.000000 0.000000 0.000000
# 4 0.000000 0.000000 0.000000 0.035825 0.000000 0.000000
# 5 0.000000 0.000000 0.000000 0.000000 0.127786 0.000000
# 6 0.000000 0.000000 0.000000 0.000000 0.000000 0.026734
#
#
# Mechanical properties :
#
#
# Convention : Reuss Voigt Hill
#
# Bulk Modulus (GPa) = 61.19175 75.35836 68.27506
# Shear Modulus (GPa) = 18.84069 28.96486 23.90277
#
# Velocity S-wave (km/s) = 3.03045 3.75746 3.41337
# Velocity P-wave (km/s) = 6.48628 7.45366 6.98673
#
# Compressibility (1/GPa) = 0.01634207
#
# Stress axis : x y z
#
# Youngs Moduli (GPa) = 101.12597 40.41916 119.94787
#
# Poissons Ratio (x) = 0.23293 0.14339
# Poissons Ratio (y) = 0.58277 0.76214
# Poissons Ratio (z) = 0.12089 0.25682
#
# Static dielectric constant tensor:
#      x y z
#    x 3.971280 0.000000 0.000000 
#    y 0.000000 3.669120 0.000000 
#    z 0.000000 0.000000 4.016600 
# 
# 
# High freq. dielectric constant tensor:
#      x y z
#    x 1.833190 0.000000 0.000000 
#    y 0.000000 1.770830 0.000000 
#    z 0.000000 0.000000 1.808360 
# 
# From -- ./inp_files/24760.got.cif
#   From: 2010.03.12/outbox.cif.g09.slc.cpg/sg73_13_cif.got.tgz:24760.got - 2010.04.16 15:25:48.
