data_PCOD8295833
_publ_section_title
;
Structure prediction by ZEFSAII (Michael W. Deem and Ramdas Pophale) SiO2 
 PCOD8295833
Probable space group: I B C A 
;
_chemical_formula_sum "Si O2"
_cell_formula_units_Z 104
_cell_length_a 24.436751
_cell_length_b 9.109518
_cell_length_c 27.265243
_cell_angle_alpha 90.000000
_cell_angle_beta 90.000000
_cell_angle_gamma 90.000000
_cell_volume 6069.434578
_symmetry_space_group_name_H-M "I B C A "
_symmetry_group_IT_number 73
_symmetry_cell_setting 'orthorhombic'
loop_
_space_group_symop_operation_xyz
x,y,z
-x,1/2-y,z
x,-y,1/2-z
1/2-x,y,-z
-x,-y,-z
x,1/2+y,-z
-x,y,1/2+z
1/2+x,-y,z
1/2+x,1/2+y,1/2+z
1/2-x,-y,1/2+z
1/2+x,1/2-y,-z
-x,1/2+y,1/2-z
1/2-x,1/2-y,1/2-z
1/2+x,y,1/2-z
1/2-x,1/2+y,z
x,1/2-y,1/2+z
loop_
_atom_site_type_symbol
_atom_site_label
_atom_site_fract_x
_atom_site_fract_y
_atom_site_fract_z
Si Si1 0.859896 0.462875 0.801904
Si Si2 0.964096 0.000000 0.250000
Si Si3 0.274515 0.251787 0.659247
Si Si4 0.500000 0.250000 0.318289
Si Si5 0.750000 0.989850 0.500000
Si Si6 0.188985 0.951042 0.303293
Si Si7 0.116507 0.751525 0.359060
Si Si8 0.203772 0.762544 0.436100
O O1 0.828965 0.500000 0.750000
O O2 0.922699 0.415745 0.788134
O O3 0.832798 0.331389 0.832545
O O4 0.857364 0.608134 0.834577
O O5 0.001132 0.889360 0.281571
O O6 0.281629 0.079321 0.666355
O O7 0.232054 0.317156 0.698945
O O8 0.250580 0.278902 0.605256
O O9 0.550975 0.251976 0.355775
O O10 0.787449 0.887566 0.465731
O O11 0.791621 0.093698 0.529975
O O12 0.170606 0.000000 0.250000
O O13 0.134222 0.898076 0.330154
O O14 0.142079 0.759235 0.413754
#
# Coordination Sequence:
#
# PCOD8295833 Si02
#       8
#    16   8  16   8   8  16  16  16
#     4   9  17  31  46  69 103 144 170 204 233 286
#     4   8  20  30  50  68 100 142 188 206 252 266
#     4  11  19  31  48  73 110 133 171 204 246 302
#     4  10  20  36  52  70 102 140 176 232 234 286
#     4  10  20  36  56  74 104 120 152 206 270 332
#     4  11  21  28  45  73 105 147 171 204 235 294
#     4  10  20  34  51  73 101 134 182 208 254 288
#     4  10  20  34  52  78  97 131 160 202 261 324
#
# _framework density 17.135038999999999
#
# number of rings (size 3 to 8) (size 9 to 14) (size 15 to 20)
#    0.462    1.538    0.000    6.462    1.077    0.000 
#    0.000    0.000    0.000    0.923    0.000    0.000 
#    0.000    0.000    0.000    0.000    0.000    0.000 
#
# Total GULP energy -644438.923138 kJ/mol
# GULP energy per Si atom -12393.056214 kJ/mol
# Density = 1.709604 g / cm^3
# Si number density = 17.135039 Si / 1000 Ang^3
#
#
#
# Elastic Constant Matrix: (Units=GPa)
#
#
# Indices 1 2 3 4 5 6 
#
# 1 93.0795 42.3665 40.3713 0.0000 0.0000 0.0000
# 2 42.3665 86.5328 36.8121 0.0000 0.0000 0.0000
# 3 40.3713 36.8121 91.3794 0.0000 0.0000 0.0000
# 4 0.0000 0.0000 0.0000 27.4799 0.0000 0.0000
# 5 0.0000 0.0000 0.0000 0.0000 35.6684 0.0000
# 6 0.0000 0.0000 0.0000 0.0000 0.0000 17.9059
#
#
#
# Elastic Compliance Matrix: (Units=1/GPa)
#
#
# Indices 1 2 3 4 5 6 
#
# 1 0.015211 -0.005538 -0.004490 0.000000 0.000000 0.000000
# 2 -0.005538 0.015962 -0.003984 0.000000 0.000000 0.000000
# 3 -0.004490 -0.003984 0.014532 0.000000 0.000000 0.000000
# 4 0.000000 0.000000 0.000000 0.036390 0.000000 0.000000
# 5 0.000000 0.000000 0.000000 0.000000 0.028036 0.000000
# 6 0.000000 0.000000 0.000000 0.000000 0.000000 0.055848
#
#
# Mechanical properties :
#
#
# Convention : Reuss Voigt Hill
#
# Bulk Modulus (GPa) = 56.55034 56.67684 56.61359
# Shear Modulus (GPa) = 25.01307 26.30695 25.66001
#
# Velocity S-wave (km/s) = 3.82483 3.92251 3.87397
# Velocity P-wave (km/s) = 7.25122 7.32551 7.28846
#
# Compressibility (1/GPa) = 0.01768336
#
# Stress axis : x y z
#
# Youngs Moduli (GPa) = 65.74095 62.64762 68.81477
#
# Poissons Ratio (x) = 0.34691 0.30894
# Poissons Ratio (y) = 0.36404 0.27415
# Poissons Ratio (z) = 0.29514 0.24958
#
# Static dielectric constant tensor:
#      x y z
#    x 3.008850 0.000000 0.000000 
#    y 0.000000 3.328190 0.000000 
#    z 0.000000 0.000000 3.128810 
# 
# 
# High freq. dielectric constant tensor:
#      x y z
#    x 1.637450 0.000000 0.000000 
#    y 0.000000 1.673110 0.000000 
#    z 0.000000 0.000000 1.642910 
# 
# From -- ./inp_files/32880.got.cif
#   From: 2010.03.12/outbox.cif.g09.slc.cpg/sg73_17_cif.got.tgz:32880.got - 2010.04.16 15:25:48.
