data_PCOD8295761
_publ_section_title
;
Structure prediction by ZEFSAII (Michael W. Deem and Ramdas Pophale) SiO2 
 PCOD8295761
Probable space group: I B C A 
;
_chemical_formula_sum "Si O2"
_cell_formula_units_Z 120
_cell_length_a 22.373577
_cell_length_b 15.973660
_cell_length_c 16.793839
_cell_angle_alpha 90.000000
_cell_angle_beta 90.000000
_cell_angle_gamma 90.000000
_cell_volume 6001.915054
_symmetry_space_group_name_H-M "I B C A "
_symmetry_group_IT_number 73
_symmetry_cell_setting 'orthorhombic'
loop_
_space_group_symop_operation_xyz
x,y,z
-x,1/2-y,z
x,-y,1/2-z
1/2-x,y,-z
-x,-y,-z
x,1/2+y,-z
-x,y,1/2+z
1/2+x,-y,z
1/2+x,1/2+y,1/2+z
1/2-x,-y,1/2+z
1/2+x,1/2-y,-z
-x,1/2+y,1/2-z
1/2-x,1/2-y,1/2-z
1/2+x,y,1/2-z
1/2-x,1/2+y,z
x,1/2-y,1/2+z
loop_
_atom_site_type_symbol
_atom_site_label
_atom_site_fract_x
_atom_site_fract_y
_atom_site_fract_z
Si Si1 0.255047 0.302139 0.828255
Si Si2 0.840282 0.237956 0.551804
Si Si3 0.350675 0.906739 0.426234
Si Si4 0.750000 0.492642 0.000000
Si Si5 0.439656 0.047686 0.483624
Si Si6 0.661138 0.117175 0.071098
Si Si7 0.055733 0.692042 0.359746
Si Si8 0.140409 0.400394 0.248037
O O1 0.250000 0.250000 0.750000
O O2 0.277175 0.239239 0.899404
O O3 0.188369 0.338738 0.849606
O O4 0.304423 0.374214 0.809964
O O5 0.857807 0.160808 0.496196
O O6 0.836197 0.322579 0.503345
O O7 0.893065 0.242347 0.615931
O O8 0.283345 0.938156 0.434011
O O9 0.355227 0.865784 0.338689
O O10 0.396412 0.984405 0.435740
O O11 0.794538 0.542308 0.055178
O O12 0.406841 0.079061 0.566990
O O13 0.458098 0.128286 0.431713
O O14 0.500000 0.000000 0.500000
O O15 0.078386 0.638026 0.284471
O O16 0.000000 0.750000 0.335597
O O17 0.137446 0.500000 0.250000
#
# Coordination Sequence:
#
# PCOD8295761 Si02
#       8
#    16  16  16   8  16  16  16  16
#     4  11  22  36  58  88 131 167 201 260 327 395
#     4  10  21  36  59  87 120 159 208 255 312 381
#     4  11  22  36  62  96 120 161 222 261 321 398
#     4  10  20  32  60  86 116 158 204 264 302 378
#     4  10  21  39  64  90 123 165 218 272 324 386
#     4  10  19  37  57  84 122 161 207 256 318 381
#     4  10  21  41  64  87 123 168 208 267 328 387
#     4  11  22  39  62  92 124 168 214 258 339 400
#
# _framework density 19.993617
#
# number of rings (size 3 to 8) (size 9 to 14) (size 15 to 20)
#    0.000    1.600    2.667    2.400    3.733    0.000 
#    0.000    6.000    0.000    0.000    0.000    0.000 
#    0.000    0.000    0.000    0.000    0.000    0.000 
#
# Total GULP energy -743307.348224 kJ/mol
# GULP energy per Si atom -12388.455804 kJ/mol
# Density = 1.994811 g / cm^3
# Si number density = 19.993617 Si / 1000 Ang^3
#
#
#
# Elastic Constant Matrix: (Units=GPa)
#
#
# Indices 1 2 3 4 5 6 
#
# 1 127.1144 43.8124 43.8072 0.0000 0.0000 0.0000
# 2 43.8124 88.3080 42.9776 0.0000 0.0000 0.0000
# 3 43.8072 42.9776 95.2254 0.0000 0.0000 0.0000
# 4 0.0000 0.0000 0.0000 35.8823 0.0000 0.0000
# 5 0.0000 0.0000 0.0000 0.0000 23.1673 0.0000
# 6 0.0000 0.0000 0.0000 0.0000 0.0000 6.0556
#
#
#
# Elastic Compliance Matrix: (Units=1/GPa)
#
#
# Indices 1 2 3 4 5 6 
#
# 1 0.010145 -0.003539 -0.003070 0.000000 0.000000 0.000000
# 2 -0.003539 0.015746 -0.005478 0.000000 0.000000 0.000000
# 3 -0.003070 -0.005478 0.014386 0.000000 0.000000 0.000000
# 4 0.000000 0.000000 0.000000 0.027869 0.000000 0.000000
# 5 0.000000 0.000000 0.000000 0.000000 0.043164 0.000000
# 6 0.000000 0.000000 0.000000 0.000000 0.000000 0.165135
#
#
# Mechanical properties :
#
#
# Convention : Reuss Voigt Hill
#
# Bulk Modulus (GPa) = 62.10256 63.53805 62.82031
# Shear Modulus (GPa) = 16.34055 25.02442 20.68249
#
# Velocity S-wave (km/s) = 2.86193 3.54166 3.21978
# Velocity P-wave (km/s) = 6.48456 6.96941 6.73135
#
# Compressibility (1/GPa) = 0.01610240
#
# Stress axis : x y z
#
# Youngs Moduli (GPa) = 98.57424 63.50753 69.51153
#
# Poissons Ratio (x) = 0.22476 0.21337
# Poissons Ratio (y) = 0.34887 0.38082
# Poissons Ratio (z) = 0.30258 0.34793
#
# Static dielectric constant tensor:
#      x y z
#    x 3.915050 0.000000 0.000000 
#    y 0.000000 3.858730 0.000000 
#    z 0.000000 0.000000 3.532630 
# 
# 
# High freq. dielectric constant tensor:
#      x y z
#    x 1.772980 0.000000 0.000000 
#    y 0.000000 1.789480 0.000000 
#    z 0.000000 0.000000 1.764900 
# 
# From -- ./inp_files/18264.got.cif
#   From: 2010.03.12/outbox.cif.g09.slc.cpg/sg73_10_cif.got.tgz:18264.got - 2010.04.16 15:25:48.
