data_PCOD8295842
_publ_section_title
;
Structure prediction by ZEFSAII (Michael W. Deem and Ramdas Pophale) SiO2 
 PCOD8295842
Probable space group: I B C A 
;
_chemical_formula_sum "Si O2"
_cell_formula_units_Z 80
_cell_length_a 32.943027
_cell_length_b 4.861603
_cell_length_c 24.015332
_cell_angle_alpha 90.000000
_cell_angle_beta 90.000000
_cell_angle_gamma 90.000000
_cell_volume 3846.197564
_symmetry_space_group_name_H-M "I B C A "
_symmetry_group_IT_number 73
_symmetry_cell_setting 'orthorhombic'
loop_
_space_group_symop_operation_xyz
x,y,z
-x,1/2-y,z
x,-y,1/2-z
1/2-x,y,-z
-x,-y,-z
x,1/2+y,-z
-x,y,1/2+z
1/2+x,-y,z
1/2+x,1/2+y,1/2+z
1/2-x,-y,1/2+z
1/2+x,1/2-y,-z
-x,1/2+y,1/2-z
1/2-x,1/2-y,1/2-z
1/2+x,y,1/2-z
1/2-x,1/2+y,z
x,1/2-y,1/2+z
loop_
_atom_site_type_symbol
_atom_site_label
_atom_site_fract_x
_atom_site_fract_y
_atom_site_fract_z
Si Si1 0.596790 0.199858 0.536034
Si Si2 0.096141 0.381731 0.191335
Si Si3 0.777001 0.969307 0.813644
Si Si4 0.139075 0.634107 0.647526
Si Si5 0.473304 0.011622 0.104959
O O1 0.606018 0.386532 0.481995
O O2 0.624101 0.330384 0.584475
O O3 0.549546 0.173477 0.554582
O O4 0.080180 0.500000 0.250000
O O5 0.135163 0.566919 0.175374
O O6 0.059422 0.407174 0.148728
O O7 0.111531 0.068589 0.186021
O O8 0.761581 0.663378 0.825846
O O9 0.792080 0.000000 0.750000
O O10 0.814412 0.037658 0.854046
O O11 0.500000 0.250000 0.133910
O O12 0.500000 0.750000 0.084771
#
# Coordination Sequence:
#
# PCOD8295842 Si02
#       5
#    16  16  16  16  16
#     4  11  23  40  61  83 109 152 202 248 297 338
#     4  11  22  37  59  84 115 157 193 228 285 354
#     4  10  20  34  57  89 120 149 180 222 283 346
#     4  11  22  39  60  85 118 151 194 240 280 345
#     4  11  23  38  56  84 117 148 193 248 299 352
#
# _framework density 20.799762000000001
#
# number of rings (size 3 to 8) (size 9 to 14) (size 15 to 20)
#    0.000    1.200    0.000    9.000    0.000    4.800 
#    0.000    0.000    0.000    3.600    0.000    0.000 
#    0.000    0.000    0.000    0.000    0.000    0.000 
#
# Total GULP energy -495691.881963 kJ/mol
# GULP energy per Si atom -12392.297049 kJ/mol
# Density = 2.075242 g / cm^3
# Si number density = 20.799762 Si / 1000 Ang^3
#
#
#
# Elastic Constant Matrix: (Units=GPa)
#
#
# Indices 1 2 3 4 5 6 
#
# 1 104.2323 29.2079 30.5399 0.0000 0.0000 0.0000
# 2 29.2079 87.7481 29.9804 0.0000 0.0000 0.0000
# 3 30.5399 29.9804 83.2177 0.0000 0.0000 0.0000
# 4 0.0000 0.0000 0.0000 35.2390 0.0000 0.0000
# 5 0.0000 0.0000 0.0000 0.0000 15.7421 0.0000
# 6 0.0000 0.0000 0.0000 0.0000 0.0000 32.8408
#
#
#
# Elastic Compliance Matrix: (Units=1/GPa)
#
#
# Indices 1 2 3 4 5 6 
#
# 1 0.011272 -0.002667 -0.003176 0.000000 0.000000 0.000000
# 2 -0.002667 0.013627 -0.003931 0.000000 0.000000 0.000000
# 3 -0.003176 -0.003931 0.014598 0.000000 0.000000 0.000000
# 4 0.000000 0.000000 0.000000 0.028378 0.000000 0.000000
# 5 0.000000 0.000000 0.000000 0.000000 0.063524 0.000000
# 6 0.000000 0.000000 0.000000 0.000000 0.000000 0.030450
#
#
# Mechanical properties :
#
#
# Convention : Reuss Voigt Hill
#
# Bulk Modulus (GPa) = 50.12447 50.51716 50.32081
# Shear Modulus (GPa) = 26.58935 29.12903 27.85919
#
# Velocity S-wave (km/s) = 3.57928 3.74632 3.66375
# Velocity P-wave (km/s) = 6.42126 6.56150 6.49176
#
# Compressibility (1/GPa) = 0.01995034
#
# Stress axis : x y z
#
# Youngs Moduli (GPa) = 88.71720 73.38435 68.50148
#
# Poissons Ratio (x) = 0.19571 0.21755
# Poissons Ratio (y) = 0.23660 0.26925
# Poissons Ratio (z) = 0.28175 0.28844
#
# Static dielectric constant tensor:
#      x y z
#    x 3.579250 0.000000 0.000000 
#    y 0.000000 4.031870 0.000000 
#    z 0.000000 0.000000 3.626670 
# 
# 
# High freq. dielectric constant tensor:
#      x y z
#    x 1.799580 0.000000 0.000000 
#    y 0.000000 1.842660 0.000000 
#    z 0.000000 0.000000 1.791110 
# 
# From -- ./inp_files/30598.got.cif
#   From: 2010.03.12/outbox.cif.g09.slc.cpg/sg73_16_cif.got.tgz:30598.got - 2010.04.16 15:25:48.
