data_PCOD8295086
_publ_section_title
;
Structure prediction by ZEFSAII (Michael W. Deem and Ramdas Pophale) SiO2 
 PCOD8295086
Probable space group: I B A M
;
_chemical_formula_sum "Si O2"
_cell_formula_units_Z 64
_cell_length_a 15.695306
_cell_length_b 12.130765
_cell_length_c 15.469872
_cell_angle_alpha 90.000000
_cell_angle_beta 90.000000
_cell_angle_gamma 90.000000
_cell_volume 2945.402812
_symmetry_space_group_name_H-M "I B A M"
_symmetry_group_IT_number 72
_symmetry_cell_setting 'orthorhombic'
loop_
_space_group_symop_operation_xyz
x,y,z
-x,-y,z
x,-y,1/2-z
-x,y,1/2-z
-x,-y,-z
x,y,-z
-x,y,1/2+z
x,-y,1/2+z
1/2+x,1/2+y,1/2+z
1/2-x,1/2-y,1/2+z
1/2+x,1/2-y,-z
1/2-x,1/2+y,-z
1/2-x,1/2-y,1/2-z
1/2+x,1/2+y,1/2-z
1/2-x,1/2+y,z
1/2+x,1/2-y,z
loop_
_atom_site_type_symbol
_atom_site_label
_atom_site_fract_x
_atom_site_fract_y
_atom_site_fract_z
Si Si1 0.845134 0.000000 0.750000
Si Si2 0.986569 0.270702 0.500000
Si Si3 0.424314 0.296164 0.684761
Si Si4 0.827824 0.284520 0.000000
Si Si5 0.272887 0.161644 0.356806
Si Si6 0.872574 0.461961 0.500000
O O1 0.906328 0.926346 0.809679
O O2 0.791535 0.913454 0.695413
O O3 0.942838 0.222381 0.415260
O O4 0.967702 0.404613 0.500000
O O5 0.081913 0.222460 0.500000
O O6 0.500000 0.259082 0.750000
O O7 0.338700 0.225050 0.707506
O O8 0.775738 0.254056 0.914143
O O9 0.865485 0.407528 0.000000
O O10 0.324220 0.077418 0.415250
#
# Coordination Sequence:
#
# PCOD8295086 Si02
#       6
#     8   8  16   8  16   8
#     4  12  23  40  63  92 130 172 216 260 315 380
#     4  10  23  41  64  93 128 167 212 267 319 374
#     4  11  24  43  64  94 131 168 212 265 321 381
#     4  11  20  40  66  91 124 166 214 265 317 379
#     4  10  23  39  63  92 123 166 213 264 317 379
#     4   9  20  39  62  90 120 159 210 262 324 381
#
# _framework density 21.728776
#
# number of rings (size 3 to 8) (size 9 to 14) (size 15 to 20)
#    0.000    1.500    0.000    5.250    0.000    4.000 
#    0.000    6.875    0.000    0.000    0.000    0.000 
#    0.000    0.000    0.000    0.000    0.000    0.000 
#
# Total GULP energy -396573.124032 kJ/mol
# GULP energy per Si atom -12392.910126 kJ/mol
# Density = 2.167932 g / cm^3
# Si number density = 21.728776 Si / 1000 Ang^3
#
#
#
# Elastic Constant Matrix: (Units=GPa)
#
#
# Indices 1 2 3 4 5 6 
#
# 1 127.5577 49.3054 38.8757 0.0000 0.0000 0.0000
# 2 49.3054 121.4126 58.7754 0.0000 0.0000 0.0000
# 3 38.8757 58.7754 108.5153 0.0000 0.0000 0.0000
# 4 0.0000 0.0000 0.0000 21.1082 0.0000 0.0000
# 5 0.0000 0.0000 0.0000 0.0000 32.8220 0.0000
# 6 0.0000 0.0000 0.0000 0.0000 0.0000 23.6450
#
#
#
# Elastic Compliance Matrix: (Units=1/GPa)
#
#
# Indices 1 2 3 4 5 6 
#
# 1 0.009549 -0.003011 -0.001790 0.000000 0.000000 0.000000
# 2 -0.003011 0.012113 -0.005482 0.000000 0.000000 0.000000
# 3 -0.001790 -0.005482 0.012826 0.000000 0.000000 0.000000
# 4 0.000000 0.000000 0.000000 0.047375 0.000000 0.000000
# 5 0.000000 0.000000 0.000000 0.000000 0.030467 0.000000
# 6 0.000000 0.000000 0.000000 0.000000 0.000000 0.042292
#
#
# Mechanical properties :
#
#
# Convention : Reuss Voigt Hill
#
# Bulk Modulus (GPa) = 71.83210 72.37762 72.10486
# Shear Modulus (GPa) = 27.80408 29.55031 28.67720
#
# Velocity S-wave (km/s) = 3.58103 3.69177 3.63682
# Velocity P-wave (km/s) = 7.08721 7.18012 7.13382
#
# Compressibility (1/GPa) = 0.01392135
#
# Stress axis : x y z
#
# Youngs Moduli (GPa) = 104.72195 82.55507 77.96806
#
# Poissons Ratio (x) = 0.24860 0.13956
# Poissons Ratio (y) = 0.31536 0.42742
# Poissons Ratio (z) = 0.18744 0.45257
#
# Static dielectric constant tensor:
#      x y z
#    x 4.349140 0.000000 0.000000 
#    y 0.000000 3.967050 0.000000 
#    z 0.000000 0.000000 3.830600 
# 
# 
# High freq. dielectric constant tensor:
#      x y z
#    x 1.876010 0.000000 0.000000 
#    y 0.000000 1.855510 0.000000 
#    z 0.000000 0.000000 1.851440 
# 
# From -- ./inp_files/22852.got.cif
#   From: 2010.03.12/outbox.cif.g09.slc.cpg/sg72_12_cif.got.tgz:22852.got - 2010.04.16 14:54:00.
