data_PCOD8295721
_publ_section_title
;
Structure prediction by ZEFSAII (Michael W. Deem and Ramdas Pophale) SiO2 
 PCOD8295721
Probable space group: I B C A 
;
_chemical_formula_sum "Si O2"
_cell_formula_units_Z 88
_cell_length_a 9.557296
_cell_length_b 14.216344
_cell_length_c 29.837013
_cell_angle_alpha 90.000000
_cell_angle_beta 90.000000
_cell_angle_gamma 90.000000
_cell_volume 4053.949217
_symmetry_space_group_name_H-M "I B C A "
_symmetry_group_IT_number 73
_symmetry_cell_setting 'orthorhombic'
loop_
_space_group_symop_operation_xyz
x,y,z
-x,1/2-y,z
x,-y,1/2-z
1/2-x,y,-z
-x,-y,-z
x,1/2+y,-z
-x,y,1/2+z
1/2+x,-y,z
1/2+x,1/2+y,1/2+z
1/2-x,-y,1/2+z
1/2+x,1/2-y,-z
-x,1/2+y,1/2-z
1/2-x,1/2-y,1/2-z
1/2+x,y,1/2-z
1/2-x,1/2+y,z
x,1/2-y,1/2+z
loop_
_atom_site_type_symbol
_atom_site_label
_atom_site_fract_x
_atom_site_fract_y
_atom_site_fract_z
Si Si1 0.513721 0.137746 0.298143
Si Si2 0.000000 0.250000 0.852842
Si Si3 0.000000 0.250000 0.055610
Si Si4 0.250000 0.693695 0.500000
Si Si5 0.564810 0.934673 0.609059
Si Si6 0.311980 0.336744 0.722640
Si Si7 0.368142 0.402178 0.084468
O O1 0.500000 0.250000 0.308421
O O2 0.461186 0.072519 0.338197
O O3 0.674396 0.104199 0.290556
O O4 0.421273 0.109347 0.254767
O O5 0.893123 0.308476 0.822343
O O6 0.905004 0.185767 0.884346
O O7 0.993104 0.158654 0.086044
O O8 0.140705 0.240554 0.026213
O O9 0.341667 0.629322 0.466626
O O10 0.728848 0.950542 0.603050
O O11 0.492616 0.023448 0.585876
O O12 0.250000 0.250000 0.750000
#
# Coordination Sequence:
#
# PCOD8295721 Si02
#       7
#    16   8   8   8  16  16  16
#     4  10  19  37  64  93 130 173 222 272 330 390
#     4  12  23  41  70  98 132 184 236 269 349 404
#     4  10  23  43  72  96 128 176 214 277 339 414
#     4  10  24  46  66 102 132 174 228 278 356 404
#     4  11  25  43  67 100 135 176 225 274 341 399
#     4  10  19  34  66  95 129 177 221 277 330 397
#     4  11  27  43  69  99 136 176 225 288 338 415
#
# _framework density 21.707228000000001
#
# number of rings (size 3 to 8) (size 9 to 14) (size 15 to 20)
#    0.000    1.455    3.636    2.727    5.091    5.091 
#    0.000    0.909    4.000    0.000    0.000    0.000 
#    0.000    0.000    0.000    0.000    0.000    0.000 
#
# Total GULP energy -545629.946727 kJ/mol
# GULP energy per Si atom -12400.680607 kJ/mol
# Density = 2.165782 g / cm^3
# Si number density = 21.707228 Si / 1000 Ang^3
#
#
#
# Elastic Constant Matrix: (Units=GPa)
#
#
# Indices 1 2 3 4 5 6 
#
# 1 168.8608 30.2868 57.4236 0.0000 0.0000 0.0000
# 2 30.2868 42.4703 24.8884 0.0000 0.0000 0.0000
# 3 57.4236 24.8884 138.6946 0.0000 0.0000 0.0000
# 4 0.0000 0.0000 0.0000 6.5362 0.0000 0.0000
# 5 0.0000 0.0000 0.0000 0.0000 44.4457 0.0000
# 6 0.0000 0.0000 0.0000 0.0000 0.0000 35.1358
#
#
#
# Elastic Compliance Matrix: (Units=1/GPa)
#
#
# Indices 1 2 3 4 5 6 
#
# 1 0.007431 -0.003907 -0.002375 0.000000 0.000000 0.000000
# 2 -0.003907 0.028367 -0.003473 0.000000 0.000000 0.000000
# 3 -0.002375 -0.003473 0.008817 0.000000 0.000000 0.000000
# 4 0.000000 0.000000 0.000000 0.152995 0.000000 0.000000
# 5 0.000000 0.000000 0.000000 0.000000 0.022499 0.000000
# 6 0.000000 0.000000 0.000000 0.000000 0.000000 0.028461
#
#
# Mechanical properties :
#
#
# Convention : Reuss Voigt Hill
#
# Bulk Modulus (GPa) = 39.83399 63.91370 51.87384
# Shear Modulus (GPa) = 18.08656 33.05199 25.56927
#
# Velocity S-wave (km/s) = 2.88966 3.90632 3.43580
# Velocity P-wave (km/s) = 5.43359 7.06068 6.29988
#
# Compressibility (1/GPa) = 0.02510419
#
# Stress axis : x y z
#
# Youngs Moduli (GPa) = 134.57924 35.25201 113.42048
#
# Poissons Ratio (x) = 0.13773 0.26942
# Poissons Ratio (y) = 0.52579 0.39389
# Poissons Ratio (z) = 0.31968 0.12242
#
# Static dielectric constant tensor:
#      x y z
#    x 4.438540 0.000000 0.000000 
#    y 0.000000 3.423630 0.000000 
#    z 0.000000 0.000000 4.209580 
# 
# 
# High freq. dielectric constant tensor:
#      x y z
#    x 1.878100 0.000000 0.000000 
#    y 0.000000 1.816490 0.000000 
#    z 0.000000 0.000000 1.868110 
# 
# From -- ./inp_files/33560.got.cif
#   From: 2010.03.12/outbox.cif.g09.slc.cpg/sg73_17_cif.got.tgz:33560.got - 2010.04.16 15:25:48.
