data_PCOD8295093
_publ_section_title
;
Structure prediction by ZEFSAII (Michael W. Deem and Ramdas Pophale) SiO2 
 PCOD8295093
Probable space group: I B A M
;
_chemical_formula_sum "Si O2"
_cell_formula_units_Z 72
_cell_length_a 18.083719
_cell_length_b 12.346692
_cell_length_c 16.156953
_cell_angle_alpha 90.000000
_cell_angle_beta 90.000000
_cell_angle_gamma 90.000000
_cell_volume 3607.429281
_symmetry_space_group_name_H-M "I B A M"
_symmetry_group_IT_number 72
_symmetry_cell_setting 'orthorhombic'
loop_
_space_group_symop_operation_xyz
x,y,z
-x,-y,z
x,-y,1/2-z
-x,y,1/2-z
-x,-y,-z
x,y,-z
-x,y,1/2+z
x,-y,1/2+z
1/2+x,1/2+y,1/2+z
1/2-x,1/2-y,1/2+z
1/2+x,1/2-y,-z
1/2-x,1/2+y,-z
1/2-x,1/2-y,1/2-z
1/2+x,1/2+y,1/2-z
1/2-x,1/2+y,z
1/2+x,1/2-y,z
loop_
_atom_site_type_symbol
_atom_site_label
_atom_site_fract_x
_atom_site_fract_y
_atom_site_fract_z
Si Si1 0.711876 0.752904 0.872297
Si Si2 0.321016 0.361205 0.500000
Si Si3 0.984398 0.766653 0.000000
Si Si4 0.524217 0.877303 0.658312
Si Si5 0.322512 0.118962 0.272246
Si Si6 0.371822 0.611454 0.500000
O O1 0.771219 0.827667 0.921302
O O2 0.657488 0.827498 0.817031
O O3 0.751680 0.673539 0.809943
O O4 0.659648 0.675197 0.922819
O O5 0.398700 0.298726 0.500000
O O6 0.342613 0.488269 0.500000
O O7 0.003052 0.697362 0.082655
O O8 0.038490 0.872667 0.000000
O O9 0.500000 0.836738 0.750000
O O10 0.612789 0.875185 0.660416
O O11 0.500000 0.000000 0.641742
O O12 0.298493 0.000000 0.250000
#
# Coordination Sequence:
#
# PCOD8295093 Si02
#       6
#    16   8   8  16  16   8
#     4  10  23  40  63  92 125 161 211 265 319 387
#     4  11  22  44  63  90 126 170 213 269 315 377
#     4  12  24  42  64  92 130 174 216 266 316 384
#     4  11  22  39  63  96 132 164 209 263 327 381
#     4  11  20  38  65  91 124 163 204 260 324 378
#     4  11  24  40  61  88 124 168 215 257 317 377
#
# _framework density 19.958811000000001
#
# number of rings (size 3 to 8) (size 9 to 14) (size 15 to 20)
#    0.000    1.111    4.444    3.333    0.000    0.000 
#    0.000    0.000    0.000    1.333    0.000    0.000 
#    0.000    0.000    0.000    0.000    0.000    0.000 
#
# Total GULP energy -446065.378619 kJ/mol
# GULP energy per Si atom -12390.704962 kJ/mol
# Density = 1.991338 g / cm^3
# Si number density = 19.958811 Si / 1000 Ang^3
#
#
#
# Elastic Constant Matrix: (Units=GPa)
#
#
# Indices 1 2 3 4 5 6 
#
# 1 64.0955 17.8349 11.3450 0.0000 0.0000 0.0000
# 2 17.8349 114.9283 48.3625 0.0000 0.0000 0.0000
# 3 11.3450 48.3625 109.2646 0.0000 0.0000 0.0000
# 4 0.0000 0.0000 0.0000 0.0078 0.0000 0.0000
# 5 0.0000 0.0000 0.0000 0.0000 38.8804 0.0000
# 6 0.0000 0.0000 0.0000 0.0000 0.0000 15.7871
#
#
#
# Elastic Compliance Matrix: (Units=1/GPa)
#
#
# Indices 1 2 3 4 5 6 
#
# 1 0.016350 -0.002240 -0.000706 0.000000 0.000000 0.000000
# 2 -0.002240 0.011000 -0.004636 0.000000 0.000000 0.000000
# 3 -0.000706 -0.004636 0.011277 0.000000 0.000000 0.000000
# 4 0.000000 0.000000 0.000000128.836310 0.000000 0.000000
# 5 0.000000 0.000000 0.000000 0.000000 0.025720 0.000000
# 6 0.000000 0.000000 0.000000 0.000000 0.000000 0.063343
#
#
# Mechanical properties :
#
#
# Convention : Reuss Voigt Hill
#
# Bulk Modulus (GPa) = 42.62120 49.26368 45.94244
# Shear Modulus (GPa) = 0.03876 24.98478 12.51177
#
# Velocity S-wave (km/s) = 0.13951 3.54194 2.50647
# Velocity P-wave (km/s) = 4.62892 6.43921 5.60760
#
# Compressibility (1/GPa) = 0.02346250
#
# Stress axis : x y z
#
# Youngs Moduli (GPa) = 61.16200 90.91274 88.67295
#
# Poissons Ratio (x) = 0.20365 0.06261
# Poissons Ratio (y) = 0.13701 0.41109
# Poissons Ratio (z) = 0.04319 0.42147
#
# Static dielectric constant tensor:
#      x y z
#    x 3.625270 0.000000 0.000000 
#    y 0.000000 3.688200 0.000000 
#    z 0.000000 0.000000 3.568780 
# 
# 
# High freq. dielectric constant tensor:
#      x y z
#    x 1.786550 0.000000 0.000000 
#    y 0.000000 1.777380 0.000000 
#    z 0.000000 0.000000 1.791440 
# 
# From -- ./inp_files/29072.got.cif
#   From: 2010.03.12/outbox.cif.g09.slc.cpg/sg72_15_cif.got.tgz:29072.got - 2010.04.16 14:54:00.
