data_PCOD8295278
_publ_section_title
;
Structure prediction by ZEFSAII (Michael W. Deem and Ramdas Pophale) SiO2 
 PCOD8295278
Probable space group: I B A M
;
_chemical_formula_sum "Si O2"
_cell_formula_units_Z 84
_cell_length_a 10.117776
_cell_length_b 23.647910
_cell_length_c 18.587828
_cell_angle_alpha 90.000000
_cell_angle_beta 90.000000
_cell_angle_gamma 90.000000
_cell_volume 4447.402842
_symmetry_space_group_name_H-M "I B A M"
_symmetry_group_IT_number 72
_symmetry_cell_setting 'orthorhombic'
loop_
_space_group_symop_operation_xyz
x,y,z
-x,-y,z
x,-y,1/2-z
-x,y,1/2-z
-x,-y,-z
x,y,-z
-x,y,1/2+z
x,-y,1/2+z
1/2+x,1/2+y,1/2+z
1/2-x,1/2-y,1/2+z
1/2+x,1/2-y,-z
1/2-x,1/2+y,-z
1/2-x,1/2-y,1/2-z
1/2+x,1/2+y,1/2-z
1/2-x,1/2+y,z
1/2+x,1/2-y,z
loop_
_atom_site_type_symbol
_atom_site_label
_atom_site_fract_x
_atom_site_fract_y
_atom_site_fract_z
Si Si1 0.234695 0.549137 0.500000
Si Si2 0.778480 0.681614 0.500000
Si Si3 0.081741 0.347399 0.000000
Si Si4 0.500000 0.500000 0.250000
Si Si5 0.560027 0.573268 0.117697
Si Si6 0.351647 0.562088 0.000000
Si Si7 0.546171 0.694763 0.173218
Si Si8 0.813187 0.267148 0.616785
O O1 0.097526 0.584013 0.500000
O O2 0.307616 0.567986 0.427536
O O3 0.225268 0.480648 0.500000
O O4 0.692241 0.625849 0.500000
O O5 0.746629 0.716633 0.429564
O O6 0.930329 0.666896 0.500000
O O7 0.153145 0.321876 0.930225
O O8 0.579949 0.541589 0.195192
O O9 0.436713 0.547916 0.071903
O O10 0.531549 0.640190 0.123043
O O11 0.500000 0.673144 0.250000
O O12 0.698764 0.716141 0.173761
O O13 0.449072 0.746074 0.151965
#
# Coordination Sequence:
#
# PCOD8295278 Si02
#       8
#     8   8   8   4  16   8  16  16
#     4  11  21  37  58  85 116 149 196 246 290 352
#     4  11  22  36  61  84 115 154 194 252 302 345
#     4  11  22  36  61  84 115 154 194 252 302 345
#     4  12  20  38  56  92 122 142 184 256 298 344
#     4  11  21  34  60  90 115 146 192 242 300 345
#     4  11  21  37  58  85 116 149 196 246 290 352
#     4  12  23  38  59  89 119 164 197 237 295 372
#     4  11  23  38  58  88 121 151 202 244 300 354
#
# _framework density 18.887428
#
# number of rings (size 3 to 8) (size 9 to 14) (size 15 to 20)
#    0.000    0.762    8.571    1.143    0.000    0.381 
#    0.000    0.000    0.000    0.000    0.000    1.333 
#    0.000    0.000    0.000    0.000    0.000    0.000 
#
# Total GULP energy -520491.404078 kJ/mol
# GULP energy per Si atom -12392.652478 kJ/mol
# Density = 1.884444 g / cm^3
# Si number density = 18.887428 Si / 1000 Ang^3
#
#
#
# Elastic Constant Matrix: (Units=GPa)
#
#
# Indices 1 2 3 4 5 6 
#
# 1 68.7134 -3.3877 7.3538 0.0000 0.0000 0.0000
# 2 -3.3877 74.6541 4.9439 0.0000 0.0000 0.0000
# 3 7.3538 4.9439 82.9649 -0.0005 0.0000 0.0000
# 4 0.0000 0.0000 -0.0005 633.4286 0.0001 0.0000
# 5 0.0000 0.0000 0.0000 0.0001 19.1677 0.0000
# 6 0.0000 0.0000 0.0000 0.0000 0.0000 14.2385
#
#
#
# Elastic Compliance Matrix: (Units=1/GPa)
#
#
# Indices 1 2 3 4 5 6 
#
# 1 0.014735 0.000758 -0.001351 0.000000 0.000000 0.000000
# 2 0.000758 0.013487 -0.000871 0.000000 0.000000 0.000000
# 3 -0.001351 -0.000871 0.012225 0.000000 0.000000 0.000000
# 4 0.000000 0.000000 0.000000 0.001579 0.000000 0.000000
# 5 0.000000 0.000000 0.000000 0.000000 0.052171 0.000000
# 6 0.000000 0.000000 0.000000 0.000000 0.000000 0.070232
#
#
# Mechanical properties :
#
#
# Convention : Reuss Voigt Hill
#
# Bulk Modulus (GPa) = 26.65294 27.12804 26.89049
# Shear Modulus (GPa) = 27.79886 147.86179 87.83033
#
# Velocity S-wave (km/s) = 3.84059 8.85753 6.82664
# Velocity P-wave (km/s) = 5.81455 10.90880 8.74102
#
# Compressibility (1/GPa) = 0.03751931
#
# Stress axis : x y z
#
# Youngs Moduli (GPa) = 67.86476 74.14438 81.79989
#
# Poissons Ratio (x) = -0.05621 0.11053
# Poissons Ratio (y) = -0.05145 0.07124
# Poissons Ratio (z) = 0.09170 0.06457
#
# Static dielectric constant tensor:
#      x y z
#    x 3.274170 0.000000 0.000000 
#    y 0.000000 3.630120 0.000000 
#    z 0.000000 0.000000 3.457670 
# 
# 
# High freq. dielectric constant tensor:
#      x y z
#    x 1.709080 0.000000 0.000000 
#    y 0.000000 1.754720 0.000000 
#    z 0.000000 0.000000 1.728700 
# 
# From -- ./inp_files/29254.got.cif
#   From: 2010.03.12/outbox.cif.g09.slc.cpg/sg72_15_cif.got.tgz:29254.got - 2010.04.16 14:54:00.
