data_PCOD8295968
_publ_section_title
;
Structure prediction by ZEFSAII (Michael W. Deem and Ramdas Pophale) SiO2 
 PCOD8295968
Probable space group: I B C A 
;
_chemical_formula_sum "Si O2"
_cell_formula_units_Z 88
_cell_length_a 17.639062
_cell_length_b 20.014469
_cell_length_c 12.617197
_cell_angle_alpha 90.000000
_cell_angle_beta 90.000000
_cell_angle_gamma 90.000000
_cell_volume 4454.330559
_symmetry_space_group_name_H-M "I B C A "
_symmetry_group_IT_number 73
_symmetry_cell_setting 'orthorhombic'
loop_
_space_group_symop_operation_xyz
x,y,z
-x,1/2-y,z
x,-y,1/2-z
1/2-x,y,-z
-x,-y,-z
x,1/2+y,-z
-x,y,1/2+z
1/2+x,-y,z
1/2+x,1/2+y,1/2+z
1/2-x,-y,1/2+z
1/2+x,1/2-y,-z
-x,1/2+y,1/2-z
1/2-x,1/2-y,1/2-z
1/2+x,y,1/2-z
1/2-x,1/2+y,z
x,1/2-y,1/2+z
loop_
_atom_site_type_symbol
_atom_site_label
_atom_site_fract_x
_atom_site_fract_y
_atom_site_fract_z
Si Si1 0.233359 0.666592 0.113378
Si Si2 0.250000 0.897996 0.000000
Si Si3 0.130545 0.795691 0.072912
Si Si4 0.396272 0.699868 0.198020
Si Si5 0.549113 0.331884 0.377180
Si Si6 0.829728 0.429007 0.702304
O O1 0.173219 0.725648 0.091711
O O2 0.312742 0.698774 0.148860
O O3 0.203956 0.616670 0.203404
O O4 0.250000 0.629984 0.000000
O O5 0.319928 0.849993 0.985873
O O6 0.232230 0.939957 0.892475
O O7 0.104116 0.827677 0.182857
O O8 0.060440 0.794477 0.991046
O O9 0.458487 0.655524 0.134376
O O10 0.422014 0.777009 0.207300
O O11 0.593513 0.399811 0.349735
O O12 0.851416 0.500000 0.750000
#
# Coordination Sequence:
#
# PCOD8295968 Si02
#       6
#    16   8  16  16  16  16
#     4  12  21  36  63  94 118 156 208 266 308 360
#     4  10  20  38  64  90 120 160 212 266 314 354
#     4  11  19  36  64  91 125 153 203 270 326 363
#     4  11  21  36  60  95 123 153 203 266 325 369
#     4  10  23  37  59  91 125 166 195 255 327 374
#     4  11  24  41  61  88 127 172 213 249 305 381
#
# _framework density 19.756053999999999
#
# number of rings (size 3 to 8) (size 9 to 14) (size 15 to 20)
#    0.000    1.091    6.364    1.636    1.273    4.364 
#    0.000    0.909    0.000    3.273    0.000    0.000 
#    0.000    0.000    0.000    0.000    0.000    0.000 
#
# Total GULP energy -545099.401711 kJ/mol
# GULP energy per Si atom -12388.622766 kJ/mol
# Density = 1.971109 g / cm^3
# Si number density = 19.756054 Si / 1000 Ang^3
#
#
#
# Elastic Constant Matrix: (Units=GPa)
#
#
# Indices 1 2 3 4 5 6 
#
# 1 86.7325 27.7352 47.9881 0.0000 0.0000 0.0000
# 2 27.7352 81.6968 31.9729 0.0000 0.0000 0.0000
# 3 47.9881 31.9729 159.2158 0.0000 0.0000 0.0000
# 4 0.0000 0.0000 0.0000 26.0502 0.0000 0.0000
# 5 0.0000 0.0000 0.0000 0.0000 19.9051 0.0000
# 6 0.0000 0.0000 0.0000 0.0000 0.0000 17.8445
#
#
#
# Elastic Compliance Matrix: (Units=1/GPa)
#
#
# Indices 1 2 3 4 5 6 
#
# 1 0.014724 -0.003540 -0.003727 0.000000 0.000000 0.000000
# 2 -0.003540 0.014136 -0.001772 0.000000 0.000000 0.000000
# 3 -0.003727 -0.001772 0.007760 0.000000 0.000000 0.000000
# 4 0.000000 0.000000 0.000000 0.038387 0.000000 0.000000
# 5 0.000000 0.000000 0.000000 0.000000 0.050238 0.000000
# 6 0.000000 0.000000 0.000000 0.000000 0.000000 0.056040
#
#
# Mechanical properties :
#
#
# Convention : Reuss Voigt Hill
#
# Bulk Modulus (GPa) = 53.93150 60.33751 57.13451
# Shear Modulus (GPa) = 24.32587 27.42322 25.87454
#
# Velocity S-wave (km/s) = 3.51281 3.72975 3.62291
# Velocity P-wave (km/s) = 6.61900 7.01111 6.81787
#
# Compressibility (1/GPa) = 0.01854204
#
# Stress axis : x y z
#
# Youngs Moduli (GPa) = 67.91732 70.74366 128.86832
#
# Poissons Ratio (x) = 0.25043 0.48028
# Poissons Ratio (y) = 0.24043 0.22831
# Poissons Ratio (z) = 0.25312 0.12533
#
# Static dielectric constant tensor:
#      x y z
#    x 3.762580 0.000000 0.000000 
#    y 0.000000 3.113260 0.000000 
#    z 0.000000 0.000000 3.893320 
# 
# 
# High freq. dielectric constant tensor:
#      x y z
#    x 1.773940 0.000000 0.000000 
#    y 0.000000 1.714720 0.000000 
#    z 0.000000 0.000000 1.799250 
# 
# From -- ./inp_files/11878.got.cif
#   From: 2010.03.12/outbox.cif.g09.slc.cpg/sg73_6_cif.got.tgz:11878.got - 2010.04.16 15:25:48.
