data_PCOD8295489
_publ_section_title
;
Structure prediction by ZEFSAII (Michael W. Deem and Ramdas Pophale) SiO2 
 PCOD8295489
Probable space group: I B A M
;
_chemical_formula_sum "Si O2"
_cell_formula_units_Z 64
_cell_length_a 18.367299
_cell_length_b 16.194021
_cell_length_c 9.898973
_cell_angle_alpha 90.000000
_cell_angle_beta 90.000000
_cell_angle_gamma 90.000000
_cell_volume 2944.354743
_symmetry_space_group_name_H-M "I B A M"
_symmetry_group_IT_number 72
_symmetry_cell_setting 'orthorhombic'
loop_
_space_group_symop_operation_xyz
x,y,z
-x,-y,z
x,-y,1/2-z
-x,y,1/2-z
-x,-y,-z
x,y,-z
-x,y,1/2+z
x,-y,1/2+z
1/2+x,1/2+y,1/2+z
1/2-x,1/2-y,1/2+z
1/2+x,1/2-y,-z
1/2-x,1/2+y,-z
1/2-x,1/2-y,1/2-z
1/2+x,1/2+y,1/2-z
1/2-x,1/2+y,z
1/2+x,1/2-y,z
loop_
_atom_site_type_symbol
_atom_site_label
_atom_site_fract_x
_atom_site_fract_y
_atom_site_fract_z
Si Si1 0.836567 0.403241 0.500000
Si Si2 0.632753 0.095472 0.500000
Si Si3 0.618300 0.421572 0.843221
Si Si4 0.500000 0.294785 0.250000
Si Si5 0.268170 0.154744 0.770203
Si Si6 0.507629 0.818413 0.500000
O O1 0.853387 0.498999 0.500000
O O2 0.786544 0.384289 0.372971
O O3 0.908694 0.346830 0.500000
O O4 0.663652 0.141720 0.631613
O O5 0.545254 0.102538 0.500000
O O6 0.602504 0.500000 0.750000
O O7 0.570423 0.348764 0.782186
O O8 0.701626 0.394204 0.836541
O O9 0.598145 0.440452 0.000000
O O10 0.515271 0.236362 0.374460
O O11 0.250000 0.250000 0.750000
#
# Coordination Sequence:
#
# PCOD8295489 Si02
#       6
#     8   8  16   8  16   8
#     4  12  26  45  71 106 146 186 238 296 349 427
#     4  12  24  45  71 104 142 190 238 292 363 417
#     4  12  27  48  73 107 144 185 238 295 361 431
#     4  12  27  46  73 100 146 186 238 296 351 426
#     4  12  26  45  73 104 143 189 237 294 354 424
#     4  12  25  46  71 106 142 190 240 292 355 424
#
# _framework density 21.736509999999999
#
# number of rings (size 3 to 8) (size 9 to 14) (size 15 to 20)
#    0.000    0.000    2.500    8.250    3.500    1.000 
#    0.000    3.750    0.000    0.000    0.000    0.000 
#    0.000    0.000    0.000    0.000    0.000    0.000 
#
# Total GULP energy -396986.380334 kJ/mol
# GULP energy per Si atom -12405.824385 kJ/mol
# Density = 2.168704 g / cm^3
# Si number density = 21.736510 Si / 1000 Ang^3
#
#
#
# Elastic Constant Matrix: (Units=GPa)
#
#
# Indices 1 2 3 4 5 6 
#
# 1 92.6041 23.0191 23.1031 0.0000 0.0000 0.0000
# 2 23.0191 151.4908 59.1572 0.0000 0.0000 0.0000
# 3 23.1031 59.1572 168.9011 0.0000 0.0000 0.0000
# 4 0.0000 0.0000 0.0000 32.1463 0.0000 0.0000
# 5 0.0000 0.0000 0.0000 0.0000 31.1074 0.0000
# 6 0.0000 0.0000 0.0000 0.0000 0.0000 49.0169
#
#
#
# Elastic Compliance Matrix: (Units=1/GPa)
#
#
# Indices 1 2 3 4 5 6 
#
# 1 0.011397 -0.001301 -0.001103 0.000000 0.000000 0.000000
# 2 -0.001301 0.007795 -0.002552 0.000000 0.000000 0.000000
# 3 -0.001103 -0.002552 0.006966 0.000000 0.000000 0.000000
# 4 0.000000 0.000000 0.000000 0.031108 0.000000 0.000000
# 5 0.000000 0.000000 0.000000 0.000000 0.032147 0.000000
# 6 0.000000 0.000000 0.000000 0.000000 0.000000 0.020401
#
#
# Mechanical properties :
#
#
# Convention : Reuss Voigt Hill
#
# Bulk Modulus (GPa) = 61.55773 69.28385 65.42079
# Shear Modulus (GPa) = 39.95457 42.96858 41.46158
#
# Velocity S-wave (km/s) = 4.29200 4.45094 4.37219
# Velocity P-wave (km/s) = 7.27620 7.63925 7.45993
#
# Compressibility (1/GPa) = 0.01624491
#
# Stress axis : x y z
#
# Youngs Moduli (GPa) = 87.74005 128.27993 143.56454
#
# Poissons Ratio (x) = 0.16689 0.15840
# Poissons Ratio (y) = 0.11415 0.36643
# Poissons Ratio (z) = 0.09680 0.32742
#
# Static dielectric constant tensor:
#      x y z
#    x 4.075160 0.000000 0.000000 
#    y 0.000000 4.144460 0.000000 
#    z 0.000000 0.000000 4.205910 
# 
# 
# High freq. dielectric constant tensor:
#      x y z
#    x 1.867380 0.000000 0.000000 
#    y 0.000000 1.869960 0.000000 
#    z 0.000000 0.000000 1.875480 
# 
# From -- ./inp_files/13532.got.cif
#   From: 2010.03.12/outbox.cif.g09.slc.cpg/sg72_7_cif.got.tgz:13532.got - 2010.04.16 14:54:00.
