data_PCOD8295595
_publ_section_title
;
Structure prediction by ZEFSAII (Michael W. Deem and Ramdas Pophale) SiO2 
 PCOD8295595
Probable space group: I B C A 
;
_chemical_formula_sum "Si O2"
_cell_formula_units_Z 64
_cell_length_a 5.080326
_cell_length_b 30.988802
_cell_length_c 23.667851
_cell_angle_alpha 90.000000
_cell_angle_beta 90.000000
_cell_angle_gamma 90.000000
_cell_volume 3726.105911
_symmetry_space_group_name_H-M "I B C A "
_symmetry_group_IT_number 73
_symmetry_cell_setting 'orthorhombic'
loop_
_space_group_symop_operation_xyz
x,y,z
-x,1/2-y,z
x,-y,1/2-z
1/2-x,y,-z
-x,-y,-z
x,1/2+y,-z
-x,y,1/2+z
1/2+x,-y,z
1/2+x,1/2+y,1/2+z
1/2-x,-y,1/2+z
1/2+x,1/2-y,-z
-x,1/2+y,1/2-z
1/2-x,1/2-y,1/2-z
1/2+x,y,1/2-z
1/2-x,1/2+y,z
x,1/2-y,1/2+z
loop_
_atom_site_type_symbol
_atom_site_label
_atom_site_fract_x
_atom_site_fract_y
_atom_site_fract_z
Si Si1 0.464882 0.699074 0.717604
Si Si2 0.250000 0.970020 0.500000
Si Si3 0.720537 0.342415 0.397595
Si Si4 0.235604 0.387253 0.437218
Si Si5 0.250000 0.221220 0.500000
O O1 0.500000 0.750000 0.711153
O O2 0.758843 0.683507 0.733622
O O3 0.339220 0.680436 0.661081
O O4 0.212955 0.939173 0.555200
O O5 0.500000 0.000000 0.500000
O O6 0.507329 0.379914 0.405111
O O7 0.684005 0.307078 0.445699
O O8 0.003329 0.365703 0.400690
O O9 0.250000 0.365434 0.500000
O O10 0.500000 0.250000 0.515498
#
# Coordination Sequence:
#
# PCOD8295595 Si02
#       5
#    16   8  16  16   8
#     4  10  22  38  54  73  99 141 192 237 271 299
#     4  10  18  32  52  78 116 146 164 196 248 332
#     4  12  20  37  51  73 109 139 174 221 272 311
#     4  10  20  33  52  77 109 142 161 207 261 320
#     4  12  22  30  46  72  98 134 174 206 260 318
#
# _framework density 17.176110000000001
#
# number of rings (size 3 to 8) (size 9 to 14) (size 15 to 20)
#    0.750    0.500    2.500    5.250    0.000    3.000 
#    0.000    0.000    0.000    0.000    0.000    0.000 
#    0.000   70.000    0.000    0.000    0.000    0.000 
#
# Total GULP energy -396505.020870 kJ/mol
# GULP energy per Si atom -12390.781902 kJ/mol
# Density = 1.713702 g / cm^3
# Si number density = 17.176110 Si / 1000 Ang^3
#
#
#
# Elastic Constant Matrix: (Units=GPa)
#
#
# Indices 1 2 3 4 5 6 
#
# 1 124.3257 51.0838 28.3823 0.0000 0.0000 0.0000
# 2 51.0838 79.1842 34.3274 0.0000 0.0000 0.0000
# 3 28.3823 34.3274 86.9404 0.0000 0.0000 0.0000
# 4 0.0000 0.0000 0.0000 22.8196 0.0000 0.0000
# 5 0.0000 0.0000 0.0000 0.0000 30.9649 0.0000
# 6 0.0000 0.0000 0.0000 0.0000 0.0000 -19.2054
#
#
#
# Elastic Compliance Matrix: (Units=1/GPa)
#
#
# Indices 1 2 3 4 5 6 
#
# 1 0.011010 -0.006689 -0.000953 0.000000 0.000000 0.000000
# 2 -0.006689 0.019301 -0.005437 0.000000 0.000000 0.000000
# 3 -0.000953 -0.005437 0.013960 0.000000 0.000000 0.000000
# 4 0.000000 0.000000 0.000000 0.043822 0.000000 0.000000
# 5 0.000000 0.000000 0.000000 0.000000 0.032295 0.000000
# 6 0.000000 0.000000 0.000000 0.000000 0.000000 -0.052069
#
#
# Mechanical properties :
#
#
# Convention : Reuss Voigt Hill
#
# Bulk Modulus (GPa) = 55.21198 57.55970 56.38584
# Shear Modulus (GPa) = 49.74379 18.69293 34.21836
#
# Velocity S-wave (km/s) = 5.38738 3.30253 4.46826
# Velocity P-wave (km/s) = 8.42098 6.93733 7.71490
#
# Compressibility (1/GPa) = 0.01811201
#
# Stress axis : x y z
#
# Youngs Moduli (GPa) = 90.83033 51.80975 71.63332
#
# Poissons Ratio (x) = 0.34658 0.06826
# Poissons Ratio (y) = 0.60761 0.38948
# Poissons Ratio (z) = 0.08655 0.28170
#
# Static dielectric constant tensor:
#      x y z
#    x 3.254910 0.000000 0.000000 
#    y 0.000000 3.066780 0.000000 
#    z 0.000000 0.000000 3.143310 
# 
# 
# High freq. dielectric constant tensor:
#      x y z
#    x 1.691700 0.000000 0.000000 
#    y 0.000000 1.641690 0.000000 
#    z 0.000000 0.000000 1.637620 
# 
# From -- ./inp_files/24468.got.cif
#   From: 2010.03.12/outbox.cif.g09.slc.cpg/sg73_13_cif.got.tgz:24468.got - 2010.04.16 15:25:48.
