data_PCOD8295963
_publ_section_title
;
Structure prediction by ZEFSAII (Michael W. Deem and Ramdas Pophale) SiO2 
 PCOD8295963
Probable space group: I B C A 
;
_chemical_formula_sum "Si O2"
_cell_formula_units_Z 96
_cell_length_a 28.450798
_cell_length_b 19.457506
_cell_length_c 7.951197
_cell_angle_alpha 90.000000
_cell_angle_beta 90.000000
_cell_angle_gamma 90.000000
_cell_volume 4401.636141
_symmetry_space_group_name_H-M "I B C A "
_symmetry_group_IT_number 73
_symmetry_cell_setting 'orthorhombic'
loop_
_space_group_symop_operation_xyz
x,y,z
-x,1/2-y,z
x,-y,1/2-z
1/2-x,y,-z
-x,-y,-z
x,1/2+y,-z
-x,y,1/2+z
1/2+x,-y,z
1/2+x,1/2+y,1/2+z
1/2-x,-y,1/2+z
1/2+x,1/2-y,-z
-x,1/2+y,1/2-z
1/2-x,1/2-y,1/2-z
1/2+x,y,1/2-z
1/2-x,1/2+y,z
x,1/2-y,1/2+z
loop_
_atom_site_type_symbol
_atom_site_label
_atom_site_fract_x
_atom_site_fract_y
_atom_site_fract_z
Si Si1 0.878380 0.951249 0.594613
Si Si2 0.694972 0.345382 0.647853
Si Si3 0.342444 0.766468 0.540424
Si Si4 0.500000 0.750000 0.684604
Si Si5 0.716510 0.626871 0.344273
Si Si6 0.654762 0.500000 0.250000
Si Si7 0.933637 0.188815 0.945601
O O1 0.825970 0.922214 0.634268
O O2 0.913778 0.887720 0.575183
O O3 0.893912 0.000000 0.750000
O O4 0.877336 0.992717 0.417759
O O5 0.688507 0.304271 0.471301
O O6 0.661988 0.302795 0.779621
O O7 0.749191 0.345651 0.697542
O O8 0.321436 0.816381 0.396355
O O9 0.395942 0.746519 0.502727
O O10 0.456841 0.786256 0.775071
O O11 0.476423 0.688489 0.577722
O O12 0.750000 0.604957 0.500000
O O13 0.688420 0.564362 0.268310
#
# Coordination Sequence:
#
# PCOD8295963 Si02
#       7
#    16  16  16   8  16   8  16
#     4  11  25  47  66  98 137 187 227 281 324 402
#     4  10  22  38  63  92 138 174 228 279 332 374
#     4  10  20  38  63  96 128 173 217 281 336 395
#     4  10  22  42  72 108 130 162 210 280 364 426
#     4  10  23  39  58  94 135 181 234 280 316 385
#     4  12  28  40  70  90 128 202 234 264 330 394
#     4  10  22  42  72 102 135 167 214 281 350 415
#
# _framework density 21.810072999999999
#
# number of rings (size 3 to 8) (size 9 to 14) (size 15 to 20)
#    0.000    1.667    0.000    4.500   10.500    0.000 
#    3.000    0.833    0.000    0.000    0.000    0.000 
#    0.000    0.000    0.000    0.000    0.000    0.000 
#
# Total GULP energy -595006.171659 kJ/mol
# GULP energy per Si atom -12395.961910 kJ/mol
# Density = 2.176043 g / cm^3
# Si number density = 21.810073 Si / 1000 Ang^3
#
#
#
# Elastic Constant Matrix: (Units=GPa)
#
#
# Indices 1 2 3 4 5 6 
#
# 1 109.2259 46.6540 42.3540 0.0000 0.0000 0.0000
# 2 46.6540 103.3700 37.5662 0.0000 0.0000 0.0000
# 3 42.3540 37.5662 103.6806 0.0000 0.0000 0.0000
# 4 0.0000 0.0000 0.0000 29.8583 0.0000 0.0000
# 5 0.0000 0.0000 0.0000 0.0000 -357.5999 0.0000
# 6 0.0000 0.0000 0.0000 0.0000 0.0000 28.6782
#
#
#
# Elastic Compliance Matrix: (Units=1/GPa)
#
#
# Indices 1 2 3 4 5 6 
#
# 1 0.012345 -0.004306 -0.003483 0.000000 0.000000 0.000000
# 2 -0.004306 0.012643 -0.002822 0.000000 0.000000 0.000000
# 3 -0.003483 -0.002822 0.012090 0.000000 0.000000 0.000000
# 4 0.000000 0.000000 0.000000 0.033492 0.000000 0.000000
# 5 0.000000 0.000000 0.000000 0.000000 -0.002796 0.000000
# 6 0.000000 0.000000 0.000000 0.000000 0.000000 0.034870
#
#
# Mechanical properties :
#
#
# Convention : Reuss Voigt Hill
#
# Bulk Modulus (GPa) = 63.06430 63.26942 63.16686
# Shear Modulus (GPa) = 38.71467 -47.16586 -4.22560
#
# Velocity S-wave (km/s) = 4.21774 -4.65539 -1.39343
# Velocity P-wave (km/s) = 7.25928 0.41874 5.14162
#
# Compressibility (1/GPa) = 0.01585683
#
# Stress axis : x y z
#
# Youngs Moduli (GPa) = 81.00380 79.09565 82.71163
#
# Poissons Ratio (x) = 0.34059 0.28807
# Poissons Ratio (y) = 0.34880 0.23340
# Poissons Ratio (z) = 0.28212 0.22320
#
# Static dielectric constant tensor:
#      x y z
#    x 3.772930 0.000000 0.000000 
#    y 0.000000 3.953130 0.000000 
#    z 0.000000 0.000000 4.315860 
# 
# 
# High freq. dielectric constant tensor:
#      x y z
#    x 1.846700 0.000000 0.000000 
#    y 0.000000 1.846320 0.000000 
#    z 0.000000 0.000000 1.883930 
# 
# From -- ./inp_files/7861.got.cif
#   From: 2010.03.12/outbox.cif.g09.slc.cpg/sg73_4_cif.got.tgz:7861.got - 2010.04.16 15:25:48.
