data_PCOD8295154
_publ_section_title
;
Structure prediction by ZEFSAII (Michael W. Deem and Ramdas Pophale) SiO2 
 PCOD8295154
Probable space group: I B A M
;
_chemical_formula_sum "Si O2"
_cell_formula_units_Z 88
_cell_length_a 23.077791
_cell_length_b 8.497919
_cell_length_c 19.796949
_cell_angle_alpha 90.000000
_cell_angle_beta 90.000000
_cell_angle_gamma 90.000000
_cell_volume 3882.442991
_symmetry_space_group_name_H-M "I B A M"
_symmetry_group_IT_number 72
_symmetry_cell_setting 'orthorhombic'
loop_
_space_group_symop_operation_xyz
x,y,z
-x,-y,z
x,-y,1/2-z
-x,y,1/2-z
-x,-y,-z
x,y,-z
-x,y,1/2+z
x,-y,1/2+z
1/2+x,1/2+y,1/2+z
1/2-x,1/2-y,1/2+z
1/2+x,1/2-y,-z
1/2-x,1/2+y,-z
1/2-x,1/2-y,1/2-z
1/2+x,1/2+y,1/2-z
1/2-x,1/2+y,z
1/2+x,1/2-y,z
loop_
_atom_site_type_symbol
_atom_site_label
_atom_site_fract_x
_atom_site_fract_y
_atom_site_fract_z
Si Si1 0.431411 0.188282 0.076047
Si Si2 0.409557 0.500000 0.750000
Si Si3 0.667063 0.336727 0.351298
Si Si4 0.465867 0.354924 0.622922
Si Si5 0.222621 0.492558 0.669224
Si Si6 0.369595 0.135953 0.423090
O O1 0.379627 0.315683 0.088735
O O2 0.486274 0.216235 0.125162
O O3 0.411038 0.012240 0.089981
O O4 0.453417 0.209183 0.000000
O O5 0.369551 0.634456 0.716595
O O6 0.450212 0.409646 0.697693
O O7 0.712238 0.480421 0.359706
O O8 0.706055 0.182493 0.349427
O O9 0.500000 0.500000 0.585154
O O10 0.406888 0.295857 0.586827
O O11 0.219776 0.500000 0.750000
O O12 0.181512 0.621554 0.632224
O O13 0.344960 0.133304 0.500000
#
# Coordination Sequence:
#
# PCOD8295154 Si02
#       6
#    16   8  16  16  16  16
#     4  10  23  44  66  95 131 173 222 275 340 407
#     4  12  25  44  62  96 140 170 227 282 340 402
#     4  11  24  40  67  91 133 173 217 278 331 396
#     4  12  24  40  68  94 131 173 221 277 335 403
#     4  11  23  41  68  99 128 177 226 276 340 401
#     4  10  24  45  68  98 136 178 224 279 342 412
#
# _framework density 22.666139999999999
#
# number of rings (size 3 to 8) (size 9 to 14) (size 15 to 20)
#    0.000    1.091    2.727    3.000    2.545    3.636 
#    0.000    0.000    4.000    0.000    0.000    0.000 
#    0.000    0.000    0.000    0.000    0.000    0.000 
#
# Total GULP energy -545272.780661 kJ/mol
# GULP energy per Si atom -12392.563197 kJ/mol
# Density = 2.261455 g / cm^3
# Si number density = 22.666140 Si / 1000 Ang^3
#
#
#
# Elastic Constant Matrix: (Units=GPa)
#
#
# Indices 1 2 3 4 5 6 
#
# 1 133.3003 33.0749 52.5921 0.0000 0.0000 0.0000
# 2 33.0749 58.9877 31.1338 0.0000 0.0000 0.0000
# 3 52.5921 31.1338 87.9248 0.0000 0.0000 0.0000
# 4 0.0000 0.0000 0.0000 30.8815 0.0000 0.0000
# 5 0.0000 0.0000 0.0000 0.0000 28.2529 0.0000
# 6 0.0000 0.0000 0.0000 0.0000 0.0000 47.9107
#
#
#
# Elastic Compliance Matrix: (Units=1/GPa)
#
#
# Indices 1 2 3 4 5 6 
#
# 1 0.010258 -0.003091 -0.005041 0.000000 0.000000 0.000000
# 2 -0.003091 0.021781 -0.005864 0.000000 0.000000 0.000000
# 3 -0.005041 -0.005864 0.016465 0.000000 0.000000 0.000000
# 4 0.000000 0.000000 0.000000 0.032382 0.000000 0.000000
# 5 0.000000 0.000000 0.000000 0.000000 0.035395 0.000000
# 6 0.000000 0.000000 0.000000 0.000000 0.000000 0.020872
#
#
# Mechanical properties :
#
#
# Convention : Reuss Voigt Hill
#
# Bulk Modulus (GPa) = 48.75194 57.09048 52.92121
# Shear Modulus (GPa) = 29.07306 32.30316 30.68811
#
# Velocity S-wave (km/s) = 3.58532 3.77924 3.68356
# Velocity P-wave (km/s) = 6.22051 6.65476 6.44129
#
# Compressibility (1/GPa) = 0.02051200
#
# Stress axis : x y z
#
# Youngs Moduli (GPa) = 97.48767 45.91251 60.73481
#
# Poissons Ratio (x) = 0.14191 0.30618
# Poissons Ratio (y) = 0.30132 0.35613
# Poissons Ratio (z) = 0.49145 0.26921
#
# Static dielectric constant tensor:
#      x y z
#    x 4.451780 0.000000 0.000000 
#    y 0.000000 4.252840 0.000000 
#    z 0.000000 0.000000 4.017220 
# 
# 
# High freq. dielectric constant tensor:
#      x y z
#    x 1.914580 0.000000 0.000000 
#    y 0.000000 1.896300 0.000000 
#    z 0.000000 0.000000 1.870780 
# 
# From -- ./inp_files/40175.got.cif
#   From: 2010.03.12/outbox.cif.g09.slc.cpg/sg72_21_cif.got.tgz:40175.got - 2010.04.16 14:54:00.
