data_PCOD8295032
_publ_section_title
;
Structure prediction by ZEFSAII (Michael W. Deem and Ramdas Pophale) SiO2 
 PCOD8295032
Probable space group: I B A M
;
_chemical_formula_sum "Si O2"
_cell_formula_units_Z 96
_cell_length_a 28.887532
_cell_length_b 8.983803
_cell_length_c 18.183771
_cell_angle_alpha 90.000000
_cell_angle_beta 90.000000
_cell_angle_gamma 90.000000
_cell_volume 4719.050371
_symmetry_space_group_name_H-M "I B A M"
_symmetry_group_IT_number 72
_symmetry_cell_setting 'orthorhombic'
loop_
_space_group_symop_operation_xyz
x,y,z
-x,-y,z
x,-y,1/2-z
-x,y,1/2-z
-x,-y,-z
x,y,-z
-x,y,1/2+z
x,-y,1/2+z
1/2+x,1/2+y,1/2+z
1/2-x,1/2-y,1/2+z
1/2+x,1/2-y,-z
1/2-x,1/2+y,-z
1/2-x,1/2-y,1/2-z
1/2+x,1/2+y,1/2-z
1/2-x,1/2+y,z
1/2+x,1/2-y,z
loop_
_atom_site_type_symbol
_atom_site_label
_atom_site_fract_x
_atom_site_fract_y
_atom_site_fract_z
Si Si1 0.528568 0.359073 0.415241
Si Si2 0.377183 0.279987 0.317242
Si Si3 0.123906 0.878945 0.154736
Si Si4 0.792177 0.722057 0.585434
Si Si5 0.977824 0.338807 0.679209
Si Si6 0.199865 0.384224 0.911641
O O1 0.500000 0.500000 0.385196
O O2 0.541300 0.376020 0.500000
O O3 0.574571 0.317660 0.370542
O O4 0.493791 0.224360 0.399446
O O5 0.382955 0.443537 0.351599
O O6 0.361850 0.309977 0.233340
O O7 0.422543 0.175686 0.317984
O O8 0.340712 0.192224 0.366129
O O9 0.163788 0.825835 0.100091
O O10 0.785316 0.705633 0.500000
O O11 0.797669 0.554927 0.616466
O O12 0.746448 0.802949 0.615905
O O13 0.000000 0.500000 0.683431
O O14 0.000000 0.250791 0.750000
O O15 0.191410 0.371312 0.000000
#
# Coordination Sequence:
#
# PCOD8295032 Si02
#       6
#    16  16  16  16  16  16
#     4  11  23  40  64  92 123 167 214 262 311 373
#     4  11  24  40  64  92 124 170 209 262 317 369
#     4  11  23  40  64  92 127 165 214 258 316 380
#     4  10  22  42  67  94 129 167 205 262 319 376
#     4  11  24  41  63  89 129 172 210 258 315 372
#     4  10  23  42  66  95 127 165 211 259 317 379
#
# _framework density 20.343076
#
# number of rings (size 3 to 8) (size 9 to 14) (size 15 to 20)
#    0.000    1.333    3.333    1.500    2.333    5.333 
#    0.000    0.000    0.000    0.000    0.000    0.000 
#    0.000    0.000    0.000    0.000    0.000    0.000 
#
# Total GULP energy -594879.676164 kJ/mol
# GULP energy per Si atom -12393.326587 kJ/mol
# Density = 2.029677 g / cm^3
# Si number density = 20.343076 Si / 1000 Ang^3
#
#
#
# Elastic Constant Matrix: (Units=GPa)
#
#
# Indices 1 2 3 4 5 6 
#
# 1 148.4372 53.6275 32.3398 0.0000 0.0000 0.0000
# 2 53.6275 115.9377 30.2734 0.0000 0.0000 0.0000
# 3 32.3398 30.2734 44.1034 0.0000 0.0000 0.0000
# 4 0.0000 0.0000 0.0000 24.5293 0.0000 0.0000
# 5 0.0000 0.0000 0.0000 0.0000 53.8535 0.0000
# 6 0.0000 0.0000 0.0000 0.0000 0.0000 21.6390
#
#
#
# Elastic Compliance Matrix: (Units=1/GPa)
#
#
# Indices 1 2 3 4 5 6 
#
# 1 0.008746 -0.002889 -0.004430 0.000000 0.000000 0.000000
# 2 -0.002889 0.011463 -0.005750 0.000000 0.000000 0.000000
# 3 -0.004430 -0.005750 0.029870 0.000000 0.000000 0.000000
# 4 0.000000 0.000000 0.000000 0.040768 0.000000 0.000000
# 5 0.000000 0.000000 0.000000 0.000000 0.018569 0.000000
# 6 0.000000 0.000000 0.000000 0.000000 0.000000 0.046213
#
#
# Mechanical properties :
#
#
# Convention : Reuss Voigt Hill
#
# Bulk Modulus (GPa) = 41.77076 60.10664 50.93870
# Shear Modulus (GPa) = 26.35107 32.82019 29.58563
#
# Velocity S-wave (km/s) = 3.60298 4.02099 3.81771
# Velocity P-wave (km/s) = 6.15519 7.15321 6.67289
#
# Compressibility (1/GPa) = 0.02394019
#
# Stress axis : x y z
#
# Youngs Moduli (GPa) = 114.34284 87.23779 33.47879
#
# Poissons Ratio (x) = 0.25199 0.14832
# Poissons Ratio (y) = 0.33028 0.19251
# Poissons Ratio (z) = 0.50656 0.50164
#
# Static dielectric constant tensor:
#      x y z
#    x 3.670350 0.000000 0.000000 
#    y 0.000000 3.776480 0.000000 
#    z 0.000000 0.000000 3.675470 
# 
# 
# High freq. dielectric constant tensor:
#      x y z
#    x 1.804090 0.000000 0.000000 
#    y 0.000000 1.800700 0.000000 
#    z 0.000000 0.000000 1.790060 
# 
# From -- ./inp_files/40670.got.cif
#   From: 2010.03.12/outbox.cif.g09.slc.cpg/sg72_21_cif.got.tgz:40670.got - 2010.04.16 14:54:00.
