data_PCOD8295652
_publ_section_title
;
Structure prediction by ZEFSAII (Michael W. Deem and Ramdas Pophale) SiO2 
 PCOD8295652
Probable space group: I B C A 
;
_chemical_formula_sum "Si O2"
_cell_formula_units_Z 120
_cell_length_a 18.297486
_cell_length_b 11.381262
_cell_length_c 25.313707
_cell_angle_alpha 90.000000
_cell_angle_beta 90.000000
_cell_angle_gamma 90.000000
_cell_volume 5271.541059
_symmetry_space_group_name_H-M "I B C A "
_symmetry_group_IT_number 73
_symmetry_cell_setting 'orthorhombic'
loop_
_space_group_symop_operation_xyz
x,y,z
-x,1/2-y,z
x,-y,1/2-z
1/2-x,y,-z
-x,-y,-z
x,1/2+y,-z
-x,y,1/2+z
1/2+x,-y,z
1/2+x,1/2+y,1/2+z
1/2-x,-y,1/2+z
1/2+x,1/2-y,-z
-x,1/2+y,1/2-z
1/2-x,1/2-y,1/2-z
1/2+x,y,1/2-z
1/2-x,1/2+y,z
x,1/2-y,1/2+z
loop_
_atom_site_type_symbol
_atom_site_label
_atom_site_fract_x
_atom_site_fract_y
_atom_site_fract_z
Si Si1 0.422857 0.808168 0.295796
Si Si2 0.194268 0.329449 0.862175
Si Si3 0.000000 0.250000 0.969043
Si Si4 0.278259 0.218083 0.947090
Si Si5 0.885448 0.600631 0.973489
Si Si6 0.209434 0.631042 0.270003
Si Si7 0.116436 0.030132 0.078914
Si Si8 0.536304 0.040638 0.608143
O O1 0.500000 0.750000 0.278110
O O2 0.373303 0.712551 0.326256
O O3 0.376780 0.853731 0.244744
O O4 0.438456 0.919553 0.333636
O O5 0.213069 0.227488 0.904459
O O6 0.268895 0.365984 0.831504
O O7 0.172419 0.442131 0.894618
O O8 0.970009 0.348339 0.929970
O O9 0.936765 0.207622 0.007899
O O10 0.304404 0.347261 0.966591
O O11 0.346667 0.157083 0.918383
O O12 0.250000 0.149985 0.000000
O O13 0.906037 0.549398 0.916340
O O14 0.893913 0.499756 0.017270
O O15 0.235910 0.500000 0.250000
O O16 0.250000 0.750000 0.250000
O O17 0.040850 0.028124 0.110979
#
# Coordination Sequence:
#
# PCOD8295652 Si02
#       8
#    16  16   8  16  16  16  16  16
#     4  11  22  47  75 101 135 182 246 305 372 449
#     4  11  25  45  67 101 139 187 234 288 372 431
#     4  10  18  38  58  92 132 184 228 270 344 420
#     4  12  27  39  61  98 148 191 233 282 346 435
#     4  11  22  37  58  96 139 185 228 280 336 418
#     4  10  26  49  79 109 140 189 246 311 385 446
#     4  11  23  40  63 100 138 188 234 284 352 425
#     4  11  21  37  70  96 134 182 235 293 351 425
#
# _framework density 22.763742000000001
#
# number of rings (size 3 to 8) (size 9 to 14) (size 15 to 20)
#    0.000    1.067    3.333    4.000    9.333    0.000 
#    0.000    4.000    1.467    0.000    0.000    0.000 
#    0.000    0.000    0.000    0.000    0.000    0.000 
#
# Total GULP energy -743512.957108 kJ/mol
# GULP energy per Si atom -12391.882618 kJ/mol
# Density = 2.271193 g / cm^3
# Si number density = 22.763742 Si / 1000 Ang^3
#
#
#
# Elastic Constant Matrix: (Units=GPa)
#
#
# Indices 1 2 3 4 5 6 
#
# 1 124.2496 28.4113 52.2008 0.0000 0.0000 0.0000
# 2 28.4113 67.6912 11.5737 0.0000 0.0000 0.0000
# 3 52.2008 11.5737 79.4043 0.0000 0.0000 0.0000
# 4 0.0000 0.0000 0.0000 20.6804 0.0000 0.0000
# 5 0.0000 0.0000 0.0000 0.0000 48.0429 0.0000
# 6 0.0000 0.0000 0.0000 0.0000 0.0000 36.4658
#
#
#
# Elastic Compliance Matrix: (Units=1/GPa)
#
#
# Indices 1 2 3 4 5 6 
#
# 1 0.011994 -0.003780 -0.007334 0.000000 0.000000 0.000000
# 2 -0.003780 0.016342 0.000103 0.000000 0.000000 0.000000
# 3 -0.007334 0.000103 0.017400 0.000000 0.000000 0.000000
# 4 0.000000 0.000000 0.000000 0.048355 0.000000 0.000000
# 5 0.000000 0.000000 0.000000 0.000000 0.020815 0.000000
# 6 0.000000 0.000000 0.000000 0.000000 0.000000 0.027423
#
#
# Mechanical properties :
#
#
# Convention : Reuss Voigt Hill
#
# Bulk Modulus (GPa) = 42.16893 50.63520 46.40207
# Shear Modulus (GPa) = 29.02678 32.98179 31.00428
#
# Velocity S-wave (km/s) = 3.57477 3.81054 3.69454
# Velocity P-wave (km/s) = 5.96687 6.45386 6.21514
#
# Compressibility (1/GPa) = 0.02371414
#
# Stress axis : x y z
#
# Youngs Moduli (GPa) = 83.37621 61.19231 57.47120
#
# Poissons Ratio (x) = 0.23131 0.42148
# Poissons Ratio (y) = 0.31517 -0.00593
# Poissons Ratio (z) = 0.61147 -0.00631
#
# Static dielectric constant tensor:
#      x y z
#    x 4.316500 0.000000 0.000000 
#    y 0.000000 4.172230 0.000000 
#    z 0.000000 0.000000 4.383560 
# 
# 
# High freq. dielectric constant tensor:
#      x y z
#    x 1.905920 0.000000 0.000000 
#    y 0.000000 1.895090 0.000000 
#    z 0.000000 0.000000 1.878840 
# 
# From -- ./inp_files/32449.got.cif
#   From: 2010.03.12/outbox.cif.g09.slc.cpg/sg73_17_cif.got.tgz:32449.got - 2010.04.16 15:25:48.
