data_PCOD8295179
_publ_section_title
;
Structure prediction by ZEFSAII (Michael W. Deem and Ramdas Pophale) SiO2 
 PCOD8295179
Probable space group: I B A M
;
_chemical_formula_sum "Si O2"
_cell_formula_units_Z 72
_cell_length_a 12.862773
_cell_length_b 8.208523
_cell_length_c 27.342220
_cell_angle_alpha 90.000000
_cell_angle_beta 90.000000
_cell_angle_gamma 90.000000
_cell_volume 2886.911019
_symmetry_space_group_name_H-M "I B A M"
_symmetry_group_IT_number 72
_symmetry_cell_setting 'orthorhombic'
loop_
_space_group_symop_operation_xyz
x,y,z
-x,-y,z
x,-y,1/2-z
-x,y,1/2-z
-x,-y,-z
x,y,-z
-x,y,1/2+z
x,-y,1/2+z
1/2+x,1/2+y,1/2+z
1/2-x,1/2-y,1/2+z
1/2+x,1/2-y,-z
1/2-x,1/2+y,-z
1/2-x,1/2-y,1/2-z
1/2+x,1/2+y,1/2-z
1/2-x,1/2+y,z
1/2+x,1/2-y,z
loop_
_atom_site_type_symbol
_atom_site_label
_atom_site_fract_x
_atom_site_fract_y
_atom_site_fract_z
Si Si1 0.906166 0.322193 0.500000
Si Si2 0.663730 0.723102 0.317504
Si Si3 0.500000 0.000000 0.414372
Si Si4 0.227170 0.366956 0.500000
Si Si5 0.500000 0.500000 0.136364
Si Si6 0.158672 0.745303 0.103387
Si Si7 0.700161 0.000000 0.250000
O O1 0.970602 0.349163 0.450380
O O2 0.809672 0.449115 0.500000
O O3 0.853937 0.143645 0.500000
O O4 0.554121 0.643848 0.332481
O O5 0.738216 0.765304 0.363722
O O6 0.633019 0.882962 0.285507
O O7 0.724328 0.601056 0.283817
O O8 0.408138 0.920156 0.381644
O O9 0.188678 0.270184 0.452670
O O10 0.408785 0.410937 0.106413
#
# Coordination Sequence:
#
# PCOD8295179 Si02
#       7
#     8  16   8   8   8  16   8
#     4   9  20  38  60  94 135 193 261 300 357 444
#     4  11  25  50  73 115 148 191 247 316 378 459
#     4   9  22  40  64  95 142 200 246 301 378 433
#     4  10  24  39  66 100 145 206 241 314 370 428
#     4  12  28  44  78 112 152 196 250 310 372 466
#     4  11  26  44  70 109 151 199 254 315 368 453
#     4  10  24  51  81 100 150 188 238 320 390 440
#
# _framework density 24.940149999999999
#
# number of rings (size 3 to 8) (size 9 to 14) (size 15 to 20)
#    0.000    1.556    2.222    0.667   12.444    0.889 
#    0.000    1.111    0.000    0.000    0.000    0.000 
#    0.000    0.000    0.000    0.000    0.000    0.000 
#
# Total GULP energy -446061.618720 kJ/mol
# GULP energy per Si atom -12390.600520 kJ/mol
# Density = 2.488339 g / cm^3
# Si number density = 24.940150 Si / 1000 Ang^3
#
#
#
# Elastic Constant Matrix: (Units=GPa)
#
#
# Indices 1 2 3 4 5 6 
#
# 1 93.5884 26.3051 21.8882 0.0000 0.0000 0.0000
# 2 26.3051 77.1843 38.8518 0.0000 0.0000 0.0000
# 3 21.8882 38.8518 105.6109 0.0000 0.0000 0.0000
# 4 0.0000 0.0000 0.0000 -29.7623 0.0000 0.0000
# 5 0.0000 0.0000 0.0000 0.0000 15.8544 0.0000
# 6 0.0000 0.0000 0.0000 0.0000 0.0000 84.9039
#
#
#
# Elastic Compliance Matrix: (Units=1/GPa)
#
#
# Indices 1 2 3 4 5 6 
#
# 1 0.011940 -0.003465 -0.001200 0.000000 0.000000 0.000000
# 2 -0.003465 0.016906 -0.005501 0.000000 0.000000 0.000000
# 3 -0.001200 -0.005501 0.011741 0.000000 0.000000 0.000000
# 4 0.000000 0.000000 0.000000 -0.033600 0.000000 0.000000
# 5 0.000000 0.000000 0.000000 0.000000 0.063074 0.000000
# 6 0.000000 0.000000 0.000000 0.000000 0.000000 0.011778
#
#
# Mechanical properties :
#
#
# Convention : Reuss Voigt Hill
#
# Bulk Modulus (GPa) = 49.37163 50.05265 49.71214
# Shear Modulus (GPa) = 45.90397 26.82176 36.36287
#
# Velocity S-wave (km/s) = 4.29484 3.28296 3.82253
# Velocity P-wave (km/s) = 6.66582 5.87223 6.28157
#
# Compressibility (1/GPa) = 0.02025455
#
# Stress axis : x y z
#
# Youngs Moduli (GPa) = 83.75445 59.15036 85.17071
#
# Poissons Ratio (x) = 0.20497 0.10218
# Poissons Ratio (y) = 0.29023 0.46854
# Poissons Ratio (z) = 0.10049 0.32540
#
# Static dielectric constant tensor:
#      x y z
#    x 4.671540 0.000000 0.000000 
#    y 0.000000 4.798970 0.000000 
#    z 0.000000 0.000000 5.016110 
# 
# 
# High freq. dielectric constant tensor:
#      x y z
#    x 1.989840 0.000000 0.000000 
#    y 0.000000 1.999040 0.000000 
#    z 0.000000 0.000000 1.990770 
# 
# From -- ./inp_files/48508.got.cif
#   From: 2010.03.12/outbox.cif.g09.slc.cpg/sg72_25_cif.got.tgz:48508.got - 2010.04.16 14:54:00.
