data_PCOD8295054
_publ_section_title
;
Structure prediction by ZEFSAII (Michael W. Deem and Ramdas Pophale) SiO2 
 PCOD8295054
Probable space group: I B A M
;
_chemical_formula_sum "Si O2"
_cell_formula_units_Z 64
_cell_length_a 22.797705
_cell_length_b 7.921603
_cell_length_c 15.959367
_cell_angle_alpha 90.000000
_cell_angle_beta 90.000000
_cell_angle_gamma 90.000000
_cell_volume 2882.171802
_symmetry_space_group_name_H-M "I B A M"
_symmetry_group_IT_number 72
_symmetry_cell_setting 'orthorhombic'
loop_
_space_group_symop_operation_xyz
x,y,z
-x,-y,z
x,-y,1/2-z
-x,y,1/2-z
-x,-y,-z
x,y,-z
-x,y,1/2+z
x,-y,1/2+z
1/2+x,1/2+y,1/2+z
1/2-x,1/2-y,1/2+z
1/2+x,1/2-y,-z
1/2-x,1/2+y,-z
1/2-x,1/2-y,1/2-z
1/2+x,1/2+y,1/2-z
1/2-x,1/2+y,z
1/2+x,1/2-y,z
loop_
_atom_site_type_symbol
_atom_site_label
_atom_site_fract_x
_atom_site_fract_y
_atom_site_fract_z
Si Si1 0.666031 0.889419 0.853906
Si Si2 0.057875 0.410516 0.094919
Si Si3 0.630070 0.327828 0.798561
Si Si4 0.273253 0.208981 0.403657
O O1 0.645634 0.825612 0.763719
O O2 0.703566 0.742253 0.899048
O O3 0.609691 0.950007 0.905926
O O4 0.712806 0.042064 0.850198
O O5 0.074359 0.243886 0.149115
O O6 0.000000 0.500000 0.132647
O O7 0.045849 0.350856 0.000000
O O8 0.613673 0.500000 0.750000
O O9 0.685436 0.354974 0.861443
O O10 0.292242 0.185536 0.500000
#
# Coordination Sequence:
#
# PCOD8295054 Si02
#       4
#    16  16  16  16
#     4  11  22  37  61  92 125 165 210 259 316 374
#     4  10  22  44  69  91 122 166 214 260 311 372
#     4  11  23  39  63  94 128 162 203 257 315 378
#     4  11  21  37  59  88 128 167 209 256 311 373
#
# _framework density 22.205479
#
# number of rings (size 3 to 8) (size 9 to 14) (size 15 to 20)
#    0.000    1.250    0.000    9.750    0.000    4.000 
#    0.000    8.750    0.000    3.000    0.000    0.000 
#    0.000    0.000    0.000    0.000    0.000    0.000 
#
# Total GULP energy -396498.522625 kJ/mol
# GULP energy per Si atom -12390.578832 kJ/mol
# Density = 2.215494 g / cm^3
# Si number density = 22.205479 Si / 1000 Ang^3
#
#
#
# Elastic Constant Matrix: (Units=GPa)
#
#
# Indices 1 2 3 4 5 6 
#
# 1 127.0046 54.1440 14.2620 0.0000 0.0000 0.0000
# 2 54.1440 125.6603 48.6434 0.0000 0.0000 0.0000
# 3 14.2620 48.6434 111.7733 0.0000 0.0000 0.0000
# 4 0.0000 0.0000 0.0000 23.4881 0.0000 0.0000
# 5 0.0000 0.0000 0.0000 0.0000 31.3552 0.0000
# 6 0.0000 0.0000 0.0000 0.0000 0.0000 36.9441
#
#
#
# Elastic Compliance Matrix: (Units=1/GPa)
#
#
# Indices 1 2 3 4 5 6 
#
# 1 0.009691 -0.004446 0.000698 0.000000 0.000000 0.000000
# 2 -0.004446 0.011610 -0.004485 0.000000 0.000000 0.000000
# 3 0.000698 -0.004485 0.010810 0.000000 0.000000 0.000000
# 4 0.000000 0.000000 0.000000 0.042575 0.000000 0.000000
# 5 0.000000 0.000000 0.000000 0.000000 0.031893 0.000000
# 6 0.000000 0.000000 0.000000 0.000000 0.000000 0.027068
#
#
# Mechanical properties :
#
#
# Convention : Reuss Voigt Hill
#
# Bulk Modulus (GPa) = 63.92042 66.50412 65.21227
# Shear Modulus (GPa) = 32.19046 34.85007 33.52027
#
# Velocity S-wave (km/s) = 3.81157 3.96591 3.88951
# Velocity P-wave (km/s) = 6.94400 7.14043 7.04290
#
# Compressibility (1/GPa) = 0.01564445
#
# Stress axis : x y z
#
# Youngs Moduli (GPa) = 103.19261 86.13415 92.51069
#
# Poissons Ratio (x) = 0.38293 -0.06460
# Poissons Ratio (y) = 0.45877 0.41494
# Poissons Ratio (z) = -0.07206 0.38634
#
# Static dielectric constant tensor:
#      x y z
#    x 4.069940 0.000000 0.000000 
#    y 0.000000 3.874760 0.000000 
#    z 0.000000 0.000000 3.998500 
# 
# 
# High freq. dielectric constant tensor:
#      x y z
#    x 1.864250 0.000000 0.000000 
#    y 0.000000 1.859460 0.000000 
#    z 0.000000 0.000000 1.883750 
# 
# From -- ./inp_files/24754.got.cif
#   From: 2010.03.12/outbox.cif.g09.slc.cpg/sg72_13_cif.got.tgz:24754.got - 2010.04.16 14:54:00.
