data_PCOD8295000
_publ_section_title
;
Structure prediction by ZEFSAII (Michael W. Deem and Ramdas Pophale) SiO2 
 PCOD8295000
Probable space group: I B A M
;
_chemical_formula_sum "Si O2"
_cell_formula_units_Z 72
_cell_length_a 14.011293
_cell_length_b 12.996056
_cell_length_c 19.352017
_cell_angle_alpha 90.000000
_cell_angle_beta 90.000000
_cell_angle_gamma 90.000000
_cell_volume 3523.838741
_symmetry_space_group_name_H-M "I B A M"
_symmetry_group_IT_number 72
_symmetry_cell_setting 'orthorhombic'
loop_
_space_group_symop_operation_xyz
x,y,z
-x,-y,z
x,-y,1/2-z
-x,y,1/2-z
-x,-y,-z
x,y,-z
-x,y,1/2+z
x,-y,1/2+z
1/2+x,1/2+y,1/2+z
1/2-x,1/2-y,1/2+z
1/2+x,1/2-y,-z
1/2-x,1/2+y,-z
1/2-x,1/2-y,1/2-z
1/2+x,1/2+y,1/2-z
1/2-x,1/2+y,z
1/2+x,1/2-y,z
loop_
_atom_site_type_symbol
_atom_site_label
_atom_site_fract_x
_atom_site_fract_y
_atom_site_fract_z
Si Si1 0.342784 0.579462 0.311417
Si Si2 0.329928 0.783301 0.836593
Si Si3 0.901140 0.530915 0.078231
Si Si4 0.500000 0.702021 0.750000
Si Si5 0.787434 0.922138 0.080024
O O1 0.321429 0.500000 0.250000
O O2 0.265967 0.672419 0.300381
O O3 0.448540 0.628087 0.306231
O O4 0.337339 0.522037 0.385139
O O5 0.358214 0.866360 0.892244
O O6 0.418003 0.771484 0.784037
O O7 0.312267 0.677883 0.876584
O O8 0.826728 0.436894 0.084612
O O9 0.000000 0.500000 0.116238
O O10 0.924532 0.558544 0.000000
O O11 0.820932 0.914174 0.000000
#
# Coordination Sequence:
#
# PCOD8295000 Si02
#       5
#    16  16  16   8  16
#     4  11  24  43  65  90 130 167 207 261 314 369
#     4  11  24  38  67  91 127 161 214 253 322 367
#     4   9  20  39  61  90 125 162 207 261 312 369
#     4  12  25  40  63  92 124 168 211 262 303 376
#     4  10  22  41  65  92 129 166 207 259 314 373
#
# _framework density 20.432262999999999
#
# number of rings (size 3 to 8) (size 9 to 14) (size 15 to 20)
#    0.000    1.556    2.222    1.667    3.111    2.667 
#    0.000    3.333    0.000    0.000    0.000    0.000 
#    0.000    0.000    0.000    0.000    0.000    0.000 
#
# Total GULP energy -446290.800401 kJ/mol
# GULP energy per Si atom -12396.966678 kJ/mol
# Density = 2.038576 g / cm^3
# Si number density = 20.432263 Si / 1000 Ang^3
#
#
#
# Elastic Constant Matrix: (Units=GPa)
#
#
# Indices 1 2 3 4 5 6 
#
# 1 120.9838 39.7706 30.2525 0.0000 0.0000 0.0000
# 2 39.7706 93.4440 23.8677 0.0000 0.0000 0.0000
# 3 30.2525 23.8677 72.0037 0.0000 0.0000 0.0000
# 4 0.0000 0.0000 0.0000 23.3223 0.0000 0.0000
# 5 0.0000 0.0000 0.0000 0.0000 29.2950 0.0000
# 6 0.0000 0.0000 0.0000 0.0000 0.0000 26.9182
#
#
#
# Elastic Compliance Matrix: (Units=1/GPa)
#
#
# Indices 1 2 3 4 5 6 
#
# 1 0.010211 -0.003551 -0.003113 0.000000 0.000000 0.000000
# 2 -0.003551 0.012926 -0.002793 0.000000 0.000000 0.000000
# 3 -0.003113 -0.002793 0.016122 0.000000 0.000000 0.000000
# 4 0.000000 0.000000 0.000000 0.042877 0.000000 0.000000
# 5 0.000000 0.000000 0.000000 0.000000 0.034136 0.000000
# 6 0.000000 0.000000 0.000000 0.000000 0.000000 0.037150
#
#
# Mechanical properties :
#
#
# Convention : Reuss Voigt Hill
#
# Bulk Modulus (GPa) = 49.15075 52.69034 50.92055
# Shear Modulus (GPa) = 27.91457 28.74314 28.32886
#
# Velocity S-wave (km/s) = 3.70023 3.75474 3.72758
# Velocity P-wave (km/s) = 6.50871 6.68141 6.59562
#
# Compressibility (1/GPa) = 0.02034557
#
# Stress axis : x y z
#
# Youngs Moduli (GPa) = 97.93061 77.36217 62.02695
#
# Poissons Ratio (x) = 0.27470 0.19311
# Poissons Ratio (y) = 0.34773 0.17323
# Poissons Ratio (z) = 0.30489 0.21606
#
# Static dielectric constant tensor:
#      x y z
#    x 4.141180 0.000000 0.000000 
#    y 0.000000 3.800290 0.000000 
#    z 0.000000 0.000000 3.720450 
# 
# 
# High freq. dielectric constant tensor:
#      x y z
#    x 1.808840 0.000000 0.000000 
#    y 0.000000 1.805380 0.000000 
#    z 0.000000 0.000000 1.793190 
# 
# From -- ./inp_files/30318.got.cif
#   From: 2010.03.12/outbox.cif.g09.slc.cpg/sg72_16_cif.got.tgz:30318.got - 2010.04.16 14:54:00.
