data_PCOD8295205
_publ_section_title
;
Structure prediction by ZEFSAII (Michael W. Deem and Ramdas Pophale) SiO2 
 PCOD8295205
Probable space group: I B A M
;
_chemical_formula_sum "Si O2"
_cell_formula_units_Z 72
_cell_length_a 29.902370
_cell_length_b 9.081631
_cell_length_c 13.091610
_cell_angle_alpha 90.000000
_cell_angle_beta 90.000000
_cell_angle_gamma 90.000000
_cell_volume 3555.187596
_symmetry_space_group_name_H-M "I B A M"
_symmetry_group_IT_number 72
_symmetry_cell_setting 'orthorhombic'
loop_
_space_group_symop_operation_xyz
x,y,z
-x,-y,z
x,-y,1/2-z
-x,y,1/2-z
-x,-y,-z
x,y,-z
-x,y,1/2+z
x,-y,1/2+z
1/2+x,1/2+y,1/2+z
1/2-x,1/2-y,1/2+z
1/2+x,1/2-y,-z
1/2-x,1/2+y,-z
1/2-x,1/2-y,1/2-z
1/2+x,1/2+y,1/2-z
1/2-x,1/2+y,z
1/2+x,1/2-y,z
loop_
_atom_site_type_symbol
_atom_site_label
_atom_site_fract_x
_atom_site_fract_y
_atom_site_fract_z
Si Si1 0.045977 0.588315 0.500000
Si Si2 0.205519 0.736404 0.382277
Si Si3 0.452544 0.332328 0.783989
Si Si4 0.517906 0.660668 0.000000
Si Si5 0.241167 0.000000 0.250000
Si Si6 0.887623 0.624941 0.173914
O O1 0.075982 0.552493 0.401486
O O2 0.000000 0.500000 0.500000
O O3 0.029845 0.756154 0.500000
O O4 0.222466 0.752247 0.500000
O O5 0.230051 0.601254 0.326149
O O6 0.153177 0.697421 0.386696
O O7 0.211886 0.890304 0.321137
O O8 0.450950 0.500000 0.750000
O O9 0.500000 0.261475 0.750000
O O10 0.410122 0.253665 0.737952
O O11 0.449841 0.309202 0.905106
O O12 0.500000 0.500000 0.000000
O O13 0.869527 0.500000 0.250000
#
# Coordination Sequence:
#
# PCOD8295205 Si02
#       6
#     8  16  16   8   8  16
#     4  12  24  38  62  86 127 179 217 262 324 383
#     4  11  23  46  73 101 135 173 217 276 331 418
#     4  11  22  38  58  84 122 166 214 269 320 380
#     4  12  20  38  60  84 113 171 219 266 320 379
#     4  10  24  46  74 104 132 172 214 268 362 396
#     4  12  25  40  60  95 130 168 220 270 321 388
#
# _framework density 20.252096000000002
#
# number of rings (size 3 to 8) (size 9 to 14) (size 15 to 20)
#    0.000    0.667    6.667    2.000    1.556    0.000 
#    0.000    0.000    4.889    0.000    0.000    0.000 
#    0.000    0.000    0.000    0.000    0.000    0.000 
#
# Total GULP energy -446322.389399 kJ/mol
# GULP energy per Si atom -12397.844150 kJ/mol
# Density = 2.020600 g / cm^3
# Si number density = 20.252096 Si / 1000 Ang^3
#
#
#
# Elastic Constant Matrix: (Units=GPa)
#
#
# Indices 1 2 3 4 5 6 
#
# 1 97.4558 40.3022 43.0041 0.0000 0.0000 0.0000
# 2 40.3022 103.3605 41.2204 0.0000 0.0000 0.0000
# 3 43.0041 41.2204 168.9651 0.0000 0.0000 0.0000
# 4 0.0000 0.0000 0.0000 29.8510 0.0000 0.0000
# 5 0.0000 0.0000 0.0000 0.0000 33.8781 0.0000
# 6 0.0000 0.0000 0.0000 0.0000 0.0000 26.5951
#
#
#
# Elastic Compliance Matrix: (Units=1/GPa)
#
#
# Indices 1 2 3 4 5 6 
#
# 1 0.012989 -0.004150 -0.002294 0.000000 0.000000 0.000000
# 2 -0.004150 0.012044 -0.001882 0.000000 0.000000 0.000000
# 3 -0.002294 -0.001882 0.006961 0.000000 0.000000 0.000000
# 4 0.000000 0.000000 0.000000 0.033500 0.000000 0.000000
# 5 0.000000 0.000000 0.000000 0.000000 0.029518 0.000000
# 6 0.000000 0.000000 0.000000 0.000000 0.000000 0.037601
#
#
# Mechanical properties :
#
#
# Convention : Reuss Voigt Hill
#
# Bulk Modulus (GPa) = 65.17574 68.75940 66.96757
# Shear Modulus (GPa) = 32.38807 34.41516 33.40161
#
# Velocity S-wave (km/s) = 4.00339 4.12677 4.06555
# Velocity P-wave (km/s) = 7.32268 7.53210 7.42813
#
# Compressibility (1/GPa) = 0.01534313
#
# Stress axis : x y z
#
# Youngs Moduli (GPa) = 76.98590 83.03176 143.65318
#
# Poissons Ratio (x) = 0.34459 0.32947
# Poissons Ratio (y) = 0.31950 0.27033
# Poissons Ratio (z) = 0.17657 0.15625
#
# Static dielectric constant tensor:
#      x y z
#    x 3.360330 0.000000 0.000000 
#    y 0.000000 3.692820 0.000000 
#    z 0.000000 0.000000 3.970080 
# 
# 
# High freq. dielectric constant tensor:
#      x y z
#    x 1.774690 0.000000 0.000000 
#    y 0.000000 1.798880 0.000000 
#    z 0.000000 0.000000 1.811590 
# 
# From -- ./inp_files/25730.got.cif
#   From: 2010.03.12/outbox.cif.g09.slc.cpg/sg72_13_cif.got.tgz:25730.got - 2010.04.16 14:54:00.
