data_PCOD8295161
_publ_section_title
;
Structure prediction by ZEFSAII (Michael W. Deem and Ramdas Pophale) SiO2 
 PCOD8295161
Probable space group: I B A M
;
_chemical_formula_sum "Si O2"
_cell_formula_units_Z 64
_cell_length_a 9.468235
_cell_length_b 11.693928
_cell_length_c 22.910141
_cell_angle_alpha 90.000000
_cell_angle_beta 90.000000
_cell_angle_gamma 90.000000
_cell_volume 2536.630477
_symmetry_space_group_name_H-M "I B A M"
_symmetry_group_IT_number 72
_symmetry_cell_setting 'orthorhombic'
loop_
_space_group_symop_operation_xyz
x,y,z
-x,-y,z
x,-y,1/2-z
-x,y,1/2-z
-x,-y,-z
x,y,-z
-x,y,1/2+z
x,-y,1/2+z
1/2+x,1/2+y,1/2+z
1/2-x,1/2-y,1/2+z
1/2+x,1/2-y,-z
1/2-x,1/2+y,-z
1/2-x,1/2-y,1/2-z
1/2+x,1/2+y,1/2-z
1/2-x,1/2+y,z
1/2+x,1/2-y,z
loop_
_atom_site_type_symbol
_atom_site_label
_atom_site_fract_x
_atom_site_fract_y
_atom_site_fract_z
Si Si1 0.010451 0.741510 0.674488
Si Si2 0.922400 0.116806 0.064640
Si Si3 0.643992 0.044706 0.892106
Si Si4 0.254534 0.104905 0.205720
O O1 0.951639 0.787902 0.612787
O O2 0.880347 0.699366 0.716776
O O3 0.110782 0.635163 0.659334
O O4 0.099925 0.838548 0.707921
O O5 0.753176 0.095330 0.061426
O O6 0.969566 0.159037 0.000000
O O7 0.000000 0.000000 0.081769
O O8 0.500000 0.000000 0.923061
O O9 0.718792 0.938304 0.860003
O O10 0.260307 0.000000 0.250000
#
# Coordination Sequence:
#
# PCOD8295161 Si02
#       4
#    16  16  16  16
#     4  11  23  47  73 104 154 195 242 309 373 442
#     4  11  23  43  73 109 145 194 250 303 373 445
#     4  10  23  44  70 104 150 185 246 308 350 445
#     4  11  25  48  74 108 150 194 253 308 370 446
#
# _framework density 25.230319999999999
#
# number of rings (size 3 to 8) (size 9 to 14) (size 15 to 20)
#    0.000    1.250    5.000    0.000    0.000    7.000 
#    4.500    6.250    0.000    0.000    0.000    0.000 
#    0.000    0.000    0.000    0.000    0.000    0.000 
#
# Total GULP energy -396774.556709 kJ/mol
# GULP energy per Si atom -12399.204897 kJ/mol
# Density = 2.517289 g / cm^3
# Si number density = 25.230320 Si / 1000 Ang^3
#
#
#
# Elastic Constant Matrix: (Units=GPa)
#
#
# Indices 1 2 3 4 5 6 
#
# 1 168.9593 62.4245 45.8414 0.0000 0.0000 0.0000
# 2 62.4245 123.3571 54.5984 0.0000 0.0000 0.0000
# 3 45.8414 54.5984 78.7438 0.0000 0.0000 0.0000
# 4 0.0000 0.0000 0.0000 27.1375 0.0000 0.0000
# 5 0.0000 0.0000 0.0000 0.0000 20.5098 0.0000
# 6 0.0000 0.0000 0.0000 0.0000 0.0000 48.4847
#
#
#
# Elastic Compliance Matrix: (Units=1/GPa)
#
#
# Indices 1 2 3 4 5 6 
#
# 1 0.007617 -0.002729 -0.002542 0.000000 0.000000 0.000000
# 2 -0.002729 0.012674 -0.007199 0.000000 0.000000 0.000000
# 3 -0.002542 -0.007199 0.019170 0.000000 0.000000 0.000000
# 4 0.000000 0.000000 0.000000 0.036849 0.000000 0.000000
# 5 0.000000 0.000000 0.000000 0.000000 0.048757 0.000000
# 6 0.000000 0.000000 0.000000 0.000000 0.000000 0.020625
#
#
# Mechanical properties :
#
#
# Convention : Reuss Voigt Hill
#
# Bulk Modulus (GPa) = 68.86371 77.42097 73.14234
# Shear Modulus (GPa) = 28.49449 33.10613 30.80031
#
# Velocity S-wave (km/s) = 3.36426 3.62630 3.49774
# Velocity P-wave (km/s) = 6.51493 6.94879 6.73535
#
# Compressibility (1/GPa) = 0.01452144
#
# Stress axis : x y z
#
# Youngs Moduli (GPa) = 131.29244 78.90194 52.16387
#
# Poissons Ratio (x) = 0.21536 0.13258
# Poissons Ratio (y) = 0.35836 0.37551
# Poissons Ratio (z) = 0.33369 0.56799
#
# Static dielectric constant tensor:
#      x y z
#    x 4.782920 0.000000 0.000000 
#    y 0.000000 4.713600 0.000000 
#    z 0.000000 0.000000 4.093230 
# 
# 
# High freq. dielectric constant tensor:
#      x y z
#    x 2.019180 0.000000 0.000000 
#    y 0.000000 2.014020 0.000000 
#    z 0.000000 0.000000 1.989280 
# 
# From -- ./inp_files/41926.got.cif
#   From: 2010.03.12/outbox.cif.g09.slc.cpg/sg72_21_cif.got.tgz:41926.got - 2010.04.16 14:54:00.
