data_PCOD8295319
_publ_section_title
;
Structure prediction by ZEFSAII (Michael W. Deem and Ramdas Pophale) SiO2 
 PCOD8295319
Probable space group: I B A M
;
_chemical_formula_sum "Si O2"
_cell_formula_units_Z 104
_cell_length_a 28.617219
_cell_length_b 9.150427
_cell_length_c 20.342765
_cell_angle_alpha 90.000000
_cell_angle_beta 90.000000
_cell_angle_gamma 90.000000
_cell_volume 5326.951833
_symmetry_space_group_name_H-M "I B A M"
_symmetry_group_IT_number 72
_symmetry_cell_setting 'orthorhombic'
loop_
_space_group_symop_operation_xyz
x,y,z
-x,-y,z
x,-y,1/2-z
-x,y,1/2-z
-x,-y,-z
x,y,-z
-x,y,1/2+z
x,-y,1/2+z
1/2+x,1/2+y,1/2+z
1/2-x,1/2-y,1/2+z
1/2+x,1/2-y,-z
1/2-x,1/2+y,-z
1/2-x,1/2-y,1/2-z
1/2+x,1/2+y,1/2-z
1/2-x,1/2+y,z
1/2+x,1/2-y,z
loop_
_atom_site_type_symbol
_atom_site_label
_atom_site_fract_x
_atom_site_fract_y
_atom_site_fract_z
Si Si1 0.288219 0.267054 0.925427
Si Si2 0.581033 0.500000 0.250000
Si Si3 0.383005 0.306157 0.140006
Si Si4 0.031737 0.265367 0.189713
Si Si5 0.381147 0.977886 0.823186
Si Si6 0.196371 0.429249 0.075778
Si Si7 0.476006 0.655569 0.427341
O O1 0.330832 0.335916 0.884941
O O2 0.238866 0.327925 0.900241
O O3 0.286413 0.094245 0.917695
O O4 0.295924 0.316817 0.000000
O O5 0.613433 0.608633 0.208583
O O6 0.548915 0.599711 0.296859
O O7 0.421261 0.366056 0.089055
O O8 0.394202 0.135477 0.148449
O O9 0.073282 0.378560 0.180392
O O10 0.000000 0.320623 0.250000
O O11 0.000392 0.264464 0.124278
O O12 0.345511 0.898305 0.873288
O O13 0.359313 0.000000 0.750000
O O14 0.181073 0.395242 0.000000
O O15 0.500000 0.500000 0.425663
O O16 0.480469 0.725175 0.500000
#
# Coordination Sequence:
#
# PCOD8295319 Si02
#       7
#    16   8  16  16  16  16  16
#     4   9  19  39  63  87 116 156 197 239 299 359
#     4  12  21  38  60  82 118 156 204 236 293 350
#     4  11  22  39  59  88 118 157 197 247 297 355
#     4  12  22  40  61  84 117 161 199 245 291 357
#     4  11  23  40  60  89 121 153 200 245 303 351
#     4   9  20  40  64  88 121 157 193 244 299 357
#     4  11  22  37  58  87 120 154 198 250 295 343
#
# _framework density 19.52336
#
# number of rings (size 3 to 8) (size 9 to 14) (size 15 to 20)
#    0.000    1.385    4.615    0.692    0.000    4.615 
#    1.385    2.308    0.000    0.000    0.000    0.000 
#    0.000    0.000    0.000    0.000    0.000    0.000 
#
# Total GULP energy -644858.968948 kJ/mol
# GULP energy per Si atom -12401.134018 kJ/mol
# Density = 1.947892 g / cm^3
# Si number density = 19.523360 Si / 1000 Ang^3
#
#
#
# Elastic Constant Matrix: (Units=GPa)
#
#
# Indices 1 2 3 4 5 6 
#
# 1 134.0262 44.4476 71.0464 0.0000 0.0000 0.0000
# 2 44.4476 54.5338 20.4208 0.0000 0.0000 0.0000
# 3 71.0464 20.4208 138.0631 0.0000 0.0000 0.0000
# 4 0.0000 0.0000 0.0000 18.9556 0.0000 0.0000
# 5 0.0000 0.0000 0.0000 0.0000 38.0882 0.0000
# 6 0.0000 0.0000 0.0000 0.0000 0.0000 36.0539
#
#
#
# Elastic Compliance Matrix: (Units=1/GPa)
#
#
# Indices 1 2 3 4 5 6 
#
# 1 0.013315 -0.008772 -0.005554 0.000000 0.000000 0.000000
# 2 -0.008772 0.025192 0.000788 0.000000 0.000000 0.000000
# 3 -0.005554 0.000788 0.009985 0.000000 0.000000 0.000000
# 4 0.000000 0.000000 0.000000 0.052755 0.000000 0.000000
# 5 0.000000 0.000000 0.000000 0.000000 0.026255 0.000000
# 6 0.000000 0.000000 0.000000 0.000000 0.000000 0.027736
#
#
# Mechanical properties :
#
#
# Convention : Reuss Voigt Hill
#
# Bulk Modulus (GPa) = 46.69729 66.49474 56.59602
# Shear Modulus (GPa) = 26.39190 31.33342 28.86266
#
# Velocity S-wave (km/s) = 3.68069 4.01049 3.84912
# Velocity P-wave (km/s) = 6.48335 7.45509 6.98614
#
# Compressibility (1/GPa) = 0.02141452
#
# Stress axis : x y z
#
# Youngs Moduli (GPa) = 75.10552 39.69518 100.15400
#
# Poissons Ratio (x) = 0.34822 0.55627
# Poissons Ratio (y) = 0.65884 -0.07892
# Poissons Ratio (z) = 0.41714 -0.03128
#
# Static dielectric constant tensor:
#      x y z
#    x 3.587740 0.000000 0.000000 
#    y 0.000000 3.479990 0.000000 
#    z 0.000000 0.000000 3.875620 
# 
# 
# High freq. dielectric constant tensor:
#      x y z
#    x 1.758400 0.000000 0.000000 
#    y 0.000000 1.755510 0.000000 
#    z 0.000000 0.000000 1.765610 
# 
# From -- ./inp_files/41060.got.cif
#   From: 2010.03.12/outbox.cif.g09.slc.cpg/sg72_21_cif.got.tgz:41060.got - 2010.04.16 14:54:00.
