data_PCOD8295027
_publ_section_title
;
Structure prediction by ZEFSAII (Michael W. Deem and Ramdas Pophale) SiO2 
 PCOD8295027
Probable space group: I B A M
;
_chemical_formula_sum "Si O2"
_cell_formula_units_Z 80
_cell_length_a 10.273216
_cell_length_b 23.944003
_cell_length_c 15.234705
_cell_angle_alpha 90.000000
_cell_angle_beta 90.000000
_cell_angle_gamma 90.000000
_cell_volume 3747.461906
_symmetry_space_group_name_H-M "I B A M"
_symmetry_group_IT_number 72
_symmetry_cell_setting 'orthorhombic'
loop_
_space_group_symop_operation_xyz
x,y,z
-x,-y,z
x,-y,1/2-z
-x,y,1/2-z
-x,-y,-z
x,y,-z
-x,y,1/2+z
x,-y,1/2+z
1/2+x,1/2+y,1/2+z
1/2-x,1/2-y,1/2+z
1/2+x,1/2-y,-z
1/2-x,1/2+y,-z
1/2-x,1/2-y,1/2-z
1/2+x,1/2+y,1/2-z
1/2-x,1/2+y,z
1/2+x,1/2-y,z
loop_
_atom_site_type_symbol
_atom_site_label
_atom_site_fract_x
_atom_site_fract_y
_atom_site_fract_z
Si Si1 0.372414 0.526752 0.400409
Si Si2 0.375375 0.028700 0.844748
Si Si3 0.235858 0.859004 0.896677
Si Si4 0.467412 0.855006 0.395880
Si Si5 0.124289 0.244786 0.690697
O O1 0.500000 0.500000 0.353118
O O2 0.411189 0.540474 0.500000
O O3 0.255410 0.482281 0.398777
O O4 0.325631 0.584483 0.354347
O O5 0.398271 0.095053 0.842460
O O6 0.500000 0.000000 0.892697
O O7 0.360547 0.000000 0.750000
O O8 0.383429 0.850344 0.862339
O O9 0.143116 0.807778 0.873036
O O10 0.243023 0.865931 0.000000
O O11 0.456765 0.865115 0.500000
O O12 0.392504 0.798834 0.370214
O O13 0.250000 0.250000 0.750000
O O14 0.000000 0.233275 0.750000
#
# Coordination Sequence:
#
# PCOD8295027 Si02
#       5
#    16  16  16  16  16
#     4  10  22  42  66  96 132 170 217 273 336 401
#     4  11  24  38  67 100 134 170 218 274 330 404
#     4  10  22  44  69  95 135 178 223 278 339 406
#     4  11  24  44  71  99 133 180 232 276 335 412
#     4  12  26  43  68  98 136 174 225 287 343 394
#
# _framework density 21.347781000000001
#
# number of rings (size 3 to 8) (size 9 to 14) (size 15 to 20)
#    0.000    1.200    4.000    1.200    5.600    2.800 
#    0.000    2.000    0.000    0.000    0.000    0.000 
#    0.000    0.000    0.000    0.000    0.000    0.000 
#
# Total GULP energy -496018.836880 kJ/mol
# GULP energy per Si atom -12400.470922 kJ/mol
# Density = 2.129919 g / cm^3
# Si number density = 21.347781 Si / 1000 Ang^3
#
#
#
# Elastic Constant Matrix: (Units=GPa)
#
#
# Indices 1 2 3 4 5 6 
#
# 1 163.2564 75.0447 21.1262 0.0000 0.0000 0.0000
# 2 75.0447 191.4490 31.0966 0.0000 0.0000 0.0000
# 3 21.1262 31.0966 50.2983 -0.0001 0.0001 0.0000
# 4 0.0000 0.0000 -0.0001 29.2953 0.0000 0.0000
# 5 0.0000 0.0000 0.0001 0.0000 27.7380 0.0000
# 6 0.0000 0.0000 0.0000 0.0000 0.0000 45.7881
#
#
#
# Elastic Compliance Matrix: (Units=1/GPa)
#
#
# Indices 1 2 3 4 5 6 
#
# 1 0.007571 -0.002725 -0.001495 0.000000 0.000000 0.000000
# 2 -0.002725 0.006787 -0.003052 0.000000 0.000000 0.000000
# 3 -0.001495 -0.003052 0.022396 0.000000 0.000000 0.000000
# 4 0.000000 0.000000 0.000000 0.034135 0.000000 0.000000
# 5 0.000000 0.000000 0.000000 0.000000 0.036052 0.000000
# 6 0.000000 0.000000 0.000000 0.000000 0.000000 0.021840
#
#
# Mechanical properties :
#
#
# Convention : Reuss Voigt Hill
#
# Bulk Modulus (GPa) = 45.02327 73.28207 59.15267
# Shear Modulus (GPa) = 33.17217 39.08003 36.12610
#
# Velocity S-wave (km/s) = 3.94622 4.28324 4.11818
# Velocity P-wave (km/s) = 6.47300 7.67227 7.09801
#
# Compressibility (1/GPa) = 0.02221074
#
# Stress axis : x y z
#
# Youngs Moduli (GPa) = 132.07510 147.33788 44.65057
#
# Poissons Ratio (x) = 0.40149 0.06677
# Poissons Ratio (y) = 0.35990 0.13625
# Poissons Ratio (z) = 0.19751 0.44961
#
# Static dielectric constant tensor:
#      x y z
#    x 4.176140 0.000000 0.000000 
#    y 0.000000 4.157600 0.000000 
#    z 0.000000 0.000000 3.594310 
# 
# 
# High freq. dielectric constant tensor:
#      x y z
#    x 1.844290 0.000000 0.000000 
#    y 0.000000 1.847960 0.000000 
#    z 0.000000 0.000000 1.823680 
# 
# From -- ./inp_files/20175.got.cif
#   From: 2010.03.12/outbox.cif.g09.slc.cpg/sg72_11_cif.got.tgz:20175.got - 2010.04.16 14:54:00.
