data_PCOD8295101
_publ_section_title
;
Structure prediction by ZEFSAII (Michael W. Deem and Ramdas Pophale) SiO2 
 PCOD8295101
Probable space group: I B A M
;
_chemical_formula_sum "Si O2"
_cell_formula_units_Z 88
_cell_length_a 32.215986
_cell_length_b 5.119555
_cell_length_c 24.051615
_cell_angle_alpha 90.000000
_cell_angle_beta 90.000000
_cell_angle_gamma 90.000000
_cell_volume 3966.869233
_symmetry_space_group_name_H-M "I B A M"
_symmetry_group_IT_number 72
_symmetry_cell_setting 'orthorhombic'
loop_
_space_group_symop_operation_xyz
x,y,z
-x,-y,z
x,-y,1/2-z
-x,y,1/2-z
-x,-y,-z
x,y,-z
-x,y,1/2+z
x,-y,1/2+z
1/2+x,1/2+y,1/2+z
1/2-x,1/2-y,1/2+z
1/2+x,1/2-y,-z
1/2-x,1/2+y,-z
1/2-x,1/2-y,1/2-z
1/2+x,1/2+y,1/2-z
1/2-x,1/2+y,z
1/2+x,1/2-y,z
loop_
_atom_site_type_symbol
_atom_site_label
_atom_site_fract_x
_atom_site_fract_y
_atom_site_fract_z
Si Si1 0.404556 0.019804 0.609152
Si Si2 0.775442 0.091431 0.376256
Si Si3 0.856250 0.494368 0.000000
Si Si4 0.047851 0.040192 0.637421
Si Si5 0.694727 0.484977 0.000000
Si Si6 0.844180 0.355799 0.301855
Si Si7 0.412137 0.500000 0.750000
O O1 0.384010 0.943917 0.552179
O O2 0.442045 0.818637 0.611320
O O3 0.422827 0.311984 0.612580
O O4 0.367571 0.958299 0.653795
O O5 0.740201 0.303125 0.360083
O O6 0.781568 0.096287 0.443107
O O7 0.815335 0.157312 0.337714
O O8 0.844721 0.798346 0.000000
O O9 0.817294 0.291111 0.000000
O O10 0.056191 0.083252 0.702237
O O11 0.000000 0.000000 0.624285
O O12 0.819966 0.500000 0.250000
O O13 0.882470 0.226441 0.270529
#
# Coordination Sequence:
#
# PCOD8295101 Si02
#       7
#    16  16   8  16   8  16   8
#     4  11  24  43  67 103 133 178 229 281 333 413
#     4  12  28  45  68 102 141 176 223 285 348 402
#     4  12  24  43  75 102 128 178 235 281 328 406
#     4  11  23  42  67 101 140 178 221 282 348 400
#     4  12  24  45  74  98 135 174 233 289 331 399
#     4  11  24  43  71  96 139 180 233 277 343 404
#     4  10  23  40  68  96 134 180 236 282 316 412
#
# _framework density 22.183738999999999
#
# number of rings (size 3 to 8) (size 9 to 14) (size 15 to 20)
#    0.000    0.727    3.636    3.545    5.091    0.727 
#    0.000    4.545    0.000    0.000    0.000    0.000 
#    0.000    0.000    0.000    0.000    0.000    0.000 
#
# Total GULP energy -545200.954664 kJ/mol
# GULP energy per Si atom -12390.930788 kJ/mol
# Density = 2.213325 g / cm^3
# Si number density = 22.183739 Si / 1000 Ang^3
#
#
#
# Elastic Constant Matrix: (Units=GPa)
#
#
# Indices 1 2 3 4 5 6 
#
# 1 75.5287 10.0589 26.7716 0.0000 0.0000 0.0000
# 2 10.0589 85.8769 23.9465 0.0000 0.0000 0.0000
# 3 26.7716 23.9465 125.9982 0.0000 0.0000 0.0000
# 4 0.0000 0.0000 0.0000 38.0255 0.0000 0.0000
# 5 0.0000 0.0000 0.0000 0.0000 21.6894 0.0000
# 6 0.0000 0.0000 0.0000 0.0000 0.0000 1970.9931
#
#
#
# Elastic Compliance Matrix: (Units=1/GPa)
#
#
# Indices 1 2 3 4 5 6 
#
# 1 0.014381 -0.000879 -0.002889 0.000000 0.000000 0.000000
# 2 -0.000879 0.012350 -0.002160 0.000000 0.000000 0.000000
# 3 -0.002889 -0.002160 0.008961 0.000000 0.000000 0.000000
# 4 0.000000 0.000000 0.000000 0.026298 0.000000 0.000000
# 5 0.000000 0.000000 0.000000 0.000000 0.046105 0.000000
# 6 0.000000 0.000000 0.000000 0.000000 0.000000 0.000507
#
#
# Mechanical properties :
#
#
# Convention : Reuss Voigt Hill
#
# Bulk Modulus (GPa) = 41.95342 45.43975 43.69659
# Shear Modulus (GPa) = 38.93959 421.25005 230.09482
#
# Velocity S-wave (km/s) = 4.19420 13.79506 10.19546
# Velocity P-wave (km/s) = 6.51214 16.56098 12.58320
#
# Compressibility (1/GPa) = 0.02383596
#
# Stress axis : x y z
#
# Youngs Moduli (GPa) = 69.53658 80.97202 111.59517
#
# Poissons Ratio (x) = 0.07117 0.32235
# Poissons Ratio (y) = 0.06112 0.24109
# Poissons Ratio (z) = 0.20086 0.17493
#
# Static dielectric constant tensor:
#      x y z
#    x 3.862580 0.000000 0.000000 
#    y 0.000000 4.008040 0.000000 
#    z 0.000000 0.000000 5.017060 
# 
# 
# High freq. dielectric constant tensor:
#      x y z
#    x 1.863100 0.000000 0.000000 
#    y 0.000000 1.877750 0.000000 
#    z 0.000000 0.000000 1.886190 
# 
# From -- ./inp_files/46157.got.cif
#   From: 2010.03.12/outbox.cif.g09.slc.cpg/sg72_24_cif.got.tgz:46157.got - 2010.04.16 14:54:00.
