data_PCOD8295573
_publ_section_title
;
Structure prediction by ZEFSAII (Michael W. Deem and Ramdas Pophale) SiO2 
 PCOD8295573
Probable space group: I B C A 
;
_chemical_formula_sum "Si O2"
_cell_formula_units_Z 88
_cell_length_a 25.946728
_cell_length_b 17.716761
_cell_length_c 9.391208
_cell_angle_alpha 90.000000
_cell_angle_beta 90.000000
_cell_angle_gamma 90.000000
_cell_volume 4317.062988
_symmetry_space_group_name_H-M "I B C A "
_symmetry_group_IT_number 73
_symmetry_cell_setting 'orthorhombic'
loop_
_space_group_symop_operation_xyz
x,y,z
-x,1/2-y,z
x,-y,1/2-z
1/2-x,y,-z
-x,-y,-z
x,1/2+y,-z
-x,y,1/2+z
1/2+x,-y,z
1/2+x,1/2+y,1/2+z
1/2-x,-y,1/2+z
1/2+x,1/2-y,-z
-x,1/2+y,1/2-z
1/2-x,1/2-y,1/2-z
1/2+x,y,1/2-z
1/2-x,1/2+y,z
x,1/2-y,1/2+z
loop_
_atom_site_type_symbol
_atom_site_label
_atom_site_fract_x
_atom_site_fract_y
_atom_site_fract_z
Si Si1 0.485003 0.661986 0.842799
Si Si2 0.104152 0.282250 0.184544
Si Si3 0.064895 0.871494 0.377248
Si Si4 0.324077 0.416810 0.293761
Si Si5 0.668027 0.710187 0.921405
Si Si6 0.250000 0.173377 0.000000
O O1 0.500000 0.750000 0.873674
O O2 0.438366 0.655809 0.726512
O O3 0.532592 0.618009 0.768831
O O4 0.469180 0.611965 0.981165
O O5 0.077754 0.215899 0.094913
O O6 0.122343 0.248013 0.333613
O O7 0.150436 0.311071 0.082874
O O8 0.118165 0.918307 0.361510
O O9 0.306796 0.500000 0.250000
O O10 0.318013 0.368795 0.150181
O O11 0.284680 0.381238 0.405372
O O12 0.714288 0.769955 0.910407
#
# Coordination Sequence:
#
# PCOD8295573 Si02
#       6
#    16  16  16  16  16   8
#     4  10  18  29  57  95 126 166 217 270 316 372
#     4  10  18  33  57  93 127 159 208 275 316 365
#     4  10  20  34  57  86 130 165 213 263 318 378
#     4  11  26  44  63  93 138 173 207 276 341 394
#     4  11  21  38  67  94 124 165 218 271 322 382
#     4  12  22  44  70  96 120 166 228 272 324 396
#
# _framework density 20.384229000000001
#
# number of rings (size 3 to 8) (size 9 to 14) (size 15 to 20)
#    0.000    1.455    5.455    2.182    5.091    0.727 
#    0.000    0.909    0.000    0.000    0.000    0.000 
#    0.000    0.000    0.000    0.000    0.000    0.000 
#
# Total GULP energy -545191.596746 kJ/mol
# GULP energy per Si atom -12390.718108 kJ/mol
# Density = 2.033783 g / cm^3
# Si number density = 20.384229 Si / 1000 Ang^3
#
#
#
# Elastic Constant Matrix: (Units=GPa)
#
#
# Indices 1 2 3 4 5 6 
#
# 1 107.3344 45.2694 43.8113 0.0000 0.0000 0.0000
# 2 45.2694 81.3404 35.6611 0.0000 0.0000 0.0000
# 3 43.8113 35.6611 104.5970 0.0000 0.0000 0.0000
# 4 0.0000 0.0000 0.0000 32.4130 0.0000 0.0000
# 5 0.0000 0.0000 0.0000 0.0000 12.4778 0.0000
# 6 0.0000 0.0000 0.0000 0.0000 0.0000 14.5122
#
#
#
# Elastic Compliance Matrix: (Units=1/GPa)
#
#
# Indices 1 2 3 4 5 6 
#
# 1 0.013213 -0.005793 -0.003559 0.000000 0.000000 0.000000
# 2 -0.005793 0.016994 -0.003368 0.000000 0.000000 0.000000
# 3 -0.003559 -0.003368 0.012199 0.000000 0.000000 0.000000
# 4 0.000000 0.000000 0.000000 0.030852 0.000000 0.000000
# 5 0.000000 0.000000 0.000000 0.000000 0.080142 0.000000
# 6 0.000000 0.000000 0.000000 0.000000 0.000000 0.068907
#
#
# Mechanical properties :
#
#
# Convention : Reuss Voigt Hill
#
# Bulk Modulus (GPa) = 58.93793 60.30615 59.62204
# Shear Modulus (GPa) = 19.73140 23.11594 21.42367
#
# Velocity S-wave (km/s) = 3.11460 3.37116 3.24542
# Velocity P-wave (km/s) = 6.47384 6.69342 6.58455
#
# Compressibility (1/GPa) = 0.01696700
#
# Stress axis : x y z
#
# Youngs Moduli (GPa) = 75.68463 58.84258 81.97090
#
# Poissons Ratio (x) = 0.34088 0.29175
# Poissons Ratio (y) = 0.43844 0.27605
# Poissons Ratio (z) = 0.26938 0.19816
#
# Static dielectric constant tensor:
#      x y z
#    x 4.374280 0.000000 0.000000 
#    y 0.000000 3.146050 0.000000 
#    z 0.000000 0.000000 4.225640 
# 
# 
# High freq. dielectric constant tensor:
#      x y z
#    x 1.814260 0.000000 0.000000 
#    y 0.000000 1.728040 0.000000 
#    z 0.000000 0.000000 1.808250 
# 
# From -- ./inp_files/8384.got.cif
#   From: 2010.03.12/outbox.cif.g09.slc.cpg/sg73_5_cif.got.tgz:8384.got - 2010.04.16 15:25:48.
