data_PCOD8295636
_publ_section_title
;
Structure prediction by ZEFSAII (Michael W. Deem and Ramdas Pophale) SiO2 
 PCOD8295636
Probable space group: I B C A 
;
_chemical_formula_sum "Si O2"
_cell_formula_units_Z 104
_cell_length_a 28.571897
_cell_length_b 20.069639
_cell_length_c 8.658903
_cell_angle_alpha 90.000000
_cell_angle_beta 90.000000
_cell_angle_gamma 90.000000
_cell_volume 4965.254471
_symmetry_space_group_name_H-M "I B C A "
_symmetry_group_IT_number 73
_symmetry_cell_setting 'orthorhombic'
loop_
_space_group_symop_operation_xyz
x,y,z
-x,1/2-y,z
x,-y,1/2-z
1/2-x,y,-z
-x,-y,-z
x,1/2+y,-z
-x,y,1/2+z
1/2+x,-y,z
1/2+x,1/2+y,1/2+z
1/2-x,-y,1/2+z
1/2+x,1/2-y,-z
-x,1/2+y,1/2-z
1/2-x,1/2-y,1/2-z
1/2+x,y,1/2-z
1/2-x,1/2+y,z
x,1/2-y,1/2+z
loop_
_atom_site_type_symbol
_atom_site_label
_atom_site_fract_x
_atom_site_fract_y
_atom_site_fract_z
Si Si1 0.386447 0.500000 0.750000
Si Si2 0.455290 0.073622 0.686110
Si Si3 0.186972 0.408524 0.129177
Si Si4 0.378074 0.294412 0.918475
Si Si5 0.547891 0.892214 0.667943
Si Si6 0.868742 0.159976 0.737889
Si Si7 0.785470 0.925495 0.715008
O O1 0.350355 0.470098 0.877055
O O2 0.420697 0.562453 0.786655
O O3 0.498153 0.118480 0.750407
O O4 0.454782 0.071337 0.499755
O O5 0.408421 0.103453 0.761009
O O6 0.462612 0.000000 0.750000
O O7 0.161397 0.338655 0.169101
O O8 0.229782 0.416939 0.252582
O O9 0.208124 0.407030 0.961465
O O10 0.428864 0.320235 0.861019
O O11 0.375980 0.215912 0.890861
O O12 0.369985 0.302824 0.099407
O O13 0.819237 0.125225 0.693320
O O14 0.801593 0.000000 0.750000
#
# Coordination Sequence:
#
# PCOD8295636 Si02
#       7
#     8  16  16  16  16  16  16
#     4  10  18  36  56  82 112 152 180 234 288 348
#     4  11  22  39  59  91 118 153 190 248 293 349
#     4   9  19  36  61  80 122 147 187 244 292 343
#     4   9  21  41  55  84 111 162 193 238 291 340
#     4  10  22  37  61  84 122 149 196 237 297 342
#     4  10  22  39  58  81 122 153 199 238 287 345
#     4  10  19  37  59  89 115 152 189 243 296 349
#
# _framework density 20.945551999999999
#
# number of rings (size 3 to 8) (size 9 to 14) (size 15 to 20)
#    0.000    2.154    1.538    1.846    0.000    2.462 
#    8.308    3.077    0.000    0.000    0.000    0.000 
#    0.000    0.000    0.000    0.000    0.000    0.000 
#
# Total GULP energy -644198.942482 kJ/mol
# GULP energy per Si atom -12388.441202 kJ/mol
# Density = 2.089788 g / cm^3
# Si number density = 20.945552 Si / 1000 Ang^3
#
#
#
# Elastic Constant Matrix: (Units=GPa)
#
#
# Indices 1 2 3 4 5 6 
#
# 1 124.1692 24.8550 27.1747 0.0000 0.0000 0.0000
# 2 24.8550 77.7761 20.0093 0.0000 0.0000 0.0000
# 3 27.1747 20.0093 18.8756 0.0000 0.0000 0.0000
# 4 0.0000 0.0000 0.0000 31.6390 0.0000 0.0000
# 5 0.0000 0.0000 0.0000 0.0000 23.6113 0.0000
# 6 0.0000 0.0000 0.0000 0.0000 0.0000 23.0299
#
#
#
# Elastic Compliance Matrix: (Units=1/GPa)
#
#
# Indices 1 2 3 4 5 6 
#
# 1 0.011797 0.000824 -0.017857 0.000000 0.000000 0.000000
# 2 0.000824 0.017736 -0.019988 0.000000 0.000000 0.000000
# 3 -0.017857 -0.019988 0.099875 0.000000 0.000000 0.000000
# 4 0.000000 0.000000 0.000000 0.031607 0.000000 0.000000
# 5 0.000000 0.000000 0.000000 0.000000 0.042353 0.000000
# 6 0.000000 0.000000 0.000000 0.000000 0.000000 0.043422
#
#
# Mechanical properties :
#
#
# Convention : Reuss Voigt Hill
#
# Bulk Modulus (GPa) = 18.06152 40.54433 29.30292
# Shear Modulus (GPa) = 14.73683 25.57483 20.15583
#
# Velocity S-wave (km/s) = 2.65538 3.49809 3.10546
# Velocity P-wave (km/s) = 4.24773 5.97617 5.18449
#
# Compressibility (1/GPa) = 0.05536633
#
# Stress axis : x y z
#
# Youngs Moduli (GPa) = 84.77047 56.38137 10.01251
#
# Poissons Ratio (x) = -0.04647 0.17879
# Poissons Ratio (y) = -0.06986 0.20013
# Poissons Ratio (z) = 1.51373 1.12696
#
# Static dielectric constant tensor:
#      x y z
#    x 4.639280 0.000000 0.000000 
#    y 0.000000 3.633010 0.000000 
#    z 0.000000 0.000000 3.476330 
# 
# 
# High freq. dielectric constant tensor:
#      x y z
#    x 1.843820 0.000000 0.000000 
#    y 0.000000 1.808770 0.000000 
#    z 0.000000 0.000000 1.785470 
# 
# From -- ./inp_files/7894.got.cif
#   From: 2010.03.12/outbox.cif.g09.slc.cpg/sg73_4_cif.got.tgz:7894.got - 2010.04.16 15:25:48.
