data_PCOD8295345
_publ_section_title
;
Structure prediction by ZEFSAII (Michael W. Deem and Ramdas Pophale) SiO2 
 PCOD8295345
Probable space group: I B A M
;
_chemical_formula_sum "Si O2"
_cell_formula_units_Z 96
_cell_length_a 13.127029
_cell_length_b 14.830053
_cell_length_c 23.399648
_cell_angle_alpha 90.000000
_cell_angle_beta 90.000000
_cell_angle_gamma 90.000000
_cell_volume 4555.315612
_symmetry_space_group_name_H-M "I B A M"
_symmetry_group_IT_number 72
_symmetry_cell_setting 'orthorhombic'
loop_
_space_group_symop_operation_xyz
x,y,z
-x,-y,z
x,-y,1/2-z
-x,y,1/2-z
-x,-y,-z
x,y,-z
-x,y,1/2+z
x,-y,1/2+z
1/2+x,1/2+y,1/2+z
1/2-x,1/2-y,1/2+z
1/2+x,1/2-y,-z
1/2-x,1/2+y,-z
1/2-x,1/2-y,1/2-z
1/2+x,1/2+y,1/2-z
1/2-x,1/2+y,z
1/2+x,1/2-y,z
loop_
_atom_site_type_symbol
_atom_site_label
_atom_site_fract_x
_atom_site_fract_y
_atom_site_fract_z
Si Si1 0.727015 0.904766 0.379904
Si Si2 0.574753 0.146634 0.500000
Si Si3 0.892438 0.619143 0.771611
Si Si4 0.882402 0.260433 0.882822
Si Si5 0.748719 0.089168 0.327052
Si Si6 0.858497 0.550007 0.000000
Si Si7 0.944273 0.807024 0.199245
O O1 0.626796 0.895457 0.339414
O O2 0.802623 0.820604 0.374428
O O3 0.698128 0.911267 0.445347
O O4 0.777839 0.997393 0.359186
O O5 0.589737 0.215405 0.447665
O O6 0.468149 0.095402 0.500000
O O7 0.649903 0.059602 0.500000
O O8 0.798594 0.574902 0.736324
O O9 0.894097 0.726683 0.762527
O O10 0.000000 0.576654 0.750000
O O11 0.837437 0.353045 0.858612
O O12 0.985232 0.232196 0.850740
O O13 0.856806 0.136714 0.329693
O O14 0.000000 0.864550 0.250000
#
# Coordination Sequence:
#
# PCOD8295345 Si02
#       7
#    16   8  16  16  16   8  16
#     4  12  26  43  69 102 136 180 230 278 344 410
#     4  11  25  44  70  99 136 175 220 286 353 389
#     4  11  22  40  67 102 137 177 221 282 345 402
#     4  12  24  46  68  96 139 181 225 280 345 403
#     4  12  24  42  67 101 136 180 225 281 342 409
#     4  11  25  44  72 103 130 173 231 289 334 405
#     4  11  22  41  70  96 137 184 222 275 342 419
#
# _framework density 21.074280999999999
#
# number of rings (size 3 to 8) (size 9 to 14) (size 15 to 20)
#    0.000    0.500    6.667    3.500    0.000    2.000 
#    0.000    1.667    0.000    2.000    0.000    0.000 
#    0.000    0.000    0.000    0.000    0.000    0.000 
#
# Total GULP energy -594882.843383 kJ/mol
# GULP energy per Si atom -12393.392570 kJ/mol
# Density = 2.102632 g / cm^3
# Si number density = 21.074281 Si / 1000 Ang^3
#
#
#
# Elastic Constant Matrix: (Units=GPa)
#
#
# Indices 1 2 3 4 5 6 
#
# 1 85.9256 37.2206 42.0784 0.0000 0.0000 0.0000
# 2 37.2206 107.8278 31.0904 0.0000 0.0000 0.0000
# 3 42.0784 31.0904 145.8960 0.0000 0.0000 0.0000
# 4 0.0000 0.0000 0.0000 36.4439 0.0000 0.0000
# 5 0.0000 0.0000 0.0000 0.0000 28.2876 0.0000
# 6 0.0000 0.0000 0.0000 0.0000 0.0000 193.6541
#
#
#
# Elastic Compliance Matrix: (Units=1/GPa)
#
#
# Indices 1 2 3 4 5 6 
#
# 1 0.015174 -0.004236 -0.003474 0.000000 0.000000 0.000000
# 2 -0.004236 0.011064 -0.001136 0.000000 0.000000 0.000000
# 3 -0.003474 -0.001136 0.008098 0.000000 0.000000 0.000000
# 4 0.000000 0.000000 0.000000 0.027439 0.000000 0.000000
# 5 0.000000 0.000000 0.000000 0.000000 0.035351 0.000000
# 6 0.000000 0.000000 0.000000 0.000000 0.000000 0.005164
#
#
# Mechanical properties :
#
#
# Convention : Reuss Voigt Hill
#
# Bulk Modulus (GPa) = 60.08046 62.26980 61.17513
# Shear Modulus (GPa) = 39.83098 66.96112 53.39605
#
# Velocity S-wave (km/s) = 4.35216 5.64295 5.03905
# Velocity P-wave (km/s) = 7.33661 8.48935 7.93394
#
# Compressibility (1/GPa) = 0.01664435
#
# Stress axis : x y z
#
# Youngs Moduli (GPa) = 65.90173 90.38424 123.48561
#
# Poissons Ratio (x) = 0.38290 0.42895
# Poissons Ratio (y) = 0.27918 0.14027
# Poissons Ratio (z) = 0.22892 0.10267
#
# Static dielectric constant tensor:
#      x y z
#    x 3.739240 0.000000 0.000000 
#    y 0.000000 3.989160 0.000000 
#    z 0.000000 0.000000 3.946080 
# 
# 
# High freq. dielectric constant tensor:
#      x y z
#    x 1.815260 0.000000 0.000000 
#    y 0.000000 1.836480 0.000000 
#    z 0.000000 0.000000 1.834950 
# 
# From -- ./inp_files/38084.got.cif
#   From: 2010.03.12/outbox.cif.g09.slc.cpg/sg72_20_cif.got.tgz:38084.got - 2010.04.16 14:54:00.
