data_PCOD8295143
_publ_section_title
;
Structure prediction by ZEFSAII (Michael W. Deem and Ramdas Pophale) SiO2 
 PCOD8295143
Probable space group: I B A M
;
_chemical_formula_sum "Si O2"
_cell_formula_units_Z 64
_cell_length_a 12.911521
_cell_length_b 9.332938
_cell_length_c 24.661721
_cell_angle_alpha 90.000000
_cell_angle_beta 90.000000
_cell_angle_gamma 90.000000
_cell_volume 2971.797185
_symmetry_space_group_name_H-M "I B A M"
_symmetry_group_IT_number 72
_symmetry_cell_setting 'orthorhombic'
loop_
_space_group_symop_operation_xyz
x,y,z
-x,-y,z
x,-y,1/2-z
-x,y,1/2-z
-x,-y,-z
x,y,-z
-x,y,1/2+z
x,-y,1/2+z
1/2+x,1/2+y,1/2+z
1/2-x,1/2-y,1/2+z
1/2+x,1/2-y,-z
1/2-x,1/2+y,-z
1/2-x,1/2-y,1/2-z
1/2+x,1/2+y,1/2-z
1/2-x,1/2+y,z
1/2+x,1/2-y,z
loop_
_atom_site_type_symbol
_atom_site_label
_atom_site_fract_x
_atom_site_fract_y
_atom_site_fract_z
Si Si1 0.101746 0.929327 0.808187
Si Si2 0.619570 0.760050 0.439568
Si Si3 0.548615 0.145111 0.647137
Si Si4 0.247949 0.487796 0.600559
O O1 0.076975 0.758284 0.805284
O O2 0.122259 0.000000 0.750000
O O3 0.203068 0.955615 0.843481
O O4 0.000000 0.000000 0.835026
O O5 0.572053 0.771102 0.500000
O O6 0.531155 0.785888 0.395418
O O7 0.667772 0.602261 0.432677
O O8 0.710989 0.876898 0.434198
O O9 0.651620 0.113266 0.613838
O O10 0.500000 0.000000 0.672935
#
# Coordination Sequence:
#
# PCOD8295143 Si02
#       4
#    16  16  16  16
#     4  11  23  43  69  96 131 178 220 283 335 389
#     4  11  23  40  67  99 135 178 223 277 337 396
#     4  10  23  43  66  95 137 173 220 279 327 399
#     4  11  22  42  66  96 137 173 228 275 328 404
#
# _framework density 21.535788
#
# number of rings (size 3 to 8) (size 9 to 14) (size 15 to 20)
#    0.000    1.250    5.000    0.750    0.000    6.500 
#    0.000    3.750    0.000    0.000    0.000    0.000 
#    0.000    0.000    0.000    0.000    0.000    0.000 
#
# Total GULP energy -396722.327547 kJ/mol
# GULP energy per Si atom -12397.572736 kJ/mol
# Density = 2.148677 g / cm^3
# Si number density = 21.535788 Si / 1000 Ang^3
#
#
#
# Elastic Constant Matrix: (Units=GPa)
#
#
# Indices 1 2 3 4 5 6 
#
# 1 81.3774 19.2220 19.6589 0.0000 0.0000 0.0000
# 2 19.2220 130.9115 57.5794 0.0000 0.0000 0.0000
# 3 19.6589 57.5794 105.4148 0.0000 0.0000 0.0000
# 4 0.0000 0.0000 0.0000 20.6863 0.0000 0.0000
# 5 0.0000 0.0000 0.0000 0.0000 19.8351 0.0000
# 6 0.0000 0.0000 0.0000 0.0000 0.0000 26.1927
#
#
#
# Elastic Compliance Matrix: (Units=1/GPa)
#
#
# Indices 1 2 3 4 5 6 
#
# 1 0.012989 -0.001108 -0.001817 0.000000 0.000000 0.000000
# 2 -0.001108 0.010149 -0.005337 0.000000 0.000000 0.000000
# 3 -0.001817 -0.005337 0.012740 0.000000 0.000000 0.000000
# 4 0.000000 0.000000 0.000000 0.048341 0.000000 0.000000
# 5 0.000000 0.000000 0.000000 0.000000 0.050416 0.000000
# 6 0.000000 0.000000 0.000000 0.000000 0.000000 0.038179
#
#
# Mechanical properties :
#
#
# Convention : Reuss Voigt Hill
#
# Bulk Modulus (GPa) = 51.66814 56.73602 54.20208
# Shear Modulus (GPa) = 25.53772 28.09238 26.81505
#
# Velocity S-wave (km/s) = 3.44732 3.61564 3.53248
# Velocity P-wave (km/s) = 6.31579 6.62062 6.47000
#
# Compressibility (1/GPa) = 0.01935429
#
# Stress axis : x y z
#
# Youngs Moduli (GPa) = 76.98755 98.53440 78.49130
#
# Poissons Ratio (x) = 0.10917 0.14263
# Poissons Ratio (y) = 0.08530 0.41889
# Poissons Ratio (z) = 0.13990 0.52586
#
# Static dielectric constant tensor:
#      x y z
#    x 4.026340 0.000000 0.000000 
#    y 0.000000 4.231910 0.000000 
#    z 0.000000 0.000000 3.453410 
# 
# 
# High freq. dielectric constant tensor:
#      x y z
#    x 1.853880 0.000000 0.000000 
#    y 0.000000 1.865580 0.000000 
#    z 0.000000 0.000000 1.815210 
# 
# From -- ./inp_files/41891.got.cif
#   From: 2010.03.12/outbox.cif.g09.slc.cpg/sg72_21_cif.got.tgz:41891.got - 2010.04.16 14:54:00.
