data_PCOD8295514
_publ_section_title
;
Structure prediction by ZEFSAII (Michael W. Deem and Ramdas Pophale) SiO2 
 PCOD8295514
Probable space group: I B A M
;
_chemical_formula_sum "Si O2"
_cell_formula_units_Z 48
_cell_length_a 21.000000
_cell_length_b 27.000000
_cell_length_c 9.000000
_cell_angle_alpha 90.000000
_cell_angle_beta 90.000000
_cell_angle_gamma 90.000000
_cell_volume 5103.000000
_symmetry_space_group_name_H-M "I B A M"
_symmetry_group_IT_number 72
_symmetry_cell_setting 'orthorhombic'
loop_
_space_group_symop_operation_xyz
x,y,z
-x,-y,z
x,-y,1/2-z
-x,y,1/2-z
-x,-y,-z
x,y,-z
-x,y,1/2+z
x,-y,1/2+z
1/2+x,1/2+y,1/2+z
1/2-x,1/2-y,1/2+z
1/2+x,1/2-y,-z
1/2-x,1/2+y,-z
1/2-x,1/2-y,1/2-z
1/2+x,1/2+y,1/2-z
1/2-x,1/2+y,z
1/2+x,1/2-y,z
loop_
_atom_site_type_symbol
_atom_site_label
_atom_site_fract_x
_atom_site_fract_y
_atom_site_fract_z
Si Si1 0.564498 0.447313 0.823704
Si Si2 0.564336 0.781826 0.325313
Si Si3 0.692155 0.389132 0.172612
Si Si4 0.805123 0.552873 0.823311
Si Si5 0.564423 0.895773 0.325834
Si Si6 0.310436 0.725892 0.173821
O O1 0.579212 0.500000 0.750000
O O2 0.500000 0.424904 0.750000
O O3 0.624052 0.412464 0.785674
O O4 0.554524 0.453070 0.000000
O O5 0.500000 0.761271 0.250000
O O6 0.556086 0.775227 0.500000
O O7 0.575508 0.838862 0.279953
O O8 0.624705 0.750940 0.265494
O O9 0.748641 0.411500 0.270612
O O10 0.687127 0.331695 0.212429
O O11 0.708210 0.398198 0.000000
O O12 0.794343 0.500000 0.750000
O O13 0.873657 0.574021 0.771268
O O14 0.801731 0.548292 0.000000
O O15 0.500000 0.916756 0.250000
O O16 0.554841 0.901688 0.500000
O O17 0.250000 0.750000 0.250000
O O18 0.304260 0.735994 0.000000
#
# Coordination Sequence:
#
# PCOD8295514 Si02
#       6
#    16  16  16  16  16  16
#     4  10  20  35  55  79 107 140 178 220 267 319
#     4   9  18  34  55  79 108 141 178 220 265 315
#     4  10  22  38  56  80 110 144 182 225 271 319
#     4  11  23  38  57  81 109 142 181 225 272 323
#     4   9  19  35  55  79 107 141 179 219 265 317
#     4  10  21  37  56  80 111 144 181 226 271 318
#
# _framework density 9.4062319999999993
#
# number of rings (size 3 to 8) (size 9 to 14) (size 15 to 20)
#    0.000    2.167    0.000    3.000    0.000    7.667 
#    0.000    5.000    0.000    0.000    0.000    0.000 
#    0.000    0.000    0.000    0.000    0.000    0.000 
#
# Total GULP energy -595313.747580 kJ/mol
# GULP energy per Si atom -12402.369741 kJ/mol
# Density = 0.938482 g / cm^3
# Si number density = 9.406232 Si / 1000 Ang^3
#
#
#
# Elastic Constant Matrix: (Units=GPa)
#
#
# Indices 1 2 3 4 5 6 
#
# 1 172.7698 59.5485 52.1254 0.0000 0.0000 0.0000
# 2 59.5485 83.7638 32.7582 0.0000 0.0000 0.0000
# 3 52.1254 32.7582 64.3100 0.0000 0.0000 0.0000
# 4 0.0000 0.0000 0.0000 23.4173 0.0000 0.0000
# 5 0.0000 0.0000 0.0000 0.0000 41.8325 0.0000
# 6 0.0000 0.0000 0.0000 0.0000 0.0000 44.8814
#
#
#
# Elastic Compliance Matrix: (Units=1/GPa)
#
#
# Indices 1 2 3 4 5 6 
#
# 1 0.008750 -0.004304 -0.004900 0.000000 0.000000 0.000000
# 2 -0.004304 0.017025 -0.005184 0.000000 0.000000 0.000000
# 3 -0.004900 -0.005184 0.022161 0.000000 0.000000 0.000000
# 4 0.000000 0.000000 0.000000 0.042704 0.000000 0.000000
# 5 0.000000 0.000000 0.000000 0.000000 0.023905 0.000000
# 6 0.000000 0.000000 0.000000 0.000000 0.000000 0.022281
#
#
# Mechanical properties :
#
#
# Convention : Reuss Voigt Hill
#
# Bulk Modulus (GPa) = 52.18733 67.74533 59.96633
# Shear Modulus (GPa) = 29.07178 33.78701 31.42940
#
# Velocity S-wave (km/s) = 3.93535 4.24251 4.09182
# Velocity P-wave (km/s) = 6.96063 7.75162 7.36675
#
# Compressibility (1/GPa) = 0.01916174
#
# Stress axis : x y z
#
# Youngs Moduli (GPa) = 114.28860 58.73552 45.12350
#
# Poissons Ratio (x) = 0.25281 0.22108
# Poissons Ratio (y) = 0.49192 0.23391
# Poissons Ratio (z) = 0.55996 0.30447
#
# Static dielectric constant tensor:
#      x y z
#    x 3.790220 0.000000 0.000000 
#    y 0.000000 2.941040 0.000000 
#    z 0.000000 0.000000 3.443510 
# 
# 
# High freq. dielectric constant tensor:
#      x y z
#    x 1.757810 0.000000 0.000000 
#    y 0.000000 1.730900 0.000000 
#    z 0.000000 0.000000 1.730160 
# 
# From -- ./inp_files/5955.got.cif
#   From: 2010.03.12/outbox.ucp.g09.slc.cvg/sg72_3_cif.got.tgz:5955.got - 2010.05.04 20:02:29.
