data_PCOD8295917
_publ_section_title
;
Structure prediction by ZEFSAII (Michael W. Deem and Ramdas Pophale) SiO2 
 PCOD8295917
Probable space group: I B C A 
;
_chemical_formula_sum "Si O2"
_cell_formula_units_Z 104
_cell_length_a 20.975374
_cell_length_b 18.902346
_cell_length_c 13.889523
_cell_angle_alpha 90.000000
_cell_angle_beta 90.000000
_cell_angle_gamma 90.000000
_cell_volume 5506.970537
_symmetry_space_group_name_H-M "I B C A "
_symmetry_group_IT_number 73
_symmetry_cell_setting 'orthorhombic'
loop_
_space_group_symop_operation_xyz
x,y,z
-x,1/2-y,z
x,-y,1/2-z
1/2-x,y,-z
-x,-y,-z
x,1/2+y,-z
-x,y,1/2+z
1/2+x,-y,z
1/2+x,1/2+y,1/2+z
1/2-x,-y,1/2+z
1/2+x,1/2-y,-z
-x,1/2+y,1/2-z
1/2-x,1/2-y,1/2-z
1/2+x,y,1/2-z
1/2-x,1/2+y,z
x,1/2-y,1/2+z
loop_
_atom_site_type_symbol
_atom_site_label
_atom_site_fract_x
_atom_site_fract_y
_atom_site_fract_z
Si Si1 0.359961 0.000000 0.750000
Si Si2 0.571722 0.240790 0.376025
Si Si3 0.920287 0.640697 0.740194
Si Si4 0.122401 0.760375 0.579230
Si Si5 0.744281 0.550348 0.605700
Si Si6 0.150097 0.500000 0.250000
Si Si7 0.250000 0.187879 0.000000
Si Si8 0.071312 0.359485 0.782420
O O1 0.318109 0.974865 0.660605
O O2 0.404305 0.061162 0.707086
O O3 0.500000 0.250000 0.342897
O O4 0.603023 0.311128 0.330283
O O5 0.575122 0.232487 0.489463
O O6 0.596297 0.170821 0.320205
O O7 0.884535 0.670383 0.645418
O O8 0.896961 0.564232 0.773790
O O9 0.994831 0.640595 0.712186
O O10 0.192478 0.759861 0.529905
O O11 0.103686 0.688520 0.634206
O O12 0.750000 0.514506 0.500000
O O13 0.807154 0.525144 0.661101
O O14 0.737420 0.636008 0.592148
#
# Coordination Sequence:
#
# PCOD8295917 Si02
#       8
#     8  16  16  16  16   8   8  16
#     4  11  21  40  58  84 121 153 196 242 308 349
#     4   9  19  36  57  82 116 152 191 242 296 348
#     4  10  20  37  59  88 121 149 204 244 301 366
#     4  11  20  39  59  84 119 156 200 245 298 350
#     4   9  21  39  58  77 118 158 194 239 295 351
#     4  11  19  36  62  86 115 167 196 244 308 369
#     4  10  20  40  58  84 114 160 194 248 286 362
#     4  10  22  36  59  90 116 157 193 254 301 356
#
# _framework density 18.885155999999998
#
# number of rings (size 3 to 8) (size 9 to 14) (size 15 to 20)
#    0.462    1.538    1.538    3.692    0.000    1.231 
#    6.923    2.308    0.000    8.308    0.000    0.000 
#    0.000    0.000    0.000    0.000    0.000    0.000 
#
# Total GULP energy -644213.513851 kJ/mol
# GULP energy per Si atom -12388.721420 kJ/mol
# Density = 1.884217 g / cm^3
# Si number density = 18.885156 Si / 1000 Ang^3
#
#
#
# Elastic Constant Matrix: (Units=GPa)
#
#
# Indices 1 2 3 4 5 6 
#
# 1 86.1290 31.1793 14.1732 0.0000 0.0000 0.0000
# 2 31.1793 90.4408 14.6337 0.0000 0.0000 0.0000
# 3 14.1732 14.6337 98.2848 0.0000 0.0000 0.0000
# 4 0.0000 0.0000 0.0000 15.8317 0.0000 0.0000
# 5 0.0000 0.0000 0.0000 0.0000 17.8464 0.0000
# 6 0.0000 0.0000 0.0000 0.0000 0.0000 33.2336
#
#
#
# Elastic Compliance Matrix: (Units=1/GPa)
#
#
# Indices 1 2 3 4 5 6 
#
# 1 0.013421 -0.004420 -0.001277 0.000000 0.000000 0.000000
# 2 -0.004420 0.012786 -0.001266 0.000000 0.000000 0.000000
# 3 -0.001277 -0.001266 0.010547 0.000000 0.000000 0.000000
# 4 0.000000 0.000000 0.000000 0.063164 0.000000 0.000000
# 5 0.000000 0.000000 0.000000 0.000000 0.056034 0.000000
# 6 0.000000 0.000000 0.000000 0.000000 0.000000 0.030090
#
#
# Mechanical properties :
#
#
# Convention : Reuss Voigt Hill
#
# Bulk Modulus (GPa) = 43.80883 43.86966 43.83925
# Shear Modulus (GPa) = 24.08735 27.70690 25.89713
#
# Velocity S-wave (km/s) = 3.57524 3.83446 3.70712
# Velocity P-wave (km/s) = 6.34752 6.54861 6.44885
#
# Compressibility (1/GPa) = 0.02282645
#
# Stress axis : x y z
#
# Youngs Moduli (GPa) = 74.51129 78.21257 94.81161
#
# Poissons Ratio (x) = 0.34571 0.12110
# Poissons Ratio (y) = 0.32935 0.12006
# Poissons Ratio (z) = 0.09517 0.09904
#
# Static dielectric constant tensor:
#      x y z
#    x 3.362490 0.000000 0.000000 
#    y 0.000000 3.420130 0.000000 
#    z 0.000000 0.000000 3.404000 
# 
# 
# High freq. dielectric constant tensor:
#      x y z
#    x 1.734700 0.000000 0.000000 
#    y 0.000000 1.727340 0.000000 
#    z 0.000000 0.000000 1.733850 
# 
# From -- ./inp_files/18849.got.cif
#   From: 2010.03.12/outbox.cif.g09.slc.cpg/sg73_10_cif.got.tgz:18849.got - 2010.04.16 15:25:48.
