data_PCOD8295859
_publ_section_title
;
Structure prediction by ZEFSAII (Michael W. Deem and Ramdas Pophale) SiO2 
 PCOD8295859
Probable space group: I B C A 
;
_chemical_formula_sum "Si O2"
_cell_formula_units_Z 96
_cell_length_a 8.327291
_cell_length_b 23.665560
_cell_length_c 24.554353
_cell_angle_alpha 90.000000
_cell_angle_beta 90.000000
_cell_angle_gamma 90.000000
_cell_volume 4838.926464
_symmetry_space_group_name_H-M "I B C A "
_symmetry_group_IT_number 73
_symmetry_cell_setting 'orthorhombic'
loop_
_space_group_symop_operation_xyz
x,y,z
-x,1/2-y,z
x,-y,1/2-z
1/2-x,y,-z
-x,-y,-z
x,1/2+y,-z
-x,y,1/2+z
1/2+x,-y,z
1/2+x,1/2+y,1/2+z
1/2-x,-y,1/2+z
1/2+x,1/2-y,-z
-x,1/2+y,1/2-z
1/2-x,1/2-y,1/2-z
1/2+x,y,1/2-z
1/2-x,1/2+y,z
x,1/2-y,1/2+z
loop_
_atom_site_type_symbol
_atom_site_label
_atom_site_fract_x
_atom_site_fract_y
_atom_site_fract_z
Si Si1 0.205933 0.700398 0.821259
Si Si2 0.000000 0.250000 0.271541
Si Si3 0.919337 0.642828 0.476581
Si Si4 0.500000 0.750000 0.087222
Si Si5 0.345494 0.418737 0.368355
Si Si6 0.109083 0.551577 0.539314
Si Si7 0.127309 0.984576 0.892498
O O1 0.392874 0.711741 0.811388
O O2 0.151400 0.739132 0.872569
O O3 0.181027 0.634684 0.831109
O O4 0.109389 0.710873 0.766042
O O5 0.750000 0.666176 0.500000
O O6 0.875052 0.597246 0.431234
O O7 0.021303 0.695079 0.451302
O O8 0.030062 0.611541 0.521853
O O9 0.508229 0.452008 0.351016
O O10 0.189202 0.458237 0.363712
O O11 0.250000 0.529173 0.500000
O O12 0.221006 0.556742 0.594182
O O13 0.975359 0.503500 0.552561
#
# Coordination Sequence:
#
# PCOD8295859 Si02
#       7
#    16   8  16   8  16  16  16
#     4   9  19  40  65  91 110 136 182 233 302 350
#     4   9  18  40  75  90 102 138 177 234 292 381
#     4  11  21  35  51  72 111 163 200 243 277 324
#     4   9  22  40  51  78 120 144 185 254 288 329
#     4  10  20  35  54  82 116 148 189 240 274 330
#     4  11  20  30  49  74 101 155 215 227 263 308
#     4  10  21  32  52  76 114 155 196 241 267 312
#
# _framework density 19.839112
#
# number of rings (size 3 to 8) (size 9 to 14) (size 15 to 20)
#    0.000    2.000    3.333    0.500    2.333    0.667 
#    3.000    8.333    0.000    3.000    0.000    0.000 
#    0.000    0.000    0.000    0.000    0.000    0.000 
#
# Total GULP energy -594675.350049 kJ/mol
# GULP energy per Si atom -12389.069793 kJ/mol
# Density = 1.979396 g / cm^3
# Si number density = 19.839112 Si / 1000 Ang^3
#
#
#
# Elastic Constant Matrix: (Units=GPa)
#
#
# Indices 1 2 3 4 5 6 
#
# 1 143.8494 79.1307 38.6206 0.0000 0.0000 0.0000
# 2 79.1307 145.3258 50.0878 0.0000 0.0000 0.0000
# 3 38.6206 50.0878 45.6273 0.0000 0.0000 0.0000
# 4 0.0000 0.0000 0.0000 19.8161 0.0000 0.0000
# 5 0.0000 0.0000 0.0000 0.0000 15.7659 0.0000
# 6 0.0000 0.0000 0.0000 0.0000 0.0000 35.0601
#
#
#
# Elastic Compliance Matrix: (Units=1/GPa)
#
#
# Indices 1 2 3 4 5 6 
#
# 1 0.010393 -0.004226 -0.004158 0.000000 0.000000 0.000000
# 2 -0.004226 0.012787 -0.010461 0.000000 0.000000 0.000000
# 3 -0.004158 -0.010461 0.036919 0.000000 0.000000 0.000000
# 4 0.000000 0.000000 0.000000 0.050464 0.000000 0.000000
# 5 0.000000 0.000000 0.000000 0.000000 0.063428 0.000000
# 6 0.000000 0.000000 0.000000 0.000000 0.000000 0.028522
#
#
# Mechanical properties :
#
#
# Convention : Reuss Voigt Hill
#
# Bulk Modulus (GPa) = 44.62116 74.49786 59.55951
# Shear Modulus (GPa) = 20.18794 25.25930 22.72362
#
# Velocity S-wave (km/s) = 3.19342 3.57207 3.38804
# Velocity P-wave (km/s) = 6.01145 7.39226 6.73732
#
# Compressibility (1/GPa) = 0.02241089
#
# Stress axis : x y z
#
# Youngs Moduli (GPa) = 96.22246 78.20175 27.08611
#
# Poissons Ratio (x) = 0.33047 0.11262
# Poissons Ratio (y) = 0.40662 0.28334
# Poissons Ratio (z) = 0.40007 0.81804
#
# Static dielectric constant tensor:
#      x y z
#    x 4.016500 0.000000 0.000000 
#    y 0.000000 3.482060 0.000000 
#    z 0.000000 0.000000 3.269220 
# 
# 
# High freq. dielectric constant tensor:
#      x y z
#    x 1.790940 0.000000 0.000000 
#    y 0.000000 1.764540 0.000000 
#    z 0.000000 0.000000 1.726170 
# 
# From -- ./inp_files/31339.got.cif
#   From: 2010.03.12/outbox.cif.g09.slc.cpg/sg73_16_cif.got.tgz:31339.got - 2010.04.16 15:25:48.
