data_PCOD8295947
_publ_section_title
;
Structure prediction by ZEFSAII (Michael W. Deem and Ramdas Pophale) SiO2 
 PCOD8295947
Probable space group: I B C A 
;
_chemical_formula_sum "Si O2"
_cell_formula_units_Z 120
_cell_length_a 28.480364
_cell_length_b 12.778670
_cell_length_c 17.516039
_cell_angle_alpha 90.000000
_cell_angle_beta 90.000000
_cell_angle_gamma 90.000000
_cell_volume 6374.807781
_symmetry_space_group_name_H-M "I B C A "
_symmetry_group_IT_number 73
_symmetry_cell_setting 'orthorhombic'
loop_
_space_group_symop_operation_xyz
x,y,z
-x,1/2-y,z
x,-y,1/2-z
1/2-x,y,-z
-x,-y,-z
x,1/2+y,-z
-x,y,1/2+z
1/2+x,-y,z
1/2+x,1/2+y,1/2+z
1/2-x,-y,1/2+z
1/2+x,1/2-y,-z
-x,1/2+y,1/2-z
1/2-x,1/2-y,1/2-z
1/2+x,y,1/2-z
1/2-x,1/2+y,z
x,1/2-y,1/2+z
loop_
_atom_site_type_symbol
_atom_site_label
_atom_site_fract_x
_atom_site_fract_y
_atom_site_fract_z
Si Si1 0.884745 0.616705 0.262811
Si Si2 0.500000 0.250000 0.512183
Si Si3 0.920295 0.884770 0.928481
Si Si4 0.644755 0.264487 0.034583
Si Si5 0.226461 0.601896 0.080778
Si Si6 0.211944 0.789558 0.307504
Si Si7 0.792852 0.629666 0.942536
Si Si8 0.430527 0.625113 0.394481
O O1 0.865186 0.500000 0.250000
O O2 0.912295 0.642871 0.340148
O O3 0.836988 0.686013 0.263871
O O4 0.924690 0.629327 0.197140
O O5 0.464232 0.315396 0.458255
O O6 0.520863 0.335776 0.570165
O O7 0.924712 0.010600 0.932454
O O8 0.874437 0.854406 0.977527
O O9 0.684792 0.313476 0.089034
O O10 0.605505 0.216899 0.086891
O O11 0.660975 0.162884 0.987645
O O12 0.266145 0.611076 0.146601
O O13 0.203451 0.488643 0.085002
O O14 0.250000 0.624595 0.000000
O O15 0.250000 0.750000 0.250000
O O16 0.207769 0.697201 0.367237
O O17 0.750000 0.649366 0.000000
#
# Coordination Sequence:
#
# PCOD8295947 Si02
#       8
#    16   8  16  16  16  16  16  16
#     4  10  22  37  57  82 116 153 188 231 282 340
#     4  10  22  38  66  88 112 138 182 236 292 352
#     4  10  20  38  60  88 113 145 185 232 287 353
#     4  11  18  37  55  84 112 150 194 240 283 332
#     4  11  21  35  54  79 112 156 207 247 283 326
#     4  12  23  36  53  81 119 156 200 237 284 332
#     4  11  22  35  55  79 112 156 201 250 282 322
#     4  10  22  37  61  87 112 143 183 230 292 349
#
# _framework density 18.824096999999998
#
# number of rings (size 3 to 8) (size 9 to 14) (size 15 to 20)
#    0.000    1.333    4.000    2.000    1.867    2.667 
#    0.000    0.000    0.000    0.000    0.000    0.000 
#    0.000    0.000    0.000    0.000    0.000    0.000 
#
# Total GULP energy -743291.816631 kJ/mol
# GULP energy per Si atom -12388.196944 kJ/mol
# Density = 1.878125 g / cm^3
# Si number density = 18.824097 Si / 1000 Ang^3
#
#
#
# Elastic Constant Matrix: (Units=GPa)
#
#
# Indices 1 2 3 4 5 6 
#
# 1 81.9972 31.6464 31.4414 0.0000 0.0000 0.0000
# 2 31.6464 107.9289 24.4523 0.0000 0.0000 0.0000
# 3 31.4414 24.4523 85.8315 0.0000 0.0000 0.0000
# 4 0.0000 0.0000 0.0000 19.0909 0.0000 0.0000
# 5 0.0000 0.0000 0.0000 0.0000 21.6927 0.0000
# 6 0.0000 0.0000 0.0000 0.0000 0.0000 30.7669
#
#
#
# Elastic Compliance Matrix: (Units=1/GPa)
#
#
# Indices 1 2 3 4 5 6 
#
# 1 0.015295 -0.003437 -0.004624 0.000000 0.000000 0.000000
# 2 -0.003437 0.010677 -0.001783 0.000000 0.000000 0.000000
# 3 -0.004624 -0.001783 0.013852 0.000000 0.000000 0.000000
# 4 0.000000 0.000000 0.000000 0.052381 0.000000 0.000000
# 5 0.000000 0.000000 0.000000 0.000000 0.046098 0.000000
# 6 0.000000 0.000000 0.000000 0.000000 0.000000 0.032502
#
#
# Mechanical properties :
#
#
# Convention : Reuss Voigt Hill
#
# Bulk Modulus (GPa) = 49.65872 50.09312 49.87592
# Shear Modulus (GPa) = 25.35426 26.85794 26.10610
#
# Velocity S-wave (km/s) = 3.67400 3.78138 3.72808
# Velocity P-wave (km/s) = 6.66599 6.76269 6.71451
#
# Compressibility (1/GPa) = 0.02013745
#
# Stress axis : x y z
#
# Youngs Moduli (GPa) = 65.38081 93.65857 72.19030
#
# Poissons Ratio (x) = 0.32192 0.33378
# Poissons Ratio (y) = 0.22473 0.12869
# Poissons Ratio (z) = 0.30229 0.16696
#
# Static dielectric constant tensor:
#      x y z
#    x 3.531230 0.000000 0.000000 
#    y 0.000000 3.600740 0.000000 
#    z 0.000000 0.000000 3.719850 
# 
# 
# High freq. dielectric constant tensor:
#      x y z
#    x 1.723200 0.000000 0.000000 
#    y 0.000000 1.740260 0.000000 
#    z 0.000000 0.000000 1.733410 
# 
# From -- ./inp_files/23976.got.cif
#   From: 2010.03.12/outbox.cif.g09.slc.cpg/sg73_12_cif.got.tgz:23976.got - 2010.04.16 15:25:48.
