data_PCOD8295329
_publ_section_title
;
Structure prediction by ZEFSAII (Michael W. Deem and Ramdas Pophale) SiO2 
 PCOD8295329
Probable space group: I B A M
;
_chemical_formula_sum "Si O2"
_cell_formula_units_Z 96
_cell_length_a 8.894727
_cell_length_b 25.345270
_cell_length_c 22.461454
_cell_angle_alpha 90.000000
_cell_angle_beta 90.000000
_cell_angle_gamma 90.000000
_cell_volume 5063.693510
_symmetry_space_group_name_H-M "I B A M"
_symmetry_group_IT_number 72
_symmetry_cell_setting 'orthorhombic'
loop_
_space_group_symop_operation_xyz
x,y,z
-x,-y,z
x,-y,1/2-z
-x,y,1/2-z
-x,-y,-z
x,y,-z
-x,y,1/2+z
x,-y,1/2+z
1/2+x,1/2+y,1/2+z
1/2-x,1/2-y,1/2+z
1/2+x,1/2-y,-z
1/2-x,1/2+y,-z
1/2-x,1/2-y,1/2-z
1/2+x,1/2+y,1/2-z
1/2-x,1/2+y,z
1/2+x,1/2-y,z
loop_
_atom_site_type_symbol
_atom_site_label
_atom_site_fract_x
_atom_site_fract_y
_atom_site_fract_z
Si Si1 0.307367 0.550118 0.682930
Si Si2 0.602166 0.815667 0.500000
Si Si3 0.750735 0.795633 0.000000
Si Si4 0.839107 0.064877 0.685640
Si Si5 0.093823 0.833190 0.380860
Si Si6 0.626615 0.765974 0.704711
Si Si7 0.745829 0.852827 0.384898
O O1 0.256541 0.564874 0.750161
O O2 0.482836 0.561565 0.687547
O O3 0.277116 0.490619 0.658624
O O4 0.219578 0.588136 0.638441
O O5 0.428731 0.799674 0.500000
O O6 0.710284 0.765458 0.500000
O O7 0.642803 0.849879 0.442754
O O8 0.816335 0.821594 0.940834
O O9 0.809881 0.118505 0.648466
O O10 0.082707 0.783905 0.336110
O O11 0.922547 0.845724 0.398622
O O12 0.500000 0.786272 0.750000
O O13 0.750000 0.750000 0.750000
O O14 0.684788 0.812193 0.663235
#
# Coordination Sequence:
#
# PCOD8295329 Si02
#       7
#    16   8   8  16  16  16  16
#     4   8  15  31  56  91 119 150 189 241 296 338
#     4  12  26  42  59  80 113 161 200 244 294 349
#     4  12  26  42  59  82 113 159 202 244 294 351
#     4   8  15  30  58  89 121 148 188 244 294 339
#     4  11  22  38  61  87 119 154 198 242 292 348
#     4  12  24  35  54  89 124 154 186 236 297 357
#     4  11  22  39  60  86 120 157 195 243 290 349
#
# _framework density 18.958494000000002
#
# number of rings (size 3 to 8) (size 9 to 14) (size 15 to 20)
#    0.000    1.667    3.333    3.500    4.667    0.000 
#    0.000    0.833    0.000    6.000    0.000    0.000 
#    0.000    0.000    0.000    0.000    0.000    0.000 
#
# Total GULP energy -594631.030988 kJ/mol
# GULP energy per Si atom -12388.146479 kJ/mol
# Density = 1.891534 g / cm^3
# Si number density = 18.958494 Si / 1000 Ang^3
#
#
#
# Elastic Constant Matrix: (Units=GPa)
#
#
# Indices 1 2 3 4 5 6 
#
# 1 80.3881 22.7254 39.2984 0.0000 0.0000 0.0000
# 2 22.7254 140.0447 59.7450 0.0000 0.0000 0.0000
# 3 39.2984 59.7450 123.5422 0.0001 0.0000 0.0000
# 4 0.0000 0.0000 0.0001 -16.4962 0.0000 0.0000
# 5 0.0000 0.0000 0.0000 0.0000 36.0917 0.0000
# 6 0.0000 0.0000 0.0000 0.0000 0.0000 19.9195
#
#
#
# Elastic Compliance Matrix: (Units=1/GPa)
#
#
# Indices 1 2 3 4 5 6 
#
# 1 0.014757 -0.000494 -0.004455 0.000000 0.000000 0.000000
# 2 -0.000494 0.009013 -0.004202 0.000000 0.000000 0.000000
# 3 -0.004455 -0.004202 0.011544 0.000000 0.000000 0.000000
# 4 0.000000 0.000000 0.000000 -0.060620 0.000000 0.000000
# 5 0.000000 0.000000 0.000000 0.000000 0.027707 0.000000
# 6 0.000000 0.000000 0.000000 0.000000 0.000000 0.050202
#
#
# Mechanical properties :
#
#
# Convention : Reuss Voigt Hill
#
# Bulk Modulus (GPa) = 58.78173 65.27920 62.03046
# Shear Modulus (GPa) = 65.29462 22.71675 44.00569
#
# Velocity S-wave (km/s) = 5.87500 3.46531 4.82307
# Velocity P-wave (km/s) = 8.78030 7.10764 7.98787
#
# Compressibility (1/GPa) = 0.01701209
#
# Stress axis : x y z
#
# Youngs Moduli (GPa) = 67.76288 110.94802 86.62836
#
# Poissons Ratio (x) = 0.05481 0.38596
# Poissons Ratio (y) = 0.03347 0.36398
# Poissons Ratio (z) = 0.30191 0.46617
#
# Static dielectric constant tensor:
#      x y z
#    x 3.272790 0.000000 0.000000 
#    y 0.000000 3.830080 0.000000 
#    z 0.000000 0.000000 3.641970 
# 
# 
# High freq. dielectric constant tensor:
#      x y z
#    x 1.715320 0.000000 0.000000 
#    y 0.000000 1.742230 0.000000 
#    z 0.000000 0.000000 1.737350 
# 
# From -- ./inp_files/42476.got.cif
#   From: 2010.03.12/outbox.cif.g09.slc.cpg/sg72_22_cif.got.tgz:42476.got - 2010.04.16 14:54:00.
