data_PCOD8295546
_publ_section_title
;
Structure prediction by ZEFSAII (Michael W. Deem and Ramdas Pophale) SiO2 
 PCOD8295546
Probable space group: I B C A 
;
_chemical_formula_sum "Si O2"
_cell_formula_units_Z 64
_cell_length_a 11.382072
_cell_length_b 14.066877
_cell_length_c 17.682820
_cell_angle_alpha 90.000000
_cell_angle_beta 90.000000
_cell_angle_gamma 90.000000
_cell_volume 2831.199968
_symmetry_space_group_name_H-M "I B C A "
_symmetry_group_IT_number 73
_symmetry_cell_setting 'orthorhombic'
loop_
_space_group_symop_operation_xyz
x,y,z
-x,1/2-y,z
x,-y,1/2-z
1/2-x,y,-z
-x,-y,-z
x,1/2+y,-z
-x,y,1/2+z
1/2+x,-y,z
1/2+x,1/2+y,1/2+z
1/2-x,-y,1/2+z
1/2+x,1/2-y,-z
-x,1/2+y,1/2-z
1/2-x,1/2-y,1/2-z
1/2+x,y,1/2-z
1/2-x,1/2+y,z
x,1/2-y,1/2+z
loop_
_atom_site_type_symbol
_atom_site_label
_atom_site_fract_x
_atom_site_fract_y
_atom_site_fract_z
Si Si1 0.571162 0.661804 0.346215
Si Si2 0.819388 0.900658 0.877345
Si Si3 0.750000 0.055353 0.000000
Si Si4 0.460455 0.000000 0.750000
Si Si5 0.507929 0.112363 0.992178
O O1 0.500000 0.750000 0.307077
O O2 0.713396 0.670547 0.352903
O O3 0.543915 0.565469 0.301210
O O4 0.523797 0.661830 0.430640
O O5 0.921478 0.847600 0.926611
O O6 0.876742 0.936028 0.800658
O O7 0.771312 0.988679 0.926957
O O8 0.853990 0.128390 0.022937
O O9 0.500000 0.000000 0.000000
#
# Coordination Sequence:
#
# PCOD8295546 Si02
#       5
#    16  16   8   8  16
#     4  12  25  43  66 103 141 178 239 303 348 424
#     4  11  20  40  70  96 134 184 235 283 351 427
#     4  10  16  36  70  96 128 176 240 272 336 424
#     4  12  24  42  70  98 136 196 228 292 376 416
#     4  10  18  39  70  96 127 181 223 276 348 415
#
# _framework density 22.605255
#
# number of rings (size 3 to 8) (size 9 to 14) (size 15 to 20)
#    0.000    1.000   10.000    0.750    0.000    1.000 
#    4.500    1.250    0.000    0.000    0.000    0.000 
#    0.000    0.000    0.000    0.000    0.000    0.000 
#
# Total GULP energy -396494.325631 kJ/mol
# GULP energy per Si atom -12390.447676 kJ/mol
# Density = 2.255380 g / cm^3
# Si number density = 22.605255 Si / 1000 Ang^3
#
#
#
# Elastic Constant Matrix: (Units=GPa)
#
#
# Indices 1 2 3 4 5 6 
#
# 1 223.9368 38.7283 47.8301 0.0000 0.0000 0.0000
# 2 38.7283 65.2003 7.8816 0.0000 0.0000 0.0000
# 3 47.8301 7.8816 109.6683 0.0000 0.0000 0.0000
# 4 0.0000 0.0000 0.0000 9.1019 0.0000 0.0000
# 5 0.0000 0.0000 0.0000 0.0000 69.3703 0.0000
# 6 0.0000 0.0000 0.0000 0.0000 0.0000 32.2731
#
#
#
# Elastic Compliance Matrix: (Units=1/GPa)
#
#
# Indices 1 2 3 4 5 6 
#
# 1 0.005440 -0.002971 -0.002159 0.000000 0.000000 0.000000
# 2 -0.002971 0.017094 0.000067 0.000000 0.000000 0.000000
# 3 -0.002159 0.000067 0.010055 0.000000 0.000000 0.000000
# 4 0.000000 0.000000 0.000000 0.109867 0.000000 0.000000
# 5 0.000000 0.000000 0.000000 0.000000 0.014415 0.000000
# 6 0.000000 0.000000 0.000000 0.000000 0.000000 0.030986
#
#
# Mechanical properties :
#
#
# Convention : Reuss Voigt Hill
#
# Bulk Modulus (GPa) = 44.51573 65.29837 54.90705
# Shear Modulus (GPa) = 24.33436 42.44008 33.38722
#
# Velocity S-wave (km/s) = 3.28455 4.33765 3.84730
# Velocity P-wave (km/s) = 5.84121 7.35092 6.63912
#
# Compressibility (1/GPa) = 0.02246397
#
# Stress axis : x y z
#
# Youngs Moduli (GPa) = 183.80722 58.50097 99.44975
#
# Poissons Ratio (x) = 0.17378 0.21474
# Poissons Ratio (y) = 0.54601 -0.00667
# Poissons Ratio (z) = 0.39689 -0.00392
#
# Static dielectric constant tensor:
#      x y z
#    x -1.939480 0.000000 0.000000 
#    y 0.000000 3.366910 0.000000 
#    z 0.000000 0.000000 5.187840 
# 
# 
# High freq. dielectric constant tensor:
#      x y z
#    x 1.919740 0.000000 0.000000 
#    y 0.000000 1.852320 0.000000 
#    z 0.000000 0.000000 1.885250 
# 
# From -- ./inp_files/10474.got.cif
#   From: 2010.03.12/outbox.cif.g09.slc.cpg/sg73_6_cif.got.tgz:10474.got - 2010.04.16 15:25:48.
