data_PCOD8295389
_publ_section_title
;
Structure prediction by ZEFSAII (Michael W. Deem and Ramdas Pophale) SiO2 
 PCOD8295389
Probable space group: I B A M
;
_chemical_formula_sum "Si O2"
_cell_formula_units_Z 72
_cell_length_a 9.241103
_cell_length_b 26.811285
_cell_length_c 14.322189
_cell_angle_alpha 90.000000
_cell_angle_beta 90.000000
_cell_angle_gamma 90.000000
_cell_volume 3548.549278
_symmetry_space_group_name_H-M "I B A M"
_symmetry_group_IT_number 72
_symmetry_cell_setting 'orthorhombic'
loop_
_space_group_symop_operation_xyz
x,y,z
-x,-y,z
x,-y,1/2-z
-x,y,1/2-z
-x,-y,-z
x,y,-z
-x,y,1/2+z
x,-y,1/2+z
1/2+x,1/2+y,1/2+z
1/2-x,1/2-y,1/2+z
1/2+x,1/2-y,-z
1/2-x,1/2+y,-z
1/2-x,1/2-y,1/2-z
1/2+x,1/2+y,1/2-z
1/2-x,1/2+y,z
1/2+x,1/2-y,z
loop_
_atom_site_type_symbol
_atom_site_label
_atom_site_fract_x
_atom_site_fract_y
_atom_site_fract_z
Si Si1 0.600416 0.547510 0.890129
Si Si2 0.980160 0.342220 0.603767
Si Si3 0.223953 0.691814 0.242636
Si Si4 0.931943 0.451292 0.352053
Si Si5 0.000000 0.127760 0.250000
O O1 0.500000 0.500000 0.868174
O O2 0.759703 0.540321 0.847057
O O3 0.528673 0.594901 0.841337
O O4 0.611839 0.558024 0.000000
O O5 0.979184 0.319017 0.500000
O O6 0.116922 0.320612 0.658153
O O7 0.835378 0.326931 0.658042
O O8 0.979985 0.402093 0.592861
O O9 0.250000 0.750000 0.250000
O O10 0.369944 0.663278 0.220634
O O11 0.000000 0.500000 0.402291
O O12 0.000000 0.445863 0.250000
#
# Coordination Sequence:
#
# PCOD8295389 Si02
#       5
#    16  16  16  16   8
#     4  11  26  42  63 100 138 172 214 266 324 393
#     4  11  23  44  69  97 130 169 220 270 328 392
#     4  11  25  46  67  95 128 170 219 279 332 389
#     4  11  23  41  68 100 134 179 219 262 325 395
#     4  12  23  42  70  92 132 174 213 266 336 390
#
# _framework density 20.289981999999998
#
# number of rings (size 3 to 8) (size 9 to 14) (size 15 to 20)
#    0.000    0.889    4.444    2.333    9.333    3.556 
#    0.000    2.222    0.000    0.000    0.000    0.000 
#    0.000    0.000    0.000    0.000    0.000    0.000 
#
# Total GULP energy -446455.890710 kJ/mol
# GULP energy per Si atom -12401.552520 kJ/mol
# Density = 2.024380 g / cm^3
# Si number density = 20.289982 Si / 1000 Ang^3
#
#
#
# Elastic Constant Matrix: (Units=GPa)
#
#
# Indices 1 2 3 4 5 6 
#
# 1 165.6912 66.6729 58.6247 0.0001 0.0000 -0.0003
# 2 66.6729 162.4250 39.2965 0.0001 0.0000 -0.0003
# 3 58.6247 39.2965 136.6612 0.0007 -0.0001 -0.0012
# 4 0.0001 0.0001 0.0007 1.8921 0.0000 -0.0001
# 5 0.0000 0.0000 -0.0001 0.0000 10.0739 0.0003
# 6 -0.0003 -0.0003 -0.0012 -0.0001 0.0003 59.9087
#
#
#
# Elastic Compliance Matrix: (Units=1/GPa)
#
#
# Indices 1 2 3 4 5 6 
#
# 1 0.008057 -0.002656 -0.002692 0.000001 0.000000 0.000000
# 2 -0.002656 0.007492 -0.001015 0.000000 0.000000 0.000000
# 3 -0.002692 -0.001015 0.008764 -0.000003 0.000000 0.000000
# 4 0.000001 0.000000 -0.000003 0.528522 -0.000001 0.000001
# 5 0.000000 0.000000 0.000000 -0.000001 0.099267 -0.000001
# 6 0.000000 0.000000 0.000000 0.000001 -0.000001 0.016692
#
#
# Mechanical properties :
#
#
# Convention : Reuss Voigt Hill
#
# Bulk Modulus (GPa) = 86.30658 88.21841 87.26249
# Shear Modulus (GPa) = 7.29519 34.38714 20.84117
#
# Velocity S-wave (km/s) = 1.89823 4.12124 3.20842
# Velocity P-wave (km/s) = 6.88718 8.13753 7.53832
#
# Compressibility (1/GPa) = 0.01158660
#
# Stress axis : x y z
#
# Youngs Moduli (GPa) = 124.12172 133.46818 114.09935
#
# Poissons Ratio (x) = 0.35445 0.30721
# Poissons Ratio (y) = 0.32963 0.11583
# Poissons Ratio (z) = 0.33419 0.13550
#
# Static dielectric constant tensor:
#      x y z
#    x 3.902700 0.000000 0.000000 
#    y 0.000000 3.950310 0.000000 
#    z 0.000000 0.000000 3.657840 
# 
# 
# High freq. dielectric constant tensor:
#      x y z
#    x 1.805310 0.000000 0.000000 
#    y 0.000000 1.802720 0.000000 
#    z 0.000000 0.000000 1.793190 
# 
# From -- ./inp_files/18881.got.cif
#   From: 2010.03.12/outbox.cif.g09.slc.cpg/sg72_10_cif.got.tgz:18881.got - 2010.04.16 14:54:00.
