data_PCOD8295286
_publ_section_title
;
Structure prediction by ZEFSAII (Michael W. Deem and Ramdas Pophale) SiO2 
 PCOD8295286
Probable space group: I B A M
;
_chemical_formula_sum "Si O2"
_cell_formula_units_Z 112
_cell_length_a 13.575375
_cell_length_b 13.517824
_cell_length_c 32.317455
_cell_angle_alpha 90.000000
_cell_angle_beta 90.000000
_cell_angle_gamma 90.000000
_cell_volume 5930.560977
_symmetry_space_group_name_H-M "I B A M"
_symmetry_group_IT_number 72
_symmetry_cell_setting 'orthorhombic'
loop_
_space_group_symop_operation_xyz
x,y,z
-x,-y,z
x,-y,1/2-z
-x,y,1/2-z
-x,-y,-z
x,y,-z
-x,y,1/2+z
x,-y,1/2+z
1/2+x,1/2+y,1/2+z
1/2-x,1/2-y,1/2+z
1/2+x,1/2-y,-z
1/2-x,1/2+y,-z
1/2-x,1/2-y,1/2-z
1/2+x,1/2+y,1/2-z
1/2-x,1/2+y,z
1/2+x,1/2-y,z
loop_
_atom_site_type_symbol
_atom_site_label
_atom_site_fract_x
_atom_site_fract_y
_atom_site_fract_z
Si Si1 0.744221 0.914877 0.126035
Si Si2 0.415022 0.754904 0.626326
Si Si3 0.118073 0.773222 0.667242
Si Si4 0.472124 0.660223 0.546024
Si Si5 0.611472 0.382860 0.750503
Si Si6 0.339550 0.527687 0.953954
Si Si7 0.772059 0.117104 0.831540
O O1 0.638764 0.860826 0.132302
O O2 0.833287 0.836825 0.130449
O O3 0.752576 0.958502 0.079604
O O4 0.757998 0.000896 0.160293
O O5 0.502052 0.740782 0.659866
O O6 0.456992 0.746872 0.579699
O O7 0.338841 0.664949 0.632587
O O8 0.152543 0.833166 0.708044
O O9 0.163482 0.663783 0.668778
O O10 0.466892 0.707174 0.500000
O O11 0.386295 0.579957 0.551282
O O12 0.577124 0.609827 0.553085
O O13 0.613948 0.500000 0.750000
O O14 0.500000 0.343520 0.750000
O O15 0.675852 0.351536 0.711294
O O16 0.293947 0.538839 0.000000
#
# Coordination Sequence:
#
# PCOD8295286 Si02
#       7
#    16  16  16  16  16  16  16
#     4  11  22  36  59  86 114 157 200 238 293 353
#     4  11  22  36  59  86 114 157 200 238 293 353
#     4  11  23  39  59  85 117 150 191 241 290 351
#     4   9  17  31  55  85 115 150 195 250 303 346
#     4  11  21  36  62  90 113 147 188 238 290 340
#     4   9  17  31  55  85 115 150 195 250 303 346
#     4  11  23  39  59  85 117 150 191 241 290 351
#
# _framework density 18.885228999999999
#
# number of rings (size 3 to 8) (size 9 to 14) (size 15 to 20)
#    0.000    1.571    5.714    1.286    0.000    1.714 
#    0.000    0.000    0.000    0.857    0.000    2.000 
#    0.000    0.000    0.000    0.000    0.000    0.000 
#
# Total GULP energy -694125.812034 kJ/mol
# GULP energy per Si atom -12395.103786 kJ/mol
# Density = 1.884225 g / cm^3
# Si number density = 18.885229 Si / 1000 Ang^3
#
#
#
# Elastic Constant Matrix: (Units=GPa)
#
#
# Indices 1 2 3 4 5 6 
#
# 1 420.4925-1004.2304-1414.5003 0.0001 0.0000 0.0000
# 2 -1004.2304 3280.7830 4439.6698 -0.0002 0.0000 0.0001
# 3 -1414.5003 4439.6698 6191.8171 -0.0002 0.0000 0.0001
# 4 0.0001 -0.0002 -0.0002 21.8498 0.0000 0.0000
# 5 0.0000 0.0000 0.0000 0.0000 19.8736 0.0000
# 6 0.0000 0.0001 0.0001 0.0000 0.0000 4.2032
#
#
#
# Elastic Compliance Matrix: (Units=1/GPa)
#
#
# Indices 1 2 3 4 5 6 
#
# 1 0.010381 -0.001065 0.003135 0.000000 0.000000 0.000000
# 2 -0.001065 0.010372 -0.007680 0.000000 0.000000 0.000000
# 3 0.003135 -0.007680 0.006385 0.000000 0.000000 0.000000
# 4 0.000000 0.000000 0.000000 0.045767 0.000000 0.000000
# 5 0.000000 0.000000 0.000000 0.000000 0.050318 0.000000
# 6 0.000000 0.000000 0.000000 0.000000 0.000000 0.237912
#
#
# Mechanical properties :
#
#
# Convention : Reuss Voigt Hill
#
# Bulk Modulus (GPa) = 62.82407 1548.33009 805.57708
# Shear Modulus (GPa) = 13.23940 533.99555 273.61747
#
# Velocity S-wave (km/s) = 2.65060 16.83366 12.04985
# Velocity P-wave (km/s) = 6.53498 34.63340 24.92166
#
# Compressibility (1/GPa) = 0.01591747
#
# Stress axis : x y z
#
# Youngs Moduli (GPa) = 96.32886 96.41485 156.62726
#
# Poissons Ratio (x) = 0.10269 -0.49106
# Poissons Ratio (y) = 0.10260 1.20292
# Poissons Ratio (z) = -0.30201 0.74048
#
# Static dielectric constant tensor:
#      x y z
#    x 3.230150 0.000000 0.000000 
#    y 0.000000 3.189560 0.000000 
#    z 0.000000 0.000000 3.580360 
# 
# 
# High freq. dielectric constant tensor:
#      x y z
#    x 1.712060 0.000000 0.000000 
#    y 0.000000 1.710390 0.000000 
#    z 0.000000 0.000000 1.745920 
# 
# From -- ./inp_files/51787.got.cif
#   From: 2010.03.12/outbox.cif.g09.slc.cpg/sg72_26_cif.got.tgz:51787.got - 2010.04.16 14:54:00.
