data_PCOD8295561
_publ_section_title
;
Structure prediction by ZEFSAII (Michael W. Deem and Ramdas Pophale) SiO2 
 PCOD8295561
Probable space group: I B C A 
;
_chemical_formula_sum "Si O2"
_cell_formula_units_Z 128
_cell_length_a 16.996872
_cell_length_b 17.612966
_cell_length_c 22.098551
_cell_angle_alpha 90.000000
_cell_angle_beta 90.000000
_cell_angle_gamma 90.000000
_cell_volume 6615.539983
_symmetry_space_group_name_H-M "I B C A "
_symmetry_group_IT_number 73
_symmetry_cell_setting 'orthorhombic'
loop_
_space_group_symop_operation_xyz
x,y,z
-x,1/2-y,z
x,-y,1/2-z
1/2-x,y,-z
-x,-y,-z
x,1/2+y,-z
-x,y,1/2+z
1/2+x,-y,z
1/2+x,1/2+y,1/2+z
1/2-x,-y,1/2+z
1/2+x,1/2-y,-z
-x,1/2+y,1/2-z
1/2-x,1/2-y,1/2-z
1/2+x,y,1/2-z
1/2-x,1/2+y,z
x,1/2-y,1/2+z
loop_
_atom_site_type_symbol
_atom_site_label
_atom_site_fract_x
_atom_site_fract_y
_atom_site_fract_z
Si Si1 0.460694 0.882252 0.144825
Si Si2 0.869385 0.780106 0.268767
Si Si3 0.145852 0.294331 0.053501
Si Si4 0.551527 0.817651 0.328811
Si Si5 0.678971 0.711000 0.917410
Si Si6 0.798160 0.644022 0.659251
Si Si7 0.938099 0.459892 0.814706
Si Si8 0.136215 0.834544 0.367879
O O1 0.423035 0.850652 0.207533
O O2 0.422300 0.843427 0.085897
O O3 0.553813 0.868907 0.149521
O O4 0.453673 0.972609 0.137707
O O5 0.922402 0.717378 0.235234
O O6 0.802183 0.812667 0.224435
O O7 0.835557 0.738938 0.327588
O O8 0.232180 0.320846 0.077072
O O9 0.133389 0.203764 0.066008
O O10 0.136788 0.300084 0.981828
O O11 0.500000 0.750000 0.360542
O O12 0.627234 0.838021 0.370083
O O13 0.503591 0.894534 0.318003
O O14 0.677658 0.798706 0.894861
O O15 0.855110 0.572736 0.663356
O O16 0.710657 0.609923 0.644313
O O17 0.935777 0.500000 0.750000
#
# Coordination Sequence:
#
# PCOD8295561 Si02
#       8
#    16  16  16  16  16  16  16  16
#     4  11  22  36  56  85 123 159 187 238 307 360
#     4  10  17  34  57  83 114 149 191 239 291 345
#     4   9  19  38  63  86 115 151 191 257 297 339
#     4  11  19  34  59  86 111 153 197 246 284 342
#     4   9  19  37  64  90 108 143 209 245 289 347
#     4  10  20  35  57  83 113 150 194 248 290 345
#     4  12  22  38  55  82 129 161 188 238 309 359
#     4  10  20  34  57  87 112 148 201 240 290 352
#
# _framework density 19.348382999999998
#
# number of rings (size 3 to 8) (size 9 to 14) (size 15 to 20)
#    0.000    1.750    3.750    3.375    0.000    2.000 
#    2.250    1.250    0.000    1.500    0.000    0.000 
#    0.000    0.000    0.000    0.000    0.000    0.000 
#
# Total GULP energy -792913.737262 kJ/mol
# GULP energy per Si atom -12389.277145 kJ/mol
# Density = 1.930435 g / cm^3
# Si number density = 19.348383 Si / 1000 Ang^3
#
#
#
# Elastic Constant Matrix: (Units=GPa)
#
#
# Indices 1 2 3 4 5 6 
#
# 1 116.0164 40.6172 38.3290 0.0000 0.0000 0.0000
# 2 40.6172 97.8187 31.0428 0.0000 0.0000 0.0000
# 3 38.3290 31.0428 85.7114 0.0000 0.0000 0.0000
# 4 0.0000 0.0000 0.0000 11.1281 0.0000 0.0000
# 5 0.0000 0.0000 0.0000 0.0000 24.7214 0.0000
# 6 0.0000 0.0000 0.0000 0.0000 0.0000 26.4100
#
#
#
# Elastic Compliance Matrix: (Units=1/GPa)
#
#
# Indices 1 2 3 4 5 6 
#
# 1 0.011035 -0.003408 -0.003701 0.000000 0.000000 0.000000
# 2 -0.003408 0.012603 -0.003041 0.000000 0.000000 0.000000
# 3 -0.003701 -0.003041 0.014423 0.000000 0.000000 0.000000
# 4 0.000000 0.000000 0.000000 0.089863 0.000000 0.000000
# 5 0.000000 0.000000 0.000000 0.000000 0.040451 0.000000
# 6 0.000000 0.000000 0.000000 0.000000 0.000000 0.037864
#
#
# Mechanical properties :
#
#
# Convention : Reuss Voigt Hill
#
# Bulk Modulus (GPa) = 56.29556 57.72493 57.01025
# Shear Modulus (GPa) = 21.50926 25.08905 23.29916
#
# Velocity S-wave (km/s) = 3.33781 3.60488 3.47391
# Velocity P-wave (km/s) = 6.63427 6.87213 6.75425
#
# Compressibility (1/GPa) = 0.01776339
#
# Stress axis : x y z
#
# Youngs Moduli (GPa) = 90.62007 79.34663 69.33304
#
# Poissons Ratio (x) = 0.27039 0.25657
# Poissons Ratio (y) = 0.30881 0.21082
# Poissons Ratio (z) = 0.33534 0.24126
#
# Static dielectric constant tensor:
#      x y z
#    x 3.691000 0.000000 0.000000 
#    y 0.000000 3.406860 0.000000 
#    z 0.000000 0.000000 3.513120 
# 
# 
# High freq. dielectric constant tensor:
#      x y z
#    x 1.768420 0.000000 0.000000 
#    y 0.000000 1.715680 0.000000 
#    z 0.000000 0.000000 1.744970 
# 
# From -- ./inp_files/29936.got.cif
#   From: 2010.03.12/outbox.cif.g09.slc.cpg/sg73_15_cif.got.tgz:29936.got - 2010.04.16 15:25:48.
