data_PCOD8295443
_publ_section_title
;
Structure prediction by ZEFSAII (Michael W. Deem and Ramdas Pophale) SiO2 
 PCOD8295443
Probable space group: I B A M
;
_chemical_formula_sum "Si O2"
_cell_formula_units_Z 64
_cell_length_a 8.879643
_cell_length_b 18.431752
_cell_length_c 16.414118
_cell_angle_alpha 90.000000
_cell_angle_beta 90.000000
_cell_angle_gamma 90.000000
_cell_volume 2686.455649
_symmetry_space_group_name_H-M "I B A M"
_symmetry_group_IT_number 72
_symmetry_cell_setting 'orthorhombic'
loop_
_space_group_symop_operation_xyz
x,y,z
-x,-y,z
x,-y,1/2-z
-x,y,1/2-z
-x,-y,-z
x,y,-z
-x,y,1/2+z
x,-y,1/2+z
1/2+x,1/2+y,1/2+z
1/2-x,1/2-y,1/2+z
1/2+x,1/2-y,-z
1/2-x,1/2+y,-z
1/2-x,1/2-y,1/2-z
1/2+x,1/2+y,1/2-z
1/2-x,1/2+y,z
1/2+x,1/2-y,z
loop_
_atom_site_type_symbol
_atom_site_label
_atom_site_fract_x
_atom_site_fract_y
_atom_site_fract_z
Si Si1 0.169863 0.975266 0.840384
Si Si2 0.362595 0.710750 0.807544
Si Si3 0.177506 0.600257 0.091036
Si Si4 0.647560 0.851346 0.594933
O O1 0.277577 0.016030 0.904794
O O2 0.214173 0.000000 0.750000
O O3 0.211279 0.889672 0.856337
O O4 0.000000 0.000000 0.860153
O O5 0.500000 0.685504 0.750000
O O6 0.250000 0.750000 0.750000
O O7 0.290507 0.639856 0.846937
O O8 0.394670 0.769466 0.878119
O O9 0.003762 0.604985 0.116267
O O10 0.199486 0.631267 0.000000
O O11 0.689687 0.849896 0.500000
#
# Coordination Sequence:
#
# PCOD8295443 Si02
#       4
#    16  16  16  16
#     4  11  26  43  69 101 139 181 234 288 347 412
#     4  12  25  44  71 100 138 180 230 286 347 418
#     4  11  25  45  69 100 137 182 230 285 351 421
#     4  11  25  46  69  99 138 183 229 287 352 417
#
# _framework density 23.823212000000002
#
# number of rings (size 3 to 8) (size 9 to 14) (size 15 to 20)
#    0.000    0.750    2.500    3.750    7.000    5.000 
#    0.000    0.000    0.000    0.000    0.000    0.000 
#    0.000    0.000    0.000    0.000    0.000    0.000 
#
# Total GULP energy -396705.653163 kJ/mol
# GULP energy per Si atom -12397.051661 kJ/mol
# Density = 2.376899 g / cm^3
# Si number density = 23.823212 Si / 1000 Ang^3
#
#
#
# Elastic Constant Matrix: (Units=GPa)
#
#
# Indices 1 2 3 4 5 6 
#
# 1 112.7515 12.6276 42.6642 0.0000 0.0000 0.0000
# 2 12.6276 71.7640 14.1827 0.0000 0.0000 0.0000
# 3 42.6642 14.1827 102.1328 0.0000 0.0000 0.0000
# 4 0.0000 0.0000 0.0000 38.3981 0.0000 0.0000
# 5 0.0000 0.0000 0.0000 0.0000 37.3111 0.0000
# 6 0.0000 0.0000 0.0000 0.0000 0.0000 47.9387
#
#
#
# Elastic Compliance Matrix: (Units=1/GPa)
#
#
# Indices 1 2 3 4 5 6 
#
# 1 0.010606 -0.001019 -0.004289 0.000000 0.000000 0.000000
# 2 -0.001019 0.014426 -0.001578 0.000000 0.000000 0.000000
# 3 -0.004289 -0.001578 0.011802 0.000000 0.000000 0.000000
# 4 0.000000 0.000000 0.000000 0.026043 0.000000 0.000000
# 5 0.000000 0.000000 0.000000 0.000000 0.026802 0.000000
# 6 0.000000 0.000000 0.000000 0.000000 0.000000 0.020860
#
#
# Mechanical properties :
#
#
# Convention : Reuss Voigt Hill
#
# Bulk Modulus (GPa) = 43.35973 47.28859 45.32416
# Shear Modulus (GPa) = 37.87976 39.20783 38.54380
#
# Velocity S-wave (km/s) = 3.99185 4.06123 4.02669
# Velocity P-wave (km/s) = 6.28384 6.47181 6.37852
#
# Compressibility (1/GPa) = 0.02306287
#
# Stress axis : x y z
#
# Youngs Moduli (GPa) = 94.28547 69.32126 84.73178
#
# Poissons Ratio (x) = 0.07061 0.36342
# Poissons Ratio (y) = 0.09604 0.13368
# Poissons Ratio (z) = 0.40440 0.10937
#
# Static dielectric constant tensor:
#      x y z
#    x 4.068540 0.000000 0.000000 
#    y 0.000000 4.858810 0.000000 
#    z 0.000000 0.000000 4.079230 
# 
# 
# High freq. dielectric constant tensor:
#      x y z
#    x 1.946200 0.000000 0.000000 
#    y 0.000000 1.953610 0.000000 
#    z 0.000000 0.000000 1.952330 
# 
# From -- ./inp_files/18680.got.cif
#   From: 2010.03.12/outbox.cif.g09.slc.cpg/sg72_10_cif.got.tgz:18680.got - 2010.04.16 14:54:00.
