data_PCOD8295080
_publ_section_title
;
Structure prediction by ZEFSAII (Michael W. Deem and Ramdas Pophale) SiO2 
 PCOD8295080
Probable space group: I B A M
;
_chemical_formula_sum "Si O2"
_cell_formula_units_Z 80
_cell_length_a 9.049298
_cell_length_b 17.503761
_cell_length_c 24.129697
_cell_angle_alpha 90.000000
_cell_angle_beta 90.000000
_cell_angle_gamma 90.000000
_cell_volume 3822.065569
_symmetry_space_group_name_H-M "I B A M"
_symmetry_group_IT_number 72
_symmetry_cell_setting 'orthorhombic'
loop_
_space_group_symop_operation_xyz
x,y,z
-x,-y,z
x,-y,1/2-z
-x,y,1/2-z
-x,-y,-z
x,y,-z
-x,y,1/2+z
x,-y,1/2+z
1/2+x,1/2+y,1/2+z
1/2-x,1/2-y,1/2+z
1/2+x,1/2-y,-z
1/2-x,1/2+y,-z
1/2-x,1/2-y,1/2-z
1/2+x,1/2+y,1/2-z
1/2-x,1/2+y,z
1/2+x,1/2-y,z
loop_
_atom_site_type_symbol
_atom_site_label
_atom_site_fract_x
_atom_site_fract_y
_atom_site_fract_z
Si Si1 0.653862 0.965496 0.852645
Si Si2 0.820927 0.728549 0.881829
Si Si3 0.888188 0.656469 0.435502
Si Si4 0.638749 0.605574 0.171811
Si Si5 0.334376 0.352291 0.297291
O O1 0.642384 0.931189 0.915174
O O2 0.680068 0.890389 0.815282
O O3 0.500000 0.000000 0.833086
O O4 0.784353 0.024960 0.839872
O O5 0.756376 0.791707 0.924068
O O6 0.698798 0.662393 0.875227
O O7 0.849454 0.766373 0.821160
O O8 0.970397 0.691950 0.904622
O O9 0.921915 0.652917 0.500000
O O10 0.664687 0.645187 0.231513
O O11 0.461724 0.597002 0.171157
#
# Coordination Sequence:
#
# PCOD8295080 Si02
#       5
#    16  16  16  16  16
#     4  11  23  40  60  93 127 165 210 262 302 380
#     4  11  21  42  64  94 125 161 215 269 314 382
#     4  11  24  43  66  90 123 168 218 273 323 366
#     4  11  21  40  61  93 127 174 199 252 322 384
#     4  10  23  38  64  89 133 166 208 246 320 390
#
# _framework density 20.931090999999999
#
# number of rings (size 3 to 8) (size 9 to 14) (size 15 to 20)
#    0.000    1.200    4.000    2.400    0.000    3.600 
#    0.000    0.000    0.000    2.400    0.000    0.000 
#    0.000    0.000    0.000    0.000    0.000    0.000 
#
# Total GULP energy -495686.325443 kJ/mol
# GULP energy per Si atom -12392.158136 kJ/mol
# Density = 2.088345 g / cm^3
# Si number density = 20.931091 Si / 1000 Ang^3
#
#
#
# Elastic Constant Matrix: (Units=GPa)
#
#
# Indices 1 2 3 4 5 6 
#
# 1 82.5403 31.1051 22.8234 0.0000 0.0000 0.0000
# 2 31.1051 64.9201 39.5826 0.0000 0.0000 0.0000
# 3 22.8234 39.5826 94.8949 0.0000 0.0000 0.0000
# 4 0.0000 0.0000 0.0000 26.7078 0.0000 0.0000
# 5 0.0000 0.0000 0.0000 0.0000 21.0652 0.0000
# 6 0.0000 0.0000 0.0000 0.0000 0.0000 40.7436
#
#
#
# Elastic Compliance Matrix: (Units=1/GPa)
#
#
# Indices 1 2 3 4 5 6 
#
# 1 0.014831 -0.006613 -0.000809 0.000000 0.000000 0.000000
# 2 -0.006613 0.023606 -0.008256 0.000000 0.000000 0.000000
# 3 -0.000809 -0.008256 0.014176 0.000000 0.000000 0.000000
# 4 0.000000 0.000000 0.000000 0.037442 0.000000 0.000000
# 5 0.000000 0.000000 0.000000 0.000000 0.047472 0.000000
# 6 0.000000 0.000000 0.000000 0.000000 0.000000 0.024544
#
#
# Mechanical properties :
#
#
# Convention : Reuss Voigt Hill
#
# Bulk Modulus (GPa) = 47.04138 47.70861 47.37499
# Shear Modulus (GPa) = 24.93625 27.62628 26.28127
#
# Velocity S-wave (km/s) = 3.45534 3.63694 3.54730
# Velocity P-wave (km/s) = 6.20019 6.36232 6.28178
#
# Compressibility (1/GPa) = 0.02125788
#
# Stress axis : x y z
#
# Youngs Moduli (GPa) = 67.42656 42.36256 70.54087
#
# Poissons Ratio (x) = 0.28014 0.05704
# Poissons Ratio (y) = 0.44589 0.58238
# Poissons Ratio (z) = 0.05452 0.34974
#
# Static dielectric constant tensor:
#      x y z
#    x 4.046460 0.000000 0.000000 
#    y 0.000000 3.864260 0.000000 
#    z 0.000000 0.000000 3.536910 
# 
# 
# High freq. dielectric constant tensor:
#      x y z
#    x 1.833560 0.000000 0.000000 
#    y 0.000000 1.830070 0.000000 
#    z 0.000000 0.000000 1.789730 
# 
# From -- ./inp_files/47156.got.cif
#   From: 2010.03.12/outbox.cif.g09.slc.cpg/sg72_24_cif.got.tgz:47156.got - 2010.04.16 14:54:00.
