data_PCOD8295095
_publ_section_title
;
Structure prediction by ZEFSAII (Michael W. Deem and Ramdas Pophale) SiO2 
 PCOD8295095
Probable space group: I B A M
;
_chemical_formula_sum "Si O2"
_cell_formula_units_Z 72
_cell_length_a 7.958331
_cell_length_b 18.515032
_cell_length_c 24.520001
_cell_angle_alpha 90.000000
_cell_angle_beta 90.000000
_cell_angle_gamma 90.000000
_cell_volume 3612.991574
_symmetry_space_group_name_H-M "I B A M"
_symmetry_group_IT_number 72
_symmetry_cell_setting 'orthorhombic'
loop_
_space_group_symop_operation_xyz
x,y,z
-x,-y,z
x,-y,1/2-z
-x,y,1/2-z
-x,-y,-z
x,y,-z
-x,y,1/2+z
x,-y,1/2+z
1/2+x,1/2+y,1/2+z
1/2-x,1/2-y,1/2+z
1/2+x,1/2-y,-z
1/2-x,1/2+y,-z
1/2-x,1/2-y,1/2-z
1/2+x,1/2+y,1/2-z
1/2-x,1/2+y,z
1/2+x,1/2-y,z
loop_
_atom_site_type_symbol
_atom_site_label
_atom_site_fract_x
_atom_site_fract_y
_atom_site_fract_z
Si Si1 0.206084 0.275065 0.377816
Si Si2 0.418080 0.180539 0.308711
Si Si3 0.500000 0.500000 0.617214
Si Si4 0.184255 0.476207 0.188523
Si Si5 0.002010 0.152968 0.436044
O O1 0.308105 0.250617 0.323628
O O2 0.316287 0.321518 0.419298
O O3 0.059464 0.326766 0.355844
O O4 0.141175 0.203229 0.407944
O O5 0.500000 0.191451 0.250000
O O6 0.301709 0.110244 0.312014
O O7 0.666857 0.511641 0.653545
O O8 0.528524 0.430132 0.580024
O O9 0.210390 0.500000 0.250000
O O10 0.000000 0.500000 0.166851
O O11 0.024127 0.160741 0.500000
#
# Coordination Sequence:
#
# PCOD8295095 Si02
#       5
#    16  16   8  16  16
#     4  10  23  40  64  91 125 161 210 260 318 387
#     4  11  20  39  61  92 124 165 200 252 315 385
#     4  12  24  42  64  96 128 162 220 264 324 368
#     4  11  22  39  62  88 130 170 203 249 316 388
#     4  11  23  42  66  89 121 165 215 269 316 367
#
# _framework density 19.928084999999999
#
# number of rings (size 3 to 8) (size 9 to 14) (size 15 to 20)
#    0.000    1.111    4.444    3.333    0.000    0.000 
#    0.000    0.000    0.000    2.667    0.000    0.000 
#    0.000    0.000    0.000    0.000    0.000    0.000 
#
# Total GULP energy -446456.883256 kJ/mol
# GULP energy per Si atom -12401.580090 kJ/mol
# Density = 1.988273 g / cm^3
# Si number density = 19.928085 Si / 1000 Ang^3
#
#
#
# Elastic Constant Matrix: (Units=GPa)
#
#
# Indices 1 2 3 4 5 6 
#
# 1 82.9615 14.5367 30.8001 0.0000 0.0000 0.0000
# 2 14.5367 87.5397 32.1718 0.0000 0.0000 0.0000
# 3 30.8001 32.1718 105.3577 0.0000 0.0000 0.0000
# 4 0.0000 0.0000 0.0000 26.8068 0.0000 0.0000
# 5 0.0000 0.0000 0.0000 0.0000 10.1467 0.0000
# 6 0.0000 0.0000 0.0000 0.0000 0.0000 6.3329
#
#
#
# Elastic Compliance Matrix: (Units=1/GPa)
#
#
# Indices 1 2 3 4 5 6 
#
# 1 0.013584 -0.000897 -0.003697 0.000000 0.000000 0.000000
# 2 -0.000897 0.012927 -0.003685 0.000000 0.000000 0.000000
# 3 -0.003697 -0.003685 0.011698 0.000000 0.000000 0.000000
# 4 0.000000 0.000000 0.000000 0.037304 0.000000 0.000000
# 5 0.000000 0.000000 0.000000 0.000000 0.098554 0.000000
# 6 0.000000 0.000000 0.000000 0.000000 0.000000 0.157905
#
#
# Mechanical properties :
#
#
# Convention : Reuss Voigt Hill
#
# Bulk Modulus (GPa) = 46.19035 47.87511 47.03273
# Shear Modulus (GPa) = 14.05498 21.88063 17.96780
#
# Velocity S-wave (km/s) = 2.65860 3.31717 3.00598
# Velocity P-wave (km/s) = 5.71428 6.22476 5.97497
#
# Compressibility (1/GPa) = 0.02164955
#
# Stress axis : x y z
#
# Youngs Moduli (GPa) = 73.61862 77.35971 85.48808
#
# Poissons Ratio (x) = 0.06939 0.31606
# Poissons Ratio (y) = 0.06603 0.31503
# Poissons Ratio (z) = 0.27218 0.28507
#
# Static dielectric constant tensor:
#      x y z
#    x 3.846010 0.000000 0.000000 
#    y 0.000000 3.597450 0.000000 
#    z 0.000000 0.000000 3.479140 
# 
# 
# High freq. dielectric constant tensor:
#      x y z
#    x 1.785870 0.000000 0.000000 
#    y 0.000000 1.784060 0.000000 
#    z 0.000000 0.000000 1.769120 
# 
# From -- ./inp_files/39575.got.cif
#   From: 2010.03.12/outbox.cif.g09.slc.cpg/sg72_20_cif.got.tgz:39575.got - 2010.04.16 14:54:00.
