data_PCOD8295424
_publ_section_title
;
Structure prediction by ZEFSAII (Michael W. Deem and Ramdas Pophale) SiO2 
 PCOD8295424
Probable space group: I B A M
;
_chemical_formula_sum "Si O2"
_cell_formula_units_Z 64
_cell_length_a 9.918895
_cell_length_b 9.832291
_cell_length_c 31.723809
_cell_angle_alpha 90.000000
_cell_angle_beta 90.000000
_cell_angle_gamma 90.000000
_cell_volume 3093.879130
_symmetry_space_group_name_H-M "I B A M"
_symmetry_group_IT_number 72
_symmetry_cell_setting 'orthorhombic'
loop_
_space_group_symop_operation_xyz
x,y,z
-x,-y,z
x,-y,1/2-z
-x,y,1/2-z
-x,-y,-z
x,y,-z
-x,y,1/2+z
x,-y,1/2+z
1/2+x,1/2+y,1/2+z
1/2-x,1/2-y,1/2+z
1/2+x,1/2-y,-z
1/2-x,1/2+y,-z
1/2-x,1/2-y,1/2-z
1/2+x,1/2+y,1/2-z
1/2-x,1/2+y,z
1/2+x,1/2-y,z
loop_
_atom_site_type_symbol
_atom_site_label
_atom_site_fract_x
_atom_site_fract_y
_atom_site_fract_z
Si Si1 0.770167 0.714658 0.595886
Si Si2 0.345416 0.470252 0.048407
Si Si3 0.528112 0.151136 0.139191
Si Si4 0.636986 0.849367 0.732568
O O1 0.751630 0.563197 0.577475
O O2 0.623334 0.765260 0.608767
O O3 0.877827 0.718442 0.635321
O O4 0.821123 0.812620 0.558845
O O5 0.500000 0.500000 0.058180
O O6 0.308931 0.498045 0.000000
O O7 0.609925 0.147980 0.182966
O O8 0.500000 0.000000 0.123086
O O9 0.500000 0.787417 0.750000
O O10 0.750000 0.750000 0.750000
O O11 0.667470 0.000000 0.750000
#
# Coordination Sequence:
#
# PCOD8295424 Si02
#       4
#    16  16  16  16
#     4  12  24  43  67 100 130 175 225 272 337 396
#     4  11  24  43  65  97 137 176 223 280 334 397
#     4  12  24  42  69  96 135 170 220 278 330 397
#     4  11  24  45  67  97 133 172 217 271 332 400
#
# _framework density 20.686005000000002
#
# number of rings (size 3 to 8) (size 9 to 14) (size 15 to 20)
#    0.000    0.500    7.500    2.250    0.000    0.500 
#    0.000    1.250    0.000    0.000    0.000    0.000 
#    0.000    0.000    0.000    0.000    0.000    0.000 
#
# Total GULP energy -396503.611141 kJ/mol
# GULP energy per Si atom -12390.737848 kJ/mol
# Density = 2.063892 g / cm^3
# Si number density = 20.686005 Si / 1000 Ang^3
#
#
#
# Elastic Constant Matrix: (Units=GPa)
#
#
# Indices 1 2 3 4 5 6 
#
# 1 136.9786 54.9807 42.1748 0.0000 0.0000 0.0000
# 2 54.9807 104.9460 32.9157 0.0000 0.0000 0.0000
# 3 42.1748 32.9157 91.0701 0.0000 0.0000 0.0000
# 4 0.0000 0.0000 0.0000 24.4255 0.0000 0.0000
# 5 0.0000 0.0000 0.0000 0.0000 33.0455 0.0000
# 6 0.0000 0.0000 0.0000 0.0000 0.0000 37.8851
#
#
#
# Elastic Compliance Matrix: (Units=1/GPa)
#
#
# Indices 1 2 3 4 5 6 
#
# 1 0.009952 -0.004250 -0.003073 0.000000 0.000000 0.000000
# 2 -0.004250 0.012562 -0.002572 0.000000 0.000000 0.000000
# 3 -0.003073 -0.002572 0.013333 0.000000 0.000000 0.000000
# 4 0.000000 0.000000 0.000000 0.040941 0.000000 0.000000
# 5 0.000000 0.000000 0.000000 0.000000 0.030261 0.000000
# 6 0.000000 0.000000 0.000000 0.000000 0.000000 0.026396
#
#
# Mechanical properties :
#
#
# Convention : Reuss Voigt Hill
#
# Bulk Modulus (GPa) = 62.27617 65.90410 64.09014
# Shear Modulus (GPa) = 31.52815 32.59945 32.06380
#
# Velocity S-wave (km/s) = 3.90825 3.97409 3.94131
# Velocity P-wave (km/s) = 7.10891 7.27917 7.19454
#
# Compressibility (1/GPa) = 0.01605751
#
# Stress axis : x y z
#
# Youngs Moduli (GPa) = 100.47727 79.60439 75.00072
#
# Poissons Ratio (x) = 0.33834 0.23046
# Poissons Ratio (y) = 0.42706 0.19290
# Poissons Ratio (z) = 0.30875 0.20475
#
# Static dielectric constant tensor:
#      x y z
#    x 3.949980 0.000000 0.000000 
#    y 0.000000 3.713830 0.000000 
#    z 0.000000 0.000000 3.458750 
# 
# 
# High freq. dielectric constant tensor:
#      x y z
#    x 1.827100 0.000000 0.000000 
#    y 0.000000 1.813350 0.000000 
#    z 0.000000 0.000000 1.803330 
# 
# From -- ./inp_files/50598.got.cif
#   From: 2010.03.12/outbox.cif.g09.slc.cpg/sg72_26_cif.got.tgz:50598.got - 2010.04.16 14:54:00.
