data_PCOD8295053
_publ_section_title
;
Structure prediction by ZEFSAII (Michael W. Deem and Ramdas Pophale) SiO2 
 PCOD8295053
Probable space group: I B A M
;
_chemical_formula_sum "Si O2"
_cell_formula_units_Z 96
_cell_length_a 13.414528
_cell_length_b 14.832890
_cell_length_c 20.962601
_cell_angle_alpha 90.000000
_cell_angle_beta 90.000000
_cell_angle_gamma 90.000000
_cell_volume 4171.059071
_symmetry_space_group_name_H-M "I B A M"
_symmetry_group_IT_number 72
_symmetry_cell_setting 'orthorhombic'
loop_
_space_group_symop_operation_xyz
x,y,z
-x,-y,z
x,-y,1/2-z
-x,y,1/2-z
-x,-y,-z
x,y,-z
-x,y,1/2+z
x,-y,1/2+z
1/2+x,1/2+y,1/2+z
1/2-x,1/2-y,1/2+z
1/2+x,1/2-y,-z
1/2-x,1/2+y,-z
1/2-x,1/2-y,1/2-z
1/2+x,1/2+y,1/2-z
1/2-x,1/2+y,z
1/2+x,1/2-y,z
loop_
_atom_site_type_symbol
_atom_site_label
_atom_site_fract_x
_atom_site_fract_y
_atom_site_fract_z
Si Si1 0.124110 0.602591 0.500000
Si Si2 0.858631 0.077217 0.000000
Si Si3 0.000000 0.500000 0.899717
Si Si4 0.266969 0.593924 0.770245
Si Si5 0.402552 0.431741 0.393505
Si Si6 0.432375 0.156254 0.810222
Si Si7 0.051925 0.195327 0.000000
Si Si8 0.060937 0.145722 0.313922
O O1 0.244321 0.612881 0.500000
O O2 0.089115 0.545527 0.560941
O O3 0.065637 0.697362 0.500000
O O4 0.881474 0.018817 0.937110
O O5 0.934984 0.162566 0.000000
O O6 0.055460 0.576509 0.859892
O O7 0.216047 0.500000 0.750000
O O8 0.331221 0.578796 0.833656
O O9 0.180731 0.664470 0.785132
O O10 0.326232 0.625620 0.706876
O O11 0.391330 0.343612 0.437890
O O12 0.518321 0.426560 0.365123
O O13 0.500000 0.136236 0.750000
O O14 0.454062 0.253363 0.842417
O O15 0.000000 0.136457 0.250000
#
# Coordination Sequence:
#
# PCOD8295053 Si02
#       8
#     8   8   8  16  16  16   8  16
#     4  11  26  50  68 108 131 186 241 284 378 417
#     4  11  25  44  76  99 137 180 231 299 355 440
#     4  11  23  44  74  88 149 181 232 294 336 435
#     4  11  23  36  64 100 137 184 228 282 341 424
#     4  10  22  44  67 102 135 176 231 288 361 407
#     4  11  22  42  64  98 139 188 231 278 343 411
#     4  11  25  46  70  95 142 172 229 306 346 429
#     4   9  21  38  64  97 140 175 226 286 340 412
#
# _framework density 23.015736
#
# number of rings (size 3 to 8) (size 9 to 14) (size 15 to 20)
#    0.000    1.500    0.000    4.750    4.667    2.333 
#   12.000    0.000    0.000    0.000    0.000    0.000 
#    0.000    0.000    0.000    0.000    0.000    0.000 
#
# Total GULP energy -594854.541491 kJ/mol
# GULP energy per Si atom -12392.802948 kJ/mol
# Density = 2.296335 g / cm^3
# Si number density = 23.015736 Si / 1000 Ang^3
#
#
#
# Elastic Constant Matrix: (Units=GPa)
#
#
# Indices 1 2 3 4 5 6 
#
# 1 137.2660 46.1579 59.5991 0.0000 0.0000 0.0000
# 2 46.1579 148.7197 67.2630 0.0000 0.0000 0.0000
# 3 59.5991 67.2630 89.9038 0.0000 0.0000 0.0000
# 4 0.0000 0.0000 0.0000 -17.8362 0.0000 0.0000
# 5 0.0000 0.0000 0.0000 0.0000 27.0707 0.0000
# 6 0.0000 0.0000 0.0000 0.0000 0.0000 28.1908
#
#
#
# Elastic Compliance Matrix: (Units=1/GPa)
#
#
# Indices 1 2 3 4 5 6 
#
# 1 0.010232 -0.000163 -0.006661 0.000000 0.000000 0.000000
# 2 -0.000163 0.010166 -0.007498 0.000000 0.000000 0.000000
# 3 -0.006661 -0.007498 0.021148 0.000000 0.000000 0.000000
# 4 0.000000 0.000000 0.000000 -0.056066 0.000000 0.000000
# 5 0.000000 0.000000 0.000000 0.000000 0.036940 0.000000
# 6 0.000000 0.000000 0.000000 0.000000 0.000000 0.035473
#
#
# Mechanical properties :
#
#
# Convention : Reuss Voigt Hill
#
# Bulk Modulus (GPa) = 77.50362 80.21439 78.85901
# Shear Modulus (GPa) = 55.04346 21.00969 38.02657
#
# Velocity S-wave (km/s) = 4.89566 3.02460 4.06913
# Velocity P-wave (km/s) = 8.10580 6.86478 7.51097
#
# Compressibility (1/GPa) = 0.01290262
#
# Stress axis : x y z
#
# Youngs Moduli (GPa) = 97.73152 98.37064 47.28541
#
# Poissons Ratio (x) = 0.01604 0.31497
# Poissons Ratio (y) = 0.01593 0.35452
# Poissons Ratio (z) = 0.65100 0.73753
#
# Static dielectric constant tensor:
#      x y z
#    x 4.447600 0.000000 0.000000 
#    y 0.000000 4.276260 0.000000 
#    z 0.000000 0.000000 5.532700 
# 
# 
# High freq. dielectric constant tensor:
#      x y z
#    x 1.900370 0.000000 0.000000 
#    y 0.000000 1.923440 0.000000 
#    z 0.000000 0.000000 1.925910 
# 
# From -- ./inp_files/38117.got.cif
#   From: 2010.03.12/outbox.cif.g09.slc.cpg/sg72_20_cif.got.tgz:38117.got - 2010.04.16 14:54:00.
