data_PCOD8295506
_publ_section_title
;
Structure prediction by ZEFSAII (Michael W. Deem and Ramdas Pophale) SiO2 
 PCOD8295506
Probable space group: I B A M
;
_chemical_formula_sum "Si O2"
_cell_formula_units_Z 96
_cell_length_a 10.579158
_cell_length_b 28.542285
_cell_length_c 15.014147
_cell_angle_alpha 90.000000
_cell_angle_beta 90.000000
_cell_angle_gamma 90.000000
_cell_volume 4533.571874
_symmetry_space_group_name_H-M "I B A M"
_symmetry_group_IT_number 72
_symmetry_cell_setting 'orthorhombic'
loop_
_space_group_symop_operation_xyz
x,y,z
-x,-y,z
x,-y,1/2-z
-x,y,1/2-z
-x,-y,-z
x,y,-z
-x,y,1/2+z
x,-y,1/2+z
1/2+x,1/2+y,1/2+z
1/2-x,1/2-y,1/2+z
1/2+x,1/2-y,-z
1/2-x,1/2+y,-z
1/2-x,1/2-y,1/2-z
1/2+x,1/2+y,1/2-z
1/2-x,1/2+y,z
1/2+x,1/2-y,z
loop_
_atom_site_type_symbol
_atom_site_label
_atom_site_fract_x
_atom_site_fract_y
_atom_site_fract_z
Si Si1 0.509113 0.222117 0.150254
Si Si2 0.872180 0.976332 0.893951
Si Si3 0.483247 0.121299 0.601872
Si Si4 0.228414 0.878260 0.602948
Si Si5 0.877295 0.526040 0.106139
Si Si6 0.764869 0.776622 0.156118
O O1 0.500000 0.242199 0.250000
O O2 0.548595 0.167760 0.157199
O O3 0.370600 0.227615 0.103878
O O4 0.620503 0.251680 0.101691
O O5 0.861275 0.921458 0.866279
O O6 0.752627 0.005095 0.854520
O O7 0.870758 0.979981 0.000000
O O8 0.000000 0.000000 0.855231
O O9 0.457670 0.134518 0.500000
O O10 0.627505 0.104059 0.614257
O O11 0.388849 0.080541 0.634544
O O12 0.201792 0.864897 0.500000
O O13 0.202779 0.832142 0.663577
O O14 0.000000 0.500000 0.146009
O O15 0.878826 0.521249 0.000000
O O16 0.750000 0.750000 0.250000
#
# Coordination Sequence:
#
# PCOD8295506 Si02
#       6
#    16  16  16  16  16  16
#     4   9  18  33  50  67  92 120 162 196 240 288
#     4   9  16  26  41  66 102 133 156 188 231 285
#     4   9  16  27  47  72  94 122 159 197 234 278
#     4   9  16  28  47  71  99 131 161 195 243 286
#     4   9  14  24  43  65  91 123 157 185 219 276
#     4   9  18  33  51  69  90 124 166 200 238 292
#
# _framework density 21.175356000000001
#
# number of rings (size 3 to 8) (size 9 to 14) (size 15 to 20)
#    0.000    3.000    1.667    0.000    0.000    0.667 
#    3.000    0.000    0.000    0.500    0.000    0.000 
#    0.000    0.000    0.000    0.000    0.000    0.333 
#
# Total GULP energy -594631.597148 kJ/mol
# GULP energy per Si atom -12388.158274 kJ/mol
# Density = 2.112716 g / cm^3
# Si number density = 21.175356 Si / 1000 Ang^3
#
#
#
# Elastic Constant Matrix: (Units=GPa)
#
#
# Indices 1 2 3 4 5 6 
#
# 1 180.0523 110.4582 -0.0459 0.0000 0.0000 0.0000
# 2 110.4582 174.9107 16.4994 -0.0001 0.0001 0.0000
# 3 -0.0459 16.4994 21.3911 -0.0002 0.0002 0.0000
# 4 0.0000 -0.0001 -0.0002 21.2262 0.0000 0.0000
# 5 0.0000 0.0001 0.0002 0.0000 3.6936 0.0000
# 6 0.0000 0.0000 0.0000 0.0000 0.0000 44.4233
#
#
#
# Elastic Compliance Matrix: (Units=1/GPa)
#
#
# Indices 1 2 3 4 5 6 
#
# 1 0.009544 -0.006502 0.005036 0.000000 0.000000 0.000000
# 2 -0.006502 0.010596 -0.008187 0.000000 0.000000 0.000000
# 3 0.005036 -0.008187 0.053074 0.000001 -0.000003 0.000000
# 4 0.000000 0.000000 0.000001 0.047112 0.000000 0.000000
# 5 0.000000 0.000000 -0.000003 0.000000 0.270741 0.000000
# 6 0.000000 0.000000 0.000000 0.000000 0.000000 0.022511
#
#
# Mechanical properties :
#
#
# Convention : Reuss Voigt Hill
#
# Bulk Modulus (GPa) = 18.55032 70.01973 44.28502
# Shear Modulus (GPa) = 11.09010 30.49812 20.79411
#
# Velocity S-wave (km/s) = 2.29099 3.79920 3.13708
# Velocity P-wave (km/s) = 3.97209 7.23765 5.83786
#
# Compressibility (1/GPa) = 0.05390744
#
# Stress axis : x y z
#
# Youngs Moduli (GPa) = 104.77460 94.37715 18.84173
#
# Poissons Ratio (x) = 0.61368 -0.09489
# Poissons Ratio (y) = 0.68128 0.15425
# Poissons Ratio (z) = -0.52763 0.77264
#
# Static dielectric constant tensor:
#      x y z
#    x 4.576700 0.000000 0.000000 
#    y 0.000000 3.874270 0.000000 
#    z 0.000000 0.000000 3.186320 
# 
# 
# High freq. dielectric constant tensor:
#      x y z
#    x 1.824180 0.000000 0.000000 
#    y 0.000000 1.835720 0.000000 
#    z 0.000000 0.000000 1.776820 
# 
# From -- ./inp_files/29584.got.cif
#   From: 2010.03.12/outbox.cif.g09.slc.cpg/sg72_15_cif.got.tgz:29584.got - 2010.04.16 14:54:00.
