data_PCOD8295852
_publ_section_title
;
Structure prediction by ZEFSAII (Michael W. Deem and Ramdas Pophale) SiO2 
 PCOD8295852
Probable space group: I B C A 
;
_chemical_formula_sum "Si O2"
_cell_formula_units_Z 104
_cell_length_a 20.411057
_cell_length_b 28.003046
_cell_length_c 8.581079
_cell_angle_alpha 90.000000
_cell_angle_beta 90.000000
_cell_angle_gamma 90.000000
_cell_volume 4904.702496
_symmetry_space_group_name_H-M "I B C A "
_symmetry_group_IT_number 73
_symmetry_cell_setting 'orthorhombic'
loop_
_space_group_symop_operation_xyz
x,y,z
-x,1/2-y,z
x,-y,1/2-z
1/2-x,y,-z
-x,-y,-z
x,1/2+y,-z
-x,y,1/2+z
1/2+x,-y,z
1/2+x,1/2+y,1/2+z
1/2-x,-y,1/2+z
1/2+x,1/2-y,-z
-x,1/2+y,1/2-z
1/2-x,1/2-y,1/2-z
1/2+x,y,1/2-z
1/2-x,1/2+y,z
x,1/2-y,1/2+z
loop_
_atom_site_type_symbol
_atom_site_label
_atom_site_fract_x
_atom_site_fract_y
_atom_site_fract_z
Si Si1 0.665598 0.761398 0.987704
Si Si2 0.280362 0.182271 0.288845
Si Si3 0.453484 0.955126 0.491315
Si Si4 0.180634 0.588252 0.428399
Si Si5 0.433258 0.090799 0.675283
Si Si6 0.144303 0.500000 0.250000
Si Si7 0.129820 0.813961 0.233148
O O1 0.710939 0.727624 0.097207
O O2 0.620196 0.794706 0.093296
O O3 0.708193 0.798308 0.884626
O O4 0.616465 0.729273 0.885975
O O5 0.329624 0.137960 0.330510
O O6 0.203908 0.166054 0.299105
O O7 0.428862 0.939828 0.663854
O O8 0.495857 0.913917 0.406238
O O9 0.394838 0.970736 0.380943
O O10 0.500000 0.000000 0.500000
O O11 0.250000 0.597717 0.500000
O O12 0.123450 0.576431 0.552449
O O13 0.188713 0.541276 0.323155
O O14 0.424796 0.146097 0.713418
#
# Coordination Sequence:
#
# PCOD8295852 Si02
#       7
#    16  16  16  16  16   8  16
#     4  10  20  34  62  99 141 181 217 251 323 422
#     4  11  19  37  60  99 147 174 213 258 328 414
#     4  12  24  48  74  94 113 173 245 288 316 383
#     4  12  25  44  63 105 146 175 203 278 348 411
#     4  12  24  43  72  94 131 168 228 279 336 386
#     4  12  28  46  72  96 126 176 234 280 332 400
#     4  11  20  36  62  98 134 178 210 265 323 401
#
# _framework density 21.204141
#
# number of rings (size 3 to 8) (size 9 to 14) (size 15 to 20)
#    0.000    0.615    6.154    3.692    2.154    1.231 
#    0.000    0.000    0.000    2.769    0.000    0.000 
#    0.000    0.000    0.000    0.000    0.000    0.000 
#
# Total GULP energy -644410.186579 kJ/mol
# GULP energy per Si atom -12392.503588 kJ/mol
# Density = 2.115588 g / cm^3
# Si number density = 21.204141 Si / 1000 Ang^3
#
#
#
# Elastic Constant Matrix: (Units=GPa)
#
#
# Indices 1 2 3 4 5 6 
#
# 1 31.1970 42.2106 20.5012 0.0000 0.0000 0.0000
# 2 42.2106 140.5719 63.6564 0.0000 0.0000 0.0000
# 3 20.5012 63.6564 139.4728 0.0000 0.0000 0.0000
# 4 0.0000 0.0000 0.0000 26.0806 0.0000 0.0000
# 5 0.0000 0.0000 0.0000 0.0000 25.5053 0.0000
# 6 0.0000 0.0000 0.0000 0.0000 0.0000 38.9563
#
#
#
# Elastic Compliance Matrix: (Units=1/GPa)
#
#
# Indices 1 2 3 4 5 6 
#
# 1 0.054040 -0.015920 -0.000677 0.000000 0.000000 0.000000
# 2 -0.015920 0.013657 -0.003893 0.000000 0.000000 0.000000
# 3 -0.000677 -0.003893 0.009046 0.000000 0.000000 0.000000
# 4 0.000000 0.000000 0.000000 0.038343 0.000000 0.000000
# 5 0.000000 0.000000 0.000000 0.000000 0.039208 0.000000
# 6 0.000000 0.000000 0.000000 0.000000 0.000000 0.025670
#
#
# Mechanical properties :
#
#
# Convention : Reuss Voigt Hill
#
# Bulk Modulus (GPa) = 27.96241 62.66423 45.31332
# Shear Modulus (GPa) = 21.47156 30.43333 25.95245
#
# Velocity S-wave (km/s) = 3.18561 3.79258 3.50227
# Velocity P-wave (km/s) = 5.17172 6.98536 6.14581
#
# Compressibility (1/GPa) = 0.03576229
#
# Stress axis : x y z
#
# Youngs Moduli (GPa) = 18.50472 73.22092 110.54297
#
# Poissons Ratio (x) = 1.16571 0.07486
# Poissons Ratio (y) = 0.29460 0.43036
# Poissons Ratio (z) = 0.01253 0.28506
#
# Static dielectric constant tensor:
#      x y z
#    x 3.432410 0.000000 0.000000 
#    y 0.000000 4.100590 0.000000 
#    z 0.000000 0.000000 3.178560 
# 
# 
# High freq. dielectric constant tensor:
#      x y z
#    x 1.782970 0.000000 0.000000 
#    y 0.000000 1.843220 0.000000 
#    z 0.000000 0.000000 1.859440 
# 
# From -- ./inp_files/6695.got.cif
#   From: 2010.03.12/outbox.cif.g09.slc.cpg/sg73_4_cif.got.tgz:6695.got - 2010.04.16 15:25:48.
