data_PCOD8295356
_publ_section_title
;
Structure prediction by ZEFSAII (Michael W. Deem and Ramdas Pophale) SiO2 
 PCOD8295356
Probable space group: I B A M
;
_chemical_formula_sum "Si O2"
_cell_formula_units_Z 80
_cell_length_a 7.712592
_cell_length_b 25.558279
_cell_length_c 17.395329
_cell_angle_alpha 90.000000
_cell_angle_beta 90.000000
_cell_angle_gamma 90.000000
_cell_volume 3428.977310
_symmetry_space_group_name_H-M "I B A M"
_symmetry_group_IT_number 72
_symmetry_cell_setting 'orthorhombic'
loop_
_space_group_symop_operation_xyz
x,y,z
-x,-y,z
x,-y,1/2-z
-x,y,1/2-z
-x,-y,-z
x,y,-z
-x,y,1/2+z
x,-y,1/2+z
1/2+x,1/2+y,1/2+z
1/2-x,1/2-y,1/2+z
1/2+x,1/2-y,-z
1/2-x,1/2+y,-z
1/2-x,1/2-y,1/2-z
1/2+x,1/2+y,1/2-z
1/2-x,1/2+y,z
1/2+x,1/2-y,z
loop_
_atom_site_type_symbol
_atom_site_label
_atom_site_fract_x
_atom_site_fract_y
_atom_site_fract_z
Si Si1 0.138903 0.404249 0.344686
Si Si2 0.491706 0.417590 0.413398
Si Si3 0.375592 0.304509 0.912501
Si Si4 0.479459 0.202862 0.339330
Si Si5 0.206339 0.550439 0.305352
O O1 0.291656 0.430930 0.394514
O O2 0.101107 0.344511 0.368725
O O3 0.200490 0.401231 0.255159
O O4 0.969504 0.441961 0.355845
O O5 0.533961 0.435675 0.500000
O O6 0.505236 0.355409 0.403221
O O7 0.622403 0.449057 0.357708
O O8 0.484495 0.254123 0.888941
O O9 0.216452 0.313612 0.855688
O O10 0.310740 0.298339 0.000000
O O11 0.500000 0.215927 0.250000
O O12 0.201968 0.500000 0.250000
#
# Coordination Sequence:
#
# PCOD8295356 Si02
#       5
#    16  16  16  16  16
#     4  11  22  42  70 103 137 184 238 301 359 420
#     4  11  25  44  70 106 146 187 232 292 362 436
#     4  11  24  41  62  98 147 192 233 289 361 432
#     4  12  22  39  65  99 139 189 249 297 350 421
#     4  11  24  47  75 101 136 184 240 302 367 422
#
# _framework density 23.330572
#
# number of rings (size 3 to 8) (size 9 to 14) (size 15 to 20)
#    0.000    0.800    4.000    4.200    0.000    8.000 
#    0.000    2.000    0.000    7.200    0.000    0.000 
#    0.000    0.000    0.000    0.000    0.000    0.000 
#
# Total GULP energy -495987.231051 kJ/mol
# GULP energy per Si atom -12399.680776 kJ/mol
# Density = 2.327747 g / cm^3
# Si number density = 23.330572 Si / 1000 Ang^3
#
#
#
# Elastic Constant Matrix: (Units=GPa)
#
#
# Indices 1 2 3 4 5 6 
#
# 1 148.1984 39.3967 41.1097 -0.0001 0.0000 0.0001
# 2 39.3967 112.5627 36.4318 0.0001 0.0000 0.0000
# 3 41.1097 36.4318 82.5161 -0.0006 -0.0001 0.0004
# 4 -0.0001 0.0001 -0.0006 -17.8874 0.0000 -0.0002
# 5 0.0000 0.0000 -0.0001 0.0000 38.6729 0.0000
# 6 0.0001 0.0000 0.0004 -0.0002 0.0000 23.2255
#
#
#
# Elastic Compliance Matrix: (Units=1/GPa)
#
#
# Indices 1 2 3 4 5 6 
#
# 1 0.008128 -0.001790 -0.003259 0.000000 0.000000 0.000000
# 2 -0.001790 0.010759 -0.003859 0.000000 0.000000 0.000000
# 3 -0.003259 -0.003859 0.015446 -0.000001 0.000000 0.000000
# 4 0.000000 0.000000 -0.000001 -0.055905 0.000000 0.000000
# 5 0.000000 0.000000 0.000000 0.000000 0.025858 0.000000
# 6 0.000000 0.000000 0.000000 0.000000 0.000000 0.043056
#
#
# Mechanical properties :
#
#
# Convention : Reuss Voigt Hill
#
# Bulk Modulus (GPa) = 60.53976 64.12821 62.33398
# Shear Modulus (GPa) = 70.75899 23.89147 47.32523
#
# Velocity S-wave (km/s) = 5.51314 3.20354 4.50873
# Velocity P-wave (km/s) = 8.15667 6.42106 7.34034
#
# Compressibility (1/GPa) = 0.01651807
#
# Stress axis : x y z
#
# Youngs Moduli (GPa) = 123.03857 92.94320 64.74135
#
# Poissons Ratio (x) = 0.16635 0.21099
# Poissons Ratio (y) = 0.22022 0.24981
# Poissons Ratio (z) = 0.40097 0.35863
#
# Static dielectric constant tensor:
#      x y z
#    x 4.195560 0.000000 0.000000 
#    y 0.000000 4.402020 0.000000 
#    z 0.000000 0.000000 4.163020 
# 
# 
# High freq. dielectric constant tensor:
#      x y z
#    x 1.928110 0.000000 0.000000 
#    y 0.000000 1.934620 0.000000 
#    z 0.000000 0.000000 1.908310 
# 
# From -- ./inp_files/28098.got.cif
#   From: 2010.03.12/outbox.cif.g09.slc.cpg/sg72_15_cif.got.tgz:28098.got - 2010.04.16 14:54:00.
