data_PCOD8295771
_publ_section_title
;
Structure prediction by ZEFSAII (Michael W. Deem and Ramdas Pophale) SiO2 
 PCOD8295771
Probable space group: I B C A 
;
_chemical_formula_sum "Si O2"
_cell_formula_units_Z 112
_cell_length_a 12.775855
_cell_length_b 28.616773
_cell_length_c 14.037205
_cell_angle_alpha 90.000000
_cell_angle_beta 90.000000
_cell_angle_gamma 90.000000
_cell_volume 5132.054681
_symmetry_space_group_name_H-M "I B C A "
_symmetry_group_IT_number 73
_symmetry_cell_setting 'orthorhombic'
loop_
_space_group_symop_operation_xyz
x,y,z
-x,1/2-y,z
x,-y,1/2-z
1/2-x,y,-z
-x,-y,-z
x,1/2+y,-z
-x,y,1/2+z
1/2+x,-y,z
1/2+x,1/2+y,1/2+z
1/2-x,-y,1/2+z
1/2+x,1/2-y,-z
-x,1/2+y,1/2-z
1/2-x,1/2-y,1/2-z
1/2+x,y,1/2-z
1/2-x,1/2+y,z
x,1/2-y,1/2+z
loop_
_atom_site_type_symbol
_atom_site_label
_atom_site_fract_x
_atom_site_fract_y
_atom_site_fract_z
Si Si1 0.633403 0.544057 0.498447
Si Si2 0.467170 0.977120 0.854644
Si Si3 0.559393 0.860382 0.034111
Si Si4 0.085848 0.717325 0.109068
Si Si5 0.350620 0.891892 0.933041
Si Si6 0.964233 0.199472 0.186988
Si Si7 0.235940 0.298154 0.888773
O O1 0.750000 0.523014 0.500000
O O2 0.563129 0.517975 0.574521
O O3 0.581310 0.540749 0.392366
O O4 0.640552 0.597217 0.536565
O O5 0.381624 0.934986 0.862849
O O6 0.475038 0.000000 0.750000
O O7 0.615366 0.822598 0.965216
O O8 0.448121 0.880408 0.000416
O O9 0.540322 0.838538 0.138436
O O10 0.027898 0.693731 0.199382
O O11 0.181346 0.750008 0.146782
O O12 0.000000 0.750000 0.056270
O O13 0.330272 0.845494 0.869692
O O14 0.250000 0.904430 0.000000
O O15 0.844299 0.192576 0.161285
O O16 0.000000 0.250000 0.151582
O O17 0.250000 0.291163 0.000000
#
# Coordination Sequence:
#
# PCOD8295771 Si02
#       7
#    16  16  16  16  16  16  16
#     4  10  24  45  67  99 134 167 217 271 334 404
#     4  10  23  45  72  99 133 169 212 274 337 398
#     4  11  21  39  61  88 129 172 212 271 328 386
#     4  11  22  37  58  87 131 168 218 273 313 384
#     4  10  19  37  69  91 125 174 222 266 327 402
#     4  11  23  37  57  90 128 172 221 270 325 378
#     4  11  19  37  63  89 123 178 225 259 328 394
#
# _framework density 21.823618
#
# number of rings (size 3 to 8) (size 9 to 14) (size 15 to 20)
#    0.000    1.429    4.286    2.143    0.000    4.571 
#    2.571    0.000    0.000    0.000    0.000    0.000 
#    0.000    0.000    0.000    0.000    0.000    0.000 
#
# Total GULP energy -694083.584393 kJ/mol
# GULP energy per Si atom -12394.349721 kJ/mol
# Density = 2.177395 g / cm^3
# Si number density = 21.823618 Si / 1000 Ang^3
#
#
#
# Elastic Constant Matrix: (Units=GPa)
#
#
# Indices 1 2 3 4 5 6 
#
# 1 77.3342 14.7064 18.3652 0.0002 0.0001 -0.0002
# 2 14.7064 126.4305 53.1439 -0.0001 -0.0001 -0.0003
# 3 18.3652 53.1439 100.7878 0.0034 -0.0004 -0.0019
# 4 0.0002 -0.0001 0.0034 24.6386 -0.0004 -0.0005
# 5 0.0001 -0.0001 -0.0004 -0.0004 16.8292 0.0001
# 6 -0.0002 -0.0003 -0.0019 -0.0005 0.0001 30.8256
#
#
#
# Elastic Compliance Matrix: (Units=1/GPa)
#
#
# Indices 1 2 3 4 5 6 
#
# 1 0.013563 -0.000692 -0.002106 0.000000 0.000000 0.000000
# 2 -0.000692 0.010197 -0.005251 0.000001 0.000000 0.000000
# 3 -0.002106 -0.005251 0.013074 -0.000002 0.000000 0.000001
# 4 0.000000 0.000001 -0.000002 0.040587 0.000001 0.000001
# 5 0.000000 0.000000 0.000000 0.000001 0.059421 0.000000
# 6 0.000000 0.000000 0.000001 0.000001 0.000000 0.032441
#
#
# Mechanical properties :
#
#
# Convention : Reuss Voigt Hill
#
# Bulk Modulus (GPa) = 48.22621 52.99818 50.61219
# Shear Modulus (GPa) = 26.00209 29.01447 27.50828
#
# Velocity S-wave (km/s) = 3.45551 3.65018 3.55418
# Velocity P-wave (km/s) = 6.16983 6.48865 6.33125
#
# Compressibility (1/GPa) = 0.02073561
#
# Stress axis : x y z
#
# Youngs Moduli (GPa) = 73.73136 98.06753 76.48643
#
# Poissons Ratio (x) = 0.06789 0.16111
# Poissons Ratio (y) = 0.05104 0.40160
# Poissons Ratio (z) = 0.15530 0.51492
#
# Static dielectric constant tensor:
#      x y z
#    x 3.971850 0.000000 0.000000 
#    y 0.000000 4.348550 0.000000 
#    z 0.000000 0.000000 3.155610 
# 
# 
# High freq. dielectric constant tensor:
#      x y z
#    x 1.855900 0.000000 0.000000 
#    y 0.000000 1.867930 0.000000 
#    z 0.000000 0.000000 1.835210 
# 
# From -- ./inp_files/17403.got.cif
#   From: 2010.03.12/outbox.cif.g09.slc.cpg/sg73_9_cif.got.tgz:17403.got - 2010.04.16 15:25:48.
