data_PCOD8295591
_publ_section_title
;
Structure prediction by ZEFSAII (Michael W. Deem and Ramdas Pophale) SiO2 
 PCOD8295591
Probable space group: I B C A 
;
_chemical_formula_sum "Si O2"
_cell_formula_units_Z 56
_cell_length_a 5.046358
_cell_length_b 13.041502
_cell_length_c 37.358676
_cell_angle_alpha 90.000000
_cell_angle_beta 90.000000
_cell_angle_gamma 90.000000
_cell_volume 2458.652471
_symmetry_space_group_name_H-M "I B C A "
_symmetry_group_IT_number 73
_symmetry_cell_setting 'orthorhombic'
loop_
_space_group_symop_operation_xyz
x,y,z
-x,1/2-y,z
x,-y,1/2-z
1/2-x,y,-z
-x,-y,-z
x,1/2+y,-z
-x,y,1/2+z
1/2+x,-y,z
1/2+x,1/2+y,1/2+z
1/2-x,-y,1/2+z
1/2+x,1/2-y,-z
-x,1/2+y,1/2-z
1/2-x,1/2-y,1/2-z
1/2+x,y,1/2-z
1/2-x,1/2+y,z
x,1/2-y,1/2+z
loop_
_atom_site_type_symbol
_atom_site_label
_atom_site_fract_x
_atom_site_fract_y
_atom_site_fract_z
Si Si1 0.313840 0.137999 0.734201
Si Si2 0.500000 0.250000 0.877043
Si Si3 0.750000 0.184185 0.000000
Si Si4 0.500000 0.750000 0.330788
Si Si5 0.595128 0.431236 0.429493
O O1 0.250000 0.250000 0.750000
O O2 0.533859 0.080205 0.759428
O O3 0.406712 0.151648 0.693078
O O4 0.748323 0.288630 0.853542
O O5 0.379837 0.341068 0.900806
O O6 0.500000 0.250000 0.014789
O O7 0.869272 0.114463 0.031103
O O8 0.308340 0.480199 0.423895
#
# Coordination Sequence:
#
# PCOD8295591 Si02
#       5
#    16   8   8   8  16
#     4   8  13  24  44  75 118 149 194 259 298 345
#     4  12  24  39  61  90 128 164 210 252 302 394
#     4  12  24  44  74  96 122 158 214 264 316 374
#     4  10  18  31  53  84 124 164 198 256 312 350
#     4  12  26  45  66  93 128 167 206 260 318 370
#
# _framework density 22.776706000000001
#
# number of rings (size 3 to 8) (size 9 to 14) (size 15 to 20)
#    0.000    1.714    1.429    7.714    2.000    0.000 
#    0.000    0.000    0.000    0.000    0.000    0.000 
#    0.000  720.000    0.000    0.000    0.000    0.000 
#
# Total GULP energy -346961.909453 kJ/mol
# GULP energy per Si atom -12391.496766 kJ/mol
# Density = 2.272487 g / cm^3
# Si number density = 22.776706 Si / 1000 Ang^3
#
#
#
# Elastic Constant Matrix: (Units=GPa)
#
#
# Indices 1 2 3 4 5 6 
#
# 1 176.0849 9.0226 49.3288 0.0000 0.0000 0.0000
# 2 9.0226 72.2702 32.1009 0.0000 0.0000 0.0000
# 3 49.3288 32.1009 137.6820 0.0000 0.0000 0.0000
# 4 0.0000 0.0000 0.0000 -1.1791 0.0000 0.0000
# 5 0.0000 0.0000 0.0000 0.0000 100.1007 0.0000
# 6 0.0000 0.0000 0.0000 0.0000 0.0000 19.0457
#
#
#
# Elastic Compliance Matrix: (Units=1/GPa)
#
#
# Indices 1 2 3 4 5 6 
#
# 1 0.006316 0.000242 -0.002319 0.000000 0.000000 0.000000
# 2 0.000242 0.015445 -0.003688 0.000000 0.000000 0.000000
# 3 -0.002319 -0.003688 0.008954 0.000000 0.000000 0.000000
# 4 0.000000 0.000000 0.000000 -0.848103 0.000000 0.000000
# 5 0.000000 0.000000 0.000000 0.000000 0.009990 0.000000
# 6 0.000000 0.000000 0.000000 0.000000 0.000000 0.052505
#
#
# Mechanical properties :
#
#
# Convention : Reuss Voigt Hill
#
# Bulk Modulus (GPa) = 52.12556 62.99352 57.55954
# Shear Modulus (GPa) = -6.78456 43.29911 18.25728
#
# Velocity S-wave (km/s) = -1.72777 4.36481 2.83428
# Velocity P-wave (km/s) = 4.35372 7.28828 6.00308
#
# Compressibility (1/GPa) = 0.01918445
#
# Stress axis : x y z
#
# Youngs Moduli (GPa) = 158.31653 64.74697 111.68343
#
# Poissons Ratio (x) = -0.01565 0.25904
# Poissons Ratio (y) = -0.03826 0.41184
# Poissons Ratio (z) = 0.36720 0.23876
#
# Static dielectric constant tensor:
#      x y z
#    x -6.256810 0.000000 0.000000 
#    y 0.000000 3.188220 0.000000 
#    z 0.000000 0.000000 4.174160 
# 
# 
# High freq. dielectric constant tensor:
#      x y z
#    x 1.938260 0.000000 0.000000 
#    y 0.000000 1.878970 0.000000 
#    z 0.000000 0.000000 1.891070 
# 
# From -- ./inp_files/33154.got.cif
#   From: 2010.03.12/outbox.cif.g09.slc.cpg/sg73_17_cif.got.tgz:33154.got - 2010.04.16 15:25:48.
