data_PCOD8295193
_publ_section_title
;
Structure prediction by ZEFSAII (Michael W. Deem and Ramdas Pophale) SiO2 
 PCOD8295193
Probable space group: I B A M
;
_chemical_formula_sum "Si O2"
_cell_formula_units_Z 80
_cell_length_a 9.346587
_cell_length_b 17.189361
_cell_length_c 24.105690
_cell_angle_alpha 90.000000
_cell_angle_beta 90.000000
_cell_angle_gamma 90.000000
_cell_volume 3872.864945
_symmetry_space_group_name_H-M "I B A M"
_symmetry_group_IT_number 72
_symmetry_cell_setting 'orthorhombic'
loop_
_space_group_symop_operation_xyz
x,y,z
-x,-y,z
x,-y,1/2-z
-x,y,1/2-z
-x,-y,-z
x,y,-z
-x,y,1/2+z
x,-y,1/2+z
1/2+x,1/2+y,1/2+z
1/2-x,1/2-y,1/2+z
1/2+x,1/2-y,-z
1/2-x,1/2+y,-z
1/2-x,1/2-y,1/2-z
1/2+x,1/2+y,1/2-z
1/2-x,1/2+y,z
1/2+x,1/2-y,z
loop_
_atom_site_type_symbol
_atom_site_label
_atom_site_fract_x
_atom_site_fract_y
_atom_site_fract_z
Si Si1 0.433923 0.921582 0.619828
Si Si2 0.416196 0.687440 0.000000
Si Si3 0.152559 0.301554 0.092007
Si Si4 0.000000 0.237515 0.250000
Si Si5 0.194947 0.100556 0.500000
Si Si6 0.681783 0.934299 0.000000
Si Si7 0.246681 0.311437 0.680032
O O1 0.541941 0.849966 0.629353
O O2 0.416802 0.936040 0.554143
O O3 0.287272 0.895442 0.650973
O O4 0.500000 0.000000 0.646620
O O5 0.434626 0.740797 0.945907
O O6 0.261283 0.648163 0.000000
O O7 0.527465 0.617454 0.000000
O O8 0.240741 0.361930 0.055179
O O9 0.256496 0.255897 0.133482
O O10 0.881522 0.292955 0.222234
O O11 0.905198 0.183525 0.291833
O O12 0.213396 0.008177 0.500000
#
# Coordination Sequence:
#
# PCOD8295193 Si02
#       7
#    16   8  16   8   8   8  16
#     4  12  23  40  64  96 131 174 213 257 323 394
#     4  11  23  34  56  94 123 174 216 252 311 386
#     4  11  22  37  64  93 127 168 213 260 312 394
#     4  10  24  42  71  99 122 154 228 282 332 368
#     4  11  23  36  55  92 141 169 203 253 311 390
#     4  12  22  39  57  91 141 169 209 251 311 389
#     4  11  22  43  70  98 123 169 216 280 325 387
#
# _framework density 20.656542999999999
#
# number of rings (size 3 to 8) (size 9 to 14) (size 15 to 20)
#    0.000    0.800    6.000    3.000    2.800    0.000 
#    0.000    0.500    0.000    1.200    0.000    0.000 
#    0.000    0.000    0.000    0.000    0.000    0.000 
#
# Total GULP energy -495985.649956 kJ/mol
# GULP energy per Si atom -12399.641249 kJ/mol
# Density = 2.060953 g / cm^3
# Si number density = 20.656543 Si / 1000 Ang^3
#
#
#
# Elastic Constant Matrix: (Units=GPa)
#
#
# Indices 1 2 3 4 5 6 
#
# 1 93.8781 35.7302 25.5736 0.0000 0.0000 0.0000
# 2 35.7302 122.2908 24.7260 0.0000 0.0000 0.0000
# 3 25.5736 24.7260 78.8643 0.0000 0.0000 0.0000
# 4 0.0000 0.0000 0.0000 6.9517 0.0000 0.0000
# 5 0.0000 0.0000 0.0000 0.0000 34.8006 0.0000
# 6 0.0000 0.0000 0.0000 0.0000 0.0000 48.8014
#
#
#
# Elastic Compliance Matrix: (Units=1/GPa)
#
#
# Indices 1 2 3 4 5 6 
#
# 1 0.012677 -0.003067 -0.003149 0.000000 0.000000 0.000000
# 2 -0.003067 0.009473 -0.001975 0.000000 0.000000 0.000000
# 3 -0.003149 -0.001975 0.014321 0.000000 0.000000 0.000000
# 4 0.000000 0.000000 0.000000 0.143849 0.000000 0.000000
# 5 0.000000 0.000000 0.000000 0.000000 0.028735 0.000000
# 6 0.000000 0.000000 0.000000 0.000000 0.000000 0.020491
#
#
# Mechanical properties :
#
#
# Convention : Reuss Voigt Hill
#
# Bulk Modulus (GPa) = 49.78341 51.89920 50.84131
# Shear Modulus (GPa) = 19.79211 32.04430 25.91821
#
# Velocity S-wave (km/s) = 3.09876 3.94292 3.54605
# Velocity P-wave (km/s) = 6.07914 6.77555 6.43677
#
# Compressibility (1/GPa) = 0.02008701
#
# Stress axis : x y z
#
# Youngs Moduli (GPa) = 78.88034 105.56544 69.82970
#
# Poissons Ratio (x) = 0.32380 0.21991
# Poissons Ratio (y) = 0.24195 0.13794
# Poissons Ratio (z) = 0.24842 0.20853
#
# Static dielectric constant tensor:
#      x y z
#    x 3.800480 0.000000 0.000000 
#    y 0.000000 3.668990 0.000000 
#    z 0.000000 0.000000 3.857220 
# 
# 
# High freq. dielectric constant tensor:
#      x y z
#    x 1.809650 0.000000 0.000000 
#    y 0.000000 1.795740 0.000000 
#    z 0.000000 0.000000 1.803830 
# 
# From -- ./inp_files/47243.got.cif
#   From: 2010.03.12/outbox.cif.g09.slc.cpg/sg72_24_cif.got.tgz:47243.got - 2010.04.16 14:54:00.
