data_PCOD8295648
_publ_section_title
;
Structure prediction by ZEFSAII (Michael W. Deem and Ramdas Pophale) SiO2 
 PCOD8295648
Probable space group: I B C A 
;
_chemical_formula_sum "Si O2"
_cell_formula_units_Z 104
_cell_length_a 17.906454
_cell_length_b 14.121844
_cell_length_c 19.642486
_cell_angle_alpha 90.000000
_cell_angle_beta 90.000000
_cell_angle_gamma 90.000000
_cell_volume 4967.037666
_symmetry_space_group_name_H-M "I B C A "
_symmetry_group_IT_number 73
_symmetry_cell_setting 'orthorhombic'
loop_
_space_group_symop_operation_xyz
x,y,z
-x,1/2-y,z
x,-y,1/2-z
1/2-x,y,-z
-x,-y,-z
x,1/2+y,-z
-x,y,1/2+z
1/2+x,-y,z
1/2+x,1/2+y,1/2+z
1/2-x,-y,1/2+z
1/2+x,1/2-y,-z
-x,1/2+y,1/2-z
1/2-x,1/2-y,1/2-z
1/2+x,y,1/2-z
1/2-x,1/2+y,z
x,1/2-y,1/2+z
loop_
_atom_site_type_symbol
_atom_site_label
_atom_site_fract_x
_atom_site_fract_y
_atom_site_fract_z
Si Si1 0.160455 0.252391 0.151118
Si Si2 0.422377 0.785760 0.891609
Si Si3 0.360361 0.139654 0.211773
Si Si4 0.286581 0.457220 0.320642
Si Si5 0.720309 0.876533 0.427937
Si Si6 0.477633 0.599409 0.267042
Si Si7 0.000000 0.750000 0.841276
O O1 0.170260 0.296510 0.226173
O O2 0.172503 0.139253 0.156195
O O3 0.222604 0.299353 0.103036
O O4 0.076438 0.278176 0.118884
O O5 0.500000 0.750000 0.927641
O O6 0.378838 0.703359 0.853143
O O7 0.361381 0.829429 0.942746
O O8 0.445882 0.865731 0.838023
O O9 0.300708 0.062037 0.190313
O O10 0.433893 0.083349 0.232172
O O11 0.319904 0.500000 0.250000
O O12 0.292760 0.534351 0.379677
O O13 0.750000 0.913488 0.500000
O O14 0.438544 0.500000 0.250000
O O15 0.460487 0.672771 0.207300
#
# Coordination Sequence:
#
# PCOD8295648 Si02
#       7
#    16  16  16  16  16  16   8
#     4  11  22  42  64  93 136 167 212 271 340 385
#     4  10  20  41  65  90 129 172 214 262 329 392
#     4  10  18  37  61 103 126 161 211 273 333 387
#     4  12  23  36  71  99 126 170 226 276 329 390
#     4  12  28  45  63  94 136 175 228 272 318 399
#     4  10  19  30  59  95 139 157 200 274 340 378
#     4  10  22  36  58 100 132 156 210 272 324 394
#
# _framework density 20.938033000000001
#
# number of rings (size 3 to 8) (size 9 to 14) (size 15 to 20)
#    0.000    1.231    6.923    1.846    4.308    0.615 
#    1.385    0.000    0.000    4.615    0.000    0.000 
#    0.000    0.000    0.000    0.000    0.000    0.000 
#
# Total GULP energy -644279.401865 kJ/mol
# GULP energy per Si atom -12389.988497 kJ/mol
# Density = 2.089038 g / cm^3
# Si number density = 20.938033 Si / 1000 Ang^3
#
#
#
# Elastic Constant Matrix: (Units=GPa)
#
#
# Indices 1 2 3 4 5 6 
#
# 1 152.2897 15.2442 32.7227 0.0000 0.0000 0.0000
# 2 15.2442 107.3787 32.3609 0.0000 0.0000 0.0000
# 3 32.7227 32.3609 73.7738 0.0000 0.0000 0.0000
# 4 0.0000 0.0000 0.0000 17.8365 0.0000 0.0000
# 5 0.0000 0.0000 0.0000 0.0000 19.3419 0.0000
# 6 0.0000 0.0000 0.0000 0.0000 0.0000 10.7483
#
#
#
# Elastic Compliance Matrix: (Units=1/GPa)
#
#
# Indices 1 2 3 4 5 6 
#
# 1 0.007259 -0.000069 -0.003189 0.000000 0.000000 0.000000
# 2 -0.000069 0.010732 -0.004677 0.000000 0.000000 0.000000
# 3 -0.003189 -0.004677 0.017021 0.000000 0.000000 0.000000
# 4 0.000000 0.000000 0.000000 0.056065 0.000000 0.000000
# 5 0.000000 0.000000 0.000000 0.000000 0.051701 0.000000
# 6 0.000000 0.000000 0.000000 0.000000 0.000000 0.093038
#
#
# Mechanical properties :
#
#
# Convention : Reuss Voigt Hill
#
# Bulk Modulus (GPa) = 52.24394 54.89975 53.57185
# Shear Modulus (GPa) = 19.37476 26.45962 22.91719
#
# Velocity S-wave (km/s) = 3.04524 3.55873 3.31195
# Velocity P-wave (km/s) = 6.11314 6.56986 6.34561
#
# Compressibility (1/GPa) = 0.01914098
#
# Stress axis : x y z
#
# Youngs Moduli (GPa) = 137.76690 93.17791 58.75079
#
# Poissons Ratio (x) = 0.00646 0.18737
# Poissons Ratio (y) = 0.00955 0.27477
# Poissons Ratio (z) = 0.43936 0.43578
#
# Static dielectric constant tensor:
#      x y z
#    x 4.312800 0.000000 0.000000 
#    y 0.000000 3.759340 0.000000 
#    z 0.000000 0.000000 3.213280 
# 
# 
# High freq. dielectric constant tensor:
#      x y z
#    x 1.862900 0.000000 0.000000 
#    y 0.000000 1.824770 0.000000 
#    z 0.000000 0.000000 1.753750 
# 
# From -- ./inp_files/26547.got.cif
#   From: 2010.03.12/outbox.cif.g09.slc.cpg/sg73_14_cif.got.tgz:26547.got - 2010.04.16 15:25:48.
