data_PCOD8295357
_publ_section_title
;
Structure prediction by ZEFSAII (Michael W. Deem and Ramdas Pophale) SiO2 
 PCOD8295357
Probable space group: I B A M
;
_chemical_formula_sum "Si O2"
_cell_formula_units_Z 104
_cell_length_a 9.135621
_cell_length_b 20.784330
_cell_length_c 24.802697
_cell_angle_alpha 90.000000
_cell_angle_beta 90.000000
_cell_angle_gamma 90.000000
_cell_volume 4709.480588
_symmetry_space_group_name_H-M "I B A M"
_symmetry_group_IT_number 72
_symmetry_cell_setting 'orthorhombic'
loop_
_space_group_symop_operation_xyz
x,y,z
-x,-y,z
x,-y,1/2-z
-x,y,1/2-z
-x,-y,-z
x,y,-z
-x,y,1/2+z
x,-y,1/2+z
1/2+x,1/2+y,1/2+z
1/2-x,1/2-y,1/2+z
1/2+x,1/2-y,-z
1/2-x,1/2+y,-z
1/2-x,1/2-y,1/2-z
1/2+x,1/2+y,1/2-z
1/2-x,1/2+y,z
1/2+x,1/2-y,z
loop_
_atom_site_type_symbol
_atom_site_label
_atom_site_fract_x
_atom_site_fract_y
_atom_site_fract_z
Si Si1 0.830384 0.145014 0.761811
Si Si2 0.752658 0.767625 0.830966
Si Si3 0.719913 0.557380 0.000000
Si Si4 0.073800 0.429157 0.800734
Si Si5 0.003870 0.743737 0.905919
Si Si6 0.299498 0.919505 0.500000
Si Si7 0.475867 0.341228 0.500000
Si Si8 0.951478 0.392190 0.578201
O O1 0.751489 0.169514 0.706990
O O2 0.813093 0.203803 0.803404
O O3 0.748018 0.081119 0.786491
O O4 0.000000 0.127591 0.750000
O O5 0.663446 0.779365 0.886071
O O6 0.918537 0.758658 0.850637
O O7 0.693367 0.481176 0.000000
O O8 0.565855 0.592787 0.000000
O O9 0.809758 0.573475 0.945797
O O10 0.000000 0.500000 0.801722
O O11 0.000000 0.391652 0.750000
O O12 0.039579 0.397126 0.857512
O O13 0.935627 0.682911 0.937648
O O14 0.016418 0.803259 0.946058
O O15 0.401542 0.921867 0.447130
O O16 0.196808 0.856766 0.500000
#
# Coordination Sequence:
#
# PCOD8295357 Si02
#       8
#    16  16   8  16  16   8   8  16
#     4  11  23  41  67 101 136 180 232 286 344 422
#     4  11  23  39  64 100 137 177 223 276 358 420
#     4  11  24  43  68  89 130 183 238 288 335 423
#     4  11  24  43  68 101 136 183 239 289 343 417
#     4  12  23  41  64  99 144 172 217 294 354 432
#     4  11  24  45  66  95 132 181 244 288 336 418
#     4  12  27  40  62 102 139 178 222 284 375 409
#     4  11  22  42  71  97 128 178 234 289 348 417
#
# _framework density 22.083113999999998
#
# number of rings (size 3 to 8) (size 9 to 14) (size 15 to 20)
#    0.000    0.769    3.077    5.769    0.000    1.846 
#    0.000    1.538    0.000    0.000    0.000    0.000 
#    0.000    0.000    0.000    0.000    0.000    0.000 
#
# Total GULP energy -644432.455737 kJ/mol
# GULP energy per Si atom -12392.931841 kJ/mol
# Density = 2.203285 g / cm^3
# Si number density = 22.083114 Si / 1000 Ang^3
#
#
#
# Elastic Constant Matrix: (Units=GPa)
#
#
# Indices 1 2 3 4 5 6 
#
# 1 122.7638 39.0940 48.1257 0.0000 0.0000 0.0000
# 2 39.0940 99.5754 25.0077 0.0000 0.0000 0.0000
# 3 48.1257 25.0077 136.5684 0.0000 0.0000 0.0000
# 4 0.0000 0.0000 0.0000 23.8686 0.0000 0.0000
# 5 0.0000 0.0000 0.0000 0.0000 16.6620 0.0000
# 6 0.0000 0.0000 0.0000 0.0000 0.0000 38.4430
#
#
#
# Elastic Compliance Matrix: (Units=1/GPa)
#
#
# Indices 1 2 3 4 5 6 
#
# 1 0.010400 -0.003315 -0.003058 0.000000 0.000000 0.000000
# 2 -0.003315 0.011584 -0.000953 0.000000 0.000000 0.000000
# 3 -0.003058 -0.000953 0.008574 0.000000 0.000000 0.000000
# 4 0.000000 0.000000 0.000000 0.041896 0.000000 0.000000
# 5 0.000000 0.000000 0.000000 0.000000 0.060017 0.000000
# 6 0.000000 0.000000 0.000000 0.000000 0.000000 0.026013
#
#
# Mechanical properties :
#
#
# Convention : Reuss Voigt Hill
#
# Bulk Modulus (GPa) = 62.86861 64.81805 63.84333
# Shear Modulus (GPa) = 28.02099 32.24006 30.13053
#
# Velocity S-wave (km/s) = 3.56601 3.82506 3.69781
# Velocity P-wave (km/s) = 6.74434 6.99455 6.87058
#
# Compressibility (1/GPa) = 0.01590619
#
# Stress axis : x y z
#
# Youngs Moduli (GPa) = 96.15199 86.32950 116.62625
#
# Poissons Ratio (x) = 0.28620 0.35663
# Poissons Ratio (y) = 0.31876 0.11113
# Poissons Ratio (z) = 0.29402 0.08226
#
# Static dielectric constant tensor:
#      x y z
#    x 3.930600 0.000000 0.000000 
#    y 0.000000 3.804210 0.000000 
#    z 0.000000 0.000000 4.148080 
# 
# 
# High freq. dielectric constant tensor:
#      x y z
#    x 1.870390 0.000000 0.000000 
#    y 0.000000 1.853330 0.000000 
#    z 0.000000 0.000000 1.880440 
# 
# From -- ./inp_files/47439.got.cif
#   From: 2010.03.12/outbox.cif.g09.slc.cpg/sg72_24_cif.got.tgz:47439.got - 2010.04.16 14:54:00.
