data_PCOD8295575
_publ_section_title
;
Structure prediction by ZEFSAII (Michael W. Deem and Ramdas Pophale) SiO2 
 PCOD8295575
Probable space group: I B C A 
;
_chemical_formula_sum "Si O2"
_cell_formula_units_Z 120
_cell_length_a 18.711369
_cell_length_b 11.543345
_cell_length_c 30.325976
_cell_angle_alpha 90.000000
_cell_angle_beta 90.000000
_cell_angle_gamma 90.000000
_cell_volume 6550.161773
_symmetry_space_group_name_H-M "I B C A "
_symmetry_group_IT_number 73
_symmetry_cell_setting 'orthorhombic'
loop_
_space_group_symop_operation_xyz
x,y,z
-x,1/2-y,z
x,-y,1/2-z
1/2-x,y,-z
-x,-y,-z
x,1/2+y,-z
-x,y,1/2+z
1/2+x,-y,z
1/2+x,1/2+y,1/2+z
1/2-x,-y,1/2+z
1/2+x,1/2-y,-z
-x,1/2+y,1/2-z
1/2-x,1/2-y,1/2-z
1/2+x,y,1/2-z
1/2-x,1/2+y,z
x,1/2-y,1/2+z
loop_
_atom_site_type_symbol
_atom_site_label
_atom_site_fract_x
_atom_site_fract_y
_atom_site_fract_z
Si Si1 0.740958 0.527057 0.862634
Si Si2 0.997271 0.114845 0.030767
Si Si3 0.387904 0.893675 0.604292
Si Si4 0.493849 0.613523 0.669078
Si Si5 0.047821 0.500000 0.750000
Si Si6 0.830581 0.653357 0.215227
Si Si7 0.878318 0.371594 0.603277
Si Si8 0.704365 0.402186 0.220095
O O1 0.682459 0.472291 0.895264
O O2 0.706477 0.626754 0.831807
O O3 0.800288 0.571467 0.897263
O O4 0.777414 0.435434 0.829878
O O5 0.924327 0.105578 0.059143
O O6 0.000000 0.250000 0.010663
O O7 0.068539 0.097645 0.059111
O O8 0.000000 0.000000 0.000000
O O9 0.437537 0.938983 0.644068
O O10 0.364007 0.762650 0.611579
O O11 0.500000 0.750000 0.665445
O O12 0.494375 0.570627 0.718860
O O13 0.421011 0.574511 0.645106
O O14 0.095027 0.412450 0.778999
O O15 0.780231 0.621480 0.256278
O O16 0.846286 0.790330 0.218039
O O17 0.664751 0.500000 0.250000
#
# Coordination Sequence:
#
# PCOD8295575 Si02
#       8
#    16  16  16  16   8  16  16  16
#     4  11  17  31  53  80 108 143 183 236 280 329
#     4   9  19  40  67  90 114 150 185 223 275 349
#     4   9  17  35  60  82 107 148 188 221 280 342
#     4   9  19  35  52  71 102 149 192 236 274 332
#     4  12  18  34  52  72 100 144 200 234 280 316
#     4  10  18  30  48  72 101 142 192 236 279 328
#     4   9  20  35  57  83 110 142 191 227 277 345
#     4   9  18  29  42  71 105 144 183 234 278 324
#
# _framework density 18.320157999999999
#
# number of rings (size 3 to 8) (size 9 to 14) (size 15 to 20)
#    0.000    2.400    3.333    2.400    0.000    5.333 
#    6.000    3.333    0.000    3.200    0.000    0.000 
#    0.000    0.000    0.000    0.000    0.000    0.000 
#
# Total GULP energy -743364.330485 kJ/mol
# GULP energy per Si atom -12389.405508 kJ/mol
# Density = 1.827846 g / cm^3
# Si number density = 18.320158 Si / 1000 Ang^3
#
#
#
# Elastic Constant Matrix: (Units=GPa)
#
#
# Indices 1 2 3 4 5 6 
#
# 1 100.5745 45.3180 34.4041 0.0000 0.0000 0.0000
# 2 45.3180 106.8810 34.6732 0.0000 0.0000 0.0000
# 3 34.4041 34.6732 60.3203 0.0000 0.0000 0.0000
# 4 0.0000 0.0000 0.0000 28.4765 0.0000 0.0000
# 5 0.0000 0.0000 0.0000 0.0000 16.5315 0.0000
# 6 0.0000 0.0000 0.0000 0.0000 0.0000 21.3442
#
#
#
# Elastic Compliance Matrix: (Units=1/GPa)
#
#
# Indices 1 2 3 4 5 6 
#
# 1 0.013615 -0.003999 -0.005466 0.000000 0.000000 0.000000
# 2 -0.003999 0.012676 -0.005005 0.000000 0.000000 0.000000
# 3 -0.005466 -0.005005 0.022573 0.000000 0.000000 0.000000
# 4 0.000000 0.000000 0.000000 0.035117 0.000000 0.000000
# 5 0.000000 0.000000 0.000000 0.000000 0.060491 0.000000
# 6 0.000000 0.000000 0.000000 0.000000 0.000000 0.046851
#
#
# Mechanical properties :
#
#
# Convention : Reuss Voigt Hill
#
# Bulk Modulus (GPa) = 50.19651 55.17402 52.68526
# Shear Modulus (GPa) = 22.03569 23.49580 22.76574
#
# Velocity S-wave (km/s) = 3.47192 3.58510 3.52896
# Velocity P-wave (km/s) = 6.59783 6.87890 6.73983
#
# Compressibility (1/GPa) = 0.01992171
#
# Stress axis : x y z
#
# Youngs Moduli (GPa) = 73.44892 78.89127 44.30070
#
# Poissons Ratio (x) = 0.31552 0.24217
# Poissons Ratio (y) = 0.29375 0.22173
# Poissons Ratio (z) = 0.40150 0.39486
#
# Static dielectric constant tensor:
#      x y z
#    x 3.233110 0.000000 0.000000 
#    y 0.000000 3.605990 0.000000 
#    z 0.000000 0.000000 3.417820 
# 
# 
# High freq. dielectric constant tensor:
#      x y z
#    x 1.702840 0.000000 0.000000 
#    y 0.000000 1.711440 0.000000 
#    z 0.000000 0.000000 1.676110 
# 
# From -- ./inp_files/34582.got.cif
#   From: 2010.03.12/outbox.cif.g09.slc.cpg/sg73_18_cif.got.tgz:34582.got - 2010.04.16 15:25:48.
