data_PCOD8295549
_publ_section_title
;
Structure prediction by ZEFSAII (Michael W. Deem and Ramdas Pophale) SiO2 
 PCOD8295549
Probable space group: I B C A 
;
_chemical_formula_sum "Si O2"
_cell_formula_units_Z 96
_cell_length_a 8.955973
_cell_length_b 27.809752
_cell_length_c 17.316057
_cell_angle_alpha 90.000000
_cell_angle_beta 90.000000
_cell_angle_gamma 90.000000
_cell_volume 4312.795824
_symmetry_space_group_name_H-M "I B C A "
_symmetry_group_IT_number 73
_symmetry_cell_setting 'orthorhombic'
loop_
_space_group_symop_operation_xyz
x,y,z
-x,1/2-y,z
x,-y,1/2-z
1/2-x,y,-z
-x,-y,-z
x,1/2+y,-z
-x,y,1/2+z
1/2+x,-y,z
1/2+x,1/2+y,1/2+z
1/2-x,-y,1/2+z
1/2+x,1/2-y,-z
-x,1/2+y,1/2-z
1/2-x,1/2-y,1/2-z
1/2+x,y,1/2-z
1/2-x,1/2+y,z
x,1/2-y,1/2+z
loop_
_atom_site_type_symbol
_atom_site_label
_atom_site_fract_x
_atom_site_fract_y
_atom_site_fract_z
Si Si1 0.081368 0.336815 0.698882
Si Si2 0.070149 0.995818 0.626948
Si Si3 0.329219 0.941172 0.707536
Si Si4 0.256001 0.332165 0.146677
Si Si5 0.188272 0.564464 0.608616
Si Si6 0.334079 0.237406 0.927515
O O1 0.147356 0.387986 0.674305
O O2 0.116864 0.325729 0.788344
O O3 0.162209 0.297468 0.645850
O O4 0.903364 0.337286 0.689006
O O5 0.170122 0.033497 0.576151
O O6 0.968228 0.026532 0.684129
O O7 0.175000 0.960453 0.674835
O O8 0.964082 0.960194 0.575344
O O9 0.314883 0.941698 0.799149
O O10 0.292555 0.378708 0.091817
O O11 0.258221 0.285553 0.092958
O O12 0.500000 0.250000 0.954383
O O13 0.250000 0.212780 0.000000
#
# Coordination Sequence:
#
# PCOD8295549 Si02
#       6
#    16  16  16  16  16  16
#     4  10  21  35  56  85 118 144 181 229 280 327
#     4  10  17  26  42  70 111 152 179 218 257 326
#     4  10  17  26  43  72 112 147 182 211 272 313
#     4  10  21  35  56  85 118 144 181 229 280 327
#     4  10  17  26  43  72 112 147 182 211 272 313
#     4  10  23  44  62  82 106 144 187 234 280 336
#
# _framework density 22.259343000000001
#
# number of rings (size 3 to 8) (size 9 to 14) (size 15 to 20)
#    0.000    2.000    1.667    4.500    7.000    1.333 
#    0.000    0.000    0.000    0.000    0.000    7.000 
#    0.000    0.000    0.000    0.000    0.000    0.000 
#
# Total GULP energy -594946.326682 kJ/mol
# GULP energy per Si atom -12394.715139 kJ/mol
# Density = 2.220868 g / cm^3
# Si number density = 22.259343 Si / 1000 Ang^3
#
#
#
# Elastic Constant Matrix: (Units=GPa)
#
#
# Indices 1 2 3 4 5 6 
#
# 1 99.5199 27.9628 6.1770 0.0002 -0.0002 0.0000
# 2 27.9628 114.1007 -2.6299 0.0000 -0.0002 0.0000
# 3 6.1770 -2.6299 19.6745 0.0025 -0.0011 -0.0001
# 4 0.0002 0.0000 0.0025 -27.6263 -0.0004 0.0000
# 5 -0.0002 -0.0002 -0.0011 -0.0004 6.0183 0.0002
# 6 0.0000 0.0000 -0.0001 0.0000 0.0002 33.6465
#
#
#
# Elastic Compliance Matrix: (Units=1/GPa)
#
#
# Indices 1 2 3 4 5 6 
#
# 1 0.011075 -0.002803 -0.003852 0.000000 -0.000001 0.000000
# 2 -0.002803 0.009501 0.002150 0.000000 0.000001 0.000000
# 3 -0.003852 0.002150 0.052324 0.000005 0.000010 0.000000
# 4 0.000000 0.000000 0.000005 -0.036197 -0.000002 0.000000
# 5 -0.000001 0.000001 0.000010 -0.000002 0.166160 -0.000001
# 6 0.000000 0.000000 0.000000 0.000000 -0.000001 0.029721
#
#
# Mechanical properties :
#
#
# Convention : Reuss Voigt Hill
#
# Bulk Modulus (GPa) = 15.65191 32.92388 24.28790
# Shear Modulus (GPa) = 19.01948 15.86005 17.43977
#
# Velocity S-wave (km/s) = 2.92627 2.67219 2.80211
# Velocity P-wave (km/s) = 4.29701 4.93396 4.62646
#
# Compressibility (1/GPa) = 0.06388996
#
# Stress axis : x y z
#
# Youngs Moduli (GPa) = 90.29451 105.25583 19.11176
#
# Poissons Ratio (x) = 0.29502 0.07361
# Poissons Ratio (y) = 0.25309 -0.04109
# Poissons Ratio (z) = 0.34779 -0.22630
#
# Static dielectric constant tensor:
#      x y z
#    x 4.419640 0.000000 0.000000 
#    y 0.000000 4.717160 0.000000 
#    z 0.000000 0.000000 3.375570 
# 
# 
# High freq. dielectric constant tensor:
#      x y z
#    x 1.889520 0.000000 0.000000 
#    y 0.000000 1.893570 0.000000 
#    z 0.000000 0.000000 1.830270 
# 
# From -- ./inp_files/24890.got.cif
#   From: 2010.03.12/outbox.cif.g09.slc.cpg/sg73_13_cif.got.tgz:24890.got - 2010.04.16 15:25:48.
