data_PCOD8295700
_publ_section_title
;
Structure prediction by ZEFSAII (Michael W. Deem and Ramdas Pophale) SiO2 
 PCOD8295700
Probable space group: I B C A 
;
_chemical_formula_sum "Si O2"
_cell_formula_units_Z 64
_cell_length_a 36.112914
_cell_length_b 5.100821
_cell_length_c 17.264428
_cell_angle_alpha 90.000000
_cell_angle_beta 90.000000
_cell_angle_gamma 90.000000
_cell_volume 3180.202766
_symmetry_space_group_name_H-M "I B C A "
_symmetry_group_IT_number 73
_symmetry_cell_setting 'orthorhombic'
loop_
_space_group_symop_operation_xyz
x,y,z
-x,1/2-y,z
x,-y,1/2-z
1/2-x,y,-z
-x,-y,-z
x,1/2+y,-z
-x,y,1/2+z
1/2+x,-y,z
1/2+x,1/2+y,1/2+z
1/2-x,-y,1/2+z
1/2+x,1/2-y,-z
-x,1/2+y,1/2-z
1/2-x,1/2-y,1/2-z
1/2+x,y,1/2-z
1/2-x,1/2+y,z
x,1/2-y,1/2+z
loop_
_atom_site_type_symbol
_atom_site_label
_atom_site_fract_x
_atom_site_fract_y
_atom_site_fract_z
Si Si1 0.228362 0.489073 0.157608
Si Si2 0.398462 0.983936 0.841532
Si Si3 0.354558 0.011239 0.341960
Si Si4 0.956776 0.775438 0.546583
O O1 0.227698 0.500000 0.250000
O O2 0.254322 0.257599 0.125769
O O3 0.186820 0.445457 0.125443
O O4 0.368765 0.769767 0.870377
O O5 0.437500 0.888917 0.876487
O O6 0.404210 0.000000 0.750000
O O7 0.382429 0.261319 0.871813
O O8 0.353584 0.000000 0.250000
O O9 0.945339 0.482132 0.521111
O O10 0.000000 0.750000 0.564875
#
# Coordination Sequence:
#
# PCOD8295700 Si02
#       4
#    16  16  16  16
#     4   9  15  23  37  60  94 135 169 198 244 303
#     4  10  19  33  52  76 105 136 169 210 259 307
#     4   9  17  28  44  69 103 136 167 209 257 300
#     4  10  21  38  57  77 104 136 170 212 258 304
#
# _framework density 20.124502
#
# number of rings (size 3 to 8) (size 9 to 14) (size 15 to 20)
#    0.000    2.500    0.000    3.000    0.000    6.000 
#    0.000    7.500    0.000    0.000    0.000    0.000 
#    0.000   70.000    0.000    0.000    0.000    0.000 
#
# Total GULP energy -396534.832498 kJ/mol
# GULP energy per Si atom -12391.713516 kJ/mol
# Density = 2.007870 g / cm^3
# Si number density = 20.124502 Si / 1000 Ang^3
#
#
#
# Elastic Constant Matrix: (Units=GPa)
#
#
# Indices 1 2 3 4 5 6 
#
# 1 123.8122 60.0379 38.4693 0.0000 0.0000 0.0000
# 2 60.0379 149.4768 21.7774 0.0000 0.0000 0.0000
# 3 38.4693 21.7774 26.6894 0.0000 0.0000 0.0000
# 4 0.0000 0.0000 0.0000 21.2808 0.0000 0.0000
# 5 0.0000 0.0000 0.0000 0.0000 7.7084 0.0000
# 6 0.0000 0.0000 0.0000 0.0000 0.0000 41.0314
#
#
#
# Elastic Compliance Matrix: (Units=1/GPa)
#
#
# Indices 1 2 3 4 5 6 
#
# 1 0.016095 -0.003501 -0.020342 0.000000 0.000000 0.000000
# 2 -0.003501 0.008354 -0.001770 0.000000 0.000000 0.000000
# 3 -0.020342 -0.001770 0.068233 0.000000 0.000000 0.000000
# 4 0.000000 0.000000 0.000000 0.046991 0.000000 0.000000
# 5 0.000000 0.000000 0.000000 0.000000 0.129729 0.000000
# 6 0.000000 0.000000 0.000000 0.000000 0.000000 0.024372
#
#
# Mechanical properties :
#
#
# Convention : Reuss Voigt Hill
#
# Bulk Modulus (GPa) = 24.12246 60.06086 42.09166
# Shear Modulus (GPa) = 13.93463 25.98369 19.95916
#
# Velocity S-wave (km/s) = 2.63424 3.59715 3.15268
# Velocity P-wave (km/s) = 4.61139 6.86747 5.84923
#
# Compressibility (1/GPa) = 0.04145514
#
# Stress axis : x y z
#
# Youngs Moduli (GPa) = 62.13206 119.70180 14.65569
#
# Poissons Ratio (x) = 0.41906 0.29812
# Poissons Ratio (y) = 0.21752 0.02595
# Poissons Ratio (z) = 1.26389 0.21193
#
# Static dielectric constant tensor:
#      x y z
#    x 3.747480 0.000000 0.000000 
#    y 0.000000 4.084330 0.000000 
#    z 0.000000 0.000000 3.055460 
# 
# 
# High freq. dielectric constant tensor:
#      x y z
#    x 1.791900 0.000000 0.000000 
#    y 0.000000 1.810240 0.000000 
#    z 0.000000 0.000000 1.717400 
# 
# From -- ./inp_files/1628.got.cif
#   From: 2010.03.12/outbox.cif.g09.slc.cpg/sg73_1_cif.got.tgz:1628.got - 2010.04.16 15:25:48.
