data_PCOD8295702
_publ_section_title
;
Structure prediction by ZEFSAII (Michael W. Deem and Ramdas Pophale) SiO2 
 PCOD8295702
Probable space group: I B C A 
;
_chemical_formula_sum "Si O2"
_cell_formula_units_Z 112
_cell_length_a 10.232784
_cell_length_b 24.562314
_cell_length_c 22.910963
_cell_angle_alpha 90.000000
_cell_angle_beta 90.000000
_cell_angle_gamma 90.000000
_cell_volume 5758.461000
_symmetry_space_group_name_H-M "I B C A "
_symmetry_group_IT_number 73
_symmetry_cell_setting 'orthorhombic'
loop_
_space_group_symop_operation_xyz
x,y,z
-x,1/2-y,z
x,-y,1/2-z
1/2-x,y,-z
-x,-y,-z
x,1/2+y,-z
-x,y,1/2+z
1/2+x,-y,z
1/2+x,1/2+y,1/2+z
1/2-x,-y,1/2+z
1/2+x,1/2-y,-z
-x,1/2+y,1/2-z
1/2-x,1/2-y,1/2-z
1/2+x,y,1/2-z
1/2-x,1/2+y,z
x,1/2-y,1/2+z
loop_
_atom_site_type_symbol
_atom_site_label
_atom_site_fract_x
_atom_site_fract_y
_atom_site_fract_z
Si Si1 0.840051 0.446346 0.160488
Si Si2 0.766455 0.128726 0.565254
Si Si3 0.297873 0.713408 0.343033
Si Si4 0.621886 0.524578 0.186917
Si Si5 0.149968 0.751412 0.448919
Si Si6 0.209687 0.374329 0.244682
Si Si7 0.073516 0.829156 0.652479
O O1 0.856488 0.412486 0.101180
O O2 0.721926 0.489015 0.148459
O O3 0.820019 0.405292 0.215931
O O4 0.972993 0.480741 0.166254
O O5 0.750000 0.105962 0.500000
O O6 0.836446 0.186091 0.566533
O O7 0.627833 0.136349 0.597957
O O8 0.183647 0.713784 0.392407
O O9 0.253873 0.683445 0.283347
O O10 0.341830 0.775354 0.332600
O O11 0.425106 0.681242 0.365616
O O12 0.637241 0.500000 0.250000
O O13 0.665203 0.587903 0.190506
O O14 0.250000 0.733958 0.500000
O O15 0.000000 0.750000 0.469787
O O16 0.086563 0.364252 0.288037
#
# Coordination Sequence:
#
# PCOD8295702 Si02
#       7
#    16  16  16  16  16  16  16
#     4  10  21  37  58  80 111 146 190 239 295 342
#     4   9  20  37  60  80 110 150 193 233 296 345
#     4  10  20  34  54  84 120 152 195 236 283 342
#     4  10  20  34  55  80 107 143 187 234 288 349
#     4  10  23  38  62  85 117 157 199 239 279 341
#     4  10  19  33  55  84 115 149 190 234 287 347
#     4   9  19  34  53  82 118 159 186 230 292 347
#
# _framework density 19.449641
#
# number of rings (size 3 to 8) (size 9 to 14) (size 15 to 20)
#    0.000    2.286    0.000    2.571    8.000    2.286 
#    5.143    0.714    0.000    0.857    0.000    0.000 
#    0.000    0.000    0.000    0.000    0.000    0.000 
#
# Total GULP energy -693933.040245 kJ/mol
# GULP energy per Si atom -12391.661433 kJ/mol
# Density = 1.940537 g / cm^3
# Si number density = 19.449641 Si / 1000 Ang^3
#
#
#
# Elastic Constant Matrix: (Units=GPa)
#
#
# Indices 1 2 3 4 5 6 
#
# 1 100.3941 6.0935 33.8169 0.0000 0.0000 0.0000
# 2 6.0935 47.5941 27.7497 0.0000 0.0000 0.0000
# 3 33.8169 27.7497 92.4837 0.0000 0.0000 0.0000
# 4 0.0000 0.0000 0.0000 11.1226 0.0000 0.0000
# 5 0.0000 0.0000 0.0000 0.0000 21.1397 0.0000
# 6 0.0000 0.0000 0.0000 0.0000 0.0000 24.9306
#
#
#
# Elastic Compliance Matrix: (Units=1/GPa)
#
#
# Indices 1 2 3 4 5 6 
#
# 1 0.011414 0.001178 -0.004527 0.000000 0.000000 0.000000
# 2 0.001178 0.025588 -0.008108 0.000000 0.000000 0.000000
# 3 -0.004527 -0.008108 0.014901 0.000000 0.000000 0.000000
# 4 0.000000 0.000000 0.000000 0.089907 0.000000 0.000000
# 5 0.000000 0.000000 0.000000 0.000000 0.047304 0.000000
# 6 0.000000 0.000000 0.000000 0.000000 0.000000 0.040111
#
#
# Mechanical properties :
#
#
# Convention : Reuss Voigt Hill
#
# Bulk Modulus (GPa) = 34.49678 41.75468 38.12573
# Shear Modulus (GPa) = 19.09830 22.95936 21.02883
#
# Velocity S-wave (km/s) = 3.13698 3.43950 3.29172
# Velocity P-wave (km/s) = 5.55840 6.10641 5.83884
#
# Compressibility (1/GPa) = 0.02898821
#
# Stress axis : x y z
#
# Youngs Moduli (GPa) = 87.61051 39.08118 67.10958
#
# Poissons Ratio (x) = -0.04604 0.30381
# Poissons Ratio (y) = -0.10322 0.54415
# Poissons Ratio (z) = 0.39662 0.31689
#
# Static dielectric constant tensor:
#      x y z
#    x 3.603960 0.000000 0.000000 
#    y 0.000000 3.806630 0.000000 
#    z 0.000000 0.000000 3.464270 
# 
# 
# High freq. dielectric constant tensor:
#      x y z
#    x 1.749010 0.000000 0.000000 
#    y 0.000000 1.753990 0.000000 
#    z 0.000000 0.000000 1.734380 
# 
# From -- ./inp_files/25558.got.cif
#   From: 2010.03.12/outbox.cif.g09.slc.cpg/sg73_13_cif.got.tgz:25558.got - 2010.04.16 15:25:48.
