data_PCOD8295935
_publ_section_title
;
Structure prediction by ZEFSAII (Michael W. Deem and Ramdas Pophale) SiO2 
 PCOD8295935
Probable space group: I B C A 
;
_chemical_formula_sum "Si O2"
_cell_formula_units_Z 96
_cell_length_a 17.375199
_cell_length_b 18.314498
_cell_length_c 14.621299
_cell_angle_alpha 90.000000
_cell_angle_beta 90.000000
_cell_angle_gamma 90.000000
_cell_volume 4652.761217
_symmetry_space_group_name_H-M "I B C A "
_symmetry_group_IT_number 73
_symmetry_cell_setting 'orthorhombic'
loop_
_space_group_symop_operation_xyz
x,y,z
-x,1/2-y,z
x,-y,1/2-z
1/2-x,y,-z
-x,-y,-z
x,1/2+y,-z
-x,y,1/2+z
1/2+x,-y,z
1/2+x,1/2+y,1/2+z
1/2-x,-y,1/2+z
1/2+x,1/2-y,-z
-x,1/2+y,1/2-z
1/2-x,1/2-y,1/2-z
1/2+x,y,1/2-z
1/2-x,1/2+y,z
x,1/2-y,1/2+z
loop_
_atom_site_type_symbol
_atom_site_label
_atom_site_fract_x
_atom_site_fract_y
_atom_site_fract_z
Si Si1 0.532295 0.918870 0.409357
Si Si2 0.456933 0.419506 0.399760
Si Si3 0.414739 0.228062 0.627840
Si Si4 0.667670 0.307661 0.968581
Si Si5 0.420788 0.084537 0.248129
Si Si6 0.170890 0.720026 0.290588
O O1 0.514886 0.917862 0.515957
O O2 0.597214 0.858176 0.390294
O O3 0.453263 0.899465 0.353738
O O4 0.568295 0.996755 0.380289
O O5 0.382100 0.370812 0.419802
O O6 0.507571 0.393408 0.313779
O O7 0.500000 0.250000 0.601014
O O8 0.362160 0.276639 0.563480
O O9 0.397508 0.241048 0.734539
O O10 0.669988 0.240140 0.897358
O O11 0.750000 0.339967 0.000000
O O12 0.345594 0.133145 0.274617
O O13 0.395353 0.000000 0.250000
O O14 0.250000 0.750000 0.250000
#
# Coordination Sequence:
#
# PCOD8295935 Si02
#       6
#    16  16  16  16  16  16
#     4  10  20  37  64  93 119 152 213 265 308 364
#     4  10  21  38  63  94 121 161 214 260 315 374
#     4  12  22  40  67  92 122 162 217 263 311 375
#     4  12  25  41  61  93 135 170 209 264 323 386
#     4  10  21  39  65  97 123 160 212 270 315 372
#     4  12  25  41  62  93 130 170 209 259 326 383
#
# _framework density 20.632909000000001
#
# number of rings (size 3 to 8) (size 9 to 14) (size 15 to 20)
#    0.000    1.000    5.000    2.000    0.000    0.000 
#    0.000    2.500    0.000    0.000    0.000    0.000 
#    0.000    0.000    0.000    0.000    0.000    0.000 
#
# Total GULP energy -594945.632177 kJ/mol
# GULP energy per Si atom -12394.700670 kJ/mol
# Density = 2.058595 g / cm^3
# Si number density = 20.632909 Si / 1000 Ang^3
#
#
#
# Elastic Constant Matrix: (Units=GPa)
#
#
# Indices 1 2 3 4 5 6 
#
# 1 95.0288 54.5181 12.9834 0.0000 0.0000 0.0000
# 2 54.5181 137.2421 19.5382 0.0000 0.0000 0.0000
# 3 12.9834 19.5382 80.0502 0.0000 0.0000 0.0000
# 4 0.0000 0.0000 0.0000 28.3580 0.0000 0.0000
# 5 0.0000 0.0000 0.0000 0.0000 34.9957 0.0000
# 6 0.0000 0.0000 0.0000 0.0000 0.0000 25.3758
#
#
#
# Elastic Compliance Matrix: (Units=1/GPa)
#
#
# Indices 1 2 3 4 5 6 
#
# 1 0.013695 -0.005308 -0.000926 0.000000 0.000000 0.000000
# 2 -0.005308 0.009606 -0.001484 0.000000 0.000000 0.000000
# 3 -0.000926 -0.001484 0.013004 0.000000 0.000000 0.000000
# 4 0.000000 0.000000 0.000000 0.035263 0.000000 0.000000
# 5 0.000000 0.000000 0.000000 0.000000 0.028575 0.000000
# 6 0.000000 0.000000 0.000000 0.000000 0.000000 0.039408
#
#
# Mechanical properties :
#
#
# Convention : Reuss Voigt Hill
#
# Bulk Modulus (GPa) = 47.91468 54.04448 50.97958
# Shear Modulus (GPa) = 30.87486 32.76465 31.81976
#
# Velocity S-wave (km/s) = 3.87252 3.98927 3.93133
# Velocity P-wave (km/s) = 6.57784 6.88979 6.73562
#
# Compressibility (1/GPa) = 0.02087043
#
# Stress axis : x y z
#
# Youngs Moduli (GPa) = 73.01914 104.09781 76.89701
#
# Poissons Ratio (x) = 0.55260 0.07117
# Poissons Ratio (y) = 0.38762 0.11409
# Poissons Ratio (z) = 0.06758 0.15445
#
# Static dielectric constant tensor:
#      x y z
#    x 3.675320 0.000000 0.000000 
#    y 0.000000 4.177770 0.000000 
#    z 0.000000 0.000000 4.001690 
# 
# 
# High freq. dielectric constant tensor:
#      x y z
#    x 1.769480 0.000000 0.000000 
#    y 0.000000 1.817330 0.000000 
#    z 0.000000 0.000000 1.828990 
# 
# From -- ./inp_files/17071.got.cif
#   From: 2010.03.12/outbox.cif.g09.slc.cpg/sg73_9_cif.got.tgz:17071.got - 2010.04.16 15:25:48.
