data_PCOD8295693
_publ_section_title
;
Structure prediction by ZEFSAII (Michael W. Deem and Ramdas Pophale) SiO2 
 PCOD8295693
Probable space group: I B C A 
;
_chemical_formula_sum "Si O2"
_cell_formula_units_Z 64
_cell_length_a 12.474914
_cell_length_b 5.228003
_cell_length_c 35.521024
_cell_angle_alpha 90.000000
_cell_angle_beta 90.000000
_cell_angle_gamma 90.000000
_cell_volume 2316.641679
_symmetry_space_group_name_H-M "I B C A "
_symmetry_group_IT_number 73
_symmetry_cell_setting 'orthorhombic'
loop_
_space_group_symop_operation_xyz
x,y,z
-x,1/2-y,z
x,-y,1/2-z
1/2-x,y,-z
-x,-y,-z
x,1/2+y,-z
-x,y,1/2+z
1/2+x,-y,z
1/2+x,1/2+y,1/2+z
1/2-x,-y,1/2+z
1/2+x,1/2-y,-z
-x,1/2+y,1/2-z
1/2-x,1/2-y,1/2-z
1/2+x,y,1/2-z
1/2-x,1/2+y,z
x,1/2-y,1/2+z
loop_
_atom_site_type_symbol
_atom_site_label
_atom_site_fract_x
_atom_site_fract_y
_atom_site_fract_z
Si Si1 0.930637 0.504297 0.903227
Si Si2 0.372897 0.596727 0.207670
Si Si3 0.363845 0.100777 0.176384
Si Si4 0.122427 0.685743 0.481895
O O1 0.852570 0.460472 0.867759
O O2 0.860388 0.578437 0.939738
O O3 0.000000 0.250000 0.912022
O O4 0.000000 0.750000 0.892388
O O5 0.375697 0.500000 0.250000
O O6 0.425055 0.375320 0.181136
O O7 0.251921 0.666853 0.194137
O O8 0.426447 0.878405 0.200812
O O9 0.172686 0.470638 0.510609
O O10 0.000000 0.750000 0.491381
#
# Coordination Sequence:
#
# PCOD8295693 Si02
#       4
#    16  16  16  16
#     4  11  21  32  48  74 108 135 154 191 248 304
#     4  10  19  35  59  75  88 120 172 222 240 263
#     4  10  19  32  52  77  98 123 160 207 251 283
#     4   9  16  28  46  67  93 128 168 199 224 268
#
# _framework density 27.626197999999999
#
# number of rings (size 3 to 8) (size 9 to 14) (size 15 to 20)
#    0.000    2.000    0.000    9.000    0.000    0.000 
#    0.000    0.000    0.000   25.500    0.000   21.000 
#    0.000    0.000    0.000    0.000    0.000    0.000 
#
# Total GULP energy -396518.607254 kJ/mol
# GULP energy per Si atom -12391.206477 kJ/mol
# Density = 2.756332 g / cm^3
# Si number density = 27.626198 Si / 1000 Ang^3
#
#
#
# Elastic Constant Matrix: (Units=GPa)
#
#
# Indices 1 2 3 4 5 6 
#
# 1 45.3425 6.8787 5.5047 0.0000 0.0000 0.0000
# 2 6.8787 269.4808 84.3000 0.0000 0.0000 0.0000
# 3 5.5047 84.3000 218.7563 0.0000 0.0000 0.0000
# 4 0.0000 0.0000 0.0000 57.6096 0.0000 0.0000
# 5 0.0000 0.0000 0.0000 0.0000 28.2152 0.0000
# 6 0.0000 0.0000 0.0000 0.0000 0.0000 -96.1589
#
#
#
# Elastic Compliance Matrix: (Units=1/GPa)
#
#
# Indices 1 2 3 4 5 6 
#
# 1 0.022169 -0.000445 -0.000386 0.000000 0.000000 0.000000
# 2 -0.000445 0.004228 -0.001618 0.000000 0.000000 0.000000
# 3 -0.000386 -0.001618 0.005205 0.000000 0.000000 0.000000
# 4 0.000000 0.000000 0.000000 0.017358 0.000000 0.000000
# 5 0.000000 0.000000 0.000000 0.000000 0.035442 0.000000
# 6 0.000000 0.000000 0.000000 0.000000 0.000000 -0.010399
#
#
# Mechanical properties :
#
#
# Convention : Reuss Voigt Hill
#
# Bulk Modulus (GPa) = 37.44955 80.77181 59.11068
# Shear Modulus (GPa) = 56.94584 27.05957 42.00271
#
# Velocity S-wave (km/s) = 4.54508 3.13308 3.90345
# Velocity P-wave (km/s) = 6.41318 6.51069 6.46212
#
# Compressibility (1/GPa) = 0.02670259
#
# Stress axis : x y z
#
# Youngs Moduli (GPa) = 45.10845 236.49418 192.13638
#
# Poissons Ratio (x) = 0.10524 0.07423
# Poissons Ratio (y) = 0.02007 0.31093
# Poissons Ratio (z) = 0.01743 0.38271
#
# Static dielectric constant tensor:
#      x y z
#    x 5.232950 0.000000 0.000000 
#    y 0.000000 6.460550 0.000000 
#    z 0.000000 0.000000 4.698340 
# 
# 
# High freq. dielectric constant tensor:
#      x y z
#    x 2.129560 0.000000 0.000000 
#    y 0.000000 2.173740 0.000000 
#    z 0.000000 0.000000 2.095150 
# 
# From -- ./inp_files/34449.got.cif
#   From: 2010.03.12/outbox.cif.g09.slc.cpg/sg73_18_cif.got.tgz:34449.got - 2010.04.16 15:25:48.
