data_PCOD8295724
_publ_section_title
;
Structure prediction by ZEFSAII (Michael W. Deem and Ramdas Pophale) SiO2 
 PCOD8295724
Probable space group: I B C A 
;
_chemical_formula_sum "Si O2"
_cell_formula_units_Z 88
_cell_length_a 30.554808
_cell_length_b 5.254369
_cell_length_c 24.355782
_cell_angle_alpha 90.000000
_cell_angle_beta 90.000000
_cell_angle_gamma 90.000000
_cell_volume 3910.229124
_symmetry_space_group_name_H-M "I B C A "
_symmetry_group_IT_number 73
_symmetry_cell_setting 'orthorhombic'
loop_
_space_group_symop_operation_xyz
x,y,z
-x,1/2-y,z
x,-y,1/2-z
1/2-x,y,-z
-x,-y,-z
x,1/2+y,-z
-x,y,1/2+z
1/2+x,-y,z
1/2+x,1/2+y,1/2+z
1/2-x,-y,1/2+z
1/2+x,1/2-y,-z
-x,1/2+y,1/2-z
1/2-x,1/2-y,1/2-z
1/2+x,y,1/2-z
1/2-x,1/2+y,z
x,1/2-y,1/2+z
loop_
_atom_site_type_symbol
_atom_site_label
_atom_site_fract_x
_atom_site_fract_y
_atom_site_fract_z
Si Si1 0.861221 0.498435 0.311964
Si Si2 0.471580 0.000000 0.250000
Si Si3 0.417199 0.991390 0.475894
Si Si4 0.318614 0.987386 0.522549
Si Si5 0.405511 0.496480 0.651211
Si Si6 0.221833 0.914352 0.364608
O O1 0.878758 0.500000 0.250000
O O2 0.885607 0.723016 0.344142
O O3 0.808782 0.551149 0.311228
O O4 0.869578 0.222937 0.338781
O O5 0.500000 0.250000 0.260030
O O6 0.443824 0.954149 0.305021
O O7 0.441015 0.249132 0.496292
O O8 0.367757 0.017093 0.499598
O O9 0.421926 0.965603 0.410755
O O10 0.294280 0.252485 0.507912
O O11 0.314382 0.943157 0.587247
O O12 0.258402 0.132105 0.366439
#
# Coordination Sequence:
#
# PCOD8295724 Si02
#       6
#    16   8  16  16  16  16
#     4  12  23  42  67  93 129 182 245 291 336 412
#     4  12  26  46  76 114 146 174 212 272 354 408
#     4  10  20  36  64  97 130 173 224 277 329 392
#     4  10  19  35  53  80 112 160 216 277 337 392
#     4  12  23  45  72 105 139 176 230 282 339 413
#     4  12  26  39  56  87 130 180 230 296 357 391
#
# _framework density 22.505075999999999
#
# number of rings (size 3 to 8) (size 9 to 14) (size 15 to 20)
#    0.000    0.727    1.818    8.727    0.000    2.909 
#    0.000    0.000    0.000    3.273    0.000    0.000 
#    0.000    0.000    0.000    0.000    0.000    0.000 
#
# Total GULP energy -545438.883229 kJ/mol
# GULP energy per Si atom -12396.338255 kJ/mol
# Density = 2.245385 g / cm^3
# Si number density = 22.505076 Si / 1000 Ang^3
#
#
#
# Elastic Constant Matrix: (Units=GPa)
#
#
# Indices 1 2 3 4 5 6 
#
# 1 45.7895 -2.8518 9.2374 0.0000 0.0000 0.0000
# 2 -2.8518 155.0195 21.0366 0.0000 0.0000 0.0000
# 3 9.2374 21.0366 117.1243 0.0000 0.0000 0.0000
# 4 0.0000 0.0000 0.0000 35.6976 0.0000 0.0000
# 5 0.0000 0.0000 0.0000 0.0000 33.9810 0.0000
# 6 0.0000 0.0000 0.0000 0.0000 0.0000 19.3834
#
#
#
# Elastic Compliance Matrix: (Units=1/GPa)
#
#
# Indices 1 2 3 4 5 6 
#
# 1 0.022259 0.000664 -0.001875 0.000000 0.000000 0.000000
# 2 0.000664 0.006632 -0.001243 0.000000 0.000000 0.000000
# 3 -0.001875 -0.001243 0.008909 0.000000 0.000000 0.000000
# 4 0.000000 0.000000 0.000000 0.028013 0.000000 0.000000
# 5 0.000000 0.000000 0.000000 0.000000 0.029428 0.000000
# 6 0.000000 0.000000 0.000000 0.000000 0.000000 0.051591
#
#
# Mechanical properties :
#
#
# Convention : Reuss Voigt Hill
#
# Bulk Modulus (GPa) = 30.40361 41.41975 35.91168
# Shear Modulus (GPa) = 30.73072 37.17982 33.95527
#
# Velocity S-wave (km/s) = 3.69928 4.06897 3.88852
# Velocity P-wave (km/s) = 5.63784 6.36553 6.01270
#
# Compressibility (1/GPa) = 0.03289083
#
# Stress axis : x y z
#
# Youngs Moduli (GPa) = 44.92643 150.78958 112.24436
#
# Poissons Ratio (x) = -0.10011 0.21043
# Poissons Ratio (y) = -0.02983 0.13957
# Poissons Ratio (z) = 0.08423 0.18750
#
# Static dielectric constant tensor:
#      x y z
#    x 3.611460 0.000000 0.000000 
#    y 0.000000 5.344140 0.000000 
#    z 0.000000 0.000000 4.121740 
# 
# 
# High freq. dielectric constant tensor:
#      x y z
#    x 1.844070 0.000000 0.000000 
#    y 0.000000 1.926100 0.000000 
#    z 0.000000 0.000000 1.892060 
# 
# From -- ./inp_files/3099.got.cif
#   From: 2010.03.12/outbox.cif.g09.slc.cpg/sg73_2_cif.got.tgz:3099.got - 2010.04.16 15:25:48.
