data_PCOD8295110
_publ_section_title
;
Structure prediction by ZEFSAII (Michael W. Deem and Ramdas Pophale) SiO2 
 PCOD8295110
Probable space group: I B A M
;
_chemical_formula_sum "Si O2"
_cell_formula_units_Z 88
_cell_length_a 12.664626
_cell_length_b 13.889332
_cell_length_c 23.308210
_cell_angle_alpha 90.000000
_cell_angle_beta 90.000000
_cell_angle_gamma 90.000000
_cell_volume 4099.988613
_symmetry_space_group_name_H-M "I B A M"
_symmetry_group_IT_number 72
_symmetry_cell_setting 'orthorhombic'
loop_
_space_group_symop_operation_xyz
x,y,z
-x,-y,z
x,-y,1/2-z
-x,y,1/2-z
-x,-y,-z
x,y,-z
-x,y,1/2+z
x,-y,1/2+z
1/2+x,1/2+y,1/2+z
1/2-x,1/2-y,1/2+z
1/2+x,1/2-y,-z
1/2-x,1/2+y,-z
1/2-x,1/2-y,1/2-z
1/2+x,1/2+y,1/2-z
1/2-x,1/2+y,z
1/2+x,1/2-y,z
loop_
_atom_site_type_symbol
_atom_site_label
_atom_site_fract_x
_atom_site_fract_y
_atom_site_fract_z
Si Si1 0.721186 0.473381 0.500000
Si Si2 0.074611 0.281783 0.407067
Si Si3 0.810416 0.101074 0.774797
Si Si4 0.585800 0.826952 0.500000
Si Si5 0.590693 0.572302 0.889658
Si Si6 0.261193 0.811433 0.500000
Si Si7 0.607144 0.190241 0.722612
O O1 0.816684 0.398975 0.500000
O O2 0.645305 0.466185 0.553863
O O3 0.776626 0.575398 0.500000
O O4 0.031237 0.173746 0.398851
O O5 0.182513 0.270843 0.443032
O O6 0.101823 0.329271 0.345821
O O7 0.986545 0.341008 0.443186
O O8 0.815568 0.086650 0.843248
O O9 0.694103 0.120738 0.750692
O O10 0.877817 0.197185 0.759808
O O11 0.855726 0.000000 0.750000
O O12 0.638830 0.720783 0.500000
O O13 0.500000 0.500000 0.868062
O O14 0.500000 0.153428 0.750000
#
# Coordination Sequence:
#
# PCOD8295110 Si02
#       7
#     8  16  16   8  16   8  16
#     4  12  24  38  68  97 129 176 222 275 335 406
#     4  10  23  41  64  96 131 175 214 274 339 395
#     4  10  25  42  66 101 132 173 223 274 334 399
#     4  11  22  41  68  91 136 173 223 270 340 399
#     4  11  23  42  67 100 130 168 229 279 330 395
#     4  11  23  42  62  92 136 170 215 283 333 399
#     4  10  24  43  67  94 137 175 224 273 336 412
#
# _framework density 21.463474999999999
#
# number of rings (size 3 to 8) (size 9 to 14) (size 15 to 20)
#    0.000    1.455    1.818    1.909   10.182    3.273 
#    0.000    1.818    0.000    0.000    0.000    0.000 
#    0.000    0.000    0.000    0.000    0.000    0.000 
#
# Total GULP energy -545441.566775 kJ/mol
# GULP energy per Si atom -12396.399245 kJ/mol
# Density = 2.141462 g / cm^3
# Si number density = 21.463475 Si / 1000 Ang^3
#
#
#
# Elastic Constant Matrix: (Units=GPa)
#
#
# Indices 1 2 3 4 5 6 
#
# 1 114.8329 12.2264 65.5650 0.0000 0.0000 0.0000
# 2 12.2264 80.4224 28.3339 0.0000 0.0000 0.0000
# 3 65.5650 28.3339 161.7589 0.0000 0.0000 0.0000
# 4 0.0000 0.0000 0.0000 23.8892 0.0000 0.0000
# 5 0.0000 0.0000 0.0000 0.0000 28.9457 0.0000
# 6 0.0000 0.0000 0.0000 0.0000 0.0000 25.4228
#
#
#
# Elastic Compliance Matrix: (Units=1/GPa)
#
#
# Indices 1 2 3 4 5 6 
#
# 1 0.011331 -0.000111 -0.004573 0.000000 0.000000 0.000000
# 2 -0.000111 0.013253 -0.002276 0.000000 0.000000 0.000000
# 3 -0.004573 -0.002276 0.008434 0.000000 0.000000 0.000000
# 4 0.000000 0.000000 0.000000 0.041860 0.000000 0.000000
# 5 0.000000 0.000000 0.000000 0.000000 0.034547 0.000000
# 6 0.000000 0.000000 0.000000 0.000000 0.000000 0.039335
#
#
# Mechanical properties :
#
#
# Convention : Reuss Voigt Hill
#
# Bulk Modulus (GPa) = 52.36448 63.25164 57.80806
# Shear Modulus (GPa) = 29.57721 32.37747 30.97734
#
# Velocity S-wave (km/s) = 3.71620 3.88814 3.80315
# Velocity P-wave (km/s) = 6.54703 7.04913 6.80271
#
# Compressibility (1/GPa) = 0.01909691
#
# Stress axis : x y z
#
# Youngs Moduli (GPa) = 88.25044 75.45315 118.56112
#
# Poissons Ratio (x) = 0.00841 0.54223
# Poissons Ratio (y) = 0.00983 0.26988
# Poissons Ratio (z) = 0.40360 0.17175
#
# Static dielectric constant tensor:
#      x y z
#    x 3.730930 0.000000 0.000000 
#    y 0.000000 3.911400 0.000000 
#    z 0.000000 0.000000 3.938310 
# 
# 
# High freq. dielectric constant tensor:
#      x y z
#    x 1.835270 0.000000 0.000000 
#    y 0.000000 1.841330 0.000000 
#    z 0.000000 0.000000 1.851210 
# 
# From -- ./inp_files/43251.got.cif
#   From: 2010.03.12/outbox.cif.g09.slc.cpg/sg72_22_cif.got.tgz:43251.got - 2010.04.16 14:54:00.
