data_PCOD8295726
_publ_section_title
;
Structure prediction by ZEFSAII (Michael W. Deem and Ramdas Pophale) SiO2 
 PCOD8295726
Probable space group: I B C A 
;
_chemical_formula_sum "Si O2"
_cell_formula_units_Z 112
_cell_length_a 22.717589
_cell_length_b 22.767198
_cell_length_c 11.286057
_cell_angle_alpha 90.000000
_cell_angle_beta 90.000000
_cell_angle_gamma 90.000000
_cell_volume 5837.327529
_symmetry_space_group_name_H-M "I B C A "
_symmetry_group_IT_number 73
_symmetry_cell_setting 'orthorhombic'
loop_
_space_group_symop_operation_xyz
x,y,z
-x,1/2-y,z
x,-y,1/2-z
1/2-x,y,-z
-x,-y,-z
x,1/2+y,-z
-x,y,1/2+z
1/2+x,-y,z
1/2+x,1/2+y,1/2+z
1/2-x,-y,1/2+z
1/2+x,1/2-y,-z
-x,1/2+y,1/2-z
1/2-x,1/2-y,1/2-z
1/2+x,y,1/2-z
1/2-x,1/2+y,z
x,1/2-y,1/2+z
loop_
_atom_site_type_symbol
_atom_site_label
_atom_site_fract_x
_atom_site_fract_y
_atom_site_fract_z
Si Si1 0.721037 0.676826 0.626788
Si Si2 0.919318 0.844733 0.434057
Si Si3 0.493701 0.068435 0.018376
Si Si4 0.001176 0.155166 0.786853
Si Si5 0.176627 0.798584 0.782946
Si Si6 0.402704 0.144337 0.877641
Si Si7 0.916758 0.233433 0.418917
O O1 0.750000 0.667174 0.500000
O O2 0.770241 0.664017 0.726499
O O3 0.700260 0.744101 0.641406
O O4 0.666633 0.630760 0.645188
O O5 0.965682 0.828383 0.333107
O O6 0.854983 0.843601 0.374466
O O7 0.924156 0.801710 0.547304
O O8 0.941578 0.907502 0.481254
O O9 0.483362 0.091071 0.154323
O O10 0.439094 0.091013 0.937814
O O11 0.500000 0.000000 0.000000
O O12 0.020665 0.205252 0.879573
O O13 0.932457 0.160175 0.749247
O O14 0.133246 0.775664 0.679799
O O15 0.398590 0.201714 0.959862
#
# Coordination Sequence:
#
# PCOD8295726 Si02
#       7
#    16  16  16  16  16  16  16
#     4  11  20  35  55  83 117 157 196 227 280 352
#     4  10  20  34  54  85 118 147 188 237 286 357
#     4  10  23  40  59  83 108 152 197 249 298 345
#     4   9  22  35  55  83 116 152 181 239 295 354
#     4  10  20  34  54  82 120 158 187 231 281 352
#     4  10  20  36  55  86 115 146 193 235 288 361
#     4  10  19  35  53  84 122 150 186 221 297 361
#
# _framework density 19.186862000000001
#
# number of rings (size 3 to 8) (size 9 to 14) (size 15 to 20)
#    0.000    2.000    2.857    0.000    2.000    8.571 
#    0.000    0.000    0.000    0.000    7.429    0.000 
#    0.000    0.000    0.000    0.000    0.000    0.000 
#
# Total GULP energy -693737.949013 kJ/mol
# GULP energy per Si atom -12388.177661 kJ/mol
# Density = 1.914319 g / cm^3
# Si number density = 19.186862 Si / 1000 Ang^3
#
#
#
# Elastic Constant Matrix: (Units=GPa)
#
#
# Indices 1 2 3 4 5 6 
#
# 1 149.5347 37.6493 48.2377 0.0000 0.0000 0.0000
# 2 37.6493 86.1298 14.4190 0.0000 0.0000 0.0000
# 3 48.2377 14.4190 85.1759 0.0000 0.0000 0.0000
# 4 0.0000 0.0000 0.0000 12.5354 0.0000 0.0000
# 5 0.0000 0.0000 0.0000 0.0000 45.5115 0.0000
# 6 0.0000 0.0000 0.0000 0.0000 0.0000 17.2983
#
#
#
# Elastic Compliance Matrix: (Units=1/GPa)
#
#
# Indices 1 2 3 4 5 6 
#
# 1 0.008942 -0.003150 -0.004531 0.000000 0.000000 0.000000
# 2 -0.003150 0.013059 -0.000427 0.000000 0.000000 0.000000
# 3 -0.004531 -0.000427 0.014379 0.000000 0.000000 0.000000
# 4 0.000000 0.000000 0.000000 0.079774 0.000000 0.000000
# 5 0.000000 0.000000 0.000000 0.000000 0.021972 0.000000
# 6 0.000000 0.000000 0.000000 0.000000 0.000000 0.057809
#
#
# Mechanical properties :
#
#
# Convention : Reuss Voigt Hill
#
# Bulk Modulus (GPa) = 49.59312 57.93914 53.76613
# Shear Modulus (GPa) = 22.84440 29.77135 26.30787
#
# Velocity S-wave (km/s) = 3.45429 3.94338 3.70691
# Velocity P-wave (km/s) = 6.46630 7.14118 6.81210
#
# Compressibility (1/GPa) = 0.02016409
#
# Stress axis : x y z
#
# Youngs Moduli (GPa) = 111.82930 76.57633 69.54770
#
# Poissons Ratio (x) = 0.24124 0.31512
# Poissons Ratio (y) = 0.35230 0.02967
# Poissons Ratio (z) = 0.50669 0.03266
#
# Static dielectric constant tensor:
#      x y z
#    x 4.161900 0.000000 0.000000 
#    y 0.000000 2.945200 0.000000 
#    z 0.000000 0.000000 3.971170 
# 
# 
# High freq. dielectric constant tensor:
#      x y z
#    x 1.756300 0.000000 0.000000 
#    y 0.000000 1.676630 0.000000 
#    z 0.000000 0.000000 1.773870 
# 
# From -- ./inp_files/13891.got.cif
#   From: 2010.03.12/outbox.cif.g09.slc.cpg/sg73_7_cif.got.tgz:13891.got - 2010.04.16 15:25:48.
