data_PCOD8295002
_publ_section_title
;
Structure prediction by ZEFSAII (Michael W. Deem and Ramdas Pophale) SiO2 
 PCOD8295002
Probable space group: I B A M
;
_chemical_formula_sum "Si O2"
_cell_formula_units_Z 96
_cell_length_a 20.664575
_cell_length_b 13.552205
_cell_length_c 14.640625
_cell_angle_alpha 90.000000
_cell_angle_beta 90.000000
_cell_angle_gamma 90.000000
_cell_volume 4100.115181
_symmetry_space_group_name_H-M "I B A M"
_symmetry_group_IT_number 72
_symmetry_cell_setting 'orthorhombic'
loop_
_space_group_symop_operation_xyz
x,y,z
-x,-y,z
x,-y,1/2-z
-x,y,1/2-z
-x,-y,-z
x,y,-z
-x,y,1/2+z
x,-y,1/2+z
1/2+x,1/2+y,1/2+z
1/2-x,1/2-y,1/2+z
1/2+x,1/2-y,-z
1/2-x,1/2+y,-z
1/2-x,1/2-y,1/2-z
1/2+x,1/2+y,1/2-z
1/2-x,1/2+y,z
1/2+x,1/2-y,z
loop_
_atom_site_type_symbol
_atom_site_label
_atom_site_fract_x
_atom_site_fract_y
_atom_site_fract_z
Si Si1 0.851671 0.742186 0.394260
Si Si2 0.532833 0.378225 0.348459
Si Si3 0.133595 0.394837 0.232660
Si Si4 0.087027 0.768501 0.399744
Si Si5 0.634222 0.527889 0.646361
Si Si6 0.749896 0.900378 0.401361
O O1 0.870576 0.719375 0.500000
O O2 0.902333 0.813492 0.343571
O O3 0.849636 0.643735 0.333898
O O4 0.781485 0.792580 0.388531
O O5 0.500000 0.390051 0.250000
O O6 0.483688 0.317560 0.411405
O O7 0.561635 0.485381 0.383080
O O8 0.097849 0.500000 0.250000
O O9 0.088865 0.321112 0.172878
O O10 0.199974 0.418238 0.179559
O O11 0.106932 0.728764 0.500000
O O12 0.136276 0.854786 0.368856
O O13 0.645883 0.500000 0.750000
O O14 0.693115 0.481486 0.590966
O O15 0.714307 0.904165 0.500000
#
# Coordination Sequence:
#
# PCOD8295002 Si02
#       6
#    16  16  16  16  16  16
#     4  10  22  42  69  97 130 173 219 274 341 408
#     4  11  20  40  68 103 142 171 207 259 332 422
#     4  12  26  45  65  88 128 180 237 291 333 381
#     4  12  25  41  67 102 138 178 224 274 336 406
#     4  11  21  37  66 102 144 179 208 258 337 411
#     4  10  22  41  65  97 135 172 220 273 336 409
#
# _framework density 23.413976000000002
#
# number of rings (size 3 to 8) (size 9 to 14) (size 15 to 20)
#    0.000    1.000    3.333    4.000    0.000    5.333 
#    0.000    3.333    0.000    2.000    0.000    0.000 
#    0.000    0.000    0.000    0.000    0.000    0.000 
#
# Total GULP energy -594876.596133 kJ/mol
# GULP energy per Si atom -12393.262419 kJ/mol
# Density = 2.336068 g / cm^3
# Si number density = 23.413976 Si / 1000 Ang^3
#
#
#
# Elastic Constant Matrix: (Units=GPa)
#
#
# Indices 1 2 3 4 5 6 
#
# 1 61.8986 13.0966 17.2712 0.0000 0.0000 0.0000
# 2 13.0966 152.5455 58.4979 0.0000 0.0000 0.0000
# 3 17.2712 58.4979 141.1755 0.0000 0.0000 0.0000
# 4 0.0000 0.0000 0.0000 18.2337 0.0000 0.0000
# 5 0.0000 0.0000 0.0000 0.0000 13.3963 0.0000
# 6 0.0000 0.0000 0.0000 0.0000 0.0000 14.2418
#
#
#
# Elastic Compliance Matrix: (Units=1/GPa)
#
#
# Indices 1 2 3 4 5 6 
#
# 1 0.016804 -0.000778 -0.001733 0.000000 0.000000 0.000000
# 2 -0.000778 0.007830 -0.003149 0.000000 0.000000 0.000000
# 3 -0.001733 -0.003149 0.008600 0.000000 0.000000 0.000000
# 4 0.000000 0.000000 0.000000 0.054844 0.000000 0.000000
# 5 0.000000 0.000000 0.000000 0.000000 0.074647 0.000000
# 6 0.000000 0.000000 0.000000 0.000000 0.000000 0.070216
#
#
# Mechanical properties :
#
#
# Convention : Reuss Voigt Hill
#
# Bulk Modulus (GPa) = 45.63537 59.26120 52.44828
# Shear Modulus (GPa) = 19.87550 26.95796 23.41673
#
# Velocity S-wave (km/s) = 2.91670 3.39685 3.16589
# Velocity P-wave (km/s) = 5.55660 6.38357 5.98439
#
# Compressibility (1/GPa) = 0.02191283
#
# Stress axis : x y z
#
# Youngs Moduli (GPa) = 59.51065 127.71592 116.27406
#
# Poissons Ratio (x) = 0.09936 0.20155
# Poissons Ratio (y) = 0.04630 0.36617
# Poissons Ratio (z) = 0.10315 0.40221
#
# Static dielectric constant tensor:
#      x y z
#    x 4.152840 0.000000 0.000000 
#    y 0.000000 4.273570 0.000000 
#    z 0.000000 0.000000 4.227980 
# 
# 
# High freq. dielectric constant tensor:
#      x y z
#    x 1.907730 0.000000 0.000000 
#    y 0.000000 1.916540 0.000000 
#    z 0.000000 0.000000 1.937880 
# 
# From -- ./inp_files/24108.got.cif
#   From: 2010.03.12/outbox.cif.g09.slc.cpg/sg72_13_cif.got.tgz:24108.got - 2010.04.16 14:54:00.
