data_PCOD8295685
_publ_section_title
;
Structure prediction by ZEFSAII (Michael W. Deem and Ramdas Pophale) SiO2 
 PCOD8295685
Probable space group: I B C A 
;
_chemical_formula_sum "Si O2"
_cell_formula_units_Z 120
_cell_length_a 20.072284
_cell_length_b 20.718141
_cell_length_c 14.948168
_cell_angle_alpha 90.000000
_cell_angle_beta 90.000000
_cell_angle_gamma 90.000000
_cell_volume 6216.351275
_symmetry_space_group_name_H-M "I B C A "
_symmetry_group_IT_number 73
_symmetry_cell_setting 'orthorhombic'
loop_
_space_group_symop_operation_xyz
x,y,z
-x,1/2-y,z
x,-y,1/2-z
1/2-x,y,-z
-x,-y,-z
x,1/2+y,-z
-x,y,1/2+z
1/2+x,-y,z
1/2+x,1/2+y,1/2+z
1/2-x,-y,1/2+z
1/2+x,1/2-y,-z
-x,1/2+y,1/2-z
1/2-x,1/2-y,1/2-z
1/2+x,y,1/2-z
1/2-x,1/2+y,z
x,1/2-y,1/2+z
loop_
_atom_site_type_symbol
_atom_site_label
_atom_site_fract_x
_atom_site_fract_y
_atom_site_fract_z
Si Si1 0.237622 0.078222 0.903928
Si Si2 0.953170 0.192727 0.572531
Si Si3 0.500074 0.173346 0.737356
Si Si4 0.697554 0.500000 0.750000
Si Si5 0.634869 0.126417 0.179568
Si Si6 0.294610 0.225613 0.586838
Si Si7 0.815268 0.799460 0.845566
Si Si8 0.108980 0.845237 0.600668
O O1 0.255208 0.029443 0.825007
O O2 0.284341 0.141318 0.902431
O O3 0.160280 0.095969 0.894359
O O4 0.250000 0.044365 0.000000
O O5 0.883192 0.223177 0.606045
O O6 0.939569 0.146574 0.486678
O O7 0.000000 0.250000 0.538070
O O8 0.988635 0.155398 0.657014
O O9 0.500000 0.250000 0.727072
O O10 0.443933 0.137709 0.677546
O O11 0.569229 0.149459 0.694727
O O12 0.650101 0.552642 0.796924
O O13 0.673171 0.153207 0.091115
O O14 0.666782 0.177429 0.247705
O O15 0.250000 0.233876 0.500000
O O16 0.238785 0.241928 0.662835
O O17 0.355202 0.276225 0.591155
#
# Coordination Sequence:
#
# PCOD8295685 Si02
#       8
#    16  16  16   8  16  16  16  16
#     4  10  19  38  66  85 111 155 203 254 299 353
#     4  10  19  30  51  85 124 154 186 223 294 377
#     4  10  20  35  57  88 122 158 189 238 305 364
#     4  10  24  42  60  86 114 164 212 254 292 346
#     4  10  21  36  56  80 120 158 200 241 294 353
#     4  11  19  30  55  88 122 147 187 249 312 360
#     4   9  17  34  53  87 112 151 189 237 307 367
#     4  11  19  35  58  92 122 152 194 243 307 372
#
# _framework density 19.303927999999999
#
# number of rings (size 3 to 8) (size 9 to 14) (size 15 to 20)
#    0.000    1.867    4.000    1.600    0.000    0.533 
#    0.000    0.667    2.933    0.800    0.000    0.000 
#    0.000    0.000    0.000    0.000    0.000    0.000 
#
# Total GULP energy -743461.477116 kJ/mol
# GULP energy per Si atom -12391.024619 kJ/mol
# Density = 1.925999 g / cm^3
# Si number density = 19.303928 Si / 1000 Ang^3
#
#
#
# Elastic Constant Matrix: (Units=GPa)
#
#
# Indices 1 2 3 4 5 6 
#
# 1 112.9203 41.8202 54.0480 0.0000 0.0000 0.0000
# 2 41.8202 81.3338 22.4352 0.0000 0.0000 0.0000
# 3 54.0480 22.4352 80.7414 0.0000 0.0000 0.0000
# 4 0.0000 0.0000 0.0000 20.5371 0.0000 0.0000
# 5 0.0000 0.0000 0.0000 0.0000 39.1431 0.0000
# 6 0.0000 0.0000 0.0000 0.0000 0.0000 21.8071
#
#
#
# Elastic Compliance Matrix: (Units=1/GPa)
#
#
# Indices 1 2 3 4 5 6 
#
# 1 0.014886 -0.005313 -0.008489 0.000000 0.000000 0.000000
# 2 -0.005313 0.015212 -0.000670 0.000000 0.000000 0.000000
# 3 -0.008489 -0.000670 0.018254 0.000000 0.000000 0.000000
# 4 0.000000 0.000000 0.000000 0.048692 0.000000 0.000000
# 5 0.000000 0.000000 0.000000 0.000000 0.025547 0.000000
# 6 0.000000 0.000000 0.000000 0.000000 0.000000 0.045857
#
#
# Mechanical properties :
#
#
# Convention : Reuss Voigt Hill
#
# Bulk Modulus (GPa) = 51.52484 56.84469 54.18476
# Shear Modulus (GPa) = 24.52650 26.74362 25.63506
#
# Velocity S-wave (km/s) = 3.56834 3.72613 3.64809
# Velocity P-wave (km/s) = 6.61262 6.92988 6.77311
#
# Compressibility (1/GPa) = 0.01940811
#
# Stress axis : x y z
#
# Youngs Moduli (GPa) = 67.17543 65.73907 54.78311
#
# Poissons Ratio (x) = 0.34926 0.46504
# Poissons Ratio (y) = 0.35689 0.03673
# Poissons Ratio (z) = 0.57023 0.04407
#
# Static dielectric constant tensor:
#      x y z
#    x 3.821380 0.000000 0.000000 
#    y 0.000000 3.065140 0.000000 
#    z 0.000000 0.000000 3.807480 
# 
# 
# High freq. dielectric constant tensor:
#      x y z
#    x 1.764800 0.000000 0.000000 
#    y 0.000000 1.688580 0.000000 
#    z 0.000000 0.000000 1.762740 
# 
# From -- ./inp_files/18937.got.cif
#   From: 2010.03.12/outbox.cif.g09.slc.cpg/sg73_10_cif.got.tgz:18937.got - 2010.04.16 15:25:48.
