data_PCOD8295851
_publ_section_title
;
Structure prediction by ZEFSAII (Michael W. Deem and Ramdas Pophale) SiO2 
 PCOD8295851
Probable space group: I B C A 
;
_chemical_formula_sum "Si O2"
_cell_formula_units_Z 120
_cell_length_a 19.678585
_cell_length_b 26.306914
_cell_length_c 11.171200
_cell_angle_alpha 90.000000
_cell_angle_beta 90.000000
_cell_angle_gamma 90.000000
_cell_volume 5783.138578
_symmetry_space_group_name_H-M "I B C A "
_symmetry_group_IT_number 73
_symmetry_cell_setting 'orthorhombic'
loop_
_space_group_symop_operation_xyz
x,y,z
-x,1/2-y,z
x,-y,1/2-z
1/2-x,y,-z
-x,-y,-z
x,1/2+y,-z
-x,y,1/2+z
1/2+x,-y,z
1/2+x,1/2+y,1/2+z
1/2-x,-y,1/2+z
1/2+x,1/2-y,-z
-x,1/2+y,1/2-z
1/2-x,1/2-y,1/2-z
1/2+x,y,1/2-z
1/2-x,1/2+y,z
x,1/2-y,1/2+z
loop_
_atom_site_type_symbol
_atom_site_label
_atom_site_fract_x
_atom_site_fract_y
_atom_site_fract_z
Si Si1 0.900781 0.120249 0.651170
Si Si2 0.441320 0.069505 0.066350
Si Si3 0.836051 0.953020 0.666396
Si Si4 0.321330 0.309101 0.839539
Si Si5 0.447320 0.869199 0.206046
Si Si6 0.217499 0.695994 0.875736
Si Si7 0.423541 0.037967 0.438695
Si Si8 0.250000 0.114247 0.500000
O O1 0.885307 0.092566 0.524509
O O2 0.888731 0.081177 0.759199
O O3 0.849104 0.166136 0.663899
O O4 0.978301 0.141900 0.651519
O O5 0.460690 0.113590 0.158127
O O6 0.419968 0.016458 0.131059
O O7 0.501679 0.053409 0.978491
O O8 0.875879 0.972701 0.551591
O O9 0.773955 0.920033 0.613025
O O10 0.810039 0.000000 0.750000
O O11 0.400080 0.318838 0.800677
O O12 0.273389 0.314948 0.724772
O O13 0.308876 0.253316 0.891301
O O14 0.307619 0.348957 0.946471
O O15 0.402624 0.915066 0.145781
O O16 0.250000 0.677387 0.000000
#
# Coordination Sequence:
#
# PCOD8295851 Si02
#       8
#    16  16  16  16  16  16  16   8
#     4  11  23  39  66  97 133 171 217 283 342 388
#     4  10  20  35  58  94 130 169 214 260 323 400
#     4  12  23  44  64  93 136 177 219 269 332 400
#     4  11  24  43  70  93 124 177 228 276 339 410
#     4  11  22  38  63  98 134 168 221 278 338 396
#     4  11  24  45  69  93 126 176 232 279 339 409
#     4  10  20  34  61  88 126 176 212 254 318 404
#     4  12  24  48  66  90 132 180 226 278 332 396
#
# _framework density 20.749979
#
# number of rings (size 3 to 8) (size 9 to 14) (size 15 to 20)
#    0.000    1.067    6.000    1.200    0.000    0.533 
#    3.600    0.000    0.000    3.200    0.000    0.000 
#    0.000    0.000    0.000    0.000    0.000    0.000 
#
# Total GULP energy -743511.477768 kJ/mol
# GULP energy per Si atom -12391.857963 kJ/mol
# Density = 2.070275 g / cm^3
# Si number density = 20.749979 Si / 1000 Ang^3
#
#
#
# Elastic Constant Matrix: (Units=GPa)
#
#
# Indices 1 2 3 4 5 6 
#
# 1 90.4058 39.5193 7.5267 0.0000 0.0000 0.0000
# 2 39.5193 64.9479 7.6074 0.0000 0.0000 0.0000
# 3 7.5267 7.6074 59.4293 0.0000 0.0000 0.0000
# 4 0.0000 0.0000 0.0000 30.0456 0.0000 0.0000
# 5 0.0000 0.0000 0.0000 0.0000 29.7751 0.0000
# 6 0.0000 0.0000 0.0000 0.0000 0.0000 17.8949
#
#
#
# Elastic Compliance Matrix: (Units=1/GPa)
#
#
# Indices 1 2 3 4 5 6 
#
# 1 0.015102 -0.009102 -0.000748 0.000000 0.000000 0.000000
# 2 -0.009102 0.021117 -0.001550 0.000000 0.000000 0.000000
# 3 -0.000748 -0.001550 0.017120 0.000000 0.000000 0.000000
# 4 0.000000 0.000000 0.000000 0.033283 0.000000 0.000000
# 5 0.000000 0.000000 0.000000 0.000000 0.033585 0.000000
# 6 0.000000 0.000000 0.000000 0.000000 0.000000 0.055882
#
#
# Mechanical properties :
#
#
# Convention : Reuss Voigt Hill
#
# Bulk Modulus (GPa) = 32.74463 36.00996 34.37729
# Shear Modulus (GPa) = 23.91572 26.21843 25.06708
#
# Velocity S-wave (km/s) = 3.39863 3.55849 3.47948
# Velocity P-wave (km/s) = 5.58710 5.85454 5.72239
#
# Compressibility (1/GPa) = 0.03053936
#
# Stress axis : x y z
#
# Youngs Moduli (GPa) = 66.21579 47.35577 58.41169
#
# Poissons Ratio (x) = 0.43102 0.04367
# Poissons Ratio (y) = 0.60268 0.09056
# Poissons Ratio (z) = 0.04950 0.07342
#
# Static dielectric constant tensor:
#      x y z
#    x 3.637930 0.000000 0.000000 
#    y 0.000000 3.876030 0.000000 
#    z 0.000000 0.000000 3.773170 
# 
# 
# High freq. dielectric constant tensor:
#      x y z
#    x 1.794680 0.000000 0.000000 
#    y 0.000000 1.807560 0.000000 
#    z 0.000000 0.000000 1.820530 
# 
# From -- ./inp_files/13096.got.cif
#   From: 2010.03.12/outbox.cif.g09.slc.cpg/sg73_7_cif.got.tgz:13096.got - 2010.04.16 15:25:48.
