data_PCOD8295650
_publ_section_title
;
Structure prediction by ZEFSAII (Michael W. Deem and Ramdas Pophale) SiO2 
 PCOD8295650
Probable space group: I B C A 
;
_chemical_formula_sum "Si O2"
_cell_formula_units_Z 104
_cell_length_a 24.801935
_cell_length_b 16.975531
_cell_length_c 12.713782
_cell_angle_alpha 90.000000
_cell_angle_beta 90.000000
_cell_angle_gamma 90.000000
_cell_volume 5352.832990
_symmetry_space_group_name_H-M "I B C A "
_symmetry_group_IT_number 73
_symmetry_cell_setting 'orthorhombic'
loop_
_space_group_symop_operation_xyz
x,y,z
-x,1/2-y,z
x,-y,1/2-z
1/2-x,y,-z
-x,-y,-z
x,1/2+y,-z
-x,y,1/2+z
1/2+x,-y,z
1/2+x,1/2+y,1/2+z
1/2-x,-y,1/2+z
1/2+x,1/2-y,-z
-x,1/2+y,1/2-z
1/2-x,1/2-y,1/2-z
1/2+x,y,1/2-z
1/2-x,1/2+y,z
x,1/2-y,1/2+z
loop_
_atom_site_type_symbol
_atom_site_label
_atom_site_fract_x
_atom_site_fract_y
_atom_site_fract_z
Si Si1 0.250000 0.403647 0.000000
Si Si2 0.974479 0.044824 0.350029
Si Si3 0.188547 0.345407 0.506090
Si Si4 0.428153 0.426023 0.019188
Si Si5 0.148496 0.685359 0.416746
Si Si6 0.862081 0.908598 0.209042
Si Si7 0.674377 0.502532 0.627926
O O1 0.201117 0.350574 0.032978
O O2 0.270932 0.456750 0.096610
O O3 0.925428 0.101259 0.316654
O O4 0.023467 0.094412 0.400443
O O5 0.999283 0.000000 0.250000
O O6 0.950700 0.980488 0.428208
O O7 0.250000 0.314892 0.500000
O O8 0.149994 0.277068 0.552596
O O9 0.171339 0.385025 0.394874
O O10 0.183744 0.408241 0.597395
O O11 0.378855 0.470237 0.073044
O O12 0.406686 0.345465 0.969020
O O13 0.150590 0.659250 0.294575
O O14 0.850444 0.000000 0.250000
O O15 0.665222 0.500000 0.750000
#
# Coordination Sequence:
#
# PCOD8295650 Si02
#       7
#     8  16  16  16  16  16  16
#     4  10  22  38  60  88 124 174 230 258 326 386
#     4  10  18  37  70  99 116 168 227 272 317 379
#     4  12  26  41  62  99 138 175 217 272 334 397
#     4  10  20  38  66  93 128 162 225 274 316 390
#     4  11  23  41  62  96 132 175 208 279 333 390
#     4  11  22  44  71  92 127 181 232 261 331 408
#     4  11  23  38  61  94 127 169 220 278 316 388
#
# _framework density 19.428964000000001
#
# number of rings (size 3 to 8) (size 9 to 14) (size 15 to 20)
#    0.000    1.231    6.154    1.385    2.154    3.077 
#    0.000    0.769    0.000    3.692    0.000    0.000 
#    0.000    0.000    0.000    0.000    0.000    0.000 
#
# Total GULP energy -644441.965001 kJ/mol
# GULP energy per Si atom -12393.114712 kJ/mol
# Density = 1.938474 g / cm^3
# Si number density = 19.428964 Si / 1000 Ang^3
#
#
#
# Elastic Constant Matrix: (Units=GPa)
#
#
# Indices 1 2 3 4 5 6 
#
# 1 65.5704 5.1173 15.4726 0.0000 0.0000 0.0000
# 2 5.1173 80.7702 26.4770 0.0000 0.0000 0.0000
# 3 15.4726 26.4770 110.2723 0.0000 0.0000 0.0000
# 4 0.0000 0.0000 0.0000 45.6051 0.0000 0.0000
# 5 0.0000 0.0000 0.0000 0.0000 30.3698 0.0000
# 6 0.0000 0.0000 0.0000 0.0000 0.0000 42.8753
#
#
#
# Elastic Compliance Matrix: (Units=1/GPa)
#
#
# Indices 1 2 3 4 5 6 
#
# 1 0.015780 -0.000297 -0.002143 0.000000 0.000000 0.000000
# 2 -0.000297 0.013444 -0.003186 0.000000 0.000000 0.000000
# 3 -0.002143 -0.003186 0.010134 0.000000 0.000000 0.000000
# 4 0.000000 0.000000 0.000000 0.021927 0.000000 0.000000
# 5 0.000000 0.000000 0.000000 0.000000 0.032927 0.000000
# 6 0.000000 0.000000 0.000000 0.000000 0.000000 0.023323
#
#
# Mechanical properties :
#
#
# Convention : Reuss Voigt Hill
#
# Bulk Modulus (GPa) = 35.58057 38.97185 37.27621
# Shear Modulus (GPa) = 36.19065 37.73976 36.96520
#
# Velocity S-wave (km/s) = 4.32060 4.41210 4.36659
# Velocity P-wave (km/s) = 6.57594 6.78658 6.68209
#
# Compressibility (1/GPa) = 0.02810523
#
# Stress axis : x y z
#
# Youngs Moduli (GPa) = 63.37297 74.38197 98.67623
#
# Poissons Ratio (x) = 0.02212 0.21143
# Poissons Ratio (y) = 0.01884 0.31441
# Poissons Ratio (z) = 0.13579 0.23700
#
# Static dielectric constant tensor:
#      x y z
#    x 4.015030 0.000000 0.000000 
#    y 0.000000 2.541040 0.000000 
#    z 0.000000 0.000000 3.710810 
# 
# 
# High freq. dielectric constant tensor:
#      x y z
#    x 1.768100 0.000000 0.000000 
#    y 0.000000 1.732080 0.000000 
#    z 0.000000 0.000000 1.769780 
# 
# From -- ./inp_files/14330.got.cif
#   From: 2010.03.12/outbox.cif.g09.slc.cpg/sg73_8_cif.got.tgz:14330.got - 2010.04.16 15:25:48.
