data_PCOD8295264
_publ_section_title
;
Structure prediction by ZEFSAII (Michael W. Deem and Ramdas Pophale) SiO2 
 PCOD8295264
Probable space group: I B A M
;
_chemical_formula_sum "Si O2"
_cell_formula_units_Z 112
_cell_length_a 30.394242
_cell_length_b 30.625058
_cell_length_c 9.300798
_cell_angle_alpha 90.000000
_cell_angle_beta 90.000000
_cell_angle_gamma 90.000000
_cell_volume 8657.419243
_symmetry_space_group_name_H-M "I B A M"
_symmetry_group_IT_number 72
_symmetry_cell_setting 'orthorhombic'
loop_
_space_group_symop_operation_xyz
x,y,z
-x,-y,z
x,-y,1/2-z
-x,y,1/2-z
-x,-y,-z
x,y,-z
-x,y,1/2+z
x,-y,1/2+z
1/2+x,1/2+y,1/2+z
1/2-x,1/2-y,1/2+z
1/2+x,1/2-y,-z
1/2-x,1/2+y,-z
1/2-x,1/2-y,1/2-z
1/2+x,1/2+y,1/2-z
1/2-x,1/2+y,z
1/2+x,1/2-y,z
loop_
_atom_site_type_symbol
_atom_site_label
_atom_site_fract_x
_atom_site_fract_y
_atom_site_fract_z
Si Si1 0.274663 0.187837 0.663421
Si Si2 0.142536 0.831390 0.659621
Si Si3 0.812946 0.044019 0.163577
Si Si4 0.232447 0.884627 0.336778
Si Si5 0.098431 0.913544 0.237710
Si Si6 0.316358 0.260445 0.162346
Si Si7 0.438373 0.539240 0.000000
Si Si8 0.962972 0.061518 0.000000
O O1 0.289710 0.177680 0.500000
O O2 0.269506 0.143087 0.752902
O O3 0.311647 0.216737 0.742910
O O4 0.229137 0.213683 0.661006
O O5 0.132223 0.813564 0.500000
O O6 0.187779 0.857637 0.656899
O O7 0.103693 0.863937 0.707706
O O8 0.145684 0.790575 0.767976
O O9 0.775389 0.070990 0.247896
O O10 0.858102 0.071374 0.153615
O O11 0.821159 0.000000 0.250000
O O12 0.797455 0.034761 0.000000
O O13 0.248225 0.895007 0.500000
O O14 0.090925 0.947739 0.365101
O O15 0.055322 0.913903 0.139031
O O16 0.330278 0.248131 0.000000
O O17 0.445948 0.487965 0.000000
O O18 0.484597 0.564768 0.000000
#
# Coordination Sequence:
#
# PCOD8295264 Si02
#       8
#    16  16  16  16  16  16   8   8
#     4   9  15  24  36  52  74  95 113 132 159 188
#     4   9  17  28  39  53  71  89 108 130 163 202
#     4  11  21  30  42  56  71  91 117 145 178 214
#     4   9  17  27  39  53  72  92 115 140 165 196
#     4  11  21  32  46  58  72  89 108 138 177 217
#     4   9  16  23  37  54  71  90 113 134 154 187
#     4  11  22  36  46  58  72  87 108 138 176 221
#     4  11  22  34  48  60  70  85 110 140 174 219
#
# _framework density 12.936881
#
# number of rings (size 3 to 8) (size 9 to 14) (size 15 to 20)
#    0.000    2.143    1.429    3.429    3.000    6.286 
#    0.000    0.000    0.000    0.000    0.000    0.000 
#    0.000    0.000    0.000    0.000    0.000    0.000 
#
# Total GULP energy -694331.909045 kJ/mol
# GULP energy per Si atom -12398.784090 kJ/mol
# Density = 1.290744 g / cm^3
# Si number density = 12.936881 Si / 1000 Ang^3
#
#
#
# Elastic Constant Matrix: (Units=GPa)
#
#
# Indices 1 2 3 4 5 6 
#
# 1 21.7850 24.4746 18.8635 0.0000 0.0000 0.0000
# 2 24.4746 44.7769 30.5640 0.0000 0.0000 0.0000
# 3 18.8635 30.5640 118.8933 0.0000 0.0000 0.0000
# 4 0.0000 0.0000 0.0000 21.9448 0.0000 0.0000
# 5 0.0000 0.0000 0.0000 0.0000 11.6806 0.0000
# 6 0.0000 0.0000 0.0000 0.0000 0.0000 19.3330
#
#
#
# Elastic Compliance Matrix: (Units=1/GPa)
#
#
# Indices 1 2 3 4 5 6 
#
# 1 0.119619 -0.063586 -0.002633 0.000000 0.000000 0.000000
# 2 -0.063586 0.060886 -0.005564 0.000000 0.000000 0.000000
# 3 -0.002633 -0.005564 0.010259 0.000000 0.000000 0.000000
# 4 0.000000 0.000000 0.000000 0.045569 0.000000 0.000000
# 5 0.000000 0.000000 0.000000 0.000000 0.085612 0.000000
# 6 0.000000 0.000000 0.000000 0.000000 0.000000 0.051725
#
#
# Mechanical properties :
#
#
# Convention : Reuss Voigt Hill
#
# Bulk Modulus (GPa) = 21.18644 37.02883 29.10764
# Shear Modulus (GPa) = 9.38145 18.02855 13.70500
#
# Velocity S-wave (km/s) = 2.69582 3.73712 3.25833
# Velocity P-wave (km/s) = 5.10904 6.87795 6.05840
#
# Compressibility (1/GPa) = 0.04720000
#
# Stress axis : x y z
#
# Youngs Moduli (GPa) = 8.35987 16.42415 97.47717
#
# Poissons Ratio (x) = 1.04434 0.25662
# Poissons Ratio (y) = 0.53157 0.54232
# Poissons Ratio (z) = 0.02201 0.09138
#
# Static dielectric constant tensor:
#      x y z
#    x 2.223330 0.000000 0.000000 
#    y 0.000000 2.563140 0.000000 
#    z 0.000000 0.000000 2.850750 
# 
# 
# High freq. dielectric constant tensor:
#      x y z
#    x 1.421810 0.000000 0.000000 
#    y 0.000000 1.471560 0.000000 
#    z 0.000000 0.000000 1.519060 
# 
# From -- ./inp_files/9529.got.cif
#   From: 2010.03.12/outbox.cif.g09.slc.cpg/sg72_5_cif.got.tgz:9529.got - 2010.04.16 14:54:00.
