data_PCOD8295856
_publ_section_title
;
Structure prediction by ZEFSAII (Michael W. Deem and Ramdas Pophale) SiO2 
 PCOD8295856
Probable space group: I B C A 
;
_chemical_formula_sum "Si O2"
_cell_formula_units_Z 120
_cell_length_a 29.102791
_cell_length_b 8.626838
_cell_length_c 27.033913
_cell_angle_alpha 90.000000
_cell_angle_beta 90.000000
_cell_angle_gamma 90.000000
_cell_volume 6787.271079
_symmetry_space_group_name_H-M "I B C A "
_symmetry_group_IT_number 73
_symmetry_cell_setting 'orthorhombic'
loop_
_space_group_symop_operation_xyz
x,y,z
-x,1/2-y,z
x,-y,1/2-z
1/2-x,y,-z
-x,-y,-z
x,1/2+y,-z
-x,y,1/2+z
1/2+x,-y,z
1/2+x,1/2+y,1/2+z
1/2-x,-y,1/2+z
1/2+x,1/2-y,-z
-x,1/2+y,1/2-z
1/2-x,1/2-y,1/2-z
1/2+x,y,1/2-z
1/2-x,1/2+y,z
x,1/2-y,1/2+z
loop_
_atom_site_type_symbol
_atom_site_label
_atom_site_fract_x
_atom_site_fract_y
_atom_site_fract_z
Si Si1 0.634356 0.270175 0.643156
Si Si2 0.550921 0.692779 0.206320
Si Si3 0.215358 0.729723 0.069124
Si Si4 0.221696 0.769756 0.839705
Si Si5 0.953385 0.346956 0.819651
Si Si6 0.133753 0.417459 0.695877
Si Si7 0.250000 0.480880 0.000000
Si Si8 0.298707 0.414602 0.699178
O O1 0.666223 0.232813 0.596269
O O2 0.581408 0.219011 0.638609
O O3 0.635665 0.451276 0.654383
O O4 0.652756 0.165373 0.688693
O O5 0.500000 0.750000 0.199779
O O6 0.547680 0.532981 0.175203
O O7 0.563681 0.681799 0.263921
O O8 0.587928 0.816368 0.186098
O O9 0.259583 0.721277 0.106123
O O10 0.217407 0.880776 0.035160
O O11 0.215900 0.582052 0.033566
O O12 0.176130 0.692065 0.817947
O O13 0.261091 0.721941 0.800521
O O14 0.215353 0.955568 0.841514
O O15 0.000000 0.250000 0.829155
O O16 0.136250 0.500000 0.750000
O O17 0.303370 0.500000 0.750000
#
# Coordination Sequence:
#
# PCOD8295856 Si02
#       8
#    16  16  16  16  16  16   8  16
#     4  11  21  33  52  76 108 135 184 223 264 312
#     4  10  21  33  50  72 103 147 200 229 256 297
#     4  10  21  37  55  80 101 137 169 223 272 331
#     4  11  21  34  49  72 107 136 183 224 264 311
#     4  10  20  35  53  73 104 145 185 232 264 299
#     4  12  21  32  49  75 107 153 188 222 264 306
#     4  10  20  38  60  74 102 130 172 210 282 346
#     4  11  21  32  46  69 104 151 183 217 254 303
#
# _framework density 17.680154999999999
#
# number of rings (size 3 to 8) (size 9 to 14) (size 15 to 20)
#    0.000    1.333    1.333    7.200    3.733    0.000 
#    0.000    0.000    0.000    0.000    0.000    0.933 
#    0.000    4.267    0.000    0.267    0.000    0.000 
#
# Total GULP energy -743400.859103 kJ/mol
# GULP energy per Si atom -12390.014318 kJ/mol
# Density = 1.763991 g / cm^3
# Si number density = 17.680155 Si / 1000 Ang^3
#
#
#
# Elastic Constant Matrix: (Units=GPa)
#
#
# Indices 1 2 3 4 5 6 
#
# 1 115.1023 42.4334 38.3056 0.0000 0.0000 0.0000
# 2 42.4334 103.6775 22.0152 0.0000 0.0000 0.0000
# 3 38.3056 22.0152 66.6886 0.0000 0.0000 0.0000
# 4 0.0000 0.0000 0.0000 676.9526 0.0000 0.0000
# 5 0.0000 0.0000 0.0000 0.0000 21.2858 0.0000
# 6 0.0000 0.0000 0.0000 0.0000 0.0000 27.9553
#
#
#
# Elastic Compliance Matrix: (Units=1/GPa)
#
#
# Indices 1 2 3 4 5 6 
#
# 1 0.011920 -0.003683 -0.005631 0.000000 0.000000 0.000000
# 2 -0.003683 0.011510 -0.001684 0.000000 0.000000 0.000000
# 3 -0.005631 -0.001684 0.018785 0.000000 0.000000 0.000000
# 4 0.000000 0.000000 0.000000 0.001477 0.000000 0.000000
# 5 0.000000 0.000000 0.000000 0.000000 0.046980 0.000000
# 6 0.000000 0.000000 0.000000 0.000000 0.000000 0.035771
#
#
# Mechanical properties :
#
#
# Convention : Reuss Voigt Hill
#
# Bulk Modulus (GPa) = 49.45766 54.55298 52.00532
# Shear Modulus (GPa) = 32.22086 157.41971 94.82029
#
# Velocity S-wave (km/s) = 4.27363 9.44621 7.33126
# Velocity P-wave (km/s) = 7.23782 12.24324 10.05691
#
# Compressibility (1/GPa) = 0.02021931
#
# Stress axis : x y z
#
# Youngs Moduli (GPa) = 83.89605 86.87901 53.23289
#
# Poissons Ratio (x) = 0.31996 0.29974
# Poissons Ratio (y) = 0.30897 0.08966
# Poissons Ratio (z) = 0.47240 0.14634
#
# Static dielectric constant tensor:
#      x y z
#    x 3.281150 0.000000 0.000000 
#    y 0.000000 3.926400 0.000000 
#    z 0.000000 0.000000 2.958950 
# 
# 
# High freq. dielectric constant tensor:
#      x y z
#    x 1.680050 0.000000 0.000000 
#    y 0.000000 1.715800 0.000000 
#    z 0.000000 0.000000 1.637400 
# 
# From -- ./inp_files/8142.got.cif
#   From: 2010.03.12/outbox.cif.g09.slc.cpg/sg73_5_cif.got.tgz:8142.got - 2010.04.16 15:25:48.
