data_PCOD8295866
_publ_section_title
;
Structure prediction by ZEFSAII (Michael W. Deem and Ramdas Pophale) SiO2 
 PCOD8295866
Probable space group: I B C A 
;
_chemical_formula_sum "Si O2"
_cell_formula_units_Z 120
_cell_length_a 26.143677
_cell_length_b 12.090073
_cell_length_c 20.030832
_cell_angle_alpha 90.000000
_cell_angle_beta 90.000000
_cell_angle_gamma 90.000000
_cell_volume 6331.324615
_symmetry_space_group_name_H-M "I B C A "
_symmetry_group_IT_number 73
_symmetry_cell_setting 'orthorhombic'
loop_
_space_group_symop_operation_xyz
x,y,z
-x,1/2-y,z
x,-y,1/2-z
1/2-x,y,-z
-x,-y,-z
x,1/2+y,-z
-x,y,1/2+z
1/2+x,-y,z
1/2+x,1/2+y,1/2+z
1/2-x,-y,1/2+z
1/2+x,1/2-y,-z
-x,1/2+y,1/2-z
1/2-x,1/2-y,1/2-z
1/2+x,y,1/2-z
1/2-x,1/2+y,z
x,1/2-y,1/2+z
loop_
_atom_site_type_symbol
_atom_site_label
_atom_site_fract_x
_atom_site_fract_y
_atom_site_fract_z
Si Si1 0.899040 0.358227 0.814749
Si Si2 0.695349 0.721130 0.821800
Si Si3 0.973717 0.861860 0.441243
Si Si4 0.694873 0.764725 0.166827
Si Si5 0.000000 0.750000 0.140126
Si Si6 0.890386 0.105294 0.158996
Si Si7 0.855169 0.998835 0.826580
Si Si8 0.052338 0.047361 0.424794
O O1 0.855533 0.281778 0.849313
O O2 0.894389 0.473953 0.854693
O O3 0.891792 0.373886 0.736997
O O4 0.953439 0.297609 0.816775
O O5 0.746712 0.760005 0.861096
O O6 0.699358 0.756518 0.745198
O O7 0.690133 0.588916 0.829752
O O8 0.937289 0.835412 0.378505
O O9 0.938500 0.925279 0.496692
O O10 0.000000 0.750000 0.468105
O O11 0.020056 0.936971 0.415705
O O12 0.661971 0.664715 0.133656
O O13 0.668032 0.881652 0.151605
O O14 0.981573 0.650099 0.095797
O O15 0.897425 0.034040 0.880290
O O16 0.877392 0.000000 0.750000
#
# Coordination Sequence:
#
# PCOD8295866 Si02
#       8
#    16  16  16  16   8  16  16  16
#     4  10  21  34  55  83 116 145 187 236 298 344
#     4   9  18  33  54  83 112 146 179 228 288 345
#     4  11  23  38  56  79 112 153 197 233 278 337
#     4   9  19  33  54  83 114 141 183 233 281 340
#     4  12  20  38  54  82 114 146 190 236 290 352
#     4  10  21  36  52  85 111 150 189 238 292 337
#     4  10  20  35  57  86 113 145 185 234 289 335
#     4  11  23  38  57  81 110 152 195 231 279 345
#
# _framework density 18.953379000000002
#
# number of rings (size 3 to 8) (size 9 to 14) (size 15 to 20)
#    0.000    1.867    3.333    0.800    2.800    1.067 
#    0.000    0.000    0.000    0.800    0.000    0.000 
#    0.000    0.000    0.000    0.000    0.000    0.000 
#
# Total GULP energy -743529.184559 kJ/mol
# GULP energy per Si atom -12392.153076 kJ/mol
# Density = 1.891024 g / cm^3
# Si number density = 18.953379 Si / 1000 Ang^3
#
#
#
# Elastic Constant Matrix: (Units=GPa)
#
#
# Indices 1 2 3 4 5 6 
#
# 1 134.7936 65.7029 26.2600 0.0000 0.0000 0.0000
# 2 65.7029 124.5990 17.3663 0.0000 0.0000 0.0000
# 3 26.2600 17.3663 39.0637 0.0000 0.0000 0.0000
# 4 0.0000 0.0000 0.0000 20.9913 0.0000 0.0000
# 5 0.0000 0.0000 0.0000 0.0000 9.2182 0.0000
# 6 0.0000 0.0000 0.0000 0.0000 0.0000 31.4626
#
#
#
# Elastic Compliance Matrix: (Units=1/GPa)
#
#
# Indices 1 2 3 4 5 6 
#
# 1 0.010850 -0.005016 -0.005064 0.000000 0.000000 0.000000
# 2 -0.005016 0.010874 -0.001463 0.000000 0.000000 0.000000
# 3 -0.005064 -0.001463 0.029654 0.000000 0.000000 0.000000
# 4 0.000000 0.000000 0.000000 0.047639 0.000000 0.000000
# 5 0.000000 0.000000 0.000000 0.000000 0.108481 0.000000
# 6 0.000000 0.000000 0.000000 0.000000 0.000000 0.031784
#
#
# Mechanical properties :
#
#
# Convention : Reuss Voigt Hill
#
# Bulk Modulus (GPa) = 35.34386 57.45722 46.40054
# Shear Modulus (GPa) = 18.39603 24.94290 21.66947
#
# Velocity S-wave (km/s) = 3.11882 3.63163 3.38495
# Velocity P-wave (km/s) = 5.62651 6.92573 6.30965
#
# Compressibility (1/GPa) = 0.02829346
#
# Stress axis : x y z
#
# Youngs Moduli (GPa) = 92.16532 91.95906 33.72261
#
# Poissons Ratio (x) = 0.46123 0.17077
# Poissons Ratio (y) = 0.46226 0.04933
# Poissons Ratio (z) = 0.46673 0.13451
#
# Static dielectric constant tensor:
#      x y z
#    x 2.687030 0.000000 0.000000 
#    y 0.000000 3.683470 0.000000 
#    z 0.000000 0.000000 2.994710 
# 
# 
# High freq. dielectric constant tensor:
#      x y z
#    x 1.736140 0.000000 0.000000 
#    y 0.000000 1.757160 0.000000 
#    z 0.000000 0.000000 1.692470 
# 
# From -- ./inp_files/27696.got.cif
#   From: 2010.03.12/outbox.cif.g09.slc.cpg/sg73_14_cif.got.tgz:27696.got - 2010.04.16 15:25:48.
