data_PCOD8295151
_publ_section_title
;
Structure prediction by ZEFSAII (Michael W. Deem and Ramdas Pophale) SiO2 
 PCOD8295151
Probable space group: I B A M
;
_chemical_formula_sum "Si O2"
_cell_formula_units_Z 96
_cell_length_a 9.764941
_cell_length_b 17.723322
_cell_length_c 27.569432
_cell_angle_alpha 90.000000
_cell_angle_beta 90.000000
_cell_angle_gamma 90.000000
_cell_volume 4771.364227
_symmetry_space_group_name_H-M "I B A M"
_symmetry_group_IT_number 72
_symmetry_cell_setting 'orthorhombic'
loop_
_space_group_symop_operation_xyz
x,y,z
-x,-y,z
x,-y,1/2-z
-x,y,1/2-z
-x,-y,-z
x,y,-z
-x,y,1/2+z
x,-y,1/2+z
1/2+x,1/2+y,1/2+z
1/2-x,1/2-y,1/2+z
1/2+x,1/2-y,-z
1/2-x,1/2+y,-z
1/2-x,1/2-y,1/2-z
1/2+x,1/2+y,1/2-z
1/2-x,1/2+y,z
1/2+x,1/2-y,z
loop_
_atom_site_type_symbol
_atom_site_label
_atom_site_fract_x
_atom_site_fract_y
_atom_site_fract_z
Si Si1 0.749549 0.089062 0.823866
Si Si2 0.109476 0.935092 0.554253
Si Si3 0.028718 0.157487 0.855725
Si Si4 0.260477 0.167511 0.773329
Si Si5 0.982753 0.326334 0.846782
Si Si6 0.140797 0.464789 0.609556
O O1 0.901630 0.103666 0.843251
O O2 0.753701 0.099934 0.765781
O O3 0.640986 0.148768 0.845817
O O4 0.700899 0.005562 0.841271
O O5 0.106960 0.900864 0.500000
O O6 0.255355 0.974120 0.565059
O O7 0.090568 0.869232 0.593377
O O8 0.000000 0.000000 0.560227
O O9 0.972523 0.241062 0.864808
O O10 0.142151 0.155524 0.813437
O O11 0.250000 0.250000 0.750000
O O12 0.414069 0.164468 0.794040
O O13 0.888062 0.376804 0.881518
O O14 0.000000 0.500000 0.592095
#
# Coordination Sequence:
#
# PCOD8295151 Si02
#       6
#    16  16  16  16  16  16
#     4  11  23  36  61  95 134 172 223 257 324 402
#     4  11  24  46  71  94 126 169 219 284 349 395
#     4  12  22  40  66  95 130 174 227 269 331 397
#     4  12  22  36  62  96 134 184 215 263 327 399
#     4  11  22  39  62  90 135 176 216 267 324 386
#     4  10  23  44  65  95 129 174 216 275 331 395
#
# _framework density 20.120031999999998
#
# number of rings (size 3 to 8) (size 9 to 14) (size 15 to 20)
#    0.000    0.833    6.667    1.000    0.000    1.000 
#    0.000    3.333    0.000    1.000    0.000    0.000 
#    0.000    0.000    0.000    0.000    0.000    0.000 
#
# Total GULP energy -595034.195622 kJ/mol
# GULP energy per Si atom -12396.545742 kJ/mol
# Density = 2.007424 g / cm^3
# Si number density = 20.120032 Si / 1000 Ang^3
#
#
#
# Elastic Constant Matrix: (Units=GPa)
#
#
# Indices 1 2 3 4 5 6 
#
# 1 133.8370 32.1402 58.3908 0.0000 0.0000 0.0000
# 2 32.1402 82.4657 42.7026 0.0000 0.0000 0.0000
# 3 58.3908 42.7026 128.8887 0.0000 0.0000 0.0000
# 4 0.0000 0.0000 0.0000 23.8189 0.0000 0.0000
# 5 0.0000 0.0000 0.0000 0.0000 10.9718 0.0000
# 6 0.0000 0.0000 0.0000 0.0000 0.0000 24.0372
#
#
#
# Elastic Compliance Matrix: (Units=1/GPa)
#
#
# Indices 1 2 3 4 5 6 
#
# 1 0.009525 -0.001784 -0.003724 0.000000 0.000000 0.000000
# 2 -0.001784 0.014972 -0.004152 0.000000 0.000000 0.000000
# 3 -0.003724 -0.004152 0.010821 0.000000 0.000000 0.000000
# 4 0.000000 0.000000 0.000000 0.041983 0.000000 0.000000
# 5 0.000000 0.000000 0.000000 0.000000 0.091143 0.000000
# 6 0.000000 0.000000 0.000000 0.000000 0.000000 0.041602
#
#
# Mechanical properties :
#
#
# Convention : Reuss Voigt Hill
#
# Bulk Modulus (GPa) = 62.50871 67.96205 65.23538
# Shear Modulus (GPa) = 21.30386 25.89609 23.59998
#
# Velocity S-wave (km/s) = 3.25751 3.59148 3.42856
# Velocity P-wave (km/s) = 6.72933 7.14493 6.94024
#
# Compressibility (1/GPa) = 0.01599777
#
# Stress axis : x y z
#
# Youngs Moduli (GPa) = 104.98798 66.79328 92.40919
#
# Poissons Ratio (x) = 0.11915 0.34414
# Poissons Ratio (y) = 0.18728 0.38370
# Poissons Ratio (z) = 0.39098 0.27734
#
# Static dielectric constant tensor:
#      x y z
#    x 4.027360 0.000000 0.000000 
#    y 0.000000 3.732930 0.000000 
#    z 0.000000 0.000000 3.573610 
# 
# 
# High freq. dielectric constant tensor:
#      x y z
#    x 1.815740 0.000000 0.000000 
#    y 0.000000 1.781590 0.000000 
#    z 0.000000 0.000000 1.752730 
# 
# From -- ./inp_files/47352.got.cif
#   From: 2010.03.12/outbox.cif.g09.slc.cpg/sg72_24_cif.got.tgz:47352.got - 2010.04.16 14:54:00.
