data_PCOD8295995
_publ_section_title
;
Structure prediction by ZEFSAII (Michael W. Deem and Ramdas Pophale) SiO2 
 PCOD8295995
Probable space group: I B C A 
;
_chemical_formula_sum "Si O2"
_cell_formula_units_Z 112
_cell_length_a 23.914219
_cell_length_b 9.387886
_cell_length_c 22.705851
_cell_angle_alpha 90.000000
_cell_angle_beta 90.000000
_cell_angle_gamma 90.000000
_cell_volume 5097.553504
_symmetry_space_group_name_H-M "I B C A "
_symmetry_group_IT_number 73
_symmetry_cell_setting 'orthorhombic'
loop_
_space_group_symop_operation_xyz
x,y,z
-x,1/2-y,z
x,-y,1/2-z
1/2-x,y,-z
-x,-y,-z
x,1/2+y,-z
-x,y,1/2+z
1/2+x,-y,z
1/2+x,1/2+y,1/2+z
1/2-x,-y,1/2+z
1/2+x,1/2-y,-z
-x,1/2+y,1/2-z
1/2-x,1/2-y,1/2-z
1/2+x,y,1/2-z
1/2-x,1/2+y,z
x,1/2-y,1/2+z
loop_
_atom_site_type_symbol
_atom_site_label
_atom_site_fract_x
_atom_site_fract_y
_atom_site_fract_z
Si Si1 0.149122 0.972944 0.443626
Si Si2 0.249954 0.442891 0.127891
Si Si3 0.593386 0.268846 0.759001
Si Si4 0.036461 0.879355 0.858892
Si Si5 0.293111 0.799212 0.296990
Si Si6 0.858786 0.352948 0.562387
Si Si7 0.070620 0.969210 0.158985
O O1 0.212957 0.973409 0.420043
O O2 0.130186 0.810708 0.453863
O O3 0.106612 0.052885 0.399723
O O4 0.145991 0.052443 0.505027
O O5 0.292978 0.325530 0.154075
O O6 0.224469 0.548989 0.176536
O O7 0.198297 0.362342 0.098641
O O8 0.554116 0.153300 0.790996
O O9 0.649902 0.189977 0.739859
O O10 0.568298 0.328458 0.698555
O O11 0.600140 0.397813 0.806533
O O12 0.090081 0.912996 0.898641
O O13 0.000000 0.750000 0.885883
O O14 0.994562 0.011944 0.857206
O O15 0.250000 0.750000 0.250000
#
# Coordination Sequence:
#
# PCOD8295995 Si02
#       7
#    16  16  16  16  16  16  16
#     4  12  25  46  74  98 139 187 243 295 364 414
#     4  12  26  45  69 101 150 181 239 296 356 424
#     4  10  20  39  71  98 137 187 230 275 362 426
#     4  10  21  46  68  99 145 182 234 294 358 416
#     4  12  24  40  68 105 144 189 227 286 348 434
#     4  12  27  46  73 103 137 191 245 304 351 427
#     4  10  21  42  71  98 139 188 228 297 355 425
#
# _framework density 21.971323999999999
#
# number of rings (size 3 to 8) (size 9 to 14) (size 15 to 20)
#    0.000    0.857    5.714    2.571    4.000    1.714 
#   12.857    0.000    0.000    0.000    0.000    0.000 
#    0.000    0.000    0.000    0.000    0.000    0.000 
#
# Total GULP energy -694340.760862 kJ/mol
# GULP energy per Si atom -12398.942158 kJ/mol
# Density = 2.192132 g / cm^3
# Si number density = 21.971324 Si / 1000 Ang^3
#
#
#
# Elastic Constant Matrix: (Units=GPa)
#
#
# Indices 1 2 3 4 5 6 
#
# 1 134.1841 10.7475 41.0983 0.0000 0.0000 0.0000
# 2 10.7475 33.8234 22.2973 0.0000 0.0000 0.0000
# 3 41.0983 22.2973 105.9305 0.0000 0.0000 0.0000
# 4 0.0000 0.0000 0.0000 29.7762 0.0000 0.0000
# 5 0.0000 0.0000 0.0000 0.0000 24.6048 0.0000
# 6 0.0000 0.0000 0.0000 0.0000 0.0000 31.9819
#
#
#
# Elastic Compliance Matrix: (Units=1/GPa)
#
#
# Indices 1 2 3 4 5 6 
#
# 1 0.008468 -0.000610 -0.003157 0.000000 0.000000 0.000000
# 2 -0.000610 0.034373 -0.006999 0.000000 0.000000 0.000000
# 3 -0.003157 -0.006999 0.012138 0.000000 0.000000 0.000000
# 4 0.000000 0.000000 0.000000 0.033584 0.000000 0.000000
# 5 0.000000 0.000000 0.000000 0.000000 0.040642 0.000000
# 6 0.000000 0.000000 0.000000 0.000000 0.000000 0.031268
#
#
# Mechanical properties :
#
#
# Convention : Reuss Voigt Hill
#
# Bulk Modulus (GPa) = 29.89667 46.91380 38.40523
# Shear Modulus (GPa) = 25.88617 30.59224 28.23921
#
# Velocity S-wave (km/s) = 3.43619 3.73550 3.58896
# Velocity P-wave (km/s) = 5.42032 6.32486 5.88998
#
# Compressibility (1/GPa) = 0.03344854
#
# Stress axis : x y z
#
# Youngs Moduli (GPa) = 118.08804 29.09282 82.38457
#
# Poissons Ratio (x) = 0.01773 0.26010
# Poissons Ratio (y) = 0.07198 0.57658
# Poissons Ratio (z) = 0.37282 0.20361
#
# Static dielectric constant tensor:
#      x y z
#    x 3.710320 0.000000 0.000000 
#    y 0.000000 3.417470 0.000000 
#    z 0.000000 0.000000 3.862430 
# 
# 
# High freq. dielectric constant tensor:
#      x y z
#    x 1.875330 0.000000 0.000000 
#    y 0.000000 1.851960 0.000000 
#    z 0.000000 0.000000 1.860390 
# 
# From -- ./inp_files/30145.got.cif
#   From: 2010.03.12/outbox.cif.g09.slc.cpg/sg73_16_cif.got.tgz:30145.got - 2010.04.16 15:25:48.
