data_PCOD8295500
_publ_section_title
;
Structure prediction by ZEFSAII (Michael W. Deem and Ramdas Pophale) SiO2 
 PCOD8295500
Probable space group: I B A M
;
_chemical_formula_sum "Si O2"
_cell_formula_units_Z 96
_cell_length_a 9.379159
_cell_length_b 25.245191
_cell_length_c 25.339064
_cell_angle_alpha 90.000000
_cell_angle_beta 90.000000
_cell_angle_gamma 90.000000
_cell_volume 5999.749629
_symmetry_space_group_name_H-M "I B A M"
_symmetry_group_IT_number 72
_symmetry_cell_setting 'orthorhombic'
loop_
_space_group_symop_operation_xyz
x,y,z
-x,-y,z
x,-y,1/2-z
-x,y,1/2-z
-x,-y,-z
x,y,-z
-x,y,1/2+z
x,-y,1/2+z
1/2+x,1/2+y,1/2+z
1/2-x,1/2-y,1/2+z
1/2+x,1/2-y,-z
1/2-x,1/2+y,-z
1/2-x,1/2-y,1/2-z
1/2+x,1/2+y,1/2-z
1/2-x,1/2+y,z
1/2+x,1/2-y,z
loop_
_atom_site_type_symbol
_atom_site_label
_atom_site_fract_x
_atom_site_fract_y
_atom_site_fract_z
Si Si1 0.178731 0.193977 0.000000
Si Si2 0.661090 0.000710 0.187317
Si Si3 0.357392 0.296176 0.000000
Si Si4 0.165639 0.897749 0.187805
Si Si5 0.666187 0.399196 0.189427
Si Si6 0.328190 0.693522 0.885341
Si Si7 0.340461 0.697477 0.614358
O O1 0.292710 0.239078 0.000000
O O2 0.197228 0.164841 0.056856
O O3 0.022561 0.218615 0.000000
O O4 0.745943 0.949194 0.167583
O O5 0.500000 0.000000 0.164942
O O6 0.661003 0.000000 0.250000
O O7 0.742055 0.052920 0.166678
O O8 0.314169 0.325790 0.054568
O O9 0.195108 0.887542 0.249291
O O10 0.216091 0.846017 0.155635
O O11 0.999781 0.910542 0.177956
O O12 0.722906 0.348114 0.158256
O O13 0.492924 0.708281 0.876364
O O14 0.240730 0.747407 0.877439
#
# Coordination Sequence:
#
# PCOD8295500 Si02
#       7
#     8  16   8  16  16  16  16
#     4   8  14  26  42  59  80 107 141 174 200 234
#     4   9  17  29  45  64  83 106 140 177 208 241
#     4   8  14  26  42  59  80 107 141 174 200 234
#     4   9  17  29  44  62  85 112 139 168 206 250
#     4   9  17  29  44  62  85 112 139 168 206 250
#     4   9  17  28  43  63  86 112 140 170 205 244
#     4   9  17  28  43  63  86 112 140 170 205 244
#
# _framework density 16.000668000000001
#
# number of rings (size 3 to 8) (size 9 to 14) (size 15 to 20)
#    0.000    3.167    0.000    0.500    0.000    4.000 
#    0.000    0.000    0.000    1.000    0.000    7.000 
#    0.000    0.000    0.000    0.000    0.000    0.000 
#
# Total GULP energy -594670.587732 kJ/mol
# GULP energy per Si atom -12388.970578 kJ/mol
# Density = 1.596425 g / cm^3
# Si number density = 16.000668 Si / 1000 Ang^3
#
#
#
# Elastic Constant Matrix: (Units=GPa)
#
#
# Indices 1 2 3 4 5 6 
#
# 1 62.3479 54.4450 37.4693 0.0000 0.0000 0.0000
# 2 54.4450 123.6682 64.4402 0.0000 0.0000 0.0000
# 3 37.4693 64.4402 79.5686 0.0000 0.0000 0.0000
# 4 0.0000 0.0000 0.0000 3.5671 0.0000 0.0000
# 5 0.0000 0.0000 0.0000 0.0000 15.3569 0.0000
# 6 0.0000 0.0000 0.0000 0.0000 0.0000 26.5069
#
#
#
# Elastic Compliance Matrix: (Units=1/GPa)
#
#
# Indices 1 2 3 4 5 6 
#
# 1 0.027339 -0.009217 -0.005409 0.000000 0.000000 0.000000
# 2 -0.009217 0.017098 -0.009506 0.000000 0.000000 0.000000
# 3 -0.005409 -0.009506 0.022814 0.000000 0.000000 0.000000
# 4 0.000000 0.000000 0.000000 0.280341 0.000000 0.000000
# 5 0.000000 0.000000 0.000000 0.000000 0.065117 0.000000
# 6 0.000000 0.000000 0.000000 0.000000 0.000000 0.037726
#
#
# Mechanical properties :
#
#
# Convention : Reuss Voigt Hill
#
# Bulk Modulus (GPa) = 52.67427 64.25484 58.46456
# Shear Modulus (GPa) = 9.90045 16.36821 13.13433
#
# Velocity S-wave (km/s) = 2.49017 3.20186 2.86818
# Velocity P-wave (km/s) = 6.42335 7.34261 6.89831
#
# Compressibility (1/GPa) = 0.01898460
#
# Stress axis : x y z
#
# Youngs Moduli (GPa) = 36.57817 58.48780 43.83308
#
# Poissons Ratio (x) = 0.53910 0.23710
# Poissons Ratio (y) = 0.33715 0.41669
# Poissons Ratio (z) = 0.19786 0.55600
#
# Static dielectric constant tensor:
#      x y z
#    x 3.113400 0.000000 0.000000 
#    y 0.000000 2.930090 0.000000 
#    z 0.000000 0.000000 3.349230 
# 
# 
# High freq. dielectric constant tensor:
#      x y z
#    x 1.618140 0.000000 0.000000 
#    y 0.000000 1.590460 0.000000 
#    z 0.000000 0.000000 1.606760 
# 
# From -- ./inp_files/42590.got.cif
#   From: 2010.03.12/outbox.cif.g09.slc.cpg/sg72_22_cif.got.tgz:42590.got - 2010.04.16 14:54:00.
