data_PCOD8295322
_publ_section_title
;
Structure prediction by ZEFSAII (Michael W. Deem and Ramdas Pophale) SiO2 
 PCOD8295322
Probable space group: I B A M
;
_chemical_formula_sum "Si O2"
_cell_formula_units_Z 96
_cell_length_a 26.344823
_cell_length_b 9.872536
_cell_length_c 18.594210
_cell_angle_alpha 90.000000
_cell_angle_beta 90.000000
_cell_angle_gamma 90.000000
_cell_volume 4836.172048
_symmetry_space_group_name_H-M "I B A M"
_symmetry_group_IT_number 72
_symmetry_cell_setting 'orthorhombic'
loop_
_space_group_symop_operation_xyz
x,y,z
-x,-y,z
x,-y,1/2-z
-x,y,1/2-z
-x,-y,-z
x,y,-z
-x,y,1/2+z
x,-y,1/2+z
1/2+x,1/2+y,1/2+z
1/2-x,1/2-y,1/2+z
1/2+x,1/2-y,-z
1/2-x,1/2+y,-z
1/2-x,1/2-y,1/2-z
1/2+x,1/2+y,1/2-z
1/2-x,1/2+y,z
1/2+x,1/2-y,z
loop_
_atom_site_type_symbol
_atom_site_label
_atom_site_fract_x
_atom_site_fract_y
_atom_site_fract_z
Si Si1 0.344572 0.151706 0.314209
Si Si2 0.556045 0.272580 0.758925
Si Si3 0.349206 0.377848 0.921277
Si Si4 0.055238 0.010185 0.365925
Si Si5 0.207557 0.142012 0.084727
Si Si6 0.186766 0.359803 0.337133
O O1 0.399539 0.162594 0.273651
O O2 0.333442 0.265488 0.373505
O O3 0.303890 0.160305 0.248385
O O4 0.338721 0.005934 0.352638
O O5 0.500000 0.203198 0.750000
O O6 0.561749 0.366767 0.828221
O O7 0.562065 0.366749 0.689720
O O8 0.401540 0.463675 0.924627
O O9 0.305068 0.484753 0.901474
O O10 0.351691 0.256599 0.864189
O O11 0.339471 0.315991 0.000000
O O12 0.000000 0.000000 0.403214
O O13 0.262602 0.165817 0.117660
O O14 0.206603 0.178723 0.000000
#
# Coordination Sequence:
#
# PCOD8295322 Si02
#       6
#    16  16  16  16  16  16
#     4  11  22  40  63  89 118 161 209 252 306 370
#     4   9  17  34  63  90 117 149 195 252 307 351
#     4  11  22  37  60  87 120 160 200 250 305 359
#     4   9  17  33  60  89 116 147 192 248 304 348
#     4  11  24  41  61  86 120 167 211 251 299 362
#     4  11  24  38  56  89 125 157 207 251 308 358
#
# _framework density 19.85041
#
# number of rings (size 3 to 8) (size 9 to 14) (size 15 to 20)
#    0.000    1.667    3.333    3.000    0.000    5.000 
#    0.000    1.667    0.000    0.000    0.000    4.667 
#    0.000    0.000    0.000    0.000    0.000    0.000 
#
# Total GULP energy -594768.475458 kJ/mol
# GULP energy per Si atom -12391.009905 kJ/mol
# Density = 1.980523 g / cm^3
# Si number density = 19.850410 Si / 1000 Ang^3
#
#
#
# Elastic Constant Matrix: (Units=GPa)
#
#
# Indices 1 2 3 4 5 6 
#
# 1 103.3396 30.4238 21.6693 0.0000 0.0000 0.0000
# 2 30.4238 84.8211 48.3523 0.0000 0.0000 0.0000
# 3 21.6693 48.3523 86.3560 0.0000 0.0000 0.0000
# 4 0.0000 0.0000 0.0000 27.9411 0.0000 0.0000
# 5 0.0000 0.0000 0.0000 0.0000 18.0495 0.0000
# 6 0.0000 0.0000 0.0000 0.0000 0.0000 20.7304
#
#
#
# Elastic Compliance Matrix: (Units=1/GPa)
#
#
# Indices 1 2 3 4 5 6 
#
# 1 0.010857 -0.003439 -0.000799 0.000000 0.000000 0.000000
# 2 -0.003439 0.018406 -0.009443 0.000000 0.000000 0.000000
# 3 -0.000799 -0.009443 0.017068 0.000000 0.000000 0.000000
# 4 0.000000 0.000000 0.000000 0.035790 0.000000 0.000000
# 5 0.000000 0.000000 0.000000 0.000000 0.055403 0.000000
# 6 0.000000 0.000000 0.000000 0.000000 0.000000 0.048238
#
#
# Mechanical properties :
#
#
# Convention : Reuss Voigt Hill
#
# Bulk Modulus (GPa) = 52.71680 52.82306 52.76993
# Shear Modulus (GPa) = 22.78472 24.94895 23.86683
#
# Velocity S-wave (km/s) = 3.39163 3.54905 3.47123
# Velocity P-wave (km/s) = 6.47705 6.59262 6.53509
#
# Compressibility (1/GPa) = 0.01896929
#
# Stress axis : x y z
#
# Youngs Moduli (GPa) = 92.10877 54.33055 58.59018
#
# Poissons Ratio (x) = 0.18683 0.04681
# Poissons Ratio (y) = 0.31674 0.55326
# Poissons Ratio (z) = 0.07358 0.51304
#
# Static dielectric constant tensor:
#      x y z
#    x 3.514730 0.000000 0.000000 
#    y 0.000000 3.479630 0.000000 
#    z 0.000000 0.000000 3.428790 
# 
# 
# High freq. dielectric constant tensor:
#      x y z
#    x 1.777720 0.000000 0.000000 
#    y 0.000000 1.763720 0.000000 
#    z 0.000000 0.000000 1.762200 
# 
# From -- ./inp_files/40697.got.cif
#   From: 2010.03.12/outbox.cif.g09.slc.cpg/sg72_21_cif.got.tgz:40697.got - 2010.04.16 14:54:00.
