data_PCOD8295009
_publ_section_title
;
Structure prediction by ZEFSAII (Michael W. Deem and Ramdas Pophale) SiO2 
 PCOD8295009
Probable space group: I B A M
;
_chemical_formula_sum "Si O2"
_cell_formula_units_Z 112
_cell_length_a 11.737779
_cell_length_b 19.283120
_cell_length_c 23.945456
_cell_angle_alpha 90.000000
_cell_angle_beta 90.000000
_cell_angle_gamma 90.000000
_cell_volume 5419.838480
_symmetry_space_group_name_H-M "I B A M"
_symmetry_group_IT_number 72
_symmetry_cell_setting 'orthorhombic'
loop_
_space_group_symop_operation_xyz
x,y,z
-x,-y,z
x,-y,1/2-z
-x,y,1/2-z
-x,-y,-z
x,y,-z
-x,y,1/2+z
x,-y,1/2+z
1/2+x,1/2+y,1/2+z
1/2-x,1/2-y,1/2+z
1/2+x,1/2-y,-z
1/2-x,1/2+y,-z
1/2-x,1/2-y,1/2-z
1/2+x,1/2+y,1/2-z
1/2-x,1/2+y,z
1/2+x,1/2-y,z
loop_
_atom_site_type_symbol
_atom_site_label
_atom_site_fract_x
_atom_site_fract_y
_atom_site_fract_z
Si Si1 0.789628 0.604115 0.623460
Si Si2 0.861647 0.212951 0.435054
Si Si3 0.540375 0.321252 0.343520
Si Si4 0.876118 0.516751 0.063611
Si Si5 0.589123 0.452776 0.807030
Si Si6 0.507692 0.171137 0.688505
Si Si7 0.292604 0.847287 0.118101
O O1 0.736540 0.672523 0.597738
O O2 0.805871 0.553869 0.570744
O O3 0.711873 0.561283 0.667148
O O4 0.908593 0.623483 0.652136
O O5 0.875202 0.192217 0.500000
O O6 0.820972 0.292763 0.431410
O O7 0.978720 0.195264 0.402947
O O8 0.473700 0.377147 0.304479
O O9 0.552375 0.250170 0.309053
O O10 0.665979 0.347312 0.357962
O O11 0.813477 0.575845 0.097384
O O12 0.000000 0.500000 0.088686
O O13 0.883905 0.539885 0.000000
O O14 0.500000 0.500000 0.843973
O O15 0.604080 0.500000 0.750000
O O16 0.500000 0.139516 0.750000
O O17 0.378829 0.170981 0.667387
#
# Coordination Sequence:
#
# PCOD8295009 Si02
#       7
#    16  16  16  16  16  16  16
#     4  11  22  45  61  95 134 167 221 272 328 398
#     4  10  22  41  68  96 131 172 216 275 335 389
#     4  10  23  43  64  97 133 165 226 275 319 401
#     4  11  23  39  63  91 127 168 207 261 326 391
#     4  10  23  41  66  92 124 173 219 264 329 385
#     4  11  25  41  64  94 132 176 216 274 335 380
#     4  11  22  44  65  97 132 171 220 271 324 404
#
# _framework density 20.664822000000001
#
# number of rings (size 3 to 8) (size 9 to 14) (size 15 to 20)
#    0.000    1.429    2.857    1.714    2.000    5.143 
#    0.000    0.714    0.000    4.714    0.000    0.000 
#    0.000    0.000    0.000    0.000    0.000    0.000 
#
# Total GULP energy -693906.027712 kJ/mol
# GULP energy per Si atom -12391.179066 kJ/mol
# Density = 2.061779 g / cm^3
# Si number density = 20.664822 Si / 1000 Ang^3
#
#
#
# Elastic Constant Matrix: (Units=GPa)
#
#
# Indices 1 2 3 4 5 6 
#
# 1 119.1900 22.6101 27.8691 0.0000 0.0000 0.0000
# 2 22.6101 101.5564 21.3725 0.0000 0.0000 0.0000
# 3 27.8691 21.3725 94.1829 0.0000 0.0000 0.0000
# 4 0.0000 0.0000 0.0000 27.6954 0.0000 0.0000
# 5 0.0000 0.0000 0.0000 0.0000 14.3320 0.0000
# 6 0.0000 0.0000 0.0000 0.0000 0.0000 31.6481
#
#
#
# Elastic Compliance Matrix: (Units=1/GPa)
#
#
# Indices 1 2 3 4 5 6 
#
# 1 0.009242 -0.001556 -0.002382 0.000000 0.000000 0.000000
# 2 -0.001556 0.010603 -0.001945 0.000000 0.000000 0.000000
# 3 -0.002382 -0.001945 0.011764 0.000000 0.000000 0.000000
# 4 0.000000 0.000000 0.000000 0.036107 0.000000 0.000000
# 5 0.000000 0.000000 0.000000 0.000000 0.069774 0.000000
# 6 0.000000 0.000000 0.000000 0.000000 0.000000 0.031597
#
#
# Mechanical properties :
#
#
# Convention : Reuss Voigt Hill
#
# Bulk Modulus (GPa) = 50.39899 50.95919 50.67909
# Shear Modulus (GPa) = 26.67124 30.94028 28.80576
#
# Velocity S-wave (km/s) = 3.59647 3.87362 3.73762
# Velocity P-wave (km/s) = 6.45661 6.68730 6.57297
#
# Compressibility (1/GPa) = 0.01984167
#
# Stress axis : x y z
#
# Youngs Moduli (GPa) = 108.20074 94.31580 85.00625
#
# Poissons Ratio (x) = 0.14679 0.20245
# Poissons Ratio (y) = 0.16841 0.16538
# Poissons Ratio (z) = 0.25769 0.18349
#
# Static dielectric constant tensor:
#      x y z
#    x 3.887190 0.000000 0.000000 
#    y 0.000000 3.962440 0.000000 
#    z 0.000000 0.000000 3.458880 
# 
# 
# High freq. dielectric constant tensor:
#      x y z
#    x 1.818190 0.000000 0.000000 
#    y 0.000000 1.826680 0.000000 
#    z 0.000000 0.000000 1.788530 
# 
# From -- ./inp_files/43536.got.cif
#   From: 2010.03.12/outbox.cif.g09.slc.cpg/sg72_22_cif.got.tgz:43536.got - 2010.04.16 14:54:00.
