data_PCOD8295950
_publ_section_title
;
Structure prediction by ZEFSAII (Michael W. Deem and Ramdas Pophale) SiO2 
 PCOD8295950
Probable space group: I B C A 
;
_chemical_formula_sum "Si O2"
_cell_formula_units_Z 88
_cell_length_a 13.259946
_cell_length_b 18.007213
_cell_length_c 17.728943
_cell_angle_alpha 90.000000
_cell_angle_beta 90.000000
_cell_angle_gamma 90.000000
_cell_volume 4233.222550
_symmetry_space_group_name_H-M "I B C A "
_symmetry_group_IT_number 73
_symmetry_cell_setting 'orthorhombic'
loop_
_space_group_symop_operation_xyz
x,y,z
-x,1/2-y,z
x,-y,1/2-z
1/2-x,y,-z
-x,-y,-z
x,1/2+y,-z
-x,y,1/2+z
1/2+x,-y,z
1/2+x,1/2+y,1/2+z
1/2-x,-y,1/2+z
1/2+x,1/2-y,-z
-x,1/2+y,1/2-z
1/2-x,1/2-y,1/2-z
1/2+x,y,1/2-z
1/2-x,1/2+y,z
x,1/2-y,1/2+z
loop_
_atom_site_type_symbol
_atom_site_label
_atom_site_fract_x
_atom_site_fract_y
_atom_site_fract_z
Si Si1 0.101465 0.000000 0.750000
Si Si2 0.000000 0.750000 0.234977
Si Si3 0.457047 0.035016 0.882930
Si Si4 0.357925 0.320304 0.356650
Si Si5 0.858396 0.864112 0.156488
Si Si6 0.490414 0.398683 0.039186
Si Si7 0.500000 0.750000 0.021912
O O1 0.166658 0.932459 0.714033
O O2 0.033615 0.962823 0.814032
O O3 0.089552 0.785449 0.284164
O O4 0.047699 0.684702 0.185623
O O5 0.366754 0.089818 0.861034
O O6 0.422115 0.950366 0.904333
O O7 0.514075 0.066183 0.956384
O O8 0.237562 0.309631 0.353384
O O9 0.407600 0.283040 0.430051
O O10 0.896257 0.896962 0.075905
O O11 0.451347 0.314009 0.031089
#
# Coordination Sequence:
#
# PCOD8295950 Si02
#       7
#     8   8  16  16  16  16   8
#     4  10  20  38  60  88 128 166 210 260 314 378
#     4  11  21  40  60  90 130 162 202 268 322 368
#     4   9  18  36  60  85 117 166 200 253 316 365
#     4  10  21  37  63  90 125 163 208 258 320 379
#     4  11  22  37  63  93 124 166 216 257 311 385
#     4   9  19  36  60  83 121 162 205 253 312 373
#     4   9  19  36  60  90 126 168 198 262 324 372
#
# _framework density 20.787945000000001
#
# number of rings (size 3 to 8) (size 9 to 14) (size 15 to 20)
#    0.000    2.182    1.818    1.091    0.000    3.636 
#    0.000    0.000    0.000   19.636    0.000    0.000 
#    0.000    0.000    0.000    0.000    0.000    0.000 
#
# Total GULP energy -545080.812566 kJ/mol
# GULP energy per Si atom -12388.200286 kJ/mol
# Density = 2.074063 g / cm^3
# Si number density = 20.787945 Si / 1000 Ang^3
#
#
#
# Elastic Constant Matrix: (Units=GPa)
#
#
# Indices 1 2 3 4 5 6 
#
# 1 77.5201 27.0800 32.5597 0.0000 0.0000 0.0000
# 2 27.0800 135.1579 35.9477 0.0000 0.0000 0.0000
# 3 32.5597 35.9477 97.5573 0.0000 0.0000 0.0000
# 4 0.0000 0.0000 0.0000 30.2107 0.0000 0.0000
# 5 0.0000 0.0000 0.0000 0.0000 9.1893 0.0000
# 6 0.0000 0.0000 0.0000 0.0000 0.0000 27.9721
#
#
#
# Elastic Compliance Matrix: (Units=1/GPa)
#
#
# Indices 1 2 3 4 5 6 
#
# 1 0.015435 -0.001910 -0.004448 0.000000 0.000000 0.000000
# 2 -0.001910 0.008439 -0.002472 0.000000 0.000000 0.000000
# 3 -0.004448 -0.002472 0.012646 0.000000 0.000000 0.000000
# 4 0.000000 0.000000 0.000000 0.033101 0.000000 0.000000
# 5 0.000000 0.000000 0.000000 0.000000 0.108822 0.000000
# 6 0.000000 0.000000 0.000000 0.000000 0.000000 0.035750
#
#
# Mechanical properties :
#
#
# Convention : Reuss Voigt Hill
#
# Bulk Modulus (GPa) = 53.02068 55.71222 54.36645
# Shear Modulus (GPa) = 20.99616 27.78429 24.39022
#
# Velocity S-wave (km/s) = 3.18152 3.65986 3.42904
# Velocity P-wave (km/s) = 6.24956 6.68714 6.47205
#
# Compressibility (1/GPa) = 0.01886056
#
# Stress axis : x y z
#
# Youngs Moduli (GPa) = 64.78734 118.49912 79.07768
#
# Poissons Ratio (x) = 0.22628 0.35172
# Poissons Ratio (y) = 0.12372 0.19550
# Poissons Ratio (z) = 0.28816 0.29296
#
# Static dielectric constant tensor:
#      x y z
#    x 3.138500 0.000000 0.000000 
#    y 0.000000 4.396550 0.000000 
#    z 0.000000 0.000000 3.983800 
# 
# 
# High freq. dielectric constant tensor:
#      x y z
#    x 1.750620 0.000000 0.000000 
#    y 0.000000 1.837830 0.000000 
#    z 0.000000 0.000000 1.832830 
# 
# From -- ./inp_files/12773.got.cif
#   From: 2010.03.12/outbox.cif.g09.slc.cpg/sg73_7_cif.got.tgz:12773.got - 2010.04.16 15:25:48.
