data_PCOD8295637
_publ_section_title
;
Structure prediction by ZEFSAII (Michael W. Deem and Ramdas Pophale) SiO2 
 PCOD8295637
Probable space group: I B C A 
;
_chemical_formula_sum "Si O2"
_cell_formula_units_Z 96
_cell_length_a 12.067643
_cell_length_b 15.945688
_cell_length_c 22.715435
_cell_angle_alpha 90.000000
_cell_angle_beta 90.000000
_cell_angle_gamma 90.000000
_cell_volume 4371.060062
_symmetry_space_group_name_H-M "I B C A "
_symmetry_group_IT_number 73
_symmetry_cell_setting 'orthorhombic'
loop_
_space_group_symop_operation_xyz
x,y,z
-x,1/2-y,z
x,-y,1/2-z
1/2-x,y,-z
-x,-y,-z
x,1/2+y,-z
-x,y,1/2+z
1/2+x,-y,z
1/2+x,1/2+y,1/2+z
1/2-x,-y,1/2+z
1/2+x,1/2-y,-z
-x,1/2+y,1/2-z
1/2-x,1/2-y,1/2-z
1/2+x,y,1/2-z
1/2-x,1/2+y,z
x,1/2-y,1/2+z
loop_
_atom_site_type_symbol
_atom_site_label
_atom_site_fract_x
_atom_site_fract_y
_atom_site_fract_z
Si Si1 0.250000 0.479445 0.500000
Si Si2 0.471549 0.896706 0.363328
Si Si3 0.550872 0.455759 0.443353
Si Si4 0.250493 0.189875 0.836659
Si Si5 0.000000 0.250000 0.952047
Si Si6 0.099093 0.686627 0.731244
Si Si7 0.618567 0.170993 0.448647
O O1 0.317217 0.539901 0.544748
O O2 0.324641 0.418060 0.460741
O O3 0.341716 0.879220 0.351676
O O4 0.521024 0.830495 0.411052
O O5 0.543553 0.890488 0.303765
O O6 0.482485 0.991004 0.385742
O O7 0.500000 0.500000 0.500000
O O8 0.508549 0.359655 0.433764
O O9 0.190360 0.271823 0.811536
O O10 0.338940 0.153638 0.789460
O O11 0.319042 0.216419 0.895141
O O12 0.891657 0.269398 0.993514
O O13 0.000000 0.750000 0.748316
#
# Coordination Sequence:
#
# PCOD8295637 Si02
#       7
#     8  16  16  16   8  16  16
#     4  10  18  36  58  78 118 164 188 222 312 368
#     4  11  19  39  63  85 121 158 200 240 304 367
#     4  10  20  36  59  83 119 161 194 239 296 372
#     4  10  19  37  62  85 115 161 196 246 304 353
#     4  12  20  34  56  96 120 152 190 256 294 360
#     4   9  20  35  63  90 117 153 202 249 297 358
#     4  11  22  35  60  88 122 152 200 247 304 360
#
# _framework density 21.962634999999999
#
# number of rings (size 3 to 8) (size 9 to 14) (size 15 to 20)
#    0.000    1.667    7.500    0.000    1.167    0.000 
#    0.000    6.667    0.000    4.000    0.000    0.000 
#    0.000    0.000    0.000    0.000    0.000    0.000 
#
# Total GULP energy -594728.926411 kJ/mol
# GULP energy per Si atom -12390.185967 kJ/mol
# Density = 2.191265 g / cm^3
# Si number density = 21.962635 Si / 1000 Ang^3
#
#
#
# Elastic Constant Matrix: (Units=GPa)
#
#
# Indices 1 2 3 4 5 6 
#
# 1 109.2905 15.4933 54.3540 0.0000 0.0000 0.0000
# 2 15.4933 24.1505 11.7077 0.0000 0.0000 0.0000
# 3 54.3540 11.7077 113.1589 0.0000 0.0000 0.0000
# 4 0.0000 0.0000 0.0000 23.5262 0.0000 0.0000
# 5 0.0000 0.0000 0.0000 0.0000 58.4875 0.0000
# 6 0.0000 0.0000 0.0000 0.0000 0.0000 20.7800
#
#
#
# Elastic Compliance Matrix: (Units=1/GPa)
#
#
# Indices 1 2 3 4 5 6 
#
# 1 0.012668 -0.005451 -0.005521 0.000000 0.000000 0.000000
# 2 -0.005451 0.045939 -0.002135 0.000000 0.000000 0.000000
# 3 -0.005521 -0.002135 0.011710 0.000000 0.000000 0.000000
# 4 0.000000 0.000000 0.000000 0.042506 0.000000 0.000000
# 5 0.000000 0.000000 0.000000 0.000000 0.017098 0.000000
# 6 0.000000 0.000000 0.000000 0.000000 0.000000 0.048123
#
#
# Mechanical properties :
#
#
# Convention : Reuss Voigt Hill
#
# Bulk Modulus (GPa) = 22.67368 45.52334 34.09851
# Shear Modulus (GPa) = 22.83535 31.56172 27.19853
#
# Velocity S-wave (km/s) = 3.22799 3.79498 3.52291
# Velocity P-wave (km/s) = 4.92335 6.32258 5.66633
#
# Compressibility (1/GPa) = 0.04410399
#
# Stress axis : x y z
#
# Youngs Moduli (GPa) = 78.93601 21.76808 85.39718
#
# Poissons Ratio (x) = 0.11865 0.47149
# Poissons Ratio (y) = 0.43026 0.18231
# Poissons Ratio (z) = 0.43582 0.04647
#
# Static dielectric constant tensor:
#      x y z
#    x 4.715980 0.000000 0.000000 
#    y 0.000000 3.630420 0.000000 
#    z 0.000000 0.000000 4.321120 
# 
# 
# High freq. dielectric constant tensor:
#      x y z
#    x 1.877590 0.000000 0.000000 
#    y 0.000000 1.815140 0.000000 
#    z 0.000000 0.000000 1.858640 
# 
# From -- ./inp_files/28960.got.cif
#   From: 2010.03.12/outbox.cif.g09.slc.cpg/sg73_15_cif.got.tgz:28960.got - 2010.04.16 15:25:48.
