data_PCOD8295948
_publ_section_title
;
Structure prediction by ZEFSAII (Michael W. Deem and Ramdas Pophale) SiO2 
 PCOD8295948
Probable space group: I B C A 
;
_chemical_formula_sum "Si O2"
_cell_formula_units_Z 80
_cell_length_a 12.915193
_cell_length_b 22.623299
_cell_length_c 12.756420
_cell_angle_alpha 90.000000
_cell_angle_beta 90.000000
_cell_angle_gamma 90.000000
_cell_volume 3727.225302
_symmetry_space_group_name_H-M "I B C A "
_symmetry_group_IT_number 73
_symmetry_cell_setting 'orthorhombic'
loop_
_space_group_symop_operation_xyz
x,y,z
-x,1/2-y,z
x,-y,1/2-z
1/2-x,y,-z
-x,-y,-z
x,1/2+y,-z
-x,y,1/2+z
1/2+x,-y,z
1/2+x,1/2+y,1/2+z
1/2-x,-y,1/2+z
1/2+x,1/2-y,-z
-x,1/2+y,1/2-z
1/2-x,1/2-y,1/2-z
1/2+x,y,1/2-z
1/2-x,1/2+y,z
x,1/2-y,1/2+z
loop_
_atom_site_type_symbol
_atom_site_label
_atom_site_fract_x
_atom_site_fract_y
_atom_site_fract_z
Si Si1 0.500000 0.250000 0.028463
Si Si2 0.750000 0.026300 0.500000
Si Si3 0.853292 0.047372 0.167671
Si Si4 0.006777 0.840810 0.849252
Si Si5 0.208852 0.610140 0.819251
Si Si6 0.843550 0.283039 0.806789
O O1 0.605243 0.246746 0.097775
O O2 0.495444 0.189651 0.962338
O O3 0.688586 0.066171 0.415973
O O4 0.832421 0.985290 0.441345
O O5 0.935054 0.097415 0.140155
O O6 0.746700 0.074448 0.216127
O O7 0.900955 0.000000 0.250000
O O8 0.066783 0.794413 0.777374
O O9 0.895629 0.853426 0.795699
O O10 0.300669 0.655033 0.851463
O O11 0.750000 0.250000 0.750000
#
# Coordination Sequence:
#
# PCOD8295948 Si02
#       6
#     8   8  16  16  16  16
#     4  12  24  40  66  94 120 160 208 256 308 368
#     4  10  20  38  60  88 120 158 206 258 316 368
#     4   9  22  40  61  88 122 163 206 255 312 371
#     4  11  24  40  63  94 123 163 213 254 309 373
#     4  10  21  40  60  84 124 161 198 258 316 369
#     4  11  24  42  61  87 127 164 203 256 315 376
#
# _framework density 21.463687
#
# number of rings (size 3 to 8) (size 9 to 14) (size 15 to 20)
#    0.000    1.600    0.000    4.200    0.000   10.400 
#    0.000    0.000    0.000    0.000    0.000    0.000 
#    0.000    0.000    0.000    0.000    0.000    0.000 
#
# Total GULP energy -496075.054035 kJ/mol
# GULP energy per Si atom -12401.876351 kJ/mol
# Density = 2.141483 g / cm^3
# Si number density = 21.463687 Si / 1000 Ang^3
#
#
#
# Elastic Constant Matrix: (Units=GPa)
#
#
# Indices 1 2 3 4 5 6 
#
# 1 125.1733 47.3461 54.4541 0.0000 0.0000 0.0000
# 2 47.3461 107.1701 51.0218 0.0002 0.0000 0.0000
# 3 54.4541 51.0218 107.4812 0.0002 0.0000 0.0000
# 4 0.0000 0.0002 0.0002 32.6130 0.0000 0.0000
# 5 0.0000 0.0000 0.0000 0.0000 27.6251 0.0000
# 6 0.0000 0.0000 0.0000 0.0000 0.0000 48.7540
#
#
#
# Elastic Compliance Matrix: (Units=1/GPa)
#
#
# Indices 1 2 3 4 5 6 
#
# 1 0.010868 -0.002816 -0.004169 0.000000 0.000000 0.000000
# 2 -0.002816 0.012785 -0.004642 0.000000 0.000000 0.000000
# 3 -0.004169 -0.004642 0.013620 0.000000 0.000000 0.000000
# 4 0.000000 0.000000 0.000000 0.030663 0.000000 0.000000
# 5 0.000000 0.000000 0.000000 0.000000 0.036199 0.000000
# 6 0.000000 0.000000 0.000000 0.000000 0.000000 0.020511
#
#
# Mechanical properties :
#
#
# Convention : Reuss Voigt Hill
#
# Bulk Modulus (GPa) = 71.33998 71.71873 71.52935
# Shear Modulus (GPa) = 32.77093 34.26526 33.51809
#
# Velocity S-wave (km/s) = 3.91168 3.99987 3.95602
# Velocity P-wave (km/s) = 7.32880 7.40395 7.36647
#
# Compressibility (1/GPa) = 0.01401739
#
# Stress axis : x y z
#
# Youngs Moduli (GPa) = 92.01397 78.21454 73.42180
#
# Poissons Ratio (x) = 0.22029 0.30611
# Poissons Ratio (y) = 0.25915 0.34085
# Poissons Ratio (z) = 0.38362 0.36310
#
# Static dielectric constant tensor:
#      x y z
#    x 3.798430 0.000000 0.000000 
#    y 0.000000 4.172270 0.000000 
#    z 0.000000 0.000000 3.828010 
# 
# 
# High freq. dielectric constant tensor:
#      x y z
#    x 1.833540 0.000000 0.000000 
#    y 0.000000 1.865660 0.000000 
#    z 0.000000 0.000000 1.836640 
# 
# From -- ./inp_files/16061.got.cif
#   From: 2010.03.12/outbox.cif.g09.slc.cpg/sg73_9_cif.got.tgz:16061.got - 2010.04.16 15:25:48.
