data_PCOD8295729
_publ_section_title
;
Structure prediction by ZEFSAII (Michael W. Deem and Ramdas Pophale) SiO2 
 PCOD8295729
Probable space group: I B C A 
;
_chemical_formula_sum "Si O2"
_cell_formula_units_Z 128
_cell_length_a 11.071862
_cell_length_b 24.039552
_cell_length_c 25.471542
_cell_angle_alpha 90.000000
_cell_angle_beta 90.000000
_cell_angle_gamma 90.000000
_cell_volume 6779.571903
_symmetry_space_group_name_H-M "I B C A "
_symmetry_group_IT_number 73
_symmetry_cell_setting 'orthorhombic'
loop_
_space_group_symop_operation_xyz
x,y,z
-x,1/2-y,z
x,-y,1/2-z
1/2-x,y,-z
-x,-y,-z
x,1/2+y,-z
-x,y,1/2+z
1/2+x,-y,z
1/2+x,1/2+y,1/2+z
1/2-x,-y,1/2+z
1/2+x,1/2-y,-z
-x,1/2+y,1/2-z
1/2-x,1/2-y,1/2-z
1/2+x,y,1/2-z
1/2-x,1/2+y,z
x,1/2-y,1/2+z
loop_
_atom_site_type_symbol
_atom_site_label
_atom_site_fract_x
_atom_site_fract_y
_atom_site_fract_z
Si Si1 0.621354 0.932419 0.892726
Si Si2 0.223566 0.843685 0.438929
Si Si3 0.699743 0.446670 0.394492
Si Si4 0.100684 0.618684 0.549556
Si Si5 0.720742 0.059390 0.222442
Si Si6 0.945375 0.853633 0.430969
Si Si7 0.762015 0.723167 0.061708
Si Si8 0.045258 0.561910 0.227091
O O1 0.737882 0.893050 0.899724
O O2 0.525304 0.903222 0.929983
O O3 0.574380 0.937695 0.834059
O O4 0.653751 0.993440 0.913513
O O5 0.250000 0.857794 0.500000
O O6 0.287118 0.786195 0.418802
O O7 0.082190 0.835112 0.429973
O O8 0.794661 0.424897 0.437145
O O9 0.768885 0.450063 0.339350
O O10 0.584786 0.404747 0.391318
O O11 0.095592 0.624095 0.487551
O O12 0.130491 0.679582 0.575416
O O13 0.840808 0.092784 0.243739
O O14 0.589860 0.088880 0.234866
O O15 0.722911 0.000000 0.250000
O O16 0.863697 0.800598 0.414880
O O17 0.750000 0.729233 0.000000
O O18 0.037298 0.500000 0.250000
#
# Coordination Sequence:
#
# PCOD8295729 Si02
#       8
#    16  16  16  16  16  16  16  16
#     4  12  23  34  55  86 123 152 194 241 292 356
#     4  11  22  35  55  87 116 152 202 251 287 334
#     4  11  22  35  56  81 118 162 189 233 289 367
#     4  10  21  39  54  81 120 162 197 234 292 346
#     4  10  19  35  57  79 107 148 200 242 293 342
#     4  10  21  38  56  80 117 164 203 230 287 346
#     4   8  18  37  60  77 108 155 206 249 282 332
#     4  10  20  36  57  80 111 151 193 250 291 353
#
# _framework density 18.880248999999999
#
# number of rings (size 3 to 8) (size 9 to 14) (size 15 to 20)
#    0.000    1.750    5.000    1.500    1.750    3.000 
#    0.000    0.000    0.000    0.000    0.000    3.500 
#    7.500    0.000    0.000    0.000    0.000    0.000 
#
# Total GULP energy -792897.331031 kJ/mol
# GULP energy per Si atom -12389.020797 kJ/mol
# Density = 1.883728 g / cm^3
# Si number density = 18.880249 Si / 1000 Ang^3
#
#
#
# Elastic Constant Matrix: (Units=GPa)
#
#
# Indices 1 2 3 4 5 6 
#
# 1 113.2724 21.8123 14.1140 0.0000 0.0000 0.0000
# 2 21.8123 101.2597 17.0851 0.0000 0.0000 0.0000
# 3 14.1140 17.0851 54.5861 0.0000 0.0000 0.0000
# 4 0.0000 0.0000 0.0000 5.3885 0.0000 0.0000
# 5 0.0000 0.0000 0.0000 0.0000 196.4878 0.0000
# 6 0.0000 0.0000 0.0000 0.0000 0.0000 15.9768
#
#
#
# Elastic Compliance Matrix: (Units=1/GPa)
#
#
# Indices 1 2 3 4 5 6 
#
# 1 0.009392 -0.001703 -0.001895 0.000000 0.000000 0.000000
# 2 -0.001703 0.010735 -0.002920 0.000000 0.000000 0.000000
# 3 -0.001895 -0.002920 0.019724 0.000000 0.000000 0.000000
# 4 0.000000 0.000000 0.000000 0.185580 0.000000 0.000000
# 5 0.000000 0.000000 0.000000 0.000000 0.005089 0.000000
# 6 0.000000 0.000000 0.000000 0.000000 0.000000 0.062591
#
#
# Mechanical properties :
#
#
# Convention : Reuss Voigt Hill
#
# Bulk Modulus (GPa) = 37.29344 41.68234 39.48789
# Shear Modulus (GPa) = 15.86865 57.97773 36.92319
#
# Velocity S-wave (km/s) = 2.90227 5.54750 4.42707
# Velocity P-wave (km/s) = 5.57013 7.94721 6.86238
#
# Compressibility (1/GPa) = 0.02681437
#
# Stress axis : x y z
#
# Youngs Moduli (GPa) = 106.46827 93.15195 50.70076
#
# Poissons Ratio (x) = 0.15868 0.09610
# Poissons Ratio (y) = 0.18136 0.14803
# Poissons Ratio (z) = 0.20180 0.27197
#
# Static dielectric constant tensor:
#      x y z
#    x 4.253720 0.000000 0.000000 
#    y 0.000000 3.680970 0.000000 
#    z 0.000000 0.000000 3.320460 
# 
# 
# High freq. dielectric constant tensor:
#      x y z
#    x 1.757090 0.000000 0.000000 
#    y 0.000000 1.704980 0.000000 
#    z 0.000000 0.000000 1.703660 
# 
# From -- ./inp_files/29135.got.cif
#   From: 2010.03.12/outbox.cif.g09.slc.cpg/sg73_15_cif.got.tgz:29135.got - 2010.04.16 15:25:48.
