data_PCOD8295162
_publ_section_title
;
Structure prediction by ZEFSAII (Michael W. Deem and Ramdas Pophale) SiO2 
 PCOD8295162
Probable space group: I B A M
;
_chemical_formula_sum "Si O2"
_cell_formula_units_Z 92
_cell_length_a 8.740174
_cell_length_b 20.844404
_cell_length_c 23.236484
_cell_angle_alpha 90.000000
_cell_angle_beta 90.000000
_cell_angle_gamma 90.000000
_cell_volume 4233.309046
_symmetry_space_group_name_H-M "I B A M"
_symmetry_group_IT_number 72
_symmetry_cell_setting 'orthorhombic'
loop_
_space_group_symop_operation_xyz
x,y,z
-x,-y,z
x,-y,1/2-z
-x,y,1/2-z
-x,-y,-z
x,y,-z
-x,y,1/2+z
x,-y,1/2+z
1/2+x,1/2+y,1/2+z
1/2-x,1/2-y,1/2+z
1/2+x,1/2-y,-z
1/2-x,1/2+y,-z
1/2-x,1/2-y,1/2-z
1/2+x,1/2+y,1/2-z
1/2-x,1/2+y,z
1/2+x,1/2-y,z
loop_
_atom_site_type_symbol
_atom_site_label
_atom_site_fract_x
_atom_site_fract_y
_atom_site_fract_z
Si Si1 0.265440 0.712002 0.308386
Si Si2 0.000000 0.500000 0.883605
Si Si3 0.497463 0.755301 0.885254
Si Si4 0.500000 0.500000 0.750000
Si Si5 0.841219 0.620193 0.566453
Si Si6 0.218056 0.926493 0.165421
Si Si7 0.004880 0.124501 0.434811
O O1 0.250000 0.750000 0.250000
O O2 0.439697 0.723590 0.326319
O O3 0.177483 0.735717 0.366298
O O4 0.223617 0.637266 0.301512
O O5 0.062155 0.556080 0.924156
O O6 0.137441 0.472839 0.844323
O O7 0.577448 0.822403 0.899643
O O8 0.515472 0.702392 0.935445
O O9 0.602091 0.457212 0.709236
O O10 0.841683 0.639384 0.500000
O O11 0.666691 0.606967 0.586966
O O12 0.131090 0.909459 0.105462
O O13 0.034467 0.100317 0.500000
#
# Coordination Sequence:
#
# PCOD8295162 Si02
#       7
#    16   8  16   4  16  16  16
#     4  11  24  41  68 100 131 172 223 290 355 412
#     4  12  25  47  64 100 138 178 234 280 334 408
#     4  11  21  42  64 101 135 169 226 284 352 420
#     4  12  28  50  70  96 140 194 236 276 340 418
#     4  11  23  40  65  97 138 181 223 279 345 415
#     4  11  27  47  71 100 138 184 233 290 339 414
#     4  10  23  44  71 100 136 180 228 288 356 420
#
# _framework density 21.732408
#
# number of rings (size 3 to 8) (size 9 to 14) (size 15 to 20)
#    0.000    1.043    3.478    2.348    4.870    3.130 
#    3.130    2.174    0.000    0.000    0.000    0.000 
#    0.000    0.000    0.000    0.000    0.000    0.000 
#
# Total GULP energy -570207.843880 kJ/mol
# GULP energy per Si atom -12395.822693 kJ/mol
# Density = 2.168294 g / cm^3
# Si number density = 21.732408 Si / 1000 Ang^3
#
#
#
# Elastic Constant Matrix: (Units=GPa)
#
#
# Indices 1 2 3 4 5 6 
#
# 1 112.9998 47.2601 43.9455 0.0000 0.0000 0.0000
# 2 47.2601 114.1629 39.5898 0.0000 0.0000 0.0000
# 3 43.9455 39.5898 100.3631 0.0000 0.0000 0.0000
# 4 0.0000 0.0000 0.0000 38.9130 0.0000 0.0000
# 5 0.0000 0.0000 0.0000 0.0000 55.1316 0.0000
# 6 0.0000 0.0000 0.0000 0.0000 0.0000 40.2217
#
#
#
# Elastic Compliance Matrix: (Units=1/GPa)
#
#
# Indices 1 2 3 4 5 6 
#
# 1 0.011811 -0.003586 -0.003757 0.000000 0.000000 0.000000
# 2 -0.003586 0.011237 -0.002862 0.000000 0.000000 0.000000
# 3 -0.003757 -0.002862 0.012738 0.000000 0.000000 0.000000
# 4 0.000000 0.000000 0.000000 0.025698 0.000000 0.000000
# 5 0.000000 0.000000 0.000000 0.000000 0.018138 0.000000
# 6 0.000000 0.000000 0.000000 0.000000 0.000000 0.024862
#
#
# Mechanical properties :
#
#
# Convention : Reuss Voigt Hill
#
# Bulk Modulus (GPa) = 65.04301 65.45740 65.25020
# Shear Modulus (GPa) = 38.45591 39.96863 39.21227
#
# Velocity S-wave (km/s) = 4.21113 4.29316 4.25234
# Velocity P-wave (km/s) = 7.32385 7.40000 7.36203
#
# Compressibility (1/GPa) = 0.01537444
#
# Stress axis : x y z
#
# Youngs Moduli (GPa) = 84.67036 88.99469 78.50692
#
# Poissons Ratio (x) = 0.31918 0.29493
# Poissons Ratio (y) = 0.30367 0.22469
# Poissons Ratio (z) = 0.31808 0.25471
#
# Static dielectric constant tensor:
#      x y z
#    x 4.182290 0.000000 0.000000 
#    y 0.000000 4.032430 0.000000 
#    z 0.000000 0.000000 3.742270 
# 
# 
# High freq. dielectric constant tensor:
#      x y z
#    x 1.870850 0.000000 0.000000 
#    y 0.000000 1.864000 0.000000 
#    z 0.000000 0.000000 1.843230 
# 
# From -- ./inp_files/42322.got.cif
#   From: 2010.03.12/outbox.cif.g09.slc.cpg/sg72_22_cif.got.tgz:42322.got - 2010.04.16 14:54:00.
