data_PCOD8295040
_publ_section_title
;
Structure prediction by ZEFSAII (Michael W. Deem and Ramdas Pophale) SiO2 
 PCOD8295040
Probable space group: I B A M
;
_chemical_formula_sum "Si O2"
_cell_formula_units_Z 88
_cell_length_a 17.508118
_cell_length_b 9.386139
_cell_length_c 23.977752
_cell_angle_alpha 90.000000
_cell_angle_beta 90.000000
_cell_angle_gamma 90.000000
_cell_volume 3940.351006
_symmetry_space_group_name_H-M "I B A M"
_symmetry_group_IT_number 72
_symmetry_cell_setting 'orthorhombic'
loop_
_space_group_symop_operation_xyz
x,y,z
-x,-y,z
x,-y,1/2-z
-x,y,1/2-z
-x,-y,-z
x,y,-z
-x,y,1/2+z
x,-y,1/2+z
1/2+x,1/2+y,1/2+z
1/2-x,1/2-y,1/2+z
1/2+x,1/2-y,-z
1/2-x,1/2+y,-z
1/2-x,1/2-y,1/2-z
1/2+x,1/2+y,1/2-z
1/2-x,1/2+y,z
1/2+x,1/2-y,z
loop_
_atom_site_type_symbol
_atom_site_label
_atom_site_fract_x
_atom_site_fract_y
_atom_site_fract_z
Si Si1 0.696513 0.754550 0.500000
Si Si2 0.923518 0.436176 0.847946
Si Si3 0.312576 0.180877 0.623311
Si Si4 0.866251 0.851168 0.613445
Si Si5 0.341263 0.562326 0.500000
Si Si6 0.000000 0.724080 0.250000
Si Si7 0.122218 0.921393 0.303999
O O1 0.656780 0.803247 0.558738
O O2 0.703869 0.585050 0.500000
O O3 0.782707 0.806742 0.500000
O O4 0.860402 0.560095 0.844319
O O5 0.892205 0.311446 0.886725
O O6 0.944164 0.376010 0.786527
O O7 0.000000 0.500000 0.875834
O O8 0.224663 0.135633 0.622848
O O9 0.318960 0.327779 0.658965
O O10 0.892464 0.920227 0.554928
O O11 0.908533 0.944618 0.660147
O O12 0.050404 0.823609 0.289496
O O13 0.160518 0.000000 0.250000
#
# Coordination Sequence:
#
# PCOD8295040 Si02
#       7
#     8  16  16  16   8   8  16
#     4  10  22  42  74 105 145 186 229 288 365 430
#     4  12  26  45  72 100 142 191 237 288 358 429
#     4  11  25  45  72 107 144 183 236 297 354 421
#     4  11  25  45  72 107 140 184 238 296 355 421
#     4  10  22  42  72 105 145 185 228 287 364 428
#     4  12  26  46  68  92 138 200 236 282 366 438
#     4  12  24  42  69  97 136 189 237 285 347 425
#
# _framework density 22.333037000000001
#
# number of rings (size 3 to 8) (size 9 to 14) (size 15 to 20)
#    0.000    0.727    5.455    1.636    7.636    0.727 
#    3.273    1.818    0.000    2.182    0.000    0.000 
#    0.000    0.000    0.000    0.000    0.000    0.000 
#
# Total GULP energy -545377.905565 kJ/mol
# GULP energy per Si atom -12394.952399 kJ/mol
# Density = 2.228221 g / cm^3
# Si number density = 22.333037 Si / 1000 Ang^3
#
#
#
# Elastic Constant Matrix: (Units=GPa)
#
#
# Indices 1 2 3 4 5 6 
#
# 1 81.9002 36.9566 31.9121 0.0000 0.0000 0.0000
# 2 36.9566 149.7517 65.7559 0.0000 0.0000 0.0000
# 3 31.9121 65.7559 165.4076 0.0000 0.0000 0.0000
# 4 0.0000 0.0000 0.0000 39.3383 0.0000 0.0000
# 5 0.0000 0.0000 0.0000 0.0000 10.6643 0.0000
# 6 0.0000 0.0000 0.0000 0.0000 0.0000 45.6343
#
#
#
# Elastic Compliance Matrix: (Units=1/GPa)
#
#
# Indices 1 2 3 4 5 6 
#
# 1 0.014089 -0.002766 -0.001618 0.000000 0.000000 0.000000
# 2 -0.002766 0.008633 -0.002898 0.000000 0.000000 0.000000
# 3 -0.001618 -0.002898 0.007510 0.000000 0.000000 0.000000
# 4 0.000000 0.000000 0.000000 0.025421 0.000000 0.000000
# 5 0.000000 0.000000 0.000000 0.000000 0.093771 0.000000
# 6 0.000000 0.000000 0.000000 0.000000 0.000000 0.021913
#
#
# Mechanical properties :
#
#
# Convention : Reuss Voigt Hill
#
# Bulk Modulus (GPa) = 63.83255 74.03429 68.93342
# Shear Modulus (GPa) = 26.16089 36.62304 31.39196
#
# Velocity S-wave (km/s) = 3.42628 4.05391 3.75324
# Velocity P-wave (km/s) = 6.65558 7.42525 7.05092
#
# Compressibility (1/GPa) = 0.01566599
#
# Stress axis : x y z
#
# Youngs Moduli (GPa) = 70.97805 115.83439 133.15418
#
# Poissons Ratio (x) = 0.32043 0.21551
# Poissons Ratio (y) = 0.19634 0.38592
# Poissons Ratio (z) = 0.11488 0.33572
#
# Static dielectric constant tensor:
#      x y z
#    x 3.626540 0.000000 0.000000 
#    y 0.000000 4.380520 0.000000 
#    z 0.000000 0.000000 4.777210 
# 
# 
# High freq. dielectric constant tensor:
#      x y z
#    x 1.840240 0.000000 0.000000 
#    y 0.000000 1.910500 0.000000 
#    z 0.000000 0.000000 1.889840 
# 
# From -- ./inp_files/45298.got.cif
#   From: 2010.03.12/outbox.cif.g09.slc.cpg/sg72_23_cif.got.tgz:45298.got - 2010.04.16 14:54:00.
