data_PCOD8295281
_publ_section_title
;
Structure prediction by ZEFSAII (Michael W. Deem and Ramdas Pophale) SiO2 
 PCOD8295281
Probable space group: I B A M
;
_chemical_formula_sum "Si O2"
_cell_formula_units_Z 96
_cell_length_a 20.459854
_cell_length_b 29.669994
_cell_length_c 9.112674
_cell_angle_alpha 90.000000
_cell_angle_beta 90.000000
_cell_angle_gamma 90.000000
_cell_volume 5531.791756
_symmetry_space_group_name_H-M "I B A M"
_symmetry_group_IT_number 72
_symmetry_cell_setting 'orthorhombic'
loop_
_space_group_symop_operation_xyz
x,y,z
-x,-y,z
x,-y,1/2-z
-x,y,1/2-z
-x,-y,-z
x,y,-z
-x,y,1/2+z
x,-y,1/2+z
1/2+x,1/2+y,1/2+z
1/2-x,1/2-y,1/2+z
1/2+x,1/2-y,-z
1/2-x,1/2+y,-z
1/2-x,1/2-y,1/2-z
1/2+x,1/2+y,1/2-z
1/2-x,1/2+y,z
1/2+x,1/2-y,z
loop_
_atom_site_type_symbol
_atom_site_label
_atom_site_fract_x
_atom_site_fract_y
_atom_site_fract_z
Si Si1 0.311477 0.272165 0.671786
Si Si2 0.264997 0.370079 0.332651
Si Si3 0.433655 0.771516 0.673397
Si Si4 0.267870 0.543287 0.665286
Si Si5 0.612005 0.956526 0.334354
Si Si6 0.115753 0.369044 0.330829
O O1 0.311547 0.258695 0.500000
O O2 0.250000 0.250000 0.750000
O O3 0.308522 0.325965 0.691251
O O4 0.376471 0.256470 0.751643
O O5 0.266499 0.386526 0.500000
O O6 0.294641 0.410641 0.236533
O O7 0.190622 0.358820 0.286114
O O8 0.500000 0.755294 0.750000
O O9 0.434611 0.761424 0.500000
O O10 0.425107 0.824499 0.704948
O O11 0.296407 0.500000 0.750000
O O12 0.293509 0.540911 0.500000
O O13 0.189927 0.543109 0.674225
O O14 0.586360 0.958352 0.500000
O O15 0.585872 0.910479 0.261386
O O16 0.583460 0.000000 0.250000
O O17 0.110911 0.382830 0.500000
#
# Coordination Sequence:
#
# PCOD8295281 Si02
#       6
#    16  16  16  16  16  16
#     4  11  21  35  55  79 106 138 174 218 264 311
#     4   9  17  30  47  70  99 131 167 208 253 301
#     4  11  23  39  55  76 103 137 175 217 265 315
#     4   9  16  25  39  63  95 131 164 200 247 299
#     4   9  16  25  40  64  91 122 161 203 252 302
#     4   9  17  31  48  67  95 128 165 208 255 304
#
# _framework density 17.354233000000001
#
# number of rings (size 3 to 8) (size 9 to 14) (size 15 to 20)
#    0.000    2.333    1.667    2.000    0.000    6.667 
#    0.000    0.000    0.000    0.500    0.000    3.500 
#    0.000    0.667    0.000    7.000    0.000    3.333 
#
# Total GULP energy -595232.493033 kJ/mol
# GULP energy per Si atom -12400.676938 kJ/mol
# Density = 1.731473 g / cm^3
# Si number density = 17.354233 Si / 1000 Ang^3
#
#
#
# Elastic Constant Matrix: (Units=GPa)
#
#
# Indices 1 2 3 4 5 6 
#
# 1 72.1451 35.8085 44.7160 0.0000 0.0000 0.0000
# 2 35.8085 96.7065 70.8303 0.0000 0.0000 0.0000
# 3 44.7160 70.8303 134.7452 0.0000 -0.0001 0.0000
# 4 0.0000 0.0000 0.0000 37.2208 0.0000 0.0000
# 5 0.0000 0.0000 -0.0001 0.0000 19.0998 0.0000
# 6 0.0000 0.0000 0.0000 0.0000 0.0000 10.5371
#
#
#
# Elastic Compliance Matrix: (Units=1/GPa)
#
#
# Indices 1 2 3 4 5 6 
#
# 1 0.018261 -0.003778 -0.004074 0.000000 0.000000 0.000000
# 2 -0.003778 0.017596 -0.007996 0.000000 0.000000 0.000000
# 3 -0.004074 -0.007996 0.012977 0.000000 0.000000 0.000000
# 4 0.000000 0.000000 0.000000 0.026867 0.000000 0.000000
# 5 0.000000 0.000000 0.000000 0.000000 0.052357 0.000000
# 6 0.000000 0.000000 0.000000 0.000000 0.000000 0.094903
#
#
# Mechanical properties :
#
#
# Convention : Reuss Voigt Hill
#
# Bulk Modulus (GPa) = 58.34971 67.36738 62.85854
# Shear Modulus (GPa) = 19.20362 23.52101 21.36232
#
# Velocity S-wave (km/s) = 3.33012 3.68550 3.51231
# Velocity P-wave (km/s) = 6.96290 7.55075 7.26277
#
# Compressibility (1/GPa) = 0.01713805
#
# Stress axis : x y z
#
# Youngs Moduli (GPa) = 54.76076 56.83249 77.06223
#
# Poissons Ratio (x) = 0.21469 0.31398
# Poissons Ratio (y) = 0.20686 0.61616
# Poissons Ratio (z) = 0.22312 0.45441
#
# Static dielectric constant tensor:
#      x y z
#    x 2.576930 0.000000 0.000000 
#    y 0.000000 3.349240 0.000000 
#    z 0.000000 0.000000 3.382350 
# 
# 
# High freq. dielectric constant tensor:
#      x y z
#    x 1.610230 0.000000 0.000000 
#    y 0.000000 1.677700 0.000000 
#    z 0.000000 0.000000 1.685060 
# 
# From -- ./inp_files/5942.got.cif
#   From: 2010.03.12/outbox.cif.g09.slc.cpg/sg72_3_cif.got.tgz:5942.got - 2010.04.16 14:54:00.
