data_PCOD8295113
_publ_section_title
;
Structure prediction by ZEFSAII (Michael W. Deem and Ramdas Pophale) SiO2 
 PCOD8295113
Probable space group: I B A M
;
_chemical_formula_sum "Si O2"
_cell_formula_units_Z 88
_cell_length_a 9.855763
_cell_length_b 14.542309
_cell_length_c 28.718466
_cell_angle_alpha 90.000000
_cell_angle_beta 90.000000
_cell_angle_gamma 90.000000
_cell_volume 4116.089963
_symmetry_space_group_name_H-M "I B A M"
_symmetry_group_IT_number 72
_symmetry_cell_setting 'orthorhombic'
loop_
_space_group_symop_operation_xyz
x,y,z
-x,-y,z
x,-y,1/2-z
-x,y,1/2-z
-x,-y,-z
x,y,-z
-x,y,1/2+z
x,-y,1/2+z
1/2+x,1/2+y,1/2+z
1/2-x,1/2-y,1/2+z
1/2+x,1/2-y,-z
1/2-x,1/2+y,-z
1/2-x,1/2-y,1/2-z
1/2+x,1/2+y,1/2-z
1/2-x,1/2+y,z
1/2+x,1/2-y,z
loop_
_atom_site_type_symbol
_atom_site_label
_atom_site_fract_x
_atom_site_fract_y
_atom_site_fract_z
Si Si1 0.689423 0.918254 0.090652
Si Si2 0.140819 0.661486 0.000000
Si Si3 0.500000 0.000000 0.667028
Si Si4 0.699980 0.257507 0.356727
Si Si5 0.397820 0.566764 0.411177
Si Si6 0.968120 0.155721 0.500000
Si Si7 0.950523 0.691610 0.800192
O O1 0.594481 0.892751 0.046605
O O2 0.757420 0.821225 0.108190
O O3 0.617176 0.960654 0.134971
O O4 0.786558 0.995860 0.069774
O O5 0.306035 0.675760 0.000000
O O6 0.057595 0.753736 0.000000
O O7 0.442183 0.080732 0.699754
O O8 0.678398 0.353991 0.382803
O O9 0.803137 0.268602 0.313502
O O10 0.553568 0.226745 0.339049
O O11 0.500000 0.500000 0.380552
O O12 0.488941 0.601954 0.453738
O O13 0.000000 0.727519 0.750000
#
# Coordination Sequence:
#
# PCOD8295113 Si02
#       7
#    16   8   8  16  16   8  16
#     4  11  23  41  65  96 133 172 225 266 333 385
#     4  12  25  41  64  97 135 181 222 280 322 388
#     4  10  23  41  68  94 124 178 220 267 333 404
#     4  11  24  41  70  98 130 175 218 272 334 402
#     4  12  22  41  67  94 131 176 224 269 327 391
#     4  12  26  39  65  94 134 179 226 270 326 389
#     4  11  23  43  67  99 131 169 217 277 339 403
#
# _framework density 21.379512999999999
#
# number of rings (size 3 to 8) (size 9 to 14) (size 15 to 20)
#    0.000    0.727    5.455    2.727    0.000    1.818 
#    0.000    0.000    0.000    1.091    0.000    0.000 
#    0.000    0.000    0.000    0.000    0.000    0.000 
#
# Total GULP energy -545212.397622 kJ/mol
# GULP energy per Si atom -12391.190855 kJ/mol
# Density = 2.133085 g / cm^3
# Si number density = 21.379513 Si / 1000 Ang^3
#
#
#
# Elastic Constant Matrix: (Units=GPa)
#
#
# Indices 1 2 3 4 5 6 
#
# 1 61.1162 16.8163 -2.4576 0.0000 0.0000 0.0000
# 2 16.8163 120.5487 16.3186 0.0000 0.0000 0.0000
# 3 -2.4576 16.3186 79.4616 0.0000 0.0000 0.0000
# 4 0.0000 0.0000 0.0000 6.5878 0.0000 0.0000
# 5 0.0000 0.0000 0.0000 0.0000 12.1455 0.0000
# 6 0.0000 0.0000 0.0000 0.0000 0.0000 30.2186
#
#
#
# Elastic Compliance Matrix: (Units=1/GPa)
#
#
# Indices 1 2 3 4 5 6 
#
# 1 0.017100 -0.002527 0.001048 0.000000 0.000000 0.000000
# 2 -0.002527 0.008906 -0.001907 0.000000 0.000000 0.000000
# 3 0.001048 -0.001907 0.013009 0.000000 0.000000 0.000000
# 4 0.000000 0.000000 0.000000 0.151797 0.000000 0.000000
# 5 0.000000 0.000000 0.000000 0.000000 0.082335 0.000000
# 6 0.000000 0.000000 0.000000 0.000000 0.000000 0.033092
#
#
# Mechanical properties :
#
#
# Convention : Reuss Voigt Hill
#
# Bulk Modulus (GPa) = 31.01585 35.83126 33.42355
# Shear Modulus (GPa) = 15.44361 25.15367 20.29864
#
# Velocity S-wave (km/s) = 2.69058 3.43378 3.08465
# Velocity P-wave (km/s) = 4.91844 5.70238 5.32486
#
# Compressibility (1/GPa) = 0.03224158
#
# Stress axis : x y z
#
# Youngs Moduli (GPa) = 58.48030 112.28242 76.87127
#
# Poissons Ratio (x) = 0.28376 -0.08055
# Poissons Ratio (y) = 0.14779 0.14661
# Poissons Ratio (z) = -0.06128 0.21414
#
# Static dielectric constant tensor:
#      x y z
#    x 3.800550 0.000000 0.000000 
#    y 0.000000 4.323980 0.000000 
#    z 0.000000 0.000000 3.693580 
# 
# 
# High freq. dielectric constant tensor:
#      x y z
#    x 1.831930 0.000000 0.000000 
#    y 0.000000 1.863140 0.000000 
#    z 0.000000 0.000000 1.825840 
# 
# From -- ./inp_files/43261.got.cif
#   From: 2010.03.12/outbox.cif.g09.slc.cpg/sg72_22_cif.got.tgz:43261.got - 2010.04.16 14:54:00.
