data_PCOD8295354
_publ_section_title
;
Structure prediction by ZEFSAII (Michael W. Deem and Ramdas Pophale) SiO2 
 PCOD8295354
Probable space group: I B A M
;
_chemical_formula_sum "Si O2"
_cell_formula_units_Z 64
_cell_length_a 8.411382
_cell_length_b 19.457808
_cell_length_c 15.206349
_cell_angle_alpha 90.000000
_cell_angle_beta 90.000000
_cell_angle_gamma 90.000000
_cell_volume 2488.778373
_symmetry_space_group_name_H-M "I B A M"
_symmetry_group_IT_number 72
_symmetry_cell_setting 'orthorhombic'
loop_
_space_group_symop_operation_xyz
x,y,z
-x,-y,z
x,-y,1/2-z
-x,y,1/2-z
-x,-y,-z
x,y,-z
-x,y,1/2+z
x,-y,1/2+z
1/2+x,1/2+y,1/2+z
1/2-x,1/2-y,1/2+z
1/2+x,1/2-y,-z
1/2-x,1/2+y,-z
1/2-x,1/2-y,1/2-z
1/2+x,1/2+y,1/2-z
1/2-x,1/2+y,z
1/2+x,1/2-y,z
loop_
_atom_site_type_symbol
_atom_site_label
_atom_site_fract_x
_atom_site_fract_y
_atom_site_fract_z
Si Si1 0.312483 0.325735 0.097881
Si Si2 0.619314 0.296284 0.167280
Si Si3 0.142666 0.595240 0.902067
Si Si4 0.310429 0.042149 0.659111
O O1 0.494559 0.300424 0.086536
O O2 0.211345 0.276201 0.162945
O O3 0.324444 0.400703 0.144762
O O4 0.236665 0.328918 0.000000
O O5 0.500000 0.302937 0.250000
O O6 0.749508 0.356981 0.160655
O O7 0.213428 0.518113 0.912694
O O8 0.972288 0.586081 0.854945
O O9 0.129031 0.627967 0.000000
O O10 0.306377 0.000000 0.750000
#
# Coordination Sequence:
#
# PCOD8295354 Si02
#       4
#    16  16  16  16
#     4  12  25  46  72 104 143 190 238 292 352 420
#     4  12  27  45  71 108 145 187 236 292 353 419
#     4  11  22  42  68 100 138 185 234 286 346 416
#     4  11  24  43  70 102 139 184 234 290 350 417
#
# _framework density 25.715429
#
# number of rings (size 3 to 8) (size 9 to 14) (size 15 to 20)
#    0.000    0.500    0.000   10.500    0.000    5.000 
#    0.000    6.250    0.000    0.000    0.000    0.000 
#    0.000    0.000    0.000    0.000    0.000    0.000 
#
# Total GULP energy -396464.743703 kJ/mol
# GULP energy per Si atom -12389.523241 kJ/mol
# Density = 2.565690 g / cm^3
# Si number density = 25.715429 Si / 1000 Ang^3
#
#
#
# Elastic Constant Matrix: (Units=GPa)
#
#
# Indices 1 2 3 4 5 6 
#
# 1 79.0785 42.0903 10.3465 0.0000 0.0000 0.0000
# 2 42.0903 140.6371 7.6083 0.0000 0.0000 0.0000
# 3 10.3465 7.6083 118.5930 0.0001 0.0000 0.0000
# 4 0.0000 0.0000 0.0001 36.3196 0.0000 0.0000
# 5 0.0000 0.0000 0.0000 0.0000 31.9628 0.0000
# 6 0.0000 0.0000 0.0000 0.0000 0.0000 52.9995
#
#
#
# Elastic Compliance Matrix: (Units=1/GPa)
#
#
# Indices 1 2 3 4 5 6 
#
# 1 0.015167 -0.004483 -0.001036 0.000000 0.000000 0.000000
# 2 -0.004483 0.008460 -0.000152 0.000000 0.000000 0.000000
# 3 -0.001036 -0.000152 0.008532 0.000000 0.000000 0.000000
# 4 0.000000 0.000000 0.000000 0.027533 0.000000 0.000000
# 5 0.000000 0.000000 0.000000 0.000000 0.031286 0.000000
# 6 0.000000 0.000000 0.000000 0.000000 0.000000 0.018868
#
#
# Mechanical properties :
#
#
# Convention : Reuss Voigt Hill
#
# Bulk Modulus (GPa) = 48.03304 50.93322 49.48313
# Shear Modulus (GPa) = 39.02320 42.80729 40.91524
#
# Velocity S-wave (km/s) = 3.89974 4.08444 3.99316
# Velocity P-wave (km/s) = 6.24472 6.48792 6.36748
#
# Compressibility (1/GPa) = 0.02081900
#
# Stress axis : x y z
#
# Youngs Moduli (GPa) = 65.93063 118.19646 117.20197
#
# Poissons Ratio (x) = 0.52991 0.12138
# Poissons Ratio (y) = 0.29559 0.01777
# Poissons Ratio (z) = 0.06828 0.01792
#
# Static dielectric constant tensor:
#      x y z
#    x 4.932800 0.000000 0.000000 
#    y 0.000000 5.042420 0.000000 
#    z 0.000000 0.000000 4.927830 
# 
# 
# High freq. dielectric constant tensor:
#      x y z
#    x 2.016570 0.000000 0.000000 
#    y 0.000000 2.040290 0.000000 
#    z 0.000000 0.000000 2.042830 
# 
# From -- ./inp_files/19682.got.cif
#   From: 2010.03.12/outbox.cif.g09.slc.cpg/sg72_10_cif.got.tgz:19682.got - 2010.04.16 14:54:00.
