data_PCOD8295849
_publ_section_title
;
Structure prediction by ZEFSAII (Michael W. Deem and Ramdas Pophale) SiO2 
 PCOD8295849
Probable space group: I B C A 
;
_chemical_formula_sum "Si O2"
_cell_formula_units_Z 64
_cell_length_a 20.136607
_cell_length_b 16.536288
_cell_length_c 8.594691
_cell_angle_alpha 90.000000
_cell_angle_beta 90.000000
_cell_angle_gamma 90.000000
_cell_volume 2861.900885
_symmetry_space_group_name_H-M "I B C A "
_symmetry_group_IT_number 73
_symmetry_cell_setting 'orthorhombic'
loop_
_space_group_symop_operation_xyz
x,y,z
-x,1/2-y,z
x,-y,1/2-z
1/2-x,y,-z
-x,-y,-z
x,1/2+y,-z
-x,y,1/2+z
1/2+x,-y,z
1/2+x,1/2+y,1/2+z
1/2-x,-y,1/2+z
1/2+x,1/2-y,-z
-x,1/2+y,1/2-z
1/2-x,1/2-y,1/2-z
1/2+x,y,1/2-z
1/2-x,1/2+y,z
x,1/2-y,1/2+z
loop_
_atom_site_type_symbol
_atom_site_label
_atom_site_fract_x
_atom_site_fract_y
_atom_site_fract_z
Si Si1 0.685702 0.800137 0.909958
Si Si2 0.451392 0.423134 0.856861
Si Si3 0.814946 0.134616 0.062481
Si Si4 0.459607 0.668669 0.934900
O O1 0.694299 0.822556 0.729602
O O2 0.617393 0.833281 0.987065
O O3 0.750000 0.835071 0.000000
O O4 0.678759 0.703546 0.929894
O O5 0.463388 0.500000 0.750000
O O6 0.378024 0.425125 0.934508
O O7 0.459638 0.342729 0.751116
O O8 0.506829 0.411597 0.989473
O O9 0.750000 0.084683 0.000000
O O10 0.500000 0.750000 0.976878
#
# Coordination Sequence:
#
# PCOD8295849 Si02
#       4
#    16  16  16  16
#     4  10  20  34  59  93 118 154 206 264 312 359
#     4  11  24  40  60  92 130 167 207 258 323 380
#     4  10  20  36  59  88 122 159 203 256 312 373
#     4  11  22  39  64  90 120 164 214 261 312 379
#
# _framework density 22.362760000000002
#
# number of rings (size 3 to 8) (size 9 to 14) (size 15 to 20)
#    0.000    1.500    2.500    4.500    3.500    2.000 
#    0.000    5.000    0.000    3.000    0.000    0.000 
#    0.000    0.000    0.000    0.000    0.000    0.000 
#
# Total GULP energy -396494.071116 kJ/mol
# GULP energy per Si atom -12390.439722 kJ/mol
# Density = 2.231186 g / cm^3
# Si number density = 22.362760 Si / 1000 Ang^3
#
#
#
# Elastic Constant Matrix: (Units=GPa)
#
#
# Indices 1 2 3 4 5 6 
#
# 1 203.8017 36.4627 61.9799 0.0000 0.0000 0.0000
# 2 36.4627 43.9445 15.6988 0.0000 0.0000 0.0000
# 3 61.9799 15.6988 68.3470 0.0000 0.0000 0.0000
# 4 0.0000 0.0000 0.0000 24.0026 0.0000 0.0000
# 5 0.0000 0.0000 0.0000 0.0000 41.5922 0.0000
# 6 0.0000 0.0000 0.0000 0.0000 0.0000 22.2548
#
#
#
# Elastic Compliance Matrix: (Units=1/GPa)
#
#
# Indices 1 2 3 4 5 6 
#
# 1 0.007388 -0.004071 -0.005765 0.000000 0.000000 0.000000
# 2 -0.004071 0.027033 -0.002518 0.000000 0.000000 0.000000
# 3 -0.005765 -0.002518 0.020437 0.000000 0.000000 0.000000
# 4 0.000000 0.000000 0.000000 0.041662 0.000000 0.000000
# 5 0.000000 0.000000 0.000000 0.000000 0.024043 0.000000
# 6 0.000000 0.000000 0.000000 0.000000 0.000000 0.044934
#
#
# Mechanical properties :
#
#
# Convention : Reuss Voigt Hill
#
# Bulk Modulus (GPa) = 33.16541 60.48619 46.82580
# Shear Modulus (GPa) = 24.96805 31.03337 28.00071
#
# Velocity S-wave (km/s) = 3.34503 3.72926 3.54236
# Velocity P-wave (km/s) = 5.45727 6.75645 6.14131
#
# Compressibility (1/GPa) = 0.03015190
#
# Stress axis : x y z
#
# Youngs Moduli (GPa) = 135.34912 36.99153 48.92986
#
# Poissons Ratio (x) = 0.15059 0.28208
# Poissons Ratio (y) = 0.55100 0.12319
# Poissons Ratio (z) = 0.78028 0.09313
#
# Static dielectric constant tensor:
#      x y z
#    x 4.633620 0.000000 0.000000 
#    y 0.000000 3.515960 0.000000 
#    z 0.000000 0.000000 4.037040 
# 
# 
# High freq. dielectric constant tensor:
#      x y z
#    x 1.906590 0.000000 0.000000 
#    y 0.000000 1.835930 0.000000 
#    z 0.000000 0.000000 1.884120 
# 
# From -- ./inp_files/5219.got.cif
#   From: 2010.03.12/outbox.cif.g09.slc.cpg/sg73_3_cif.got.tgz:5219.got - 2010.04.16 15:25:48.
