data_PCOD8295958
_publ_section_title
;
Structure prediction by ZEFSAII (Michael W. Deem and Ramdas Pophale) SiO2 
 PCOD8295958
Probable space group: I B C A 
;
_chemical_formula_sum "Si O2"
_cell_formula_units_Z 88
_cell_length_a 30.476716
_cell_length_b 12.072299
_cell_length_c 12.682943
_cell_angle_alpha 90.000000
_cell_angle_beta 90.000000
_cell_angle_gamma 90.000000
_cell_volume 4666.359477
_symmetry_space_group_name_H-M "I B C A "
_symmetry_group_IT_number 73
_symmetry_cell_setting 'orthorhombic'
loop_
_space_group_symop_operation_xyz
x,y,z
-x,1/2-y,z
x,-y,1/2-z
1/2-x,y,-z
-x,-y,-z
x,1/2+y,-z
-x,y,1/2+z
1/2+x,-y,z
1/2+x,1/2+y,1/2+z
1/2-x,-y,1/2+z
1/2+x,1/2-y,-z
-x,1/2+y,1/2-z
1/2-x,1/2-y,1/2-z
1/2+x,y,1/2-z
1/2-x,1/2+y,z
x,1/2-y,1/2+z
loop_
_atom_site_type_symbol
_atom_site_label
_atom_site_fract_x
_atom_site_fract_y
_atom_site_fract_z
Si Si1 0.459475 0.550126 0.363989
Si Si2 0.528912 0.342607 0.007900
Si Si3 0.674651 0.394441 0.389508
Si Si4 0.888714 0.796697 0.548954
Si Si5 0.250000 0.737414 0.500000
Si Si6 0.315670 0.147931 0.144991
O O1 0.462016 0.500000 0.250000
O O2 0.500145 0.633831 0.385413
O O3 0.465105 0.452436 0.444721
O O4 0.412349 0.607849 0.382604
O O5 0.500000 0.250000 0.944660
O O6 0.577379 0.301032 0.029023
O O7 0.629144 0.346159 0.437597
O O8 0.713379 0.344977 0.458240
O O9 0.684494 0.356510 0.270914
O O10 0.672337 0.527198 0.400757
O O11 0.850237 0.742553 0.616154
O O12 0.269028 0.815400 0.405880
#
# Coordination Sequence:
#
# PCOD8295958 Si02
#       6
#    16  16  16  16   8  16
#     4  10  21  37  57  84 111 150 202 239 292 349
#     4   9  20  38  55  79 113 151 189 241 288 340
#     4  10  21  37  58  85 118 151 194 239 294 360
#     4  10  21  37  57  83 118 150 191 243 294 349
#     4  10  20  38  62  82 118 150 196 244 290 352
#     4  10  21  37  58  88 114 156 192 238 302 349
#
# _framework density 18.858384000000001
#
# number of rings (size 3 to 8) (size 9 to 14) (size 15 to 20)
#    0.000    2.182    0.000    2.182    2.545    2.182 
#    9.818    0.000    8.000    0.000    0.000    0.000 
#    0.000    0.000    0.000    0.000    0.000    0.000 
#
# Total GULP energy -545286.360041 kJ/mol
# GULP energy per Si atom -12392.871819 kJ/mol
# Density = 1.881546 g / cm^3
# Si number density = 18.858384 Si / 1000 Ang^3
#
#
#
# Elastic Constant Matrix: (Units=GPa)
#
#
# Indices 1 2 3 4 5 6 
#
# 1 108.0265 46.2754 47.0112 0.0000 0.0000 0.0000
# 2 46.2754 115.1302 46.8417 0.0000 0.0000 0.0000
# 3 47.0112 46.8417 102.1970 0.0000 0.0000 0.0000
# 4 0.0000 0.0000 0.0000 15.0487 0.0000 0.0000
# 5 0.0000 0.0000 0.0000 0.0000 27.9070 0.0000
# 6 0.0000 0.0000 0.0000 0.0000 0.0000 36.1857
#
#
#
# Elastic Compliance Matrix: (Units=1/GPa)
#
#
# Indices 1 2 3 4 5 6 
#
# 1 0.012520 -0.003305 -0.004244 0.000000 0.000000 0.000000
# 2 -0.003305 0.011550 -0.003773 0.000000 0.000000 0.000000
# 3 -0.004244 -0.003773 0.013467 0.000000 0.000000 0.000000
# 4 0.000000 0.000000 0.000000 0.066451 0.000000 0.000000
# 5 0.000000 0.000000 0.000000 0.000000 0.035833 0.000000
# 6 0.000000 0.000000 0.000000 0.000000 0.000000 0.027635
#
#
# Mechanical properties :
#
#
# Convention : Reuss Voigt Hill
#
# Bulk Modulus (GPa) = 67.15631 67.29003 67.22317
# Shear Modulus (GPa) = 25.63248 28.17663 26.90456
#
# Velocity S-wave (km/s) = 3.69074 3.86957 3.78122
# Velocity P-wave (km/s) = 7.33828 7.46485 7.40183
#
# Compressibility (1/GPa) = 0.01489063
#
# Stress axis : x y z
#
# Youngs Moduli (GPa) = 79.87248 86.58330 74.25664
#
# Poissons Ratio (x) = 0.28620 0.31516
# Poissons Ratio (y) = 0.26402 0.28018
# Poissons Ratio (z) = 0.33899 0.32669
#
# Static dielectric constant tensor:
#      x y z
#    x 3.680290 0.000000 0.000000 
#    y 0.000000 3.763780 0.000000 
#    z 0.000000 0.000000 2.877810 
# 
# 
# High freq. dielectric constant tensor:
#      x y z
#    x 1.741030 0.000000 0.000000 
#    y 0.000000 1.756930 0.000000 
#    z 0.000000 0.000000 1.715450 
# 
# From -- ./inp_files/9848.got.cif
#   From: 2010.03.12/outbox.cif.g09.slc.cpg/sg73_5_cif.got.tgz:9848.got - 2010.04.16 15:25:48.
