data_PCOD8295897
_publ_section_title
;
Structure prediction by ZEFSAII (Michael W. Deem and Ramdas Pophale) SiO2 
 PCOD8295897
Probable space group: I B C A 
;
_chemical_formula_sum "Si O2"
_cell_formula_units_Z 72
_cell_length_a 20.117683
_cell_length_b 17.366716
_cell_length_c 10.341031
_cell_angle_alpha 90.000000
_cell_angle_beta 90.000000
_cell_angle_gamma 90.000000
_cell_volume 3612.929631
_symmetry_space_group_name_H-M "I B C A "
_symmetry_group_IT_number 73
_symmetry_cell_setting 'orthorhombic'
loop_
_space_group_symop_operation_xyz
x,y,z
-x,1/2-y,z
x,-y,1/2-z
1/2-x,y,-z
-x,-y,-z
x,1/2+y,-z
-x,y,1/2+z
1/2+x,-y,z
1/2+x,1/2+y,1/2+z
1/2-x,-y,1/2+z
1/2+x,1/2-y,-z
-x,1/2+y,1/2-z
1/2-x,1/2-y,1/2-z
1/2+x,y,1/2-z
1/2-x,1/2+y,z
x,1/2-y,1/2+z
loop_
_atom_site_type_symbol
_atom_site_label
_atom_site_fract_x
_atom_site_fract_y
_atom_site_fract_z
Si Si1 0.311005 0.304381 0.077807
Si Si2 0.250000 0.157530 0.000000
Si Si3 0.512759 0.914919 0.241242
Si Si4 0.836934 0.581782 0.301869
Si Si5 0.541849 0.172923 0.995854
O O1 0.318447 0.346342 0.212730
O O2 0.250000 0.344799 0.000000
O O3 0.291570 0.213821 0.097742
O O4 0.379907 0.309550 0.999579
O O5 0.301860 0.099626 0.935885
O O6 0.584706 0.922071 0.174614
O O7 0.518196 0.880274 0.385179
O O8 0.468131 0.864871 0.144831
O O9 0.480831 0.000000 0.250000
O O10 0.810366 0.500000 0.250000
O O11 0.500000 0.250000 0.004461
#
# Coordination Sequence:
#
# PCOD8295897 Si02
#       5
#    16   8  16  16  16
#     4   9  22  39  59  84 123 153 199 248 302 353
#     4  10  20  36  60  82 118 160 200 234 308 354
#     4  10  22  40  61  88 125 157 200 257 309 356
#     4  10  21  38  59  87 122 156 198 252 298 358
#     4  11  21  39  64  90 118 161 208 251 302 371
#
# _framework density 19.928426000000002
#
# number of rings (size 3 to 8) (size 9 to 14) (size 15 to 20)
#    0.667    1.333    0.000    3.333    1.556    1.778 
#    4.000    1.111    0.000    0.000    0.000    0.000 
#    0.000    0.000    0.000    0.000    0.000    0.000 
#
# Total GULP energy -446227.865374 kJ/mol
# GULP energy per Si atom -12395.218483 kJ/mol
# Density = 1.988307 g / cm^3
# Si number density = 19.928426 Si / 1000 Ang^3
#
#
#
# Elastic Constant Matrix: (Units=GPa)
#
#
# Indices 1 2 3 4 5 6 
#
# 1 96.8700 25.0615 20.5174 0.0000 0.0000 0.0000
# 2 25.0615 116.8429 14.9196 0.0000 0.0000 0.0000
# 3 20.5174 14.9196 47.0115 0.0000 0.0000 0.0000
# 4 0.0000 0.0000 0.0000 15.7781 0.0000 0.0000
# 5 0.0000 0.0000 0.0000 0.0000 -14.6038 0.0000
# 6 0.0000 0.0000 0.0000 0.0000 0.0000 -9.0981
#
#
#
# Elastic Compliance Matrix: (Units=1/GPa)
#
#
# Indices 1 2 3 4 5 6 
#
# 1 0.011786 -0.001950 -0.004525 0.000000 0.000000 0.000000
# 2 -0.001950 0.009243 -0.002082 0.000000 0.000000 0.000000
# 3 -0.004525 -0.002082 0.023907 0.000000 0.000000 0.000000
# 4 0.000000 0.000000 0.000000 0.063379 0.000000 0.000000
# 5 0.000000 0.000000 0.000000 0.000000 -0.068476 0.000000
# 6 0.000000 0.000000 0.000000 0.000000 0.000000 -0.109913
#
#
# Mechanical properties :
#
#
# Convention : Reuss Voigt Hill
#
# Bulk Modulus (GPa) = 35.94377 42.41350 39.17863
# Shear Modulus (GPa) = -114.45267 11.76365 -51.34451
#
# Velocity S-wave (km/s) = -7.58660 2.43223 -5.08138
# Velocity P-wave (km/s) = 7.65940 5.40526 3.83730
#
# Compressibility (1/GPa) = 0.02782124
#
# Stress axis : x y z
#
# Youngs Moduli (GPa) = 84.84612 108.19392 41.82874
#
# Poissons Ratio (x) = 0.21100 0.18927
# Poissons Ratio (y) = 0.16547 0.08709
# Poissons Ratio (z) = 0.38392 0.22527
#
# Static dielectric constant tensor:
#      x y z
#    x 3.703250 0.000000 0.000000 
#    y 0.000000 3.711090 0.000000 
#    z 0.000000 0.000000 3.530580 
# 
# 
# High freq. dielectric constant tensor:
#      x y z
#    x 1.778470 0.000000 0.000000 
#    y 0.000000 1.784890 0.000000 
#    z 0.000000 0.000000 1.765550 
# 
# From -- ./inp_files/5476.got.cif
#   From: 2010.03.12/outbox.cif.g09.slc.cpg/sg73_3_cif.got.tgz:5476.got - 2010.04.16 15:25:48.
