data_PCOD8295259
_publ_section_title
;
Structure prediction by ZEFSAII (Michael W. Deem and Ramdas Pophale) SiO2 
 PCOD8295259
Probable space group: I B A M
;
_chemical_formula_sum "Si O2"
_cell_formula_units_Z 36
_cell_length_a 13.752666
_cell_length_b 7.080675
_cell_length_c 16.975073
_cell_angle_alpha 90.000000
_cell_angle_beta 90.000000
_cell_angle_gamma 90.000000
_cell_volume 1653.001346
_symmetry_space_group_name_H-M "I B A M"
_symmetry_group_IT_number 72
_symmetry_cell_setting 'orthorhombic'
loop_
_space_group_symop_operation_xyz
x,y,z
-x,-y,z
x,-y,1/2-z
-x,y,1/2-z
-x,-y,-z
x,y,-z
-x,y,1/2+z
x,-y,1/2+z
1/2+x,1/2+y,1/2+z
1/2-x,1/2-y,1/2+z
1/2+x,1/2-y,-z
1/2-x,1/2+y,-z
1/2-x,1/2-y,1/2-z
1/2+x,1/2+y,1/2-z
1/2-x,1/2+y,z
1/2+x,1/2-y,z
loop_
_atom_site_type_symbol
_atom_site_label
_atom_site_fract_x
_atom_site_fract_y
_atom_site_fract_z
Si Si1 0.962364 0.805144 0.631905
Si Si2 0.500000 0.000000 0.750000
Si Si3 0.172451 0.742099 0.000000
Si Si4 0.608049 0.181362 0.000000
O O1 0.935931 0.643160 0.696220
O O2 0.866727 0.847786 0.578629
O O3 0.051489 0.736539 0.578240
O O4 0.000000 0.000000 0.671902
O O5 0.120163 0.541300 0.000000
O O6 0.287339 0.716252 0.000000
#
# Coordination Sequence:
#
# PCOD8295259 Si02
#       4
#    16   4   8   8
#     4  11  22  40  64  92 120 165 201 250 307 354
#     4  12  22  42  60  86 140 156 198 236 316 380
#     4  11  20  39  66  92 120 154 215 261 289 348
#     4  11  20  39  66  92 120 154 215 261 289 348
#
# _framework density 21.778568
#
# number of rings (size 3 to 8) (size 9 to 14) (size 15 to 20)
#    0.000    0.889    4.444    7.333    0.000    0.000 
#    0.000    2.222    0.000    0.000    0.000    0.000 
#    0.000    0.000    0.000    0.000    0.000    0.000 
#
# Total GULP energy -223089.777259 kJ/mol
# GULP energy per Si atom -12393.876514 kJ/mol
# Density = 2.172900 g / cm^3
# Si number density = 21.778568 Si / 1000 Ang^3
#
#
#
# Elastic Constant Matrix: (Units=GPa)
#
#
# Indices 1 2 3 4 5 6 
#
# 1 121.3191 3.2388 30.4300 0.0000 0.0000 0.0000
# 2 3.2388 122.5762 35.9831 0.0000 0.0000 0.0000
# 3 30.4300 35.9831 114.2030 0.0000 0.0000 0.0000
# 4 0.0000 0.0000 0.0000 30.0667 0.0000 0.0000
# 5 0.0000 0.0000 0.0000 0.0000 0.9114 0.0000
# 6 0.0000 0.0000 0.0000 0.0000 0.0000 31.5122
#
#
#
# Elastic Compliance Matrix: (Units=1/GPa)
#
#
# Indices 1 2 3 4 5 6 
#
# 1 0.008861 0.000506 -0.002521 0.000000 0.000000 0.000000
# 2 0.000506 0.009019 -0.002976 0.000000 0.000000 0.000000
# 3 -0.002521 -0.002976 0.010366 0.000000 0.000000 0.000000
# 4 0.000000 0.000000 0.000000 0.033259 0.000000 0.000000
# 5 0.000000 0.000000 0.000000 0.000000 1.097197 0.000000
# 6 0.000000 0.000000 0.000000 0.000000 0.000000 0.031734
#
#
# Mechanical properties :
#
#
# Convention : Reuss Voigt Hill
#
# Bulk Modulus (GPa) = 54.75392 55.26690 55.01041
# Shear Modulus (GPa) = 4.14420 31.72781 17.93601
#
# Velocity S-wave (km/s) = 1.38095 3.82099 2.87289
# Velocity P-wave (km/s) = 5.26673 6.70063 6.02648
#
# Compressibility (1/GPa) = 0.01826353
#
# Stress axis : x y z
#
# Youngs Moduli (GPa) = 112.84841 110.88260 96.47172
#
# Poissons Ratio (x) = -0.05608 0.24316
# Poissons Ratio (y) = -0.05708 0.28713
# Poissons Ratio (z) = 0.28444 0.33002
#
# Static dielectric constant tensor:
#      x y z
#    x 3.848000 0.000000 0.000000 
#    y 0.000000 4.373790 0.000000 
#    z 0.000000 0.000000 4.013590 
# 
# 
# High freq. dielectric constant tensor:
#      x y z
#    x 1.818560 0.000000 0.000000 
#    y 0.000000 1.890100 0.000000 
#    z 0.000000 0.000000 1.844340 
# 
# From -- ./inp_files/27195.got.cif
#   From: 2010.03.12/outbox.cif.g09.slc.cpg/sg72_14_cif.got.tgz:27195.got - 2010.04.16 14:54:00.
