data_PCOD8295709
_publ_section_title
;
Structure prediction by ZEFSAII (Michael W. Deem and Ramdas Pophale) SiO2 
 PCOD8295709
Probable space group: I B C A 
;
_chemical_formula_sum "Si O2"
_cell_formula_units_Z 96
_cell_length_a 9.166155
_cell_length_b 27.197837
_cell_length_c 19.955555
_cell_angle_alpha 90.000000
_cell_angle_beta 90.000000
_cell_angle_gamma 90.000000
_cell_volume 4974.911672
_symmetry_space_group_name_H-M "I B C A "
_symmetry_group_IT_number 73
_symmetry_cell_setting 'orthorhombic'
loop_
_space_group_symop_operation_xyz
x,y,z
-x,1/2-y,z
x,-y,1/2-z
1/2-x,y,-z
-x,-y,-z
x,1/2+y,-z
-x,y,1/2+z
1/2+x,-y,z
1/2+x,1/2+y,1/2+z
1/2-x,-y,1/2+z
1/2+x,1/2-y,-z
-x,1/2+y,1/2-z
1/2-x,1/2-y,1/2-z
1/2+x,y,1/2-z
1/2-x,1/2+y,z
x,1/2-y,1/2+z
loop_
_atom_site_type_symbol
_atom_site_label
_atom_site_fract_x
_atom_site_fract_y
_atom_site_fract_z
Si Si1 0.498455 0.345637 0.119282
Si Si2 0.622050 0.213321 0.235170
Si Si3 0.669907 0.649651 0.644031
Si Si4 0.027625 0.549515 0.679267
Si Si5 0.814087 0.544228 0.320067
Si Si6 0.920029 0.801260 0.985020
O O1 0.391227 0.308057 0.159233
O O2 0.661824 0.333524 0.143359
O O3 0.453616 0.402129 0.133260
O O4 0.495004 0.334558 0.039936
O O5 0.500000 0.250000 0.256264
O O6 0.750000 0.250000 0.250000
O O7 0.612096 0.165963 0.283516
O O8 0.659317 0.591169 0.632970
O O9 0.568412 0.672452 0.586600
O O10 0.110496 0.503103 0.644512
O O11 0.108676 0.556276 0.749729
O O12 0.858399 0.536123 0.690975
O O13 0.000000 0.750000 0.980395
O O14 0.750000 0.793602 0.000000
#
# Coordination Sequence:
#
# PCOD8295709 Si02
#       6
#    16  16  16  16  16  16
#     4  10  21  38  59  84 116 152 191 237 290 342
#     4  12  22  35  57  88 116 149 193 245 285 340
#     4  10  21  38  58  85 113 154 192 234 290 344
#     4  10  19  34  55  84 112 146 183 237 292 340
#     4  10  19  34  55  83 113 142 186 235 292 343
#     4  10  22  41  60  80 117 159 196 233 286 347
#
# _framework density 19.296824999999998
#
# number of rings (size 3 to 8) (size 9 to 14) (size 15 to 20)
#    0.000    1.667    3.333    3.000    2.333    0.000 
#    3.000    0.833    0.000    0.000    0.000    0.000 
#    0.000    0.000    0.000    0.000    0.000    0.000 
#
# Total GULP energy -594759.399451 kJ/mol
# GULP energy per Si atom -12390.820822 kJ/mol
# Density = 1.925290 g / cm^3
# Si number density = 19.296825 Si / 1000 Ang^3
#
#
#
# Elastic Constant Matrix: (Units=GPa)
#
#
# Indices 1 2 3 4 5 6 
#
# 1 95.0912 55.4127 27.6594 0.0000 0.0000 0.0000
# 2 55.4127 145.0452 44.8918 0.0000 0.0000 0.0000
# 3 27.6594 44.8918 88.8541 -0.0003 0.0000 0.0001
# 4 0.0000 0.0000 -0.0003 29.6001 0.0000 0.0000
# 5 0.0000 0.0000 0.0000 0.0000 19.6448 0.0000
# 6 0.0000 0.0000 0.0001 0.0000 0.0000 37.7244
#
#
#
# Elastic Compliance Matrix: (Units=1/GPa)
#
#
# Indices 1 2 3 4 5 6 
#
# 1 0.013803 -0.004674 -0.001935 0.000000 0.000000 0.000000
# 2 -0.004674 0.009755 -0.003474 0.000000 0.000000 0.000000
# 3 -0.001935 -0.003474 0.013612 0.000000 0.000000 0.000000
# 4 0.000000 0.000000 0.000000 0.033784 0.000000 0.000000
# 5 0.000000 0.000000 0.000000 0.000000 0.050904 0.000000
# 6 0.000000 0.000000 0.000000 0.000000 0.000000 0.026508
#
#
# Mechanical properties :
#
#
# Convention : Reuss Voigt Hill
#
# Bulk Modulus (GPa) = 58.80995 64.99093 61.90044
# Shear Modulus (GPa) = 28.70269 30.79565 29.74917
#
# Velocity S-wave (km/s) = 3.86091 3.99920 3.93066
# Velocity P-wave (km/s) = 7.10057 7.42142 7.26277
#
# Compressibility (1/GPa) = 0.01700392
#
# Stress axis : x y z
#
# Youngs Moduli (GPa) = 72.44815 102.50891 73.46601
#
# Poissons Ratio (x) = 0.47916 0.14216
# Poissons Ratio (y) = 0.33865 0.25519
# Poissons Ratio (z) = 0.14020 0.35607
#
# Static dielectric constant tensor:
#      x y z
#    x 3.500360 0.000000 0.000000 
#    y 0.000000 4.041810 0.000000 
#    z 0.000000 0.000000 3.374100 
# 
# 
# High freq. dielectric constant tensor:
#      x y z
#    x 1.750700 0.000000 0.000000 
#    y 0.000000 1.770310 0.000000 
#    z 0.000000 0.000000 1.721760 
# 
# From -- ./inp_files/24858.got.cif
#   From: 2010.03.12/outbox.cif.g09.slc.cpg/sg73_13_cif.got.tgz:24858.got - 2010.04.16 15:25:48.
