data_PCOD8295942
_publ_section_title
;
Structure prediction by ZEFSAII (Michael W. Deem and Ramdas Pophale) SiO2 
 PCOD8295942
Probable space group: I B C A 
;
_chemical_formula_sum "Si O2"
_cell_formula_units_Z 96
_cell_length_a 19.222848
_cell_length_b 7.335477
_cell_length_c 26.035058
_cell_angle_alpha 90.000000
_cell_angle_beta 90.000000
_cell_angle_gamma 90.000000
_cell_volume 3671.171229
_symmetry_space_group_name_H-M "I B C A "
_symmetry_group_IT_number 73
_symmetry_cell_setting 'orthorhombic'
loop_
_space_group_symop_operation_xyz
x,y,z
-x,1/2-y,z
x,-y,1/2-z
1/2-x,y,-z
-x,-y,-z
x,1/2+y,-z
-x,y,1/2+z
1/2+x,-y,z
1/2+x,1/2+y,1/2+z
1/2-x,-y,1/2+z
1/2+x,1/2-y,-z
-x,1/2+y,1/2-z
1/2-x,1/2-y,1/2-z
1/2+x,y,1/2-z
1/2-x,1/2+y,z
x,1/2-y,1/2+z
loop_
_atom_site_type_symbol
_atom_site_label
_atom_site_fract_x
_atom_site_fract_y
_atom_site_fract_z
Si Si1 0.262061 0.262220 0.440230
Si Si2 0.134287 0.467509 0.118677
Si Si3 0.837377 0.846203 0.807544
Si Si4 0.356445 0.079050 0.603256
Si Si5 0.820641 0.827252 0.211586
Si Si6 0.000392 0.462584 0.559852
O O1 0.250000 0.236116 0.500000
O O2 0.298536 0.076160 0.417744
O O3 0.314504 0.424949 0.428595
O O4 0.183949 0.267243 0.413556
O O5 0.120056 0.287209 0.153970
O O6 0.137147 0.634335 0.159688
O O7 0.070343 0.534763 0.084326
O O8 0.846443 0.045812 0.834645
O O9 0.757184 0.778266 0.807400
O O10 0.857521 0.833781 0.746775
O O11 0.435942 0.071166 0.585770
O O12 0.818228 0.000000 0.250000
O O13 0.000000 0.250000 0.571629
O O14 0.000000 0.500000 0.500000
#
# Coordination Sequence:
#
# PCOD8295942 Si02
#       6
#    16  16  16  16  16  16
#     4  11  21  36  58  93 128 166 224 279 322 381
#     4  10  20  38  59  88 124 172 212 262 322 387
#     4   9  17  32  59  93 120 159 209 259 325 385
#     4  11  23  39  63  95 127 176 216 275 334 390
#     4   9  17  32  59  95 123 160 203 265 327 383
#     4  12  25  45  65  91 132 182 226 264 335 403
#
# _framework density 26.149694
#
# number of rings (size 3 to 8) (size 9 to 14) (size 15 to 20)
#    0.000    1.667    5.000    1.500    0.000    0.000 
#    0.000    0.000    0.000    5.000    0.000    0.000 
#    0.000    0.000    0.000    0.000    0.000    0.000 
#
# Total GULP energy -594980.655467 kJ/mol
# GULP energy per Si atom -12395.430322 kJ/mol
# Density = 2.609018 g / cm^3
# Si number density = 26.149694 Si / 1000 Ang^3
#
#
#
# Elastic Constant Matrix: (Units=GPa)
#
#
# Indices 1 2 3 4 5 6 
#
# 1 151.9409 -6.7312 67.8130 0.0000 0.0000 0.0000
# 2 -6.7312 71.9466 7.1233 0.0000 0.0000 0.0000
# 3 67.8130 7.1233 236.8664 0.0000 0.0000 0.0000
# 4 0.0000 0.0000 0.0000 40.8100 0.0000 0.0000
# 5 0.0000 0.0000 0.0000 0.0000 47.0391 0.0000
# 6 0.0000 0.0000 0.0000 0.0000 0.0000 29.1830
#
#
#
# Elastic Compliance Matrix: (Units=1/GPa)
#
#
# Indices 1 2 3 4 5 6 
#
# 1 0.007607 0.000930 -0.002206 0.000000 0.000000 0.000000
# 2 0.000930 0.014054 -0.000689 0.000000 0.000000 0.000000
# 3 -0.002206 -0.000689 0.004874 0.000000 0.000000 0.000000
# 4 0.000000 0.000000 0.000000 0.024504 0.000000 0.000000
# 5 0.000000 0.000000 0.000000 0.000000 0.021259 0.000000
# 6 0.000000 0.000000 0.000000 0.000000 0.000000 0.034267
#
#
# Mechanical properties :
#
#
# Convention : Reuss Voigt Hill
#
# Bulk Modulus (GPa) = 44.23548 66.35157 55.29352
# Shear Modulus (GPa) = 42.36220 49.57633 45.96926
#
# Velocity S-wave (km/s) = 4.02927 4.35888 4.19731
# Velocity P-wave (km/s) = 6.21287 7.12474 6.68437
#
# Compressibility (1/GPa) = 0.02260629
#
# Stress axis : x y z
#
# Youngs Moduli (GPa) = 131.45422 71.15198 205.16911
#
# Poissons Ratio (x) = -0.06618 0.45257
# Poissons Ratio (y) = -0.12227 0.14135
# Poissons Ratio (z) = 0.28997 0.04902
#
# Static dielectric constant tensor:
#      x y z
#    x 4.350730 0.000000 0.000000 
#    y 0.000000 5.761560 0.000000 
#    z 0.000000 0.000000 5.365300 
# 
# 
# High freq. dielectric constant tensor:
#      x y z
#    x 1.989180 0.000000 0.000000 
#    y 0.000000 2.109400 0.000000 
#    z 0.000000 0.000000 2.090050 
# 
# From -- ./inp_files/29796.got.cif
#   From: 2010.03.12/outbox.cif.g09.slc.cpg/sg73_15_cif.got.tgz:29796.got - 2010.04.16 15:25:48.
