data_PCOD8295492
_publ_section_title
;
Structure prediction by ZEFSAII (Michael W. Deem and Ramdas Pophale) SiO2 
 PCOD8295492
Probable space group: I B A M
;
_chemical_formula_sum "Si O2"
_cell_formula_units_Z 56
_cell_length_a 5.090507
_cell_length_b 24.484928
_cell_length_c 18.337137
_cell_angle_alpha 90.000000
_cell_angle_beta 90.000000
_cell_angle_gamma 90.000000
_cell_volume 2285.553544
_symmetry_space_group_name_H-M "I B A M"
_symmetry_group_IT_number 72
_symmetry_cell_setting 'orthorhombic'
loop_
_space_group_symop_operation_xyz
x,y,z
-x,-y,z
x,-y,1/2-z
-x,y,1/2-z
-x,-y,-z
x,y,-z
-x,y,1/2+z
x,-y,1/2+z
1/2+x,1/2+y,1/2+z
1/2-x,1/2-y,1/2+z
1/2+x,1/2-y,-z
1/2-x,1/2+y,-z
1/2-x,1/2-y,1/2-z
1/2+x,1/2+y,1/2-z
1/2-x,1/2+y,z
1/2+x,1/2-y,z
loop_
_atom_site_type_symbol
_atom_site_label
_atom_site_fract_x
_atom_site_fract_y
_atom_site_fract_z
Si Si1 0.137334 0.670907 0.500000
Si Si2 0.500000 0.119956 0.250000
Si Si3 0.637035 0.597979 0.500000
Si Si4 0.758002 0.036257 0.352130
Si Si5 0.839249 0.284044 0.343743
O O1 0.343489 0.621454 0.500000
O O2 0.178365 0.709285 0.430483
O O3 0.843598 0.647283 0.500000
O O4 0.709780 0.083777 0.293610
O O5 0.667867 0.156491 0.193462
O O6 0.670577 0.560794 0.570163
O O7 0.500000 0.000000 0.359643
O O8 0.000000 0.000000 0.323677
O O9 0.601400 0.246446 0.317495
#
# Coordination Sequence:
#
# PCOD8295492 Si02
#       5
#     8   8   8  16  16
#     4  12  24  48  80 109 145 198 251 315 372 432
#     4  12  29  50  76 112 162 194 251 306 380 460
#     4  12  24  50  80 107 147 198 252 315 369 432
#     4  12  28  50  78 112 151 201 253 308 375 443
#     4  12  27  49  77 110 150 198 250 308 377 444
#
# _framework density 24.501721
#
# number of rings (size 3 to 8) (size 9 to 14) (size 15 to 20)
#    0.000    0.000    2.857    6.429    0.000    4.571 
#    0.000    0.000    0.000    0.000    0.000    0.000 
#    0.000    0.000    0.000    0.000    0.000    0.000 
#
# Total GULP energy -347526.619517 kJ/mol
# GULP energy per Si atom -12411.664983 kJ/mol
# Density = 2.444595 g / cm^3
# Si number density = 24.501721 Si / 1000 Ang^3
#
#
#
# Elastic Constant Matrix: (Units=GPa)
#
#
# Indices 1 2 3 4 5 6 
#
# 1 154.9472 70.8403 41.6962 0.0000 0.0000 0.0000
# 2 70.8403 147.2643 63.2394 0.0000 0.0000 0.0000
# 3 41.6962 63.2394 142.5653 -0.0001 0.0000 0.0000
# 4 0.0000 0.0000 -0.0001 30.3565 0.0000 0.0000
# 5 0.0000 0.0000 0.0000 0.0000 21.2748 0.0000
# 6 0.0000 0.0000 0.0000 0.0000 0.0000 40.8487
#
#
#
# Elastic Compliance Matrix: (Units=1/GPa)
#
#
# Indices 1 2 3 4 5 6 
#
# 1 0.008349 -0.003666 -0.000816 0.000000 0.000000 0.000000
# 2 -0.003666 0.009998 -0.003363 0.000000 0.000000 0.000000
# 3 -0.000816 -0.003363 0.008745 0.000000 0.000000 0.000000
# 4 0.000000 0.000000 0.000000 0.032942 0.000000 0.000000
# 5 0.000000 0.000000 0.000000 0.000000 0.047004 0.000000
# 6 0.000000 0.000000 0.000000 0.000000 0.000000 0.024481
#
#
# Mechanical properties :
#
#
# Convention : Reuss Voigt Hill
#
# Bulk Modulus (GPa) = 87.69704 88.48096 88.08900
# Shear Modulus (GPa) = 33.11064 36.42939 34.77002
#
# Velocity S-wave (km/s) = 3.68007 3.86010 3.77116
# Velocity P-wave (km/s) = 7.34351 7.48717 7.41569
#
# Compressibility (1/GPa) = 0.01140289
#
# Stress axis : x y z
#
# Youngs Moduli (GPa) = 119.76851 100.01865 114.35675
#
# Poissons Ratio (x) = 0.36668 0.09328
# Poissons Ratio (y) = 0.43909 0.38455
# Poissons Ratio (z) = 0.09770 0.33634
#
# Static dielectric constant tensor:
#      x y z
#    x 4.464520 0.000000 0.000000 
#    y 0.000000 4.513050 0.000000 
#    z 0.000000 0.000000 4.676060 
# 
# 
# High freq. dielectric constant tensor:
#      x y z
#    x 1.980790 0.000000 0.000000 
#    y 0.000000 1.986830 0.000000 
#    z 0.000000 0.000000 2.005650 
# 
# From -- ./inp_files/26919.got.cif
#   From: 2010.03.12/outbox.cif.g09.slc.cpg/sg72_14_cif.got.tgz:26919.got - 2010.04.16 14:54:00.
