data_PCOD8295673
_publ_section_title
;
Structure prediction by ZEFSAII (Michael W. Deem and Ramdas Pophale) SiO2 
 PCOD8295673
Probable space group: I B C A 
;
_chemical_formula_sum "Si O2"
_cell_formula_units_Z 88
_cell_length_a 9.688358
_cell_length_b 13.387297
_cell_length_c 31.735490
_cell_angle_alpha 90.000000
_cell_angle_beta 90.000000
_cell_angle_gamma 90.000000
_cell_volume 4116.122440
_symmetry_space_group_name_H-M "I B C A "
_symmetry_group_IT_number 73
_symmetry_cell_setting 'orthorhombic'
loop_
_space_group_symop_operation_xyz
x,y,z
-x,1/2-y,z
x,-y,1/2-z
1/2-x,y,-z
-x,-y,-z
x,1/2+y,-z
-x,y,1/2+z
1/2+x,-y,z
1/2+x,1/2+y,1/2+z
1/2-x,-y,1/2+z
1/2+x,1/2-y,-z
-x,1/2+y,1/2-z
1/2-x,1/2-y,1/2-z
1/2+x,y,1/2-z
1/2-x,1/2+y,z
x,1/2-y,1/2+z
loop_
_atom_site_type_symbol
_atom_site_label
_atom_site_fract_x
_atom_site_fract_y
_atom_site_fract_z
Si Si1 0.466783 0.543456 0.045334
Si Si2 0.500000 0.750000 0.080174
Si Si3 0.486519 0.533038 0.202587
Si Si4 0.799186 0.024090 0.403389
Si Si5 0.767301 0.397112 0.332647
Si Si6 0.307189 0.684769 0.153647
O O1 0.526976 0.655969 0.049135
O O2 0.305727 0.541776 0.057647
O O3 0.546697 0.473628 0.078728
O O4 0.500000 0.500000 0.000000
O O5 0.375721 0.723962 0.110988
O O6 0.456793 0.500000 0.250000
O O7 0.649752 0.547951 0.195877
O O8 0.418670 0.442749 0.175888
O O9 0.412669 0.636636 0.187714
O O10 0.796875 0.101434 0.364135
O O11 0.769945 0.916489 0.381791
O O12 0.769845 0.277808 0.324082
#
# Coordination Sequence:
#
# PCOD8295673 Si02
#       6
#    16   8  16  16  16  16
#     4  11  22  40  62  94 128 160 204 272 318 363
#     4  10  18  40  66  82 118 182 204 222 330 406
#     4  11  23  37  61  93 124 159 207 270 317 367
#     4  10  21  39  64  90 120 167 217 252 304 388
#     4  11  20  41  63  85 122 169 213 252 314 391
#     4  10  19  38  67  82 119 176 211 239 319 392
#
# _framework density 21.379345000000001
#
# number of rings (size 3 to 8) (size 9 to 14) (size 15 to 20)
#    0.000    1.455    3.636    3.273    0.000    0.727 
#    3.273   12.727    0.000    0.000    0.000    0.000 
#    0.000    0.000    0.000    0.000    0.000    0.000 
#
# Total GULP energy -545196.662432 kJ/mol
# GULP energy per Si atom -12390.833237 kJ/mol
# Density = 2.133068 g / cm^3
# Si number density = 21.379345 Si / 1000 Ang^3
#
#
#
# Elastic Constant Matrix: (Units=GPa)
#
#
# Indices 1 2 3 4 5 6 
#
# 1 55.8717 28.6354 0.4041 0.0000 0.0000 0.0000
# 2 28.6354 124.1874 41.1928 0.0000 0.0000 0.0000
# 3 0.4041 41.1928 102.3612 0.0000 0.0000 0.0000
# 4 0.0000 0.0000 0.0000 24.0020 0.0000 0.0000
# 5 0.0000 0.0000 0.0000 0.0000 28.1191 0.0000
# 6 0.0000 0.0000 0.0000 0.0000 0.0000 21.8290
#
#
#
# Elastic Compliance Matrix: (Units=1/GPa)
#
#
# Indices 1 2 3 4 5 6 
#
# 1 0.020688 -0.005474 0.002121 0.000000 0.000000 0.000000
# 2 -0.005474 0.010741 -0.004301 0.000000 0.000000 0.000000
# 3 0.002121 -0.004301 0.011492 0.000000 0.000000 0.000000
# 4 0.000000 0.000000 0.000000 0.041663 0.000000 0.000000
# 5 0.000000 0.000000 0.000000 0.000000 0.035563 0.000000
# 6 0.000000 0.000000 0.000000 0.000000 0.000000 0.045811
#
#
# Mechanical properties :
#
#
# Convention : Reuss Voigt Hill
#
# Bulk Modulus (GPa) = 36.21368 46.98722 41.60045
# Shear Modulus (GPa) = 26.25085 28.93589 27.59337
#
# Velocity S-wave (km/s) = 3.50789 3.68292 3.59647
# Velocity P-wave (km/s) = 5.77775 6.33331 6.06190
#
# Compressibility (1/GPa) = 0.02761387
#
# Stress axis : x y z
#
# Youngs Moduli (GPa) = 48.33644 93.09991 87.01898
#
# Poissons Ratio (x) = 0.50963 -0.18458
# Poissons Ratio (y) = 0.26459 0.37426
# Poissons Ratio (z) = -0.10253 0.40041
#
# Static dielectric constant tensor:
#      x y z
#    x 3.690700 0.000000 0.000000 
#    y 0.000000 5.286050 0.000000 
#    z 0.000000 0.000000 3.766720 
# 
# 
# High freq. dielectric constant tensor:
#      x y z
#    x 1.827130 0.000000 0.000000 
#    y 0.000000 1.843820 0.000000 
#    z 0.000000 0.000000 1.824020 
# 
# From -- ./inp_files/14687.got.cif
#   From: 2010.03.12/outbox.cif.g09.slc.cpg/sg73_8_cif.got.tgz:14687.got - 2010.04.16 15:25:48.
