data_PCOD8295741
_publ_section_title
;
Structure prediction by ZEFSAII (Michael W. Deem and Ramdas Pophale) SiO2 
 PCOD8295741
Probable space group: I B C A 
;
_chemical_formula_sum "Si O2"
_cell_formula_units_Z 96
_cell_length_a 15.245826
_cell_length_b 18.943658
_cell_length_c 15.255204
_cell_angle_alpha 90.000000
_cell_angle_beta 90.000000
_cell_angle_gamma 90.000000
_cell_volume 4405.881610
_symmetry_space_group_name_H-M "I B C A "
_symmetry_group_IT_number 73
_symmetry_cell_setting 'orthorhombic'
loop_
_space_group_symop_operation_xyz
x,y,z
-x,1/2-y,z
x,-y,1/2-z
1/2-x,y,-z
-x,-y,-z
x,1/2+y,-z
-x,y,1/2+z
1/2+x,-y,z
1/2+x,1/2+y,1/2+z
1/2-x,-y,1/2+z
1/2+x,1/2-y,-z
-x,1/2+y,1/2-z
1/2-x,1/2-y,1/2-z
1/2+x,y,1/2-z
1/2-x,1/2+y,z
x,1/2-y,1/2+z
loop_
_atom_site_type_symbol
_atom_site_label
_atom_site_fract_x
_atom_site_fract_y
_atom_site_fract_z
Si Si1 0.019864 0.918211 0.262509
Si Si2 0.843542 0.393128 0.373562
Si Si3 0.896683 0.494561 0.988040
Si Si4 0.657707 0.590505 0.164253
Si Si5 0.381337 0.698915 0.523671
Si Si6 0.071572 0.147872 0.051193
O O1 0.069184 0.878934 0.183313
O O2 0.055031 0.884136 0.352254
O O3 0.913461 0.906991 0.256464
O O4 0.045233 0.000000 0.250000
O O5 0.848466 0.460515 0.437595
O O6 0.760613 0.410648 0.308620
O O7 0.829015 0.323602 0.435182
O O8 0.868971 0.521584 0.892470
O O9 0.875262 0.411261 0.996186
O O10 0.000000 0.500000 0.000000
O O11 0.655220 0.661651 0.109122
O O12 0.479311 0.668830 0.507372
O O13 0.370942 0.781254 0.546745
#
# Coordination Sequence:
#
# PCOD8295741 Si02
#       6
#    16  16  16  16  16  16
#     4  11  21  38  63  90 129 168 206 270 333 381
#     4  11  21  38  64  92 127 170 212 265 327 379
#     4  11  16  35  64  92 123 161 216 258 311 380
#     4  10  22  38  62  91 126 172 216 261 323 377
#     4   9  19  37  61  90 122 168 214 260 313 382
#     4  10  19  35  63  91 125 166 211 256 314 388
#
# _framework density 21.789055999999999
#
# number of rings (size 3 to 8) (size 9 to 14) (size 15 to 20)
#    0.000    1.667    6.667    2.000    0.000    0.667 
#    0.000   10.833    0.000    4.000    0.000    0.000 
#    0.000    0.000    0.000    0.000    0.000    0.000 
#
# Total GULP energy -594638.427276 kJ/mol
# GULP energy per Si atom -12388.300568 kJ/mol
# Density = 2.173946 g / cm^3
# Si number density = 21.789056 Si / 1000 Ang^3
#
#
#
# Elastic Constant Matrix: (Units=GPa)
#
#
# Indices 1 2 3 4 5 6 
#
# 1 103.1533 19.1679 37.1424 0.0000 0.0000 0.0000
# 2 19.1679 165.6357 33.3456 0.0000 0.0000 0.0000
# 3 37.1424 33.3456 58.1132 0.0000 0.0000 0.0000
# 4 0.0000 0.0000 0.0000 21.0106 0.0000 0.0000
# 5 0.0000 0.0000 0.0000 0.0000 31.7952 0.0000
# 6 0.0000 0.0000 0.0000 0.0000 0.0000 18.6617
#
#
#
# Elastic Compliance Matrix: (Units=1/GPa)
#
#
# Indices 1 2 3 4 5 6 
#
# 1 0.012597 0.000184 -0.008157 0.000000 0.000000 0.000000
# 2 0.000184 0.006829 -0.004036 0.000000 0.000000 0.000000
# 3 -0.008157 -0.004036 0.024737 0.000000 0.000000 0.000000
# 4 0.000000 0.000000 0.000000 0.047595 0.000000 0.000000
# 5 0.000000 0.000000 0.000000 0.000000 0.031451 0.000000
# 6 0.000000 0.000000 0.000000 0.000000 0.000000 0.053586
#
#
# Mechanical properties :
#
#
# Convention : Reuss Voigt Hill
#
# Bulk Modulus (GPa) = 49.63938 56.24600 52.94269
# Shear Modulus (GPa) = 24.09316 30.10993 27.10154
#
# Velocity S-wave (km/s) = 3.32888 3.72140 3.53060
# Velocity P-wave (km/s) = 6.13242 6.65845 6.40084
#
# Compressibility (1/GPa) = 0.02014530
#
# Stress axis : x y z
#
# Youngs Moduli (GPa) = 79.38277 146.44401 40.42480
#
# Poissons Ratio (x) = -0.02700 0.32975
# Poissons Ratio (y) = -0.01464 0.16316
# Poissons Ratio (z) = 0.64754 0.59106
#
# Static dielectric constant tensor:
#      x y z
#    x 4.107240 0.000000 0.000000 
#    y 0.000000 4.433320 0.000000 
#    z 0.000000 0.000000 3.733300 
# 
# 
# High freq. dielectric constant tensor:
#      x y z
#    x 1.853170 0.000000 0.000000 
#    y 0.000000 1.849000 0.000000 
#    z 0.000000 0.000000 1.824170 
# 
# From -- ./inp_files/17074.got.cif
#   From: 2010.03.12/outbox.cif.g09.slc.cpg/sg73_9_cif.got.tgz:17074.got - 2010.04.16 15:25:48.
