data_PCOD8295869
_publ_section_title
;
Structure prediction by ZEFSAII (Michael W. Deem and Ramdas Pophale) SiO2 
 PCOD8295869
Probable space group: I B C A 
;
_chemical_formula_sum "Si O2"
_cell_formula_units_Z 104
_cell_length_a 25.155376
_cell_length_b 9.661252
_cell_length_c 19.645668
_cell_angle_alpha 90.000000
_cell_angle_beta 90.000000
_cell_angle_gamma 90.000000
_cell_volume 4774.534368
_symmetry_space_group_name_H-M "I B C A "
_symmetry_group_IT_number 73
_symmetry_cell_setting 'orthorhombic'
loop_
_space_group_symop_operation_xyz
x,y,z
-x,1/2-y,z
x,-y,1/2-z
1/2-x,y,-z
-x,-y,-z
x,1/2+y,-z
-x,y,1/2+z
1/2+x,-y,z
1/2+x,1/2+y,1/2+z
1/2-x,-y,1/2+z
1/2+x,1/2-y,-z
-x,1/2+y,1/2-z
1/2-x,1/2-y,1/2-z
1/2+x,y,1/2-z
1/2-x,1/2+y,z
x,1/2-y,1/2+z
loop_
_atom_site_type_symbol
_atom_site_label
_atom_site_fract_x
_atom_site_fract_y
_atom_site_fract_z
Si Si1 0.651881 0.859713 0.578029
Si Si2 0.036740 0.880063 0.084199
Si Si3 0.793472 0.000000 0.750000
Si Si4 0.964412 0.616915 0.929510
Si Si5 0.649867 0.839173 0.355009
Si Si6 0.782740 0.932545 0.131337
Si Si7 0.310430 0.560308 0.039426
O O1 0.592022 0.862344 0.607339
O O2 0.661927 0.709855 0.546577
O O3 0.690822 0.912076 0.638763
O O4 0.665432 0.985483 0.526171
O O5 0.086478 0.847847 0.132816
O O6 0.000000 0.750000 0.081544
O O7 0.053311 0.922465 0.007093
O O8 0.999025 0.003405 0.110949
O O9 0.832769 0.881060 0.721136
O O10 0.757498 0.919745 0.805860
O O11 0.000000 0.750000 0.928450
O O12 0.672259 0.686450 0.369922
O O13 0.676652 0.957288 0.399417
O O14 0.753185 0.916759 0.055970
#
# Coordination Sequence:
#
# PCOD8295869 Si02
#       7
#    16  16   8  16  16  16  16
#     4  12  23  37  60  91 129 168 201 251 312 373
#     4  10  20  35  60  87 120 158 203 247 303 368
#     4  10  24  42  66  90 118 162 216 264 310 368
#     4  10  21  35  57  88 126 161 199 244 299 370
#     4  11  21  41  66  89 121 164 210 258 313 365
#     4  11  24  41  62  88 124 162 208 259 307 375
#     4  11  23  37  57  91 129 166 203 243 310 374
#
# _framework density 21.782229000000001
#
# number of rings (size 3 to 8) (size 9 to 14) (size 15 to 20)
#    0.000    1.231    1.538    5.538    4.308    2.462 
#    0.000    0.000    0.000    8.308    0.000    0.000 
#    0.000    0.000    0.000    0.000    0.000    0.000 
#
# Total GULP energy -644213.796809 kJ/mol
# GULP energy per Si atom -12388.726862 kJ/mol
# Density = 2.173265 g / cm^3
# Si number density = 21.782229 Si / 1000 Ang^3
#
#
#
# Elastic Constant Matrix: (Units=GPa)
#
#
# Indices 1 2 3 4 5 6 
#
# 1 153.4694 28.0301 22.9019 0.0000 0.0000 0.0000
# 2 28.0301 118.2921 8.0539 0.0000 0.0000 0.0000
# 3 22.9019 8.0539 54.9054 0.0000 0.0000 0.0000
# 4 0.0000 0.0000 0.0000 24.9581 0.0000 0.0000
# 5 0.0000 0.0000 0.0000 0.0000 18.8983 0.0000
# 6 0.0000 0.0000 0.0000 0.0000 0.0000 41.0682
#
#
#
# Elastic Compliance Matrix: (Units=1/GPa)
#
#
# Indices 1 2 3 4 5 6 
#
# 1 0.007209 -0.001519 -0.002784 0.000000 0.000000 0.000000
# 2 -0.001519 0.008859 -0.000666 0.000000 0.000000 0.000000
# 3 -0.002784 -0.000666 0.019472 0.000000 0.000000 0.000000
# 4 0.000000 0.000000 0.000000 0.040067 0.000000 0.000000
# 5 0.000000 0.000000 0.000000 0.000000 0.052915 0.000000
# 6 0.000000 0.000000 0.000000 0.000000 0.000000 0.024350
#
#
# Mechanical properties :
#
#
# Convention : Reuss Voigt Hill
#
# Bulk Modulus (GPa) = 39.05912 49.40430 44.23171
# Shear Modulus (GPa) = 29.18121 34.83032 32.00576
#
# Velocity S-wave (km/s) = 3.66413 4.00312 3.83737
# Velocity P-wave (km/s) = 5.98930 6.64055 6.32331
#
# Compressibility (1/GPa) = 0.02560222
#
# Stress axis : x y z
#
# Youngs Moduli (GPa) = 138.71945 112.88159 51.35534
#
# Poissons Ratio (x) = 0.17142 0.14298
# Poissons Ratio (y) = 0.21066 0.03420
# Poissons Ratio (z) = 0.38621 0.07518
#
# Static dielectric constant tensor:
#      x y z
#    x 4.223590 0.000000 0.000000 
#    y 0.000000 4.015620 0.000000 
#    z 0.000000 0.000000 4.088840 
# 
# 
# High freq. dielectric constant tensor:
#      x y z
#    x 1.875670 0.000000 0.000000 
#    y 0.000000 1.871020 0.000000 
#    z 0.000000 0.000000 1.815590 
# 
# From -- ./inp_files/27583.got.cif
#   From: 2010.03.12/outbox.cif.g09.slc.cpg/sg73_14_cif.got.tgz:27583.got - 2010.04.16 15:25:48.
