data_PCOD8295348
_publ_section_title
;
Structure prediction by ZEFSAII (Michael W. Deem and Ramdas Pophale) SiO2 
 PCOD8295348
Probable space group: I B A M
;
_chemical_formula_sum "Si O2"
_cell_formula_units_Z 96
_cell_length_a 13.775163
_cell_length_b 15.187201
_cell_length_c 21.067740
_cell_angle_alpha 90.000000
_cell_angle_beta 90.000000
_cell_angle_gamma 90.000000
_cell_volume 4407.501181
_symmetry_space_group_name_H-M "I B A M"
_symmetry_group_IT_number 72
_symmetry_cell_setting 'orthorhombic'
loop_
_space_group_symop_operation_xyz
x,y,z
-x,-y,z
x,-y,1/2-z
-x,y,1/2-z
-x,-y,-z
x,y,-z
-x,y,1/2+z
x,-y,1/2+z
1/2+x,1/2+y,1/2+z
1/2-x,1/2-y,1/2+z
1/2+x,1/2-y,-z
1/2-x,1/2+y,-z
1/2-x,1/2-y,1/2-z
1/2+x,1/2+y,1/2-z
1/2-x,1/2+y,z
1/2+x,1/2-y,z
loop_
_atom_site_type_symbol
_atom_site_label
_atom_site_fract_x
_atom_site_fract_y
_atom_site_fract_z
Si Si1 0.261358 0.331913 0.338991
Si Si2 0.238138 0.002936 0.070969
Si Si3 0.104015 0.783083 0.225102
Si Si4 0.911579 0.765029 0.072906
Si Si5 0.553694 0.413283 0.618296
Si Si6 0.058897 0.421520 0.927716
O O1 0.252036 0.428062 0.370929
O O2 0.159308 0.296393 0.311350
O O3 0.338572 0.328360 0.282352
O O4 0.306701 0.271280 0.393902
O O5 0.141731 0.943586 0.073608
O O6 0.326897 0.936496 0.078385
O O7 0.240183 0.047614 0.000000
O O8 0.093826 0.864443 0.178810
O O9 0.000000 0.747293 0.250000
O O10 0.963855 0.676167 0.100601
O O11 0.978471 0.850693 0.080812
O O12 0.887625 0.749518 0.000000
O O13 0.500000 0.500000 0.642757
O O14 0.000000 0.500000 0.891828
O O15 0.021857 0.420843 0.000000
#
# Coordination Sequence:
#
# PCOD8295348 Si02
#       6
#    16  16  16  16  16  16
#     4  11  24  41  69  99 133 182 229 293 342 420
#     4  11  23  41  66 104 143 178 229 287 352 428
#     4  11  24  45  66  96 137 183 244 284 346 409
#     4  11  22  41  66  98 138 179 225 286 361 422
#     4  12  24  41  68 100 138 182 226 287 346 416
#     4   9  21  40  61  90 131 176 223 272 333 421
#
# _framework density 21.78105
#
# number of rings (size 3 to 8) (size 9 to 14) (size 15 to 20)
#    0.000    1.167    3.333    2.000    2.333    3.000 
#    0.000    1.667    0.000    0.000    4.333    0.000 
#    0.000    0.000    0.000    0.000    0.000    0.000 
#
# Total GULP energy -594814.553914 kJ/mol
# GULP energy per Si atom -12391.969873 kJ/mol
# Density = 2.173148 g / cm^3
# Si number density = 21.781050 Si / 1000 Ang^3
#
#
#
# Elastic Constant Matrix: (Units=GPa)
#
#
# Indices 1 2 3 4 5 6 
#
# 1 125.2438 46.6313 38.8300 0.0000 0.0000 0.0000
# 2 46.6313 129.4948 30.2141 0.0000 0.0000 0.0000
# 3 38.8300 30.2141 102.7242 0.0000 0.0000 0.0000
# 4 0.0000 0.0000 0.0000 186.0830 0.0000 0.0000
# 5 0.0000 0.0000 0.0000 0.0000 25.7773 0.0000
# 6 0.0000 0.0000 0.0000 0.0000 0.0000 23.2218
#
#
#
# Elastic Compliance Matrix: (Units=1/GPa)
#
#
# Indices 1 2 3 4 5 6 
#
# 1 0.009971 -0.002911 -0.002913 0.000000 0.000000 0.000000
# 2 -0.002911 0.009141 -0.001588 0.000000 0.000000 0.000000
# 3 -0.002913 -0.001588 0.011303 0.000000 0.000000 0.000000
# 4 0.000000 0.000000 0.000000 0.005374 0.000000 0.000000
# 5 0.000000 0.000000 0.000000 0.000000 0.038794 0.000000
# 6 0.000000 0.000000 0.000000 0.000000 0.000000 0.043063
#
#
# Mechanical properties :
#
#
# Convention : Reuss Voigt Hill
#
# Bulk Modulus (GPa) = 64.13961 65.42374 64.78167
# Shear Modulus (GPa) = 36.31923 63.13559 49.72741
#
# Velocity S-wave (km/s) = 4.08790 5.38975 4.78332
# Velocity P-wave (km/s) = 7.19670 8.29667 7.76619
#
# Compressibility (1/GPa) = 0.01559099
#
# Stress axis : x y z
#
# Youngs Moduli (GPa) = 100.28673 109.39509 88.47145
#
# Poissons Ratio (x) = 0.31845 0.25772
# Poissons Ratio (y) = 0.29194 0.14052
# Poissons Ratio (z) = 0.29213 0.17375
#
# Static dielectric constant tensor:
#      x y z
#    x 4.143830 0.000000 0.000000 
#    y 0.000000 4.120300 0.000000 
#    z 0.000000 0.000000 3.967150 
# 
# 
# High freq. dielectric constant tensor:
#      x y z
#    x 1.862950 0.000000 0.000000 
#    y 0.000000 1.860950 0.000000 
#    z 0.000000 0.000000 1.847740 
# 
# From -- ./inp_files/38050.got.cif
#   From: 2010.03.12/outbox.cif.g09.slc.cpg/sg72_20_cif.got.tgz:38050.got - 2010.04.16 14:54:00.
