data_PCOD8295126
_publ_section_title
;
Structure prediction by ZEFSAII (Michael W. Deem and Ramdas Pophale) SiO2 
 PCOD8295126
Probable space group: I B A M
;
_chemical_formula_sum "Si O2"
_cell_formula_units_Z 52
_cell_length_a 11.753031
_cell_length_b 14.108782
_cell_length_c 13.474379
_cell_angle_alpha 90.000000
_cell_angle_beta 90.000000
_cell_angle_gamma 90.000000
_cell_volume 2234.334356
_symmetry_space_group_name_H-M "I B A M"
_symmetry_group_IT_number 72
_symmetry_cell_setting 'orthorhombic'
loop_
_space_group_symop_operation_xyz
x,y,z
-x,-y,z
x,-y,1/2-z
-x,y,1/2-z
-x,-y,-z
x,y,-z
-x,y,1/2+z
x,-y,1/2+z
1/2+x,1/2+y,1/2+z
1/2-x,1/2-y,1/2+z
1/2+x,1/2-y,-z
1/2-x,1/2+y,-z
1/2-x,1/2-y,1/2-z
1/2+x,1/2+y,1/2-z
1/2-x,1/2+y,z
1/2+x,1/2-y,z
loop_
_atom_site_type_symbol
_atom_site_label
_atom_site_fract_x
_atom_site_fract_y
_atom_site_fract_z
Si Si1 0.877282 0.160052 0.719618
Si Si2 0.814939 0.544900 0.613139
Si Si3 0.000000 0.500000 0.250000
Si Si4 0.711295 0.823690 0.389263
O O1 0.802546 0.079597 0.663054
O O2 0.821318 0.194694 0.822037
O O3 0.887858 0.252250 0.648514
O O4 0.000000 0.118094 0.750000
O O5 0.825147 0.582753 0.500000
O O6 0.825844 0.431756 0.615661
O O7 0.922906 0.572125 0.681983
O O8 0.745976 0.794642 0.500000
#
# Coordination Sequence:
#
# PCOD8295126 Si02
#       4
#    16  16   4  16
#     4  11  24  44  71 102 146 188 236 305 359 435
#     4  11  24  43  71 104 141 186 238 297 358 426
#     4  12  22  44  70  98 136 190 242 282 352 426
#     4  10  23  42  65 100 138 186 239 287 357 425
#
# _framework density 23.273150999999999
#
# number of rings (size 3 to 8) (size 9 to 14) (size 15 to 20)
#    0.000    1.231    3.077    1.385    2.154    4.923 
#    0.000    6.154    0.000    0.000    0.000    0.000 
#    0.000    0.000    0.000    0.000    0.000    0.000 
#
# Total GULP energy -322216.880334 kJ/mol
# GULP energy per Si atom -12392.956936 kJ/mol
# Density = 2.322018 g / cm^3
# Si number density = 23.273151 Si / 1000 Ang^3
#
#
#
# Elastic Constant Matrix: (Units=GPa)
#
#
# Indices 1 2 3 4 5 6 
#
# 1 162.4821 31.4204 76.8298 0.0000 0.0000 0.0000
# 2 31.4204 90.3336 29.3592 0.0000 0.0000 0.0000
# 3 76.8298 29.3592 221.1352 -0.0001 0.0000 0.0000
# 4 0.0000 0.0000 -0.0001 34.5194 0.0000 0.0000
# 5 0.0000 0.0000 0.0000 0.0000 25.2194 0.0000
# 6 0.0000 0.0000 0.0000 0.0000 0.0000 27.3639
#
#
#
# Elastic Compliance Matrix: (Units=1/GPa)
#
#
# Indices 1 2 3 4 5 6 
#
# 1 0.007658 -0.001880 -0.002411 0.000000 0.000000 0.000000
# 2 -0.001880 0.012031 -0.000944 0.000000 0.000000 0.000000
# 3 -0.002411 -0.000944 0.005485 0.000000 0.000000 0.000000
# 4 0.000000 0.000000 0.000000 0.028969 0.000000 0.000000
# 5 0.000000 0.000000 0.000000 0.000000 0.039652 0.000000
# 6 0.000000 0.000000 0.000000 0.000000 0.000000 0.036544
#
#
# Mechanical properties :
#
#
# Convention : Reuss Voigt Hill
#
# Bulk Modulus (GPa) = 68.01026 83.24108 75.62567
# Shear Modulus (GPa) = 34.31436 39.84332 37.07884
#
# Velocity S-wave (km/s) = 3.84398 4.14210 3.99582
# Velocity P-wave (km/s) = 6.99912 7.66294 7.33854
#
# Compressibility (1/GPa) = 0.01470366
#
# Stress axis : x y z
#
# Youngs Moduli (GPa) = 130.57936 83.11957 182.31019
#
# Poissons Ratio (x) = 0.15627 0.43957
# Poissons Ratio (y) = 0.24550 0.17212
# Poissons Ratio (z) = 0.31484 0.07847
#
# Static dielectric constant tensor:
#      x y z
#    x 3.906700 0.000000 0.000000 
#    y 0.000000 4.047710 0.000000 
#    z 0.000000 0.000000 4.921690 
# 
# 
# High freq. dielectric constant tensor:
#      x y z
#    x 1.892090 0.000000 0.000000 
#    y 0.000000 1.915540 0.000000 
#    z 0.000000 0.000000 1.947340 
# 
# From -- ./inp_files/19534.got.cif
#   From: 2010.03.12/outbox.cif.g09.slc.cpg/sg72_10_cif.got.tgz:19534.got - 2010.04.16 14:54:00.
