data_PCOD8295631
_publ_section_title
;
Structure prediction by ZEFSAII (Michael W. Deem and Ramdas Pophale) SiO2 
 PCOD8295631
Probable space group: I B C A 
;
_chemical_formula_sum "Si O2"
_cell_formula_units_Z 96
_cell_length_a 19.307103
_cell_length_b 14.935215
_cell_length_c 16.343403
_cell_angle_alpha 90.000000
_cell_angle_beta 90.000000
_cell_angle_gamma 90.000000
_cell_volume 4712.713974
_symmetry_space_group_name_H-M "I B C A "
_symmetry_group_IT_number 73
_symmetry_cell_setting 'orthorhombic'
loop_
_space_group_symop_operation_xyz
x,y,z
-x,1/2-y,z
x,-y,1/2-z
1/2-x,y,-z
-x,-y,-z
x,1/2+y,-z
-x,y,1/2+z
1/2+x,-y,z
1/2+x,1/2+y,1/2+z
1/2-x,-y,1/2+z
1/2+x,1/2-y,-z
-x,1/2+y,1/2-z
1/2-x,1/2-y,1/2-z
1/2+x,y,1/2-z
1/2-x,1/2+y,z
x,1/2-y,1/2+z
loop_
_atom_site_type_symbol
_atom_site_label
_atom_site_fract_x
_atom_site_fract_y
_atom_site_fract_z
Si Si1 0.016203 0.479487 0.093179
Si Si2 0.455844 0.669600 0.888996
Si Si3 0.057058 0.815482 0.419697
Si Si4 0.168028 0.072835 0.639936
Si Si5 0.812981 0.124526 0.325781
Si Si6 0.213313 0.754053 0.415351
O O1 0.015558 0.573059 0.143381
O O2 0.090696 0.430540 0.103275
O O3 0.955965 0.412023 0.124350
O O4 0.000000 0.500000 0.000000
O O5 0.500000 0.750000 0.848399
O O6 0.376097 0.678826 0.865679
O O7 0.462348 0.673363 0.985833
O O8 0.134025 0.782336 0.408634
O O9 0.000000 0.750000 0.379676
O O10 0.168116 0.108682 0.732205
O O11 0.215357 0.145718 0.592056
O O12 0.200723 0.973038 0.632418
O O13 0.748600 0.190919 0.341063
O O14 0.250000 0.782544 0.500000
#
# Coordination Sequence:
#
# PCOD8295631 Si02
#       6
#    16  16  16  16  16  16
#     4   9  18  34  62  86 113 155 202 261 304 369
#     4   9  18  35  57  85 120 156 197 250 312 373
#     4  10  18  35  58  87 119 148 205 257 313 358
#     4  10  22  42  64  85 124 172 205 255 330 383
#     4  10  22  42  61  87 129 168 208 255 325 399
#     4  12  23  38  62  94 123 161 213 267 317 385
#
# _framework density 20.370426999999999
#
# number of rings (size 3 to 8) (size 9 to 14) (size 15 to 20)
#    0.000    2.000    3.333    0.500    0.000    0.667 
#    6.000    0.000    0.000    0.000    0.000    0.000 
#    0.000    0.000    0.000    0.000    0.000    0.000 
#
# Total GULP energy -594693.636687 kJ/mol
# GULP energy per Si atom -12389.450764 kJ/mol
# Density = 2.032406 g / cm^3
# Si number density = 20.370427 Si / 1000 Ang^3
#
#
#
# Elastic Constant Matrix: (Units=GPa)
#
#
# Indices 1 2 3 4 5 6 
#
# 1 128.2644 84.5204 25.9444 0.0000 0.0000 0.0000
# 2 84.5204 151.5493 22.7375 0.0000 0.0000 0.0000
# 3 25.9444 22.7375 44.4293 0.0000 0.0000 0.0000
# 4 0.0000 0.0000 0.0000 22.5312 0.0000 0.0000
# 5 0.0000 0.0000 0.0000 0.0000 22.2961 0.0000
# 6 0.0000 0.0000 0.0000 0.0000 0.0000 43.5958
#
#
#
# Elastic Compliance Matrix: (Units=1/GPa)
#
#
# Indices 1 2 3 4 5 6 
#
# 1 0.013014 -0.006627 -0.004208 0.000000 0.000000 0.000000
# 2 -0.006627 0.010522 -0.001515 0.000000 0.000000 0.000000
# 3 -0.004208 -0.001515 0.025740 0.000000 0.000000 0.000000
# 4 0.000000 0.000000 0.000000 0.044383 0.000000 0.000000
# 5 0.000000 0.000000 0.000000 0.000000 0.044851 0.000000
# 6 0.000000 0.000000 0.000000 0.000000 0.000000 0.022938
#
#
# Mechanical properties :
#
#
# Convention : Reuss Voigt Hill
#
# Bulk Modulus (GPa) = 40.68965 65.62749 53.15857
# Shear Modulus (GPa) = 25.72802 30.42067 28.07434
#
# Velocity S-wave (km/s) = 3.55774 3.86861 3.71643
# Velocity P-wave (km/s) = 6.07412 7.22785 6.67596
#
# Compressibility (1/GPa) = 0.02457628
#
# Stress axis : x y z
#
# Youngs Moduli (GPa) = 76.83779 95.04201 38.84947
#
# Poissons Ratio (x) = 0.62983 0.16349
# Poissons Ratio (y) = 0.50919 0.05885
# Poissons Ratio (z) = 0.32336 0.14398
#
# Static dielectric constant tensor:
#      x y z
#    x 3.542550 0.000000 0.000000 
#    y 0.000000 4.612990 0.000000 
#    z 0.000000 0.000000 3.404550 
# 
# 
# High freq. dielectric constant tensor:
#      x y z
#    x 1.781520 0.000000 0.000000 
#    y 0.000000 1.823920 0.000000 
#    z 0.000000 0.000000 1.762630 
# 
# From -- ./inp_files/18648.got.cif
#   From: 2010.03.12/outbox.cif.g09.slc.cpg/sg73_10_cif.got.tgz:18648.got - 2010.04.16 15:25:48.
