data_PCOD8295660
_publ_section_title
;
Structure prediction by ZEFSAII (Michael W. Deem and Ramdas Pophale) SiO2 
 PCOD8295660
Probable space group: I B C A 
;
_chemical_formula_sum "Si O2"
_cell_formula_units_Z 96
_cell_length_a 9.537016
_cell_length_b 20.478778
_cell_length_c 23.405473
_cell_angle_alpha 90.000000
_cell_angle_beta 90.000000
_cell_angle_gamma 90.000000
_cell_volume 4571.239455
_symmetry_space_group_name_H-M "I B C A "
_symmetry_group_IT_number 73
_symmetry_cell_setting 'orthorhombic'
loop_
_space_group_symop_operation_xyz
x,y,z
-x,1/2-y,z
x,-y,1/2-z
1/2-x,y,-z
-x,-y,-z
x,1/2+y,-z
-x,y,1/2+z
1/2+x,-y,z
1/2+x,1/2+y,1/2+z
1/2-x,-y,1/2+z
1/2+x,1/2-y,-z
-x,1/2+y,1/2-z
1/2-x,1/2-y,1/2-z
1/2+x,y,1/2-z
1/2-x,1/2+y,z
x,1/2-y,1/2+z
loop_
_atom_site_type_symbol
_atom_site_label
_atom_site_fract_x
_atom_site_fract_y
_atom_site_fract_z
Si Si1 0.063613 0.066266 0.225879
Si Si2 0.497684 0.540811 0.941928
Si Si3 0.724454 0.968694 0.114460
Si Si4 0.209047 0.852575 0.775574
Si Si5 0.658874 0.267315 0.169384
Si Si6 0.809250 0.154200 0.441970
O O1 0.934861 0.111885 0.205364
O O2 0.888071 0.012248 0.393859
O O3 0.155616 0.099997 0.276200
O O4 0.994987 0.000000 0.250000
O O5 0.646391 0.531415 0.911955
O O6 0.460260 0.617431 0.952160
O O7 0.500000 0.500000 0.000000
O O8 0.677265 0.952362 0.177947
O O9 0.698925 0.902151 0.077440
O O10 0.237229 0.793547 0.819568
O O11 0.199882 0.826860 0.710515
O O12 0.500000 0.250000 0.184099
O O13 0.675434 0.288463 0.103860
O O14 0.750000 0.186204 0.500000
#
# Coordination Sequence:
#
# PCOD8295660 Si02
#       6
#    16  16  16  16  16  16
#     4  12  26  41  65 106 139 173 224 290 350 426
#     4  10  18  38  65  94 129 180 213 277 347 418
#     4  10  22  36  61  97 137 176 214 276 352 412
#     4  11  24  44  68  96 137 183 227 279 352 418
#     4  11  23  44  69  93 133 188 239 276 335 421
#     4  10  21  40  67  94 131 174 236 287 338 399
#
# _framework density 21.000869999999999
#
# number of rings (size 3 to 8) (size 9 to 14) (size 15 to 20)
#    1.000    0.333    5.000    1.000    7.000    0.000 
#    0.000    1.667    0.000    0.000    0.000    0.000 
#    0.000    0.000    0.000    0.000    0.000    0.000 
#
# Total GULP energy -594770.490477 kJ/mol
# GULP energy per Si atom -12391.051885 kJ/mol
# Density = 2.095307 g / cm^3
# Si number density = 21.000870 Si / 1000 Ang^3
#
#
#
# Elastic Constant Matrix: (Units=GPa)
#
#
# Indices 1 2 3 4 5 6 
#
# 1 86.2510 29.8916 -0.7617 0.0000 0.0000 0.0000
# 2 29.8916 95.9049 37.0060 0.0000 0.0000 0.0000
# 3 -0.7617 37.0060 79.4239 0.0000 0.0000 0.0000
# 4 0.0000 0.0000 0.0000 33.7500 0.0000 0.0000
# 5 0.0000 0.0000 0.0000 0.0000 29.9137 0.0000
# 6 0.0000 0.0000 0.0000 0.0000 0.0000 29.9629
#
#
#
# Elastic Compliance Matrix: (Units=1/GPa)
#
#
# Indices 1 2 3 4 5 6 
#
# 1 0.013402 -0.005153 0.002530 0.000000 0.000000 0.000000
# 2 -0.005153 0.014694 -0.006896 0.000000 0.000000 0.000000
# 3 0.002530 -0.006896 0.015828 0.000000 0.000000 0.000000
# 4 0.000000 0.000000 0.000000 0.029630 0.000000 0.000000
# 5 0.000000 0.000000 0.000000 0.000000 0.033430 0.000000
# 6 0.000000 0.000000 0.000000 0.000000 0.000000 0.033375
#
#
# Mechanical properties :
#
#
# Convention : Reuss Voigt Hill
#
# Bulk Modulus (GPa) = 40.18443 43.76128 41.97285
# Shear Modulus (GPa) = 29.81654 31.75491 30.78573
#
# Velocity S-wave (km/s) = 3.77208 3.89276 3.83290
# Velocity P-wave (km/s) = 6.17638 6.40998 6.29426
#
# Compressibility (1/GPa) = 0.02488526
#
# Stress axis : x y z
#
# Youngs Moduli (GPa) = 74.61368 68.05492 63.17953
#
# Poissons Ratio (x) = 0.35071 -0.15982
# Poissons Ratio (y) = 0.38451 0.43567
# Poissons Ratio (z) = -0.18875 0.46929
#
# Static dielectric constant tensor:
#      x y z
#    x 3.687520 0.000000 0.000000 
#    y 0.000000 3.735760 0.000000 
#    z 0.000000 0.000000 3.617320 
# 
# 
# High freq. dielectric constant tensor:
#      x y z
#    x 1.815130 0.000000 0.000000 
#    y 0.000000 1.810360 0.000000 
#    z 0.000000 0.000000 1.812710 
# 
# From -- ./inp_files/25444.got.cif
#   From: 2010.03.12/outbox.cif.g09.slc.cpg/sg73_13_cif.got.tgz:25444.got - 2010.04.16 15:25:48.
