data_PCOD8295092
_publ_section_title
;
Structure prediction by ZEFSAII (Michael W. Deem and Ramdas Pophale) SiO2 
 PCOD8295092
Probable space group: I B A M
;
_chemical_formula_sum "Si O2"
_cell_formula_units_Z 92
_cell_length_a 24.041487
_cell_length_b 8.922886
_cell_length_c 24.092688
_cell_angle_alpha 90.000000
_cell_angle_beta 90.000000
_cell_angle_gamma 90.000000
_cell_volume 5168.350125
_symmetry_space_group_name_H-M "I B A M"
_symmetry_group_IT_number 72
_symmetry_cell_setting 'orthorhombic'
loop_
_space_group_symop_operation_xyz
x,y,z
-x,-y,z
x,-y,1/2-z
-x,y,1/2-z
-x,-y,-z
x,y,-z
-x,y,1/2+z
x,-y,1/2+z
1/2+x,1/2+y,1/2+z
1/2-x,1/2-y,1/2+z
1/2+x,1/2-y,-z
1/2-x,1/2+y,-z
1/2-x,1/2-y,1/2-z
1/2+x,1/2+y,1/2-z
1/2-x,1/2+y,z
1/2+x,1/2-y,z
loop_
_atom_site_type_symbol
_atom_site_label
_atom_site_fract_x
_atom_site_fract_y
_atom_site_fract_z
Si Si1 0.483864 0.333514 0.616373
Si Si2 0.914205 0.421113 0.000000
Si Si3 0.033161 0.276226 0.000000
Si Si4 0.326263 0.234109 0.786281
Si Si5 0.500000 0.000000 0.750000
Si Si6 0.903810 0.352353 0.878552
Si Si7 0.907872 0.657207 0.814144
Si Si8 0.755105 0.000000 0.750000
O O1 0.500000 0.500000 0.634264
O O2 0.464665 0.332337 0.552664
O O3 0.533245 0.211448 0.627101
O O4 0.427126 0.298264 0.649554
O O5 0.915991 0.603164 0.000000
O O6 0.885192 0.358080 0.056443
O O7 0.977002 0.368887 0.000000
O O8 0.364151 0.251271 0.841024
O O9 0.359548 0.202173 0.728779
O O10 0.293957 0.390241 0.785308
O O11 0.282676 0.097237 0.792352
O O12 0.537039 0.884794 0.717533
O O13 0.893951 0.517863 0.853911
#
# Coordination Sequence:
#
# PCOD8295092 Si02
#       8
#    16   8   8  16   4  16  16   8
#     4  11  22  31  49  80 119 152 182 221 261 311
#     4   9  18  30  56  78 102 149 195 219 246 318
#     4   9  17  32  48  72 110 157 195 213 242 299
#     4  11  22  39  59  83 106 139 178 231 285 336
#     4  12  18  32  50  74 112 152 176 204 250 334
#     4  11  19  36  55  80 109 150 183 219 264 324
#     4  12  19  33  53  78 110 146 181 215 271 331
#     4  10  23  40  60  82 102 134 181 230 288 336
#
# _framework density 17.800650999999998
#
# number of rings (size 3 to 8) (size 9 to 14) (size 15 to 20)
#    0.000    1.217    6.957    0.261    2.435    0.000 
#    0.000    0.870    0.000    1.043    0.000    0.000 
#    0.000    0.000    0.000    0.000    0.000    0.000 
#
# Total GULP energy -569916.313248 kJ/mol
# GULP energy per Si atom -12389.485071 kJ/mol
# Density = 1.776014 g / cm^3
# Si number density = 17.800651 Si / 1000 Ang^3
#
#
#
# Elastic Constant Matrix: (Units=GPa)
#
#
# Indices 1 2 3 4 5 6 
#
# 1 72.1409 31.0430 51.4256 0.0000 0.0000 0.0000
# 2 31.0430 88.4164 29.9866 0.0000 0.0000 0.0000
# 3 51.4256 29.9866 127.1499 0.0000 0.0000 0.0000
# 4 0.0000 0.0000 0.0000 18.6980 0.0000 0.0000
# 5 0.0000 0.0000 0.0000 0.0000 40.1876 0.0000
# 6 0.0000 0.0000 0.0000 0.0000 0.0000 21.3143
#
#
#
# Elastic Compliance Matrix: (Units=1/GPa)
#
#
# Indices 1 2 3 4 5 6 
#
# 1 0.021302 -0.004953 -0.007447 0.000000 0.000000 0.000000
# 2 -0.004953 0.013445 -0.001167 0.000000 0.000000 0.000000
# 3 -0.007447 -0.001167 0.011152 0.000000 0.000000 0.000000
# 4 0.000000 0.000000 0.000000 0.053482 0.000000 0.000000
# 5 0.000000 0.000000 0.000000 0.000000 0.024883 0.000000
# 6 0.000000 0.000000 0.000000 0.000000 0.000000 0.046917
#
#
# Mechanical properties :
#
#
# Convention : Reuss Voigt Hill
#
# Bulk Modulus (GPa) = 53.29657 56.95753 55.12705
# Shear Modulus (GPa) = 24.44125 27.72344 26.08235
#
# Velocity S-wave (km/s) = 3.70949 3.95072 3.83201
# Velocity P-wave (km/s) = 6.95363 7.27172 7.11445
#
# Compressibility (1/GPa) = 0.01876293
#
# Stress axis : x y z
#
# Youngs Moduli (GPa) = 46.94362 74.37593 89.66858
#
# Poissons Ratio (x) = 0.36841 0.66780
# Poissons Ratio (y) = 0.23253 0.10469
# Poissons Ratio (z) = 0.34961 0.08683
#
# Static dielectric constant tensor:
#      x y z
#    x 3.158040 0.000000 0.000000 
#    y 0.000000 3.229530 0.000000 
#    z 0.000000 0.000000 5.661720 
# 
# 
# High freq. dielectric constant tensor:
#      x y z
#    x 1.657880 0.000000 0.000000 
#    y 0.000000 1.688300 0.000000 
#    z 0.000000 0.000000 1.688310 
# 
# From -- ./inp_files/45705.got.cif
#   From: 2010.03.12/outbox.cif.g09.slc.cpg/sg72_23_cif.got.tgz:45705.got - 2010.04.16 14:54:00.
