data_PCOD8295363
_publ_section_title
;
Structure prediction by ZEFSAII (Michael W. Deem and Ramdas Pophale) SiO2 
 PCOD8295363
Probable space group: I B A M
;
_chemical_formula_sum "Si O2"
_cell_formula_units_Z 64
_cell_length_a 11.671820
_cell_length_b 14.530067
_cell_length_c 18.111736
_cell_angle_alpha 90.000000
_cell_angle_beta 90.000000
_cell_angle_gamma 90.000000
_cell_volume 3071.611447
_symmetry_space_group_name_H-M "I B A M"
_symmetry_group_IT_number 72
_symmetry_cell_setting 'orthorhombic'
loop_
_space_group_symop_operation_xyz
x,y,z
-x,-y,z
x,-y,1/2-z
-x,y,1/2-z
-x,-y,-z
x,y,-z
-x,y,1/2+z
x,-y,1/2+z
1/2+x,1/2+y,1/2+z
1/2-x,1/2-y,1/2+z
1/2+x,1/2-y,-z
1/2-x,1/2+y,-z
1/2-x,1/2-y,1/2-z
1/2+x,1/2+y,1/2-z
1/2-x,1/2+y,z
1/2+x,1/2-y,z
loop_
_atom_site_type_symbol
_atom_site_label
_atom_site_fract_x
_atom_site_fract_y
_atom_site_fract_z
Si Si1 0.257088 0.795953 0.668472
Si Si2 0.511884 0.895924 0.835653
Si Si3 0.870808 0.976034 0.834985
Si Si4 0.285223 0.124237 0.413628
O O1 0.250000 0.750000 0.750000
O O2 0.364075 0.858839 0.647274
O O3 0.149757 0.865841 0.655994
O O4 0.279225 0.717732 0.607313
O O5 0.500000 0.880320 0.750000
O O6 0.408655 0.848382 0.879033
O O7 0.500000 0.000000 0.861206
O O8 0.851742 0.000000 0.750000
O O9 0.778163 0.035386 0.880130
O O10 0.000000 0.000000 0.861287
O O11 0.294829 0.108302 0.500000
#
# Coordination Sequence:
#
# PCOD8295363 Si02
#       4
#    16  16  16  16
#     4  12  24  43  74 103 134 181 234 286 342 415
#     4  11  22  43  75  99 133 182 235 284 337 418
#     4  11  24  45  73 101 138 187 236 281 345 426
#     4  12  28  45  68 107 143 182 233 295 357 407
#
# _framework density 20.835968999999999
#
# number of rings (size 3 to 8) (size 9 to 14) (size 15 to 20)
#    0.000    0.500    7.500    0.000    3.500    3.000 
#    0.000    0.000    0.000    0.000    0.000    0.000 
#    0.000    0.000    0.000    0.000    0.000    0.000 
#
# Total GULP energy -396519.180320 kJ/mol
# GULP energy per Si atom -12391.224385 kJ/mol
# Density = 2.078855 g / cm^3
# Si number density = 20.835969 Si / 1000 Ang^3
#
#
#
# Elastic Constant Matrix: (Units=GPa)
#
#
# Indices 1 2 3 4 5 6 
#
# 1 123.3155 37.6545 38.4316 0.0000 0.0000 0.0000
# 2 37.6545 137.1886 25.6739 0.0000 0.0000 0.0000
# 3 38.4316 25.6739 125.1266 0.0000 0.0000 0.0000
# 4 0.0000 0.0000 0.0000 26.8866 0.0000 0.0000
# 5 0.0000 0.0000 0.0000 0.0000 21.9762 0.0000
# 6 0.0000 0.0000 0.0000 0.0000 0.0000 61.1970
#
#
#
# Elastic Compliance Matrix: (Units=1/GPa)
#
#
# Indices 1 2 3 4 5 6 
#
# 1 0.009543 -0.002153 -0.002489 0.000000 0.000000 0.000000
# 2 -0.002153 0.008066 -0.000994 0.000000 0.000000 0.000000
# 3 -0.002489 -0.000994 0.008960 0.000000 0.000000 0.000000
# 4 0.000000 0.000000 0.000000 0.037193 0.000000 0.000000
# 5 0.000000 0.000000 0.000000 0.000000 0.045504 0.000000
# 6 0.000000 0.000000 0.000000 0.000000 0.000000 0.016341
#
#
# Mechanical properties :
#
#
# Convention : Reuss Voigt Hill
#
# Bulk Modulus (GPa) = 65.37292 65.46118 65.41705
# Shear Modulus (GPa) = 35.21676 40.93668 38.07672
#
# Velocity S-wave (km/s) = 4.11565 4.43732 4.27951
# Velocity P-wave (km/s) = 7.35037 7.59859 7.47551
#
# Compressibility (1/GPa) = 0.01529685
#
# Stress axis : x y z
#
# Youngs Moduli (GPa) = 104.79392 123.97364 111.60357
#
# Poissons Ratio (x) = 0.26696 0.27779
# Poissons Ratio (y) = 0.22566 0.11090
# Poissons Ratio (z) = 0.26084 0.12319
#
# Static dielectric constant tensor:
#      x y z
#    x 4.061960 0.000000 0.000000 
#    y 0.000000 1.027530 0.000000 
#    z 0.000000 0.000000 3.497990 
# 
# 
# High freq. dielectric constant tensor:
#      x y z
#    x 1.827270 0.000000 0.000000 
#    y 0.000000 1.836710 0.000000 
#    z 0.000000 0.000000 1.786910 
# 
# From -- ./inp_files/28783.got.cif
#   From: 2010.03.12/outbox.cif.g09.slc.cpg/sg72_15_cif.got.tgz:28783.got - 2010.04.16 14:54:00.
