data_PCOD8295542
_publ_section_title
;
Structure prediction by ZEFSAII (Michael W. Deem and Ramdas Pophale) SiO2 
 PCOD8295542
Probable space group: I B C A 
;
_chemical_formula_sum "Si O2"
_cell_formula_units_Z 112
_cell_length_a 13.298464
_cell_length_b 21.841611
_cell_length_c 19.166687
_cell_angle_alpha 90.000000
_cell_angle_beta 90.000000
_cell_angle_gamma 90.000000
_cell_volume 5567.153560
_symmetry_space_group_name_H-M "I B C A "
_symmetry_group_IT_number 73
_symmetry_cell_setting 'orthorhombic'
loop_
_space_group_symop_operation_xyz
x,y,z
-x,1/2-y,z
x,-y,1/2-z
1/2-x,y,-z
-x,-y,-z
x,1/2+y,-z
-x,y,1/2+z
1/2+x,-y,z
1/2+x,1/2+y,1/2+z
1/2-x,-y,1/2+z
1/2+x,1/2-y,-z
-x,1/2+y,1/2-z
1/2-x,1/2-y,1/2-z
1/2+x,y,1/2-z
1/2-x,1/2+y,z
x,1/2-y,1/2+z
loop_
_atom_site_type_symbol
_atom_site_label
_atom_site_fract_x
_atom_site_fract_y
_atom_site_fract_z
Si Si1 0.009517 0.866033 0.053038
Si Si2 0.755968 0.434703 0.141280
Si Si3 0.894841 0.907069 0.424248
Si Si4 0.109178 0.000000 0.250000
Si Si5 0.250000 0.495171 0.000000
Si Si6 0.458292 0.476614 0.640936
Si Si7 0.296695 0.686279 0.924243
Si Si8 0.276640 0.677027 0.418897
O O1 0.110296 0.846658 0.095182
O O2 0.978176 0.935278 0.072777
O O3 0.917963 0.820269 0.070231
O O4 0.030581 0.864001 0.969497
O O5 0.830990 0.451446 0.203266
O O6 0.651081 0.460411 0.169752
O O7 0.750780 0.361678 0.130356
O O8 0.784688 0.464692 0.066478
O O9 0.809239 0.866607 0.383161
O O10 0.843269 0.952829 0.479875
O O11 0.960492 0.949749 0.373035
O O12 0.039885 0.040527 0.300928
O O13 0.269357 0.752955 0.893398
O O14 0.250000 0.675425 0.000000
O O15 0.250000 0.673405 0.500000
#
# Coordination Sequence:
#
# PCOD8295542 Si02
#       8
#    16  16  16   8   8  16  16  16
#     4  10  18  33  55  87 115 155 192 244 297 358
#     4  10  22  37  58  86 120 154 193 259 301 368
#     4  10  18  32  55  86 121 147 191 242 310 364
#     4  12  24  38  58  82 120 160 196 246 322 360
#     4  10  16  34  58  86 116 146 190 242 318 356
#     4  10  23  34  54  85 109 151 199 240 302 370
#     4  10  20  33  54  87 123 154 202 244 299 357
#     4   9  18  33  54  85 122 159 186 243 305 361
#
# _framework density 20.117999999999999
#
# number of rings (size 3 to 8) (size 9 to 14) (size 15 to 20)
#    0.000    2.000    2.857    2.143    4.000    0.000 
#    0.000    0.000    0.000    0.857    7.429    0.000 
#    0.000    0.000    0.000    0.000    0.000    0.000 
#
# Total GULP energy -694051.609804 kJ/mol
# GULP energy per Si atom -12393.778746 kJ/mol
# Density = 2.007221 g / cm^3
# Si number density = 20.118000 Si / 1000 Ang^3
#
#
#
# Elastic Constant Matrix: (Units=GPa)
#
#
# Indices 1 2 3 4 5 6 
#
# 1 110.5058 45.4628 42.9413 0.0000 0.0000 0.0000
# 2 45.4628 135.3004 29.6663 0.0000 0.0000 0.0000
# 3 42.9413 29.6663 62.2676 0.0000 0.0000 0.0000
# 4 0.0000 0.0000 0.0000 13.6346 0.0000 0.0000
# 5 0.0000 0.0000 0.0000 0.0000 34.9932 0.0000
# 6 0.0000 0.0000 0.0000 0.0000 0.0000 17.9379
#
#
#
# Elastic Compliance Matrix: (Units=1/GPa)
#
#
# Indices 1 2 3 4 5 6 
#
# 1 0.013204 -0.002725 -0.007808 0.000000 0.000000 0.000000
# 2 -0.002725 0.008815 -0.002321 0.000000 0.000000 0.000000
# 3 -0.007808 -0.002321 0.022550 0.000000 0.000000 0.000000
# 4 0.000000 0.000000 0.000000 0.073343 0.000000 0.000000
# 5 0.000000 0.000000 0.000000 0.000000 0.028577 0.000000
# 6 0.000000 0.000000 0.000000 0.000000 0.000000 0.055748
#
#
# Mechanical properties :
#
#
# Convention : Reuss Voigt Hill
#
# Bulk Modulus (GPa) = 53.01485 60.46828 56.74156
# Shear Modulus (GPa) = 21.34636 25.98005 23.66321
#
# Velocity S-wave (km/s) = 3.26092 3.59748 3.43333
# Velocity P-wave (km/s) = 6.37082 6.88316 6.63194
#
# Compressibility (1/GPa) = 0.01886264
#
# Stress axis : x y z
#
# Youngs Moduli (GPa) = 75.73252 113.43755 44.34609
#
# Poissons Ratio (x) = 0.30910 0.34625
# Poissons Ratio (y) = 0.20636 0.10292
# Poissons Ratio (z) = 0.59131 0.26327
#
# Static dielectric constant tensor:
#      x y z
#    x 3.970600 0.000000 0.000000 
#    y 0.000000 3.832680 0.000000 
#    z 0.000000 0.000000 3.238460 
# 
# 
# High freq. dielectric constant tensor:
#      x y z
#    x 1.803160 0.000000 0.000000 
#    y 0.000000 1.778660 0.000000 
#    z 0.000000 0.000000 1.727420 
# 
# From -- ./inp_files/25597.got.cif
#   From: 2010.03.12/outbox.cif.g09.slc.cpg/sg73_13_cif.got.tgz:25597.got - 2010.04.16 15:25:48.
