data_PCOD8295273
_publ_section_title
;
Structure prediction by ZEFSAII (Michael W. Deem and Ramdas Pophale) SiO2 
 PCOD8295273
Probable space group: I B A M
;
_chemical_formula_sum "Si O2"
_cell_formula_units_Z 80
_cell_length_a 8.661015
_cell_length_b 29.167971
_cell_length_c 15.745004
_cell_angle_alpha 90.000000
_cell_angle_beta 90.000000
_cell_angle_gamma 90.000000
_cell_volume 3977.569580
_symmetry_space_group_name_H-M "I B A M"
_symmetry_group_IT_number 72
_symmetry_cell_setting 'orthorhombic'
loop_
_space_group_symop_operation_xyz
x,y,z
-x,-y,z
x,-y,1/2-z
-x,y,1/2-z
-x,-y,-z
x,y,-z
-x,y,1/2+z
x,-y,1/2+z
1/2+x,1/2+y,1/2+z
1/2-x,1/2-y,1/2+z
1/2+x,1/2-y,-z
1/2-x,1/2+y,-z
1/2-x,1/2-y,1/2-z
1/2+x,1/2+y,1/2-z
1/2-x,1/2+y,z
1/2+x,1/2-y,z
loop_
_atom_site_type_symbol
_atom_site_label
_atom_site_fract_x
_atom_site_fract_y
_atom_site_fract_z
Si Si1 0.697319 0.393197 0.655332
Si Si2 0.322442 0.556818 0.000000
Si Si3 0.587310 0.287868 0.839033
Si Si4 0.669480 0.386277 0.841514
Si Si5 0.310011 0.453288 0.000000
Si Si6 0.731520 0.294516 0.594856
O O1 0.743429 0.405039 0.752938
O O2 0.513707 0.391344 0.654438
O O3 0.756856 0.430218 0.586308
O O4 0.771878 0.344621 0.630488
O O5 0.258350 0.584028 0.082174
O O6 0.253718 0.505690 0.000000
O O7 0.506509 0.552901 0.000000
O O8 0.500000 0.292931 0.750000
O O9 0.701089 0.331687 0.852112
O O10 0.453062 0.286859 0.909643
O O11 0.689678 0.242343 0.843129
O O12 0.797257 0.289128 0.500000
#
# Coordination Sequence:
#
# PCOD8295273 Si02
#       6
#    16   8  16  16   8  16
#     4   9  16  29  46  64  96 131 170 202 263 305
#     4   9  18  26  43  66  95 129 177 207 254 315
#     4  11  21  34  51  74 106 144 176 213 259 308
#     4   9  17  29  44  66  95 136 166 209 255 309
#     4   9  16  28  43  66  93 131 167 219 254 313
#     4  11  21  33  51  77 102 144 178 213 256 315
#
# _framework density 20.112786
#
# number of rings (size 3 to 8) (size 9 to 14) (size 15 to 20)
#    0.000    2.200    5.000    1.200    5.600    0.800 
#    0.000    4.000    0.000    0.000    0.000    0.000 
#    0.000    3.200    0.400    0.000    0.400    0.000 
#
# Total GULP energy -495749.653095 kJ/mol
# GULP energy per Si atom -12393.741327 kJ/mol
# Density = 2.006701 g / cm^3
# Si number density = 20.112786 Si / 1000 Ang^3
#
#
#
# Elastic Constant Matrix: (Units=GPa)
#
#
# Indices 1 2 3 4 5 6 
#
# 1 10.7295 17.9431 8.9158 0.0000 0.0000 0.0000
# 2 17.9431 187.3475 98.8013 0.0001 0.0000 0.0000
# 3 8.9158 98.8013 172.7249 0.0004 -0.0001 0.0000
# 4 0.0000 0.0001 0.0004 31.6332 0.0000 0.0000
# 5 0.0000 0.0000 -0.0001 0.0000 6.4085 0.0000
# 6 0.0000 0.0000 0.0000 0.0000 0.0000 18.1278
#
#
#
# Elastic Compliance Matrix: (Units=1/GPa)
#
#
# Indices 1 2 3 4 5 6 
#
# 1 0.111006 -0.010897 0.000503 0.000000 0.000001 0.000000
# 2 -0.010897 0.008713 -0.004422 0.000000 0.000000 0.000000
# 3 0.000503 -0.004422 0.008293 0.000000 0.000000 0.000000
# 4 0.000000 0.000000 0.000000 0.031612 0.000000 0.000000
# 5 0.000001 0.000000 0.000000 0.000000 0.156042 0.000000
# 6 0.000000 0.000000 0.000000 0.000000 0.000000 0.055164
#
#
# Mechanical properties :
#
#
# Convention : Reuss Voigt Hill
#
# Bulk Modulus (GPa) = 10.16452 69.12469 39.64460
# Shear Modulus (GPa) = 11.54056 27.57669 19.55862
#
# Velocity S-wave (km/s) = 2.39799 3.70686 3.12179
# Velocity P-wave (km/s) = 3.56818 7.26390 5.72259
#
# Compressibility (1/GPa) = 0.09838144
#
# Stress axis : x y z
#
# Youngs Moduli (GPa) = 9.00852 114.76954 120.58702
#
# Poissons Ratio (x) = 1.25064 -0.06069
# Poissons Ratio (y) = 0.09817 0.53318
# Poissons Ratio (z) = -0.00453 0.50746
#
# Static dielectric constant tensor:
#      x y z
#    x 2.893060 0.000000 0.000000 
#    y 0.000000 3.782730 0.000000 
#    z 0.000000 0.000000 4.093360 
# 
# 
# High freq. dielectric constant tensor:
#      x y z
#    x 1.701190 0.000000 0.000000 
#    y 0.000000 1.783710 0.000000 
#    z 0.000000 0.000000 1.806830 
# 
# From -- ./inp_files/20459.got.cif
#   From: 2010.03.12/outbox.cif.g09.slc.cpg/sg72_11_cif.got.tgz:20459.got - 2010.04.16 14:54:00.
