data_PCOD8295036
_publ_section_title
;
Structure prediction by ZEFSAII (Michael W. Deem and Ramdas Pophale) SiO2 
 PCOD8295036
Probable space group: I B A M
;
_chemical_formula_sum "Si O2"
_cell_formula_units_Z 64
_cell_length_a 8.712862
_cell_length_b 15.909700
_cell_length_c 20.440009
_cell_angle_alpha 90.000000
_cell_angle_beta 90.000000
_cell_angle_gamma 90.000000
_cell_volume 2833.374028
_symmetry_space_group_name_H-M "I B A M"
_symmetry_group_IT_number 72
_symmetry_cell_setting 'orthorhombic'
loop_
_space_group_symop_operation_xyz
x,y,z
-x,-y,z
x,-y,1/2-z
-x,y,1/2-z
-x,-y,-z
x,y,-z
-x,y,1/2+z
x,-y,1/2+z
1/2+x,1/2+y,1/2+z
1/2-x,1/2-y,1/2+z
1/2+x,1/2-y,-z
1/2-x,1/2+y,-z
1/2-x,1/2-y,1/2-z
1/2+x,1/2+y,1/2-z
1/2-x,1/2+y,z
1/2+x,1/2-y,z
loop_
_atom_site_type_symbol
_atom_site_label
_atom_site_fract_x
_atom_site_fract_y
_atom_site_fract_z
Si Si1 0.728948 0.339192 0.075594
Si Si2 0.226605 0.361730 0.783819
Si Si3 0.975184 0.753842 0.345696
Si Si4 0.327088 0.970108 0.660935
O O1 0.579228 0.322855 0.119209
O O2 0.781992 0.435997 0.089411
O O3 0.867405 0.278313 0.095754
O O4 0.690688 0.327189 0.000000
O O5 0.073164 0.322068 0.815028
O O6 0.369204 0.296286 0.788338
O O7 0.273319 0.447784 0.821881
O O8 0.199956 0.388452 0.708458
O O9 0.500000 0.000000 0.668290
#
# Coordination Sequence:
#
# PCOD8295036 Si02
#       4
#    16  16  16  16
#     4  11  24  42  65  95 134 176 224 266 322 396
#     4  10  22  42  68  94 133 162 219 277 332 394
#     4  10  23  42  67  98 127 174 220 275 333 381
#     4  11  23  42  65  97 133 171 214 274 332 396
#
# _framework density 22.587910999999998
#
# number of rings (size 3 to 8) (size 9 to 14) (size 15 to 20)
#    0.000    1.500    2.500    2.250    0.000    8.500 
#    0.000    6.250    0.000    0.000    0.000    0.000 
#    0.000    0.000    0.000    0.000    0.000    0.000 
#
# Total GULP energy -396760.833060 kJ/mol
# GULP energy per Si atom -12398.776033 kJ/mol
# Density = 2.253650 g / cm^3
# Si number density = 22.587911 Si / 1000 Ang^3
#
#
#
# Elastic Constant Matrix: (Units=GPa)
#
#
# Indices 1 2 3 4 5 6 
#
# 1 113.6224 34.8192 45.2560 0.0000 0.0000 0.0000
# 2 34.8192 88.1971 27.4882 0.0000 0.0000 0.0000
# 3 45.2560 27.4882 96.3515 0.0000 0.0000 0.0000
# 4 0.0000 0.0000 0.0000 34.2571 0.0000 0.0000
# 5 0.0000 0.0000 0.0000 0.0000 26.9931 0.0000
# 6 0.0000 0.0000 0.0000 0.0000 0.0000 35.6956
#
#
#
# Elastic Compliance Matrix: (Units=1/GPa)
#
#
# Indices 1 2 3 4 5 6 
#
# 1 0.011575 -0.003156 -0.004536 0.000000 0.000000 0.000000
# 2 -0.003156 0.013305 -0.002314 0.000000 0.000000 0.000000
# 3 -0.004536 -0.002314 0.013169 0.000000 0.000000 0.000000
# 4 0.000000 0.000000 0.000000 0.029191 0.000000 0.000000
# 5 0.000000 0.000000 0.000000 0.000000 0.037046 0.000000
# 6 0.000000 0.000000 0.000000 0.000000 0.000000 0.028015
#
#
# Mechanical properties :
#
#
# Convention : Reuss Voigt Hill
#
# Bulk Modulus (GPa) = 55.43843 57.03309 56.23576
# Shear Modulus (GPa) = 31.58038 32.09635 31.83837
#
# Velocity S-wave (km/s) = 3.74319 3.77364 3.75845
# Velocity P-wave (km/s) = 6.57865 6.65518 6.61702
#
# Compressibility (1/GPa) = 0.01803803
#
# Stress axis : x y z
#
# Youngs Moduli (GPa) = 86.39275 75.15859 75.93338
#
# Poissons Ratio (x) = 0.23719 0.34447
# Poissons Ratio (y) = 0.27264 0.17568
# Poissons Ratio (z) = 0.39191 0.17388
#
# Static dielectric constant tensor:
#      x y z
#    x 4.113810 0.000000 0.000000 
#    y 0.000000 4.547480 0.000000 
#    z 0.000000 0.000000 3.780290 
# 
# 
# High freq. dielectric constant tensor:
#      x y z
#    x 1.897490 0.000000 0.000000 
#    y 0.000000 1.910690 0.000000 
#    z 0.000000 0.000000 1.864140 
# 
# From -- ./inp_files/28965.got.cif
#   From: 2010.03.12/outbox.cif.g09.slc.cpg/sg72_15_cif.got.tgz:28965.got - 2010.04.16 14:54:00.
