data_PCOD8295402
_publ_section_title
;
Structure prediction by ZEFSAII (Michael W. Deem and Ramdas Pophale) SiO2 
 PCOD8295402
Probable space group: I B A M
;
_chemical_formula_sum "Si O2"
_cell_formula_units_Z 92
_cell_length_a 8.632384
_cell_length_b 19.708816
_cell_length_c 24.540142
_cell_angle_alpha 90.000000
_cell_angle_beta 90.000000
_cell_angle_gamma 90.000000
_cell_volume 4175.114185
_symmetry_space_group_name_H-M "I B A M"
_symmetry_group_IT_number 72
_symmetry_cell_setting 'orthorhombic'
loop_
_space_group_symop_operation_xyz
x,y,z
-x,-y,z
x,-y,1/2-z
-x,y,1/2-z
-x,-y,-z
x,y,-z
-x,y,1/2+z
x,-y,1/2+z
1/2+x,1/2+y,1/2+z
1/2-x,1/2-y,1/2+z
1/2+x,1/2-y,-z
1/2-x,1/2+y,-z
1/2-x,1/2-y,1/2-z
1/2+x,1/2+y,1/2-z
1/2-x,1/2+y,z
1/2+x,1/2-y,z
loop_
_atom_site_type_symbol
_atom_site_label
_atom_site_fract_x
_atom_site_fract_y
_atom_site_fract_z
Si Si1 0.470812 0.116055 0.000000
Si Si2 0.346402 0.468852 0.885813
Si Si3 0.539024 0.189287 0.384344
Si Si4 0.000000 0.858730 0.750000
Si Si5 0.260299 0.994023 0.000000
Si Si6 0.500000 0.000000 0.250000
Si Si7 0.695518 0.317919 0.652271
Si Si8 0.773475 0.418978 0.180879
O O1 0.486673 0.162335 0.054117
O O2 0.599886 0.058790 0.000000
O O3 0.311172 0.073401 0.000000
O O4 0.500000 0.500000 0.860006
O O5 0.332530 0.391409 0.871499
O O6 0.215821 0.516053 0.859514
O O7 0.348810 0.478279 0.949861
O O8 0.610262 0.264631 0.387379
O O9 0.380431 0.193355 0.349327
O O10 0.667444 0.145953 0.352306
O O11 0.880536 0.813597 0.713178
O O12 0.892533 0.903726 0.790426
O O13 0.604489 0.057523 0.275847
#
# Coordination Sequence:
#
# PCOD8295402 Si02
#       8
#     8  16  16   8   8   4  16  16
#     4  11  24  45  79 103 148 193 236 303 371 447
#     4  12  24  44  75 110 141 184 245 306 362 437
#     4  12  27  49  73 110 149 197 246 302 374 445
#     4  12  26  50  74 103 146 203 244 312 368 430
#     4  11  23  43  75 111 138 191 237 302 378 432
#     4  12  28  36  68 108 144 190 238 316 360 426
#     4  12  28  46  74 107 149 195 247 307 362 445
#     4  12  25  45  73 105 146 191 249 304 369 435
#
# _framework density 22.035325
#
# number of rings (size 3 to 8) (size 9 to 14) (size 15 to 20)
#    0.000    0.174    5.217    4.435    0.000    5.565 
#    0.000    0.000    0.000    0.000    0.000    0.000 
#    0.000    0.000    0.000    0.000    0.000    0.000 
#
# Total GULP energy -570022.743022 kJ/mol
# GULP energy per Si atom -12391.798761 kJ/mol
# Density = 2.198517 g / cm^3
# Si number density = 22.035325 Si / 1000 Ang^3
#
#
#
# Elastic Constant Matrix: (Units=GPa)
#
#
# Indices 1 2 3 4 5 6 
#
# 1 113.7588 78.2896 57.5456 0.0000 0.0000 0.0000
# 2 78.2896 65.9022 -11.2628 0.0000 0.0000 0.0000
# 3 57.5456 -11.2628 95.9444 0.0000 0.0000 0.0000
# 4 0.0000 0.0000 0.0000 16.3672 0.0000 0.0000
# 5 0.0000 0.0000 0.0000 0.0000 38.6967 0.0000
# 6 0.0000 0.0000 0.0000 0.0000 0.0000 37.3127
#
#
#
# Elastic Compliance Matrix: (Units=1/GPa)
#
#
# Indices 1 2 3 4 5 6 
#
# 1 -0.030534 0.040210 0.023034 0.000000 0.000000 0.000000
# 2 0.040210 -0.037467 -0.028515 0.000000 0.000000 0.000000
# 3 0.023034 -0.028515 -0.006740 0.000000 0.000000 0.000000
# 4 0.000000 0.000000 0.000000 0.061098 0.000000 0.000000
# 5 0.000000 0.000000 0.000000 0.000000 0.025842 0.000000
# 6 0.000000 0.000000 0.000000 0.000000 0.000000 0.026801
#
#
# Mechanical properties :
#
#
# Convention : Reuss Voigt Hill
#
# Bulk Modulus (GPa) = -189.24001 58.30556 -65.46723
# Shear Modulus (GPa) = -155.19100 28.54418 -63.32341
#
# Velocity S-wave (km/s) = -8.40126 3.60305 -5.36653
# Velocity P-wave (km/s) = 13.42293 6.62018 8.25676
#
# Compressibility (1/GPa) = -0.00528429
#
# Stress axis : x y z
#
# Youngs Moduli (GPa) = -32.75057 -26.69009 -148.37058
#
# Poissons Ratio (x) = 1.07320 3.41753
# Poissons Ratio (y) = 1.31689 -4.23082
# Poissons Ratio (z) = 0.75437 -0.76107
#
# Static dielectric constant tensor:
#      x y z
#    x 4.025310 0.000000 0.000000 
#    y 0.000000 6.942080 0.000000 
#    z 0.000000 0.000000 1.083040 
# 
# 
# High freq. dielectric constant tensor:
#      x y z
#    x 1.881290 0.000000 0.000000 
#    y 0.000000 1.874380 0.000000 
#    z 0.000000 0.000000 1.870280 
# 
# From -- ./inp_files/42333.got.cif
#   From: 2010.03.12/outbox.cif.g09.slc.cpg/sg72_22_cif.got.tgz:42333.got - 2010.04.16 14:54:00.
