data_PCOD8295099
_publ_section_title
;
Structure prediction by ZEFSAII (Michael W. Deem and Ramdas Pophale) SiO2 
 PCOD8295099
Probable space group: I B A M
;
_chemical_formula_sum "Si O2"
_cell_formula_units_Z 96
_cell_length_a 10.498982
_cell_length_b 24.152919
_cell_length_c 17.602372
_cell_angle_alpha 90.000000
_cell_angle_beta 90.000000
_cell_angle_gamma 90.000000
_cell_volume 4463.628182
_symmetry_space_group_name_H-M "I B A M"
_symmetry_group_IT_number 72
_symmetry_cell_setting 'orthorhombic'
loop_
_space_group_symop_operation_xyz
x,y,z
-x,-y,z
x,-y,1/2-z
-x,y,1/2-z
-x,-y,-z
x,y,-z
-x,y,1/2+z
x,-y,1/2+z
1/2+x,1/2+y,1/2+z
1/2-x,1/2-y,1/2+z
1/2+x,1/2-y,-z
1/2-x,1/2+y,-z
1/2-x,1/2-y,1/2-z
1/2+x,1/2+y,1/2-z
1/2-x,1/2+y,z
1/2+x,1/2-y,z
loop_
_atom_site_type_symbol
_atom_site_label
_atom_site_fract_x
_atom_site_fract_y
_atom_site_fract_z
Si Si1 0.970751 0.173576 0.413390
Si Si2 0.612785 0.855543 0.197517
Si Si3 0.945536 0.703421 0.913835
Si Si4 0.353210 0.483063 0.830886
Si Si5 0.236387 0.917556 0.413712
Si Si6 0.219230 0.144178 0.663100
O O1 0.017839 0.163518 0.500000
O O2 0.899507 0.232772 0.406509
O O3 0.876745 0.124297 0.389107
O O4 0.090685 0.176763 0.356646
O O5 0.500000 0.878722 0.250000
O O6 0.562652 0.804534 0.145705
O O7 0.644127 0.904605 0.139522
O O8 0.734342 0.840516 0.251159
O O9 0.829651 0.662062 0.895263
O O10 0.992142 0.691524 0.000000
O O11 0.500000 0.500000 0.827779
O O12 0.291133 0.500000 0.750000
O O13 0.298009 0.518752 0.900388
O O14 0.318211 0.419982 0.847566
O O15 0.275752 0.907993 0.500000
#
# Coordination Sequence:
#
# PCOD8295099 Si02
#       6
#    16  16  16  16  16  16
#     4  10  23  40  64  99 136 173 216 270 333 394
#     4  10  23  43  62  94 127 177 222 269 319 387
#     4  10  23  43  65  93 135 182 220 270 330 389
#     4  11  22  41  67  97 133 172 212 270 338 388
#     4  11  23  41  67  99 130 168 215 270 333 395
#     4  11  22  42  67  97 133 169 221 273 334 387
#
# _framework density 21.507168
#
# number of rings (size 3 to 8) (size 9 to 14) (size 15 to 20)
#    0.000    1.500    3.333    1.000    2.333    3.000 
#    6.000    5.833    0.000    5.000    0.000    0.000 
#    0.000    0.000    0.000    0.000    0.000    0.000 
#
# Total GULP energy -594941.156535 kJ/mol
# GULP energy per Si atom -12394.607428 kJ/mol
# Density = 2.145822 g / cm^3
# Si number density = 21.507168 Si / 1000 Ang^3
#
#
#
# Elastic Constant Matrix: (Units=GPa)
#
#
# Indices 1 2 3 4 5 6 
#
# 1 73.6768 43.0418 58.4825 0.0000 0.0000 0.0000
# 2 43.0418 132.5046 40.3839 0.0000 0.0000 0.0000
# 3 58.4825 40.3839 135.0680 0.0000 0.0000 0.0000
# 4 0.0000 0.0000 0.0000 27.6669 0.0000 0.0000
# 5 0.0000 0.0000 0.0000 0.0000 32.5501 0.0000
# 6 0.0000 0.0000 0.0000 0.0000 0.0000 31.0042
#
#
#
# Elastic Compliance Matrix: (Units=1/GPa)
#
#
# Indices 1 2 3 4 5 6 
#
# 1 0.023293 -0.004943 -0.008608 0.000000 0.000000 0.000000
# 2 -0.004943 0.009352 -0.000656 0.000000 0.000000 0.000000
# 3 -0.008608 -0.000656 0.011327 0.000000 0.000000 0.000000
# 4 0.000000 0.000000 0.000000 0.036144 0.000000 0.000000
# 5 0.000000 0.000000 0.000000 0.000000 0.030722 0.000000
# 6 0.000000 0.000000 0.000000 0.000000 0.000000 0.032254
#
#
# Mechanical properties :
#
#
# Convention : Reuss Voigt Hill
#
# Bulk Modulus (GPa) = 64.27157 69.45174 66.86166
# Shear Modulus (GPa) = 28.29789 31.53366 29.91578
#
# Velocity S-wave (km/s) = 3.63125 3.83324 3.73361
# Velocity P-wave (km/s) = 6.89420 7.20792 7.05281
#
# Compressibility (1/GPa) = 0.01555898
#
# Stress axis : x y z
#
# Youngs Moduli (GPa) = 42.93152 106.92347 88.28603
#
# Poissons Ratio (x) = 0.52851 0.75993
# Poissons Ratio (y) = 0.21221 0.05792
# Poissons Ratio (z) = 0.36954 0.07015
#
# Static dielectric constant tensor:
#      x y z
#    x 3.814430 0.000000 0.000000 
#    y 0.000000 3.739460 0.000000 
#    z 0.000000 0.000000 4.188230 
# 
# 
# High freq. dielectric constant tensor:
#      x y z
#    x 1.828630 0.000000 0.000000 
#    y 0.000000 1.835390 0.000000 
#    z 0.000000 0.000000 1.860160 
# 
# From -- ./inp_files/29468.got.cif
#   From: 2010.03.12/outbox.cif.g09.slc.cpg/sg72_15_cif.got.tgz:29468.got - 2010.04.16 14:54:00.
