data_PCOD8295550
_publ_section_title
;
Structure prediction by ZEFSAII (Michael W. Deem and Ramdas Pophale) SiO2 
 PCOD8295550
Probable space group: I B C A 
;
_chemical_formula_sum "Si O2"
_cell_formula_units_Z 80
_cell_length_a 15.024849
_cell_length_b 30.042355
_cell_length_c 8.610431
_cell_angle_alpha 90.000000
_cell_angle_beta 90.000000
_cell_angle_gamma 90.000000
_cell_volume 3886.592252
_symmetry_space_group_name_H-M "I B C A "
_symmetry_group_IT_number 73
_symmetry_cell_setting 'orthorhombic'
loop_
_space_group_symop_operation_xyz
x,y,z
-x,1/2-y,z
x,-y,1/2-z
1/2-x,y,-z
-x,-y,-z
x,1/2+y,-z
-x,y,1/2+z
1/2+x,-y,z
1/2+x,1/2+y,1/2+z
1/2-x,-y,1/2+z
1/2+x,1/2-y,-z
-x,1/2+y,1/2-z
1/2-x,1/2-y,1/2-z
1/2+x,y,1/2-z
1/2-x,1/2+y,z
x,1/2-y,1/2+z
loop_
_atom_site_type_symbol
_atom_site_label
_atom_site_fract_x
_atom_site_fract_y
_atom_site_fract_z
Si Si1 0.900912 0.455578 0.184262
Si Si2 0.902187 0.364709 0.315879
Si Si3 0.250000 0.701234 0.682518
Si Si4 0.597811 0.864709 0.684121
Si Si5 0.599081 0.955578 0.815745
O O1 0.851574 0.500000 0.250000
O O2 0.857784 0.409874 0.246346
O O3 0.999995 0.455497 0.250013
O O4 0.899531 0.456596 0.000004
O O5 0.838532 0.324576 0.262362
O O6 0.907729 0.369707 0.500000
O O7 0.999999 0.354892 0.249999
O O8 0.250000 0.704901 0.500000
O O9 0.250000 0.750000 0.750000
O O10 0.338533 0.675423 0.737638
O O11 0.642210 0.909875 0.753655
O O12 0.648416 0.000000 0.750000
#
# Coordination Sequence:
#
# PCOD8295550 Si02
#       5
#    16  16  16  16  16
#     4  10  17  28  49  79 112 149 185 224 268 322
#     4  10  20  37  58  84 113 147 185 228 275 328
#     4  10  24  42  61  82 111 144 183 232 284 334
#     4  10  20  37  58  84 113 147 185 228 275 328
#     4  10  17  28  49  79 112 149 185 224 268 322
#
# _framework density 20.583586
#
# number of rings (size 3 to 8) (size 9 to 14) (size 15 to 20)
#    0.000    2.000    0.000    8.400    0.000    4.000 
#    0.000    5.000    0.000    0.000    0.000    0.000 
#    0.000    0.000    0.000    0.000    0.000    0.000 
#
# Total GULP energy -495793.017804 kJ/mol
# GULP energy per Si atom -12394.825445 kJ/mol
# Density = 2.053674 g / cm^3
# Si number density = 20.583586 Si / 1000 Ang^3
#
#
#
# Elastic Constant Matrix: (Units=GPa)
#
#
# Indices 1 2 3 4 5 6 
#
# 1 91.5960 78.3256 38.9708 -0.0001 0.0000 -0.0023
# 2 78.3256 233.5374 71.9215 -0.0014 0.0003 -0.0116
# 3 38.9708 71.9215 141.5003 -0.0232 -0.0025 -0.0761
# 4 -0.0001 -0.0014 -0.0232 42.3665 -0.0003 -0.0212
# 5 0.0000 0.0003 -0.0025 -0.0003 17.1511 -0.0123
# 6 -0.0023 -0.0116 -0.0761 -0.0212 -0.0123 184.3004
#
#
#
# Elastic Compliance Matrix: (Units=1/GPa)
#
#
# Indices 1 2 3 4 5 6 
#
# 1 0.015753 -0.004680 -0.001960 -0.000001 0.000000 -0.000001
# 2 -0.004680 0.006467 -0.001998 -0.000001 0.000000 0.000000
# 3 -0.001960 -0.001998 0.008623 0.000005 0.000001 0.000003
# 4 -0.000001 -0.000001 0.000005 0.023604 0.000000 0.000003
# 5 0.000000 0.000000 0.000001 0.000000 0.058305 0.000004
# 6 -0.000001 0.000000 0.000003 0.000003 0.000004 0.005426
#
#
# Mechanical properties :
#
#
# Convention : Reuss Voigt Hill
#
# Bulk Modulus (GPa) = 73.70917 93.89660 83.80289
# Shear Modulus (GPa) = 35.72054 67.25799 51.48927
#
# Velocity S-wave (km/s) = 4.17032 5.72245 5.00690
# Velocity P-wave (km/s) = 7.68610 9.45401 8.61552
#
# Compressibility (1/GPa) = 0.01356683
#
# Stress axis : x y z
#
# Youngs Moduli (GPa) = 63.47909 154.63422 115.97557
#
# Poissons Ratio (x) = 0.72366 0.22731
# Poissons Ratio (y) = 0.29707 0.23173
# Poissons Ratio (z) = 0.12442 0.30897
#
# Static dielectric constant tensor:
#      x y z
#    x 3.588810 0.000030 0.000000 
#    y 0.000030 4.005840 -0.000040 
#    z 0.000000 -0.000040 3.727300 
# 
# 
# High freq. dielectric constant tensor:
#      x y z
#    x 1.779250 0.000000 0.000000 
#    y 0.000000 1.821140 0.000000 
#    z 0.000000 0.000000 1.814890 
# 
# From -- ./inp_files/5572.got.cif
#   From: 2010.03.12/outbox.cif.g09.slc.cpg/sg73_3_cif.got.tgz:5572.got - 2010.04.16 15:25:48.
