data_PCOD8295659
_publ_section_title
;
Structure prediction by ZEFSAII (Michael W. Deem and Ramdas Pophale) SiO2 
 PCOD8295659
Probable space group: I B C A 
;
_chemical_formula_sum "Si O2"
_cell_formula_units_Z 104
_cell_length_a 16.404679
_cell_length_b 20.145137
_cell_length_c 13.950863
_cell_angle_alpha 90.000000
_cell_angle_beta 90.000000
_cell_angle_gamma 90.000000
_cell_volume 4610.404557
_symmetry_space_group_name_H-M "I B C A "
_symmetry_group_IT_number 73
_symmetry_cell_setting 'orthorhombic'
loop_
_space_group_symop_operation_xyz
x,y,z
-x,1/2-y,z
x,-y,1/2-z
1/2-x,y,-z
-x,-y,-z
x,1/2+y,-z
-x,y,1/2+z
1/2+x,-y,z
1/2+x,1/2+y,1/2+z
1/2-x,-y,1/2+z
1/2+x,1/2-y,-z
-x,1/2+y,1/2-z
1/2-x,1/2-y,1/2-z
1/2+x,y,1/2-z
1/2-x,1/2+y,z
x,1/2-y,1/2+z
loop_
_atom_site_type_symbol
_atom_site_label
_atom_site_fract_x
_atom_site_fract_y
_atom_site_fract_z
Si Si1 0.549208 0.629039 0.698026
Si Si2 0.096804 0.365384 0.067432
Si Si3 0.638165 0.500000 0.750000
Si Si4 0.292584 0.442184 0.812004
Si Si5 0.674630 0.681152 0.315801
Si Si6 0.336936 0.235328 0.866099
Si Si7 0.496057 0.826310 0.396584
O O1 0.455664 0.630414 0.664924
O O2 0.581953 0.553932 0.697754
O O3 0.600913 0.673637 0.623269
O O4 0.550432 0.660678 0.803301
O O5 0.163664 0.424107 0.086140
O O6 0.141138 0.293711 0.058918
O O7 0.037333 0.374467 0.976672
O O8 0.698490 0.534355 0.829614
O O9 0.338861 0.500000 0.750000
O O10 0.285926 0.377472 0.745791
O O11 0.649607 0.739300 0.242778
O O12 0.745008 0.710093 0.385679
O O13 0.598995 0.655762 0.380272
O O14 0.500000 0.750000 0.429184
#
# Coordination Sequence:
#
# PCOD8295659 Si02
#       7
#    16  16   8  16  16  16  16
#     4  12  21  41  64  96 130 174 224 281 344 403
#     4  11  24  38  69  98 130 173 227 281 347 409
#     4  10  24  38  72  86 124 188 228 276 334 400
#     4   9  19  42  63  88 124 175 226 270 328 396
#     4  10  19  35  68  91 125 172 216 271 341 399
#     4  10  18  38  65  93 125 173 217 271 348 404
#     4  12  23  40  64 105 140 169 219 289 353 410
#
# _framework density 22.557673999999999
#
# number of rings (size 3 to 8) (size 9 to 14) (size 15 to 20)
#    0.462    0.923    6.154    1.385    1.077    0.000 
#    0.000    8.462    3.385    0.000    0.000    0.000 
#    0.000    0.000    0.000    0.000    0.000    0.000 
#
# Total GULP energy -644477.173855 kJ/mol
# GULP energy per Si atom -12393.791805 kJ/mol
# Density = 2.250633 g / cm^3
# Si number density = 22.557674 Si / 1000 Ang^3
#
#
#
# Elastic Constant Matrix: (Units=GPa)
#
#
# Indices 1 2 3 4 5 6 
#
# 1 110.6334 29.2163 14.5085 0.0000 0.0000 0.0000
# 2 29.2163 98.8266 -1.0365 0.0000 0.0000 0.0000
# 3 14.5085 -1.0365 54.0964 0.0000 0.0000 0.0000
# 4 0.0000 0.0000 0.0000 13.5709 0.0000 0.0000
# 5 0.0000 0.0000 0.0000 0.0000 18.4482 0.0000
# 6 0.0000 0.0000 0.0000 0.0000 0.0000 43.5591
#
#
#
# Elastic Compliance Matrix: (Units=1/GPa)
#
#
# Indices 1 2 3 4 5 6 
#
# 1 0.010211 -0.003048 -0.002797 0.000000 0.000000 0.000000
# 2 -0.003048 0.011031 0.001029 0.000000 0.000000 0.000000
# 3 -0.002797 0.001029 0.019255 0.000000 0.000000 0.000000
# 4 0.000000 0.000000 0.000000 0.073687 0.000000 0.000000
# 5 0.000000 0.000000 0.000000 0.000000 0.054206 0.000000
# 6 0.000000 0.000000 0.000000 0.000000 0.000000 0.022957
#
#
# Mechanical properties :
#
#
# Convention : Reuss Voigt Hill
#
# Bulk Modulus (GPa) = 32.39960 38.77031 35.58495
# Shear Modulus (GPa) = 23.66675 29.84017 26.75346
#
# Velocity S-wave (km/s) = 3.24260 3.64103 3.44758
# Velocity P-wave (km/s) = 5.33043 5.90768 5.62646
#
# Compressibility (1/GPa) = 0.03086458
#
# Stress axis : x y z
#
# Youngs Moduli (GPa) = 97.93804 90.65704 51.93364
#
# Poissons Ratio (x) = 0.27631 0.14525
# Poissons Ratio (y) = 0.29851 -0.05343
# Poissons Ratio (z) = 0.27392 -0.09327
#
# Static dielectric constant tensor:
#      x y z
#    x 4.147540 0.000000 0.000000 
#    y 0.000000 4.064700 0.000000 
#    z 0.000000 0.000000 3.515380 
# 
# 
# High freq. dielectric constant tensor:
#      x y z
#    x 1.903510 0.000000 0.000000 
#    y 0.000000 1.877310 0.000000 
#    z 0.000000 0.000000 1.844610 
# 
# From -- ./inp_files/18135.got.cif
#   From: 2010.03.12/outbox.cif.g09.slc.cpg/sg73_10_cif.got.tgz:18135.got - 2010.04.16 15:25:48.
