data_PCOD8295535
_publ_section_title
;
Structure prediction by ZEFSAII (Michael W. Deem and Ramdas Pophale) SiO2 
 PCOD8295535
Probable space group: I B C A 
;
_chemical_formula_sum "Si O2"
_cell_formula_units_Z 96
_cell_length_a 17.704284
_cell_length_b 12.361171
_cell_length_c 22.926977
_cell_angle_alpha 90.000000
_cell_angle_beta 90.000000
_cell_angle_gamma 90.000000
_cell_volume 5017.469917
_symmetry_space_group_name_H-M "I B C A "
_symmetry_group_IT_number 73
_symmetry_cell_setting 'orthorhombic'
loop_
_space_group_symop_operation_xyz
x,y,z
-x,1/2-y,z
x,-y,1/2-z
1/2-x,y,-z
-x,-y,-z
x,1/2+y,-z
-x,y,1/2+z
1/2+x,-y,z
1/2+x,1/2+y,1/2+z
1/2-x,-y,1/2+z
1/2+x,1/2-y,-z
-x,1/2+y,1/2-z
1/2-x,1/2-y,1/2-z
1/2+x,y,1/2-z
1/2-x,1/2+y,z
x,1/2-y,1/2+z
loop_
_atom_site_type_symbol
_atom_site_label
_atom_site_fract_x
_atom_site_fract_y
_atom_site_fract_z
Si Si1 0.500000 0.750000 0.270977
Si Si2 0.911952 0.590956 0.798942
Si Si3 0.497190 0.924414 0.365278
Si Si4 0.250000 0.973941 0.500000
Si Si5 0.844458 0.903096 0.591473
Si Si6 0.762737 0.006642 0.182998
Si Si7 0.164030 0.348362 0.399993
O O1 0.566579 0.706850 0.228435
O O2 0.526353 0.850258 0.310883
O O3 0.899394 0.500000 0.750000
O O4 0.976024 0.545724 0.843285
O O5 0.828996 0.597367 0.828698
O O6 0.566063 0.928938 0.410631
O O7 0.425597 0.871045 0.397122
O O8 0.191026 0.050193 0.467081
O O9 0.200921 0.901617 0.543348
O O10 0.811702 0.962057 0.648237
O O11 0.823987 0.778210 0.595605
O O12 0.738125 0.000000 0.250000
O O13 0.796003 0.892541 0.158841
#
# Coordination Sequence:
#
# PCOD8295535 Si02
#       7
#     8  16  16   8  16  16  16
#     4  10  16  32  54  80 112 156 184 210 274 332
#     4   8  17  32  50  74 117 151 177 219 266 324
#     4  10  19  34  56  83 108 143 189 229 270 331
#     4  10  24  40  58  80 106 146 188 248 282 314
#     4  11  21  37  59  83 106 149 194 225 280 337
#     4   9  20  35  52  84 120 149 175 226 280 326
#     4  10  20  40  59  78 113 146 185 231 285 331
#
# _framework density 19.133149
#
# number of rings (size 3 to 8) (size 9 to 14) (size 15 to 20)
#    0.000    2.333    1.667    1.500    0.000    3.333 
#    6.000    0.000    0.000    0.000    0.000    0.000 
#    0.000    0.000    0.000    0.000    0.000    0.000 
#
# Total GULP energy -594994.330477 kJ/mol
# GULP energy per Si atom -12395.715218 kJ/mol
# Density = 1.908960 g / cm^3
# Si number density = 19.133149 Si / 1000 Ang^3
#
#
#
# Elastic Constant Matrix: (Units=GPa)
#
#
# Indices 1 2 3 4 5 6 
#
# 1 80.5479 34.3031 24.2625 0.0000 0.0000 0.0000
# 2 34.3031 56.4598 23.7784 0.0000 0.0000 0.0000
# 3 24.2625 23.7784 87.1384 0.0000 0.0000 0.0000
# 4 0.0000 0.0000 0.0000 19.9829 0.0000 0.0000
# 5 0.0000 0.0000 0.0000 0.0000 27.7592 0.0000
# 6 0.0000 0.0000 0.0000 0.0000 0.0000 18.7098
#
#
#
# Elastic Compliance Matrix: (Units=1/GPa)
#
#
# Indices 1 2 3 4 5 6 
#
# 1 0.017107 -0.009476 -0.002177 0.000000 0.000000 0.000000
# 2 -0.009476 0.025261 -0.004255 0.000000 0.000000 0.000000
# 3 -0.002177 -0.004255 0.013243 0.000000 0.000000 0.000000
# 4 0.000000 0.000000 0.000000 0.050043 0.000000 0.000000
# 5 0.000000 0.000000 0.000000 0.000000 0.036024 0.000000
# 6 0.000000 0.000000 0.000000 0.000000 0.000000 0.053448
#
#
# Mechanical properties :
#
#
# Convention : Reuss Voigt Hill
#
# Bulk Modulus (GPa) = 42.02677 43.20378 42.61528
# Shear Modulus (GPa) = 21.28804 22.74385 22.01594
#
# Velocity S-wave (km/s) = 3.33922 3.45151 3.39583
# Velocity P-wave (km/s) = 6.07292 6.20593 6.13978
#
# Compressibility (1/GPa) = 0.02379436
#
# Stress axis : x y z
#
# Youngs Moduli (GPa) = 58.45731 39.58645 75.51026
#
# Poissons Ratio (x) = 0.37514 0.16440
# Poissons Ratio (y) = 0.55397 0.32128
# Poissons Ratio (z) = 0.12727 0.16843
#
# Static dielectric constant tensor:
#      x y z
#    x 3.620970 0.000000 0.000000 
#    y 0.000000 3.368340 0.000000 
#    z 0.000000 0.000000 3.457210 
# 
# 
# High freq. dielectric constant tensor:
#      x y z
#    x 1.749620 0.000000 0.000000 
#    y 0.000000 1.728960 0.000000 
#    z 0.000000 0.000000 1.729590 
# 
# From -- ./inp_files/12068.got.cif
#   From: 2010.03.12/outbox.cif.g09.slc.cpg/sg73_7_cif.got.tgz:12068.got - 2010.04.16 15:25:48.
