data_PCOD8295959
_publ_section_title
;
Structure prediction by ZEFSAII (Michael W. Deem and Ramdas Pophale) SiO2 
 PCOD8295959
Probable space group: I B C A 
;
_chemical_formula_sum "Si O2"
_cell_formula_units_Z 104
_cell_length_a 27.441542
_cell_length_b 19.930191
_cell_length_c 9.166323
_cell_angle_alpha 90.000000
_cell_angle_beta 90.000000
_cell_angle_gamma 90.000000
_cell_volume 5013.201133
_symmetry_space_group_name_H-M "I B C A "
_symmetry_group_IT_number 73
_symmetry_cell_setting 'orthorhombic'
loop_
_space_group_symop_operation_xyz
x,y,z
-x,1/2-y,z
x,-y,1/2-z
1/2-x,y,-z
-x,-y,-z
x,1/2+y,-z
-x,y,1/2+z
1/2+x,-y,z
1/2+x,1/2+y,1/2+z
1/2-x,-y,1/2+z
1/2+x,1/2-y,-z
-x,1/2+y,1/2-z
1/2-x,1/2-y,1/2-z
1/2+x,y,1/2-z
1/2-x,1/2+y,z
x,1/2-y,1/2+z
loop_
_atom_site_type_symbol
_atom_site_label
_atom_site_fract_x
_atom_site_fract_y
_atom_site_fract_z
Si Si1 0.798421 0.310536 0.909157
Si Si2 0.633468 0.927447 0.227650
Si Si3 0.154455 0.269735 0.140221
Si Si4 0.304316 0.546108 0.949468
Si Si5 0.436027 0.802241 0.726259
Si Si6 0.193018 0.097616 0.510849
Si Si7 0.500000 0.750000 0.980404
O O1 0.804344 0.263199 0.767916
O O2 0.803247 0.387471 0.845687
O O3 0.750000 0.296131 0.000000
O O4 0.840343 0.290448 0.024733
O O5 0.591357 0.872675 0.234538
O O6 0.675662 0.917187 0.347114
O O7 0.608170 0.000000 0.250000
O O8 0.660768 0.926336 0.074579
O O9 0.101288 0.260653 0.211186
O O10 0.159384 0.342510 0.068048
O O11 0.250000 0.532240 0.000000
O O12 0.318343 0.471046 0.891721
O O13 0.464244 0.793356 0.878538
O O14 0.471566 0.801885 0.586076
O O15 0.250000 0.118142 0.500000
#
# Coordination Sequence:
#
# PCOD8295959 Si02
#       7
#    16  16  16  16  16  16   8
#     4  11  23  35  54  84 123 166 200 248 287 336
#     4  10  20  38  62  86 123 165 201 243 293 355
#     4  12  23  36  61  87 121 153 208 255 292 349
#     4   9  20  36  55  81 126 175 209 234 281 338
#     4  11  22  42  63  91 113 148 194 247 321 375
#     4  10  22  35  54  88 127 173 208 242 277 335
#     4  10  24  42  68  86 114 142 182 258 324 392
#
# _framework density 20.745228000000001
#
# number of rings (size 3 to 8) (size 9 to 14) (size 15 to 20)
#    0.000    1.538    1.538    3.692    4.308    0.615 
#    0.000    0.769    0.000    0.000    0.000    0.000 
#    0.000    0.000    0.000    0.000    0.000    0.000 
#
# Total GULP energy -644196.021973 kJ/mol
# GULP energy per Si atom -12388.385038 kJ/mol
# Density = 2.069801 g / cm^3
# Si number density = 20.745228 Si / 1000 Ang^3
#
#
#
# Elastic Constant Matrix: (Units=GPa)
#
#
# Indices 1 2 3 4 5 6 
#
# 1 81.3902 52.3412 21.5438 0.0000 0.0000 0.0000
# 2 52.3412 147.7495 26.5803 0.0000 0.0000 0.0000
# 3 21.5438 26.5803 47.6686 0.0000 0.0000 0.0000
# 4 0.0000 0.0000 0.0000 29.2429 0.0000 0.0000
# 5 0.0000 0.0000 0.0000 0.0000 29.7095 0.0000
# 6 0.0000 0.0000 0.0000 0.0000 0.0000 30.8515
#
#
#
# Elastic Compliance Matrix: (Units=1/GPa)
#
#
# Indices 1 2 3 4 5 6 
#
# 1 0.016830 -0.005106 -0.004759 0.000000 0.000000 0.000000
# 2 -0.005106 0.009072 -0.002751 0.000000 0.000000 0.000000
# 3 -0.004759 -0.002751 0.024663 0.000000 0.000000 0.000000
# 4 0.000000 0.000000 0.000000 0.034196 0.000000 0.000000
# 5 0.000000 0.000000 0.000000 0.000000 0.033659 0.000000
# 6 0.000000 0.000000 0.000000 0.000000 0.000000 0.032413
#
#
# Mechanical properties :
#
#
# Convention : Reuss Voigt Hill
#
# Bulk Modulus (GPa) = 39.47464 53.08213 46.27838
# Shear Modulus (GPa) = 27.09884 29.71698 28.40791
#
# Velocity S-wave (km/s) = 3.61815 3.78891 3.70452
# Velocity P-wave (km/s) = 6.04354 6.69211 6.37607
#
# Compressibility (1/GPa) = 0.02533272
#
# Stress axis : x y z
#
# Youngs Moduli (GPa) = 59.41858 110.23047 40.54658
#
# Poissons Ratio (x) = 0.56282 0.19297
# Poissons Ratio (y) = 0.30338 0.11154
# Poissons Ratio (z) = 0.28278 0.30324
#
# Static dielectric constant tensor:
#      x y z
#    x 3.559360 0.000000 0.000000 
#    y 0.000000 4.080720 0.000000 
#    z 0.000000 0.000000 3.849240 
# 
# 
# High freq. dielectric constant tensor:
#      x y z
#    x 1.779630 0.000000 0.000000 
#    y 0.000000 1.825120 0.000000 
#    z 0.000000 0.000000 1.822200 
# 
# From -- ./inp_files/7909.got.cif
#   From: 2010.03.12/outbox.cif.g09.slc.cpg/sg73_4_cif.got.tgz:7909.got - 2010.04.16 15:25:48.
