data_PCOD8295188
_publ_section_title
;
Structure prediction by ZEFSAII (Michael W. Deem and Ramdas Pophale) SiO2 
 PCOD8295188
Probable space group: I B A M
;
_chemical_formula_sum "Si O2"
_cell_formula_units_Z 88
_cell_length_a 23.852784
_cell_length_b 10.964532
_cell_length_c 15.954091
_cell_angle_alpha 90.000000
_cell_angle_beta 90.000000
_cell_angle_gamma 90.000000
_cell_volume 4172.547023
_symmetry_space_group_name_H-M "I B A M"
_symmetry_group_IT_number 72
_symmetry_cell_setting 'orthorhombic'
loop_
_space_group_symop_operation_xyz
x,y,z
-x,-y,z
x,-y,1/2-z
-x,y,1/2-z
-x,-y,-z
x,y,-z
-x,y,1/2+z
x,-y,1/2+z
1/2+x,1/2+y,1/2+z
1/2-x,1/2-y,1/2+z
1/2+x,1/2-y,-z
1/2-x,1/2+y,-z
1/2-x,1/2-y,1/2-z
1/2+x,1/2+y,1/2-z
1/2-x,1/2+y,z
1/2+x,1/2-y,z
loop_
_atom_site_type_symbol
_atom_site_label
_atom_site_fract_x
_atom_site_fract_y
_atom_site_fract_z
Si Si1 0.804616 0.618444 0.401488
Si Si2 0.322189 0.390157 0.597325
Si Si3 0.874929 0.149177 0.862832
Si Si4 0.407782 0.749822 0.807249
Si Si5 0.631165 0.000000 0.250000
Si Si6 0.503620 0.637352 0.092977
O O1 0.810759 0.576181 0.500000
O O2 0.740845 0.619992 0.368196
O O3 0.828380 0.754819 0.392418
O O4 0.834196 0.528334 0.334978
O O5 0.317164 0.382331 0.500000
O O6 0.351907 0.514871 0.623128
O O7 0.358909 0.273874 0.625211
O O8 0.891760 0.156662 0.766107
O O9 0.931727 0.177073 0.914062
O O10 0.408454 0.887114 0.773219
O O11 0.469302 0.724407 0.844582
O O12 0.500000 0.500000 0.127831
O O13 0.476679 0.645241 0.000000
#
# Coordination Sequence:
#
# PCOD8295188 Si02
#       6
#    16  16  16  16   8  16
#     4  10  24  42  64  93 134 182 226 282 340 404
#     4  11  23  38  64  97 129 171 224 278 339 402
#     4  11  23  41  65  97 134 171 219 281 346 398
#     4  11  24  41  64  96 131 177 218 273 331 399
#     4  10  26  44  65  96 134 185 232 270 322 420
#     4  11  22  39  67 101 133 165 218 279 342 404
#
# _framework density 21.090235
#
# number of rings (size 3 to 8) (size 9 to 14) (size 15 to 20)
#    0.000    1.273    1.818    3.273    5.091    3.636 
#    0.000    7.273    0.000    5.455    0.000    0.000 
#    0.000    0.000    0.000    0.000    0.000    0.000 
#
# Total GULP energy -545517.815251 kJ/mol
# GULP energy per Si atom -12398.132165 kJ/mol
# Density = 2.104223 g / cm^3
# Si number density = 21.090235 Si / 1000 Ang^3
#
#
#
# Elastic Constant Matrix: (Units=GPa)
#
#
# Indices 1 2 3 4 5 6 
#
# 1 168.7995 95.7197 36.3923 0.0000 0.0000 0.0000
# 2 95.7197 178.4990 19.1513 0.0000 0.0000 0.0000
# 3 36.3923 19.1513 65.6991 0.0000 0.0000 0.0000
# 4 0.0000 0.0000 0.0000 25.6473 0.0000 0.0000
# 5 0.0000 0.0000 0.0000 0.0000 32.7254 0.0000
# 6 0.0000 0.0000 0.0000 0.0000 0.0000 35.0964
#
#
#
# Elastic Compliance Matrix: (Units=1/GPa)
#
#
# Indices 1 2 3 4 5 6 
#
# 1 0.009368 -0.004611 -0.003845 0.000000 0.000000 0.000000
# 2 -0.004611 0.008053 0.000207 0.000000 0.000000 0.000000
# 3 -0.003845 0.000207 0.017290 0.000000 0.000000 0.000000
# 4 0.000000 0.000000 0.000000 0.038990 0.000000 0.000000
# 5 0.000000 0.000000 0.000000 0.000000 0.030557 0.000000
# 6 0.000000 0.000000 0.000000 0.000000 0.000000 0.028493
#
#
# Mechanical properties :
#
#
# Convention : Reuss Voigt Hill
#
# Bulk Modulus (GPa) = 54.90692 79.50272 67.20482
# Shear Modulus (GPa) = 32.19143 36.14279 34.16711
#
# Velocity S-wave (km/s) = 3.91111 4.14420 4.02934
# Velocity P-wave (km/s) = 6.81810 7.78958 7.31997
#
# Compressibility (1/GPa) = 0.01821264
#
# Stress axis : x y z
#
# Youngs Moduli (GPa) = 106.74825 124.18196 57.83538
#
# Poissons Ratio (x) = 0.57260 0.22238
# Poissons Ratio (y) = 0.49221 -0.01196
# Poissons Ratio (z) = 0.41044 -0.02567
#
# Static dielectric constant tensor:
#      x y z
#    x 3.734200 0.000000 0.000000 
#    y 0.000000 3.570930 0.000000 
#    z 0.000000 0.000000 4.120910 
# 
# 
# High freq. dielectric constant tensor:
#      x y z
#    x 1.834040 0.000000 0.000000 
#    y 0.000000 1.809920 0.000000 
#    z 0.000000 0.000000 1.846810 
# 
# From -- ./inp_files/24988.got.cif
#   From: 2010.03.12/outbox.cif.g09.slc.cpg/sg72_13_cif.got.tgz:24988.got - 2010.04.16 14:54:00.
