data_PCOD8295977
_publ_section_title
;
Structure prediction by ZEFSAII (Michael W. Deem and Ramdas Pophale) SiO2 
 PCOD8295977
Probable space group: I B C A 
;
_chemical_formula_sum "Si O2"
_cell_formula_units_Z 96
_cell_length_a 18.740272
_cell_length_b 25.751467
_cell_length_c 9.138357
_cell_angle_alpha 90.000000
_cell_angle_beta 90.000000
_cell_angle_gamma 90.000000
_cell_volume 4410.075099
_symmetry_space_group_name_H-M "I B C A "
_symmetry_group_IT_number 73
_symmetry_cell_setting 'orthorhombic'
loop_
_space_group_symop_operation_xyz
x,y,z
-x,1/2-y,z
x,-y,1/2-z
1/2-x,y,-z
-x,-y,-z
x,1/2+y,-z
-x,y,1/2+z
1/2+x,-y,z
1/2+x,1/2+y,1/2+z
1/2-x,-y,1/2+z
1/2+x,1/2-y,-z
-x,1/2+y,1/2-z
1/2-x,1/2-y,1/2-z
1/2+x,y,1/2-z
1/2-x,1/2+y,z
x,1/2-y,1/2+z
loop_
_atom_site_type_symbol
_atom_site_label
_atom_site_fract_x
_atom_site_fract_y
_atom_site_fract_z
Si Si1 0.699060 0.541472 0.876281
Si Si2 0.483853 0.649585 0.419950
Si Si3 0.907799 0.194070 0.637402
Si Si4 0.958995 0.964982 0.609736
Si Si5 0.859205 0.308163 0.578109
Si Si6 0.778322 0.841164 0.701386
O O1 0.702370 0.500000 0.750000
O O2 0.620662 0.546838 0.944361
O O3 0.724507 0.597734 0.824864
O O4 0.750000 0.519318 0.000000
O O5 0.457535 0.682840 0.279504
O O6 0.557510 0.671075 0.488735
O O7 0.497515 0.590472 0.367677
O O8 0.423680 0.651140 0.549025
O O9 0.899381 0.255080 0.614914
O O10 0.827780 0.169762 0.656530
O O11 0.955960 0.000000 0.750000
O O12 0.000000 0.000000 0.500000
O O13 0.812879 0.307481 0.429683
O O14 0.805144 0.323268 0.712065
#
# Coordination Sequence:
#
# PCOD8295977 Si02
#       6
#    16  16  16  16  16  16
#     4  11  22  43  76  99 137 181 228 286 352 405
#     4  11  23  42  63  99 140 174 225 280 333 405
#     4  11  23  38  67  99 134 184 222 274 338 406
#     4  11  23  41  69  99 134 180 225 280 341 407
#     4  10  20  38  68  94 130 176 222 272 345 395
#     4  10  20  43  68  97 132 175 225 288 338 400
#
# _framework density 21.768336000000001
#
# number of rings (size 3 to 8) (size 9 to 14) (size 15 to 20)
#    0.000    1.333    5.000    2.000    2.333    6.000 
#    0.000    1.667   11.000    0.000    0.000    0.000 
#    0.000    0.000    0.000    0.000    0.000    0.000 
#
# Total GULP energy -594812.598007 kJ/mol
# GULP energy per Si atom -12391.929125 kJ/mol
# Density = 2.171879 g / cm^3
# Si number density = 21.768336 Si / 1000 Ang^3
#
#
#
# Elastic Constant Matrix: (Units=GPa)
#
#
# Indices 1 2 3 4 5 6 
#
# 1 83.5457 61.5957 29.7361 0.0000 0.0000 0.0000
# 2 61.5957 162.9966 47.9030 0.0000 0.0000 0.0000
# 3 29.7361 47.9030 48.2083 0.0000 0.0000 0.0000
# 4 0.0000 0.0000 0.0000 34.8108 0.0000 0.0000
# 5 0.0000 0.0000 0.0000 0.0000 34.8022 0.0000
# 6 0.0000 0.0000 0.0000 0.0000 0.0000 38.8163
#
#
#
# Elastic Compliance Matrix: (Units=1/GPa)
#
#
# Indices 1 2 3 4 5 6 
#
# 1 0.017761 -0.004933 -0.006054 0.000000 0.000000 0.000000
# 2 -0.004933 0.010036 -0.006930 0.000000 0.000000 0.000000
# 3 -0.006054 -0.006930 0.031363 0.000000 0.000000 0.000000
# 4 0.000000 0.000000 0.000000 0.028727 0.000000 0.000000
# 5 0.000000 0.000000 0.000000 0.000000 0.028734 0.000000
# 6 0.000000 0.000000 0.000000 0.000000 0.000000 0.025762
#
#
# Mechanical properties :
#
#
# Convention : Reuss Voigt Hill
#
# Bulk Modulus (GPa) = 42.86793 63.69115 53.27954
# Shear Modulus (GPa) = 26.88305 32.05358 29.46832
#
# Velocity S-wave (km/s) = 3.51801 3.84146 3.68329
# Velocity P-wave (km/s) = 6.01975 6.99985 6.52822
#
# Compressibility (1/GPa) = 0.02332746
#
# Stress axis : x y z
#
# Youngs Moduli (GPa) = 56.30332 99.64535 31.88447
#
# Poissons Ratio (x) = 0.49151 0.19303
# Poissons Ratio (y) = 0.27772 0.22094
# Poissons Ratio (z) = 0.34087 0.69049
#
# Static dielectric constant tensor:
#      x y z
#    x 4.633390 0.000000 0.000000 
#    y 0.000000 3.880660 0.000000 
#    z 0.000000 0.000000 3.829390 
# 
# 
# High freq. dielectric constant tensor:
#      x y z
#    x 1.870050 0.000000 0.000000 
#    y 0.000000 1.861720 0.000000 
#    z 0.000000 0.000000 1.829830 
# 
# From -- ./inp_files/6445.got.cif
#   From: 2010.03.12/outbox.cif.g09.slc.cpg/sg73_4_cif.got.tgz:6445.got - 2010.04.16 15:25:48.
