data_PCOD8295854
_publ_section_title
;
Structure prediction by ZEFSAII (Michael W. Deem and Ramdas Pophale) SiO2 
 PCOD8295854
Probable space group: I B C A 
;
_chemical_formula_sum "Si O2"
_cell_formula_units_Z 88
_cell_length_a 18.295978
_cell_length_b 22.241677
_cell_length_c 9.352698
_cell_angle_alpha 90.000000
_cell_angle_beta 90.000000
_cell_angle_gamma 90.000000
_cell_volume 3805.923635
_symmetry_space_group_name_H-M "I B C A "
_symmetry_group_IT_number 73
_symmetry_cell_setting 'orthorhombic'
loop_
_space_group_symop_operation_xyz
x,y,z
-x,1/2-y,z
x,-y,1/2-z
1/2-x,y,-z
-x,-y,-z
x,1/2+y,-z
-x,y,1/2+z
1/2+x,-y,z
1/2+x,1/2+y,1/2+z
1/2-x,-y,1/2+z
1/2+x,1/2-y,-z
-x,1/2+y,1/2-z
1/2-x,1/2-y,1/2-z
1/2+x,y,1/2-z
1/2-x,1/2+y,z
x,1/2-y,1/2+z
loop_
_atom_site_type_symbol
_atom_site_label
_atom_site_fract_x
_atom_site_fract_y
_atom_site_fract_z
Si Si1 0.421866 0.855742 0.378201
Si Si2 0.688536 0.842054 0.112843
Si Si3 0.144657 0.789686 0.870663
Si Si4 0.819068 0.109082 0.921705
Si Si5 0.967153 0.958690 0.619995
Si Si6 0.000000 0.250000 0.994726
O O1 0.387037 0.862563 0.536549
O O2 0.357919 0.834649 0.267024
O O3 0.467426 0.914155 0.329635
O O4 0.481311 0.803490 0.387179
O O5 0.691456 0.771094 0.154288
O O6 0.698613 0.881419 0.255032
O O7 0.750000 0.859420 0.000000
O O8 0.176179 0.825411 0.005513
O O9 0.063232 0.769502 0.900021
O O10 0.895110 0.073982 0.942325
O O11 0.750000 0.075384 0.000000
O O12 0.941649 0.000000 0.750000
O O13 0.000000 0.000000 0.500000
#
# Coordination Sequence:
#
# PCOD8295854 Si02
#       6
#    16  16  16  16  16   8
#     4  11  23  41  70 103 139 181 232 286 357 412
#     4  11  24  42  66 106 150 186 223 278 351 435
#     4  11  22  37  67 105 146 186 223 276 350 426
#     4  12  26  46  70  99 139 188 238 287 351 424
#     4  12  27  49  73 101 136 182 241 303 349 408
#     4  10  20  34  66 106 144 170 224 276 350 422
#
# _framework density 23.121852000000001
#
# number of rings (size 3 to 8) (size 9 to 14) (size 15 to 20)
#    0.000    0.727    1.818    6.545    5.091    2.182 
#    0.000    6.364    0.000    0.000    0.000    0.000 
#    0.000    0.000    0.000    0.000    0.000    0.000 
#
# Total GULP energy -545542.859719 kJ/mol
# GULP energy per Si atom -12398.701357 kJ/mol
# Density = 2.306923 g / cm^3
# Si number density = 23.121852 Si / 1000 Ang^3
#
#
#
# Elastic Constant Matrix: (Units=GPa)
#
#
# Indices 1 2 3 4 5 6 
#
# 1 93.4078 39.6253 32.1640 0.0000 0.0000 0.0000
# 2 39.6253 85.3404 34.5753 0.0000 0.0000 0.0000
# 3 32.1640 34.5753 121.6632 0.0000 0.0000 0.0000
# 4 0.0000 0.0000 0.0000 35.2611 0.0000 0.0000
# 5 0.0000 0.0000 0.0000 0.0000 41.3786 0.0000
# 6 0.0000 0.0000 0.0000 0.0000 0.0000 23.5903
#
#
#
# Elastic Compliance Matrix: (Units=1/GPa)
#
#
# Indices 1 2 3 4 5 6 
#
# 1 0.013774 -0.005561 -0.002061 0.000000 0.000000 0.000000
# 2 -0.005561 0.015487 -0.002931 0.000000 0.000000 0.000000
# 3 -0.002061 -0.002931 0.009597 0.000000 0.000000 0.000000
# 4 0.000000 0.000000 0.000000 0.028360 0.000000 0.000000
# 5 0.000000 0.000000 0.000000 0.000000 0.024167 0.000000
# 6 0.000000 0.000000 0.000000 0.000000 0.000000 0.042390
#
#
# Mechanical properties :
#
#
# Convention : Reuss Voigt Hill
#
# Bulk Modulus (GPa) = 56.32917 57.01562 56.67240
# Shear Modulus (GPa) = 31.09446 32.98245 32.03846
#
# Velocity S-wave (km/s) = 3.67114 3.78095 3.72645
# Velocity P-wave (km/s) = 6.51034 6.61612 6.56344
#
# Compressibility (1/GPa) = 0.01775279
#
# Stress axis : x y z
#
# Youngs Moduli (GPa) = 72.59815 64.56912 104.19521
#
# Poissons Ratio (x) = 0.35905 0.21477
# Poissons Ratio (y) = 0.40369 0.30542
# Poissons Ratio (z) = 0.14964 0.18927
#
# Static dielectric constant tensor:
#      x y z
#    x 4.413090 0.000000 0.000000 
#    y 0.000000 3.966820 0.000000 
#    z 0.000000 0.000000 4.154790 
# 
# 
# High freq. dielectric constant tensor:
#      x y z
#    x 1.929140 0.000000 0.000000 
#    y 0.000000 1.884470 0.000000 
#    z 0.000000 0.000000 1.924740 
# 
# From -- ./inp_files/6316.got.cif
#   From: 2010.03.12/outbox.cif.g09.slc.cpg/sg73_4_cif.got.tgz:6316.got - 2010.04.16 15:25:48.
