data_PCOD8295870
_publ_section_title
;
Structure prediction by ZEFSAII (Michael W. Deem and Ramdas Pophale) SiO2 
 PCOD8295870
Probable space group: I B C A 
;
_chemical_formula_sum "Si O2"
_cell_formula_units_Z 72
_cell_length_a 24.017580
_cell_length_b 5.063426
_cell_length_c 29.923408
_cell_angle_alpha 90.000000
_cell_angle_beta 90.000000
_cell_angle_gamma 90.000000
_cell_volume 3639.022723
_symmetry_space_group_name_H-M "I B C A "
_symmetry_group_IT_number 73
_symmetry_cell_setting 'orthorhombic'
loop_
_space_group_symop_operation_xyz
x,y,z
-x,1/2-y,z
x,-y,1/2-z
1/2-x,y,-z
-x,-y,-z
x,1/2+y,-z
-x,y,1/2+z
1/2+x,-y,z
1/2+x,1/2+y,1/2+z
1/2-x,-y,1/2+z
1/2+x,1/2-y,-z
-x,1/2+y,1/2-z
1/2-x,1/2-y,1/2-z
1/2+x,y,1/2-z
1/2-x,1/2+y,z
x,1/2-y,1/2+z
loop_
_atom_site_type_symbol
_atom_site_label
_atom_site_fract_x
_atom_site_fract_y
_atom_site_fract_z
Si Si1 0.064715 0.240649 0.528298
Si Si2 0.935908 0.242751 0.325276
Si Si3 0.106327 0.745992 0.375277
Si Si4 0.287242 0.829019 0.175306
Si Si5 0.862255 0.000000 0.250000
O O1 0.080456 0.455495 0.491012
O O2 0.099745 0.302313 0.572483
O O3 0.000000 0.250000 0.541289
O O4 0.918126 0.521716 0.345145
O O5 0.899966 0.184512 0.281224
O O6 0.000000 0.250000 0.310955
O O7 0.926600 0.020414 0.362853
O O8 0.172287 0.712946 0.366904
O O9 0.237365 0.623044 0.173852
O O10 0.323832 0.805216 0.220417
#
# Coordination Sequence:
#
# PCOD8295870 Si02
#       5
#    16  16  16  16   8
#     4  10  20  35  60  90 118 147 181 227 286 354
#     4  11  23  38  58  85 123 160 192 233 287 357
#     4  11  23  40  60  87 118 156 196 236 292 347
#     4  11  23  40  60  81 111 151 201 252 289 328
#     4  10  24  38  58  86 114 154 202 246 294 338
#
# _framework density 19.785533000000001
#
# number of rings (size 3 to 8) (size 9 to 14) (size 15 to 20)
#    0.000    1.333    0.000    6.667    0.000   12.444 
#    0.000    0.000    0.000    4.000    0.000    0.000 
#    0.000    0.000    0.000    0.000    0.000    0.000 
#
# Total GULP energy -446612.593411 kJ/mol
# GULP energy per Si atom -12405.905373 kJ/mol
# Density = 1.974050 g / cm^3
# Si number density = 19.785533 Si / 1000 Ang^3
#
#
#
# Elastic Constant Matrix: (Units=GPa)
#
#
# Indices 1 2 3 4 5 6 
#
# 1 119.1416 30.4638 53.7031 0.0000 0.0000 0.0000
# 2 30.4638 73.8633 5.0274 0.0000 0.0000 0.0000
# 3 53.7031 5.0274 118.6494 0.0000 0.0000 0.0000
# 4 0.0000 0.0000 0.0000 20.8152 0.0000 0.0000
# 5 0.0000 0.0000 0.0000 0.0000 24.0476 0.0000
# 6 0.0000 0.0000 0.0000 0.0000 0.0000 25.4543
#
#
#
# Elastic Compliance Matrix: (Units=1/GPa)
#
#
# Indices 1 2 3 4 5 6 
#
# 1 0.011898 -0.004554 -0.005192 0.000000 0.000000 0.000000
# 2 -0.004554 0.015321 0.001412 0.000000 0.000000 0.000000
# 3 -0.005192 0.001412 0.010719 0.000000 0.000000 0.000000
# 4 0.000000 0.000000 0.000000 0.048042 0.000000 0.000000
# 5 0.000000 0.000000 0.000000 0.000000 0.041584 0.000000
# 6 0.000000 0.000000 0.000000 0.000000 0.000000 0.039286
#
#
# Mechanical properties :
#
#
# Convention : Reuss Voigt Hill
#
# Bulk Modulus (GPa) = 47.01713 54.44923 50.73318
# Shear Modulus (GPa) = 26.23189 28.89408 27.56299
#
# Velocity S-wave (km/s) = 3.64512 3.82562 3.73646
# Velocity P-wave (km/s) = 6.44444 6.86245 6.65673
#
# Compressibility (1/GPa) = 0.02126884
#
# Stress axis : x y z
#
# Youngs Moduli (GPa) = 84.04587 65.27162 93.29606
#
# Poissons Ratio (x) = 0.29724 0.48443
# Poissons Ratio (y) = 0.38273 -0.13173
# Poissons Ratio (z) = 0.43640 -0.09216
#
# Static dielectric constant tensor:
#      x y z
#    x 3.673560 0.000000 0.000000 
#    y 0.000000 3.665190 0.000000 
#    z 0.000000 0.000000 3.488260 
# 
# 
# High freq. dielectric constant tensor:
#      x y z
#    x 1.768060 0.000000 0.000000 
#    y 0.000000 1.788200 0.000000 
#    z 0.000000 0.000000 1.762300 
# 
# From -- ./inp_files/2535.got.cif
#   From: 2010.03.12/outbox.cif.g09.slc.cpg/sg73_2_cif.got.tgz:2535.got - 2010.04.16 15:25:48.
