data_PCOD8295965
_publ_section_title
;
Structure prediction by ZEFSAII (Michael W. Deem and Ramdas Pophale) SiO2 
 PCOD8295965
Probable space group: I B C A 
;
_chemical_formula_sum "Si O2"
_cell_formula_units_Z 72
_cell_length_a 9.267058
_cell_length_b 16.784836
_cell_length_c 18.802443
_cell_angle_alpha 90.000000
_cell_angle_beta 90.000000
_cell_angle_gamma 90.000000
_cell_volume 2924.645715
_symmetry_space_group_name_H-M "I B C A "
_symmetry_group_IT_number 73
_symmetry_cell_setting 'orthorhombic'
loop_
_space_group_symop_operation_xyz
x,y,z
-x,1/2-y,z
x,-y,1/2-z
1/2-x,y,-z
-x,-y,-z
x,1/2+y,-z
-x,y,1/2+z
1/2+x,-y,z
1/2+x,1/2+y,1/2+z
1/2-x,-y,1/2+z
1/2+x,1/2-y,-z
-x,1/2+y,1/2-z
1/2-x,1/2-y,1/2-z
1/2+x,y,1/2-z
1/2-x,1/2+y,z
x,1/2-y,1/2+z
loop_
_atom_site_type_symbol
_atom_site_label
_atom_site_fract_x
_atom_site_fract_y
_atom_site_fract_z
Si Si1 0.147495 0.701394 0.888174
Si Si2 0.750000 0.692207 0.000000
Si Si3 0.914841 0.325148 0.263032
Si Si4 0.332480 0.929042 0.197932
Si Si5 0.528219 0.927853 0.551866
O O1 0.187150 0.700551 0.804492
O O2 0.000000 0.750000 0.895294
O O3 0.120612 0.612214 0.919523
O O4 0.269297 0.749177 0.931586
O O5 0.609269 0.637983 0.004797
O O6 0.804734 0.370052 0.315847
O O7 0.000000 0.250000 0.297701
O O8 0.033067 0.386200 0.233908
O O9 0.376612 0.958293 0.119131
O O10 0.282306 0.000000 0.250000
O O11 0.500000 0.000000 0.500000
#
# Coordination Sequence:
#
# PCOD8295965 Si02
#       5
#    16   8  16  16  16
#     4   8  18  38  60  87 124 163 213 280 339 397
#     4  10  20  38  64  88 120 172 226 270 336 414
#     4  10  21  41  66  94 131 177 229 288 347 406
#     4  11  24  42  65  98 139 182 229 284 346 413
#     4  10  23  41  62  95 135 175 223 280 343 409
#
# _framework density 24.618366000000002
#
# number of rings (size 3 to 8) (size 9 to 14) (size 15 to 20)
#    0.000    2.222    0.000    2.667    0.000    8.000 
#    0.000    7.778    0.000    0.000    0.000    0.000 
#    0.000    0.000    0.000    0.000    0.000    0.000 
#
# Total GULP energy -446209.548182 kJ/mol
# GULP energy per Si atom -12394.709672 kJ/mol
# Density = 2.456233 g / cm^3
# Si number density = 24.618366 Si / 1000 Ang^3
#
#
#
# Elastic Constant Matrix: (Units=GPa)
#
#
# Indices 1 2 3 4 5 6 
#
# 1 69.8761 27.7196 46.7757 0.0000 0.0000 0.0000
# 2 27.7196 133.8655 77.7582 0.0000 0.0000 0.0000
# 3 46.7757 77.7582 120.4913 0.0000 0.0000 0.0000
# 4 0.0000 0.0000 0.0000 29.2014 0.0000 0.0000
# 5 0.0000 0.0000 0.0000 0.0000 33.9226 0.0000
# 6 0.0000 0.0000 0.0000 0.0000 0.0000 22.8713
#
#
#
# Elastic Compliance Matrix: (Units=1/GPa)
#
#
# Indices 1 2 3 4 5 6 
#
# 1 0.019363 0.000571 -0.007885 0.000000 0.000000 0.000000
# 2 0.000571 0.011966 -0.007944 0.000000 0.000000 0.000000
# 3 -0.007885 -0.007944 0.016487 0.000000 0.000000 0.000000
# 4 0.000000 0.000000 0.000000 0.034245 0.000000 0.000000
# 5 0.000000 0.000000 0.000000 0.000000 0.029479 0.000000
# 6 0.000000 0.000000 0.000000 0.000000 0.000000 0.043723
#
#
# Mechanical properties :
#
#
# Convention : Reuss Voigt Hill
#
# Bulk Modulus (GPa) = 57.80486 69.86000 63.83243
# Shear Modulus (GPa) = 26.10326 28.66434 27.38380
#
# Velocity S-wave (km/s) = 3.25978 3.41596 3.33878
# Velocity P-wave (km/s) = 6.14000 6.63303 6.39127
#
# Compressibility (1/GPa) = 0.01729958
#
# Stress axis : x y z
#
# Youngs Moduli (GPa) = 51.64472 83.56712 60.65350
#
# Poissons Ratio (x) = -0.04770 0.47827
# Poissons Ratio (y) = -0.02948 0.48183
# Poissons Ratio (z) = 0.40723 0.66386
#
# Static dielectric constant tensor:
#      x y z
#    x 4.224950 0.000000 0.000000 
#    y 0.000000 4.971130 0.000000 
#    z 0.000000 0.000000 4.891890 
# 
# 
# High freq. dielectric constant tensor:
#      x y z
#    x 1.954900 0.000000 0.000000 
#    y 0.000000 1.987990 0.000000 
#    z 0.000000 0.000000 1.972210 
# 
# From -- ./inp_files/21139.got.cif
#   From: 2010.03.12/outbox.cif.g09.slc.cpg/sg73_11_cif.got.tgz:21139.got - 2010.04.16 15:25:48.
