data_PCOD8295985
_publ_section_title
;
Structure prediction by ZEFSAII (Michael W. Deem and Ramdas Pophale) SiO2 
 PCOD8295985
Probable space group: I B C A 
;
_chemical_formula_sum "Si O2"
_cell_formula_units_Z 112
_cell_length_a 14.520904
_cell_length_b 15.056987
_cell_length_c 24.485391
_cell_angle_alpha 90.000000
_cell_angle_beta 90.000000
_cell_angle_gamma 90.000000
_cell_volume 5353.511910
_symmetry_space_group_name_H-M "I B C A "
_symmetry_group_IT_number 73
_symmetry_cell_setting 'orthorhombic'
loop_
_space_group_symop_operation_xyz
x,y,z
-x,1/2-y,z
x,-y,1/2-z
1/2-x,y,-z
-x,-y,-z
x,1/2+y,-z
-x,y,1/2+z
1/2+x,-y,z
1/2+x,1/2+y,1/2+z
1/2-x,-y,1/2+z
1/2+x,1/2-y,-z
-x,1/2+y,1/2-z
1/2-x,1/2-y,1/2-z
1/2+x,y,1/2-z
1/2-x,1/2+y,z
x,1/2-y,1/2+z
loop_
_atom_site_type_symbol
_atom_site_label
_atom_site_fract_x
_atom_site_fract_y
_atom_site_fract_z
Si Si1 0.641750 0.681943 0.288422
Si Si2 0.510662 0.433426 0.578271
Si Si3 0.343222 0.718525 0.182545
Si Si4 0.970238 0.933453 0.836962
Si Si5 0.899695 0.500000 0.750000
Si Si6 0.575839 0.313858 0.419358
Si Si7 0.144064 0.528601 0.483836
Si Si8 0.500000 0.750000 0.376410
O O1 0.607198 0.725979 0.231287
O O2 0.736414 0.725176 0.306630
O O3 0.657621 0.574373 0.283440
O O4 0.576159 0.706117 0.338056
O O5 0.541286 0.467713 0.638821
O O6 0.404883 0.459743 0.559426
O O7 0.583731 0.478097 0.537967
O O8 0.528466 0.328231 0.581994
O O9 0.377880 0.616322 0.182919
O O10 0.361311 0.760905 0.123404
O O11 0.037754 0.936389 0.786252
O O12 0.013622 0.882335 0.887211
O O13 0.500000 0.250000 0.449376
O O14 0.639666 0.369675 0.460977
O O15 0.250000 0.503377 0.500000
#
# Coordination Sequence:
#
# PCOD8295985 Si02
#       8
#    16  16  16  16   8  16  16   8
#     4  11  24  38  60  95 133 165 213 261 312 391
#     4  10  24  43  64  95 127 166 220 276 326 391
#     4  10  22  40  60  95 127 166 218 262 309 390
#     4  10  20  39  63  84 122 170 207 254 323 379
#     4  12  20  38  60  88 130 178 202 256 328 378
#     4   9  19  38  66  89 124 166 210 263 315 382
#     4  10  23  44  68  96 127 170 218 272 335 394
#     4  12  24  42  64  92 134 172 206 268 328 376
#
# _framework density 20.920846999999998
#
# number of rings (size 3 to 8) (size 9 to 14) (size 15 to 20)
#    0.000    1.714    2.857    0.857    4.000    1.714 
#    2.571    0.714    0.000    0.000    0.000    0.000 
#    0.000    0.000    0.000    0.000    0.000    0.000 
#
# Total GULP energy -693782.527933 kJ/mol
# GULP energy per Si atom -12388.973713 kJ/mol
# Density = 2.087323 g / cm^3
# Si number density = 20.920847 Si / 1000 Ang^3
#
#
#
# Elastic Constant Matrix: (Units=GPa)
#
#
# Indices 1 2 3 4 5 6 
#
# 1 80.5893 24.0672 21.2345 0.0000 0.0000 0.0000
# 2 24.0672 117.5469 19.7091 0.0000 0.0000 0.0000
# 3 21.2345 19.7091 54.5327 0.0000 0.0000 0.0000
# 4 0.0000 0.0000 0.0000 33.0882 0.0000 0.0000
# 5 0.0000 0.0000 0.0000 0.0000 22.7377 0.0000
# 6 0.0000 0.0000 0.0000 0.0000 0.0000 26.2092
#
#
#
# Elastic Compliance Matrix: (Units=1/GPa)
#
#
# Indices 1 2 3 4 5 6 
#
# 1 0.014309 -0.002124 -0.004804 0.000000 0.000000 0.000000
# 2 -0.002124 0.009371 -0.002560 0.000000 0.000000 0.000000
# 3 -0.004804 -0.002560 0.021133 0.000000 0.000000 0.000000
# 4 0.000000 0.000000 0.000000 0.030222 0.000000 0.000000
# 5 0.000000 0.000000 0.000000 0.000000 0.043980 0.000000
# 6 0.000000 0.000000 0.000000 0.000000 0.000000 0.038154
#
#
# Mechanical properties :
#
#
# Convention : Reuss Voigt Hill
#
# Bulk Modulus (GPa) = 38.70338 42.52118 40.61228
# Shear Modulus (GPa) = 27.06233 28.91756 27.98994
#
# Velocity S-wave (km/s) = 3.60051 3.72188 3.66170
# Velocity P-wave (km/s) = 5.98540 6.23207 6.10998
#
# Compressibility (1/GPa) = 0.02583754
#
# Stress axis : x y z
#
# Youngs Moduli (GPa) = 69.88722 106.70798 47.31838
#
# Poissons Ratio (x) = 0.22667 0.22732
# Poissons Ratio (y) = 0.14845 0.12113
# Poissons Ratio (z) = 0.33574 0.27316
#
# Static dielectric constant tensor:
#      x y z
#    x 3.509300 0.000000 0.000000 
#    y 0.000000 4.142150 0.000000 
#    z 0.000000 0.000000 3.786360 
# 
# 
# High freq. dielectric constant tensor:
#      x y z
#    x 1.791590 0.000000 0.000000 
#    y 0.000000 1.829240 0.000000 
#    z 0.000000 0.000000 1.823040 
# 
# From -- ./inp_files/29586.got.cif
#   From: 2010.03.12/outbox.cif.g09.slc.cpg/sg73_15_cif.got.tgz:29586.got - 2010.04.16 15:25:48.
