data_PCOD8295118
_publ_section_title
;
Structure prediction by ZEFSAII (Michael W. Deem and Ramdas Pophale) SiO2 
 PCOD8295118
Probable space group: I B A M
;
_chemical_formula_sum "Si O2"
_cell_formula_units_Z 80
_cell_length_a 9.810850
_cell_length_b 25.859598
_cell_length_c 13.790250
_cell_angle_alpha 90.000000
_cell_angle_beta 90.000000
_cell_angle_gamma 90.000000
_cell_volume 3498.650371
_symmetry_space_group_name_H-M "I B A M"
_symmetry_group_IT_number 72
_symmetry_cell_setting 'orthorhombic'
loop_
_space_group_symop_operation_xyz
x,y,z
-x,-y,z
x,-y,1/2-z
-x,y,1/2-z
-x,-y,-z
x,y,-z
-x,y,1/2+z
x,-y,1/2+z
1/2+x,1/2+y,1/2+z
1/2-x,1/2-y,1/2+z
1/2+x,1/2-y,-z
1/2-x,1/2+y,-z
1/2-x,1/2-y,1/2-z
1/2+x,1/2+y,1/2-z
1/2-x,1/2+y,z
1/2+x,1/2-y,z
loop_
_atom_site_type_symbol
_atom_site_label
_atom_site_fract_x
_atom_site_fract_y
_atom_site_fract_z
Si Si1 0.103017 0.929541 0.390086
Si Si2 0.911973 0.692263 0.611457
Si Si3 0.206824 0.960023 0.889383
Si Si4 0.281475 0.784084 0.888883
Si Si5 0.225862 0.624482 0.746742
O O1 0.126794 0.912011 0.500000
O O2 0.148692 0.883859 0.319949
O O3 0.945931 0.940303 0.371491
O O4 0.200800 0.978989 0.366676
O O5 0.895870 0.673894 0.500000
O O6 0.791888 0.731327 0.644118
O O7 0.901165 0.643148 0.684840
O O8 0.056091 0.720660 0.626778
O O9 0.305542 0.927818 0.816356
O O10 0.254681 0.950315 0.000000
O O11 0.224980 0.832086 0.828320
O O12 0.243265 0.795270 0.000000
#
# Coordination Sequence:
#
# PCOD8295118 Si02
#       5
#    16  16  16  16  16
#     4   9  19  35  54  82 122 161 197 242 294 347
#     4  10  23  42  61  84 118 157 196 242 296 354
#     4   9  19  35  54  82 122 161 197 242 294 347
#     4  10  23  42  61  84 118 157 196 242 296 354
#     4  12  20  31  57  89 114 146 192 244 294 348
#
# _framework density 22.865960000000001
#
# number of rings (size 3 to 8) (size 9 to 14) (size 15 to 20)
#    0.000    2.000    0.000    4.800    0.000    4.800 
#    0.000    4.000    0.000    9.600    0.000   22.400 
#    0.000    0.000    0.000    0.000    0.000    0.000 
#
# Total GULP energy -495813.417996 kJ/mol
# GULP energy per Si atom -12395.335450 kJ/mol
# Density = 2.281392 g / cm^3
# Si number density = 22.865960 Si / 1000 Ang^3
#
#
#
# Elastic Constant Matrix: (Units=GPa)
#
#
# Indices 1 2 3 4 5 6 
#
# 1 69.8621 41.5370 44.6608 -0.0001 0.0000 0.0000
# 2 41.5370 76.9979 58.5224 -0.0001 0.0000 0.0000
# 3 44.6608 58.5224 100.5410 -0.0003 0.0000 0.0001
# 4 -0.0001 -0.0001 -0.0003 52.8634 0.0001 0.0000
# 5 0.0000 0.0000 0.0000 0.0001 35.7459 0.0000
# 6 0.0000 0.0000 0.0001 0.0000 0.0000 36.1758
#
#
#
# Elastic Compliance Matrix: (Units=1/GPa)
#
#
# Indices 1 2 3 4 5 6 
#
# 1 0.022524 -0.008153 -0.005259 0.000000 0.000000 0.000000
# 2 -0.008153 0.026243 -0.011654 0.000000 0.000000 0.000000
# 3 -0.005259 -0.011654 0.019066 0.000000 0.000000 0.000000
# 4 0.000000 0.000000 0.000000 0.018917 0.000000 0.000000
# 5 0.000000 0.000000 0.000000 0.000000 0.027975 0.000000
# 6 0.000000 0.000000 0.000000 0.000000 0.000000 0.027643
#
#
# Mechanical properties :
#
#
# Convention : Reuss Voigt Hill
#
# Bulk Modulus (GPa) = 56.49734 59.64904 58.07319
# Shear Modulus (GPa) = 25.20166 31.80241 28.50204
#
# Velocity S-wave (km/s) = 3.32346 3.73341 3.53439
# Velocity P-wave (km/s) = 6.28402 6.68786 6.48908
#
# Compressibility (1/GPa) = 0.01769995
#
# Stress axis : x y z
#
# Youngs Moduli (GPa) = 44.39801 38.10525 52.44992
#
# Poissons Ratio (x) = 0.31068 0.27585
# Poissons Ratio (y) = 0.36198 0.61124
# Poissons Ratio (z) = 0.23350 0.44407
#
# Static dielectric constant tensor:
#      x y z
#    x 3.679090 0.000000 0.000000 
#    y 0.000000 4.298060 0.000000 
#    z 0.000000 0.000000 4.596470 
# 
# 
# High freq. dielectric constant tensor:
#      x y z
#    x 1.858660 0.000000 0.000000 
#    y 0.000000 1.886510 0.000000 
#    z 0.000000 0.000000 1.941330 
# 
# From -- ./inp_files/20161.got.cif
#   From: 2010.03.12/outbox.cif.g09.slc.cpg/sg72_11_cif.got.tgz:20161.got - 2010.04.16 14:54:00.
