data_PCOD8295622
_publ_section_title
;
Structure prediction by ZEFSAII (Michael W. Deem and Ramdas Pophale) SiO2 
 PCOD8295622
Probable space group: I B C A 
;
_chemical_formula_sum "Si O2"
_cell_formula_units_Z 104
_cell_length_a 8.421127
_cell_length_b 24.111924
_cell_length_c 21.648187
_cell_angle_alpha 90.000000
_cell_angle_beta 90.000000
_cell_angle_gamma 90.000000
_cell_volume 4395.655153
_symmetry_space_group_name_H-M "I B C A "
_symmetry_group_IT_number 73
_symmetry_cell_setting 'orthorhombic'
loop_
_space_group_symop_operation_xyz
x,y,z
-x,1/2-y,z
x,-y,1/2-z
1/2-x,y,-z
-x,-y,-z
x,1/2+y,-z
-x,y,1/2+z
1/2+x,-y,z
1/2+x,1/2+y,1/2+z
1/2-x,-y,1/2+z
1/2+x,1/2-y,-z
-x,1/2+y,1/2-z
1/2-x,1/2-y,1/2-z
1/2+x,y,1/2-z
1/2-x,1/2+y,z
x,1/2-y,1/2+z
loop_
_atom_site_type_symbol
_atom_site_label
_atom_site_fract_x
_atom_site_fract_y
_atom_site_fract_z
Si Si1 0.056953 0.688202 0.360767
Si Si2 0.437253 0.689086 0.013368
Si Si3 0.750000 0.498550 0.500000
Si Si4 0.500518 0.478080 0.409377
Si Si5 0.571759 0.910689 0.202557
Si Si6 0.070441 0.188417 0.385558
Si Si7 0.063289 0.917905 0.669570
O O1 0.246141 0.687292 0.367529
O O2 0.000000 0.750000 0.347018
O O3 0.976948 0.658632 0.421842
O O4 0.992076 0.652558 0.302623
O O5 0.500000 0.750000 0.029285
O O6 0.250000 0.687701 0.000000
O O7 0.539770 0.667235 0.955750
O O8 0.626136 0.461138 0.462405
O O9 0.664865 0.534318 0.554477
O O10 0.532416 0.442783 0.348611
O O11 0.514208 0.542843 0.387937
O O12 0.538171 0.935455 0.270074
O O13 0.753118 0.921481 0.186378
O O14 0.000000 0.250000 0.377382
O O15 0.975538 0.146180 0.342912
#
# Coordination Sequence:
#
# PCOD8295622 Si02
#       7
#    16  16   8  16  16  16  16
#     4  11  23  42  67  99 139 184 236 289 348 413
#     4  10  18  34  60  91 131 174 224 280 343 403
#     4  10  24  46  74 110 140 180 220 288 354 418
#     4  11  25  48  76 106 145 175 230 282 356 417
#     4  12  27  46  71 102 141 189 237 286 343 413
#     4  11  23  42  67  99 139 184 236 289 348 413
#     4  12  27  46  71 102 141 189 237 286 343 413
#
# _framework density 23.659728000000001
#
# number of rings (size 3 to 8) (size 9 to 14) (size 15 to 20)
#    0.000    0.923    1.538    7.385    4.308    4.308 
#    2.769    3.077    0.000    0.000    0.000    0.000 
#    0.000    0.000    0.000    0.000    0.000    0.000 
#
# Total GULP energy -644522.703141 kJ/mol
# GULP energy per Si atom -12394.667368 kJ/mol
# Density = 2.360588 g / cm^3
# Si number density = 23.659728 Si / 1000 Ang^3
#
#
#
# Elastic Constant Matrix: (Units=GPa)
#
#
# Indices 1 2 3 4 5 6 
#
# 1 113.8361 17.2570 24.1370 0.0000 0.0000 0.0000
# 2 17.2570 71.9724 29.3665 0.0000 0.0000 0.0000
# 3 24.1370 29.3665 119.0194 0.0000 0.0000 0.0000
# 4 0.0000 0.0000 0.0000 22.9346 0.0000 0.0000
# 5 0.0000 0.0000 0.0000 0.0000 45.4864 0.0000
# 6 0.0000 0.0000 0.0000 0.0000 0.0000 21.3528
#
#
#
# Elastic Compliance Matrix: (Units=1/GPa)
#
#
# Indices 1 2 3 4 5 6 
#
# 1 0.009349 -0.001632 -0.001493 0.000000 0.000000 0.000000
# 2 -0.001632 0.015735 -0.003551 0.000000 0.000000 0.000000
# 3 -0.001493 -0.003551 0.009581 0.000000 0.000000 0.000000
# 4 0.000000 0.000000 0.000000 0.043602 0.000000 0.000000
# 5 0.000000 0.000000 0.000000 0.000000 0.021985 0.000000
# 6 0.000000 0.000000 0.000000 0.000000 0.000000 0.046832
#
#
# Mechanical properties :
#
#
# Convention : Reuss Voigt Hill
#
# Bulk Modulus (GPa) = 46.92458 49.59434 48.25946
# Shear Modulus (GPa) = 29.84358 33.55926 31.70142
#
# Velocity S-wave (km/s) = 3.55542 3.77027 3.66442
# Velocity P-wave (km/s) = 6.06060 6.32141 6.19238
#
# Compressibility (1/GPa) = 0.02131079
#
# Stress axis : x y z
#
# Youngs Moduli (GPa) = 106.96788 63.55414 104.37289
#
# Poissons Ratio (x) = 0.10374 0.15584
# Poissons Ratio (y) = 0.17460 0.37066
# Poissons Ratio (z) = 0.15972 0.22570
#
# Static dielectric constant tensor:
#      x y z
#    x 4.435450 0.000000 0.000000 
#    y 0.000000 4.071060 0.000000 
#    z 0.000000 0.000000 4.693480 
# 
# 
# High freq. dielectric constant tensor:
#      x y z
#    x 1.949490 0.000000 0.000000 
#    y 0.000000 1.918830 0.000000 
#    z 0.000000 0.000000 1.952310 
# 
# From -- ./inp_files/24990.got.cif
#   From: 2010.03.12/outbox.cif.g09.slc.cpg/sg73_13_cif.got.tgz:24990.got - 2010.04.16 15:25:48.
