data_PCOD8295983
_publ_section_title
;
Structure prediction by ZEFSAII (Michael W. Deem and Ramdas Pophale) SiO2 
 PCOD8295983
Probable space group: I B C A 
;
_chemical_formula_sum "Si O2"
_cell_formula_units_Z 104
_cell_length_a 22.542272
_cell_length_b 18.420201
_cell_length_c 12.872357
_cell_angle_alpha 90.000000
_cell_angle_beta 90.000000
_cell_angle_gamma 90.000000
_cell_volume 5345.029747
_symmetry_space_group_name_H-M "I B C A "
_symmetry_group_IT_number 73
_symmetry_cell_setting 'orthorhombic'
loop_
_space_group_symop_operation_xyz
x,y,z
-x,1/2-y,z
x,-y,1/2-z
1/2-x,y,-z
-x,-y,-z
x,1/2+y,-z
-x,y,1/2+z
1/2+x,-y,z
1/2+x,1/2+y,1/2+z
1/2-x,-y,1/2+z
1/2+x,1/2-y,-z
-x,1/2+y,1/2-z
1/2-x,1/2-y,1/2-z
1/2+x,y,1/2-z
1/2-x,1/2+y,z
x,1/2-y,1/2+z
loop_
_atom_site_type_symbol
_atom_site_label
_atom_site_fract_x
_atom_site_fract_y
_atom_site_fract_z
Si Si1 0.336135 0.718379 0.828288
Si Si2 0.547587 0.963574 0.641387
Si Si3 0.918196 0.471524 0.067070
Si Si4 0.219201 0.652243 0.763009
Si Si5 0.059748 0.793669 0.824529
Si Si6 0.132428 0.683619 0.945415
Si Si7 0.830982 0.000000 0.750000
O O1 0.288997 0.669457 0.764752
O O2 0.313606 0.801818 0.827377
O O3 0.400958 0.710485 0.779014
O O4 0.338165 0.690268 0.943785
O O5 0.481543 0.991146 0.616282
O O6 0.548174 0.876740 0.646332
O O7 0.568570 0.000000 0.750000
O O8 0.589411 0.991296 0.546635
O O9 0.911294 0.385094 0.058286
O O10 0.869598 0.502825 0.145641
O O11 0.187998 0.675704 0.869704
O O12 0.212582 0.567765 0.742634
O O13 0.093739 0.754789 0.919516
O O14 0.000000 0.750000 0.799053
#
# Coordination Sequence:
#
# PCOD8295983 Si02
#       7
#    16  16  16  16  16  16   8
#     4  10  21  39  64  86 120 162 199 255 313 350
#     4  11  22  38  58  87 128 162 206 252 307 368
#     4  10  21  37  60  88 121 170 198 250 315 359
#     4   9  21  39  63  90 116 161 203 256 301 368
#     4  11  23  39  58  93 122 158 208 251 296 376
#     4  10  20  39  61  87 122 158 212 247 305 366
#     4  10  20  40  64  90 124 158 214 250 308 376
#
# _framework density 19.457328
#
# number of rings (size 3 to 8) (size 9 to 14) (size 15 to 20)
#    0.000    1.846    2.308    1.385    2.154    0.615 
#    6.923    0.000    0.000    0.000    0.000    0.000 
#    0.000    0.000    0.000    0.000    0.000    0.000 
#
# Total GULP energy -644875.657526 kJ/mol
# GULP energy per Si atom -12401.454952 kJ/mol
# Density = 1.941304 g / cm^3
# Si number density = 19.457328 Si / 1000 Ang^3
#
#
#
# Elastic Constant Matrix: (Units=GPa)
#
#
# Indices 1 2 3 4 5 6 
#
# 1 76.1263 33.4387 18.3057 0.0000 0.0000 0.0000
# 2 33.4387 129.0089 35.0969 0.0000 0.0000 0.0000
# 3 18.3057 35.0969 97.2285 0.0000 0.0000 0.0000
# 4 0.0000 0.0000 0.0000 22.2031 0.0000 0.0000
# 5 0.0000 0.0000 0.0000 0.0000 15.0445 0.0000
# 6 0.0000 0.0000 0.0000 0.0000 0.0000 23.1675
#
#
#
# Elastic Compliance Matrix: (Units=1/GPa)
#
#
# Indices 1 2 3 4 5 6 
#
# 1 0.015039 -0.003468 -0.001580 0.000000 0.000000 0.000000
# 2 -0.003468 0.009395 -0.002738 0.000000 0.000000 0.000000
# 3 -0.001580 -0.002738 0.011571 0.000000 0.000000 0.000000
# 4 0.000000 0.000000 0.000000 0.045039 0.000000 0.000000
# 5 0.000000 0.000000 0.000000 0.000000 0.066470 0.000000
# 6 0.000000 0.000000 0.000000 0.000000 0.000000 0.043164
#
#
# Mechanical properties :
#
#
# Convention : Reuss Voigt Hill
#
# Bulk Modulus (GPa) = 48.94073 52.89402 50.91738
# Shear Modulus (GPa) = 23.46736 26.45117 24.95926
#
# Velocity S-wave (km/s) = 3.47665 3.69107 3.58546
# Velocity P-wave (km/s) = 6.42834 6.73861 6.58531
#
# Compressibility (1/GPa) = 0.02043288
#
# Stress axis : x y z
#
# Youngs Moduli (GPa) = 66.49190 106.43484 86.42331
#
# Poissons Ratio (x) = 0.36917 0.13651
# Poissons Ratio (y) = 0.23062 0.23667
# Poissons Ratio (z) = 0.10503 0.29147
#
# Static dielectric constant tensor:
#      x y z
#    x 3.441430 0.000000 0.000000 
#    y 0.000000 3.694090 0.000000 
#    z 0.000000 0.000000 3.516240 
# 
# 
# High freq. dielectric constant tensor:
#      x y z
#    x 1.754910 0.000000 0.000000 
#    y 0.000000 1.764480 0.000000 
#    z 0.000000 0.000000 1.754550 
# 
# From -- ./inp_files/19501.got.cif
#   From: 2010.03.12/outbox.cif.g09.slc.cpg/sg73_10_cif.got.tgz:19501.got - 2010.04.16 15:25:48.
