data_PCOD8295131
_publ_section_title
;
Structure prediction by ZEFSAII (Michael W. Deem and Ramdas Pophale) SiO2 
 PCOD8295131
Probable space group: I B A M
;
_chemical_formula_sum "Si O2"
_cell_formula_units_Z 116
_cell_length_a 9.197110
_cell_length_b 23.257178
_cell_length_c 26.308454
_cell_angle_alpha 90.000000
_cell_angle_beta 90.000000
_cell_angle_gamma 90.000000
_cell_volume 5627.347381
_symmetry_space_group_name_H-M "I B A M"
_symmetry_group_IT_number 72
_symmetry_cell_setting 'orthorhombic'
loop_
_space_group_symop_operation_xyz
x,y,z
-x,-y,z
x,-y,1/2-z
-x,y,1/2-z
-x,-y,-z
x,y,-z
-x,y,1/2+z
x,-y,1/2+z
1/2+x,1/2+y,1/2+z
1/2-x,1/2-y,1/2+z
1/2+x,1/2-y,-z
1/2-x,1/2+y,-z
1/2-x,1/2-y,1/2-z
1/2+x,1/2+y,1/2-z
1/2-x,1/2+y,z
1/2+x,1/2-y,z
loop_
_atom_site_type_symbol
_atom_site_label
_atom_site_fract_x
_atom_site_fract_y
_atom_site_fract_z
Si Si1 0.961815 0.337794 0.847531
Si Si2 0.380375 0.269783 0.784998
Si Si3 0.000000 0.500000 0.250000
Si Si4 0.368953 0.777555 0.442025
Si Si5 0.737359 0.079562 0.704634
Si Si6 0.940725 0.828012 0.941739
Si Si7 0.986858 0.937289 0.871633
Si Si8 0.762753 0.879745 0.681979
O O1 0.966080 0.281042 0.813038
O O2 0.960431 0.321164 0.906785
O O3 0.814846 0.370407 0.832966
O O4 0.096082 0.379733 0.835490
O O5 0.500000 0.300948 0.750000
O O6 0.250000 0.250000 0.750000
O O7 0.326699 0.315641 0.826564
O O8 0.894171 0.465236 0.212296
O O9 0.407452 0.793670 0.500000
O O10 0.198187 0.786786 0.429990
O O11 0.416490 0.711337 0.430950
O O12 0.878478 0.053942 0.676513
O O13 0.779645 0.105016 0.758991
O O14 0.936785 0.886615 0.909320
O O15 0.937681 0.848297 0.000000
O O16 0.148653 0.924170 0.851829
O O17 0.000000 0.000000 0.898985
#
# Coordination Sequence:
#
# PCOD8295131 Si02
#       8
#    16  16   4  16  16  16  16  16
#     4  12  23  39  62  93 129 170 216 261 330 401
#     4  12  22  36  57  92 130 165 208 259 323 392
#     4  12  24  40  70  88 130 184 234 272 318 380
#     4  10  23  42  69 101 132 166 213 276 342 402
#     4  12  23  43  62  90 129 177 224 271 315 385
#     4  10  23  46  71  98 130 169 217 274 339 403
#     4  12  27  44  65  97 130 178 227 275 329 383
#     4  12  25  41  61  92 133 176 219 264 321 391
#
# _framework density 20.613617999999999
#
# number of rings (size 3 to 8) (size 9 to 14) (size 15 to 20)
#    0.000    0.552    5.517    2.897    3.862    0.828 
#    0.000    0.000    0.000    0.000    0.000    2.897 
#    0.000    0.000    0.000    0.000    0.000    0.000 
#
# Total GULP energy -719059.329991 kJ/mol
# GULP energy per Si atom -12397.574655 kJ/mol
# Density = 2.056670 g / cm^3
# Si number density = 20.613618 Si / 1000 Ang^3
#
#
#
# Elastic Constant Matrix: (Units=GPa)
#
#
# Indices 1 2 3 4 5 6 
#
# 1 99.5716 41.5153 36.1744 0.0000 0.0000 0.0000
# 2 41.5153 118.7067 42.6227 0.0000 0.0000 0.0000
# 3 36.1744 42.6227 102.8864 0.0000 0.0000 0.0000
# 4 0.0000 0.0000 0.0000 26.5814 0.0000 0.0000
# 5 0.0000 0.0000 0.0000 0.0000 24.1920 0.0000
# 6 0.0000 0.0000 0.0000 0.0000 0.0000 34.6833
#
#
#
# Elastic Compliance Matrix: (Units=1/GPa)
#
#
# Indices 1 2 3 4 5 6 
#
# 1 0.012518 -0.003286 -0.003040 0.000000 0.000000 0.000000
# 2 -0.003286 0.010759 -0.003302 0.000000 0.000000 0.000000
# 3 -0.003040 -0.003302 0.012156 0.000000 0.000000 0.000000
# 4 0.000000 0.000000 0.000000 0.037620 0.000000 0.000000
# 5 0.000000 0.000000 0.000000 0.000000 0.041336 0.000000
# 6 0.000000 0.000000 0.000000 0.000000 0.000000 0.028832
#
#
# Mechanical properties :
#
#
# Convention : Reuss Voigt Hill
#
# Bulk Modulus (GPa) = 61.81564 62.42104 62.11834
# Shear Modulus (GPa) = 29.78517 30.48149 30.13333
#
# Velocity S-wave (km/s) = 3.80534 3.84957 3.82752
# Velocity P-wave (km/s) = 7.02569 7.07856 7.05218
#
# Compressibility (1/GPa) = 0.01617714
#
# Stress axis : x y z
#
# Youngs Moduli (GPa) = 79.88782 92.94595 82.26413
#
# Poissons Ratio (x) = 0.30545 0.25006
# Poissons Ratio (y) = 0.26254 0.27161
# Poissons Ratio (z) = 0.24283 0.30687
#
# Static dielectric constant tensor:
#      x y z
#    x 4.197060 0.000000 0.000000 
#    y 0.000000 3.835040 0.000000 
#    z 0.000000 0.000000 3.717040 
# 
# 
# High freq. dielectric constant tensor:
#      x y z
#    x 1.820370 0.000000 0.000000 
#    y 0.000000 1.800310 0.000000 
#    z 0.000000 0.000000 1.791350 
# 
# From -- ./inp_files/47610.got.cif
#   From: 2010.03.12/outbox.cif.g09.slc.cpg/sg72_24_cif.got.tgz:47610.got - 2010.04.16 14:54:00.
