data_PCOD8295458
_publ_section_title
;
Structure prediction by ZEFSAII (Michael W. Deem and Ramdas Pophale) SiO2 
 PCOD8295458
Probable space group: I B A M
;
_chemical_formula_sum "Si O2"
_cell_formula_units_Z 56
_cell_length_a 9.723157
_cell_length_b 10.201123
_cell_length_c 25.203911
_cell_angle_alpha 90.000000
_cell_angle_beta 90.000000
_cell_angle_gamma 90.000000
_cell_volume 2499.903358
_symmetry_space_group_name_H-M "I B A M"
_symmetry_group_IT_number 72
_symmetry_cell_setting 'orthorhombic'
loop_
_space_group_symop_operation_xyz
x,y,z
-x,-y,z
x,-y,1/2-z
-x,y,1/2-z
-x,-y,-z
x,y,-z
-x,y,1/2+z
x,-y,1/2+z
1/2+x,1/2+y,1/2+z
1/2-x,1/2-y,1/2+z
1/2+x,1/2-y,-z
1/2-x,1/2+y,-z
1/2-x,1/2-y,1/2-z
1/2+x,1/2+y,1/2-z
1/2-x,1/2+y,z
1/2+x,1/2-y,z
loop_
_atom_site_type_symbol
_atom_site_label
_atom_site_fract_x
_atom_site_fract_y
_atom_site_fract_z
Si Si1 0.500000 0.000000 0.671861
Si Si2 0.446787 0.357348 0.439401
Si Si3 0.253933 0.378122 0.784033
Si Si4 0.670879 0.780343 0.882252
O O1 0.593111 0.905845 0.707219
O O2 0.391017 0.916248 0.638296
O O3 0.500000 0.500000 0.423780
O O4 0.396097 0.350481 0.500000
O O5 0.576995 0.262322 0.431569
O O6 0.325288 0.309798 0.400961
O O7 0.321424 0.500000 0.750000
O O8 0.250000 0.250000 0.750000
O O9 0.330781 0.338721 0.838863
#
# Coordination Sequence:
#
# PCOD8295458 Si02
#       4
#     8  16  16  16
#     4  12  25  46  71 106 152 188 245 308 361 440
#     4  11  26  47  74 109 145 191 250 309 377 451
#     4  12  26  44  72 107 149 199 243 303 366 442
#     4  12  25  48  75 107 149 195 246 306 379 434
#
# _framework density 22.400866000000001
#
# number of rings (size 3 to 8) (size 9 to 14) (size 15 to 20)
#    0.000    0.286    5.714    3.000    0.000    0.000 
#    0.000    5.714    0.000    0.000    0.000    0.000 
#    0.000    0.000    0.000    0.000    0.000    0.000 
#
# Total GULP energy -347100.991262 kJ/mol
# GULP energy per Si atom -12396.463974 kJ/mol
# Density = 2.234988 g / cm^3
# Si number density = 22.400866 Si / 1000 Ang^3
#
#
#
# Elastic Constant Matrix: (Units=GPa)
#
#
# Indices 1 2 3 4 5 6 
#
# 1 114.7903 51.3235 41.1752 0.0000 0.0000 0.0000
# 2 51.3235 150.3959 60.7935 0.0000 0.0000 0.0000
# 3 41.1752 60.7935 103.1757 0.0000 0.0000 0.0000
# 4 0.0000 0.0000 0.0000 18.9313 0.0000 0.0000
# 5 0.0000 0.0000 0.0000 0.0000 15.7152 0.0000
# 6 0.0000 0.0000 0.0000 0.0000 0.0000 51.3998
#
#
#
# Elastic Compliance Matrix: (Units=1/GPa)
#
#
# Indices 1 2 3 4 5 6 
#
# 1 0.010874 -0.002568 -0.002826 0.000000 0.000000 0.000000
# 2 -0.002568 0.009335 -0.004475 0.000000 0.000000 0.000000
# 3 -0.002826 -0.004475 0.013457 0.000000 0.000000 0.000000
# 4 0.000000 0.000000 0.000000 0.052823 0.000000 0.000000
# 5 0.000000 0.000000 0.000000 0.000000 0.063633 0.000000
# 6 0.000000 0.000000 0.000000 0.000000 0.000000 0.019455
#
#
# Mechanical properties :
#
#
# Convention : Reuss Voigt Hill
#
# Bulk Modulus (GPa) = 71.80878 74.99403 73.40141
# Shear Modulus (GPa) = 25.77898 31.54724 28.66311
#
# Velocity S-wave (km/s) = 3.39603 3.75681 3.58097
# Velocity P-wave (km/s) = 6.89226 7.23664 7.06655
#
# Compressibility (1/GPa) = 0.01392587
#
# Stress axis : x y z
#
# Youngs Moduli (GPa) = 91.96620 107.12906 74.31119
#
# Poissons Ratio (x) = 0.27514 0.21001
# Poissons Ratio (y) = 0.23620 0.33256
# Poissons Ratio (z) = 0.25991 0.47942
#
# Static dielectric constant tensor:
#      x y z
#    x 2.756860 0.000000 0.000000 
#    y 0.000000 4.385880 0.000000 
#    z 0.000000 0.000000 4.066720 
# 
# 
# High freq. dielectric constant tensor:
#      x y z
#    x 1.883740 0.000000 0.000000 
#    y 0.000000 1.896810 0.000000 
#    z 0.000000 0.000000 1.886530 
# 
# From -- ./inp_files/46855.got.cif
#   From: 2010.03.12/outbox.cif.g09.slc.cpg/sg72_24_cif.got.tgz:46855.got - 2010.04.16 14:54:00.
