data_PCOD8295087
_publ_section_title
;
Structure prediction by ZEFSAII (Michael W. Deem and Ramdas Pophale) SiO2 
 PCOD8295087
Probable space group: I B A M
;
_chemical_formula_sum "Si O2"
_cell_formula_units_Z 68
_cell_length_a 18.973202
_cell_length_b 11.734107
_cell_length_c 14.441541
_cell_angle_alpha 90.000000
_cell_angle_beta 90.000000
_cell_angle_gamma 90.000000
_cell_volume 3215.172008
_symmetry_space_group_name_H-M "I B A M"
_symmetry_group_IT_number 72
_symmetry_cell_setting 'orthorhombic'
loop_
_space_group_symop_operation_xyz
x,y,z
-x,-y,z
x,-y,1/2-z
-x,y,1/2-z
-x,-y,-z
x,y,-z
-x,y,1/2+z
x,-y,1/2+z
1/2+x,1/2+y,1/2+z
1/2-x,1/2-y,1/2+z
1/2+x,1/2-y,-z
1/2-x,1/2+y,-z
1/2-x,1/2-y,1/2-z
1/2+x,1/2+y,1/2-z
1/2-x,1/2+y,z
1/2+x,1/2-y,z
loop_
_atom_site_type_symbol
_atom_site_label
_atom_site_fract_x
_atom_site_fract_y
_atom_site_fract_z
Si Si1 0.581912 0.634224 0.249501
Si Si2 0.500000 0.000000 0.750000
Si Si3 0.340025 0.787419 0.391735
Si Si4 0.894328 0.462072 0.395637
Si Si5 0.817279 0.240696 0.605098
O O1 0.593306 0.500000 0.250000
O O2 0.500000 0.667037 0.250000
O O3 0.615425 0.690111 0.158258
O O4 0.620447 0.679374 0.340670
O O5 0.547257 0.077167 0.819821
O O6 0.342208 0.759287 0.500000
O O7 0.370636 0.911279 0.368390
O O8 0.259821 0.785894 0.354215
O O9 0.926004 0.458250 0.500000
O O10 0.828266 0.377276 0.388578
O O11 0.822609 0.196721 0.500000
#
# Coordination Sequence:
#
# PCOD8295087 Si02
#       5
#    16   4  16  16  16
#     4  11  26  43  62  94 128 165 213 253 305 379
#     4  12  22  36  60  86 134 168 180 252 320 360
#     4  10  23  43  68  93 124 164 209 262 312 364
#     4  10  23  39  63  98 123 157 211 252 309 378
#     4  10  23  43  68  93 124 164 209 262 312 364
#
# _framework density 21.149722000000001
#
# number of rings (size 3 to 8) (size 9 to 14) (size 15 to 20)
#    0.000    1.647    0.000    2.471    9.882    1.882 
#    0.000    2.353    0.000    0.000    0.000    0.000 
#    0.000    0.000    0.000    0.000    0.000    0.000 
#
# Total GULP energy -421606.889328 kJ/mol
# GULP energy per Si atom -12400.202627 kJ/mol
# Density = 2.110158 g / cm^3
# Si number density = 21.149722 Si / 1000 Ang^3
#
#
#
# Elastic Constant Matrix: (Units=GPa)
#
#
# Indices 1 2 3 4 5 6 
#
# 1 162.7709 67.4728 69.9815 0.0000 0.0000 0.0000
# 2 67.4728 108.5224 47.7264 0.0000 0.0000 0.0000
# 3 69.9815 47.7264 118.7123 0.0000 0.0000 0.0000
# 4 0.0000 0.0000 0.0000 25.1934 0.0000 0.0000
# 5 0.0000 0.0000 0.0000 0.0000 38.4937 0.0000
# 6 0.0000 0.0000 0.0000 0.0000 0.0000 24.4214
#
#
#
# Elastic Compliance Matrix: (Units=1/GPa)
#
#
# Indices 1 2 3 4 5 6 
#
# 1 0.009597 -0.004226 -0.003959 0.000000 0.000000 0.000000
# 2 -0.004226 0.013055 -0.002757 0.000000 0.000000 0.000000
# 3 -0.003959 -0.002757 0.011866 0.000000 0.000000 0.000000
# 4 0.000000 0.000000 0.000000 0.039693 0.000000 0.000000
# 5 0.000000 0.000000 0.000000 0.000000 0.025978 0.000000
# 6 0.000000 0.000000 0.000000 0.000000 0.000000 0.040948
#
#
# Mechanical properties :
#
#
# Convention : Reuss Voigt Hill
#
# Bulk Modulus (GPa) = 79.15054 84.48521 81.81788
# Shear Modulus (GPa) = 29.89851 31.27669 30.58760
#
# Velocity S-wave (km/s) = 3.76395 3.84972 3.80707
# Velocity P-wave (km/s) = 7.50965 7.73262 7.62195
#
# Compressibility (1/GPa) = 0.01263415
#
# Stress axis : x y z
#
# Youngs Moduli (GPa) = 104.19434 76.60006 84.27543
#
# Poissons Ratio (x) = 0.32372 0.33362
# Poissons Ratio (y) = 0.44034 0.23236
# Poissons Ratio (z) = 0.41247 0.21120
#
# Static dielectric constant tensor:
#      x y z
#    x 3.962190 0.000000 0.000000 
#    y 0.000000 3.766130 0.000000 
#    z 0.000000 0.000000 3.973500 
# 
# 
# High freq. dielectric constant tensor:
#      x y z
#    x 1.835850 0.000000 0.000000 
#    y 0.000000 1.822870 0.000000 
#    z 0.000000 0.000000 1.846620 
# 
# From -- ./inp_files/19978.got.cif
#   From: 2010.03.12/outbox.cif.g09.slc.cpg/sg72_10_cif.got.tgz:19978.got - 2010.04.16 14:54:00.
