data_PCOD8295801
_publ_section_title
;
Structure prediction by ZEFSAII (Michael W. Deem and Ramdas Pophale) SiO2 
 PCOD8295801
Probable space group: I B C A 
;
_chemical_formula_sum "Si O2"
_cell_formula_units_Z 72
_cell_length_a 17.592582
_cell_length_b 13.006060
_cell_length_c 13.759027
_cell_angle_alpha 90.000000
_cell_angle_beta 90.000000
_cell_angle_gamma 90.000000
_cell_volume 3148.205404
_symmetry_space_group_name_H-M "I B C A "
_symmetry_group_IT_number 73
_symmetry_cell_setting 'orthorhombic'
loop_
_space_group_symop_operation_xyz
x,y,z
-x,1/2-y,z
x,-y,1/2-z
1/2-x,y,-z
-x,-y,-z
x,1/2+y,-z
-x,y,1/2+z
1/2+x,-y,z
1/2+x,1/2+y,1/2+z
1/2-x,-y,1/2+z
1/2+x,1/2-y,-z
-x,1/2+y,1/2-z
1/2-x,1/2-y,1/2-z
1/2+x,y,1/2-z
1/2-x,1/2+y,z
x,1/2-y,1/2+z
loop_
_atom_site_type_symbol
_atom_site_label
_atom_site_fract_x
_atom_site_fract_y
_atom_site_fract_z
Si Si1 0.981824 0.959213 0.354958
Si Si2 0.777175 0.000000 0.750000
Si Si3 0.434105 0.333947 0.578029
Si Si4 0.364917 0.634819 0.111447
Si Si5 0.650503 0.337163 0.281223
O O1 0.900558 0.903146 0.354890
O O2 0.043689 0.874482 0.382830
O O3 0.005253 0.000000 0.250000
O O4 0.976760 0.055912 0.427999
O O5 0.827233 0.029291 0.653492
O O6 0.728179 0.100722 0.771274
O O7 0.500000 0.250000 0.558086
O O8 0.360847 0.337682 0.503597
O O9 0.395077 0.317943 0.681998
O O10 0.330012 0.727133 0.173832
#
# Coordination Sequence:
#
# PCOD8295801 Si02
#       5
#    16   8  16  16  16
#     4  10  19  42  71  97 132 174 230 298 349 404
#     4  12  26  46  66  94 146 192 226 280 356 438
#     4  11  23  41  75 106 134 172 239 298 351 412
#     4  12  25  42  70 103 136 182 237 293 358 415
#     4  11  23  48  67  99 142 185 234 292 354 422
#
# _framework density 22.870173000000001
#
# number of rings (size 3 to 8) (size 9 to 14) (size 15 to 20)
#    0.000    0.889    4.444    6.000    0.000    0.889 
#    0.000    0.000    0.000    0.000    0.000    0.000 
#    0.000    0.000    0.000    0.000    0.000    0.000 
#
# Total GULP energy -446175.121364 kJ/mol
# GULP energy per Si atom -12393.753371 kJ/mol
# Density = 2.281812 g / cm^3
# Si number density = 22.870173 Si / 1000 Ang^3
#
#
#
# Elastic Constant Matrix: (Units=GPa)
#
#
# Indices 1 2 3 4 5 6 
#
# 1 87.9147 39.4867 37.2409 0.0000 0.0000 0.0000
# 2 39.4867 120.4071 56.1818 0.0000 0.0000 0.0000
# 3 37.2409 56.1818 75.6594 0.0000 0.0000 0.0000
# 4 0.0000 0.0000 0.0000 35.6974 0.0000 0.0000
# 5 0.0000 0.0000 0.0000 0.0000 21.8231 0.0000
# 6 0.0000 0.0000 0.0000 0.0000 0.0000 42.7526
#
#
#
# Elastic Compliance Matrix: (Units=1/GPa)
#
#
# Indices 1 2 3 4 5 6 
#
# 1 0.014748 -0.002218 -0.005612 0.000000 0.000000 0.000000
# 2 -0.002218 0.013042 -0.008593 0.000000 0.000000 0.000000
# 3 -0.005612 -0.008593 0.022360 0.000000 0.000000 0.000000
# 4 0.000000 0.000000 0.000000 0.028013 0.000000 0.000000
# 5 0.000000 0.000000 0.000000 0.000000 0.045823 0.000000
# 6 0.000000 0.000000 0.000000 0.000000 0.000000 0.023390
#
#
# Mechanical properties :
#
#
# Convention : Reuss Voigt Hill
#
# Bulk Modulus (GPa) = 57.78891 61.08890 59.43890
# Shear Modulus (GPa) = 26.88300 30.12608 28.50454
#
# Velocity S-wave (km/s) = 3.43222 3.63335 3.53422
# Velocity P-wave (km/s) = 6.40546 6.66114 6.53455
#
# Compressibility (1/GPa) = 0.01730436
#
# Stress axis : x y z
#
# Youngs Moduli (GPa) = 67.80462 76.67642 44.72209
#
# Poissons Ratio (x) = 0.17005 0.25100
# Poissons Ratio (y) = 0.15038 0.38428
# Poissons Ratio (z) = 0.38055 0.65886
#
# Static dielectric constant tensor:
#      x y z
#    x 3.905450 0.000000 0.000000 
#    y 0.000000 4.245380 0.000000 
#    z 0.000000 0.000000 4.343360 
# 
# 
# High freq. dielectric constant tensor:
#      x y z
#    x 1.891620 0.000000 0.000000 
#    y 0.000000 1.912120 0.000000 
#    z 0.000000 0.000000 1.905920 
# 
# From -- ./inp_files/18453.got.cif
#   From: 2010.03.12/outbox.cif.g09.slc.cpg/sg73_10_cif.got.tgz:18453.got - 2010.04.16 15:25:48.
