data_PCOD8295984
_publ_section_title
;
Structure prediction by ZEFSAII (Michael W. Deem and Ramdas Pophale) SiO2 
 PCOD8295984
Probable space group: I B C A 
;
_chemical_formula_sum "Si O2"
_cell_formula_units_Z 80
_cell_length_a 20.579184
_cell_length_b 5.353944
_cell_length_c 30.034165
_cell_angle_alpha 90.000000
_cell_angle_beta 90.000000
_cell_angle_gamma 90.000000
_cell_volume 3309.158254
_symmetry_space_group_name_H-M "I B C A "
_symmetry_group_IT_number 73
_symmetry_cell_setting 'orthorhombic'
loop_
_space_group_symop_operation_xyz
x,y,z
-x,1/2-y,z
x,-y,1/2-z
1/2-x,y,-z
-x,-y,-z
x,1/2+y,-z
-x,y,1/2+z
1/2+x,-y,z
1/2+x,1/2+y,1/2+z
1/2-x,-y,1/2+z
1/2+x,1/2-y,-z
-x,1/2+y,1/2-z
1/2-x,1/2-y,1/2-z
1/2+x,y,1/2-z
1/2-x,1/2+y,z
x,1/2-y,1/2+z
loop_
_atom_site_type_symbol
_atom_site_label
_atom_site_fract_x
_atom_site_fract_y
_atom_site_fract_z
Si Si1 0.710897 0.446593 0.844614
Si Si2 0.623363 0.272353 0.514778
Si Si3 0.909028 0.422838 0.396290
Si Si4 0.000000 0.750000 0.176493
Si Si5 0.000000 0.250000 0.042907
Si Si6 0.648491 0.500000 0.750000
Si Si7 0.064288 0.500000 0.250000
O O1 0.744153 0.711045 0.855783
O O2 0.649086 0.407569 0.877174
O O3 0.693314 0.456756 0.792652
O O4 0.660668 0.541062 0.508668
O O5 0.617085 0.220371 0.567576
O O6 0.555654 0.368616 0.489535
O O7 0.936667 0.288009 0.353173
O O8 0.965656 0.562358 0.422972
O O9 0.016501 0.507020 0.206997
O O10 0.605826 0.250821 0.745798
#
# Coordination Sequence:
#
# PCOD8295984 Si02
#       7
#    16  16  16   8   8   8   8
#     4  12  28  49  72  98 135 187 251 299 337 400
#     4  10  20  39  63 101 138 176 216 264 340 427
#     4  11  24  40  73 105 143 182 229 293 349 421
#     4  12  25  41  66 110 146 182 220 287 377 426
#     4  10  21  39  72 110 144 178 220 275 363 436
#     4  12  25  53  70  96 134 195 251 292 346 412
#     4  12  27  43  68 102 154 177 223 288 372 448
#
# _framework density 24.175332999999998
#
# number of rings (size 3 to 8) (size 9 to 14) (size 15 to 20)
#    0.000    0.800    2.000    6.600    2.800    3.200 
#    0.000    0.000    0.000   14.400    0.000    0.000 
#    0.000    0.000    0.000    0.000    0.000    0.000 
#
# Total GULP energy -495612.007289 kJ/mol
# GULP energy per Si atom -12390.300182 kJ/mol
# Density = 2.412031 g / cm^3
# Si number density = 24.175333 Si / 1000 Ang^3
#
#
#
# Elastic Constant Matrix: (Units=GPa)
#
#
# Indices 1 2 3 4 5 6 
#
# 1 46.6433 27.8477 29.8300 0.0000 0.0000 0.0000
# 2 27.8477 144.9624 32.6969 0.0000 0.0000 0.0000
# 3 29.8300 32.6969 167.5884 0.0000 0.0000 0.0000
# 4 0.0000 0.0000 0.0000 19.2964 0.0000 0.0000
# 5 0.0000 0.0000 0.0000 0.0000 -22.4330 0.0000
# 6 0.0000 0.0000 0.0000 0.0000 0.0000 24.8525
#
#
#
# Elastic Compliance Matrix: (Units=1/GPa)
#
#
# Indices 1 2 3 4 5 6 
#
# 1 0.026432 -0.004201 -0.003885 0.000000 0.000000 0.000000
# 2 -0.004201 0.007884 -0.000790 0.000000 0.000000 0.000000
# 3 -0.003885 -0.000790 0.006813 0.000000 0.000000 0.000000
# 4 0.000000 0.000000 0.000000 0.051823 0.000000 0.000000
# 5 0.000000 0.000000 0.000000 0.000000 -0.044577 0.000000
# 6 0.000000 0.000000 0.000000 0.000000 0.000000 0.040237
#
#
# Mechanical properties :
#
#
# Convention : Reuss Voigt Hill
#
# Bulk Modulus (GPa) = 42.78060 59.99371 51.38716
# Shear Modulus (GPa) = 43.79915 22.26449 33.03182
#
# Velocity S-wave (km/s) = 4.26106 3.03802 3.70042
# Velocity P-wave (km/s) = 6.47636 6.09722 6.28965
#
# Compressibility (1/GPa) = 0.02337508
#
# Stress axis : x y z
#
# Youngs Moduli (GPa) = 37.83239 126.84398 146.78409
#
# Poissons Ratio (x) = 0.53293 0.57028
# Poissons Ratio (y) = 0.15895 0.11600
# Poissons Ratio (z) = 0.14698 0.10024
#
# Static dielectric constant tensor:
#      x y z
#    x 4.233760 0.000000 0.000000 
#    y 0.000000 4.805970 0.000000 
#    z 0.000000 0.000000 4.887540 
# 
# 
# High freq. dielectric constant tensor:
#      x y z
#    x 1.929260 0.000000 0.000000 
#    y 0.000000 1.963070 0.000000 
#    z 0.000000 0.000000 1.986630 
# 
# From -- ./inp_files/34750.got.cif
#   From: 2010.03.12/outbox.cif.g09.slc.cpg/sg73_18_cif.got.tgz:34750.got - 2010.04.16 15:25:48.
