data_PCOD8295258
_publ_section_title
;
Structure prediction by ZEFSAII (Michael W. Deem and Ramdas Pophale) SiO2 
 PCOD8295258
Probable space group: I B A M
;
_chemical_formula_sum "Si O2"
_cell_formula_units_Z 96
_cell_length_a 19.335057
_cell_length_b 14.956368
_cell_length_c 15.627088
_cell_angle_alpha 90.000000
_cell_angle_beta 90.000000
_cell_angle_gamma 90.000000
_cell_volume 4519.076122
_symmetry_space_group_name_H-M "I B A M"
_symmetry_group_IT_number 72
_symmetry_cell_setting 'orthorhombic'
loop_
_space_group_symop_operation_xyz
x,y,z
-x,-y,z
x,-y,1/2-z
-x,y,1/2-z
-x,-y,-z
x,y,-z
-x,y,1/2+z
x,-y,1/2+z
1/2+x,1/2+y,1/2+z
1/2-x,1/2-y,1/2+z
1/2+x,1/2-y,-z
1/2-x,1/2+y,-z
1/2-x,1/2-y,1/2-z
1/2+x,1/2+y,1/2-z
1/2-x,1/2+y,z
1/2+x,1/2-y,z
loop_
_atom_site_type_symbol
_atom_site_label
_atom_site_fract_x
_atom_site_fract_y
_atom_site_fract_z
Si Si1 0.382333 0.027908 0.000000
Si Si2 0.339817 0.613170 0.839122
Si Si3 0.746954 0.136621 0.500000
Si Si4 0.633370 0.937424 0.671867
Si Si5 0.294426 0.581186 0.339427
Si Si6 0.339916 0.308762 0.000000
Si Si7 0.470745 0.206840 0.000000
Si Si8 0.947456 0.260967 0.328714
O O1 0.402024 0.970892 0.084047
O O2 0.298857 0.046211 0.000000
O O3 0.427843 0.116161 0.000000
O O4 0.306565 0.637005 0.747357
O O5 0.344887 0.505442 0.845509
O O6 0.413344 0.663402 0.843310
O O7 0.293210 0.648368 0.916284
O O8 0.690512 0.211635 0.500000
O O9 0.715149 0.947855 0.659738
O O10 0.611008 0.835620 0.691687
O O11 0.608338 0.000000 0.750000
O O12 0.313326 0.642183 0.417348
O O13 0.422346 0.295527 0.000000
O O14 0.515933 0.209903 0.915217
O O15 0.000000 0.254874 0.250000
#
# Coordination Sequence:
#
# PCOD8295258 Si02
#       8
#     8  16   8  16  16   8   8  16
#     4  11  22  40  68  94 134 169 215 277 324 400
#     4  11  23  43  67  93 135 167 219 279 325 395
#     4  11  20  39  66 101 126 169 213 281 348 374
#     4  12  23  41  67 101 132 165 216 276 333 393
#     4  11  22  43  67 102 125 162 222 284 342 378
#     4  11  24  39  69  93 131 169 221 279 328 389
#     4  11  26  46  59  94 132 180 227 253 321 403
#     4  12  27  44  64  94 137 182 221 257 321 404
#
# _framework density 21.243279000000001
#
# number of rings (size 3 to 8) (size 9 to 14) (size 15 to 20)
#    0.000    0.667    3.333    5.000    0.000    8.333 
#    0.000    6.667    0.000    0.000    0.000    0.000 
#    0.000    0.000    0.000    0.000    0.000    0.000 
#
# Total GULP energy -595210.059883 kJ/mol
# GULP energy per Si atom -12400.209581 kJ/mol
# Density = 2.119493 g / cm^3
# Si number density = 21.243279 Si / 1000 Ang^3
#
#
#
# Elastic Constant Matrix: (Units=GPa)
#
#
# Indices 1 2 3 4 5 6 
#
# 1 86.0299 44.6494 37.6940 0.0000 0.0000 0.0000
# 2 44.6494 78.2020 36.8445 0.0000 0.0000 0.0000
# 3 37.6940 36.8445 159.9198 0.0000 0.0000 0.0000
# 4 0.0000 0.0000 0.0000 210.6420 0.0000 0.0000
# 5 0.0000 0.0000 0.0000 0.0000 28.2594 0.0000
# 6 0.0000 0.0000 0.0000 0.0000 0.0000 36.5897
#
#
#
# Elastic Compliance Matrix: (Units=1/GPa)
#
#
# Indices 1 2 3 4 5 6 
#
# 1 0.017067 -0.008805 -0.001994 0.000000 0.000000 0.000000
# 2 -0.008805 0.018887 -0.002276 0.000000 0.000000 0.000000
# 3 -0.001994 -0.002276 0.007248 0.000000 0.000000 0.000000
# 4 0.000000 0.000000 0.000000 0.004747 0.000000 0.000000
# 5 0.000000 0.000000 0.000000 0.000000 0.035387 0.000000
# 6 0.000000 0.000000 0.000000 0.000000 0.000000 0.027330
#
#
# Mechanical properties :
#
#
# Convention : Reuss Voigt Hill
#
# Bulk Modulus (GPa) = 58.64661 62.50305 60.57483
# Shear Modulus (GPa) = 35.08759 68.76248 51.92503
#
# Velocity S-wave (km/s) = 4.06852 5.69555 4.94935
# Velocity P-wave (km/s) = 7.05249 8.52870 7.82548
#
# Compressibility (1/GPa) = 0.01705129
#
# Stress axis : x y z
#
# Youngs Moduli (GPa) = 58.59096 52.94650 137.97720
#
# Poissons Ratio (x) = 0.46620 0.27516
# Poissons Ratio (y) = 0.51590 0.31404
# Poissons Ratio (z) = 0.11685 0.12051
#
# Static dielectric constant tensor:
#      x y z
#    x 3.785130 0.000000 0.000000 
#    y 0.000000 3.969590 0.000000 
#    z 0.000000 0.000000 4.139560 
# 
# 
# High freq. dielectric constant tensor:
#      x y z
#    x 1.820760 0.000000 0.000000 
#    y 0.000000 1.835440 0.000000 
#    z 0.000000 0.000000 1.860950 
# 
# From -- ./inp_files/24227.got.cif
#   From: 2010.03.12/outbox.cif.g09.slc.cpg/sg72_13_cif.got.tgz:24227.got - 2010.04.16 14:54:00.
