data_PCOD8295743
_publ_section_title
;
Structure prediction by ZEFSAII (Michael W. Deem and Ramdas Pophale) SiO2 
 PCOD8295743
Probable space group: I B C A 
;
_chemical_formula_sum "Si O2"
_cell_formula_units_Z 88
_cell_length_a 20.861835
_cell_length_b 17.007926
_cell_length_c 13.623179
_cell_angle_alpha 90.000000
_cell_angle_beta 90.000000
_cell_angle_gamma 90.000000
_cell_volume 4833.729317
_symmetry_space_group_name_H-M "I B C A "
_symmetry_group_IT_number 73
_symmetry_cell_setting 'orthorhombic'
loop_
_space_group_symop_operation_xyz
x,y,z
-x,1/2-y,z
x,-y,1/2-z
1/2-x,y,-z
-x,-y,-z
x,1/2+y,-z
-x,y,1/2+z
1/2+x,-y,z
1/2+x,1/2+y,1/2+z
1/2-x,-y,1/2+z
1/2+x,1/2-y,-z
-x,1/2+y,1/2-z
1/2-x,1/2-y,1/2-z
1/2+x,y,1/2-z
1/2-x,1/2+y,z
x,1/2-y,1/2+z
loop_
_atom_site_type_symbol
_atom_site_label
_atom_site_fract_x
_atom_site_fract_y
_atom_site_fract_z
Si Si1 0.554869 0.811037 0.334818
Si Si2 0.835514 0.696186 0.314572
Si Si3 0.971340 0.441744 0.920358
Si Si4 0.377150 0.809551 0.466035
Si Si5 0.117591 0.000000 0.750000
Si Si6 0.201932 0.354506 0.283335
O O1 0.500000 0.750000 0.299504
O O2 0.600631 0.828201 0.242718
O O3 0.527706 0.896351 0.362787
O O4 0.592795 0.772145 0.426068
O O5 0.846478 0.702882 0.429454
O O6 0.778918 0.633397 0.289773
O O7 0.812794 0.782311 0.286510
O O8 0.931364 0.375634 0.977089
O O9 0.927343 0.490406 0.844941
O O10 0.000000 0.500000 0.000000
O O11 0.322378 0.839284 0.393125
O O12 0.164906 0.926853 0.765845
#
# Coordination Sequence:
#
# PCOD8295743 Si02
#       6
#    16  16  16  16   8  16
#     4   9  20  36  53  88 112 140 192 230 281 342
#     4  10  19  35  65  80 109 150 196 235 273 339
#     4  10  22  36  55  82 115 150 182 226 293 341
#     4   9  19  36  57  82 114 144 188 238 273 337
#     4  10  22  40  56  78 126 146 182 244 288 344
#     4   9  20  38  57  86 109 153 188 231 292 335
#
# _framework density 18.205404000000001
#
# number of rings (size 3 to 8) (size 9 to 14) (size 15 to 20)
#    0.000    2.545    0.000    1.636    5.091    2.182 
#    3.273    0.000    0.000    0.000    0.000    0.000 
#    0.000    0.000    0.000    0.000    0.000    0.000 
#
# Total GULP energy -545552.730739 kJ/mol
# GULP energy per Si atom -12398.925699 kJ/mol
# Density = 1.816397 g / cm^3
# Si number density = 18.205404 Si / 1000 Ang^3
#
#
#
# Elastic Constant Matrix: (Units=GPa)
#
#
# Indices 1 2 3 4 5 6 
#
# 1 120.8527 50.3882 46.1248 0.0000 0.0000 0.0000
# 2 50.3882 87.3509 48.1667 0.0000 0.0000 0.0000
# 3 46.1248 48.1667 104.4147 0.0000 0.0000 0.0000
# 4 0.0000 0.0000 0.0000 21.1475 0.0000 0.0000
# 5 0.0000 0.0000 0.0000 0.0000 20.4980 0.0000
# 6 0.0000 0.0000 0.0000 0.0000 0.0000 33.7488
#
#
#
# Elastic Compliance Matrix: (Units=1/GPa)
#
#
# Indices 1 2 3 4 5 6 
#
# 1 0.011433 -0.005110 -0.002693 0.000000 0.000000 0.000000
# 2 -0.005110 0.017637 -0.005879 0.000000 0.000000 0.000000
# 3 -0.002693 -0.005879 0.013479 0.000000 0.000000 0.000000
# 4 0.000000 0.000000 0.000000 0.047287 0.000000 0.000000
# 5 0.000000 0.000000 0.000000 0.000000 0.048785 0.000000
# 6 0.000000 0.000000 0.000000 0.000000 0.000000 0.029631
#
#
# Mechanical properties :
#
#
# Convention : Reuss Voigt Hill
#
# Bulk Modulus (GPa) = 65.85398 66.88639 66.37019
# Shear Modulus (GPa) = 24.91550 26.27475 25.59513
#
# Velocity S-wave (km/s) = 3.70344 3.80312 3.75361
# Velocity P-wave (km/s) = 7.38503 7.49030 7.43785
#
# Compressibility (1/GPa) = 0.01518511
#
# Stress axis : x y z
#
# Youngs Moduli (GPa) = 87.46615 56.69750 74.19029
#
# Poissons Ratio (x) = 0.28972 0.19981
# Poissons Ratio (y) = 0.44695 0.43615
# Poissons Ratio (z) = 0.23557 0.33332
#
# Static dielectric constant tensor:
#      x y z
#    x 3.750070 0.000000 0.000000 
#    y 0.000000 3.292920 0.000000 
#    z 0.000000 0.000000 3.163790 
# 
# 
# High freq. dielectric constant tensor:
#      x y z
#    x 1.721440 0.000000 0.000000 
#    y 0.000000 1.693210 0.000000 
#    z 0.000000 0.000000 1.700810 
# 
# From -- ./inp_files/10978.got.cif
#   From: 2010.03.12/outbox.cif.g09.slc.cpg/sg73_6_cif.got.tgz:10978.got - 2010.04.16 15:25:48.
