data_PCOD8295059
_publ_section_title
;
Structure prediction by ZEFSAII (Michael W. Deem and Ramdas Pophale) SiO2 
 PCOD8295059
Probable space group: I B A M
;
_chemical_formula_sum "Si O2"
_cell_formula_units_Z 56
_cell_length_a 15.942759
_cell_length_b 8.509801
_cell_length_c 17.329180
_cell_angle_alpha 90.000000
_cell_angle_beta 90.000000
_cell_angle_gamma 90.000000
_cell_volume 2351.044764
_symmetry_space_group_name_H-M "I B A M"
_symmetry_group_IT_number 72
_symmetry_cell_setting 'orthorhombic'
loop_
_space_group_symop_operation_xyz
x,y,z
-x,-y,z
x,-y,1/2-z
-x,y,1/2-z
-x,-y,-z
x,y,-z
-x,y,1/2+z
x,-y,1/2+z
1/2+x,1/2+y,1/2+z
1/2-x,1/2-y,1/2+z
1/2+x,1/2-y,-z
1/2-x,1/2+y,-z
1/2-x,1/2-y,1/2-z
1/2+x,1/2+y,1/2-z
1/2-x,1/2+y,z
1/2+x,1/2-y,z
loop_
_atom_site_type_symbol
_atom_site_label
_atom_site_fract_x
_atom_site_fract_y
_atom_site_fract_z
Si Si1 0.179595 0.047077 0.415119
Si Si2 0.649938 0.799815 0.378391
Si Si3 0.000000 0.500000 0.366024
Si Si4 0.414742 0.730117 0.282847
O O1 0.157856 0.118565 0.500000
O O2 0.276290 0.077779 0.395113
O O3 0.120998 0.119028 0.349263
O O4 0.166101 0.861168 0.423058
O O5 0.649441 0.756865 0.287359
O O6 0.562001 0.877912 0.410287
O O7 0.065348 0.402341 0.314914
O O8 0.500000 0.650951 0.250000
#
# Coordination Sequence:
#
# PCOD8295059 Si02
#       4
#    16  16   8  16
#     4  12  26  44  66 100 140 180 224 281 345 405
#     4  11  23  43  70  99 133 178 228 279 337 408
#     4  10  23  44  71 100 129 170 229 286 333 392
#     4  10  22  44  71 100 132 178 232 282 335 405
#
# _framework density 23.819198
#
# number of rings (size 3 to 8) (size 9 to 14) (size 15 to 20)
#    0.000    1.143    0.000    8.143    0.000   10.286 
#    0.000   22.143    0.000    0.000    0.000    0.000 
#    0.000    0.000    0.000    0.000    0.000    0.000 
#
# Total GULP energy -346989.347224 kJ/mol
# GULP energy per Si atom -12392.476687 kJ/mol
# Density = 2.376498 g / cm^3
# Si number density = 23.819198 Si / 1000 Ang^3
#
#
#
# Elastic Constant Matrix: (Units=GPa)
#
#
# Indices 1 2 3 4 5 6 
#
# 1 138.3285 63.1214 71.3409 0.0000 0.0000 0.0000
# 2 63.1214 135.6290 31.7816 0.0000 0.0000 0.0000
# 3 71.3409 31.7816 138.3130 0.0000 0.0000 0.0000
# 4 0.0000 0.0000 0.0000 15.9938 0.0000 0.0000
# 5 0.0000 0.0000 0.0000 0.0000 -14.8267 0.0000
# 6 0.0000 0.0000 0.0000 0.0000 0.0000 42.4981
#
#
#
# Elastic Compliance Matrix: (Units=1/GPa)
#
#
# Indices 1 2 3 4 5 6 
#
# 1 0.011832 -0.004309 -0.005113 0.000000 0.000000 0.000000
# 2 -0.004309 0.009362 0.000071 0.000000 0.000000 0.000000
# 3 -0.005113 0.000071 0.009851 0.000000 0.000000 0.000000
# 4 0.000000 0.000000 0.000000 0.062524 0.000000 0.000000
# 5 0.000000 0.000000 0.000000 0.000000 -0.067446 0.000000
# 6 0.000000 0.000000 0.000000 0.000000 0.000000 0.023530
#
#
# Mechanical properties :
#
#
# Convention : Reuss Voigt Hill
#
# Bulk Modulus (GPa) = 81.01086 82.75091 81.88089
# Shear Modulus (GPa) = 68.99560 25.13481 47.06521
#
# Velocity S-wave (km/s) = 5.38788 3.25196 4.44997
# Velocity P-wave (km/s) = 8.53172 6.99407 7.80087
#
# Compressibility (1/GPa) = 0.01234402
#
# Stress axis : x y z
#
# Youngs Moduli (GPa) = 84.51561 106.81983 101.51438
#
# Poissons Ratio (x) = 0.46024 0.51903
# Poissons Ratio (y) = 0.36414 -0.00723
# Poissons Ratio (z) = 0.43212 -0.00761
#
# Static dielectric constant tensor:
#      x y z
#    x 4.427010 0.000000 0.000000 
#    y 0.000000 4.343950 0.000000 
#    z 0.000000 0.000000 4.184150 
# 
# 
# High freq. dielectric constant tensor:
#      x y z
#    x 1.942250 0.000000 0.000000 
#    y 0.000000 1.958020 0.000000 
#    z 0.000000 0.000000 1.934910 
# 
# From -- ./inp_files/31085.got.cif
#   From: 2010.03.12/outbox.cif.g09.slc.cpg/sg72_16_cif.got.tgz:31085.got - 2010.04.16 14:54:00.
