data_PCOD8295666
_publ_section_title
;
Structure prediction by ZEFSAII (Michael W. Deem and Ramdas Pophale) SiO2 
 PCOD8295666
Probable space group: I B C A 
;
_chemical_formula_sum "Si O2"
_cell_formula_units_Z 96
_cell_length_a 17.472747
_cell_length_b 17.236098
_cell_length_c 15.666147
_cell_angle_alpha 90.000000
_cell_angle_beta 90.000000
_cell_angle_gamma 90.000000
_cell_volume 4718.047844
_symmetry_space_group_name_H-M "I B C A "
_symmetry_group_IT_number 73
_symmetry_cell_setting 'orthorhombic'
loop_
_space_group_symop_operation_xyz
x,y,z
-x,1/2-y,z
x,-y,1/2-z
1/2-x,y,-z
-x,-y,-z
x,1/2+y,-z
-x,y,1/2+z
1/2+x,-y,z
1/2+x,1/2+y,1/2+z
1/2-x,-y,1/2+z
1/2+x,1/2-y,-z
-x,1/2+y,1/2-z
1/2-x,1/2-y,1/2-z
1/2+x,y,1/2-z
1/2-x,1/2+y,z
x,1/2-y,1/2+z
loop_
_atom_site_type_symbol
_atom_site_label
_atom_site_fract_x
_atom_site_fract_y
_atom_site_fract_z
Si Si1 0.418769 0.225622 0.433269
Si Si2 0.266008 0.788858 0.160704
Si Si3 0.657463 0.025823 0.654671
Si Si4 0.179872 0.169851 0.949243
Si Si5 0.428096 0.943903 0.008710
Si Si6 0.713392 0.058781 0.090985
O O1 0.500000 0.250000 0.391330
O O2 0.356979 0.208664 0.359017
O O3 0.388444 0.297003 0.491947
O O4 0.439462 0.148811 0.488926
O O5 0.250000 0.750000 0.250000
O O6 0.221068 0.744261 0.088217
O O7 0.229440 0.874181 0.160543
O O8 0.641581 0.114606 0.624147
O O9 0.634985 0.000000 0.750000
O O10 0.611890 0.965633 0.596965
O O11 0.747759 0.016011 0.634395
O O12 0.250000 0.125587 0.000000
O O13 0.375365 0.961199 0.925442
O O14 0.500000 0.000000 0.000000
O O15 0.750000 0.084471 0.000000
#
# Coordination Sequence:
#
# PCOD8295666 Si02
#       6
#    16  16  16  16  16  16
#     4  11  22  39  62  91 130 170 222 276 322 395
#     4  11  20  37  64  93 126 171 218 271 335 396
#     4  11  22  37  62  95 128 162 214 276 330 386
#     4  10  20  36  60  92 121 166 223 260 314 407
#     4  11  22  40  65  89 125 176 220 266 329 397
#     4  10  18  39  65  86 121 173 216 259 319 401
#
# _framework density 20.347397999999998
#
# number of rings (size 3 to 8) (size 9 to 14) (size 15 to 20)
#    0.000    1.333    5.000    4.000    0.000    1.333 
#    0.000    3.333    0.000    0.000    0.000    0.000 
#    0.000    0.000    0.000    0.000    0.000    0.000 
#
# Total GULP energy -594674.850695 kJ/mol
# GULP energy per Si atom -12389.059389 kJ/mol
# Density = 2.030109 g / cm^3
# Si number density = 20.347398 Si / 1000 Ang^3
#
#
#
# Elastic Constant Matrix: (Units=GPa)
#
#
# Indices 1 2 3 4 5 6 
#
# 1 130.7992 32.6456 41.6030 0.0000 0.0000 0.0000
# 2 32.6456 93.9516 28.5452 0.0000 0.0000 0.0000
# 3 41.6030 28.5452 85.0401 0.0000 0.0000 0.0000
# 4 0.0000 0.0000 0.0000 31.7675 0.0000 0.0000
# 5 0.0000 0.0000 0.0000 0.0000 16.1746 0.0000
# 6 0.0000 0.0000 0.0000 0.0000 0.0000 33.0964
#
#
#
# Elastic Compliance Matrix: (Units=1/GPa)
#
#
# Indices 1 2 3 4 5 6 
#
# 1 0.009406 -0.002083 -0.003903 0.000000 0.000000 0.000000
# 2 -0.002083 0.012314 -0.003114 0.000000 0.000000 0.000000
# 3 -0.003903 -0.003114 0.014714 0.000000 0.000000 0.000000
# 4 0.000000 0.000000 0.000000 0.031479 0.000000 0.000000
# 5 0.000000 0.000000 0.000000 0.000000 0.061825 0.000000
# 6 0.000000 0.000000 0.000000 0.000000 0.000000 0.030215
#
#
# Mechanical properties :
#
#
# Convention : Reuss Voigt Hill
#
# Bulk Modulus (GPa) = 54.84158 57.26427 56.05293
# Shear Modulus (GPa) = 27.13989 30.00749 28.57369
#
# Velocity S-wave (km/s) = 3.65612 3.84442 3.75145
# Velocity P-wave (km/s) = 6.69583 6.92174 6.80972
#
# Compressibility (1/GPa) = 0.01823434
#
# Stress axis : x y z
#
# Youngs Moduli (GPa) = 106.31009 81.21031 67.96333
#
# Poissons Ratio (x) = 0.16914 0.26524
# Poissons Ratio (y) = 0.22142 0.21167
# Poissons Ratio (z) = 0.41489 0.25292
#
# Static dielectric constant tensor:
#      x y z
#    x 3.910690 0.000000 0.000000 
#    y 0.000000 4.013970 0.000000 
#    z 0.000000 0.000000 4.105100 
# 
# 
# High freq. dielectric constant tensor:
#      x y z
#    x 1.782990 0.000000 0.000000 
#    y 0.000000 1.812240 0.000000 
#    z 0.000000 0.000000 1.766810 
# 
# From -- ./inp_files/22539.got.cif
#   From: 2010.03.12/outbox.cif.g09.slc.cpg/sg73_12_cif.got.tgz:22539.got - 2010.04.16 15:25:48.
