data_PCOD8295285
_publ_section_title
;
Structure prediction by ZEFSAII (Michael W. Deem and Ramdas Pophale) SiO2 
 PCOD8295285
Probable space group: I B A M
;
_chemical_formula_sum "Si O2"
_cell_formula_units_Z 96
_cell_length_a 23.771943
_cell_length_b 21.386491
_cell_length_c 9.502058
_cell_angle_alpha 90.000000
_cell_angle_beta 90.000000
_cell_angle_gamma 90.000000
_cell_volume 4830.831512
_symmetry_space_group_name_H-M "I B A M"
_symmetry_group_IT_number 72
_symmetry_cell_setting 'orthorhombic'
loop_
_space_group_symop_operation_xyz
x,y,z
-x,-y,z
x,-y,1/2-z
-x,y,1/2-z
-x,-y,-z
x,y,-z
-x,y,1/2+z
x,-y,1/2+z
1/2+x,1/2+y,1/2+z
1/2-x,1/2-y,1/2+z
1/2+x,1/2-y,-z
1/2-x,1/2+y,-z
1/2-x,1/2-y,1/2-z
1/2+x,1/2+y,1/2-z
1/2-x,1/2+y,z
1/2+x,1/2-y,z
loop_
_atom_site_type_symbol
_atom_site_label
_atom_site_fract_x
_atom_site_fract_y
_atom_site_fract_z
Si Si1 0.247585 0.152796 0.225735
Si Si2 0.939503 0.381480 0.222659
Si Si3 0.262707 0.951365 0.500000
Si Si4 0.662036 0.756929 0.337038
Si Si5 0.946562 0.755293 0.340886
Si Si6 0.253315 0.410740 0.000000
Si Si7 0.610692 0.969409 0.000000
Si Si8 0.880385 0.393326 0.500000
O O1 0.254371 0.090366 0.136244
O O2 0.308044 0.186306 0.252157
O O3 0.206037 0.200289 0.148725
O O4 0.220703 0.126884 0.369223
O O5 0.950953 0.319009 0.134145
O O6 0.904837 0.432959 0.140276
O O7 0.903665 0.358876 0.359650
O O8 0.000000 0.412690 0.250000
O O9 0.323814 0.979788 0.500000
O O10 0.226554 0.016207 0.500000
O O11 0.647099 0.778172 0.500000
O O12 0.609443 0.729994 0.249232
O O13 0.945205 0.784991 0.500000
O O14 0.000000 0.780296 0.250000
O O15 0.186088 0.400953 0.000000
O O16 0.586335 0.039643 0.000000
#
# Coordination Sequence:
#
# PCOD8295285 Si02
#       8
#    16  16   8  16  16   8   8   8
#     4  11  23  37  58  88 117 155 201 241 302 344
#     4  11  23  35  50  70  99 139 189 238 291 336
#     4  11  22  38  57  79 114 152 198 244 292 356
#     4  11  23  39  61  86 122 154 193 247 292 353
#     4  11  24  39  61  84 111 147 185 229 287 351
#     4  11  22  38  57  81 112 154 194 246 290 360
#     4  11  21  36  50  70  95 140 192 242 288 332
#     4  11  23  34  50  70  99 140 190 242 290 328
#
# _framework density 19.872354999999999
#
# number of rings (size 3 to 8) (size 9 to 14) (size 15 to 20)
#    0.000    1.000    2.500    5.000    7.000    4.667 
#    0.000    0.000    0.000    0.000    0.000    0.000 
#    0.000    4.000    0.000    0.000    0.000    0.000 
#
# Total GULP energy -595063.231003 kJ/mol
# GULP energy per Si atom -12397.150646 kJ/mol
# Density = 1.982713 g / cm^3
# Si number density = 19.872355 Si / 1000 Ang^3
#
#
#
# Elastic Constant Matrix: (Units=GPa)
#
#
# Indices 1 2 3 4 5 6 
#
# 1 68.1292 -1.6066 26.8068 0.0000 0.0000 0.0000
# 2 -1.6066 46.4077 5.7566 0.0000 0.0000 0.0000
# 3 26.8068 5.7566 133.3890 0.0000 0.0000 0.0000
# 4 0.0000 0.0000 0.0000 35.2287 0.0000 0.0000
# 5 0.0000 0.0000 0.0000 0.0000 23.8747 0.0000
# 6 0.0000 0.0000 0.0000 0.0000 0.0000 14.8512
#
#
#
# Elastic Compliance Matrix: (Units=1/GPa)
#
#
# Indices 1 2 3 4 5 6 
#
# 1 0.015980 0.000957 -0.003253 0.000000 0.000000 0.000000
# 2 0.000957 0.021721 -0.001130 0.000000 0.000000 0.000000
# 3 -0.003253 -0.001130 0.008199 0.000000 0.000000 0.000000
# 4 0.000000 0.000000 0.000000 0.028386 0.000000 0.000000
# 5 0.000000 0.000000 0.000000 0.000000 0.041885 0.000000
# 6 0.000000 0.000000 0.000000 0.000000 0.000000 0.067334
#
#
# Mechanical properties :
#
#
# Convention : Reuss Voigt Hill
#
# Bulk Modulus (GPa) = 25.60847 34.42662 30.01754
# Shear Modulus (GPa) = 24.58511 29.25553 26.92032
#
# Velocity S-wave (km/s) = 3.52113 3.84105 3.68457
# Velocity P-wave (km/s) = 5.42638 6.08548 5.76536
#
# Compressibility (1/GPa) = 0.03904958
#
# Stress axis : x y z
#
# Youngs Moduli (GPa) = 62.57645 46.03755 121.96113
#
# Poissons Ratio (x) = -0.04405 0.39672
# Poissons Ratio (y) = -0.05987 0.13778
# Poissons Ratio (z) = 0.20355 0.05201
#
# Static dielectric constant tensor:
#      x y z
#    x 3.445620 0.000000 0.000000 
#    y 0.000000 3.456590 0.000000 
#    z 0.000000 0.000000 3.814130 
# 
# 
# High freq. dielectric constant tensor:
#      x y z
#    x 1.748730 0.000000 0.000000 
#    y 0.000000 1.751960 0.000000 
#    z 0.000000 0.000000 1.796800 
# 
# From -- ./inp_files/7023.got.cif
#   From: 2010.03.12/outbox.cif.g09.slc.cpg/sg72_4_cif.got.tgz:7023.got - 2010.04.16 14:54:00.
