data_PCOD8295727
_publ_section_title
;
Structure prediction by ZEFSAII (Michael W. Deem and Ramdas Pophale) SiO2 
 PCOD8295727
Probable space group: I B C A 
;
_chemical_formula_sum "Si O2"
_cell_formula_units_Z 112
_cell_length_a 12.891819
_cell_length_b 19.311999
_cell_length_c 22.791543
_cell_angle_alpha 90.000000
_cell_angle_beta 90.000000
_cell_angle_gamma 90.000000
_cell_volume 5674.337428
_symmetry_space_group_name_H-M "I B C A "
_symmetry_group_IT_number 73
_symmetry_cell_setting 'orthorhombic'
loop_
_space_group_symop_operation_xyz
x,y,z
-x,1/2-y,z
x,-y,1/2-z
1/2-x,y,-z
-x,-y,-z
x,1/2+y,-z
-x,y,1/2+z
1/2+x,-y,z
1/2+x,1/2+y,1/2+z
1/2-x,-y,1/2+z
1/2+x,1/2-y,-z
-x,1/2+y,1/2-z
1/2-x,1/2-y,1/2-z
1/2+x,y,1/2-z
1/2-x,1/2+y,z
x,1/2-y,1/2+z
loop_
_atom_site_type_symbol
_atom_site_label
_atom_site_fract_x
_atom_site_fract_y
_atom_site_fract_z
Si Si1 0.889690 0.285785 0.805811
Si Si2 0.649633 0.994973 0.968242
Si Si3 0.338763 0.065645 0.157977
Si Si4 0.000000 0.750000 0.915948
Si Si5 0.022371 0.000000 0.750000
Si Si6 0.527834 0.900972 0.055544
Si Si7 0.884574 0.402098 0.184632
Si Si8 0.836229 0.754372 0.318828
O O1 0.888353 0.357947 0.840192
O O2 0.873504 0.301342 0.736066
O O3 0.788955 0.240520 0.828021
O O4 0.000000 0.250000 0.819926
O O5 0.674327 0.956209 0.908576
O O6 0.581324 0.062580 0.956605
O O7 0.750000 0.025838 0.000000
O O8 0.606191 0.935161 0.010255
O O9 0.410775 0.012247 0.192135
O O10 0.226479 0.061448 0.187289
O O11 0.975583 0.817501 0.955579
O O12 0.900309 0.725692 0.876990
O O13 0.952809 0.067007 0.737005
O O14 0.563084 0.914774 0.121778
O O15 0.870555 0.322298 0.199719
#
# Coordination Sequence:
#
# PCOD8295727 Si02
#       8
#    16  16  16   8   8  16  16  16
#     4  10  19  35  53  85 123 162 204 247 313 379
#     4  11  22  43  67  87 123 169 213 263 313 379
#     4  11  23  36  60  91 121 165 203 259 317 369
#     4  10  20  40  64  92 120 158 218 260 318 380
#     4  12  22  34  56  92 128 148 198 258 308 376
#     4  10  22  41  67  89 116 164 213 258 310 370
#     4  10  20  38  57  88 121 161 206 247 315 379
#     4   9  19  33  59  81 120 168 198 249 314 380
#
# _framework density 19.737988000000001
#
# number of rings (size 3 to 8) (size 9 to 14) (size 15 to 20)
#    0.000    1.714    3.571    1.286    2.000    0.000 
#    1.286    5.000    0.000    0.000    0.000    0.000 
#    0.000    0.000    0.000    0.000    0.000    0.000 
#
# Total GULP energy -694256.187637 kJ/mol
# GULP energy per Si atom -12397.431922 kJ/mol
# Density = 1.969306 g / cm^3
# Si number density = 19.737988 Si / 1000 Ang^3
#
#
#
# Elastic Constant Matrix: (Units=GPa)
#
#
# Indices 1 2 3 4 5 6 
#
# 1 129.6274 27.1523 21.6405 0.0000 0.0000 0.0000
# 2 27.1523 67.8698 17.4478 0.0000 0.0000 0.0000
# 3 21.6405 17.4478 64.8719 0.0000 0.0000 0.0000
# 4 0.0000 0.0000 0.0000 16.3249 0.0000 0.0000
# 5 0.0000 0.0000 0.0000 0.0000 28.3074 0.0000
# 6 0.0000 0.0000 0.0000 0.0000 0.0000 36.6791
#
#
#
# Elastic Compliance Matrix: (Units=1/GPa)
#
#
# Indices 1 2 3 4 5 6 
#
# 1 0.008680 -0.002931 -0.002107 0.000000 0.000000 0.000000
# 2 -0.002931 0.016818 -0.003546 0.000000 0.000000 0.000000
# 3 -0.002107 -0.003546 0.017072 0.000000 0.000000 0.000000
# 4 0.000000 0.000000 0.000000 0.061256 0.000000 0.000000
# 5 0.000000 0.000000 0.000000 0.000000 0.035326 0.000000
# 6 0.000000 0.000000 0.000000 0.000000 0.000000 0.027263
#
#
# Mechanical properties :
#
#
# Convention : Reuss Voigt Hill
#
# Bulk Modulus (GPa) = 39.36671 43.87226 41.61949
# Shear Modulus (GPa) = 26.03476 29.33752 27.68614
#
# Velocity S-wave (km/s) = 3.63577 3.85950 3.74930
# Velocity P-wave (km/s) = 6.13295 6.49127 6.31465
#
# Compressibility (1/GPa) = 0.02540217
#
# Stress axis : x y z
#
# Youngs Moduli (GPa) = 115.20560 59.45958 58.57682
#
# Poissons Ratio (x) = 0.17427 0.12344
# Poissons Ratio (y) = 0.33765 0.20769
# Poissons Ratio (z) = 0.24277 0.21082
#
# Static dielectric constant tensor:
#      x y z
#    x 3.988590 0.000000 0.000000 
#    y 0.000000 3.446610 0.000000 
#    z 0.000000 0.000000 3.461750 
# 
# 
# High freq. dielectric constant tensor:
#      x y z
#    x 1.788380 0.000000 0.000000 
#    y 0.000000 1.759030 0.000000 
#    z 0.000000 0.000000 1.751240 
# 
# From -- ./inp_files/29068.got.cif
#   From: 2010.03.12/outbox.cif.g09.slc.cpg/sg73_15_cif.got.tgz:29068.got - 2010.04.16 15:25:48.
