data_PCOD8295069
_publ_section_title
;
Structure prediction by ZEFSAII (Michael W. Deem and Ramdas Pophale) SiO2 
 PCOD8295069
Probable space group: I B A M
;
_chemical_formula_sum "Si O2"
_cell_formula_units_Z 104
_cell_length_a 24.515489
_cell_length_b 8.889292
_cell_length_c 21.710625
_cell_angle_alpha 90.000000
_cell_angle_beta 90.000000
_cell_angle_gamma 90.000000
_cell_volume 4731.295340
_symmetry_space_group_name_H-M "I B A M"
_symmetry_group_IT_number 72
_symmetry_cell_setting 'orthorhombic'
loop_
_space_group_symop_operation_xyz
x,y,z
-x,-y,z
x,-y,1/2-z
-x,y,1/2-z
-x,-y,-z
x,y,-z
-x,y,1/2+z
x,-y,1/2+z
1/2+x,1/2+y,1/2+z
1/2-x,1/2-y,1/2+z
1/2+x,1/2-y,-z
1/2-x,1/2+y,-z
1/2-x,1/2-y,1/2-z
1/2+x,1/2+y,1/2-z
1/2-x,1/2+y,z
1/2+x,1/2-y,z
loop_
_atom_site_type_symbol
_atom_site_label
_atom_site_fract_x
_atom_site_fract_y
_atom_site_fract_z
Si Si1 0.865171 0.609719 0.802293
Si Si2 0.697939 0.845603 0.500000
Si Si3 0.445432 0.903162 0.625843
Si Si4 0.322465 0.421205 0.867838
Si Si5 0.776181 0.224262 0.373804
Si Si6 0.385481 0.110011 0.000000
Si Si7 0.419544 0.651840 0.720052
Si Si8 0.821126 0.897068 0.500000
O O1 0.844609 0.500000 0.750000
O O2 0.898801 0.513058 0.850576
O O3 0.809444 0.668453 0.829434
O O4 0.903213 0.744259 0.777321
O O5 0.696890 0.737562 0.558834
O O6 0.755938 0.935030 0.500000
O O7 0.643186 0.946735 0.500000
O O8 0.425130 0.855894 0.558187
O O9 0.454165 0.755614 0.671198
O O10 0.500000 0.000000 0.622349
O O11 0.287663 0.267328 0.872402
O O12 0.281019 0.554340 0.849961
O O13 0.367361 0.408960 0.816160
O O14 0.347599 0.458335 0.936080
O O15 0.333480 0.218889 0.000000
O O16 0.448177 0.500000 0.750000
#
# Coordination Sequence:
#
# PCOD8295069 Si02
#       8
#    16   8  16  16  16   8  16   8
#     4  10  23  39  62  89 131 173 221 274 336 400
#     4  10  23  33  63  91 136 176 226 259 334 399
#     4  11  25  46  72 100 131 172 229 288 351 402
#     4  11  24  37  63  94 137 179 228 271 338 405
#     4  11  23  38  59  93 134 181 226 273 333 409
#     4  12  21  42  72 104 138 176 215 288 338 405
#     4  11  23  43  65  97 134 175 224 276 336 404
#     4  10  23  35  61  97 134 176 221 267 330 395
#
# _framework density 21.981294999999999
#
# number of rings (size 3 to 8) (size 9 to 14) (size 15 to 20)
#    0.000    1.231    4.615    0.692   12.923    4.000 
#    0.000    1.538    0.000    0.000    0.000    4.308 
#    0.000    0.000    0.000    0.000    0.000    0.000 
#
# Total GULP energy -644295.111877 kJ/mol
# GULP energy per Si atom -12390.290613 kJ/mol
# Density = 2.193126 g / cm^3
# Si number density = 21.981295 Si / 1000 Ang^3
#
#
#
# Elastic Constant Matrix: (Units=GPa)
#
#
# Indices 1 2 3 4 5 6 
#
# 1 61.2475 21.1826 26.9473 0.0000 0.0000 0.0000
# 2 21.1826 107.5582 27.2021 0.0000 0.0000 0.0000
# 3 26.9473 27.2021 113.4689 0.0000 0.0000 0.0000
# 4 0.0000 0.0000 0.0000 28.6818 0.0000 0.0000
# 5 0.0000 0.0000 0.0000 0.0000 -4.5804 0.0000
# 6 0.0000 0.0000 0.0000 0.0000 0.0000 5.4536
#
#
#
# Elastic Compliance Matrix: (Units=1/GPa)
#
#
# Indices 1 2 3 4 5 6 
#
# 1 0.018974 -0.002765 -0.003843 0.000000 0.000000 0.000000
# 2 -0.002765 0.010300 -0.001813 0.000000 0.000000 0.000000
# 3 -0.003843 -0.001813 0.010160 0.000000 0.000000 0.000000
# 4 0.000000 0.000000 0.000000 0.034865 0.000000 0.000000
# 5 0.000000 0.000000 0.000000 0.000000 -0.218322 0.000000
# 6 0.000000 0.000000 0.000000 0.000000 0.000000 0.183365
#
#
# Mechanical properties :
#
#
# Convention : Reuss Voigt Hill
#
# Bulk Modulus (GPa) = 44.26109 48.10430 46.18269
# Shear Modulus (GPa) = 78.47243 19.70717 49.08980
#
# Velocity S-wave (km/s) = 5.98140 2.99748 4.73086
# Velocity P-wave (km/s) = 8.23908 5.82336 7.13421
#
# Compressibility (1/GPa) = 0.02259321
#
# Stress axis : x y z
#
# Youngs Moduli (GPa) = 52.70255 97.08509 98.42242
#
# Poissons Ratio (x) = 0.26842 0.37827
# Poissons Ratio (y) = 0.14571 0.17841
# Poissons Ratio (z) = 0.20255 0.17598
#
# Static dielectric constant tensor:
#      x y z
#    x 3.476980 0.000000 0.000000 
#    y 0.000000 4.193350 0.000000 
#    z 0.000000 0.000000 4.423130 
# 
# 
# High freq. dielectric constant tensor:
#      x y z
#    x 1.822990 0.000000 0.000000 
#    y 0.000000 1.875000 0.000000 
#    z 0.000000 0.000000 1.883160 
# 
# From -- ./inp_files/40815.got.cif
#   From: 2010.03.12/outbox.cif.g09.slc.cpg/sg72_21_cif.got.tgz:40815.got - 2010.04.16 14:54:00.
