data_PCOD8295085
_publ_section_title
;
Structure prediction by ZEFSAII (Michael W. Deem and Ramdas Pophale) SiO2 
 PCOD8295085
Probable space group: I B A M
;
_chemical_formula_sum "Si O2"
_cell_formula_units_Z 96
_cell_length_a 12.938806
_cell_length_b 12.571596
_cell_length_c 28.448747
_cell_angle_alpha 90.000000
_cell_angle_beta 90.000000
_cell_angle_gamma 90.000000
_cell_volume 4627.514203
_symmetry_space_group_name_H-M "I B A M"
_symmetry_group_IT_number 72
_symmetry_cell_setting 'orthorhombic'
loop_
_space_group_symop_operation_xyz
x,y,z
-x,-y,z
x,-y,1/2-z
-x,y,1/2-z
-x,-y,-z
x,y,-z
-x,y,1/2+z
x,-y,1/2+z
1/2+x,1/2+y,1/2+z
1/2-x,1/2-y,1/2+z
1/2+x,1/2-y,-z
1/2-x,1/2+y,-z
1/2-x,1/2-y,1/2-z
1/2+x,1/2+y,1/2-z
1/2-x,1/2+y,z
1/2+x,1/2-y,z
loop_
_atom_site_type_symbol
_atom_site_label
_atom_site_fract_x
_atom_site_fract_y
_atom_site_fract_z
Si Si1 0.117716 0.877983 0.000000
Si Si2 0.603346 0.458306 0.696667
Si Si3 0.234053 0.276078 0.073007
Si Si4 0.941140 0.602967 0.881425
Si Si5 0.118532 0.731667 0.844541
Si Si6 0.875768 0.870264 0.000000
Si Si7 0.822721 0.516183 0.304916
O O1 0.171339 0.829265 0.045668
O O2 0.997774 0.843199 0.000000
O O3 0.136118 0.003664 0.000000
O O4 0.500000 0.500000 0.670132
O O5 0.598532 0.500000 0.750000
O O6 0.604342 0.331357 0.690082
O O7 0.707010 0.505211 0.673501
O O8 0.146958 0.365390 0.081663
O O9 0.280979 0.238974 0.122404
O O10 0.181272 0.177820 0.045759
O O11 0.894615 0.569607 0.830795
O O12 0.000000 0.500000 0.903060
O O13 0.015839 0.705171 0.874891
O O14 0.135878 0.633758 0.810411
O O15 0.822536 0.500000 0.250000
#
# Coordination Sequence:
#
# PCOD8295085 Si02
#       7
#     8  16  16  16  16   8  16
#     4  10  24  46  69  97 129 165 202 266 328 395
#     4  10  23  39  59  94 128 173 226 269 321 371
#     4  11  23  44  67  99 130 166 213 261 330 388
#     4  10  23  41  64  99 128 173 221 263 319 382
#     4  11  24  40  67  94 132 175 218 273 322 378
#     4  10  24  44  71  99 129 163 206 262 329 408
#     4  10  23  42  63  91 132 176 223 266 318 375
#
# _framework density 20.745479
#
# number of rings (size 3 to 8) (size 9 to 14) (size 15 to 20)
#    0.000    1.667    1.667    1.000    7.000    8.333 
#    3.000    0.833    0.000    0.000    0.000    0.000 
#    0.000    0.000    0.000    0.000    0.000    0.000 
#
# Total GULP energy -595019.249875 kJ/mol
# GULP energy per Si atom -12396.234372 kJ/mol
# Density = 2.069826 g / cm^3
# Si number density = 20.745479 Si / 1000 Ang^3
#
#
#
# Elastic Constant Matrix: (Units=GPa)
#
#
# Indices 1 2 3 4 5 6 
#
# 1 136.6226 50.1402 26.9063 0.0000 0.0000 0.0000
# 2 50.1402 105.3942 36.6219 0.0000 0.0000 0.0000
# 3 26.9063 36.6219 70.0589 0.0000 0.0000 0.0000
# 4 0.0000 0.0000 0.0000 16.0315 0.0000 0.0000
# 5 0.0000 0.0000 0.0000 0.0000 21.7032 0.0000
# 6 0.0000 0.0000 0.0000 0.0000 0.0000 39.8744
#
#
#
# Elastic Compliance Matrix: (Units=1/GPa)
#
#
# Indices 1 2 3 4 5 6 
#
# 1 0.008993 -0.003761 -0.001488 0.000000 0.000000 0.000000
# 2 -0.003761 0.013167 -0.005438 0.000000 0.000000 0.000000
# 3 -0.001488 -0.005438 0.017688 0.000000 0.000000 0.000000
# 4 0.000000 0.000000 0.000000 0.062377 0.000000 0.000000
# 5 0.000000 0.000000 0.000000 0.000000 0.046076 0.000000
# 6 0.000000 0.000000 0.000000 0.000000 0.000000 0.025079
#
#
# Mechanical properties :
#
#
# Convention : Reuss Voigt Hill
#
# Bulk Modulus (GPa) = 54.13202 59.93473 57.03337
# Shear Modulus (GPa) = 24.88647 28.74897 26.81772
#
# Velocity S-wave (km/s) = 3.46729 3.72666 3.59932
# Velocity P-wave (km/s) = 6.49458 6.88989 6.69515
#
# Compressibility (1/GPa) = 0.01847335
#
# Stress axis : x y z
#
# Youngs Moduli (GPa) = 111.20019 75.94561 56.53611
#
# Poissons Ratio (x) = 0.28566 0.08410
# Poissons Ratio (y) = 0.41826 0.30747
# Poissons Ratio (z) = 0.16542 0.41302
#
# Static dielectric constant tensor:
#      x y z
#    x 4.576200 0.000000 0.000000 
#    y 0.000000 3.761760 0.000000 
#    z 0.000000 0.000000 3.458240 
# 
# 
# High freq. dielectric constant tensor:
#      x y z
#    x 1.843570 0.000000 0.000000 
#    y 0.000000 1.813370 0.000000 
#    z 0.000000 0.000000 1.789660 
# 
# From -- ./inp_files/51717.got.cif
#   From: 2010.03.12/outbox.cif.g09.slc.cpg/sg72_26_cif.got.tgz:51717.got - 2010.04.16 14:54:00.
