data_PCOD8295584
_publ_section_title
;
Structure prediction by ZEFSAII (Michael W. Deem and Ramdas Pophale) SiO2 
 PCOD8295584
Probable space group: I B C A 
;
_chemical_formula_sum "Si O2"
_cell_formula_units_Z 120
_cell_length_a 15.578595
_cell_length_b 18.329258
_cell_length_c 24.811163
_cell_angle_alpha 90.000000
_cell_angle_beta 90.000000
_cell_angle_gamma 90.000000
_cell_volume 7084.680887
_symmetry_space_group_name_H-M "I B C A "
_symmetry_group_IT_number 73
_symmetry_cell_setting 'orthorhombic'
loop_
_space_group_symop_operation_xyz
x,y,z
-x,1/2-y,z
x,-y,1/2-z
1/2-x,y,-z
-x,-y,-z
x,1/2+y,-z
-x,y,1/2+z
1/2+x,-y,z
1/2+x,1/2+y,1/2+z
1/2-x,-y,1/2+z
1/2+x,1/2-y,-z
-x,1/2+y,1/2-z
1/2-x,1/2-y,1/2-z
1/2+x,y,1/2-z
1/2-x,1/2+y,z
x,1/2-y,1/2+z
loop_
_atom_site_type_symbol
_atom_site_label
_atom_site_fract_x
_atom_site_fract_y
_atom_site_fract_z
Si Si1 0.998677 0.925954 0.966340
Si Si2 0.278294 0.420517 0.744127
Si Si3 0.668334 0.833310 0.034257
Si Si4 0.325232 0.166454 0.341798
Si Si5 0.170935 0.163596 0.536104
Si Si6 0.002767 0.411709 0.656938
Si Si7 0.323939 0.334371 0.341709
Si Si8 0.057967 0.500000 0.250000
O O1 0.916378 0.877636 0.983584
O O2 0.991365 0.944797 0.903029
O O3 0.086107 0.882082 0.978165
O O4 0.000000 0.000000 0.000000
O O5 0.232484 0.500000 0.750000
O O6 0.264349 0.377569 0.800456
O O7 0.245467 0.377612 0.692712
O O8 0.380445 0.431920 0.733777
O O9 0.648175 0.748051 0.025149
O O10 0.694424 0.848518 0.095714
O O11 0.750000 0.859820 0.000000
O O12 0.295830 0.151835 0.402938
O O13 0.423110 0.142048 0.337116
O O14 0.317464 0.250384 0.325960
O O15 0.250000 0.136159 0.500000
O O16 0.082382 0.362253 0.673347
O O17 0.999608 0.479289 0.698520
#
# Coordination Sequence:
#
# PCOD8295584 Si02
#       8
#    16  16  16  16  16  16  16   8
#     4  10  20  33  49  78 104 130 168 211 252 298
#     4   9  19  32  46  72 103 130 156 194 254 295
#     4   9  19  35  53  75 101 134 173 210 252 296
#     4   9  17  34  53  73  98 128 166 205 246 291
#     4   9  18  35  56  75  99 134 171 210 253 299
#     4   9  18  33  50  71  97 128 165 204 244 286
#     4  10  18  30  55  76  93 126 174 208 234 292
#     4   8  18  32  46  64 102 138 150 190 256 296
#
# _framework density 16.937954999999999
#
# number of rings (size 3 to 8) (size 9 to 14) (size 15 to 20)
#    0.400    2.400    0.000    1.200    0.933    4.800 
#    4.800    0.000    0.000    0.000    0.000    7.467 
#    0.000    0.000    0.000    0.000    0.000    0.000 
#
# Total GULP energy -743742.564132 kJ/mol
# GULP energy per Si atom -12395.709402 kJ/mol
# Density = 1.689940 g / cm^3
# Si number density = 16.937955 Si / 1000 Ang^3
#
#
#
# Elastic Constant Matrix: (Units=GPa)
#
#
# Indices 1 2 3 4 5 6 
#
# 1 92.2269 50.2929 64.5023 0.0000 0.0000 0.0000
# 2 50.2929 114.2350 71.4185 0.0000 0.0000 0.0000
# 3 64.5023 71.4185 102.2430 0.0000 0.0000 0.0000
# 4 0.0000 0.0000 0.0000 34.5763 0.0000 0.0000
# 5 0.0000 0.0000 0.0000 0.0000 27.6364 0.0000
# 6 0.0000 0.0000 0.0000 0.0000 0.0000 18.0799
#
#
#
# Elastic Compliance Matrix: (Units=1/GPa)
#
#
# Indices 1 2 3 4 5 6 
#
# 1 0.019566 -0.001592 -0.011232 0.000000 0.000000 0.000000
# 2 -0.001592 0.015670 -0.009941 0.000000 0.000000 0.000000
# 3 -0.011232 -0.009941 0.023810 0.000000 0.000000 0.000000
# 4 0.000000 0.000000 0.000000 0.028922 0.000000 0.000000
# 5 0.000000 0.000000 0.000000 0.000000 0.036184 0.000000
# 6 0.000000 0.000000 0.000000 0.000000 0.000000 0.055310
#
#
# Mechanical properties :
#
#
# Convention : Reuss Voigt Hill
#
# Bulk Modulus (GPa) = 73.98361 75.68136 74.83249
# Shear Modulus (GPa) = 21.78661 24.22459 23.00560
#
# Velocity S-wave (km/s) = 3.59034 3.78590 3.68941
# Velocity P-wave (km/s) = 7.80778 7.99307 7.90097
#
# Compressibility (1/GPa) = 0.01351651
#
# Stress axis : x y z
#
# Youngs Moduli (GPa) = 51.10788 63.81575 41.99830
#
# Poissons Ratio (x) = 0.10162 0.47171
# Poissons Ratio (y) = 0.08138 0.41752
# Poissons Ratio (z) = 0.57402 0.63441
#
# Static dielectric constant tensor:
#      x y z
#    x 3.060400 0.000000 0.000000 
#    y 0.000000 3.152110 0.000000 
#    z 0.000000 0.000000 3.292180 
# 
# 
# High freq. dielectric constant tensor:
#      x y z
#    x 1.643200 0.000000 0.000000 
#    y 0.000000 1.650560 0.000000 
#    z 0.000000 0.000000 1.654060 
# 
# From -- ./inp_files/18273.got.cif
#   From: 2010.03.12/outbox.cif.g09.slc.cpg/sg73_10_cif.got.tgz:18273.got - 2010.04.16 15:25:48.
