data_PCOD8295218
_publ_section_title
;
Structure prediction by ZEFSAII (Michael W. Deem and Ramdas Pophale) SiO2 
 PCOD8295218
Probable space group: I B A M
;
_chemical_formula_sum "Si O2"
_cell_formula_units_Z 64
_cell_length_a 19.799300
_cell_length_b 15.761909
_cell_length_c 9.397090
_cell_angle_alpha 90.000000
_cell_angle_beta 90.000000
_cell_angle_gamma 90.000000
_cell_volume 2932.594652
_symmetry_space_group_name_H-M "I B A M"
_symmetry_group_IT_number 72
_symmetry_cell_setting 'orthorhombic'
loop_
_space_group_symop_operation_xyz
x,y,z
-x,-y,z
x,-y,1/2-z
-x,y,1/2-z
-x,-y,-z
x,y,-z
-x,y,1/2+z
x,-y,1/2+z
1/2+x,1/2+y,1/2+z
1/2-x,1/2-y,1/2+z
1/2+x,1/2-y,-z
1/2-x,1/2+y,-z
1/2-x,1/2-y,1/2-z
1/2+x,1/2+y,1/2-z
1/2-x,1/2+y,z
1/2+x,1/2-y,z
loop_
_atom_site_type_symbol
_atom_site_label
_atom_site_fract_x
_atom_site_fract_y
_atom_site_fract_z
Si Si1 0.840990 0.712749 0.500000
Si Si2 0.789153 0.314080 0.500000
Si Si3 0.086782 0.199622 0.000000
Si Si4 0.909111 0.894380 0.500000
Si Si5 0.698884 0.088677 0.720290
Si Si6 0.500000 0.645757 0.750000
Si Si7 0.187750 0.047865 0.000000
O O1 0.761401 0.735033 0.500000
O O2 0.888284 0.794416 0.500000
O O3 0.851348 0.653386 0.361256
O O4 0.865026 0.280344 0.500000
O O5 0.774578 0.370931 0.364425
O O6 0.043090 0.205640 0.144443
O O7 0.124053 0.109756 0.000000
O O8 0.952718 0.911365 0.355628
O O9 0.843002 0.952628 0.500000
O O10 0.766959 0.063779 0.637646
O O11 0.659183 0.000000 0.750000
#
# Coordination Sequence:
#
# PCOD8295218 Si02
#       7
#     8   8   8   8  16   8   8
#     4  11  22  39  65  92 126 168 215 265 345 381
#     4  12  22  38  69  93 125 170 220 266 338 386
#     4  11  24  43  62  93 126 175 224 276 312 388
#     4  11  24  45  65  94 132 185 219 278 309 387
#     4  11  23  39  57 100 131 165 203 266 335 397
#     4  10  26  43  62  92 129 178 240 258 315 370
#     4  11  26  38  61  88 141 174 216 261 317 375
#
# _framework density 21.823677
#
# number of rings (size 3 to 8) (size 9 to 14) (size 15 to 20)
#    0.000    1.000    2.500    5.250    7.000    3.000 
#    0.000    0.000    0.000    0.000    0.000   61.250 
#    0.000    0.000    0.000    0.000    0.000    0.000 
#
# Total GULP energy -396754.409578 kJ/mol
# GULP energy per Si atom -12398.575299 kJ/mol
# Density = 2.177401 g / cm^3
# Si number density = 21.823677 Si / 1000 Ang^3
#
#
#
# Elastic Constant Matrix: (Units=GPa)
#
#
# Indices 1 2 3 4 5 6 
#
# 1 67.5651 18.3635 32.6250 0.0000 0.0000 0.0000
# 2 18.3635 128.7273 44.9541 0.0000 0.0000 0.0000
# 3 32.6250 44.9541 181.1327 0.0000 0.0000 0.0000
# 4 0.0000 0.0000 0.0000 36.7492 0.0000 0.0000
# 5 0.0000 0.0000 0.0000 0.0000 31.7009 0.0000
# 6 0.0000 0.0000 0.0000 0.0000 0.0000 29.7164
#
#
#
# Elastic Compliance Matrix: (Units=1/GPa)
#
#
# Indices 1 2 3 4 5 6 
#
# 1 0.016449 -0.001436 -0.002606 0.000000 0.000000 0.000000
# 2 -0.001436 0.008631 -0.001883 0.000000 0.000000 0.000000
# 3 -0.002606 -0.001883 0.006458 0.000000 0.000000 0.000000
# 4 0.000000 0.000000 0.000000 0.027211 0.000000 0.000000
# 5 0.000000 0.000000 0.000000 0.000000 0.031545 0.000000
# 6 0.000000 0.000000 0.000000 0.000000 0.000000 0.033651
#
#
# Mechanical properties :
#
#
# Convention : Reuss Voigt Hill
#
# Bulk Modulus (GPa) = 50.79769 63.25671 57.02720
# Shear Modulus (GPa) = 35.12222 38.39879 36.76051
#
# Velocity S-wave (km/s) = 4.01604 4.19919 4.10864
# Velocity P-wave (km/s) = 6.69565 7.24977 6.97821
#
# Compressibility (1/GPa) = 0.01968593
#
# Stress axis : x y z
#
# Youngs Moduli (GPa) = 60.79234 115.86181 154.85461
#
# Poissons Ratio (x) = 0.16643 0.40360
# Poissons Ratio (y) = 0.08732 0.29164
# Poissons Ratio (z) = 0.15844 0.21821
#
# Static dielectric constant tensor:
#      x y z
#    x 3.661070 0.000000 0.000000 
#    y 0.000000 4.009540 0.000000 
#    z 0.000000 0.000000 4.282930 
# 
# 
# High freq. dielectric constant tensor:
#      x y z
#    x 1.822670 0.000000 0.000000 
#    y 0.000000 1.857510 0.000000 
#    z 0.000000 0.000000 1.885900 
# 
# From -- ./inp_files/4379.got.cif
#   From: 2010.03.12/outbox.cif.g09.slc.cpg/sg72_3_cif.got.tgz:4379.got - 2010.04.16 14:54:00.
