data_PCOD8295380
_publ_section_title
;
Structure prediction by ZEFSAII (Michael W. Deem and Ramdas Pophale) SiO2 
 PCOD8295380
Probable space group: I B A M
;
_chemical_formula_sum "Si O2"
_cell_formula_units_Z 100
_cell_length_a 13.326273
_cell_length_b 23.814342
_cell_length_c 14.795238
_cell_angle_alpha 90.000000
_cell_angle_beta 90.000000
_cell_angle_gamma 90.000000
_cell_volume 4695.363806
_symmetry_space_group_name_H-M "I B A M"
_symmetry_group_IT_number 72
_symmetry_cell_setting 'orthorhombic'
loop_
_space_group_symop_operation_xyz
x,y,z
-x,-y,z
x,-y,1/2-z
-x,y,1/2-z
-x,-y,-z
x,y,-z
-x,y,1/2+z
x,-y,1/2+z
1/2+x,1/2+y,1/2+z
1/2-x,1/2-y,1/2+z
1/2+x,1/2-y,-z
1/2-x,1/2+y,-z
1/2-x,1/2-y,1/2-z
1/2+x,1/2+y,1/2-z
1/2-x,1/2+y,z
1/2+x,1/2-y,z
loop_
_atom_site_type_symbol
_atom_site_label
_atom_site_fract_x
_atom_site_fract_y
_atom_site_fract_z
Si Si1 0.145818 0.781735 0.259525
Si Si2 0.986885 0.372524 0.645741
Si Si3 0.164003 0.088054 0.772566
Si Si4 0.510831 0.246817 0.398368
Si Si5 0.338939 0.050202 0.101099
Si Si6 0.000000 0.000000 0.250000
Si Si7 0.786222 0.573974 0.101947
O O1 0.250000 0.750000 0.250000
O O2 0.139411 0.847007 0.287015
O O3 0.095017 0.777493 0.161062
O O4 0.092913 0.751108 0.343296
O O5 0.032331 0.319583 0.591894
O O6 0.049066 0.427256 0.616891
O O7 0.000000 0.358864 0.750000
O O8 0.869347 0.378926 0.622543
O O9 0.262725 0.078325 0.830321
O O10 0.189778 0.078295 0.666912
O O11 0.074538 0.044256 0.802584
O O12 0.506530 0.272879 0.500000
O O13 0.343416 0.984223 0.118758
O O14 0.301855 0.063582 0.000000
O O15 0.745369 0.580029 0.000000
#
# Coordination Sequence:
#
# PCOD8295380 Si02
#       7
#    16  16  16  16  16   4  16
#     4  11  24  43  68  98 128 172 219 275 332 393
#     4  12  21  37  68  98 135 171 197 249 325 402
#     4  12  24  44  66  90 129 170 226 277 323 378
#     4  11  24  44  64  96 132 166 216 266 328 391
#     4  11  23  40  63  99 134 165 208 254 319 395
#     4  12  24  44  66  90 120 186 224 270 334 350
#     4  11  23  40  63  99 134 165 208 254 319 395
#
# _framework density 21.297605000000001
#
# number of rings (size 3 to 8) (size 9 to 14) (size 15 to 20)
#    0.000    0.640    4.800    4.800    0.000    3.840 
#    0.000    1.600    0.000    0.000    0.000    0.000 
#    0.000    0.000    0.000    0.000    0.000    0.000 
#
# Total GULP energy -619793.128191 kJ/mol
# GULP energy per Si atom -12395.862564 kJ/mol
# Density = 2.124913 g / cm^3
# Si number density = 21.297605 Si / 1000 Ang^3
#
#
#
# Elastic Constant Matrix: (Units=GPa)
#
#
# Indices 1 2 3 4 5 6 
#
# 1 92.6955 16.8137 24.7126 0.0000 0.0000 0.0000
# 2 16.8137 100.5281 11.1752 0.0003 -0.0001 0.0000
# 3 24.7126 11.1752 137.4274 0.0001 0.0000 0.0001
# 4 0.0000 0.0003 0.0001 17.3852 0.0000 0.0000
# 5 0.0000 -0.0001 0.0000 0.0000 8.2129 0.0000
# 6 0.0000 0.0000 0.0001 0.0000 0.0000 28.4210
#
#
#
# Elastic Compliance Matrix: (Units=1/GPa)
#
#
# Indices 1 2 3 4 5 6 
#
# 1 0.011621 -0.001727 -0.001949 0.000000 0.000000 0.000000
# 2 -0.001727 0.010295 -0.000527 0.000000 0.000000 0.000000
# 3 -0.001949 -0.000527 0.007670 0.000000 0.000000 0.000000
# 4 0.000000 0.000000 0.000000 0.057520 0.000000 0.000000
# 5 0.000000 0.000000 0.000000 0.000000 0.121760 0.000000
# 6 0.000000 0.000000 0.000000 0.000000 0.000000 0.035185
#
#
# Mechanical properties :
#
#
# Convention : Reuss Voigt Hill
#
# Bulk Modulus (GPa) = 47.21429 48.45045 47.83237
# Shear Modulus (GPa) = 19.26661 29.33380 24.30020
#
# Velocity S-wave (km/s) = 3.01098 3.71526 3.38151
# Velocity P-wave (km/s) = 5.85704 6.41895 6.14442
#
# Compressibility (1/GPa) = 0.02118003
#
# Stress axis : x y z
#
# Youngs Moduli (GPa) = 86.05167 97.13600 130.37958
#
# Poissons Ratio (x) = 0.16775 0.25415
# Poissons Ratio (y) = 0.14861 0.06866
# Poissons Ratio (z) = 0.16774 0.05115
#
# Static dielectric constant tensor:
#      x y z
#    x 3.794810 0.000000 0.000000 
#    y 0.000000 4.125160 0.000000 
#    z 0.000000 0.000000 3.944730 
# 
# 
# High freq. dielectric constant tensor:
#      x y z
#    x 1.825730 0.000000 0.000000 
#    y 0.000000 1.849540 0.000000 
#    z 0.000000 0.000000 1.832500 
# 
# From -- ./inp_files/22046.got.cif
#   From: 2010.03.12/outbox.cif.g09.slc.cpg/sg72_12_cif.got.tgz:22046.got - 2010.04.16 14:54:00.
