data_PCOD8295946
_publ_section_title
;
Structure prediction by ZEFSAII (Michael W. Deem and Ramdas Pophale) SiO2 
 PCOD8295946
Probable space group: I B C A 
;
_chemical_formula_sum "Si O2"
_cell_formula_units_Z 88
_cell_length_a 20.368517
_cell_length_b 22.795795
_cell_length_c 9.473261
_cell_angle_alpha 90.000000
_cell_angle_beta 90.000000
_cell_angle_gamma 90.000000
_cell_volume 4398.591751
_symmetry_space_group_name_H-M "I B C A "
_symmetry_group_IT_number 73
_symmetry_cell_setting 'orthorhombic'
loop_
_space_group_symop_operation_xyz
x,y,z
-x,1/2-y,z
x,-y,1/2-z
1/2-x,y,-z
-x,-y,-z
x,1/2+y,-z
-x,y,1/2+z
1/2+x,-y,z
1/2+x,1/2+y,1/2+z
1/2-x,-y,1/2+z
1/2+x,1/2-y,-z
-x,1/2+y,1/2-z
1/2-x,1/2-y,1/2-z
1/2+x,y,1/2-z
1/2-x,1/2+y,z
x,1/2-y,1/2+z
loop_
_atom_site_type_symbol
_atom_site_label
_atom_site_fract_x
_atom_site_fract_y
_atom_site_fract_z
Si Si1 0.922974 0.388241 0.023343
Si Si2 0.861579 0.992883 0.590265
Si Si3 0.046897 0.893409 0.161276
Si Si4 0.250000 0.584084 0.500000
Si Si5 0.682701 0.792392 0.054429
Si Si6 0.827257 0.819046 0.630778
O O1 0.876983 0.445683 0.014642
O O2 0.961473 0.390180 0.170720
O O3 0.877869 0.331419 0.004320
O O4 0.975142 0.382403 0.899222
O O5 0.929170 0.957137 0.609353
O O6 0.812490 0.959102 0.482072
O O7 0.830746 0.000000 0.750000
O O8 0.099874 0.845160 0.114260
O O9 0.227556 0.628493 0.625767
O O10 0.683003 0.785767 0.222808
O O11 0.750000 0.822211 0.000000
O O12 0.679308 0.726450 0.996258
#
# Coordination Sequence:
#
# PCOD8295946 Si02
#       6
#    16  16  16   8  16  16
#     4  10  21  38  61  89 119 155 195 247 290 356
#     4   9  19  38  59  82 121 156 194 248 297 350
#     4   9  20  39  60  84 118 156 199 239 298 345
#     4  10  20  38  60  84 120 158 194 244 306 350
#     4  11  23  39  62  88 123 155 200 249 297 356
#     4  10  22  40  61  86 121 161 194 250 296 352
#
# _framework density 20.006402000000001
#
# number of rings (size 3 to 8) (size 9 to 14) (size 15 to 20)
#    0.000    2.182    0.909    2.182    1.273    2.182 
#    3.273    3.636    0.000    0.000    0.000    0.000 
#    0.000    0.000    0.000    0.000    0.000    0.000 
#
# Total GULP energy -545287.927939 kJ/mol
# GULP energy per Si atom -12392.907453 kJ/mol
# Density = 1.996087 g / cm^3
# Si number density = 20.006402 Si / 1000 Ang^3
#
#
#
# Elastic Constant Matrix: (Units=GPa)
#
#
# Indices 1 2 3 4 5 6 
#
# 1 98.3305 54.4198 46.6924 0.0000 0.0000 0.0000
# 2 54.4198 109.2008 51.2161 0.0000 0.0000 0.0000
# 3 46.6924 51.2161 76.9872 0.0000 0.0000 0.0000
# 4 0.0000 0.0000 0.0000 23.3926 0.0000 0.0000
# 5 0.0000 0.0000 0.0000 0.0000 33.9688 0.0000
# 6 0.0000 0.0000 0.0000 0.0000 0.0000 23.7838
#
#
#
# Elastic Compliance Matrix: (Units=1/GPa)
#
#
# Indices 1 2 3 4 5 6 
#
# 1 0.015936 -0.004955 -0.006369 0.000000 0.000000 0.000000
# 2 -0.004955 0.014851 -0.006875 0.000000 0.000000 0.000000
# 3 -0.006369 -0.006875 0.021425 0.000000 0.000000 0.000000
# 4 0.000000 0.000000 0.000000 0.042749 0.000000 0.000000
# 5 0.000000 0.000000 0.000000 0.000000 0.029439 0.000000
# 6 0.000000 0.000000 0.000000 0.000000 0.000000 0.042045
#
#
# Mechanical properties :
#
#
# Convention : Reuss Voigt Hill
#
# Bulk Modulus (GPa) = 63.22846 65.46390 64.34618
# Shear Modulus (GPa) = 24.02529 25.04172 24.53351
#
# Velocity S-wave (km/s) = 3.46913 3.54175 3.50563
# Velocity P-wave (km/s) = 6.90791 7.03689 6.97270
#
# Compressibility (1/GPa) = 0.01581566
#
# Stress axis : x y z
#
# Youngs Moduli (GPa) = 62.75001 67.33652 46.67349
#
# Poissons Ratio (x) = 0.33362 0.29727
# Poissons Ratio (y) = 0.31090 0.32086
# Poissons Ratio (z) = 0.39967 0.46291
#
# Static dielectric constant tensor:
#      x y z
#    x 3.584470 0.000000 0.000000 
#    y 0.000000 3.733850 0.000000 
#    z 0.000000 0.000000 3.457310 
# 
# 
# High freq. dielectric constant tensor:
#      x y z
#    x 1.776930 0.000000 0.000000 
#    y 0.000000 1.794170 0.000000 
#    z 0.000000 0.000000 1.760410 
# 
# From -- ./inp_files/6287.got.cif
#   From: 2010.03.12/outbox.cif.g09.slc.cpg/sg73_4_cif.got.tgz:6287.got - 2010.04.16 15:25:48.
