data_PCOD8295203
_publ_section_title
;
Structure prediction by ZEFSAII (Michael W. Deem and Ramdas Pophale) SiO2 
 PCOD8295203
Probable space group: I B A M
;
_chemical_formula_sum "Si O2"
_cell_formula_units_Z 64
_cell_length_a 18.715598
_cell_length_b 9.102774
_cell_length_c 16.020202
_cell_angle_alpha 90.000000
_cell_angle_beta 90.000000
_cell_angle_gamma 90.000000
_cell_volume 2729.263433
_symmetry_space_group_name_H-M "I B A M"
_symmetry_group_IT_number 72
_symmetry_cell_setting 'orthorhombic'
loop_
_space_group_symop_operation_xyz
x,y,z
-x,-y,z
x,-y,1/2-z
-x,y,1/2-z
-x,-y,-z
x,y,-z
-x,y,1/2+z
x,-y,1/2+z
1/2+x,1/2+y,1/2+z
1/2-x,1/2-y,1/2+z
1/2+x,1/2-y,-z
1/2-x,1/2+y,-z
1/2-x,1/2-y,1/2-z
1/2+x,1/2+y,1/2-z
1/2-x,1/2+y,z
1/2+x,1/2-y,z
loop_
_atom_site_type_symbol
_atom_site_label
_atom_site_fract_x
_atom_site_fract_y
_atom_site_fract_z
Si Si1 0.903213 0.140988 0.195820
Si Si2 0.510819 0.166151 0.905509
Si Si3 0.721212 0.489844 0.403789
Si Si4 0.836001 0.713675 0.152517
O O1 0.972007 0.221021 0.156968
O O2 0.852366 0.089454 0.121250
O O3 0.858904 0.254969 0.252522
O O4 0.928044 0.000000 0.250000
O O5 0.594398 0.201580 0.905311
O O6 0.500000 0.000000 0.873354
O O7 0.481641 0.184464 0.000000
O O8 0.736750 0.458989 0.500000
O O9 0.789049 0.433954 0.350268
O O10 0.715269 0.661556 0.385118
#
# Coordination Sequence:
#
# PCOD8295203 Si02
#       4
#    16  16  16  16
#     4  10  24  45  69 100 138 183 233 290 353 416
#     4  11  25  46  73 105 140 183 237 293 354 420
#     4  11  23  42  68  99 139 184 234 285 344 417
#     4  11  25  44  68 101 140 181 231 283 350 420
#
# _framework density 23.449552000000001
#
# number of rings (size 3 to 8) (size 9 to 14) (size 15 to 20)
#    0.000    1.250    0.000    4.500    3.500    9.000 
#    0.000    6.250    0.000    0.000    0.000    0.000 
#    0.000    0.000    0.000    0.000    0.000    0.000 
#
# Total GULP energy -397008.345399 kJ/mol
# GULP energy per Si atom -12406.510794 kJ/mol
# Density = 2.339618 g / cm^3
# Si number density = 23.449552 Si / 1000 Ang^3
#
#
#
# Elastic Constant Matrix: (Units=GPa)
#
#
# Indices 1 2 3 4 5 6 
#
# 1 130.1340 72.9355 32.4102 0.0000 0.0000 0.0000
# 2 72.9355 118.4473 59.6271 0.0000 0.0000 0.0000
# 3 32.4102 59.6271 91.2561 0.0000 0.0000 0.0000
# 4 0.0000 0.0000 0.0000 29.3509 0.0000 0.0000
# 5 0.0000 0.0000 0.0000 0.0000 26.9775 0.0000
# 6 0.0000 0.0000 0.0000 0.0000 0.0000 46.2122
#
#
#
# Elastic Compliance Matrix: (Units=1/GPa)
#
#
# Indices 1 2 3 4 5 6 
#
# 1 0.011776 -0.007668 0.000828 0.000000 0.000000 0.000000
# 2 -0.007668 0.017574 -0.008759 0.000000 0.000000 0.000000
# 3 0.000828 -0.008759 0.016388 0.000000 0.000000 0.000000
# 4 0.000000 0.000000 0.000000 0.034071 0.000000 0.000000
# 5 0.000000 0.000000 0.000000 0.000000 0.037068 0.000000
# 6 0.000000 0.000000 0.000000 0.000000 0.000000 0.021639
#
#
# Mechanical properties :
#
#
# Convention : Reuss Voigt Hill
#
# Bulk Modulus (GPa) = 68.78354 74.42033 71.60193
# Shear Modulus (GPa) = 28.64351 32.16575 30.40463
#
# Velocity S-wave (km/s) = 3.49878 3.70767 3.60474
# Velocity P-wave (km/s) = 6.76152 7.08056 6.92288
#
# Compressibility (1/GPa) = 0.01453836
#
# Stress axis : x y z
#
# Youngs Moduli (GPa) = 84.92030 56.90310 61.02191
#
# Poissons Ratio (x) = 0.43633 -0.05053
# Poissons Ratio (y) = 0.65116 0.53452
# Poissons Ratio (z) = -0.07031 0.49844
#
# Static dielectric constant tensor:
#      x y z
#    x 4.105680 0.000000 0.000000 
#    y 0.000000 4.317050 0.000000 
#    z 0.000000 0.000000 4.095130 
# 
# 
# High freq. dielectric constant tensor:
#      x y z
#    x 1.933780 0.000000 0.000000 
#    y 0.000000 1.933200 0.000000 
#    z 0.000000 0.000000 1.930890 
# 
# From -- ./inp_files/32212.got.cif
#   From: 2010.03.12/outbox.cif.g09.slc.cpg/sg72_17_cif.got.tgz:32212.got - 2010.04.16 14:54:00.
