data_PCOD8295766
_publ_section_title
;
Structure prediction by ZEFSAII (Michael W. Deem and Ramdas Pophale) SiO2 
 PCOD8295766
Probable space group: I B C A 
;
_chemical_formula_sum "Si O2"
_cell_formula_units_Z 112
_cell_length_a 15.889116
_cell_length_b 24.826522
_cell_length_c 14.069911
_cell_angle_alpha 90.000000
_cell_angle_beta 90.000000
_cell_angle_gamma 90.000000
_cell_volume 5550.178727
_symmetry_space_group_name_H-M "I B C A "
_symmetry_group_IT_number 73
_symmetry_cell_setting 'orthorhombic'
loop_
_space_group_symop_operation_xyz
x,y,z
-x,1/2-y,z
x,-y,1/2-z
1/2-x,y,-z
-x,-y,-z
x,1/2+y,-z
-x,y,1/2+z
1/2+x,-y,z
1/2+x,1/2+y,1/2+z
1/2-x,-y,1/2+z
1/2+x,1/2-y,-z
-x,1/2+y,1/2-z
1/2-x,1/2-y,1/2-z
1/2+x,y,1/2-z
1/2-x,1/2+y,z
x,1/2-y,1/2+z
loop_
_atom_site_type_symbol
_atom_site_label
_atom_site_fract_x
_atom_site_fract_y
_atom_site_fract_z
Si Si1 0.831318 0.499480 0.438008
Si Si2 0.903828 0.117534 0.932190
Si Si3 0.719385 0.151578 0.219128
Si Si4 0.328909 0.683391 0.068584
Si Si5 0.170246 0.197461 0.567210
Si Si6 0.214354 0.449995 0.299507
Si Si7 0.910174 0.410498 0.958089
O O1 0.750000 0.511445 0.500000
O O2 0.851538 0.437030 0.441601
O O3 0.802123 0.523899 0.337588
O O4 0.909356 0.534535 0.479849
O O5 0.866086 0.151973 0.844179
O O6 0.999771 0.101357 0.911394
O O7 0.896588 0.152884 0.029511
O O8 0.698831 0.171659 0.324147
O O9 0.794579 0.187219 0.173637
O O10 0.756363 0.091321 0.219143
O O11 0.370884 0.742924 0.064727
O O12 0.250000 0.682960 0.000000
O O13 0.392201 0.638805 0.029545
O O14 0.250000 0.191960 0.500000
O O15 0.163497 0.500000 0.250000
O O16 0.157551 0.416825 0.373868
#
# Coordination Sequence:
#
# PCOD8295766 Si02
#       7
#    16  16  16  16  16  16  16
#     4  10  19  37  62  84 115 165 206 246 308 380
#     4  11  23  40  58  93 132 163 202 267 328 381
#     4  11  20  40  64  93 121 164 221 259 309 378
#     4  11  20  41  66  90 121 162 221 262 312 380
#     4   9  22  38  66  90 118 167 210 265 310 374
#     4  11  21  38  63  90 122 166 209 260 307 379
#     4  11  23  39  60  89 130 165 202 263 329 376
#
# _framework density 20.179528999999999
#
# number of rings (size 3 to 8) (size 9 to 14) (size 15 to 20)
#    0.000    1.429    4.286    2.571    2.000    0.571 
#    5.143    0.000    0.000    0.000    0.000    0.000 
#    0.000    0.000    0.000    0.000    0.000    0.000 
#
# Total GULP energy -693993.721533 kJ/mol
# GULP energy per Si atom -12392.745027 kJ/mol
# Density = 2.013360 g / cm^3
# Si number density = 20.179529 Si / 1000 Ang^3
#
#
#
# Elastic Constant Matrix: (Units=GPa)
#
#
# Indices 1 2 3 4 5 6 
#
# 1 69.1423 29.2946 33.3067 0.0000 0.0000 0.0000
# 2 29.2946 128.8958 36.8732 0.0000 0.0000 0.0000
# 3 33.3067 36.8732 109.3891 0.0002 0.0000 0.0000
# 4 0.0000 0.0000 0.0002 26.4699 0.0000 0.0000
# 5 0.0000 0.0000 0.0000 0.0000 17.1480 0.0000
# 6 0.0000 0.0000 0.0000 0.0000 0.0000 9.9753
#
#
#
# Elastic Compliance Matrix: (Units=1/GPa)
#
#
# Indices 1 2 3 4 5 6 
#
# 1 0.017794 -0.002760 -0.004487 0.000000 0.000000 0.000000
# 2 -0.002760 0.009014 -0.002198 0.000000 0.000000 0.000000
# 3 -0.004487 -0.002198 0.011249 0.000000 0.000000 0.000000
# 4 0.000000 0.000000 0.000000 0.037779 0.000000 0.000000
# 5 0.000000 0.000000 0.000000 0.000000 0.058316 0.000000
# 6 0.000000 0.000000 0.000000 0.000000 0.000000 0.100247
#
#
# Mechanical properties :
#
#
# Convention : Reuss Voigt Hill
#
# Bulk Modulus (GPa) = 52.17699 56.26400 54.22050
# Shear Modulus (GPa) = 19.25447 24.58216 21.91831
#
# Velocity S-wave (km/s) = 3.09230 3.49402 3.29928
# Velocity P-wave (km/s) = 6.21790 6.64980 6.43747
#
# Compressibility (1/GPa) = 0.01916554
#
# Stress axis : x y z
#
# Youngs Moduli (GPa) = 56.19836 110.93377 88.89709
#
# Poissons Ratio (x) = 0.30622 0.39892
# Poissons Ratio (y) = 0.15513 0.19541
# Poissons Ratio (z) = 0.25219 0.24385
#
# Static dielectric constant tensor:
#      x y z
#    x 3.359820 0.000000 0.000000 
#    y 0.000000 4.078120 0.000000 
#    z 0.000000 0.000000 3.829650 
# 
# 
# High freq. dielectric constant tensor:
#      x y z
#    x 1.744890 0.000000 0.000000 
#    y 0.000000 1.808700 0.000000 
#    z 0.000000 0.000000 1.792080 
# 
# From -- ./inp_files/17397.got.cif
#   From: 2010.03.12/outbox.cif.g09.slc.cpg/sg73_9_cif.got.tgz:17397.got - 2010.04.16 15:25:48.
