data_PCOD8295296
_publ_section_title
;
Structure prediction by ZEFSAII (Michael W. Deem and Ramdas Pophale) SiO2 
 PCOD8295296
Probable space group: I B A M
;
_chemical_formula_sum "Si O2"
_cell_formula_units_Z 112
_cell_length_a 10.472319
_cell_length_b 31.380815
_cell_length_c 15.533059
_cell_angle_alpha 90.000000
_cell_angle_beta 90.000000
_cell_angle_gamma 90.000000
_cell_volume 5104.627706
_symmetry_space_group_name_H-M "I B A M"
_symmetry_group_IT_number 72
_symmetry_cell_setting 'orthorhombic'
loop_
_space_group_symop_operation_xyz
x,y,z
-x,-y,z
x,-y,1/2-z
-x,y,1/2-z
-x,-y,-z
x,y,-z
-x,y,1/2+z
x,-y,1/2+z
1/2+x,1/2+y,1/2+z
1/2-x,1/2-y,1/2+z
1/2+x,1/2-y,-z
1/2-x,1/2+y,-z
1/2-x,1/2-y,1/2-z
1/2+x,1/2+y,1/2-z
1/2-x,1/2+y,z
1/2+x,1/2-y,z
loop_
_atom_site_type_symbol
_atom_site_label
_atom_site_fract_x
_atom_site_fract_y
_atom_site_fract_z
Si Si1 0.256812 0.913445 0.404099
Si Si2 0.352910 0.501621 0.351864
Si Si3 0.859030 0.635815 0.260762
Si Si4 0.218701 0.723347 0.168299
Si Si5 0.009893 0.133115 0.847940
Si Si6 0.987171 0.774194 0.097832
Si Si7 0.735335 0.407724 0.403961
O O1 0.312533 0.906048 0.500000
O O2 0.361821 0.902543 0.331028
O O3 0.143646 0.879935 0.388467
O O4 0.215319 0.961814 0.395073
O O5 0.500000 0.500000 0.382588
O O6 0.345214 0.500000 0.250000
O O7 0.273372 0.542271 0.383626
O O8 0.775459 0.674141 0.301114
O O9 0.810443 0.618957 0.168643
O O10 0.000000 0.653903 0.250000
O O11 0.250000 0.750000 0.250000
O O12 0.334822 0.735092 0.103272
O O13 0.078899 0.735932 0.131095
O O14 0.983715 0.183520 0.847660
O O15 0.000000 0.115769 0.750000
O O16 0.907572 0.109599 0.906619
O O17 0.023590 0.782797 0.000000
O O18 0.795715 0.401308 0.500000
#
# Coordination Sequence:
#
# PCOD8295296 Si02
#       7
#    16  16  16  16  16  16  16
#     4  12  24  41  68 102 139 182 231 283 353 428
#     4  11  21  38  66 105 145 179 223 287 363 433
#     4  12  27  48  70  94 136 191 244 289 349 423
#     4  12  25  46  71  98 138 185 230 293 364 426
#     4  12  21  40  66 100 140 182 221 281 359 430
#     4  12  25  42  68 104 138 179 237 296 355 429
#     4  12  24  41  68 104 141 178 232 298 355 419
#
# _framework density 21.940874999999998
#
# number of rings (size 3 to 8) (size 9 to 14) (size 15 to 20)
#    0.000    0.143    5.714    5.143    0.000    1.714 
#    0.000    5.000    0.000    1.714    0.000    0.000 
#    0.000    0.000    0.000    0.000    0.000    0.000 
#
# Total GULP energy -694290.640681 kJ/mol
# GULP energy per Si atom -12398.047155 kJ/mol
# Density = 2.189094 g / cm^3
# Si number density = 21.940875 Si / 1000 Ang^3
#
#
#
# Elastic Constant Matrix: (Units=GPa)
#
#
# Indices 1 2 3 4 5 6 
#
# 1 89.4842 29.9396 33.8218 -0.0001 -0.0001 0.0000
# 2 29.9396 123.1262 33.2703 -0.0001 0.0000 0.0001
# 3 33.8218 33.2703 150.9573 -0.0012 -0.0001 0.0001
# 4 -0.0001 -0.0001 -0.0012 22.6143 0.0001 0.0002
# 5 -0.0001 0.0000 -0.0001 0.0001 20.9960 0.0000
# 6 0.0000 0.0001 0.0001 0.0002 0.0000 26.8776
#
#
#
# Elastic Compliance Matrix: (Units=1/GPa)
#
#
# Indices 1 2 3 4 5 6 
#
# 1 0.012897 -0.002504 -0.002338 0.000000 0.000000 0.000000
# 2 -0.002504 0.009122 -0.001449 0.000000 0.000000 0.000000
# 3 -0.002338 -0.001449 0.007468 0.000000 0.000000 0.000000
# 4 0.000000 0.000000 0.000000 0.044220 0.000000 0.000000
# 5 0.000000 0.000000 0.000000 0.000000 0.047628 0.000000
# 6 0.000000 0.000000 0.000000 0.000000 0.000000 0.037206
#
#
# Mechanical properties :
#
#
# Convention : Reuss Voigt Hill
#
# Bulk Modulus (GPa) = 59.15789 61.95901 60.55845
# Shear Modulus (GPa) = 28.28739 31.86666 30.07703
#
# Velocity S-wave (km/s) = 3.59452 3.81516 3.70648
# Velocity P-wave (km/s) = 6.65194 6.90707 6.78071
#
# Compressibility (1/GPa) = 0.01690392
#
# Stress axis : x y z
#
# Youngs Moduli (GPa) = 77.54015 109.62073 133.91268
#
# Poissons Ratio (x) = 0.27453 0.31302
# Poissons Ratio (y) = 0.19419 0.19410
# Poissons Ratio (z) = 0.18125 0.15889
#
# Static dielectric constant tensor:
#      x y z
#    x 0.937760 -0.000040 -0.000010 
#    y -0.000040 4.369300 0.000000 
#    z -0.000010 0.000000 4.315460 
# 
# 
# High freq. dielectric constant tensor:
#      x y z
#    x 1.840880 0.000000 0.000000 
#    y 0.000000 1.870260 0.000000 
#    z 0.000000 0.000000 1.876280 
# 
# From -- ./inp_files/20691.got.cif
#   From: 2010.03.12/outbox.cif.g09.slc.cpg/sg72_11_cif.got.tgz:20691.got - 2010.04.16 14:54:00.
