data_PCOD8295079
_publ_section_title
;
Structure prediction by ZEFSAII (Michael W. Deem and Ramdas Pophale) SiO2 
 PCOD8295079
Probable space group: I B A M
;
_chemical_formula_sum "Si O2"
_cell_formula_units_Z 64
_cell_length_a 10.251352
_cell_length_b 13.650815
_cell_length_c 22.464645
_cell_angle_alpha 90.000000
_cell_angle_beta 90.000000
_cell_angle_gamma 90.000000
_cell_volume 3143.686913
_symmetry_space_group_name_H-M "I B A M"
_symmetry_group_IT_number 72
_symmetry_cell_setting 'orthorhombic'
loop_
_space_group_symop_operation_xyz
x,y,z
-x,-y,z
x,-y,1/2-z
-x,y,1/2-z
-x,-y,-z
x,y,-z
-x,y,1/2+z
x,-y,1/2+z
1/2+x,1/2+y,1/2+z
1/2-x,1/2-y,1/2+z
1/2+x,1/2-y,-z
1/2-x,1/2+y,-z
1/2-x,1/2-y,1/2-z
1/2+x,1/2+y,1/2-z
1/2-x,1/2+y,z
1/2+x,1/2-y,z
loop_
_atom_site_type_symbol
_atom_site_label
_atom_site_fract_x
_atom_site_fract_y
_atom_site_fract_z
Si Si1 0.810569 0.000000 0.750000
Si Si2 0.000000 0.829775 0.750000
Si Si3 0.143864 0.484113 0.860029
Si Si4 0.812587 0.665267 0.430608
Si Si5 0.423194 0.230583 0.371057
O O1 0.730543 0.970516 0.807871
O O2 0.887306 0.096514 0.771321
O O3 0.951110 0.761010 0.803203
O O4 0.169893 0.548863 0.919075
O O5 0.160901 0.369642 0.873710
O O6 0.000000 0.500000 0.835551
O O7 0.809209 0.687023 0.500000
O O8 0.672365 0.693108 0.403004
O O9 0.936622 0.723325 0.403437
#
# Coordination Sequence:
#
# PCOD8295079 Si02
#       5
#     8   8  16  16  16
#     4  11  21  40  60  94 135 165 208 264 330 385
#     4  11  24  38  67  94 138 164 211 268 329 392
#     4  10  23  38  63  94 128 167 216 268 322 376
#     4  11  24  44  66  94 132 175 221 267 319 385
#     4  11  24  42  66  98 129 175 217 268 327 382
#
# _framework density 20.358260999999999
#
# number of rings (size 3 to 8) (size 9 to 14) (size 15 to 20)
#    0.000    1.250    2.500    2.625    7.000    7.500 
#    0.000    0.000    0.000    4.500    0.000    0.000 
#    0.000    0.000    0.000    0.000    0.000    0.000 
#
# Total GULP energy -396694.855019 kJ/mol
# GULP energy per Si atom -12396.714219 kJ/mol
# Density = 2.031192 g / cm^3
# Si number density = 20.358261 Si / 1000 Ang^3
#
#
#
# Elastic Constant Matrix: (Units=GPa)
#
#
# Indices 1 2 3 4 5 6 
#
# 1 100.6370 38.1707 56.4437 0.0000 0.0000 0.0000
# 2 38.1707 116.3960 40.4707 0.0000 0.0000 0.0000
# 3 56.4437 40.4707 137.2591 0.0000 0.0000 0.0000
# 4 0.0000 0.0000 0.0000 25.6084 0.0000 0.0000
# 5 0.0000 0.0000 0.0000 0.0000 21.5572 0.0000
# 6 0.0000 0.0000 0.0000 0.0000 0.0000 17.1443
#
#
#
# Elastic Compliance Matrix: (Units=1/GPa)
#
#
# Indices 1 2 3 4 5 6 
#
# 1 0.013701 -0.002823 -0.004801 0.000000 0.000000 0.000000
# 2 -0.002823 0.010155 -0.001833 0.000000 0.000000 0.000000
# 3 -0.004801 -0.001833 0.009800 0.000000 0.000000 0.000000
# 4 0.000000 0.000000 0.000000 0.039050 0.000000 0.000000
# 5 0.000000 0.000000 0.000000 0.000000 0.046388 0.000000
# 6 0.000000 0.000000 0.000000 0.000000 0.000000 0.058328
#
#
# Mechanical properties :
#
#
# Convention : Reuss Voigt Hill
#
# Bulk Modulus (GPa) = 67.84389 69.38470 68.61429
# Shear Modulus (GPa) = 24.84457 27.47577 26.16017
#
# Velocity S-wave (km/s) = 3.49717 3.67769 3.58857
# Velocity P-wave (km/s) = 7.05012 7.22425 7.13772
#
# Compressibility (1/GPa) = 0.01473972
#
# Stress axis : x y z
#
# Youngs Moduli (GPa) = 72.98956 98.47727 102.03659
#
# Poissons Ratio (x) = 0.27805 0.48992
# Poissons Ratio (y) = 0.20609 0.18703
# Poissons Ratio (z) = 0.35046 0.18051
#
# Static dielectric constant tensor:
#      x y z
#    x 3.885090 0.000000 0.000000 
#    y 0.000000 3.921480 0.000000 
#    z 0.000000 0.000000 3.433850 
# 
# 
# High freq. dielectric constant tensor:
#      x y z
#    x 1.810020 0.000000 0.000000 
#    y 0.000000 1.802370 0.000000 
#    z 0.000000 0.000000 1.784480 
# 
# From -- ./inp_files/41973.got.cif
#   From: 2010.03.12/outbox.cif.g09.slc.cpg/sg72_21_cif.got.tgz:41973.got - 2010.04.16 14:54:00.
