data_PCOD8295863
_publ_section_title
;
Structure prediction by ZEFSAII (Michael W. Deem and Ramdas Pophale) SiO2 
 PCOD8295863
Probable space group: I B C A 
;
_chemical_formula_sum "Si O2"
_cell_formula_units_Z 96
_cell_length_a 22.329877
_cell_length_b 22.729740
_cell_length_c 7.305505
_cell_angle_alpha 90.000000
_cell_angle_beta 90.000000
_cell_angle_gamma 90.000000
_cell_volume 3707.925854
_symmetry_space_group_name_H-M "I B C A "
_symmetry_group_IT_number 73
_symmetry_cell_setting 'orthorhombic'
loop_
_space_group_symop_operation_xyz
x,y,z
-x,1/2-y,z
x,-y,1/2-z
1/2-x,y,-z
-x,-y,-z
x,1/2+y,-z
-x,y,1/2+z
1/2+x,-y,z
1/2+x,1/2+y,1/2+z
1/2-x,-y,1/2+z
1/2+x,1/2-y,-z
-x,1/2+y,1/2-z
1/2-x,1/2-y,1/2-z
1/2+x,y,1/2-z
1/2-x,1/2+y,z
x,1/2-y,1/2+z
loop_
_atom_site_type_symbol
_atom_site_label
_atom_site_fract_x
_atom_site_fract_y
_atom_site_fract_z
Si Si1 0.424774 0.935742 0.392367
Si Si2 0.876230 0.841687 0.336226
Si Si3 0.379813 0.357425 0.288147
Si Si4 0.250929 0.318459 0.287387
Si Si5 0.069984 0.239635 0.977326
Si Si6 0.439857 0.454104 0.080024
O O1 0.410210 0.905139 0.193300
O O2 0.382949 0.900539 0.535826
O O3 0.493913 0.927878 0.451645
O O4 0.414924 0.006935 0.406056
O O5 0.804710 0.848826 0.317353
O O6 0.895468 0.803474 0.516551
O O7 0.901125 0.799902 0.176628
O O8 0.312747 0.345416 0.219328
O O9 0.417937 0.297497 0.332382
O O10 0.400317 0.395945 0.111937
O O11 0.250000 0.331735 0.500000
O O12 0.250000 0.250000 0.250000
O O13 0.000000 0.250000 0.950637
O O14 0.440023 0.500000 0.250000
#
# Coordination Sequence:
#
# PCOD8295863 Si02
#       6
#    16  16  16  16  16  16
#     4   9  18  34  58  83 118 153 198 251 304 367
#     4  11  21  37  57  88 119 164 201 248 307 367
#     4  10  20  35  56  86 116 163 203 250 304 366
#     4  12  21  40  62  84 123 164 212 249 302 372
#     4  11  21  33  53  86 125 157 197 255 310 366
#     4   9  18  34  58  88 114 156 201 246 310 368
#
# _framework density 25.890484000000001
#
# number of rings (size 3 to 8) (size 9 to 14) (size 15 to 20)
#    0.000    1.667    5.000    1.500    0.000    1.333 
#    0.000    1.667    0.000    5.000    0.000    0.000 
#    0.000    0.000    0.000    0.000    0.000    0.000 
#
# Total GULP energy -595162.191645 kJ/mol
# GULP energy per Si atom -12399.212326 kJ/mol
# Density = 2.583156 g / cm^3
# Si number density = 25.890484 Si / 1000 Ang^3
#
#
#
# Elastic Constant Matrix: (Units=GPa)
#
#
# Indices 1 2 3 4 5 6 
#
# 1 187.3567 77.5834 4.0872 0.0000 0.0000 0.0000
# 2 77.5834 191.8623 19.0267 0.0000 0.0000 0.0000
# 3 4.0872 19.0267 92.4520 0.0000 0.0000 0.0000
# 4 0.0000 0.0000 0.0000 42.2719 0.0000 0.0000
# 5 0.0000 0.0000 0.0000 0.0000 27.6525 0.0000
# 6 0.0000 0.0000 0.0000 0.0000 0.0000 43.1519
#
#
#
# Elastic Compliance Matrix: (Units=1/GPa)
#
#
# Indices 1 2 3 4 5 6 
#
# 1 0.006417 -0.002620 0.000256 0.000000 0.000000 0.000000
# 2 -0.002620 0.006391 -0.001199 0.000000 0.000000 0.000000
# 3 0.000256 -0.001199 0.011052 0.000000 0.000000 0.000000
# 4 0.000000 0.000000 0.000000 0.023656 0.000000 0.000000
# 5 0.000000 0.000000 0.000000 0.000000 0.036163 0.000000
# 6 0.000000 0.000000 0.000000 0.000000 0.000000 0.023174
#
#
# Mechanical properties :
#
#
# Convention : Reuss Voigt Hill
#
# Bulk Modulus (GPa) = 59.76771 74.78509 67.27640
# Shear Modulus (GPa) = 41.82082 47.34683 44.58383
#
# Velocity S-wave (km/s) = 4.02344 4.28101 4.15422
# Velocity P-wave (km/s) = 6.68723 7.30643 7.00367
#
# Compressibility (1/GPa) = 0.01673144
#
# Stress axis : x y z
#
# Youngs Moduli (GPa) = 155.84062 156.48219 90.48179
#
# Poissons Ratio (x) = 0.41000 -0.02312
# Poissons Ratio (y) = 0.40832 0.10852
# Poissons Ratio (z) = -0.03982 0.18768
#
# Static dielectric constant tensor:
#      x y z
#    x 4.697680 0.000000 0.000000 
#    y 0.000000 5.569080 0.000000 
#    z 0.000000 0.000000 6.873500 
# 
# 
# High freq. dielectric constant tensor:
#      x y z
#    x 2.000040 0.000000 0.000000 
#    y 0.000000 2.074960 0.000000 
#    z 0.000000 0.000000 2.109620 
# 
# From -- ./inp_files/12870.got.cif
#   From: 2010.03.12/outbox.cif.g09.slc.cpg/sg73_7_cif.got.tgz:12870.got - 2010.04.16 15:25:48.
