data_PCOD8295649
_publ_section_title
;
Structure prediction by ZEFSAII (Michael W. Deem and Ramdas Pophale) SiO2 
 PCOD8295649
Probable space group: I B C A 
;
_chemical_formula_sum "Si O2"
_cell_formula_units_Z 120
_cell_length_a 22.977485
_cell_length_b 16.997789
_cell_length_c 14.562030
_cell_angle_alpha 90.000000
_cell_angle_beta 90.000000
_cell_angle_gamma 90.000000
_cell_volume 5687.440242
_symmetry_space_group_name_H-M "I B C A "
_symmetry_group_IT_number 73
_symmetry_cell_setting 'orthorhombic'
loop_
_space_group_symop_operation_xyz
x,y,z
-x,1/2-y,z
x,-y,1/2-z
1/2-x,y,-z
-x,-y,-z
x,1/2+y,-z
-x,y,1/2+z
1/2+x,-y,z
1/2+x,1/2+y,1/2+z
1/2-x,-y,1/2+z
1/2+x,1/2-y,-z
-x,1/2+y,1/2-z
1/2-x,1/2-y,1/2-z
1/2+x,y,1/2-z
1/2-x,1/2+y,z
x,1/2-y,1/2+z
loop_
_atom_site_type_symbol
_atom_site_label
_atom_site_fract_x
_atom_site_fract_y
_atom_site_fract_z
Si Si1 0.473615 0.591833 0.070558
Si Si2 0.252233 0.500000 0.250000
Si Si3 0.305186 0.987226 0.944459
Si Si4 0.304521 0.159287 0.198242
Si Si5 0.358471 0.146587 0.007389
Si Si6 0.677437 0.787193 0.166722
Si Si7 0.571411 0.421254 0.553822
Si Si8 0.588445 0.594446 0.748363
O O1 0.466717 0.498317 0.073761
O O2 0.462194 0.619691 0.175682
O O3 0.426042 0.626125 0.000780
O O4 0.536909 0.620124 0.031265
O O5 0.293455 0.478812 0.163953
O O6 0.207975 0.429741 0.272991
O O7 0.361724 0.936978 0.973295
O O8 0.250000 0.953790 0.000000
O O9 0.316048 0.077316 0.971422
O O10 0.348195 0.164922 0.112883
O O11 0.246337 0.202719 0.167443
O O12 0.336673 0.205853 0.280784
O O13 0.343964 0.219781 0.939219
O O14 0.647869 0.863162 0.215687
O O15 0.570705 0.373691 0.650517
O O16 0.599772 0.500000 0.750000
#
# Coordination Sequence:
#
# PCOD8295649 Si02
#       8
#    16   8  16  16  16  16  16  16
#     4   8  17  30  52  85 113 155 202 246 305 357
#     4  12  22  36  58  90 124 168 208 244 326 380
#     4  11  20  33  58  86 120 167 200 246 310 376
#     4  11  22  34  58  86 125 162 200 260 303 368
#     4  10  18  37  61  77 123 171 195 244 324 362
#     4  10  20  34  56  89 114 160 213 245 298 370
#     4   9  17  29  52  86 119 144 205 254 284 363
#     4   9  17  31  59  86 116 162 205 254 296 374
#
# _framework density 21.099122999999999
#
# number of rings (size 3 to 8) (size 9 to 14) (size 15 to 20)
#    0.000    2.133    2.667    2.000    5.600    0.000 
#    0.000    5.333    2.933    0.800    0.000    3.733 
#    0.000    0.000    0.000    0.000    0.000    0.000 
#
# Total GULP energy -743605.996361 kJ/mol
# GULP energy per Si atom -12393.433273 kJ/mol
# Density = 2.105110 g / cm^3
# Si number density = 21.099123 Si / 1000 Ang^3
#
#
#
# Elastic Constant Matrix: (Units=GPa)
#
#
# Indices 1 2 3 4 5 6 
#
# 1 122.6666 14.1440 69.7475 0.0000 0.0000 0.0000
# 2 14.1440 49.9421 23.6777 0.0000 0.0000 0.0000
# 3 69.7475 23.6777 120.3546 0.0000 0.0000 0.0000
# 4 0.0000 0.0000 0.0000 27.3588 0.0000 0.0000
# 5 0.0000 0.0000 0.0000 0.0000 35.4351 0.0000
# 6 0.0000 0.0000 0.0000 0.0000 0.0000 9.8103
#
#
#
# Elastic Compliance Matrix: (Units=1/GPa)
#
#
# Indices 1 2 3 4 5 6 
#
# 1 0.012159 -0.000113 -0.007024 0.000000 0.000000 0.000000
# 2 -0.000113 0.022084 -0.004279 0.000000 0.000000 0.000000
# 3 -0.007024 -0.004279 0.013221 0.000000 0.000000 0.000000
# 4 0.000000 0.000000 0.000000 0.036551 0.000000 0.000000
# 5 0.000000 0.000000 0.000000 0.000000 0.028221 0.000000
# 6 0.000000 0.000000 0.000000 0.000000 0.000000 0.101933
#
#
# Mechanical properties :
#
#
# Convention : Reuss Voigt Hill
#
# Bulk Modulus (GPa) = 40.59862 56.45574 48.52718
# Shear Modulus (GPa) = 20.39044 26.88045 23.63545
#
# Velocity S-wave (km/s) = 3.11209 3.57320 3.35058
# Velocity P-wave (km/s) = 5.67425 6.62111 6.16588
#
# Compressibility (1/GPa) = 0.02463138
#
# Stress axis : x y z
#
# Youngs Moduli (GPa) = 82.24276 45.28175 75.63625
#
# Poissons Ratio (x) = 0.00514 0.53128
# Poissons Ratio (y) = 0.00933 0.32364
# Poissons Ratio (z) = 0.57768 0.19376
#
# Static dielectric constant tensor:
#      x y z
#    x 3.763580 0.000000 0.000000 
#    y 0.000000 3.486300 0.000000 
#    z 0.000000 0.000000 4.305790 
# 
# 
# High freq. dielectric constant tensor:
#      x y z
#    x 1.812670 0.000000 0.000000 
#    y 0.000000 1.778210 0.000000 
#    z 0.000000 0.000000 1.838770 
# 
# From -- ./inp_files/19543.got.cif
#   From: 2010.03.12/outbox.cif.g09.slc.cpg/sg73_10_cif.got.tgz:19543.got - 2010.04.16 15:25:48.
