data_PCOD8295621
_publ_section_title
;
Structure prediction by ZEFSAII (Michael W. Deem and Ramdas Pophale) SiO2 
 PCOD8295621
Probable space group: I B C A 
;
_chemical_formula_sum "Si O2"
_cell_formula_units_Z 104
_cell_length_a 8.636710
_cell_length_b 21.426555
_cell_length_c 27.247839
_cell_angle_alpha 90.000000
_cell_angle_beta 90.000000
_cell_angle_gamma 90.000000
_cell_volume 5042.347261
_symmetry_space_group_name_H-M "I B C A "
_symmetry_group_IT_number 73
_symmetry_cell_setting 'orthorhombic'
loop_
_space_group_symop_operation_xyz
x,y,z
-x,1/2-y,z
x,-y,1/2-z
1/2-x,y,-z
-x,-y,-z
x,1/2+y,-z
-x,y,1/2+z
1/2+x,-y,z
1/2+x,1/2+y,1/2+z
1/2-x,-y,1/2+z
1/2+x,1/2-y,-z
-x,1/2+y,1/2-z
1/2-x,1/2-y,1/2-z
1/2+x,y,1/2-z
1/2-x,1/2+y,z
x,1/2-y,1/2+z
loop_
_atom_site_type_symbol
_atom_site_label
_atom_site_fract_x
_atom_site_fract_y
_atom_site_fract_z
Si Si1 0.898994 0.643124 0.030692
Si Si2 0.000000 0.750000 0.268868
Si Si3 0.429430 0.500000 0.750000
Si Si4 0.814458 0.440120 0.313537
Si Si5 0.703864 0.798965 0.315596
Si Si6 0.237524 0.529021 0.416240
Si Si7 0.055918 0.945590 0.465771
Si Si8 0.000000 0.250000 0.397030
O O1 0.843908 0.582960 0.060508
O O2 0.984538 0.690960 0.067060
O O3 0.750000 0.670823 0.000000
O O4 0.034086 0.621485 0.992101
O O5 0.884848 0.788041 0.304467
O O6 0.895736 0.706083 0.234389
O O7 0.526086 0.462113 0.710104
O O8 0.323681 0.552836 0.725253
O O9 0.821756 0.369475 0.333262
O O10 0.782243 0.483643 0.360243
O O11 0.647818 0.751986 0.359457
O O12 0.059698 0.549639 0.418889
O O13 0.271776 0.463004 0.445870
O O14 0.000000 0.000000 0.500000
#
# Coordination Sequence:
#
# PCOD8295621 Si02
#       8
#    16   8   8  16  16  16  16   8
#     4   9  19  36  57  79 113 151 189 241 305 343
#     4   9  20  38  59  96 112 166 201 248 284 357
#     4  10  24  34  56  86 128 154 188 232 310 358
#     4  11  20  38  56  88 121 157 189 244 292 361
#     4  10  20  36  66  84 126 153 209 243 297 350
#     4  10  18  34  60  82 110 147 192 233 287 347
#     4   9  18  33  58  82 107 142 186 237 283 352
#     4  11  20  38  61  86 112 168 197 254 300 359
#
# _framework density 20.625315000000001
#
# number of rings (size 3 to 8) (size 9 to 14) (size 15 to 20)
#    0.000    2.154    1.538    3.231    0.000    0.000 
#    0.000    3.846   10.154    0.000    0.000    0.000 
#    0.000    0.000    0.000    0.000    0.000    0.000 
#
# Total GULP energy -644226.390084 kJ/mol
# GULP energy per Si atom -12388.969040 kJ/mol
# Density = 2.057837 g / cm^3
# Si number density = 20.625315 Si / 1000 Ang^3
#
#
#
# Elastic Constant Matrix: (Units=GPa)
#
#
# Indices 1 2 3 4 5 6 
#
# 1 92.2179 25.4935 28.5109 0.0000 0.0000 0.0000
# 2 25.4935 70.6983 23.2596 0.0000 0.0000 0.0000
# 3 28.5109 23.2596 98.0309 0.0000 0.0000 0.0000
# 4 0.0000 0.0000 0.0000 34.0086 0.0000 0.0000
# 5 0.0000 0.0000 0.0000 0.0000 -25.7757 0.0000
# 6 0.0000 0.0000 0.0000 0.0000 0.0000 21.7072
#
#
#
# Elastic Compliance Matrix: (Units=1/GPa)
#
#
# Indices 1 2 3 4 5 6 
#
# 1 0.012732 -0.003658 -0.002835 0.000000 0.000000 0.000000
# 2 -0.003658 0.016393 -0.002826 0.000000 0.000000 0.000000
# 3 -0.002835 -0.002826 0.011696 0.000000 0.000000 0.000000
# 4 0.000000 0.000000 0.000000 0.029404 0.000000 0.000000
# 5 0.000000 0.000000 0.000000 0.000000 -0.038796 0.000000
# 6 0.000000 0.000000 0.000000 0.000000 0.000000 0.046068
#
#
# Mechanical properties :
#
#
# Convention : Reuss Voigt Hill
#
# Bulk Modulus (GPa) = 45.07909 46.16390 45.62149
# Shear Modulus (GPa) = 48.29574 18.23354 33.26464
#
# Velocity S-wave (km/s) = 4.84423 2.97650 4.02033
# Velocity P-wave (km/s) = 7.29331 5.85179 6.61196
#
# Compressibility (1/GPa) = 0.02218324
#
# Stress axis : x y z
#
# Youngs Moduli (GPa) = 78.54440 61.00001 85.50094
#
# Poissons Ratio (x) = 0.22316 0.24238
# Poissons Ratio (y) = 0.28734 0.24160
# Poissons Ratio (z) = 0.22266 0.17237
#
# Static dielectric constant tensor:
#      x y z
#    x 6.874870 0.000000 0.000000 
#    y 0.000000 3.533830 0.000000 
#    z 0.000000 0.000000 3.985110 
# 
# 
# High freq. dielectric constant tensor:
#      x y z
#    x 1.804790 0.000000 0.000000 
#    y 0.000000 1.770680 0.000000 
#    z 0.000000 0.000000 1.818350 
# 
# From -- ./inp_files/8500.got.cif
#   From: 2010.03.12/outbox.cif.g09.slc.cpg/sg73_5_cif.got.tgz:8500.got - 2010.04.16 15:25:48.
