data_PCOD8295245
_publ_section_title
;
Structure prediction by ZEFSAII (Michael W. Deem and Ramdas Pophale) SiO2 
 PCOD8295245
Probable space group: I B A M
;
_chemical_formula_sum "Si O2"
_cell_formula_units_Z 68
_cell_length_a 19.771658
_cell_length_b 9.226894
_cell_length_c 15.384132
_cell_angle_alpha 90.000000
_cell_angle_beta 90.000000
_cell_angle_gamma 90.000000
_cell_volume 2806.542471
_symmetry_space_group_name_H-M "I B A M"
_symmetry_group_IT_number 72
_symmetry_cell_setting 'orthorhombic'
loop_
_space_group_symop_operation_xyz
x,y,z
-x,-y,z
x,-y,1/2-z
-x,y,1/2-z
-x,-y,-z
x,y,-z
-x,y,1/2+z
x,-y,1/2+z
1/2+x,1/2+y,1/2+z
1/2-x,1/2-y,1/2+z
1/2+x,1/2-y,-z
1/2-x,1/2+y,-z
1/2-x,1/2-y,1/2-z
1/2+x,1/2+y,1/2-z
1/2-x,1/2+y,z
1/2+x,1/2-y,z
loop_
_atom_site_type_symbol
_atom_site_label
_atom_site_fract_x
_atom_site_fract_y
_atom_site_fract_z
Si Si1 0.000000 0.000000 0.250000
Si Si2 0.377394 0.668138 0.175184
Si Si3 0.737699 0.522340 0.897526
Si Si4 0.077448 0.165471 0.500000
Si Si5 0.831437 0.287541 0.850261
Si Si6 0.424668 0.682083 0.000000
O O1 0.951309 0.096514 0.310197
O O2 0.321983 0.542359 0.162922
O O3 0.357274 0.778211 0.251598
O O4 0.386770 0.752199 0.083520
O O5 0.809560 0.451929 0.871630
O O6 0.737205 0.691913 0.869337
O O7 0.722221 0.504135 0.000000
O O8 0.110957 0.229426 0.586485
O O9 0.002303 0.226541 0.500000
O O10 0.083643 0.992672 0.500000
#
# Coordination Sequence:
#
# PCOD8295245 Si02
#       6
#     4  16  16   8  16   8
#     4  12  20  34  64  92 130 154 204 272 322 356
#     4  12  21  35  58  91 128 159 203 256 324 354
#     4  12  22  40  60  88 128 166 203 256 309 377
#     4  11  20  35  59  92 125 155 205 261 319 359
#     4  12  23  39  61  91 132 161 208 254 313 376
#     4  11  20  33  59  88 131 154 202 270 312 354
#
# _framework density 24.229101
#
# number of rings (size 3 to 8) (size 9 to 14) (size 15 to 20)
#    0.000    0.235    8.235    3.529    0.000    0.000 
#    0.000    0.000    0.000    0.000    0.000   13.176 
#    0.000    0.000    0.000    0.000    0.000    0.000 
#
# Total GULP energy -421585.897775 kJ/mol
# GULP energy per Si atom -12399.585229 kJ/mol
# Density = 2.417395 g / cm^3
# Si number density = 24.229101 Si / 1000 Ang^3
#
#
#
# Elastic Constant Matrix: (Units=GPa)
#
#
# Indices 1 2 3 4 5 6 
#
# 1 67.4244 19.0211 37.4218 0.0000 0.0000 0.0000
# 2 19.0211 43.4668 22.3452 0.0000 0.0000 0.0000
# 3 37.4218 22.3452 204.9218 0.0000 0.0000 0.0000
# 4 0.0000 0.0000 0.0000 13.9897 0.0000 0.0000
# 5 0.0000 0.0000 0.0000 0.0000 33.1075 0.0000
# 6 0.0000 0.0000 0.0000 0.0000 0.0000 18.2786
#
#
#
# Elastic Compliance Matrix: (Units=1/GPa)
#
#
# Indices 1 2 3 4 5 6 
#
# 1 0.018132 -0.006603 -0.002591 0.000000 0.000000 0.000000
# 2 -0.006603 0.026777 -0.001714 0.000000 0.000000 0.000000
# 3 -0.002591 -0.001714 0.005540 0.000000 0.000000 0.000000
# 4 0.000000 0.000000 0.000000 0.071481 0.000000 0.000000
# 5 0.000000 0.000000 0.000000 0.000000 0.030205 0.000000
# 6 0.000000 0.000000 0.000000 0.000000 0.000000 0.054709
#
#
# Mechanical properties :
#
#
# Convention : Reuss Voigt Hill
#
# Bulk Modulus (GPa) = 34.92476 52.59881 43.76178
# Shear Modulus (GPa) = 20.99044 28.87682 24.93363
#
# Velocity S-wave (km/s) = 2.94654 3.45603 3.21140
# Velocity P-wave (km/s) = 5.10116 6.13853 5.64373
#
# Compressibility (1/GPa) = 0.02863298
#
# Stress axis : x y z
#
# Youngs Moduli (GPa) = 55.15024 37.34615 180.50489
#
# Poissons Ratio (x) = 0.24658 0.46773
# Poissons Ratio (y) = 0.36414 0.30939
# Poissons Ratio (z) = 0.14291 0.06401
#
# Static dielectric constant tensor:
#      x y z
#    x 4.421580 0.000000 0.000000 
#    y 0.000000 3.805110 0.000000 
#    z 0.000000 0.000000 4.735440 
# 
# 
# High freq. dielectric constant tensor:
#      x y z
#    x 1.966470 0.000000 0.000000 
#    y 0.000000 1.904070 0.000000 
#    z 0.000000 0.000000 1.998410 
# 
# From -- ./inp_files/23924.got.cif
#   From: 2010.03.12/outbox.cif.g09.slc.cpg/sg72_12_cif.got.tgz:23924.got - 2010.04.16 14:54:00.
