data_PCOD8295215
_publ_section_title
;
Structure prediction by ZEFSAII (Michael W. Deem and Ramdas Pophale) SiO2 
 PCOD8295215
Probable space group: I B A M
;
_chemical_formula_sum "Si O2"
_cell_formula_units_Z 64
_cell_length_a 8.676585
_cell_length_b 9.665283
_cell_length_c 30.346424
_cell_angle_alpha 90.000000
_cell_angle_beta 90.000000
_cell_angle_gamma 90.000000
_cell_volume 2544.901173
_symmetry_space_group_name_H-M "I B A M"
_symmetry_group_IT_number 72
_symmetry_cell_setting 'orthorhombic'
loop_
_space_group_symop_operation_xyz
x,y,z
-x,-y,z
x,-y,1/2-z
-x,y,1/2-z
-x,-y,-z
x,y,-z
-x,y,1/2+z
x,-y,1/2+z
1/2+x,1/2+y,1/2+z
1/2-x,1/2-y,1/2+z
1/2+x,1/2-y,-z
1/2-x,1/2+y,-z
1/2-x,1/2-y,1/2-z
1/2+x,1/2+y,1/2-z
1/2-x,1/2+y,z
1/2+x,1/2-y,z
loop_
_atom_site_type_symbol
_atom_site_label
_atom_site_fract_x
_atom_site_fract_y
_atom_site_fract_z
Si Si1 0.431592 0.279312 0.663398
Si Si2 0.160416 0.580374 0.949760
Si Si3 0.174471 0.365674 0.720919
Si Si4 0.805797 0.853685 0.396239
O O1 0.299790 0.385162 0.681422
O O2 0.508702 0.183306 0.701804
O O3 0.355489 0.174971 0.628407
O O4 0.561737 0.371365 0.640281
O O5 0.147274 0.732611 0.929889
O O6 0.290889 0.496522 0.922908
O O7 0.000000 0.500000 0.946844
O O8 0.215704 0.594511 0.000000
O O9 0.151440 0.500000 0.750000
O O10 0.250000 0.250000 0.750000
#
# Coordination Sequence:
#
# PCOD8295215 Si02
#       4
#    16  16  16  16
#     4  10  25  44  73 104 138 188 235 293 353 424
#     4  11  24  44  71 107 149 190 235 295 357 417
#     4  11  26  45  69 101 142 180 236 291 357 417
#     4  11  23  46  72 105 144 188 241 288 358 419
#
# _framework density 25.148323999999999
#
# number of rings (size 3 to 8) (size 9 to 14) (size 15 to 20)
#    0.000    1.250    2.500    1.500    0.000   17.000 
#    0.000    5.000    0.000    0.000    0.000    0.000 
#    0.000    0.000    0.000    0.000    0.000    0.000 
#
# Total GULP energy -396941.328619 kJ/mol
# GULP energy per Si atom -12404.416519 kJ/mol
# Density = 2.509109 g / cm^3
# Si number density = 25.148324 Si / 1000 Ang^3
#
#
#
# Elastic Constant Matrix: (Units=GPa)
#
#
# Indices 1 2 3 4 5 6 
#
# 1 119.5523 11.2063 29.9917 0.0000 0.0000 0.0000
# 2 11.2063 87.9378 26.2653 0.0000 0.0000 0.0000
# 3 29.9917 26.2653 110.6095 0.0000 0.0000 0.0000
# 4 0.0000 0.0000 0.0000 38.3347 0.0000 0.0000
# 5 0.0000 0.0000 0.0000 0.0000 35.7373 0.0000
# 6 0.0000 0.0000 0.0000 0.0000 0.0000 29.3396
#
#
#
# Elastic Compliance Matrix: (Units=1/GPa)
#
#
# Indices 1 2 3 4 5 6 
#
# 1 0.008992 -0.000450 -0.002331 0.000000 0.000000 0.000000
# 2 -0.000450 0.012262 -0.002790 0.000000 0.000000 0.000000
# 3 -0.002331 -0.002790 0.010335 0.000000 0.000000 0.000000
# 4 0.000000 0.000000 0.000000 0.026086 0.000000 0.000000
# 5 0.000000 0.000000 0.000000 0.000000 0.027982 0.000000
# 6 0.000000 0.000000 0.000000 0.000000 0.000000 0.034084
#
#
# Mechanical properties :
#
#
# Convention : Reuss Voigt Hill
#
# Bulk Modulus (GPa) = 48.90512 50.33625 49.62068
# Shear Modulus (GPa) = 36.31128 37.39139 36.85134
#
# Velocity S-wave (km/s) = 3.80397 3.86013 3.83215
# Velocity P-wave (km/s) = 6.22756 6.31876 6.27332
#
# Compressibility (1/GPa) = 0.02044776
#
# Stress axis : x y z
#
# Youngs Moduli (GPa) = 111.21583 81.55115 96.75448
#
# Poissons Ratio (x) = 0.03666 0.22556
# Poissons Ratio (y) = 0.04999 0.26994
# Poissons Ratio (z) = 0.25928 0.22752
#
# Static dielectric constant tensor:
#      x y z
#    x 5.322950 0.000000 0.000000 
#    y 0.000000 3.959900 0.000000 
#    z 0.000000 0.000000 5.069430 
# 
# 
# High freq. dielectric constant tensor:
#      x y z
#    x 2.018500 0.000000 0.000000 
#    y 0.000000 1.991050 0.000000 
#    z 0.000000 0.000000 2.023450 
# 
# From -- ./inp_files/50590.got.cif
#   From: 2010.03.12/outbox.cif.g09.slc.cpg/sg72_26_cif.got.tgz:50590.got - 2010.04.16 14:54:00.
