data_PCOD8295390
_publ_section_title
;
Structure prediction by ZEFSAII (Michael W. Deem and Ramdas Pophale) SiO2 
 PCOD8295390
Probable space group: I B A M
;
_chemical_formula_sum "Si O2"
_cell_formula_units_Z 64
_cell_length_a 11.774215
_cell_length_b 13.391265
_cell_length_c 17.938793
_cell_angle_alpha 90.000000
_cell_angle_beta 90.000000
_cell_angle_gamma 90.000000
_cell_volume 2828.438791
_symmetry_space_group_name_H-M "I B A M"
_symmetry_group_IT_number 72
_symmetry_cell_setting 'orthorhombic'
loop_
_space_group_symop_operation_xyz
x,y,z
-x,-y,z
x,-y,1/2-z
-x,y,1/2-z
-x,-y,-z
x,y,-z
-x,y,1/2+z
x,-y,1/2+z
1/2+x,1/2+y,1/2+z
1/2-x,1/2-y,1/2+z
1/2+x,1/2-y,-z
1/2-x,1/2+y,-z
1/2-x,1/2-y,1/2-z
1/2+x,1/2+y,1/2-z
1/2-x,1/2+y,z
1/2+x,1/2-y,z
loop_
_atom_site_type_symbol
_atom_site_label
_atom_site_fract_x
_atom_site_fract_y
_atom_site_fract_z
Si Si1 0.745099 0.436214 0.825452
Si Si2 0.896341 0.925530 0.418773
Si Si3 0.458103 0.111698 0.084902
Si Si4 0.960434 0.218711 0.328892
O O1 0.766037 0.500000 0.750000
O O2 0.712428 0.516414 0.888156
O O3 0.854200 0.378091 0.856737
O O4 0.648146 0.351952 0.817064
O O5 0.864745 0.881057 0.500000
O O6 0.931451 0.839364 0.362342
O O7 0.000000 0.000000 0.427191
O O8 0.557624 0.186377 0.115719
O O9 0.500000 0.000000 0.087521
O O10 0.425059 0.141474 0.000000
O O11 0.000000 0.261272 0.250000
#
# Coordination Sequence:
#
# PCOD8295390 Si02
#       4
#    16  16  16  16
#     4  11  23  42  72 104 137 181 231 291 351 420
#     4   9  18  35  63  97 133 172 221 284 345 405
#     4  11  28  48  66  97 144 189 233 287 353 424
#     4  11  23  41  71 103 136 177 234 290 342 412
#
# _framework density 22.627323000000001
#
# number of rings (size 3 to 8) (size 9 to 14) (size 15 to 20)
#    0.000    1.500    2.500    1.500    3.500    6.000 
#    0.000    2.500    0.000    0.000    0.000    0.000 
#    0.000    0.000    0.000    0.000    0.000    0.000 
#
# Total GULP energy -396604.424379 kJ/mol
# GULP energy per Si atom -12393.888262 kJ/mol
# Density = 2.257582 g / cm^3
# Si number density = 22.627323 Si / 1000 Ang^3
#
#
#
# Elastic Constant Matrix: (Units=GPa)
#
#
# Indices 1 2 3 4 5 6 
#
# 1 54.6146 17.6529 46.0497 0.0000 0.0000 0.0000
# 2 17.6529 107.6726 56.3672 0.0000 0.0000 0.0000
# 3 46.0497 56.3672 183.9413 0.0000 0.0000 0.0000
# 4 0.0000 0.0000 0.0000 35.3409 0.0000 0.0000
# 5 0.0000 0.0000 0.0000 0.0000 192.2895 0.0000
# 6 0.0000 0.0000 0.0000 0.0000 0.0000 25.5538
#
#
#
# Elastic Compliance Matrix: (Units=1/GPa)
#
#
# Indices 1 2 3 4 5 6 
#
# 1 0.023284 -0.000912 -0.005550 0.000000 0.000000 0.000000
# 2 -0.000912 0.011098 -0.003172 0.000000 0.000000 0.000000
# 3 -0.005550 -0.003172 0.007798 0.000000 0.000000 0.000000
# 4 0.000000 0.000000 0.000000 0.028296 0.000000 0.000000
# 5 0.000000 0.000000 0.000000 0.000000 0.005200 0.000000
# 6 0.000000 0.000000 0.000000 0.000000 0.000000 0.039133
#
#
# Mechanical properties :
#
#
# Convention : Reuss Voigt Hill
#
# Bulk Modulus (GPa) = 43.64618 65.15201 54.39909
# Shear Modulus (GPa) = 35.28200 65.71409 50.49805
#
# Velocity S-wave (km/s) = 3.95304 5.39490 4.72924
# Velocity P-wave (km/s) = 6.33769 8.22573 7.34265
#
# Compressibility (1/GPa) = 0.02291151
#
# Stress axis : x y z
#
# Youngs Moduli (GPa) = 42.94731 90.10831 128.23704
#
# Poissons Ratio (x) = 0.08219 0.71168
# Poissons Ratio (y) = 0.03917 0.40683
# Poissons Ratio (z) = 0.23835 0.28586
#
# Static dielectric constant tensor:
#      x y z
#    x 3.858580 0.000000 0.000000 
#    y 0.000000 4.185570 0.000000 
#    z 0.000000 0.000000 4.455190 
# 
# 
# High freq. dielectric constant tensor:
#      x y z
#    x 1.863530 0.000000 0.000000 
#    y 0.000000 1.899190 0.000000 
#    z 0.000000 0.000000 1.913530 
# 
# From -- ./inp_files/28777.got.cif
#   From: 2010.03.12/outbox.cif.g09.slc.cpg/sg72_15_cif.got.tgz:28777.got - 2010.04.16 14:54:00.
