data_PCOD8295174
_publ_section_title
;
Structure prediction by ZEFSAII (Michael W. Deem and Ramdas Pophale) SiO2 
 PCOD8295174
Probable space group: I B A M
;
_chemical_formula_sum "Si O2"
_cell_formula_units_Z 112
_cell_length_a 13.925908
_cell_length_b 16.982435
_cell_length_c 25.042562
_cell_angle_alpha 90.000000
_cell_angle_beta 90.000000
_cell_angle_gamma 90.000000
_cell_volume 5922.461421
_symmetry_space_group_name_H-M "I B A M"
_symmetry_group_IT_number 72
_symmetry_cell_setting 'orthorhombic'
loop_
_space_group_symop_operation_xyz
x,y,z
-x,-y,z
x,-y,1/2-z
-x,y,1/2-z
-x,-y,-z
x,y,-z
-x,y,1/2+z
x,-y,1/2+z
1/2+x,1/2+y,1/2+z
1/2-x,1/2-y,1/2+z
1/2+x,1/2-y,-z
1/2-x,1/2+y,-z
1/2-x,1/2-y,1/2-z
1/2+x,1/2+y,1/2-z
1/2-x,1/2+y,z
1/2+x,1/2-y,z
loop_
_atom_site_type_symbol
_atom_site_label
_atom_site_fract_x
_atom_site_fract_y
_atom_site_fract_z
Si Si1 0.401888 0.029125 0.854616
Si Si2 0.659523 0.682958 0.856899
Si Si3 0.180574 0.376040 0.442067
Si Si4 0.096693 0.325315 0.718754
Si Si5 0.231281 0.427190 0.213423
Si Si6 0.471171 0.737158 0.560518
Si Si7 0.812039 0.259835 0.561011
O O1 0.325950 0.055144 0.899248
O O2 0.432682 0.099460 0.815827
O O3 0.500000 0.000000 0.882297
O O4 0.354248 0.958165 0.823193
O O5 0.638052 0.756401 0.818292
O O6 0.678324 0.605438 0.820968
O O7 0.568334 0.672093 0.897175
O O8 0.753598 0.692647 0.894407
O O9 0.170563 0.415595 0.500000
O O10 0.282255 0.332113 0.436321
O O11 0.096934 0.312350 0.433008
O O12 0.186126 0.352507 0.755599
O O13 0.000000 0.297472 0.750000
O O14 0.268853 0.500000 0.250000
O O15 0.468284 0.703517 0.500000
O O16 0.576819 0.765347 0.576366
O O17 0.792470 0.291078 0.500000
#
# Coordination Sequence:
#
# PCOD8295174 Si02
#       7
#    16  16  16  16  16  16  16
#     4  11  20  35  56  81 119 155 178 229 301 352
#     4  11  21  36  60  87 113 153 197 242 283 344
#     4   9  18  34  53  84 118 148 185 230 290 355
#     4  11  21  37  57  85 109 153 198 236 276 342
#     4  10  24  37  53  79 118 152 194 241 291 328
#     4   9  18  34  59  89 117 144 188 244 290 338
#     4   9  18  33  58  87 116 147 187 239 291 346
#
# _framework density 18.911055999999999
#
# number of rings (size 3 to 8) (size 9 to 14) (size 15 to 20)
#    0.000    2.000    4.286    1.714    4.000    0.286 
#    0.000    1.429    0.000    3.000    0.000    3.000 
#    0.000    0.000    0.000    0.000    0.000    0.000 
#
# Total GULP energy -694005.835404 kJ/mol
# GULP energy per Si atom -12392.961346 kJ/mol
# Density = 1.886801 g / cm^3
# Si number density = 18.911056 Si / 1000 Ang^3
#
#
#
# Elastic Constant Matrix: (Units=GPa)
#
#
# Indices 1 2 3 4 5 6 
#
# 1 70.5616 22.3383 31.7262 0.0000 0.0000 0.0000
# 2 22.3383 52.1692 29.4616 0.0000 0.0000 0.0000
# 3 31.7262 29.4616 101.7505 0.0000 0.0000 0.0000
# 4 0.0000 0.0000 0.0000 17.3385 0.0000 0.0000
# 5 0.0000 0.0000 0.0000 0.0000 32.7387 0.0000
# 6 0.0000 0.0000 0.0000 0.0000 0.0000 6.4830
#
#
#
# Elastic Compliance Matrix: (Units=1/GPa)
#
#
# Indices 1 2 3 4 5 6 
#
# 1 0.017635 -0.005315 -0.003960 0.000000 0.000000 0.000000
# 2 -0.005315 0.024517 -0.005442 0.000000 0.000000 0.000000
# 3 -0.003960 -0.005442 0.012638 0.000000 0.000000 0.000000
# 4 0.000000 0.000000 0.000000 0.057675 0.000000 0.000000
# 5 0.000000 0.000000 0.000000 0.000000 0.030545 0.000000
# 6 0.000000 0.000000 0.000000 0.000000 0.000000 0.154250
#
#
# Mechanical properties :
#
#
# Convention : Reuss Voigt Hill
#
# Bulk Modulus (GPa) = 39.43559 43.50372 41.46965
# Shear Modulus (GPa) = 14.91888 20.70905 17.81397
#
# Velocity S-wave (km/s) = 2.81178 3.31278 3.07251
# Velocity P-wave (km/s) = 5.60713 6.13898 5.87907
#
# Compressibility (1/GPa) = 0.02535781
#
# Stress axis : x y z
#
# Youngs Moduli (GPa) = 56.70549 40.78756 79.12483
#
# Poissons Ratio (x) = 0.21678 0.31331
# Poissons Ratio (y) = 0.30138 0.43057
# Poissons Ratio (z) = 0.22454 0.22195
#
# Static dielectric constant tensor:
#      x y z
#    x 3.423180 0.000000 0.000000 
#    y 0.000000 3.189420 0.000000 
#    z 0.000000 0.000000 3.878080 
# 
# 
# High freq. dielectric constant tensor:
#      x y z
#    x 1.723420 0.000000 0.000000 
#    y 0.000000 1.691990 0.000000 
#    z 0.000000 0.000000 1.755680 
# 
# From -- ./inp_files/48725.got.cif
#   From: 2010.03.12/outbox.cif.g09.slc.cpg/sg72_25_cif.got.tgz:48725.got - 2010.04.16 14:54:00.
