data_PCOD8295299
_publ_section_title
;
Structure prediction by ZEFSAII (Michael W. Deem and Ramdas Pophale) SiO2 
 PCOD8295299
Probable space group: I B A M
;
_chemical_formula_sum "Si O2"
_cell_formula_units_Z 68
_cell_length_a 15.337301
_cell_length_b 7.274387
_cell_length_c 26.617121
_cell_angle_alpha 90.000000
_cell_angle_beta 90.000000
_cell_angle_gamma 90.000000
_cell_volume 2969.657897
_symmetry_space_group_name_H-M "I B A M"
_symmetry_group_IT_number 72
_symmetry_cell_setting 'orthorhombic'
loop_
_space_group_symop_operation_xyz
x,y,z
-x,-y,z
x,-y,1/2-z
-x,y,1/2-z
-x,-y,-z
x,y,-z
-x,y,1/2+z
x,-y,1/2+z
1/2+x,1/2+y,1/2+z
1/2-x,1/2-y,1/2+z
1/2+x,1/2-y,-z
1/2-x,1/2+y,-z
1/2-x,1/2-y,1/2-z
1/2+x,1/2+y,1/2-z
1/2-x,1/2+y,z
1/2+x,1/2-y,z
loop_
_atom_site_type_symbol
_atom_site_label
_atom_site_fract_x
_atom_site_fract_y
_atom_site_fract_z
Si Si1 0.000000 0.500000 0.250000
Si Si2 0.327133 0.206709 0.606048
Si Si3 0.135541 0.285860 0.392930
Si Si4 0.114457 0.706463 0.500000
Si Si5 0.027290 0.192770 0.824104
Si Si6 0.580683 0.774589 0.000000
O O1 0.946309 0.643300 0.214896
O O2 0.228628 0.212406 0.626974
O O3 0.331202 0.277432 0.548365
O O4 0.388620 0.336470 0.640310
O O5 0.365983 0.004794 0.606541
O O6 0.122722 0.197708 0.448490
O O7 0.057614 0.240311 0.356102
O O8 0.096339 0.491081 0.500000
O O9 0.018827 0.795200 0.500000
O O10 0.000000 0.000000 0.797381
#
# Coordination Sequence:
#
# PCOD8295299 Si02
#       6
#     4  16  16   8  16   8
#     4  12  26  52  76  96 132 170 222 292 360 396
#     4  11  21  39  65  99 142 182 226 274 330 399
#     4  11  21  39  65  99 142 182 226 274 330 399
#     4   9  17  32  60  95 138 190 224 264 323 393
#     4  12  25  46  74 101 130 175 223 281 348 408
#     4   9  17  32  60  95 138 190 224 264 323 393
#
# _framework density 22.898261000000002
#
# number of rings (size 3 to 8) (size 9 to 14) (size 15 to 20)
#    0.000    1.176    4.706    2.471    0.000    0.000 
#    0.000    5.882    0.000    0.000    0.000    0.000 
#    0.000    0.000    0.000    0.000    0.000    0.000 
#
# Total GULP energy -421317.275961 kJ/mol
# GULP energy per Si atom -12391.684587 kJ/mol
# Density = 2.284614 g / cm^3
# Si number density = 22.898261 Si / 1000 Ang^3
#
#
#
# Elastic Constant Matrix: (Units=GPa)
#
#
# Indices 1 2 3 4 5 6 
#
# 1 164.0512 3.4982 41.7645 0.0000 0.0000 0.0000
# 2 3.4982 72.0030 26.1406 0.0000 0.0000 0.0000
# 3 41.7645 26.1406 113.3426 0.0000 0.0000 0.0000
# 4 0.0000 0.0000 0.0000 12.8764 0.0000 0.0000
# 5 0.0000 0.0000 0.0000 0.0000 6.3835 0.0000
# 6 0.0000 0.0000 0.0000 0.0000 0.0000 27.5510
#
#
#
# Elastic Compliance Matrix: (Units=1/GPa)
#
#
# Indices 1 2 3 4 5 6 
#
# 1 0.006753 0.000628 -0.002633 0.000000 0.000000 0.000000
# 2 0.000628 0.015216 -0.003741 0.000000 0.000000 0.000000
# 3 -0.002633 -0.003741 0.010656 0.000000 0.000000 0.000000
# 4 0.000000 0.000000 0.000000 0.077662 0.000000 0.000000
# 5 0.000000 0.000000 0.000000 0.000000 0.156654 0.000000
# 6 0.000000 0.000000 0.000000 0.000000 0.000000 0.036296
#
#
# Mechanical properties :
#
#
# Convention : Reuss Voigt Hill
#
# Bulk Modulus (GPa) = 47.32029 54.68926 51.00478
# Shear Modulus (GPa) = 15.53895 27.89507 21.71701
#
# Velocity S-wave (km/s) = 2.60784 3.49408 3.08297
# Velocity P-wave (km/s) = 5.45693 6.34142 5.91573
#
# Compressibility (1/GPa) = 0.02113258
#
# Stress axis : x y z
#
# Youngs Moduli (GPa) = 148.09151 65.72100 93.84631
#
# Poissons Ratio (x) = -0.04126 0.24710
# Poissons Ratio (y) = -0.09298 0.35104
# Poissons Ratio (z) = 0.38992 0.24584
#
# Static dielectric constant tensor:
#      x y z
#    x 3.938530 0.000000 0.000000 
#    y 0.000000 4.196850 0.000000 
#    z 0.000000 0.000000 4.264750 
# 
# 
# High freq. dielectric constant tensor:
#      x y z
#    x 1.894080 0.000000 0.000000 
#    y 0.000000 1.908470 0.000000 
#    z 0.000000 0.000000 1.887860 
# 
# From -- ./inp_files/48465.got.cif
#   From: 2010.03.12/outbox.cif.g09.slc.cpg/sg72_25_cif.got.tgz:48465.got - 2010.04.16 14:54:00.
