data_PCOD8295007
_publ_section_title
;
Structure prediction by ZEFSAII (Michael W. Deem and Ramdas Pophale) SiO2 
 PCOD8295007
Probable space group: I B A M
;
_chemical_formula_sum "Si O2"
_cell_formula_units_Z 88
_cell_length_a 10.719758
_cell_length_b 26.061081
_cell_length_c 15.052451
_cell_angle_alpha 90.000000
_cell_angle_beta 90.000000
_cell_angle_gamma 90.000000
_cell_volume 4205.180379
_symmetry_space_group_name_H-M "I B A M"
_symmetry_group_IT_number 72
_symmetry_cell_setting 'orthorhombic'
loop_
_space_group_symop_operation_xyz
x,y,z
-x,-y,z
x,-y,1/2-z
-x,y,1/2-z
-x,-y,-z
x,y,-z
-x,y,1/2+z
x,-y,1/2+z
1/2+x,1/2+y,1/2+z
1/2-x,1/2-y,1/2+z
1/2+x,1/2-y,-z
1/2-x,1/2+y,-z
1/2-x,1/2-y,1/2-z
1/2+x,1/2+y,1/2-z
1/2-x,1/2+y,z
1/2+x,1/2-y,z
loop_
_atom_site_type_symbol
_atom_site_label
_atom_site_fract_x
_atom_site_fract_y
_atom_site_fract_z
Si Si1 0.522276 0.293156 0.597135
Si Si2 0.333652 0.117481 0.601368
Si Si3 0.430930 0.947724 0.400263
Si Si4 0.780021 0.058014 0.256145
Si Si5 0.500000 0.371220 0.250000
Si Si6 0.721164 0.231324 0.847805
O O1 0.510168 0.318158 0.500000
O O2 0.548842 0.336855 0.669179
O O3 0.395596 0.262419 0.614058
O O4 0.649150 0.258575 0.598711
O O5 0.281940 0.119615 0.500000
O O6 0.477843 0.101061 0.600772
O O7 0.260101 0.074610 0.657180
O O8 0.319424 0.172047 0.649068
O O9 0.375101 0.954789 0.500000
O O10 0.327193 0.935214 0.328420
O O11 0.500000 0.000000 0.371138
O O12 0.891223 0.093841 0.289624
O O13 0.827389 0.000000 0.250000
O O14 0.750000 0.250000 0.750000
#
# Coordination Sequence:
#
# PCOD8295007 Si02
#       6
#    16  16  16  16   8  16
#     4  12  25  46  72  99 138 185 232 290 356 423
#     4  11  23  41  69 102 138 178 222 279 353 418
#     4  10  22  41  67 102 138 177 231 291 348 411
#     4  12  24  41  68  98 136 183 232 283 342 406
#     4  12  27  46  62  98 138 186 237 288 332 418
#     4  12  24  46  71 103 139 179 235 292 354 420
#
# _framework density 20.926570000000002
#
# number of rings (size 3 to 8) (size 9 to 14) (size 15 to 20)
#    0.000    0.545    5.455    2.455    0.000    5.091 
#    0.000    1.818    0.000    3.273    0.000    0.000 
#    0.000    0.000    0.000    0.000    0.000    0.000 
#
# Total GULP energy -545545.467637 kJ/mol
# GULP energy per Si atom -12398.760628 kJ/mol
# Density = 2.087894 g / cm^3
# Si number density = 20.926570 Si / 1000 Ang^3
#
#
#
# Elastic Constant Matrix: (Units=GPa)
#
#
# Indices 1 2 3 4 5 6 
#
# 1 143.8807 50.3136 48.6261 -0.0001 0.0000 0.0000
# 2 50.3136 119.2128 64.9204 -0.0002 0.0002 0.0000
# 3 48.6261 64.9204 148.1108 -0.0014 0.0005 0.0002
# 4 -0.0001 -0.0002 -0.0014 15.1081 0.0003 0.0001
# 5 0.0000 0.0002 0.0005 0.0003 -5.6159 -0.0001
# 6 0.0000 0.0000 0.0002 0.0001 -0.0001 41.7370
#
#
#
# Elastic Compliance Matrix: (Units=1/GPa)
#
#
# Indices 1 2 3 4 5 6 
#
# 1 0.008428 -0.002693 -0.001587 0.000000 0.000000 0.000000
# 2 -0.002693 0.011879 -0.004323 0.000000 0.000000 0.000000
# 3 -0.001587 -0.004323 0.009167 0.000001 0.000001 0.000000
# 4 0.000000 0.000000 0.000001 0.066190 0.000003 0.000000
# 5 0.000000 0.000000 0.000001 0.000003 -0.178067 0.000000
# 6 0.000000 0.000000 0.000000 0.000000 0.000000 0.023960
#
#
# Mechanical properties :
#
#
# Convention : Reuss Voigt Hill
#
# Bulk Modulus (GPa) = 81.50111 82.10274 81.80192
# Shear Modulus (GPa) = -134.59505 26.73546 -53.92979
#
# Velocity S-wave (km/s) = -8.02854 3.57821 -5.08202
# Velocity P-wave (km/s) = 6.84926 7.50935 2.17691
#
# Compressibility (1/GPa) = 0.01226977
#
# Stress axis : x y z
#
# Youngs Moduli (GPa) = 118.64998 84.18222 109.08299
#
# Poissons Ratio (x) = 0.22671 0.17307
# Poissons Ratio (y) = 0.31953 0.47153
# Poissons Ratio (z) = 0.18825 0.36389
#
# Static dielectric constant tensor:
#      x y z
#    x 4.182080 0.000000 -0.000010 
#    y 0.000000 3.891820 0.000000 
#    z -0.000010 0.000000 5.355330 
# 
# 
# High freq. dielectric constant tensor:
#      x y z
#    x 1.827150 0.000000 0.000000 
#    y 0.000000 1.816010 0.000000 
#    z 0.000000 0.000000 1.831420 
# 
# From -- ./inp_files/20320.got.cif
#   From: 2010.03.12/outbox.cif.g09.slc.cpg/sg72_11_cif.got.tgz:20320.got - 2010.04.16 14:54:00.
