data_PCOD8295312
_publ_section_title
;
Structure prediction by ZEFSAII (Michael W. Deem and Ramdas Pophale) SiO2 
 PCOD8295312
Probable space group: I B A M
;
_chemical_formula_sum "Si O2"
_cell_formula_units_Z 112
_cell_length_a 15.926459
_cell_length_b 27.965817
_cell_length_c 14.576999
_cell_angle_alpha 90.000000
_cell_angle_beta 90.000000
_cell_angle_gamma 90.000000
_cell_volume 6492.543429
_symmetry_space_group_name_H-M "I B A M"
_symmetry_group_IT_number 72
_symmetry_cell_setting 'orthorhombic'
loop_
_space_group_symop_operation_xyz
x,y,z
-x,-y,z
x,-y,1/2-z
-x,y,1/2-z
-x,-y,-z
x,y,-z
-x,y,1/2+z
x,-y,1/2+z
1/2+x,1/2+y,1/2+z
1/2-x,1/2-y,1/2+z
1/2+x,1/2-y,-z
1/2-x,1/2+y,-z
1/2-x,1/2-y,1/2-z
1/2+x,1/2+y,1/2-z
1/2-x,1/2+y,z
1/2+x,1/2-y,z
loop_
_atom_site_type_symbol
_atom_site_label
_atom_site_fract_x
_atom_site_fract_y
_atom_site_fract_z
Si Si1 0.801734 0.735426 0.896806
Si Si2 0.271237 0.161504 0.107031
Si Si3 0.884560 0.207916 0.893779
Si Si4 0.043619 0.891045 0.107308
Si Si5 0.409083 0.509724 0.355577
Si Si6 0.360563 0.412705 0.397133
Si Si7 0.409256 0.202932 0.772596
O O1 0.784766 0.791300 0.878524
O O2 0.715567 0.706545 0.883518
O O3 0.867143 0.715741 0.824068
O O4 0.837114 0.727947 0.000000
O O5 0.217061 0.116602 0.146360
O O6 0.354700 0.164833 0.169315
O O7 0.297712 0.156043 0.000000
O O8 0.919407 0.158059 0.853242
O O9 0.924464 0.249838 0.833470
O O10 0.909780 0.216438 0.000000
O O11 0.110482 0.934311 0.126691
O O12 0.951052 0.901789 0.152109
O O13 0.032601 0.885419 0.000000
O O14 0.500000 0.500000 0.402100
O O15 0.411789 0.500000 0.250000
O O16 0.343988 0.470440 0.396715
O O17 0.365340 0.393100 0.500000
O O18 0.500000 0.180126 0.750000
#
# Coordination Sequence:
#
# PCOD8295312 Si02
#       7
#    16  16  16  16  16  16  16
#     4   9  19  34  48  63  90 122 157 200 244 288
#     4   9  18  33  50  68  93 125 162 205 244 290
#     4   9  18  33  49  68  94 125 161 202 243 289
#     4   9  17  29  46  67  94 127 162 194 231 282
#     4   9  17  27  38  64  97 127 158 194 228 266
#     4   9  17  29  47  66  91 130 163 189 231 283
#     4  11  22  32  47  70  93 124 162 208 250 290
#
# _framework density 17.250558000000002
#
# number of rings (size 3 to 8) (size 9 to 14) (size 15 to 20)
#    0.000    2.714    0.000    3.429    2.000    5.143 
#    2.571    0.000    0.000    0.000    0.000    0.000 
#    0.000    5.143    0.000   18.000    0.000    0.286 
#
# Total GULP energy -693935.351653 kJ/mol
# GULP energy per Si atom -12391.702708 kJ/mol
# Density = 1.721130 g / cm^3
# Si number density = 17.250558 Si / 1000 Ang^3
#
#
#
# Elastic Constant Matrix: (Units=GPa)
#
#
# Indices 1 2 3 4 5 6 
#
# 1 91.6364 53.6196 38.0555 0.0000 0.0000 0.0001
# 2 53.6196 117.2478 18.2611 0.0000 0.0000 -0.0005
# 3 38.0555 18.2611 62.1511 -0.0002 0.0000 -0.0023
# 4 0.0000 0.0000 -0.0002 16.6782 0.0000 -0.0009
# 5 0.0000 0.0000 0.0000 0.0000 19.1149 -0.0004
# 6 0.0001 -0.0005 -0.0023 -0.0009 -0.0004 181.6562
#
#
#
# Elastic Compliance Matrix: (Units=1/GPa)
#
#
# Indices 1 2 3 4 5 6 
#
# 1 0.019143 -0.007261 -0.009588 0.000000 0.000000 0.000000
# 2 -0.007261 0.011692 0.001011 0.000000 0.000000 0.000000
# 3 -0.009588 0.001011 0.021664 0.000000 0.000000 0.000000
# 4 0.000000 0.000000 0.000000 0.059958 0.000000 0.000000
# 5 0.000000 0.000000 0.000000 0.000000 0.052315 0.000000
# 6 0.000000 0.000000 0.000000 0.000000 0.000000 0.005505
#
#
# Mechanical properties :
#
#
# Convention : Reuss Voigt Hill
#
# Bulk Modulus (GPa) = 48.02610 54.54531 51.28571
# Shear Modulus (GPa) = 23.93535 54.22979 39.08257
#
# Velocity S-wave (km/s) = 3.72897 5.61291 4.76498
# Velocity P-wave (km/s) = 6.81477 8.58455 7.75034
#
# Compressibility (1/GPa) = 0.02082201
#
# Stress axis : x y z
#
# Youngs Moduli (GPa) = 52.23742 85.52672 46.16010
#
# Poissons Ratio (x) = 0.62103 0.44259
# Poissons Ratio (y) = 0.37931 -0.04666
# Poissons Ratio (z) = 0.50086 -0.08645
#
# Static dielectric constant tensor:
#      x y z
#    x 3.084990 0.000000 0.000000 
#    y 0.000000 3.519440 0.000000 
#    z 0.000000 0.000000 3.361000 
# 
# 
# High freq. dielectric constant tensor:
#      x y z
#    x 1.620540 0.000000 0.000000 
#    y 0.000000 1.648450 0.000000 
#    z 0.000000 0.000000 1.677890 
# 
# From -- ./inp_files/22316.got.cif
#   From: 2010.03.12/outbox.cif.g09.slc.cpg/sg72_12_cif.got.tgz:22316.got - 2010.04.16 14:54:00.
