data_PCOD8295216
_publ_section_title
;
Structure prediction by ZEFSAII (Michael W. Deem and Ramdas Pophale) SiO2 
 PCOD8295216
Probable space group: I B A M
;
_chemical_formula_sum "Si O2"
_cell_formula_units_Z 60
_cell_length_a 5.546467
_cell_length_b 16.807727
_cell_length_c 30.122201
_cell_angle_alpha 90.000000
_cell_angle_beta 90.000000
_cell_angle_gamma 90.000000
_cell_volume 2808.097100
_symmetry_space_group_name_H-M "I B A M"
_symmetry_group_IT_number 72
_symmetry_cell_setting 'orthorhombic'
loop_
_space_group_symop_operation_xyz
x,y,z
-x,-y,z
x,-y,1/2-z
-x,y,1/2-z
-x,-y,-z
x,y,-z
-x,y,1/2+z
x,-y,1/2+z
1/2+x,1/2+y,1/2+z
1/2-x,1/2-y,1/2+z
1/2+x,1/2-y,-z
1/2-x,1/2+y,-z
1/2-x,1/2-y,1/2-z
1/2+x,1/2+y,1/2-z
1/2-x,1/2+y,z
1/2+x,1/2-y,z
loop_
_atom_site_type_symbol
_atom_site_label
_atom_site_fract_x
_atom_site_fract_y
_atom_site_fract_z
Si Si1 0.623838 0.914740 0.950317
Si Si2 0.038197 0.701318 0.622016
Si Si3 0.684795 0.065607 0.177789
Si Si4 0.000000 0.000000 0.750000
Si Si5 0.500000 0.500000 0.601232
O O1 0.465193 0.852988 0.922094
O O2 0.886043 0.929120 0.928306
O O3 0.500000 0.000000 0.951640
O O4 0.655684 0.880379 0.000000
O O5 0.283708 0.752423 0.622088
O O6 0.051309 0.649120 0.667620
O O7 0.867379 0.065270 0.218977
O O8 0.800769 0.041735 0.131154
O O9 0.500000 0.000000 0.193555
#
# Coordination Sequence:
#
# PCOD8295216 Si02
#       5
#    16  16  16   4   8
#     4  11  23  40  66 100 135 186 250 299 334 403
#     4  12  26  44  69 101 148 193 227 280 362 433
#     4  11  22  44  72 102 132 181 243 297 358 438
#     4  10  26  40  82 102 130 172 254 312 358 422
#     4  11  17  39  71  98 132 180 241 303 349 399
#
# _framework density 21.366783999999999
#
# number of rings (size 3 to 8) (size 9 to 14) (size 15 to 20)
#    0.000    0.800    5.333    2.400    3.733    1.067 
#    0.000    1.333    0.000    0.000    0.000    0.000 
#    0.000    0.000    0.000    0.000    0.000    0.000 
#
# Total GULP energy -371751.340629 kJ/mol
# GULP energy per Si atom -12391.711354 kJ/mol
# Density = 2.131815 g / cm^3
# Si number density = 21.366784 Si / 1000 Ang^3
#
#
#
# Elastic Constant Matrix: (Units=GPa)
#
#
# Indices 1 2 3 4 5 6 
#
# 1 131.9035 55.2147 54.6639 0.0000 0.0000 0.0000
# 2 55.2147 108.1822 56.9383 0.0000 0.0000 0.0000
# 3 54.6639 56.9383 155.5636 0.0000 0.0000 0.0000
# 4 0.0000 0.0000 0.0000 -0.9036 0.0000 0.0000
# 5 0.0000 0.0000 0.0000 0.0000 26.9896 0.0000
# 6 0.0000 0.0000 0.0000 0.0000 0.0000 52.4961
#
#
#
# Elastic Compliance Matrix: (Units=1/GPa)
#
#
# Indices 1 2 3 4 5 6 
#
# 1 0.010152 -0.004092 -0.002070 0.000000 0.000000 0.000000
# 2 -0.004092 0.013099 -0.003356 0.000000 0.000000 0.000000
# 3 -0.002070 -0.003356 0.008384 0.000000 0.000000 0.000000
# 4 0.000000 0.000000 0.000000 -1.106672 0.000000 0.000000
# 5 0.000000 0.000000 0.000000 0.000000 0.037051 0.000000
# 6 0.000000 0.000000 0.000000 0.000000 0.000000 0.019049
#
#
# Mechanical properties :
#
#
# Convention : Reuss Voigt Hill
#
# Bulk Modulus (GPa) = 79.37446 81.03145 80.20295
# Shear Modulus (GPa) = -5.02159 30.97191 12.97516
#
# Velocity S-wave (km/s) = -1.53469 3.81141 2.46693
# Velocity P-wave (km/s) = 5.83856 7.57466 6.76255
#
# Compressibility (1/GPa) = 0.01259851
#
# Stress axis : x y z
#
# Youngs Moduli (GPa) = 98.50324 76.34302 119.27588
#
# Poissons Ratio (x) = 0.31241 0.24685
# Poissons Ratio (y) = 0.40309 0.40033
# Poissons Ratio (z) = 0.20386 0.25623
#
# Static dielectric constant tensor:
#      x y z
#    x 4.012440 0.000000 0.000000 
#    y 0.000000 3.882680 0.000000 
#    z 0.000000 0.000000 4.080000 
# 
# 
# High freq. dielectric constant tensor:
#      x y z
#    x 1.854640 0.000000 0.000000 
#    y 0.000000 1.817610 0.000000 
#    z 0.000000 0.000000 1.841350 
# 
# From -- ./inp_files/50140.got.cif
#   From: 2010.03.12/outbox.cif.g09.slc.cpg/sg72_26_cif.got.tgz:50140.got - 2010.04.16 14:54:00.
