data_PCOD8295024
_publ_section_title
;
Structure prediction by ZEFSAII (Michael W. Deem and Ramdas Pophale) SiO2 
 PCOD8295024
Probable space group: I B A M
;
_chemical_formula_sum "Si O2"
_cell_formula_units_Z 96
_cell_length_a 13.407985
_cell_length_b 18.823239
_cell_length_c 18.137791
_cell_angle_alpha 90.000000
_cell_angle_beta 90.000000
_cell_angle_gamma 90.000000
_cell_volume 4577.646639
_symmetry_space_group_name_H-M "I B A M"
_symmetry_group_IT_number 72
_symmetry_cell_setting 'orthorhombic'
loop_
_space_group_symop_operation_xyz
x,y,z
-x,-y,z
x,-y,1/2-z
-x,y,1/2-z
-x,-y,-z
x,y,-z
-x,y,1/2+z
x,-y,1/2+z
1/2+x,1/2+y,1/2+z
1/2-x,1/2-y,1/2+z
1/2+x,1/2-y,-z
1/2-x,1/2+y,-z
1/2-x,1/2-y,1/2-z
1/2+x,1/2+y,1/2-z
1/2-x,1/2+y,z
1/2+x,1/2-y,z
loop_
_atom_site_type_symbol
_atom_site_label
_atom_site_fract_x
_atom_site_fract_y
_atom_site_fract_z
Si Si1 0.540381 0.387442 0.828991
Si Si2 0.754124 0.031715 0.329760
Si Si3 0.852584 0.351967 0.914111
Si Si4 0.644176 0.414692 0.416419
Si Si5 0.030255 0.720838 0.666336
Si Si6 0.274731 0.216932 0.584134
O O1 0.500000 0.407492 0.750000
O O2 0.651224 0.416487 0.832584
O O3 0.466711 0.426824 0.885439
O O4 0.533874 0.304588 0.845974
O O5 0.663921 0.077832 0.364092
O O6 0.726218 0.000000 0.250000
O O7 0.772989 0.964137 0.380178
O O8 0.954863 0.315499 0.889887
O O9 0.761744 0.297084 0.901417
O O10 0.860068 0.373345 0.000000
O O11 0.639200 0.437199 0.500000
O O12 0.679536 0.333781 0.403458
O O13 0.000000 0.700622 0.750000
O O14 0.140817 0.694412 0.643407
O O15 0.315029 0.209378 0.500000
#
# Coordination Sequence:
#
# PCOD8295024 Si02
#       6
#    16  16  16  16  16  16
#     4  11  22  39  60  98 135 171 212 274 340 397
#     4  12  25  41  67  95 138 180 218 272 340 410
#     4  11  24  44  68  99 134 177 228 280 333 403
#     4  11  24  40  63  95 131 175 222 272 336 411
#     4  11  24  39  69 100 129 169 228 284 337 397
#     4  10  22  42  66  93 132 174 221 278 339 401
#
# _framework density 20.971475000000002
#
# number of rings (size 3 to 8) (size 9 to 14) (size 15 to 20)
#    0.000    1.000    5.000    1.500    2.333    3.333 
#    0.000    0.833    0.000    3.000    0.000    0.000 
#    0.000    0.000    0.000    0.000    0.000    0.000 
#
# Total GULP energy -595204.291037 kJ/mol
# GULP energy per Si atom -12400.089397 kJ/mol
# Density = 2.092374 g / cm^3
# Si number density = 20.971475 Si / 1000 Ang^3
#
#
#
# Elastic Constant Matrix: (Units=GPa)
#
#
# Indices 1 2 3 4 5 6 
#
# 1 68.6946 2.7584 44.1801 0.0000 0.0000 0.0000
# 2 2.7584 76.3546 55.5188 0.0000 0.0000 0.0000
# 3 44.1801 55.5188 130.5880 0.0000 0.0000 0.0000
# 4 0.0000 0.0000 0.0000 70.5364 0.0000 0.0000
# 5 0.0000 0.0000 0.0000 0.0000 23.8837 0.0000
# 6 0.0000 0.0000 0.0000 0.0000 0.0000 36.9032
#
#
#
# Elastic Compliance Matrix: (Units=1/GPa)
#
#
# Indices 1 2 3 4 5 6 
#
# 1 0.020458 0.006215 -0.009564 0.000000 0.000000 0.000000
# 2 0.006215 0.020845 -0.010965 0.000000 0.000000 0.000000
# 3 -0.009564 -0.010965 0.015555 0.000000 0.000000 0.000000
# 4 0.000000 0.000000 0.000000 0.014177 0.000000 0.000000
# 5 0.000000 0.000000 0.000000 0.000000 0.041870 0.000000
# 6 0.000000 0.000000 0.000000 0.000000 0.000000 0.027098
#
#
# Mechanical properties :
#
#
# Convention : Reuss Voigt Hill
#
# Bulk Modulus (GPa) = 35.42196 53.39464 44.40830
# Shear Modulus (GPa) = 28.08360 37.80997 32.94679
#
# Velocity S-wave (km/s) = 3.66339 4.25069 3.96792
# Velocity P-wave (km/s) = 5.90094 7.04323 6.49724
#
# Compressibility (1/GPa) = 0.02823108
#
# Stress axis : x y z
#
# Youngs Moduli (GPa) = 48.87979 47.97339 64.28899
#
# Poissons Ratio (x) = -0.29814 0.61483
# Poissons Ratio (y) = -0.30378 0.70491
# Poissons Ratio (z) = 0.46747 0.52601
#
# Static dielectric constant tensor:
#      x y z
#    x 3.342150 0.000000 0.000000 
#    y 0.000000 3.821960 0.000000 
#    z 0.000000 0.000000 3.893940 
# 
# 
# High freq. dielectric constant tensor:
#      x y z
#    x 1.808500 0.000000 0.000000 
#    y 0.000000 1.823500 0.000000 
#    z 0.000000 0.000000 1.830350 
# 
# From -- ./inp_files/21777.got.cif
#   From: 2010.03.12/outbox.cif.g09.slc.cpg/sg72_11_cif.got.tgz:21777.got - 2010.04.16 14:54:00.
