data_PCOD8295415
_publ_section_title
;
Structure prediction by ZEFSAII (Michael W. Deem and Ramdas Pophale) SiO2 
 PCOD8295415
Probable space group: I B A M
;
_chemical_formula_sum "Si O2"
_cell_formula_units_Z 96
_cell_length_a 29.147761
_cell_length_b 8.808815
_cell_length_c 17.631295
_cell_angle_alpha 90.000000
_cell_angle_beta 90.000000
_cell_angle_gamma 90.000000
_cell_volume 4526.962542
_symmetry_space_group_name_H-M "I B A M"
_symmetry_group_IT_number 72
_symmetry_cell_setting 'orthorhombic'
loop_
_space_group_symop_operation_xyz
x,y,z
-x,-y,z
x,-y,1/2-z
-x,y,1/2-z
-x,-y,-z
x,y,-z
-x,y,1/2+z
x,-y,1/2+z
1/2+x,1/2+y,1/2+z
1/2-x,1/2-y,1/2+z
1/2+x,1/2-y,-z
1/2-x,1/2+y,-z
1/2-x,1/2-y,1/2-z
1/2+x,1/2+y,1/2-z
1/2-x,1/2+y,z
1/2+x,1/2-y,z
loop_
_atom_site_type_symbol
_atom_site_label
_atom_site_fract_x
_atom_site_fract_y
_atom_site_fract_z
Si Si1 0.948173 0.680057 0.835702
Si Si2 0.717822 0.756856 0.676571
Si Si3 0.051413 0.660597 0.157100
Si Si4 0.626858 0.589886 0.322934
Si Si5 0.714375 0.931021 0.910352
Si Si6 0.862796 0.196487 0.088125
O O1 0.938700 0.512562 0.869627
O O2 0.940987 0.673525 0.746080
O O3 0.912856 0.809488 0.864369
O O4 0.000009 0.719476 0.860621
O O5 0.750000 0.750000 0.750000
O O6 0.668112 0.698644 0.703188
O O7 0.738396 0.654638 0.608836
O O8 0.711126 0.923271 0.642841
O O9 0.085334 0.767450 0.111566
O O10 0.606602 0.500000 0.250000
O O11 0.648863 0.469677 0.380636
O O12 0.672609 0.823467 0.883039
O O13 0.712773 0.971213 0.000000
O O14 0.857743 0.185264 0.000000
#
# Coordination Sequence:
#
# PCOD8295415 Si02
#       6
#    16  16  16  16  16  16
#     4   9  19  36  66  90 119 161 208 260 311 367
#     4  12  25  41  65  95 125 160 214 277 323 369
#     4   9  18  39  62  92 120 158 214 256 304 378
#     4  12  23  39  60  92 126 163 209 261 322 383
#     4  11  24  43  65  89 125 174 214 256 323 396
#     4  11  24  41  62  91 130 169 208 260 317 379
#
# _framework density 21.206272999999999
#
# number of rings (size 3 to 8) (size 9 to 14) (size 15 to 20)
#    0.000    1.333    1.667    6.000    0.000    3.333 
#    0.000    4.167    0.000    0.000    0.000    0.000 
#    0.000    0.000    0.000    0.000    0.000    0.000 
#
# Total GULP energy -595153.707302 kJ/mol
# GULP energy per Si atom -12399.035569 kJ/mol
# Density = 2.115801 g / cm^3
# Si number density = 21.206273 Si / 1000 Ang^3
#
#
#
# Elastic Constant Matrix: (Units=GPa)
#
#
# Indices 1 2 3 4 5 6 
#
# 1 118.3508 65.6244 23.8326 0.0000 0.0000 0.0000
# 2 65.6244 145.4757 45.6131 0.0000 0.0000 0.0000
# 3 23.8326 45.6131 52.9506 0.0000 0.0000 0.0000
# 4 0.0000 0.0000 0.0000 32.7125 0.0000 0.0000
# 5 0.0000 0.0000 0.0000 0.0000 24.9248 0.0000
# 6 0.0000 0.0000 0.0000 0.0000 0.0000 39.7839
#
#
#
# Elastic Compliance Matrix: (Units=1/GPa)
#
#
# Indices 1 2 3 4 5 6 
#
# 1 0.011303 -0.004800 -0.000952 0.000000 0.000000 0.000000
# 2 -0.004800 0.011456 -0.007708 0.000000 0.000000 0.000000
# 3 -0.000952 -0.007708 0.025954 0.000000 0.000000 0.000000
# 4 0.000000 0.000000 0.000000 0.030569 0.000000 0.000000
# 5 0.000000 0.000000 0.000000 0.000000 0.040121 0.000000
# 6 0.000000 0.000000 0.000000 0.000000 0.000000 0.025136
#
#
# Mechanical properties :
#
#
# Convention : Reuss Voigt Hill
#
# Bulk Modulus (GPa) = 45.88856 65.21304 55.55080
# Shear Modulus (GPa) = 27.97602 31.59803 29.78703
#
# Velocity S-wave (km/s) = 3.63607 3.86428 3.75191
# Velocity P-wave (km/s) = 6.27009 7.12241 6.70980
#
# Compressibility (1/GPa) = 0.02179193
#
# Stress axis : x y z
#
# Youngs Moduli (GPa) = 88.47315 87.28884 38.52940
#
# Poissons Ratio (x) = 0.41900 0.03669
# Poissons Ratio (y) = 0.42468 0.29699
# Poissons Ratio (z) = 0.08426 0.67284
#
# Static dielectric constant tensor:
#      x y z
#    x 4.169960 0.000000 0.000000 
#    y 0.000000 4.773780 0.000000 
#    z 0.000000 0.000000 3.525180 
# 
# 
# High freq. dielectric constant tensor:
#      x y z
#    x 1.840000 0.000000 0.000000 
#    y 0.000000 1.843660 0.000000 
#    z 0.000000 0.000000 1.804100 
# 
# From -- ./inp_files/40710.got.cif
#   From: 2010.03.12/outbox.cif.g09.slc.cpg/sg72_21_cif.got.tgz:40710.got - 2010.04.16 14:54:00.
