data_PCOD8295692
_publ_section_title
;
Structure prediction by ZEFSAII (Michael W. Deem and Ramdas Pophale) SiO2 
 PCOD8295692
Probable space group: I B C A 
;
_chemical_formula_sum "Si O2"
_cell_formula_units_Z 128
_cell_length_a 17.327933
_cell_length_b 22.722287
_cell_length_c 14.806021
_cell_angle_alpha 90.000000
_cell_angle_beta 90.000000
_cell_angle_gamma 90.000000
_cell_volume 5829.578598
_symmetry_space_group_name_H-M "I B C A "
_symmetry_group_IT_number 73
_symmetry_cell_setting 'orthorhombic'
loop_
_space_group_symop_operation_xyz
x,y,z
-x,1/2-y,z
x,-y,1/2-z
1/2-x,y,-z
-x,-y,-z
x,1/2+y,-z
-x,y,1/2+z
1/2+x,-y,z
1/2+x,1/2+y,1/2+z
1/2-x,-y,1/2+z
1/2+x,1/2-y,-z
-x,1/2+y,1/2-z
1/2-x,1/2-y,1/2-z
1/2+x,y,1/2-z
1/2-x,1/2+y,z
x,1/2-y,1/2+z
loop_
_atom_site_type_symbol
_atom_site_label
_atom_site_fract_x
_atom_site_fract_y
_atom_site_fract_z
Si Si1 0.380613 0.260207 0.360399
Si Si2 0.910004 0.875088 0.382759
Si Si3 0.887996 0.370864 0.418671
Si Si4 0.252707 0.439240 0.863092
Si Si5 0.412667 0.743334 0.935501
Si Si6 0.559218 0.373923 0.779066
Si Si7 0.269614 0.685750 0.901121
Si Si8 0.711013 0.070369 0.339703
O O1 0.386721 0.190129 0.346649
O O2 0.412358 0.276319 0.460110
O O3 0.431918 0.302909 0.295451
O O4 0.292303 0.279939 0.338646
O O5 0.937935 0.877007 0.488286
O O6 0.840451 0.921771 0.381978
O O7 0.977518 0.896920 0.316761
O O8 0.806861 0.404640 0.427149
O O9 0.865606 0.302679 0.416203
O O10 0.935648 0.388767 0.328309
O O11 0.231690 0.507242 0.880730
O O12 0.240260 0.421659 0.760926
O O13 0.500000 0.750000 0.898794
O O14 0.360140 0.697560 0.877517
O O15 0.620454 0.412671 0.836883
O O16 0.258111 0.616033 0.900031
O O17 0.250000 0.710788 0.000000
#
# Coordination Sequence:
#
# PCOD8295692 Si02
#       8
#    16  16  16  16  16  16  16  16
#     4   9  18  35  56  81 118 153 190 238 297 358
#     4  11  21  37  64  95 118 152 206 253 290 357
#     4  10  22  38  60  88 123 161 195 242 308 361
#     4  10  21  40  62  83 115 158 200 248 300 347
#     4  10  19  32  51  83 121 152 189 244 293 347
#     4  10  21  39  60  86 122 161 192 243 311 357
#     4   9  18  32  54  81 112 154 192 232 292 355
#     4   9  21  41  58  80 117 157 198 243 295 357
#
# _framework density 21.956990999999999
#
# number of rings (size 3 to 8) (size 9 to 14) (size 15 to 20)
#    0.000    2.250    0.000    3.000    0.000    6.000 
#    0.000   10.625    0.000    0.000    0.000    0.000 
#    0.000    0.000    0.000    0.000    0.000    0.000 
#
# Total GULP energy -792930.101426 kJ/mol
# GULP energy per Si atom -12389.532835 kJ/mol
# Density = 2.190702 g / cm^3
# Si number density = 21.956991 Si / 1000 Ang^3
#
#
#
# Elastic Constant Matrix: (Units=GPa)
#
#
# Indices 1 2 3 4 5 6 
#
# 1 157.3900 63.9641 47.2813 0.0000 0.0000 0.0000
# 2 63.9641 104.3702 24.1851 0.0000 0.0000 0.0000
# 3 47.2813 24.1851 58.9612 0.0000 0.0000 0.0000
# 4 0.0000 0.0000 0.0000 16.6406 0.0000 0.0000
# 5 0.0000 0.0000 0.0000 0.0000 21.7289 0.0000
# 6 0.0000 0.0000 0.0000 0.0000 0.0000 22.4475
#
#
#
# Elastic Compliance Matrix: (Units=1/GPa)
#
#
# Indices 1 2 3 4 5 6 
#
# 1 0.010158 -0.004794 -0.006180 0.000000 0.000000 0.000000
# 2 -0.004794 0.012850 -0.001427 0.000000 0.000000 0.000000
# 3 -0.006180 -0.001427 0.022501 0.000000 0.000000 0.000000
# 4 0.000000 0.000000 0.000000 0.060094 0.000000 0.000000
# 5 0.000000 0.000000 0.000000 0.000000 0.046022 0.000000
# 6 0.000000 0.000000 0.000000 0.000000 0.000000 0.044548
#
#
# Mechanical properties :
#
#
# Convention : Reuss Voigt Hill
#
# Bulk Modulus (GPa) = 48.28839 65.73138 57.00988
# Shear Modulus (GPa) = 21.94178 24.51613 23.22895
#
# Velocity S-wave (km/s) = 3.16461 3.34511 3.25611
# Velocity P-wave (km/s) = 5.94920 6.70232 6.33696
#
# Compressibility (1/GPa) = 0.02070891
#
# Stress axis : x y z
#
# Youngs Moduli (GPa) = 98.44278 77.82310 44.44235
#
# Poissons Ratio (x) = 0.37305 0.27464
# Poissons Ratio (y) = 0.47189 0.06341
# Poissons Ratio (z) = 0.60834 0.11104
#
# Static dielectric constant tensor:
#      x y z
#    x 4.038620 0.000000 0.000000 
#    y 0.000000 3.831300 0.000000 
#    z 0.000000 0.000000 3.937320 
# 
# 
# High freq. dielectric constant tensor:
#      x y z
#    x 1.856360 0.000000 0.000000 
#    y 0.000000 1.843370 0.000000 
#    z 0.000000 0.000000 1.859690 
# 
# From -- ./inp_files/22869.got.cif
#   From: 2010.03.12/outbox.cif.g09.slc.cpg/sg73_12_cif.got.tgz:22869.got - 2010.04.16 15:25:48.
