data_PCOD8295579
_publ_section_title
;
Structure prediction by ZEFSAII (Michael W. Deem and Ramdas Pophale) SiO2 
 PCOD8295579
Probable space group: I B C A 
;
_chemical_formula_sum "Si O2"
_cell_formula_units_Z 80
_cell_length_a 26.834737
_cell_length_b 8.489348
_cell_length_c 18.274414
_cell_angle_alpha 90.000000
_cell_angle_beta 90.000000
_cell_angle_gamma 90.000000
_cell_volume 4163.083670
_symmetry_space_group_name_H-M "I B C A "
_symmetry_group_IT_number 73
_symmetry_cell_setting 'orthorhombic'
loop_
_space_group_symop_operation_xyz
x,y,z
-x,1/2-y,z
x,-y,1/2-z
1/2-x,y,-z
-x,-y,-z
x,1/2+y,-z
-x,y,1/2+z
1/2+x,-y,z
1/2+x,1/2+y,1/2+z
1/2-x,-y,1/2+z
1/2+x,1/2-y,-z
-x,1/2+y,1/2-z
1/2-x,1/2-y,1/2-z
1/2+x,y,1/2-z
1/2-x,1/2+y,z
x,1/2-y,1/2+z
loop_
_atom_site_type_symbol
_atom_site_label
_atom_site_fract_x
_atom_site_fract_y
_atom_site_fract_z
Si Si1 0.122174 0.771574 0.301407
Si Si2 0.307619 0.872295 0.943307
Si Si3 0.000000 0.750000 0.160451
Si Si4 0.401587 0.401881 0.142694
Si Si5 0.060227 0.000000 0.750000
Si Si6 0.288549 0.273609 0.404987
O O1 0.119881 0.827593 0.217581
O O2 0.093956 0.603329 0.306273
O O3 0.178643 0.746486 0.331409
O O4 0.095846 0.907641 0.350620
O O5 0.364086 0.843957 0.919199
O O6 0.269923 0.766697 0.893544
O O7 0.291606 0.049927 0.931598
O O8 0.306882 0.838544 0.029409
O O9 0.955244 0.665822 0.116236
O O10 0.976386 0.885105 0.208735
#
# Coordination Sequence:
#
# PCOD8295579 Si02
#       6
#    16  16   8  16   8  16
#     4   9  19  33  52  77 103 132 168 209 251 298
#     4  10  20  33  53  75 102 135 169 207 251 305
#     4  10  18  30  52  74 102 134 168 208 252 294
#     4   9  19  35  51  74 103 134 170 209 251 296
#     4  10  18  30  52  76 100 132 168 208 248 300
#     4  10  20  35  54  76 103 135 167 206 253 304
#
# _framework density 19.216525000000001
#
# number of rings (size 3 to 8) (size 9 to 14) (size 15 to 20)
#    0.000    2.400    0.000    4.800    0.000    7.200 
#    0.000    2.000    0.000   15.600    0.000    0.000 
#    0.000    0.000    0.000    0.000    0.000    0.000 
#
# Total GULP energy -495602.629318 kJ/mol
# GULP energy per Si atom -12390.065733 kJ/mol
# Density = 1.917279 g / cm^3
# Si number density = 19.216525 Si / 1000 Ang^3
#
#
#
# Elastic Constant Matrix: (Units=GPa)
#
#
# Indices 1 2 3 4 5 6 
#
# 1 148.6770 56.2967 33.9816 0.0000 0.0000 0.0000
# 2 56.2967 107.2169 14.1345 0.0000 0.0000 0.0000
# 3 33.9816 14.1345 34.9067 0.0000 0.0000 0.0000
# 4 0.0000 0.0000 0.0000 14.7814 0.0000 0.0000
# 5 0.0000 0.0000 0.0000 0.0000 788.8608 0.0000
# 6 0.0000 0.0000 0.0000 0.0000 0.0000 33.0740
#
#
#
# Elastic Compliance Matrix: (Units=1/GPa)
#
#
# Indices 1 2 3 4 5 6 
#
# 1 0.010228 -0.004287 -0.008221 0.000000 0.000000 0.000000
# 2 -0.004287 0.011649 -0.000544 0.000000 0.000000 0.000000
# 3 -0.008221 -0.000544 0.036872 0.000000 0.000000 0.000000
# 4 0.000000 0.000000 0.000000 0.067652 0.000000 0.000000
# 5 0.000000 0.000000 0.000000 0.000000 0.001268 0.000000
# 6 0.000000 0.000000 0.000000 0.000000 0.000000 0.030235
#
#
# Mechanical properties :
#
#
# Convention : Reuss Voigt Hill
#
# Bulk Modulus (GPa) = 30.63257 55.51403 43.07330
# Shear Modulus (GPa) = 25.65544 179.76911 102.71227
#
# Velocity S-wave (km/s) = 3.65783 9.68258 7.31888
# Velocity P-wave (km/s) = 5.81506 12.40784 9.68941
#
# Compressibility (1/GPa) = 0.03264500
#
# Stress axis : x y z
#
# Youngs Moduli (GPa) = 97.76853 85.84092 27.12121
#
# Poissons Ratio (x) = 0.36798 0.22297
# Poissons Ratio (y) = 0.41911 0.01475
# Poissons Ratio (z) = 0.80379 0.04670
#
# Static dielectric constant tensor:
#      x y z
#    x 3.895870 0.000000 0.000000 
#    y 0.000000 4.465560 0.000000 
#    z 0.000000 0.000000 3.225970 
# 
# 
# High freq. dielectric constant tensor:
#      x y z
#    x 1.754780 0.000000 0.000000 
#    y 0.000000 1.769550 0.000000 
#    z 0.000000 0.000000 1.699580 
# 
# From -- ./inp_files/5602.got.cif
#   From: 2010.03.12/outbox.cif.g09.slc.cpg/sg73_3_cif.got.tgz:5602.got - 2010.04.16 15:25:48.
