data_PCOD8295790
_publ_section_title
;
Structure prediction by ZEFSAII (Michael W. Deem and Ramdas Pophale) SiO2 
 PCOD8295790
Probable space group: I B C A 
;
_chemical_formula_sum "Si O2"
_cell_formula_units_Z 104
_cell_length_a 20.478729
_cell_length_b 14.156033
_cell_length_c 17.391112
_cell_angle_alpha 90.000000
_cell_angle_beta 90.000000
_cell_angle_gamma 90.000000
_cell_volume 5041.640996
_symmetry_space_group_name_H-M "I B C A "
_symmetry_group_IT_number 73
_symmetry_cell_setting 'orthorhombic'
loop_
_space_group_symop_operation_xyz
x,y,z
-x,1/2-y,z
x,-y,1/2-z
1/2-x,y,-z
-x,-y,-z
x,1/2+y,-z
-x,y,1/2+z
1/2+x,-y,z
1/2+x,1/2+y,1/2+z
1/2-x,-y,1/2+z
1/2+x,1/2-y,-z
-x,1/2+y,1/2-z
1/2-x,1/2-y,1/2-z
1/2+x,y,1/2-z
1/2-x,1/2+y,z
x,1/2-y,1/2+z
loop_
_atom_site_type_symbol
_atom_site_label
_atom_site_fract_x
_atom_site_fract_y
_atom_site_fract_z
Si Si1 0.398786 0.981409 0.943805
Si Si2 0.233555 0.438850 0.589420
Si Si3 0.304131 0.256119 0.937447
Si Si4 0.057814 0.500000 0.250000
Si Si5 0.351931 0.944431 0.115047
Si Si6 0.440542 0.677569 0.014184
Si Si7 0.999829 0.356368 0.360883
O O1 0.434013 0.893016 0.903234
O O2 0.329883 0.994856 0.899930
O O3 0.441067 0.079556 0.936276
O O4 0.387915 0.957648 0.033496
O O5 0.250000 0.432393 0.500000
O O6 0.219159 0.331428 0.615871
O O7 0.296299 0.477933 0.633549
O O8 0.315852 0.343925 0.881859
O O9 0.371878 0.229854 0.979272
O O10 0.250000 0.285958 0.000000
O O11 0.098396 0.552639 0.315223
O O12 0.012659 0.421452 0.288227
O O13 0.500000 0.750000 0.035776
O O14 0.444044 0.642898 0.925765
O O15 0.000000 0.250000 0.328617
#
# Coordination Sequence:
#
# PCOD8295790 Si02
#       7
#    16  16  16   8  16  16  16
#     4  10  19  39  69  93 119 156 217 266 311 365
#     4   8  18  36  62  95 122 145 200 272 315 359
#     4  10  20  35  64  98 116 155 209 268 309 368
#     4  12  28  42  58  88 136 172 204 250 324 388
#     4  11  21  40  62  92 124 165 206 261 316 372
#     4  10  20  34  65 102 124 150 204 273 322 360
#     4  11  24  43  61  89 125 171 207 263 314 372
#
# _framework density 20.628204
#
# number of rings (size 3 to 8) (size 9 to 14) (size 15 to 20)
#    0.000    1.846    1.538    4.615    2.154    0.000 
#    5.538    2.308    0.000    0.000    0.000    0.000 
#    0.000    0.000    0.000    0.000    0.000    0.000 
#
# Total GULP energy -644468.955760 kJ/mol
# GULP energy per Si atom -12393.633765 kJ/mol
# Density = 2.058125 g / cm^3
# Si number density = 20.628204 Si / 1000 Ang^3
#
#
#
# Elastic Constant Matrix: (Units=GPa)
#
#
# Indices 1 2 3 4 5 6 
#
# 1 110.5784 62.7753 37.5674 0.0000 0.0000 0.0000
# 2 62.7753 154.0861 41.0103 0.0000 0.0000 0.0000
# 3 37.5674 41.0103 60.9292 0.0000 0.0000 0.0000
# 4 0.0000 0.0000 0.0000 22.2728 0.0000 0.0000
# 5 0.0000 0.0000 0.0000 0.0000 13.7331 0.0000
# 6 0.0000 0.0000 0.0000 0.0000 0.0000 35.3688
#
#
#
# Elastic Compliance Matrix: (Units=1/GPa)
#
#
# Indices 1 2 3 4 5 6 
#
# 1 0.013106 -0.003884 -0.005466 0.000000 0.000000 0.000000
# 2 -0.003884 0.009058 -0.003701 0.000000 0.000000 0.000000
# 3 -0.005466 -0.003701 0.022274 0.000000 0.000000 0.000000
# 4 0.000000 0.000000 0.000000 0.044898 0.000000 0.000000
# 5 0.000000 0.000000 0.000000 0.000000 0.072817 0.000000
# 6 0.000000 0.000000 0.000000 0.000000 0.000000 0.028273
#
#
# Mechanical properties :
#
#
# Convention : Reuss Voigt Hill
#
# Bulk Modulus (GPa) = 54.54519 67.58883 61.06701
# Shear Modulus (GPa) = 22.45776 26.55767 24.50772
#
# Velocity S-wave (km/s) = 3.30311 3.59199 3.45058
# Velocity P-wave (km/s) = 6.40678 7.07387 6.74857
#
# Compressibility (1/GPa) = 0.01833342
#
# Stress axis : x y z
#
# Youngs Moduli (GPa) = 76.30355 110.40498 44.89532
#
# Poissons Ratio (x) = 0.42886 0.24540
# Poissons Ratio (y) = 0.29640 0.16618
# Poissons Ratio (z) = 0.41707 0.40865
#
# Static dielectric constant tensor:
#      x y z
#    x 3.984430 0.000000 0.000000 
#    y 0.000000 4.337040 0.000000 
#    z 0.000000 0.000000 3.177020 
# 
# 
# High freq. dielectric constant tensor:
#      x y z
#    x 1.819010 0.000000 0.000000 
#    y 0.000000 1.833910 0.000000 
#    z 0.000000 0.000000 1.740800 
# 
# From -- ./inp_files/23201.got.cif
#   From: 2010.03.12/outbox.cif.g09.slc.cpg/sg73_12_cif.got.tgz:23201.got - 2010.04.16 15:25:48.
