data_PCOD8295217
_publ_section_title
;
Structure prediction by ZEFSAII (Michael W. Deem and Ramdas Pophale) SiO2 
 PCOD8295217
Probable space group: I B A M
;
_chemical_formula_sum "Si O2"
_cell_formula_units_Z 88
_cell_length_a 29.896044
_cell_length_b 5.520744
_cell_length_c 24.024825
_cell_angle_alpha 90.000000
_cell_angle_beta 90.000000
_cell_angle_gamma 90.000000
_cell_volume 3965.259060
_symmetry_space_group_name_H-M "I B A M"
_symmetry_group_IT_number 72
_symmetry_cell_setting 'orthorhombic'
loop_
_space_group_symop_operation_xyz
x,y,z
-x,-y,z
x,-y,1/2-z
-x,y,1/2-z
-x,-y,-z
x,y,-z
-x,y,1/2+z
x,-y,1/2+z
1/2+x,1/2+y,1/2+z
1/2-x,1/2-y,1/2+z
1/2+x,1/2-y,-z
1/2-x,1/2+y,-z
1/2-x,1/2-y,1/2-z
1/2+x,1/2+y,1/2-z
1/2-x,1/2+y,z
1/2+x,1/2-y,z
loop_
_atom_site_type_symbol
_atom_site_label
_atom_site_fract_x
_atom_site_fract_y
_atom_site_fract_z
Si Si1 0.225293 0.716545 0.121329
Si Si2 0.135371 0.221198 0.000000
Si Si3 0.310097 0.776516 0.500000
Si Si4 0.443577 0.631014 0.694311
Si Si5 0.586745 0.239131 0.887003
Si Si6 0.856115 0.428697 0.190427
Si Si7 0.000000 0.500000 0.140785
O O1 0.248716 0.462152 0.139086
O O2 0.178448 0.730902 0.154346
O O3 0.220190 0.711809 0.054806
O O4 0.104124 0.195478 0.052848
O O5 0.158379 0.485883 0.000000
O O6 0.167081 0.987256 0.000000
O O7 0.456186 0.500000 0.750000
O O8 0.432948 0.477418 0.639917
O O9 0.400391 0.788981 0.708090
O O10 0.488965 0.775765 0.680833
O O11 0.628174 0.149087 0.849027
O O12 0.545472 0.049057 0.894282
O O13 0.833684 0.500000 0.250000
#
# Coordination Sequence:
#
# PCOD8295217 Si02
#       7
#    16   8   8  16  16  16   8
#     4  12  27  45  74 109 145 183 235 298 364 426
#     4  12  26  44  81 103 140 192 245 291 356 436
#     4  12  24  49  74 106 139 182 247 298 350 429
#     4  11  23  43  71  99 142 192 243 299 356 425
#     4  11  24  45  68 104 137 195 236 300 357 429
#     4  11  24  44  69 101 144 188 241 286 361 437
#     4  10  26  42  64 106 146 181 247 300 364 418
#
# _framework density 22.19275
#
# number of rings (size 3 to 8) (size 9 to 14) (size 15 to 20)
#    0.000    0.727    3.636    3.273    5.091    3.273 
#    0.000    1.818    0.000    0.000    0.000    0.000 
#    0.000    0.000    0.000    0.000    0.000    0.000 
#
# Total GULP energy -545478.002628 kJ/mol
# GULP energy per Si atom -12397.227332 kJ/mol
# Density = 2.214224 g / cm^3
# Si number density = 22.192750 Si / 1000 Ang^3
#
#
#
# Elastic Constant Matrix: (Units=GPa)
#
#
# Indices 1 2 3 4 5 6 
#
# 1 89.4175 30.6174 28.1735 0.0000 0.0000 0.0000
# 2 30.6174 127.9966 29.0002 0.0000 0.0000 0.0000
# 3 28.1735 29.0002 121.6409 0.0000 0.0000 0.0000
# 4 0.0000 0.0000 0.0000 30.5716 0.0000 0.0000
# 5 0.0000 0.0000 0.0000 0.0000 31.1053 0.0000
# 6 0.0000 0.0000 0.0000 0.0000 0.0000 35.8159
#
#
#
# Elastic Compliance Matrix: (Units=1/GPa)
#
#
# Indices 1 2 3 4 5 6 
#
# 1 0.012792 -0.002525 -0.002361 0.000000 0.000000 0.000000
# 2 -0.002525 0.008757 -0.001503 0.000000 0.000000 0.000000
# 3 -0.002361 -0.001503 0.009126 0.000000 0.000000 0.000000
# 4 0.000000 0.000000 0.000000 0.032710 0.000000 0.000000
# 5 0.000000 0.000000 0.000000 0.000000 0.032149 0.000000
# 6 0.000000 0.000000 0.000000 0.000000 0.000000 0.027921
#
#
# Mechanical properties :
#
#
# Convention : Reuss Voigt Hill
#
# Bulk Modulus (GPa) = 55.87325 57.18190 56.52758
# Shear Modulus (GPa) = 35.16222 36.24949 35.70586
#
# Velocity S-wave (km/s) = 3.98477 4.04591 4.01546
# Velocity P-wave (km/s) = 6.81192 6.90274 6.85748
#
# Compressibility (1/GPa) = 0.01789765
#
# Stress axis : x y z
#
# Youngs Moduli (GPa) = 78.17448 114.19134 109.57674
#
# Poissons Ratio (x) = 0.28833 0.25869
# Poissons Ratio (y) = 0.19739 0.16469
# Poissons Ratio (z) = 0.18455 0.17163
#
# Static dielectric constant tensor:
#      x y z
#    x 4.077010 0.000000 0.000000 
#    y 0.000000 4.402370 0.000000 
#    z 0.000000 0.000000 3.995580 
# 
# 
# High freq. dielectric constant tensor:
#      x y z
#    x 1.883360 0.000000 0.000000 
#    y 0.000000 1.887170 0.000000 
#    z 0.000000 0.000000 1.870330 
# 
# From -- ./inp_files/46155.got.cif
#   From: 2010.03.12/outbox.cif.g09.slc.cpg/sg72_24_cif.got.tgz:46155.got - 2010.04.16 14:54:00.
