data_PCOD8295041
_publ_section_title
;
Structure prediction by ZEFSAII (Michael W. Deem and Ramdas Pophale) SiO2 
 PCOD8295041
Probable space group: I B A M
;
_chemical_formula_sum "Si O2"
_cell_formula_units_Z 64
_cell_length_a 12.368056
_cell_length_b 8.556452
_cell_length_c 26.444111
_cell_angle_alpha 90.000000
_cell_angle_beta 90.000000
_cell_angle_gamma 90.000000
_cell_volume 2798.492407
_symmetry_space_group_name_H-M "I B A M"
_symmetry_group_IT_number 72
_symmetry_cell_setting 'orthorhombic'
loop_
_space_group_symop_operation_xyz
x,y,z
-x,-y,z
x,-y,1/2-z
-x,y,1/2-z
-x,-y,-z
x,y,-z
-x,y,1/2+z
x,-y,1/2+z
1/2+x,1/2+y,1/2+z
1/2-x,1/2-y,1/2+z
1/2+x,1/2-y,-z
1/2-x,1/2+y,-z
1/2-x,1/2-y,1/2-z
1/2+x,1/2+y,1/2-z
1/2-x,1/2+y,z
1/2+x,1/2-y,z
loop_
_atom_site_type_symbol
_atom_site_label
_atom_site_fract_x
_atom_site_fract_y
_atom_site_fract_z
Si Si1 0.403327 0.707862 0.289378
Si Si2 0.822048 0.855219 0.057744
Si Si3 0.500000 0.500000 0.627337
Si Si4 0.714196 0.000000 0.250000
Si Si5 0.885230 0.495711 0.442715
O O1 0.500000 0.673811 0.250000
O O2 0.457361 0.651391 0.341646
O O3 0.364037 0.889628 0.284994
O O4 0.293778 0.606254 0.283443
O O5 0.834941 0.673109 0.060169
O O6 0.702529 0.887188 0.080974
O O7 0.831137 0.918624 0.000000
O O8 0.905441 0.944877 0.091706
O O9 0.906800 0.551891 0.500000
O O10 0.000000 0.500000 0.413068
#
# Coordination Sequence:
#
# PCOD8295041 Si02
#       5
#    16  16   8   8  16
#     4  11  22  46  67 101 130 171 219 280 346 414
#     4  10  23  41  65  96 139 190 233 284 342 400
#     4  12  24  40  68 100 146 176 234 284 338 424
#     4  10  22  42  78  92 134 172 212 278 354 406
#     4   9  20  41  65  90 127 179 236 285 336 395
#
# _framework density 22.869454000000001
#
# number of rings (size 3 to 8) (size 9 to 14) (size 15 to 20)
#    0.000    1.750    2.500    0.750    3.500    2.000 
#    0.000    0.000    0.000    0.000    0.000    0.000 
#    0.000    0.000    0.000    0.000    0.000    0.000 
#
# Total GULP energy -396447.401984 kJ/mol
# GULP energy per Si atom -12388.981312 kJ/mol
# Density = 2.281740 g / cm^3
# Si number density = 22.869454 Si / 1000 Ang^3
#
#
#
# Elastic Constant Matrix: (Units=GPa)
#
#
# Indices 1 2 3 4 5 6 
#
# 1 206.7994 71.7939 47.5724 0.0000 0.0000 0.0000
# 2 71.7939 108.0959 33.7939 0.0000 0.0000 0.0000
# 3 47.5724 33.7939 60.2905 0.0000 0.0000 0.0000
# 4 0.0000 0.0000 0.0000 12.5314 0.0000 0.0000
# 5 0.0000 0.0000 0.0000 0.0000 119.1519 0.0000
# 6 0.0000 0.0000 0.0000 0.0000 0.0000 32.2382
#
#
#
# Elastic Compliance Matrix: (Units=1/GPa)
#
#
# Indices 1 2 3 4 5 6 
#
# 1 0.006830 -0.003457 -0.003451 0.000000 0.000000 0.000000
# 2 -0.003457 0.012967 -0.004540 0.000000 0.000000 0.000000
# 3 -0.003451 -0.004540 0.021854 0.000000 0.000000 0.000000
# 4 0.000000 0.000000 0.000000 0.079800 0.000000 0.000000
# 5 0.000000 0.000000 0.000000 0.000000 0.008393 0.000000
# 6 0.000000 0.000000 0.000000 0.000000 0.000000 0.031019
#
#
# Mechanical properties :
#
#
# Convention : Reuss Voigt Hill
#
# Bulk Modulus (GPa) = 53.32284 75.72292 64.52288
# Shear Modulus (GPa) = 26.31433 47.58598 36.95016
#
# Velocity S-wave (km/s) = 3.39578 4.56649 4.02394
# Velocity P-wave (km/s) = 6.22430 7.80939 7.06146
#
# Compressibility (1/GPa) = 0.01875369
#
# Stress axis : x y z
#
# Youngs Moduli (GPa) = 146.41860 77.12157 45.75734
#
# Poissons Ratio (x) = 0.26662 0.15792
# Poissons Ratio (y) = 0.50619 0.20774
# Poissons Ratio (z) = 0.50533 0.35014
#
# Static dielectric constant tensor:
#      x y z
#    x 2.725310 0.000000 0.000000 
#    y 0.000000 3.181800 0.000000 
#    z 0.000000 0.000000 3.914260 
# 
# 
# High freq. dielectric constant tensor:
#      x y z
#    x 1.936190 0.000000 0.000000 
#    y 0.000000 1.906410 0.000000 
#    z 0.000000 0.000000 1.861780 
# 
# From -- ./inp_files/51151.got.cif
#   From: 2010.03.12/outbox.cif.g09.slc.cpg/sg72_26_cif.got.tgz:51151.got - 2010.04.16 14:54:00.
