data_PCOD8295449
_publ_section_title
;
Structure prediction by ZEFSAII (Michael W. Deem and Ramdas Pophale) SiO2 
 PCOD8295449
Probable space group: I B A M
;
_chemical_formula_sum "Si O2"
_cell_formula_units_Z 80
_cell_length_a 10.907903
_cell_length_b 13.730005
_cell_length_c 22.618147
_cell_angle_alpha 90.000000
_cell_angle_beta 90.000000
_cell_angle_gamma 90.000000
_cell_volume 3387.419513
_symmetry_space_group_name_H-M "I B A M"
_symmetry_group_IT_number 72
_symmetry_cell_setting 'orthorhombic'
loop_
_space_group_symop_operation_xyz
x,y,z
-x,-y,z
x,-y,1/2-z
-x,y,1/2-z
-x,-y,-z
x,y,-z
-x,y,1/2+z
x,-y,1/2+z
1/2+x,1/2+y,1/2+z
1/2-x,1/2-y,1/2+z
1/2+x,1/2-y,-z
1/2-x,1/2+y,-z
1/2-x,1/2-y,1/2-z
1/2+x,1/2+y,1/2-z
1/2-x,1/2+y,z
1/2+x,1/2-y,z
loop_
_atom_site_type_symbol
_atom_site_label
_atom_site_fract_x
_atom_site_fract_y
_atom_site_fract_z
Si Si1 0.723236 0.646880 0.170706
Si Si2 0.835989 0.351027 0.000000
Si Si3 0.082200 0.769575 0.500000
Si Si4 0.363619 0.979451 0.610099
Si Si5 0.765509 0.866622 0.196197
Si Si6 0.523044 0.394895 0.111797
O O1 0.800400 0.584093 0.123352
O O2 0.781464 0.752854 0.181569
O O3 0.723478 0.600325 0.236065
O O4 0.586670 0.657095 0.146793
O O5 0.802968 0.419220 0.056227
O O6 0.981661 0.319378 0.000000
O O7 0.734804 0.259674 0.000000
O O8 0.056750 0.824198 0.559836
O O9 0.359837 0.911650 0.669068
O O10 0.500000 0.000000 0.590614
O O11 0.871596 0.919883 0.159256
O O12 0.500000 0.500000 0.083010
#
# Coordination Sequence:
#
# PCOD8295449 Si02
#       6
#    16   8   8  16  16  16
#     4  11  26  44  74 103 148 197 239 311 369 450
#     4  12  27  52  76 115 150 203 258 315 386 461
#     4  12  27  46  80 107 152 197 246 314 377 457
#     4  12  27  47  72 106 153 190 251 309 380 456
#     4  11  25  46  69 108 145 192 252 297 380 444
#     4  12  24  45  73 104 144 187 254 306 367 437
#
# _framework density 23.616796999999998
#
# number of rings (size 3 to 8) (size 9 to 14) (size 15 to 20)
#    0.000    0.400    4.000    3.000    5.600    3.200 
#    0.000    1.000    0.000    0.000    0.000    0.000 
#    0.000    0.000    0.000    0.000    0.000    0.000 
#
# Total GULP energy -495661.257792 kJ/mol
# GULP energy per Si atom -12391.531445 kJ/mol
# Density = 2.356304 g / cm^3
# Si number density = 23.616797 Si / 1000 Ang^3
#
#
#
# Elastic Constant Matrix: (Units=GPa)
#
#
# Indices 1 2 3 4 5 6 
#
# 1 78.0086 31.1116 41.1804 0.0000 0.0000 0.0000
# 2 31.1116 47.0966 -11.9071 0.0000 0.0000 0.0000
# 3 41.1804 -11.9071 99.3731 0.0000 0.0000 0.0000
# 4 0.0000 0.0000 0.0000 95.3428 0.0000 0.0000
# 5 0.0000 0.0000 0.0000 0.0000 28.5011 0.0000
# 6 0.0000 0.0000 0.0000 0.0000 0.0000 41.1200
#
#
#
# Elastic Compliance Matrix: (Units=1/GPa)
#
#
# Indices 1 2 3 4 5 6 
#
# 1 0.030776 -0.024290 -0.015664 0.000000 0.000000 0.000000
# 2 -0.024290 0.041068 0.014987 0.000000 0.000000 0.000000
# 3 -0.015664 0.014987 0.018350 0.000000 0.000000 0.000000
# 4 0.000000 0.000000 0.000000 0.010488 0.000000 0.000000
# 5 0.000000 0.000000 0.000000 0.000000 0.035086 0.000000
# 6 0.000000 0.000000 0.000000 0.000000 0.000000 0.024319
#
#
# Mechanical properties :
#
#
# Convention : Reuss Voigt Hill
#
# Bulk Modulus (GPa) = 24.83939 38.36089 31.60014
# Shear Modulus (GPa) = 22.37715 43.93233 33.15474
#
# Velocity S-wave (km/s) = 3.08150 4.31770 3.75088
# Velocity P-wave (km/s) = 4.81678 6.41366 5.67170
#
# Compressibility (1/GPa) = 0.04025864
#
# Stress axis : x y z
#
# Youngs Moduli (GPa) = 32.49323 24.34985 54.49572
#
# Poissons Ratio (x) = 0.59147 0.85362
# Poissons Ratio (y) = 0.78927 -0.81672
# Poissons Ratio (z) = 0.50897 -0.36493
#
# Static dielectric constant tensor:
#      x y z
#    x 4.497330 0.000000 0.000000 
#    y 0.000000 4.318750 0.000000 
#    z 0.000000 0.000000 4.380280 
# 
# 
# High freq. dielectric constant tensor:
#      x y z
#    x 1.933070 0.000000 0.000000 
#    y 0.000000 1.939260 0.000000 
#    z 0.000000 0.000000 1.951110 
# 
# From -- ./inp_files/43170.got.cif
#   From: 2010.03.12/outbox.cif.g09.slc.cpg/sg72_22_cif.got.tgz:43170.got - 2010.04.16 14:54:00.
