data_PCOD8295210
_publ_section_title
;
Structure prediction by ZEFSAII (Michael W. Deem and Ramdas Pophale) SiO2 
 PCOD8295210
Probable space group: I B A M
;
_chemical_formula_sum "Si O2"
_cell_formula_units_Z 72
_cell_length_a 30.292191
_cell_length_b 8.664873
_cell_length_c 12.809496
_cell_angle_alpha 90.000000
_cell_angle_beta 90.000000
_cell_angle_gamma 90.000000
_cell_volume 3362.210736
_symmetry_space_group_name_H-M "I B A M"
_symmetry_group_IT_number 72
_symmetry_cell_setting 'orthorhombic'
loop_
_space_group_symop_operation_xyz
x,y,z
-x,-y,z
x,-y,1/2-z
-x,y,1/2-z
-x,-y,-z
x,y,-z
-x,y,1/2+z
x,-y,1/2+z
1/2+x,1/2+y,1/2+z
1/2-x,1/2-y,1/2+z
1/2+x,1/2-y,-z
1/2-x,1/2+y,-z
1/2-x,1/2-y,1/2-z
1/2+x,1/2+y,1/2-z
1/2-x,1/2+y,z
1/2+x,1/2-y,z
loop_
_atom_site_type_symbol
_atom_site_label
_atom_site_fract_x
_atom_site_fract_y
_atom_site_fract_z
Si Si1 0.198740 0.751777 0.122761
Si Si2 0.935330 0.371438 0.622471
Si Si3 0.468949 0.204309 0.878214
Si Si4 0.747356 0.000000 0.750000
Si Si5 0.890380 0.170747 0.218934
O O1 0.222055 0.894329 0.178619
O O2 0.216630 0.593698 0.170866
O O3 0.146366 0.759228 0.142409
O O4 0.208486 0.755660 0.000000
O O5 0.927485 0.349279 0.500000
O O6 0.940210 0.551880 0.652063
O O7 0.895321 0.283726 0.680335
O O8 0.980972 0.293305 0.666459
O O9 0.437695 0.343797 0.840965
O O10 0.477185 0.207005 0.000000
O O11 0.875548 0.000000 0.250000
#
# Coordination Sequence:
#
# PCOD8295210 Si02
#       5
#    16  16  16   8  16
#     4  11  24  46  71  99 132 164 207 263 317 384
#     4   9  20  38  60  86 120 168 223 269 308 369
#     4   9  19  38  61  84 118 168 221 269 316 363
#     4  10  24  48  74 100 122 168 212 250 328 390
#     4  12  24  37  55  94 129 167 205 260 317 381
#
# _framework density 21.414480999999999
#
# number of rings (size 3 to 8) (size 9 to 14) (size 15 to 20)
#    0.000    1.778    1.111    4.000    3.111    5.333 
#    0.000    3.333    0.000    0.000    0.000    0.000 
#    0.000    0.000    0.000    0.000    0.000    0.000 
#
# Total GULP energy -446316.625102 kJ/mol
# GULP energy per Si atom -12397.684031 kJ/mol
# Density = 2.136574 g / cm^3
# Si number density = 21.414481 Si / 1000 Ang^3
#
#
#
# Elastic Constant Matrix: (Units=GPa)
#
#
# Indices 1 2 3 4 5 6 
#
# 1 83.6409 23.8431 24.5210 0.0000 0.0000 0.0000
# 2 23.8431 72.2116 33.8153 0.0000 0.0000 0.0000
# 3 24.5210 33.8153 95.7601 0.0000 0.0000 0.0000
# 4 0.0000 0.0000 0.0000 20.8133 0.0000 0.0000
# 5 0.0000 0.0000 0.0000 0.0000 35.9329 0.0000
# 6 0.0000 0.0000 0.0000 0.0000 0.0000 23.8179
#
#
#
# Elastic Compliance Matrix: (Units=1/GPa)
#
#
# Indices 1 2 3 4 5 6 
#
# 1 0.013599 -0.003426 -0.002272 0.000000 0.000000 0.000000
# 2 -0.003426 0.017455 -0.005287 0.000000 0.000000 0.000000
# 3 -0.002272 -0.005287 0.012891 0.000000 0.000000 0.000000
# 4 0.000000 0.000000 0.000000 0.048046 0.000000 0.000000
# 5 0.000000 0.000000 0.000000 0.000000 0.027830 0.000000
# 6 0.000000 0.000000 0.000000 0.000000 0.000000 0.041985
#
#
# Mechanical properties :
#
#
# Convention : Reuss Voigt Hill
#
# Bulk Modulus (GPa) = 45.50544 46.21904 45.86224
# Shear Modulus (GPa) = 26.16418 27.40836 26.78627
#
# Velocity S-wave (km/s) = 3.49922 3.58145 3.54057
# Velocity P-wave (km/s) = 6.13368 6.22353 6.17877
#
# Compressibility (1/GPa) = 0.02197540
#
# Stress axis : x y z
#
# Youngs Moduli (GPa) = 73.53652 57.29035 77.57086
#
# Poissons Ratio (x) = 0.19627 0.17627
# Poissons Ratio (y) = 0.25193 0.41008
# Poissons Ratio (z) = 0.16710 0.30287
#
# Static dielectric constant tensor:
#      x y z
#    x 3.753410 0.000000 0.000000 
#    y 0.000000 3.697930 0.000000 
#    z 0.000000 0.000000 3.961640 
# 
# 
# High freq. dielectric constant tensor:
#      x y z
#    x 1.834190 0.000000 0.000000 
#    y 0.000000 1.822990 0.000000 
#    z 0.000000 0.000000 1.867040 
# 
# From -- ./inp_files/26208.got.cif
#   From: 2010.03.12/outbox.cif.g09.slc.cpg/sg72_14_cif.got.tgz:26208.got - 2010.04.16 14:54:00.
