data_PCOD8295472
_publ_section_title
;
Structure prediction by ZEFSAII (Michael W. Deem and Ramdas Pophale) SiO2 
 PCOD8295472
Probable space group: I B A M
;
_chemical_formula_sum "Si O2"
_cell_formula_units_Z 92
_cell_length_a 22.454022
_cell_length_b 9.186142
_cell_length_c 20.698284
_cell_angle_alpha 90.000000
_cell_angle_beta 90.000000
_cell_angle_gamma 90.000000
_cell_volume 4269.348823
_symmetry_space_group_name_H-M "I B A M"
_symmetry_group_IT_number 72
_symmetry_cell_setting 'orthorhombic'
loop_
_space_group_symop_operation_xyz
x,y,z
-x,-y,z
x,-y,1/2-z
-x,y,1/2-z
-x,-y,-z
x,y,-z
-x,y,1/2+z
x,-y,1/2+z
1/2+x,1/2+y,1/2+z
1/2-x,1/2-y,1/2+z
1/2+x,1/2-y,-z
1/2-x,1/2+y,-z
1/2-x,1/2-y,1/2-z
1/2+x,1/2+y,1/2-z
1/2-x,1/2+y,z
1/2+x,1/2-y,z
loop_
_atom_site_type_symbol
_atom_site_label
_atom_site_fract_x
_atom_site_fract_y
_atom_site_fract_z
Si Si1 0.567832 0.967659 0.613529
Si Si2 0.160316 0.423140 0.000000
Si Si3 0.268174 0.385702 0.500000
Si Si4 0.000000 0.000000 0.750000
Si Si5 0.313290 0.484548 0.868085
Si Si6 0.273346 0.000000 0.250000
Si Si7 0.862369 0.713339 0.318300
Si Si8 0.590261 0.685563 0.308835
O O1 0.615036 0.918453 0.559708
O O2 0.570017 0.842519 0.666713
O O3 0.500000 0.000000 0.588360
O O4 0.589855 0.111060 0.648777
O O5 0.196621 0.577770 0.000000
O O6 0.206707 0.281734 0.000000
O O7 0.287426 0.472235 0.563457
O O8 0.967327 0.911558 0.806269
O O9 0.264803 0.456489 0.812167
O O10 0.339690 0.321496 0.874975
O O11 0.358301 0.614151 0.851716
O O12 0.312694 0.132989 0.224726
O O13 0.892633 0.817247 0.266503
#
# Coordination Sequence:
#
# PCOD8295472 Si02
#       8
#    16   8   8   4  16   8  16  16
#     4  12  27  48  75 102 150 192 253 307 367 447
#     4  12  29  54  71 108 140 207 242 304 384 445
#     4  12  30  48  79 104 156 190 253 306 369 456
#     4  12  22  40  74 102 148 190 238 314 374 416
#     4  12  26  44  70 108 148 197 241 307 370 446
#     4  12  23  40  75 103 152 193 240 308 370 446
#     4  12  24  43  72 111 141 189 246 296 375 437
#     4  12  23  44  68 108 142 187 245 301 375 435
#
# _framework density 21.548953999999998
#
# number of rings (size 3 to 8) (size 9 to 14) (size 15 to 20)
#    0.000    0.000    6.957    2.870    4.870    0.696 
#    0.000    0.000    0.000    2.087    0.000    0.000 
#    0.000    0.000    0.000    0.000    0.000    0.000 
#
# Total GULP energy -569869.345524 kJ/mol
# GULP energy per Si atom -12388.464033 kJ/mol
# Density = 2.149991 g / cm^3
# Si number density = 21.548954 Si / 1000 Ang^3
#
#
#
# Elastic Constant Matrix: (Units=GPa)
#
#
# Indices 1 2 3 4 5 6 
#
# 1 121.5483 43.2598 38.2367 0.0000 0.0000 0.0000
# 2 43.2598 104.8115 19.8692 0.0000 0.0000 0.0000
# 3 38.2367 19.8692 96.0174 0.0000 0.0000 0.0000
# 4 0.0000 0.0000 0.0000 34.0033 0.0000 0.0000
# 5 0.0000 0.0000 0.0000 0.0000 32.2776 0.0000
# 6 0.0000 0.0000 0.0000 0.0000 0.0000 52.1587
#
#
#
# Elastic Compliance Matrix: (Units=1/GPa)
#
#
# Indices 1 2 3 4 5 6 
#
# 1 0.010648 -0.003738 -0.003467 0.000000 0.000000 0.000000
# 2 -0.003738 0.011242 -0.000838 0.000000 0.000000 0.000000
# 3 -0.003467 -0.000838 0.011969 0.000000 0.000000 0.000000
# 4 0.000000 0.000000 0.000000 0.029409 0.000000 0.000000
# 5 0.000000 0.000000 0.000000 0.000000 0.030981 0.000000
# 6 0.000000 0.000000 0.000000 0.000000 0.000000 0.019172
#
#
# Mechanical properties :
#
#
# Convention : Reuss Voigt Hill
#
# Bulk Modulus (GPa) = 56.26127 58.34541 57.30334
# Shear Modulus (GPa) = 36.91902 38.42202 37.67052
#
# Velocity S-wave (km/s) = 4.14365 4.22715 4.18561
# Velocity P-wave (km/s) = 7.00417 7.13860 7.07170
#
# Compressibility (1/GPa) = 0.01777422
#
# Stress axis : x y z
#
# Youngs Moduli (GPa) = 93.91390 88.94844 83.55056
#
# Poissons Ratio (x) = 0.33246 0.28966
# Poissons Ratio (y) = 0.35102 0.07002
# Poissons Ratio (z) = 0.32559 0.07454
#
# Static dielectric constant tensor:
#      x y z
#    x 4.371240 0.000000 0.000000 
#    y 0.000000 7.769360 0.000000 
#    z 0.000000 0.000000 3.908250 
# 
# 
# High freq. dielectric constant tensor:
#      x y z
#    x 1.857310 0.000000 0.000000 
#    y 0.000000 1.866790 0.000000 
#    z 0.000000 0.000000 1.841450 
# 
# From -- ./inp_files/40216.got.cif
#   From: 2010.03.12/outbox.cif.g09.slc.cpg/sg72_21_cif.got.tgz:40216.got - 2010.04.16 14:54:00.
