data_PCOD8295251
_publ_section_title
;
Structure prediction by ZEFSAII (Michael W. Deem and Ramdas Pophale) SiO2 
 PCOD8295251
Probable space group: I B A M
;
_chemical_formula_sum "Si O2"
_cell_formula_units_Z 96
_cell_length_a 23.059069
_cell_length_b 12.991851
_cell_length_c 17.899729
_cell_angle_alpha 90.000000
_cell_angle_beta 90.000000
_cell_angle_gamma 90.000000
_cell_volume 5362.400611
_symmetry_space_group_name_H-M "I B A M"
_symmetry_group_IT_number 72
_symmetry_cell_setting 'orthorhombic'
loop_
_space_group_symop_operation_xyz
x,y,z
-x,-y,z
x,-y,1/2-z
-x,y,1/2-z
-x,-y,-z
x,y,-z
-x,y,1/2+z
x,-y,1/2+z
1/2+x,1/2+y,1/2+z
1/2-x,1/2-y,1/2+z
1/2+x,1/2-y,-z
1/2-x,1/2+y,-z
1/2-x,1/2-y,1/2-z
1/2+x,1/2+y,1/2-z
1/2-x,1/2+y,z
1/2+x,1/2-y,z
loop_
_atom_site_type_symbol
_atom_site_label
_atom_site_fract_x
_atom_site_fract_y
_atom_site_fract_z
Si Si1 0.921273 0.586630 0.913634
Si Si2 0.321983 0.806754 0.176479
Si Si3 0.246706 0.142141 0.088453
Si Si4 0.147743 0.751959 0.160719
Si Si5 0.452404 0.854742 0.413823
Si Si6 0.213378 0.946126 0.825008
O O1 0.869627 0.624546 0.862957
O O2 0.931832 0.468665 0.892146
O O3 0.978996 0.653809 0.897304
O O4 0.903708 0.596594 0.000000
O O5 0.302574 0.716678 0.120848
O O6 0.348666 0.758057 0.250430
O O7 0.267894 0.876910 0.200190
O O8 0.309961 0.171746 0.119128
O O9 0.231664 0.025518 0.110918
O O10 0.247035 0.151009 0.000000
O O11 0.082140 0.729097 0.135037
O O12 0.164412 0.870093 0.140817
O O13 0.439531 0.831923 0.500000
O O14 0.189822 0.000000 0.750000
#
# Coordination Sequence:
#
# PCOD8295251 Si02
#       6
#    16  16  16  16  16  16
#     4   9  19  35  54  77 111 144 176 223 272 324
#     4  11  21  33  55  78 108 143 176 219 273 324
#     4  11  22  35  53  80 108 140 181 221 269 330
#     4  11  21  34  56  78 109 145 178 225 270 326
#     4   9  19  35  53  79 110 142 180 222 270 325
#     4  11  20  37  53  77 111 145 179 223 276 323
#
# _framework density 17.902429999999999
#
# number of rings (size 3 to 8) (size 9 to 14) (size 15 to 20)
#    0.000    1.667    3.333    4.000    0.000    6.000 
#    0.000    1.667    0.000    1.000    0.000    3.500 
#    0.000    0.000    0.000    0.000    0.000    0.000 
#
# Total GULP energy -595332.740038 kJ/mol
# GULP energy per Si atom -12402.765417 kJ/mol
# Density = 1.786168 g / cm^3
# Si number density = 17.902430 Si / 1000 Ang^3
#
#
#
# Elastic Constant Matrix: (Units=GPa)
#
#
# Indices 1 2 3 4 5 6 
#
# 1 55.0398 15.9343 8.9554 0.0000 0.0000 0.0000
# 2 15.9343 77.0927 14.6191 0.0000 0.0000 0.0000
# 3 8.9554 14.6191 73.4647 0.0000 0.0000 0.0000
# 4 0.0000 0.0000 0.0000 24.1798 0.0000 0.0000
# 5 0.0000 0.0000 0.0000 0.0000 27.4444 0.0000
# 6 0.0000 0.0000 0.0000 0.0000 0.0000 31.4410
#
#
#
# Elastic Compliance Matrix: (Units=1/GPa)
#
#
# Indices 1 2 3 4 5 6 
#
# 1 0.019513 -0.003723 -0.001638 0.000000 0.000000 0.000000
# 2 -0.003723 0.014190 -0.002370 0.000000 0.000000 0.000000
# 3 -0.001638 -0.002370 0.014283 0.000000 0.000000 0.000000
# 4 0.000000 0.000000 0.000000 0.041357 0.000000 0.000000
# 5 0.000000 0.000000 0.000000 0.000000 0.036437 0.000000
# 6 0.000000 0.000000 0.000000 0.000000 0.000000 0.031806
#
#
# Mechanical properties :
#
#
# Convention : Reuss Voigt Hill
#
# Bulk Modulus (GPa) = 30.74504 31.62384 31.18444
# Shear Modulus (GPa) = 27.19036 27.68560 27.43798
#
# Velocity S-wave (km/s) = 3.90142 3.93679 3.91914
# Velocity P-wave (km/s) = 6.12419 6.19413 6.15926
#
# Compressibility (1/GPa) = 0.03252557
#
# Stress axis : x y z
#
# Youngs Moduli (GPa) = 51.24833 70.47110 70.01205
#
# Poissons Ratio (x) = 0.26233 0.11467
# Poissons Ratio (y) = 0.19077 0.16593
# Poissons Ratio (z) = 0.08394 0.16702
#
# Static dielectric constant tensor:
#      x y z
#    x 3.265420 0.000000 0.000000 
#    y 0.000000 3.399360 0.000000 
#    z 0.000000 0.000000 3.230260 
# 
# 
# High freq. dielectric constant tensor:
#      x y z
#    x 1.678220 0.000000 0.000000 
#    y 0.000000 1.685030 0.000000 
#    z 0.000000 0.000000 1.697320 
# 
# From -- ./inp_files/29409.got.cif
#   From: 2010.03.12/outbox.cif.g09.slc.cpg/sg72_15_cif.got.tgz:29409.got - 2010.04.16 14:54:00.
